# generated using pymatgen
data_Fe8B19H312Pd6C408N72O9F76
_symmetry_space_group_name_H-M   'P 1'
_cell_length_a   28.29300000
_cell_length_b   28.29300000
_cell_length_c   44.31390294
_cell_angle_alpha   71.38339934
_cell_angle_beta   71.38339934
_cell_angle_gamma   60.00000000
_symmetry_Int_Tables_number   1
_chemical_formula_structural   Fe8B19H312Pd6C408N72O9F76
_chemical_formula_sum   'Fe16 B38 H624 Pd12 C816 N144 O18 F152'
_cell_volume   28557.19630946
_cell_formula_units_Z   2
loop_
 _symmetry_equiv_pos_site_id
 _symmetry_equiv_pos_as_xyz
  1  'x, y, z'
loop_
 _atom_site_type_symbol
 _atom_site_label
 _atom_site_symmetry_multiplicity
 _atom_site_fract_x
 _atom_site_fract_y
 _atom_site_fract_z
 _atom_site_occupancy
  B  B1  1  0.914560  0.601060  0.061320  1
  B  B2  1  0.423060  0.914560  0.061320  1
  B  B3  1  0.601060  0.423060  0.061320  1
  B  B4  1  0.576940  0.398940  0.938680  1
  B  B5  1  0.085440  0.576940  0.938680  1
  B  B6  1  0.398940  0.085440  0.938680  1
  B  B7  1  0.403480  0.283080  0.289260  1
  B  B8  1  0.024180  0.403480  0.289260  1
  B  B9  1  0.283080  0.024180  0.289260  1
  B  B10  1  0.975820  0.716920  0.710740  1
  B  B11  1  0.596520  0.975820  0.710740  1
  B  B12  1  0.716920  0.596520  0.710740  1
  B  B13  1  0.686670  0.729670  0.179790  1
  B  B14  1  0.403870  0.686670  0.179790  1
  B  B15  1  0.729670  0.403870  0.179790  1
  B  B16  1  0.596130  0.270330  0.820210  1
  B  B17  1  0.313330  0.596130  0.820210  1
  B  B18  1  0.270330  0.313330  0.820210  1
  B  B19  1  0.595820  0.902920  0.432240  1
  B  B20  1  0.069020  0.595820  0.432240  1
  B  B21  1  0.902920  0.069020  0.432240  1
  B  B22  1  0.930980  0.097080  0.567760  1
  B  B23  1  0.404180  0.930980  0.567760  1
  B  B24  1  0.097080  0.404180  0.567760  1
  B  B25  1  0.478210  0.101610  0.199770  1
  B  B26  1  0.220410  0.478210  0.199770  1
  B  B27  1  0.101610  0.220410  0.199770  1
  B  B28  1  0.779590  0.898390  0.800230  1
  B  B29  1  0.521790  0.779590  0.800230  1
  B  B30  1  0.898390  0.521790  0.800230  1
  B  B31  1  0.297173  0.297173  0.108480  1
  B  B32  1  0.702827  0.702827  0.891520  1
  B  B33  1  0.951600  0.951600  0.145200  1
  B  B34  1  0.048400  0.048400  0.854800  1
  B  B35  1  0.574267  0.574233  0.277200  1
  B  B36  1  0.425700  0.425767  0.722800  1
  B  B37  1  0.204233  0.204233  0.387300  1
  B  B38  1  0.795767  0.795767  0.612700  1
  C  C39  1  0.488780  0.341980  0.196560  1.0
  C  C40  1  0.972680  0.488780  0.196560  1.0
  C  C41  1  0.341980  0.972680  0.196560  1.0
  C  C42  1  0.027320  0.658020  0.803440  1.0
  C  C43  1  0.511220  0.027320  0.803440  1.0
  C  C44  1  0.658020  0.511220  0.803440  1.0
  C  C45  1  0.503300  0.346500  0.222300  1.0
  C  C46  1  0.927900  0.503300  0.222300  1.0
  C  C47  1  0.346500  0.927900  0.222300  1.0
  C  C48  1  0.072100  0.653500  0.777700  1.0
  C  C49  1  0.496700  0.072100  0.777700  1.0
  C  C50  1  0.653500  0.496700  0.777700  1.0
  C  C51  1  0.542190  0.366390  0.216330  1.0
  C  C52  1  0.875090  0.542190  0.216330  1.0
  C  C53  1  0.366390  0.875090  0.216330  1.0
  C  C54  1  0.124910  0.633610  0.783670  1.0
  C  C55  1  0.457810  0.124910  0.783670  1.0
  C  C56  1  0.633610  0.457810  0.783670  1.0
  C  C57  1  0.566570  0.381670  0.184590  1.0
  C  C58  1  0.867170  0.566570  0.184590  1.0
  C  C59  1  0.381670  0.867170  0.184590  1.0
  C  C60  1  0.132830  0.618330  0.815410  1.0
  C  C61  1  0.433430  0.132830  0.815410  1.0
  C  C62  1  0.618330  0.433430  0.815410  1.0
  C  C63  1  0.552050  0.377150  0.158850  1.0
  C  C64  1  0.911950  0.552050  0.158850  1.0
  C  C65  1  0.377150  0.911950  0.158850  1.0
  C  C66  1  0.088050  0.622850  0.841150  1.0
  C  C67  1  0.447950  0.088050  0.841150  1.0
  C  C68  1  0.622850  0.447950  0.841150  1.0
  C  C69  1  0.556390  0.372790  0.244830  1.0
  C  C70  1  0.825990  0.556390  0.244830  1.0
  C  C71  1  0.372790  0.825990  0.244830  1.0
  C  C72  1  0.174010  0.627210  0.755170  1.0
  C  C73  1  0.443610  0.174010  0.755170  1.0
  C  C74  1  0.627210  0.443610  0.755170  1.0
  C  C75  1  0.607600  0.371000  0.242100  1.0
  C  C76  1  0.779300  0.607600  0.242100  1.0
  C  C77  1  0.371000  0.779300  0.242100  1.0
  C  C78  1  0.220700  0.629000  0.757900  1.0
  C  C79  1  0.392400  0.220700  0.757900  1.0
  C  C80  1  0.629000  0.392400  0.757900  1.0
  C  C81  1  0.621370  0.373170  0.268890  1.0
  C  C82  1  0.736570  0.621370  0.268890  1.0
  C  C83  1  0.373170  0.736570  0.268890  1.0
  C  C84  1  0.263430  0.626830  0.731110  1.0
  C  C85  1  0.378630  0.263430  0.731110  1.0
  C  C86  1  0.626830  0.378630  0.731110  1.0
  C  C87  1  0.584040  0.377140  0.298380  1.0
  C  C88  1  0.740440  0.584040  0.298380  1.0
  C  C89  1  0.377140  0.740440  0.298380  1.0
  C  C90  1  0.259560  0.622860  0.701620  1.0
  C  C91  1  0.415960  0.259560  0.701620  1.0
  C  C92  1  0.622860  0.415960  0.701620  1.0
  C  C93  1  0.532920  0.378820  0.301140  1.0
  C  C94  1  0.787120  0.532920  0.301140  1.0
  C  C95  1  0.378820  0.787120  0.301140  1.0
  C  C96  1  0.212880  0.621180  0.698860  1.0
  C  C97  1  0.467080  0.212880  0.698860  1.0
  C  C98  1  0.621180  0.467080  0.698860  1.0
  C  C99  1  0.519050  0.376650  0.274350  1.0
  C  C100  1  0.829950  0.519050  0.274350  1.0
  C  C101  1  0.376650  0.829950  0.274350  1.0
  C  C102  1  0.170050  0.623350  0.725650  1.0
  C  C103  1  0.480950  0.170050  0.725650  1.0
  C  C104  1  0.623350  0.480950  0.725650  1.0
  C  C105  1  0.597160  0.423160  0.330420  1.0
  C  C106  1  0.649260  0.597160  0.330420  1.0
  C  C107  1  0.423160  0.649260  0.330420  1.0
  C  C108  1  0.350740  0.576840  0.669580  1.0
  C  C109  1  0.402840  0.350740  0.669580  1.0
  C  C110  1  0.576840  0.402840  0.669580  1.0
  C  C111  1  0.615080  0.419180  0.357660  1.0
  C  C112  1  0.608080  0.615080  0.357660  1.0
  C  C113  1  0.419180  0.608080  0.357660  1.0
  C  C114  1  0.391920  0.580820  0.642340  1.0
  C  C115  1  0.384920  0.391920  0.642340  1.0
  C  C116  1  0.580820  0.384920  0.642340  1.0
  C  C117  1  0.609840  0.464440  0.366780  1.0
  C  C118  1  0.558940  0.609840  0.366780  1.0
  C  C119  1  0.464440  0.558940  0.366780  1.0
  C  C120  1  0.441060  0.535560  0.633220  1.0
  C  C121  1  0.390160  0.441060  0.633220  1.0
  C  C122  1  0.535560  0.390160  0.633220  1.0
  C  C123  1  0.623770  0.457570  0.395790  1.0
  C  C124  1  0.522870  0.623770  0.395790  1.0
  C  C125  1  0.457570  0.522870  0.395790  1.0
  C  C126  1  0.477130  0.542430  0.604210  1.0
  C  C127  1  0.376230  0.477130  0.604210  1.0
  C  C128  1  0.542430  0.376230  0.604210  1.0
  C  C129  1  0.642940  0.405340  0.415680  1.0
  C  C130  1  0.536040  0.642940  0.415680  1.0
  C  C131  1  0.405340  0.536040  0.415680  1.0
  C  C132  1  0.463960  0.594660  0.584320  1.0
  C  C133  1  0.357060  0.463960  0.584320  1.0
  C  C134  1  0.594660  0.357060  0.584320  1.0
  C  C135  1  0.648270  0.359870  0.406590  1.0
  C  C136  1  0.585270  0.648270  0.406590  1.0
  C  C137  1  0.359870  0.585270  0.406590  1.0
  C  C138  1  0.414730  0.640130  0.593410  1.0
  C  C139  1  0.351730  0.414730  0.593410  1.0
  C  C140  1  0.640130  0.351730  0.593410  1.0
  C  C141  1  0.385100  0.444100  0.140100  1.0
  C  C142  1  0.030700  0.385100  0.140100  1.0
  C  C143  1  0.444100  0.030700  0.140100  1.0
  C  C144  1  0.969300  0.555900  0.859900  1.0
  C  C145  1  0.614900  0.969300  0.859900  1.0
  C  C146  1  0.555900  0.614900  0.859900  1.0
  C  C147  1  0.346330  0.499630  0.137010  1.0
  C  C148  1  0.017030  0.346330  0.137010  1.0
  C  C149  1  0.499630  0.017030  0.137010  1.0
  C  C150  1  0.982970  0.500370  0.862990  1.0
  C  C151  1  0.653670  0.982970  0.862990  1.0
  C  C152  1  0.500370  0.653670  0.862990  1.0
  C  C153  1  0.361860  0.540660  0.116820  1.0
  C  C154  1  0.980660  0.361860  0.116820  1.0
  C  C155  1  0.540660  0.980660  0.116820  1.0
  C  C156  1  0.019340  0.459340  0.883180  1.0
  C  C157  1  0.638140  0.019340  0.883180  1.0
  C  C158  1  0.459340  0.638140  0.883180  1.0
  C  C159  1  0.416260  0.525960  0.099720  1.0
  C  C160  1  0.958060  0.416260  0.099720  1.0
  C  C161  1  0.525960  0.958060  0.099720  1.0
  C  C162  1  0.041940  0.474040  0.900280  1.0
  C  C163  1  0.583740  0.041940  0.900280  1.0
  C  C164  1  0.474040  0.583740  0.900280  1.0
  C  C165  1  0.455030  0.470430  0.102810  1.0
  C  C166  1  0.971730  0.455030  0.102810  1.0
  C  C167  1  0.470430  0.971730  0.102810  1.0
  C  C168  1  0.028270  0.529570  0.897190  1.0
  C  C169  1  0.544970  0.028270  0.897190  1.0
  C  C170  1  0.529570  0.544970  0.897190  1.0
  C  C171  1  0.318880  0.601780  0.112560  1.0
  C  C172  1  0.966780  0.318880  0.112560  1.0
  C  C173  1  0.601780  0.966780  0.112560  1.0
  C  C174  1  0.033220  0.398220  0.887440  1.0
  C  C175  1  0.681120  0.033220  0.887440  1.0
  C  C176  1  0.398220  0.681120  0.887440  1.0
  C  C177  1  0.336260  0.643060  0.104820  1.0
  C  C178  1  0.915860  0.336260  0.104820  1.0
  C  C179  1  0.643060  0.915860  0.104820  1.0
  C  C180  1  0.084140  0.356940  0.895180  1.0
  C  C181  1  0.663740  0.084140  0.895180  1.0
  C  C182  1  0.356940  0.663740  0.895180  1.0
  C  C183  1  0.297750  0.698750  0.100650  1.0
  C  C184  1  0.902850  0.297750  0.100650  1.0
  C  C185  1  0.698750  0.902850  0.100650  1.0
  C  C186  1  0.097150  0.301250  0.899350  1.0
  C  C187  1  0.702250  0.097150  0.899350  1.0
  C  C188  1  0.301250  0.702250  0.899350  1.0
  C  C189  1  0.241770  0.713270  0.104190  1.0
  C  C190  1  0.940770  0.241770  0.104190  1.0
  C  C191  1  0.713270  0.940770  0.104190  1.0
  C  C192  1  0.059230  0.286730  0.895810  1.0
  C  C193  1  0.758230  0.059230  0.895810  1.0
  C  C194  1  0.286730  0.758230  0.895810  1.0
  C  C195  1  0.224300  0.672100  0.111900  1.0
  C  C196  1  0.991700  0.224300  0.111900  1.0
  C  C197  1  0.672100  0.991700  0.111900  1.0
  C  C198  1  0.008300  0.327900  0.888100  1.0
  C  C199  1  0.775700  0.008300  0.888100  1.0
  C  C200  1  0.327900  0.775700  0.888100  1.0
  C  C201  1  0.262900  0.616300  0.116100  1.0
  C  C202  1  0.004700  0.262900  0.116100  1.0
  C  C203  1  0.616300  0.004700  0.116100  1.0
  C  C204  1  0.995300  0.383700  0.883900  1.0
  C  C205  1  0.737100  0.995300  0.883900  1.0
  C  C206  1  0.383700  0.737100  0.883900  1.0
  C  C207  1  0.188300  0.786700  0.075000  1.0
  C  C208  1  0.950000  0.188300  0.075000  1.0
  C  C209  1  0.786700  0.950000  0.075000  1.0
  C  C210  1  0.050000  0.213300  0.925000  1.0
  C  C211  1  0.811700  0.050000  0.925000  1.0
  C  C212  1  0.213300  0.811700  0.925000  1.0
  C  C213  1  0.141320  0.848520  0.068940  1.0
  C  C214  1  0.941220  0.141320  0.068940  1.0
  C  C215  1  0.848520  0.941220  0.068940  1.0
  C  C216  1  0.058780  0.151480  0.931060  1.0
  C  C217  1  0.858680  0.058780  0.931060  1.0
  C  C218  1  0.151480  0.858680  0.931060  1.0
  C  C219  1  0.115600  0.881800  0.042600  1.0
  C  C220  1  0.960000  0.115600  0.042600  1.0
  C  C221  1  0.881800  0.960000  0.042600  1.0
  C  C222  1  0.040000  0.118200  0.957400  1.0
  C  C223  1  0.884400  0.040000  0.957400  1.0
  C  C224  1  0.118200  0.884400  0.957400  1.0
  C  C225  1  0.079610  0.937810  0.042570  1.0
  C  C226  1  0.940010  0.079610  0.042570  1.0
  C  C227  1  0.937810  0.940010  0.042570  1.0
  C  C228  1  0.059990  0.062190  0.957430  1.0
  C  C229  1  0.920390  0.059990  0.957430  1.0
  C  C230  1  0.062190  0.920390  0.957430  1.0
  C  C231  1  0.069340  0.960540  0.068880  1.0
  C  C232  1  0.901240  0.069340  0.068880  1.0
  C  C233  1  0.960540  0.901240  0.068880  1.0
  C  C234  1  0.098760  0.039460  0.931120  1.0
  C  C235  1  0.930660  0.098760  0.931120  1.0
  C  C236  1  0.039460  0.930660  0.931120  1.0
  C  C237  1  0.095060  0.927260  0.095220  1.0
  C  C238  1  0.882460  0.095060  0.095220  1.0
  C  C239  1  0.927260  0.882460  0.095220  1.0
  C  C240  1  0.117540  0.072740  0.904780  1.0
  C  C241  1  0.904940  0.117540  0.904780  1.0
  C  C242  1  0.072740  0.904940  0.904780  1.0
  C  C243  1  0.513000  0.351200  0.057000  1.0
  C  C244  1  0.078800  0.513000  0.057000  1.0
  C  C245  1  0.351200  0.078800  0.057000  1.0
  C  C246  1  0.921200  0.648800  0.943000  1.0
  C  C247  1  0.487000  0.921200  0.943000  1.0
  C  C248  1  0.648800  0.487000  0.943000  1.0
  C  C249  1  0.502240  0.347440  0.029580  1.0
  C  C250  1  0.120740  0.502240  0.029580  1.0
  C  C251  1  0.347440  0.120740  0.029580  1.0
  C  C252  1  0.879260  0.652560  0.970420  1.0
  C  C253  1  0.497760  0.879260  0.970420  1.0
  C  C254  1  0.652560  0.497760  0.970420  1.0
  C  C255  1  0.458690  0.335590  0.032430  1.0
  C  C256  1  0.173290  0.458690  0.032430  1.0
  C  C257  1  0.335590  0.173290  0.032430  1.0
  C  C258  1  0.826710  0.664410  0.967570  1.0
  C  C259  1  0.541310  0.826710  0.967570  1.0
  C  C260  1  0.664410  0.541310  0.967570  1.0
  C  C261  1  0.425800  0.327700  0.062700  1.0
  C  C262  1  0.183800  0.425800  0.062700  1.0
  C  C263  1  0.327700  0.183800  0.062700  1.0
  C  C264  1  0.816200  0.672300  0.937300  1.0
  C  C265  1  0.574200  0.816200  0.937300  1.0
  C  C266  1  0.672300  0.574200  0.937300  1.0
  C  C267  1  0.436570  0.331570  0.090090  1.0
  C  C268  1  0.141770  0.436570  0.090090  1.0
  C  C269  1  0.331570  0.141770  0.090090  1.0
  C  C270  1  0.858230  0.668430  0.909910  1.0
  C  C271  1  0.563430  0.858230  0.909910  1.0
  C  C272  1  0.668430  0.563430  0.909910  1.0
  C  C273  1  0.452360  0.327060  0.001920  1.0
  C  C274  1  0.218660  0.452360  0.001920  1.0
  C  C275  1  0.327060  0.218660  0.001920  1.0
  C  C276  1  0.781340  0.672940  0.998080  1.0
  C  C277  1  0.547640  0.781340  0.998080  1.0
  C  C278  1  0.672940  0.547640  0.998080  1.0
  C  C279  1  0.428300  0.293400  0.003900  1.0
  C  C280  1  0.274400  0.428300  0.003900  1.0
  C  C281  1  0.293400  0.274400  0.003900  1.0
  C  C282  1  0.725600  0.706600  0.996100  1.0
  C  C283  1  0.571700  0.725600  0.996100  1.0
  C  C284  1  0.706600  0.571700  0.996100  1.0
  C  C285  1  0.421260  0.287760  0.975820  1.0
  C  C286  1  0.315160  0.421260  0.975820  1.0
  C  C287  1  0.287760  0.315160  0.975820  1.0
  C  C288  1  0.684840  0.712240  0.024180  1.0
  C  C289  1  0.578740  0.684840  0.024180  1.0
  C  C290  1  0.712240  0.578740  0.024180  1.0
  C  C291  1  0.438190  0.315890  0.945730  1.0
  C  C292  1  0.300190  0.438190  0.945730  1.0
  C  C293  1  0.315890  0.300190  0.945730  1.0
  C  C294  1  0.699810  0.684110  0.054270  1.0
  C  C295  1  0.561810  0.699810  0.054270  1.0
  C  C296  1  0.684110  0.561810  0.054270  1.0
  C  C297  1  0.462350  0.349350  0.943750  1.0
  C  C298  1  0.244550  0.462350  0.943750  1.0
  C  C299  1  0.349350  0.244550  0.943750  1.0
  C  C300  1  0.755450  0.650650  0.056250  1.0
  C  C301  1  0.537650  0.755450  0.056250  1.0
  C  C302  1  0.650650  0.537650  0.056250  1.0
  C  C303  1  0.469380  0.354980  0.971860  1.0
  C  C304  1  0.203780  0.469380  0.971860  1.0
  C  C305  1  0.354980  0.203780  0.971860  1.0
  C  C306  1  0.796220  0.645020  0.028140  1.0
  C  C307  1  0.530620  0.796220  0.028140  1.0
  C  C308  1  0.645020  0.530620  0.028140  1.0
  C  C309  1  0.457240  0.268040  0.905980  1.0
  C  C310  1  0.368740  0.457240  0.905980  1.0
  C  C311  1  0.268040  0.368740  0.905980  1.0
  C  C312  1  0.631260  0.731960  0.094020  1.0
  C  C313  1  0.542760  0.631260  0.094020  1.0
  C  C314  1  0.731960  0.542760  0.094020  1.0
  C  C315  1  0.448810  0.263310  0.879370  1.0
  C  C316  1  0.408510  0.448810  0.879370  1.0
  C  C317  1  0.263310  0.408510  0.879370  1.0
  C  C318  1  0.591490  0.736690  0.120630  1.0
  C  C319  1  0.551190  0.591490  0.120630  1.0
  C  C320  1  0.736690  0.551190  0.120630  1.0
  C  C321  1  0.478860  0.217660  0.864220  1.0
  C  C322  1  0.439260  0.478860  0.864220  1.0
  C  C323  1  0.217660  0.439260  0.864220  1.0
  C  C324  1  0.560740  0.782340  0.135780  1.0
  C  C325  1  0.521140  0.560740  0.135780  1.0
  C  C326  1  0.782340  0.521140  0.135780  1.0
  C  C327  1  0.464640  0.218640  0.836680  1.0
  C  C328  1  0.480040  0.464640  0.836680  1.0
  C  C329  1  0.218640  0.480040  0.836680  1.0
  C  C330  1  0.519960  0.781360  0.163320  1.0
  C  C331  1  0.535360  0.519960  0.163320  1.0
  C  C332  1  0.781360  0.535360  0.163320  1.0
  C  C333  1  0.420480  0.265180  0.824260  1.0
  C  C334  1  0.490080  0.420480  0.824260  1.0
  C  C335  1  0.265180  0.490080  0.824260  1.0
  C  C336  1  0.509920  0.734820  0.175740  1.0
  C  C337  1  0.579520  0.509920  0.175740  1.0
  C  C338  1  0.734820  0.579520  0.175740  1.0
  C  C339  1  0.390430  0.310830  0.839410  1.0
  C  C340  1  0.459330  0.390430  0.839410  1.0
  C  C341  1  0.310830  0.459330  0.839410  1.0
  C  C342  1  0.540670  0.689170  0.160590  1.0
  C  C343  1  0.609570  0.540670  0.160590  1.0
  C  C344  1  0.689170  0.609570  0.160590  1.0
  C  C345  1  0.540210  0.226010  0.146370  1.0
  C  C346  1  0.087410  0.540210  0.146370  1.0
  C  C347  1  0.226010  0.087410  0.146370  1.0
  C  C348  1  0.912590  0.773990  0.853630  1.0
  C  C349  1  0.459790  0.912590  0.853630  1.0
  C  C350  1  0.773990  0.459790  0.853630  1.0
  C  C351  1  0.580660  0.171060  0.149220  1.0
  C  C352  1  0.099060  0.580660  0.149220  1.0
  C  C353  1  0.171060  0.099060  0.149220  1.0
  C  C354  1  0.900940  0.828940  0.850780  1.0
  C  C355  1  0.419340  0.900940  0.850780  1.0
  C  C356  1  0.828940  0.419340  0.850780  1.0
  C  C357  1  0.636160  0.158860  0.135720  1.0
  C  C358  1  0.069260  0.636160  0.135720  1.0
  C  C359  1  0.158860  0.069260  0.135720  1.0
  C  C360  1  0.930740  0.841140  0.864280  1.0
  C  C361  1  0.363840  0.930740  0.864280  1.0
  C  C362  1  0.841140  0.363840  0.864280  1.0
  C  C363  1  0.651210  0.201710  0.119370  1.0
  C  C364  1  0.027710  0.651210  0.119370  1.0
  C  C365  1  0.201710  0.027710  0.119370  1.0
  C  C366  1  0.972290  0.798290  0.880630  1.0
  C  C367  1  0.348790  0.972290  0.880630  1.0
  C  C368  1  0.798290  0.348790  0.880630  1.0
  C  C369  1  0.610760  0.256660  0.116520  1.0
  C  C370  1  0.016060  0.610760  0.116520  1.0
  C  C371  1  0.256660  0.016060  0.116520  1.0
  C  C372  1  0.983940  0.743340  0.883480  1.0
  C  C373  1  0.389240  0.983940  0.883480  1.0
  C  C374  1  0.743340  0.389240  0.883480  1.0
  C  C375  1  0.680650  0.099050  0.140550  1.0
  C  C376  1  0.079750  0.680650  0.140550  1.0
  C  C377  1  0.099050  0.079750  0.140550  1.0
  C  C378  1  0.920250  0.900950  0.859450  1.0
  C  C379  1  0.319350  0.920250  0.859450  1.0
  C  C380  1  0.900950  0.319350  0.859450  1.0
  C  C381  1  0.672680  0.060380  0.167760  1.0
  C  C382  1  0.099180  0.672680  0.167760  1.0
  C  C383  1  0.060380  0.099180  0.167760  1.0
  C  C384  1  0.900820  0.939620  0.832240  1.0
  C  C385  1  0.327320  0.900820  0.832240  1.0
  C  C386  1  0.939620  0.327320  0.832240  1.0
  C  C387  1  0.714200  0.005900  0.172200  1.0
  C  C388  1  0.107700  0.714200  0.172200  1.0
  C  C389  1  0.005900  0.107700  0.172200  1.0
  C  C390  1  0.892300  0.994100  0.827800  1.0
  C  C391  1  0.285800  0.892300  0.827800  1.0
  C  C392  1  0.994100  0.285800  0.827800  1.0
  C  C393  1  0.763490  0.990290  0.149430  1.0
  C  C394  1  0.096790  0.763490  0.149430  1.0
  C  C395  1  0.990290  0.096790  0.149430  1.0
  C  C396  1  0.903210  0.009710  0.850570  1.0
  C  C397  1  0.236510  0.903210  0.850570  1.0
  C  C398  1  0.009710  0.236510  0.850570  1.0
  C  C399  1  0.771460  0.028960  0.122220  1.0
  C  C400  1  0.077360  0.771460  0.122220  1.0
  C  C401  1  0.028960  0.077360  0.122220  1.0
  C  C402  1  0.922640  0.971040  0.877780  1.0
  C  C403  1  0.228540  0.922640  0.877780  1.0
  C  C404  1  0.971040  0.228540  0.877780  1.0
  C  C405  1  0.730040  0.083340  0.117780  1.0
  C  C406  1  0.068840  0.730040  0.117780  1.0
  C  C407  1  0.083340  0.068840  0.117780  1.0
  C  C408  1  0.931160  0.916660  0.882220  1.0
  C  C409  1  0.269960  0.931160  0.882220  1.0
  C  C410  1  0.916660  0.269960  0.882220  1.0
  C  C411  1  0.833050  0.922050  0.174450  1.0
  C  C412  1  0.070450  0.833050  0.174450  1.0
  C  C413  1  0.922050  0.070450  0.174450  1.0
  C  C414  1  0.929550  0.077950  0.825550  1.0
  C  C415  1  0.166950  0.929550  0.825550  1.0
  C  C416  1  0.077950  0.166950  0.825550  1.0
  C  C417  1  0.878290  0.863190  0.177930  1.0
  C  C418  1  0.080590  0.878290  0.177930  1.0
  C  C419  1  0.863190  0.080590  0.177930  1.0
  C  C420  1  0.919410  0.136810  0.822070  1.0
  C  C421  1  0.121710  0.919410  0.822070  1.0
  C  C422  1  0.136810  0.121710  0.822070  1.0
  C  C423  1  0.914250  0.837450  0.199650  1.0
  C  C424  1  0.048650  0.914250  0.199650  1.0
  C  C425  1  0.837450  0.048650  0.199650  1.0
  C  C426  1  0.951350  0.162550  0.800350  1.0
  C  C427  1  0.085750  0.951350  0.800350  1.0
  C  C428  1  0.162550  0.085750  0.800350  1.0
  C  C429  1  0.949350  0.780750  0.202950  1.0
  C  C430  1  0.066950  0.949350  0.202950  1.0
  C  C431  1  0.780750  0.066950  0.202950  1.0
  C  C432  1  0.933050  0.219250  0.797050  1.0
  C  C433  1  0.050650  0.933050  0.797050  1.0
  C  C434  1  0.219250  0.050650  0.797050  1.0
  C  C435  1  0.948390  0.749690  0.184530  1.0
  C  C436  1  0.117390  0.948390  0.184530  1.0
  C  C437  1  0.749690  0.117390  0.184530  1.0
  C  C438  1  0.882610  0.250310  0.815470  1.0
  C  C439  1  0.051610  0.882610  0.815470  1.0
  C  C440  1  0.250310  0.051610  0.815470  1.0
  C  C441  1  0.912330  0.775430  0.162810  1.0
  C  C442  1  0.149430  0.912330  0.162810  1.0
  C  C443  1  0.775430  0.149430  0.162810  1.0
  C  C444  1  0.850570  0.224570  0.837190  1.0
  C  C445  1  0.087670  0.850570  0.837190  1.0
  C  C446  1  0.224570  0.087670  0.837190  1.0
  C  C447  1  0.551880  0.034480  0.369660  1.0
  C  C448  1  0.043980  0.551880  0.369660  1.0
  C  C449  1  0.034480  0.043980  0.369660  1.0
  C  C450  1  0.956020  0.965520  0.630340  1.0
  C  C451  1  0.448120  0.956020  0.630340  1.0
  C  C452  1  0.965520  0.448120  0.630340  1.0
  C  C453  1  0.578840  0.067240  0.363780  1.0
  C  C454  1  0.990140  0.578840  0.363780  1.0
  C  C455  1  0.067240  0.990140  0.363780  1.0
  C  C456  1  0.009860  0.932760  0.636220  1.0
  C  C457  1  0.421160  0.009860  0.636220  1.0
  C  C458  1  0.932760  0.421160  0.636220  1.0
  C  C459  1  0.556240  0.122040  0.347280  1.0
  C  C460  1  0.974440  0.556240  0.347280  1.0
  C  C461  1  0.122040  0.974440  0.347280  1.0
  C  C462  1  0.025560  0.877960  0.652720  1.0
  C  C463  1  0.443760  0.025560  0.652720  1.0
  C  C464  1  0.877960  0.443760  0.652720  1.0
  C  C465  1  0.506680  0.144180  0.336660  1.0
  C  C466  1  0.012480  0.506680  0.336660  1.0
  C  C467  1  0.144180  0.012480  0.336660  1.0
  C  C468  1  0.987520  0.855820  0.663340  1.0
  C  C469  1  0.493320  0.987520  0.663340  1.0
  C  C470  1  0.855820  0.493320  0.663340  1.0
  C  C471  1  0.479820  0.111320  0.342540  1.0
  C  C472  1  0.066320  0.479820  0.342540  1.0
  C  C473  1  0.111320  0.066320  0.342540  1.0
  C  C474  1  0.933680  0.888680  0.657460  1.0
  C  C475  1  0.520180  0.933680  0.657460  1.0
  C  C476  1  0.888680  0.520180  0.657460  1.0
  C  C477  1  0.583770  0.156270  0.341490  1.0
  C  C478  1  0.918470  0.583770  0.341490  1.0
  C  C479  1  0.156270  0.918470  0.341490  1.0
  C  C480  1  0.081530  0.843730  0.658510  1.0
  C  C481  1  0.416230  0.081530  0.658510  1.0
  C  C482  1  0.843730  0.416230  0.658510  1.0
  C  C483  1  0.616280  0.144880  0.363060  1.0
  C  C484  1  0.875780  0.616280  0.363060  1.0
  C  C485  1  0.144880  0.875780  0.363060  1.0
  C  C486  1  0.124220  0.855120  0.636940  1.0
  C  C487  1  0.383720  0.124220  0.636940  1.0
  C  C488  1  0.855120  0.383720  0.636940  1.0
  C  C489  1  0.641940  0.178140  0.358680  1.0
  C  C490  1  0.821240  0.641940  0.358680  1.0
  C  C491  1  0.178140  0.821240  0.358680  1.0
  C  C492  1  0.178760  0.821860  0.641320  1.0
  C  C493  1  0.358060  0.178760  0.641320  1.0
  C  C494  1  0.821860  0.358060  0.641320  1.0
  C  C495  1  0.634990  0.222990  0.332730  1.0
  C  C496  1  0.809290  0.634990  0.332730  1.0
  C  C497  1  0.222990  0.809290  0.332730  1.0
  C  C498  1  0.190710  0.777010  0.667270  1.0
  C  C499  1  0.365010  0.190710  0.667270  1.0
  C  C500  1  0.777010  0.365010  0.667270  1.0
  C  C501  1  0.602480  0.234380  0.311160  1.0
  C  C502  1  0.851980  0.602480  0.311160  1.0
  C  C503  1  0.234380  0.851980  0.311160  1.0
  C  C504  1  0.148020  0.765620  0.688840  1.0
  C  C505  1  0.397520  0.148020  0.688840  1.0
  C  C506  1  0.765620  0.397520  0.688840  1.0
  C  C507  1  0.576820  0.201120  0.315540  1.0
  C  C508  1  0.906520  0.576820  0.315540  1.0
  C  C509  1  0.201120  0.906520  0.315540  1.0
  C  C510  1  0.093480  0.798880  0.684460  1.0
  C  C511  1  0.423180  0.093480  0.684460  1.0
  C  C512  1  0.798880  0.423180  0.684460  1.0
  C  C513  1  0.749230  0.333530  0.328110  1.0
  C  C514  1  0.589130  0.749230  0.328110  1.0
  C  C515  1  0.333530  0.589130  0.328110  1.0
  C  C516  1  0.410870  0.666470  0.671890  1.0
  C  C517  1  0.250770  0.410870  0.671890  1.0
  C  C518  1  0.666470  0.250770  0.671890  1.0
  C  C519  1  0.789130  0.339730  0.301410  1.0
  C  C520  1  0.569730  0.789130  0.301410  1.0
  C  C521  1  0.339730  0.569730  0.301410  1.0
  C  C522  1  0.430270  0.660270  0.698590  1.0
  C  C523  1  0.210870  0.430270  0.698590  1.0
  C  C524  1  0.660270  0.210870  0.698590  1.0
  C  C525  1  0.801400  0.316500  0.275100  1.0
  C  C526  1  0.607000  0.801400  0.275100  1.0
  C  C527  1  0.316500  0.607000  0.275100  1.0
  C  C528  1  0.393000  0.683500  0.724900  1.0
  C  C529  1  0.198600  0.393000  0.724900  1.0
  C  C530  1  0.683500  0.198600  0.724900  1.0
  C  C531  1  0.773210  0.287610  0.275970  1.0
  C  C532  1  0.663210  0.773210  0.275970  1.0
  C  C533  1  0.287610  0.663210  0.275970  1.0
  C  C534  1  0.336790  0.712390  0.724030  1.0
  C  C535  1  0.226790  0.336790  0.724030  1.0
  C  C536  1  0.712390  0.226790  0.724030  1.0
  C  C537  1  0.732750  0.284350  0.302850  1.0
  C  C538  1  0.680050  0.732750  0.302850  1.0
  C  C539  1  0.284350  0.680050  0.302850  1.0
  C  C540  1  0.319950  0.715650  0.697150  1.0
  C  C541  1  0.267250  0.319950  0.697150  1.0
  C  C542  1  0.715650  0.267250  0.697150  1.0
  C  C543  1  0.698980  0.256780  0.303960  1.0
  C  C544  1  0.740280  0.698980  0.303960  1.0
  C  C545  1  0.256780  0.740280  0.303960  1.0
  C  C546  1  0.259720  0.743220  0.696040  1.0
  C  C547  1  0.301020  0.259720  0.696040  1.0
  C  C548  1  0.743220  0.301020  0.696040  1.0
  C  C549  1  0.520210  0.003810  0.295170  1.0
  C  C550  1  0.180810  0.520210  0.295170  1.0
  C  C551  1  0.003810  0.180810  0.295170  1.0
  C  C552  1  0.819190  0.996190  0.704830  1.0
  C  C553  1  0.479790  0.819190  0.704830  1.0
  C  C554  1  0.996190  0.479790  0.704830  1.0
  C  C555  1  0.560040  0.984140  0.268380  1.0
  C  C556  1  0.187440  0.560040  0.268380  1.0
  C  C557  1  0.984140  0.187440  0.268380  1.0
  C  C558  1  0.812560  0.015860  0.731620  1.0
  C  C559  1  0.439960  0.812560  0.731620  1.0
  C  C560  1  0.015860  0.439960  0.731620  1.0
  C  C561  1  0.608790  0.935490  0.272730  1.0
  C  C562  1  0.182990  0.608790  0.272730  1.0
  C  C563  1  0.935490  0.182990  0.272730  1.0
  C  C564  1  0.817010  0.064510  0.727270  1.0
  C  C565  1  0.391210  0.817010  0.727270  1.0
  C  C566  1  0.064510  0.391210  0.727270  1.0
  C  C567  1  0.617610  0.906710  0.303870  1.0
  C  C568  1  0.171810  0.617610  0.303870  1.0
  C  C569  1  0.906710  0.171810  0.303870  1.0
  C  C570  1  0.828190  0.093290  0.696130  1.0
  C  C571  1  0.382390  0.828190  0.696130  1.0
  C  C572  1  0.093290  0.382390  0.696130  1.0
  C  C573  1  0.577670  0.926370  0.330690  1.0
  C  C574  1  0.165270  0.577670  0.330690  1.0
  C  C575  1  0.926370  0.165270  0.330690  1.0
  C  C576  1  0.834730  0.073630  0.669310  1.0
  C  C577  1  0.422330  0.834730  0.669310  1.0
  C  C578  1  0.073630  0.422330  0.669310  1.0
  C  C579  1  0.651090  0.913290  0.242130  1.0
  C  C580  1  0.193490  0.651090  0.242130  1.0
  C  C581  1  0.913290  0.193490  0.242130  1.0
  C  C582  1  0.806510  0.086710  0.757870  1.0
  C  C583  1  0.348910  0.806510  0.757870  1.0
  C  C584  1  0.086710  0.348910  0.757870  1.0
  C  C585  1  0.633630  0.923230  0.213810  1.0
  C  C586  1  0.229330  0.633630  0.213810  1.0
  C  C587  1  0.923230  0.229330  0.213810  1.0
  C  C588  1  0.770670  0.076770  0.786190  1.0
  C  C589  1  0.366370  0.770670  0.786190  1.0
  C  C590  1  0.076770  0.366370  0.786190  1.0
  C  C591  1  0.672320  0.902920  0.186840  1.0
  C  C592  1  0.237920  0.672320  0.186840  1.0
  C  C593  1  0.902920  0.237920  0.186840  1.0
  C  C594  1  0.762080  0.097080  0.813160  1.0
  C  C595  1  0.327680  0.762080  0.813160  1.0
  C  C596  1  0.097080  0.327680  0.813160  1.0
  C  C597  1  0.728570  0.872670  0.188190  1.0
  C  C598  1  0.210570  0.728570  0.188190  1.0
  C  C599  1  0.872670  0.210570  0.188190  1.0
  C  C600  1  0.789430  0.127330  0.811810  1.0
  C  C601  1  0.271430  0.789430  0.811810  1.0
  C  C602  1  0.127330  0.271430  0.811810  1.0
  C  C603  1  0.746030  0.862730  0.216510  1.0
  C  C604  1  0.174730  0.746030  0.216510  1.0
  C  C605  1  0.862730  0.174730  0.216510  1.0
  C  C606  1  0.825270  0.137270  0.783490  1.0
  C  C607  1  0.253970  0.825270  0.783490  1.0
  C  C608  1  0.137270  0.253970  0.783490  1.0
  C  C609  1  0.707330  0.883030  0.243510  1.0
  C  C610  1  0.166130  0.707330  0.243510  1.0
  C  C611  1  0.883030  0.166130  0.243510  1.0
  C  C612  1  0.833870  0.116970  0.756490  1.0
  C  C613  1  0.292670  0.833870  0.756490  1.0
  C  C614  1  0.116970  0.292670  0.756490  1.0
  C  C615  1  0.772380  0.806880  0.159360  1.0
  C  C616  1  0.261380  0.772380  0.159360  1.0
  C  C617  1  0.806880  0.261380  0.159360  1.0
  C  C618  1  0.738620  0.193120  0.840640  1.0
  C  C619  1  0.227620  0.738620  0.840640  1.0
  C  C620  1  0.193120  0.227620  0.840640  1.0
  C  C621  1  0.810840  0.783440  0.130680  1.0
  C  C622  1  0.275040  0.810840  0.130680  1.0
  C  C623  1  0.783440  0.275040  0.130680  1.0
  C  C624  1  0.724960  0.216560  0.869320  1.0
  C  C625  1  0.189160  0.724960  0.869320  1.0
  C  C626  1  0.216560  0.189160  0.869320  1.0
  C  C627  1  0.815990  0.739890  0.119730  1.0
  C  C628  1  0.324390  0.815990  0.119730  1.0
  C  C629  1  0.739890  0.324390  0.119730  1.0
  C  C630  1  0.675610  0.260110  0.880270  1.0
  C  C631  1  0.184010  0.675610  0.880270  1.0
  C  C632  1  0.260110  0.184010  0.880270  1.0
  C  C633  1  0.853780  0.723780  0.091560  1.0
  C  C634  1  0.330880  0.853780  0.091560  1.0
  C  C635  1  0.723780  0.330880  0.091560  1.0
  C  C636  1  0.669120  0.276220  0.908440  1.0
  C  C637  1  0.146220  0.669120  0.908440  1.0
  C  C638  1  0.276220  0.146220  0.908440  1.0
  C  C639  1  0.886430  0.751330  0.074310  1.0
  C  C640  1  0.287930  0.886430  0.074310  1.0
  C  C641  1  0.751330  0.287930  0.074310  1.0
  C  C642  1  0.712070  0.248670  0.925690  1.0
  C  C643  1  0.113570  0.712070  0.925690  1.0
  C  C644  1  0.248670  0.113570  0.925690  1.0
  C  C645  1  0.881380  0.794780  0.085260  1.0
  C  C646  1  0.238580  0.881380  0.085260  1.0
  C  C647  1  0.794780  0.238580  0.085260  1.0
  C  C648  1  0.761420  0.205220  0.914740  1.0
  C  C649  1  0.118620  0.761420  0.914740  1.0
  C  C650  1  0.205220  0.118620  0.914740  1.0
  C  C651  1  0.365050  0.070950  0.402450  1.0
  C  C652  1  0.161550  0.365050  0.402450  1.0
  C  C653  1  0.070950  0.161550  0.402450  1.0
  C  C654  1  0.838450  0.929050  0.597550  1.0
  C  C655  1  0.634950  0.838450  0.597550  1.0
  C  C656  1  0.929050  0.634950  0.597550  1.0
  C  C657  1  0.328910  0.092910  0.429570  1.0
  C  C658  1  0.148610  0.328910  0.429570  1.0
  C  C659  1  0.092910  0.148610  0.429570  1.0
  C  C660  1  0.851390  0.907090  0.570430  1.0
  C  C661  1  0.671090  0.851390  0.570430  1.0
  C  C662  1  0.907090  0.671090  0.570430  1.0
  C  C663  1  0.346740  0.074040  0.458880  1.0
  C  C664  1  0.120340  0.346740  0.458880  1.0
  C  C665  1  0.074040  0.120340  0.458880  1.0
  C  C666  1  0.879660  0.925960  0.541120  1.0
  C  C667  1  0.653260  0.879660  0.541120  1.0
  C  C668  1  0.925960  0.653260  0.541120  1.0
  C  C669  1  0.400610  0.033410  0.461070  1.0
  C  C670  1  0.104910  0.400610  0.461070  1.0
  C  C671  1  0.033410  0.104910  0.461070  1.0
  C  C672  1  0.895090  0.966590  0.538930  1.0
  C  C673  1  0.599390  0.895090  0.538930  1.0
  C  C674  1  0.966590  0.599390  0.538930  1.0
  C  C675  1  0.436850  0.011350  0.433950  1.0
  C  C676  1  0.117850  0.436850  0.433950  1.0
  C  C677  1  0.011350  0.117850  0.433950  1.0
  C  C678  1  0.882150  0.988650  0.566050  1.0
  C  C679  1  0.563150  0.882150  0.566050  1.0
  C  C680  1  0.988650  0.563150  0.566050  1.0
  C  C681  1  0.265800  0.149900  0.484200  1.0
  C  C682  1  0.100100  0.265800  0.484200  1.0
  C  C683  1  0.149900  0.100100  0.484200  1.0
  C  C684  1  0.899900  0.850100  0.515800  1.0
  C  C685  1  0.734200  0.899900  0.515800  1.0
  C  C686  1  0.850100  0.734200  0.515800  1.0
  C  C687  1  0.231270  0.171970  0.511590  1.0
  C  C688  1  0.085170  0.231270  0.511590  1.0
  C  C689  1  0.171970  0.085170  0.511590  1.0
  C  C690  1  0.914830  0.828030  0.488410  1.0
  C  C691  1  0.768730  0.914830  0.488410  1.0
  C  C692  1  0.828030  0.768730  0.488410  1.0
  C  C693  1  0.240330  0.140530  0.542310  1.0
  C  C694  1  0.076830  0.240330  0.542310  1.0
  C  C695  1  0.140530  0.076830  0.542310  1.0
  C  C696  1  0.923170  0.859470  0.457690  1.0
  C  C697  1  0.759670  0.923170  0.457690  1.0
  C  C698  1  0.859470  0.759670  0.457690  1.0
  C  C699  1  0.283810  0.087210  0.545670  1.0
  C  C700  1  0.083310  0.283810  0.545670  1.0
  C  C701  1  0.087210  0.083310  0.545670  1.0
  C  C702  1  0.916690  0.912790  0.454330  1.0
  C  C703  1  0.716190  0.916690  0.454330  1.0
  C  C704  1  0.912790  0.716190  0.454330  1.0
  C  C705  1  0.318340  0.065240  0.518280  1.0
  C  C706  1  0.098140  0.318340  0.518280  1.0
  C  C707  1  0.065240  0.098140  0.518280  1.0
  C  C708  1  0.901860  0.934760  0.481720  1.0
  C  C709  1  0.681660  0.901860  0.481720  1.0
  C  C710  1  0.934760  0.681660  0.481720  1.0
  C  C711  1  0.309290  0.096590  0.487530  1.0
  C  C712  1  0.106590  0.309290  0.487530  1.0
  C  C713  1  0.096590  0.106590  0.487530  1.0
  C  C714  1  0.893410  0.903410  0.512470  1.0
  C  C715  1  0.690710  0.893410  0.512470  1.0
  C  C716  1  0.903410  0.690710  0.512470  1.0
  C  C717  1  0.401110  0.963710  0.350670  1.0
  C  C718  1  0.284510  0.401110  0.350670  1.0
  C  C719  1  0.963710  0.284510  0.350670  1.0
  C  C720  1  0.715490  0.036290  0.649330  1.0
  C  C721  1  0.598890  0.715490  0.649330  1.0
  C  C722  1  0.036290  0.598890  0.649330  1.0
  C  C723  1  0.380200  0.927300  0.352800  1.0
  C  C724  1  0.339700  0.380200  0.352800  1.0
  C  C725  1  0.927300  0.339700  0.352800  1.0
  C  C726  1  0.660300  0.072700  0.647200  1.0
  C  C727  1  0.619800  0.660300  0.647200  1.0
  C  C728  1  0.072700  0.619800  0.647200  1.0
  C  C729  1  0.397510  0.875910  0.373770  1.0
  C  C730  1  0.352810  0.397510  0.373770  1.0
  C  C731  1  0.875910  0.352810  0.373770  1.0
  C  C732  1  0.647190  0.124090  0.626230  1.0
  C  C733  1  0.602490  0.647190  0.626230  1.0
  C  C734  1  0.124090  0.602490  0.626230  1.0
  C  C735  1  0.435640  0.861040  0.392580  1.0
  C  C736  1  0.310740  0.435640  0.392580  1.0
  C  C737  1  0.861040  0.310740  0.392580  1.0
  C  C738  1  0.689260  0.138960  0.607420  1.0
  C  C739  1  0.564360  0.689260  0.607420  1.0
  C  C740  1  0.138960  0.564360  0.607420  1.0
  C  C741  1  0.456560  0.897460  0.390420  1.0
  C  C742  1  0.255560  0.456560  0.390420  1.0
  C  C743  1  0.897460  0.255560  0.390420  1.0
  C  C744  1  0.744440  0.102540  0.609580  1.0
  C  C745  1  0.543440  0.744440  0.609580  1.0
  C  C746  1  0.102540  0.543440  0.609580  1.0
  C  C747  1  0.372030  0.838130  0.377010  1.0
  C  C748  1  0.412830  0.372030  0.377010  1.0
  C  C749  1  0.838130  0.412830  0.377010  1.0
  C  C750  1  0.587170  0.161870  0.622990  1.0
  C  C751  1  0.627970  0.587170  0.622990  1.0
  C  C752  1  0.161870  0.627970  0.622990  1.0
  C  C753  1  0.315350  0.860950  0.377850  1.0
  C  C754  1  0.445850  0.315350  0.377850  1.0
  C  C755  1  0.860950  0.445850  0.377850  1.0
  C  C756  1  0.554150  0.139050  0.622150  1.0
  C  C757  1  0.684650  0.554150  0.622150  1.0
  C  C758  1  0.139050  0.684650  0.622150  1.0
  C  C759  1  0.291330  0.826730  0.380910  1.0
  C  C760  1  0.501030  0.291330  0.380910  1.0
  C  C761  1  0.826730  0.501030  0.380910  1.0
  C  C762  1  0.498970  0.173270  0.619090  1.0
  C  C763  1  0.708670  0.498970  0.619090  1.0
  C  C764  1  0.173270  0.708670  0.619090  1.0
  C  C765  1  0.323890  0.769790  0.383130  1.0
  C  C766  1  0.523190  0.323890  0.383130  1.0
  C  C767  1  0.769790  0.523190  0.383130  1.0
  C  C768  1  0.476810  0.230210  0.616870  1.0
  C  C769  1  0.676110  0.476810  0.616870  1.0
  C  C770  1  0.230210  0.676110  0.616870  1.0
  C  C771  1  0.380570  0.746970  0.382290  1.0
  C  C772  1  0.490170  0.380570  0.382290  1.0
  C  C773  1  0.746970  0.490170  0.382290  1.0
  C  C774  1  0.509830  0.253030  0.617710  1.0
  C  C775  1  0.619430  0.509830  0.617710  1.0
  C  C776  1  0.253030  0.619430  0.617710  1.0
  C  C777  1  0.404690  0.781090  0.379230  1.0
  C  C778  1  0.434990  0.404690  0.379230  1.0
  C  C779  1  0.781090  0.434990  0.379230  1.0
  C  C780  1  0.565010  0.218910  0.620770  1.0
  C  C781  1  0.595310  0.565010  0.620770  1.0
  C  C782  1  0.218910  0.595310  0.620770  1.0
  C  C783  1  0.071120  0.207320  0.648240  1.0
  C  C784  1  0.073320  0.071120  0.648240  1.0
  C  C785  1  0.207320  0.073320  0.648240  1.0
  C  C786  1  0.926680  0.792680  0.351760  1.0
  C  C787  1  0.928880  0.926680  0.351760  1.0
  C  C788  1  0.792680  0.928880  0.351760  1.0
  C  C789  1  0.061000  0.250600  0.661500  1.0
  C  C790  1  0.026900  0.061000  0.661500  1.0
  C  C791  1  0.250600  0.026900  0.661500  1.0
  C  C792  1  0.973100  0.749400  0.338500  1.0
  C  C793  1  0.939000  0.973100  0.338500  1.0
  C  C794  1  0.749400  0.939000  0.338500  1.0
  C  C795  1  0.096750  0.275150  0.649950  1.0
  C  C796  1  0.978150  0.096750  0.649950  1.0
  C  C797  1  0.275150  0.978150  0.649950  1.0
  C  C798  1  0.021850  0.724850  0.350050  1.0
  C  C799  1  0.903250  0.021850  0.350050  1.0
  C  C800  1  0.724850  0.903250  0.350050  1.0
  C  C801  1  0.141800  0.256200  0.625200  1.0
  C  C802  1  0.976800  0.141800  0.625200  1.0
  C  C803  1  0.256200  0.976800  0.625200  1.0
  C  C804  1  0.023200  0.743800  0.374800  1.0
  C  C805  1  0.858200  0.023200  0.374800  1.0
  C  C806  1  0.743800  0.858200  0.374800  1.0
  C  C807  1  0.148770  0.214170  0.612390  1.0
  C  C808  1  0.024670  0.148770  0.612390  1.0
  C  C809  1  0.214170  0.024670  0.612390  1.0
  C  C810  1  0.975330  0.785830  0.387610  1.0
  C  C811  1  0.851230  0.975330  0.387610  1.0
  C  C812  1  0.785830  0.851230  0.387610  1.0
  C  C813  1  0.194580  0.194980  0.584460  1.0
  C  C814  1  0.025980  0.194580  0.584460  1.0
  C  C815  1  0.194980  0.025980  0.584460  1.0
  C  C816  1  0.974020  0.805020  0.415540  1.0
  C  C817  1  0.805420  0.974020  0.415540  1.0
  C  C818  1  0.805020  0.805420  0.415540  1.0
  C  C819  1  0.224450  0.645350  0.385950  1.0
  C  C820  1  0.744250  0.224450  0.385950  1.0
  C  C821  1  0.645350  0.744250  0.385950  1.0
  C  C822  1  0.255750  0.354650  0.614050  1.0
  C  C823  1  0.775550  0.255750  0.614050  1.0
  C  C824  1  0.354650  0.775550  0.614050  1.0
  C  C825  1  0.181380  0.641880  0.411060  1.0
  C  C826  1  0.765680  0.181380  0.411060  1.0
  C  C827  1  0.641880  0.765680  0.411060  1.0
  C  C828  1  0.234320  0.358120  0.588940  1.0
  C  C829  1  0.818620  0.234320  0.588940  1.0
  C  C830  1  0.358120  0.818620  0.588940  1.0
  C  C831  1  0.165810  0.667010  0.437070  1.0
  C  C832  1  0.730110  0.165810  0.437070  1.0
  C  C833  1  0.667010  0.730110  0.437070  1.0
  C  C834  1  0.269890  0.332990  0.562930  1.0
  C  C835  1  0.834190  0.269890  0.562930  1.0
  C  C836  1  0.332990  0.834190  0.562930  1.0
  C  C837  1  0.193620  0.695520  0.437340  1.0
  C  C838  1  0.673520  0.193620  0.437340  1.0
  C  C839  1  0.695520  0.673520  0.437340  1.0
  C  C840  1  0.326480  0.304480  0.562660  1.0
  C  C841  1  0.806380  0.326480  0.562660  1.0
  C  C842  1  0.304480  0.806380  0.562660  1.0
  C  C843  1  0.235120  0.698820  0.411240  1.0
  C  C844  1  0.654820  0.235120  0.411240  1.0
  C  C845  1  0.698820  0.654820  0.411240  1.0
  C  C846  1  0.345180  0.301180  0.588760  1.0
  C  C847  1  0.764880  0.345180  0.588760  1.0
  C  C848  1  0.301180  0.764880  0.588760  1.0
  C  C849  1  0.263770  0.731870  0.409590  1.0
  C  C850  1  0.594770  0.263770  0.409590  1.0
  C  C851  1  0.731870  0.594770  0.409590  1.0
  C  C852  1  0.405230  0.268130  0.590410  1.0
  C  C853  1  0.736230  0.405230  0.590410  1.0
  C  C854  1  0.268130  0.736230  0.590410  1.0
  F  F855  1  0.899190  0.650690  0.040830  1
  F  F856  1  0.409290  0.899190  0.040830  1
  F  F857  1  0.650690  0.409290  0.040830  1
  F  F858  1  0.590710  0.349310  0.959170  1
  F  F859  1  0.100810  0.590710  0.959170  1
  F  F860  1  0.349310  0.100810  0.959170  1
  F  F861  1  0.938130  0.561130  0.042810  1
  F  F862  1  0.457930  0.938130  0.042810  1
  F  F863  1  0.561130  0.457930  0.042810  1
  F  F864  1  0.542070  0.438870  0.957190  1
  F  F865  1  0.061870  0.542070  0.957190  1
  F  F866  1  0.438870  0.061870  0.957190  1
  F  F867  1  0.870450  0.596150  0.083250  1
  F  F868  1  0.450150  0.870450  0.083250  1
  F  F869  1  0.596150  0.450150  0.083250  1
  F  F870  1  0.549850  0.403850  0.916750  1
  F  F871  1  0.129550  0.549850  0.916750  1
  F  F872  1  0.403850  0.129550  0.916750  1
  F  F873  1  0.952000  0.590500  0.078900  1
  F  F874  1  0.378600  0.952000  0.078900  1
  F  F875  1  0.590500  0.378600  0.078900  1
  F  F876  1  0.621400  0.409500  0.921100  1
  F  F877  1  0.048000  0.621400  0.921100  1
  F  F878  1  0.409500  0.048000  0.921100  1
  F  F879  1  0.411390  0.294690  0.256530  1
  F  F880  1  0.037390  0.411390  0.256530  1
  F  F881  1  0.294690  0.037390  0.256530  1
  F  F882  1  0.962610  0.705310  0.743470  1
  F  F883  1  0.588610  0.962610  0.743470  1
  F  F884  1  0.705310  0.588610  0.743470  1
  F  F885  1  0.350930  0.318630  0.301110  1
  F  F886  1  0.029330  0.350930  0.301110  1
  F  F887  1  0.318630  0.029330  0.301110  1
  F  F888  1  0.970670  0.681370  0.698890  1
  F  F889  1  0.649070  0.970670  0.698890  1
  F  F890  1  0.681370  0.649070  0.698890  1
  F  F891  1  0.440590  0.290890  0.297930  1
  F  F892  1  0.970590  0.440590  0.297930  1
  F  F893  1  0.290890  0.970590  0.297930  1
  F  F894  1  0.029410  0.709110  0.702070  1
  F  F895  1  0.559410  0.029410  0.702070  1
  F  F896  1  0.709110  0.559410  0.702070  1
  F  F897  1  0.409980  0.230080  0.298860  1
  F  F898  1  0.061080  0.409980  0.298860  1
  F  F899  1  0.230080  0.061080  0.298860  1
  F  F900  1  0.938920  0.769920  0.701140  1
  F  F901  1  0.590020  0.938920  0.701140  1
  F  F902  1  0.769920  0.590020  0.701140  1
  F  F903  1  0.646630  0.711730  0.189810  1
  F  F904  1  0.451830  0.646630  0.189810  1
  F  F905  1  0.711730  0.451830  0.189810  1
  F  F906  1  0.548170  0.288270  0.810190  1
  F  F907  1  0.353370  0.548170  0.810190  1
  F  F908  1  0.288270  0.353370  0.810190  1
  F  F909  1  0.685800  0.750500  0.203700  1
  F  F910  1  0.360000  0.685800  0.203700  1
  F  F911  1  0.750500  0.360000  0.203700  1
  F  F912  1  0.640000  0.249500  0.796300  1
  F  F913  1  0.314200  0.640000  0.796300  1
  F  F914  1  0.249500  0.314200  0.796300  1
  F  F915  1  0.738700  0.687500  0.173700  1
  F  F916  1  0.400100  0.738700  0.173700  1
  F  F917  1  0.687500  0.400100  0.173700  1
  F  F918  1  0.599900  0.312500  0.826300  1
  F  F919  1  0.261300  0.599900  0.826300  1
  F  F920  1  0.312500  0.261300  0.826300  1
  F  F921  1  0.675730  0.769230  0.152610  1
  F  F922  1  0.402430  0.675730  0.152610  1
  F  F923  1  0.769230  0.402430  0.152610  1
  F  F924  1  0.597570  0.230770  0.847390  1
  F  F925  1  0.324270  0.597570  0.847390  1
  F  F926  1  0.230770  0.324270  0.847390  1
  F  F927  1  0.571510  0.901510  0.411270  1
  F  F928  1  0.115710  0.571510  0.411270  1
  F  F929  1  0.901510  0.115710  0.411270  1
  F  F930  1  0.884290  0.098490  0.588730  1
  F  F931  1  0.428490  0.884290  0.588730  1
  F  F932  1  0.098490  0.428490  0.588730  1
  F  F933  1  0.556790  0.934490  0.453630  1
  F  F934  1  0.055090  0.556790  0.453630  1
  F  F935  1  0.934490  0.055090  0.453630  1
  F  F936  1  0.944910  0.065510  0.546370  1
  F  F937  1  0.443210  0.944910  0.546370  1
  F  F938  1  0.065510  0.443210  0.546370  1
  F  F939  1  0.623840  0.851140  0.448080  1
  F  F940  1  0.076940  0.623840  0.448080  1
  F  F941  1  0.851140  0.076940  0.448080  1
  F  F942  1  0.923060  0.148860  0.551920  1
  F  F943  1  0.376160  0.923060  0.551920  1
  F  F944  1  0.148860  0.376160  0.551920  1
  F  F945  1  0.630730  0.925830  0.416310  1
  F  F946  1  0.027130  0.630730  0.416310  1
  F  F947  1  0.925830  0.027130  0.416310  1
  F  F948  1  0.972870  0.074170  0.583690  1
  F  F949  1  0.369270  0.972870  0.583690  1
  F  F950  1  0.074170  0.369270  0.583690  1
  F  F951  1  0.467720  0.090920  0.231240  1
  F  F952  1  0.210120  0.467720  0.231240  1
  F  F953  1  0.090920  0.210120  0.231240  1
  F  F954  1  0.789880  0.909080  0.768760  1
  F  F955  1  0.532280  0.789880  0.768760  1
  F  F956  1  0.909080  0.532280  0.768760  1
  F  F957  1  0.443240  0.095040  0.189780  1
  F  F958  1  0.271940  0.443240  0.189780  1
  F  F959  1  0.095040  0.271940  0.189780  1
  F  F960  1  0.728060  0.904960  0.810220  1
  F  F961  1  0.556760  0.728060  0.810220  1
  F  F962  1  0.904960  0.556760  0.810220  1
  F  F963  1  0.529210  0.067410  0.188970  1
  F  F964  1  0.214410  0.529210  0.188970  1
  F  F965  1  0.067410  0.214410  0.188970  1
  F  F966  1  0.785590  0.932590  0.811030  1
  F  F967  1  0.470790  0.785590  0.811030  1
  F  F968  1  0.932590  0.470790  0.811030  1
  F  F969  1  0.471290  0.153090  0.188730  1
  F  F970  1  0.186890  0.471290  0.188730  1
  F  F971  1  0.153090  0.186890  0.188730  1
  F  F972  1  0.813110  0.846910  0.811270  1
  F  F973  1  0.528710  0.813110  0.811270  1
  F  F974  1  0.846910  0.528710  0.811270  1
  F  F975  1  0.308233  0.308233  0.075300  1
  F  F976  1  0.691767  0.691767  0.924700  1
  F  F977  1  0.940310  0.940310  0.179070  1
  F  F978  1  0.059690  0.059690  0.820930  1
  F  F979  1  0.563467  0.563433  0.309600  1
  F  F980  1  0.436500  0.436567  0.690400  1
  F  F981  1  0.192433  0.192433  0.422700  1
  F  F982  1  0.807567  0.807567  0.577300  1
  F  F983  1  0.333670  0.302870  0.119490  1.0
  F  F984  1  0.243970  0.333670  0.119490  1.0
  F  F985  1  0.302870  0.243970  0.119490  1.0
  F  F986  1  0.756030  0.697130  0.880510  1.0
  F  F987  1  0.666330  0.756030  0.880510  1.0
  F  F988  1  0.697130  0.666330  0.880510  1.0
  F  F989  1  0.904650  0.975150  0.130650  1.0
  F  F990  1  0.989550  0.904650  0.130650  1.0
  F  F991  1  0.975150  0.989550  0.130650  1.0
  F  F992  1  0.010450  0.024850  0.869350  1.0
  F  F993  1  0.095350  0.010450  0.869350  1.0
  F  F994  1  0.024850  0.095350  0.869350  1.0
  F  F995  1  0.593210  0.530410  0.263370  1.0
  F  F996  1  0.613010  0.593210  0.263370  1.0
  F  F997  1  0.530410  0.613010  0.263370  1.0
  F  F998  1  0.386990  0.469590  0.736630  1.0
  F  F999  1  0.406790  0.386990  0.736630  1.0
  F  F1000  1  0.469590  0.406790  0.736630  1.0
  F  F1001  1  0.168290  0.196790  0.372930  1.0
  F  F1002  1  0.261990  0.168290  0.372930  1.0
  F  F1003  1  0.196790  0.261990  0.372930  1.0
  F  F1004  1  0.738010  0.803210  0.627070  1.0
  F  F1005  1  0.831710  0.738010  0.627070  1.0
  F  F1006  1  0.803210  0.831710  0.627070  1.0
  Fe  Fe1007  1  0.369283  0.369283  0.892150  1
  Fe  Fe1008  1  0.630717  0.630717  0.107850  1
  Fe  Fe1009  1  0.134533  0.134533  0.596400  1
  Fe  Fe1010  1  0.865467  0.865467  0.403600  1
  Fe  Fe1011  1  0.821470  0.876790  0.131010  1.0
  Fe  Fe1012  1  0.170730  0.821470  0.131010  1.0
  Fe  Fe1013  1  0.876790  0.170730  0.131010  1.0
  Fe  Fe1014  1  0.829270  0.123210  0.868990  1.0
  Fe  Fe1015  1  0.178530  0.829270  0.868990  1.0
  Fe  Fe1016  1  0.123210  0.178530  0.868990  1.0
  Fe  Fe1017  1  0.641210  0.310650  0.356550  1.0
  Fe  Fe1018  1  0.691590  0.641210  0.356550  1.0
  Fe  Fe1019  1  0.310650  0.691590  0.356550  1.0
  Fe  Fe1020  1  0.308410  0.689350  0.643450  1.0
  Fe  Fe1021  1  0.358790  0.308410  0.643450  1.0
  Fe  Fe1022  1  0.689350  0.358790  0.643450  1.0
  H  H1023  1  0.462100  0.328500  0.200700  1.0
  H  H1024  1  0.008700  0.462100  0.200700  1.0
  H  H1025  1  0.328500  0.008700  0.200700  1.0
  H  H1026  1  0.991300  0.671500  0.799300  1.0
  H  H1027  1  0.537900  0.991300  0.799300  1.0
  H  H1028  1  0.671500  0.537900  0.799300  1.0
  H  H1029  1  0.486600  0.336200  0.243900  1.0
  H  H1030  1  0.933300  0.486600  0.243900  1.0
  H  H1031  1  0.336200  0.933300  0.243900  1.0
  H  H1032  1  0.066700  0.663800  0.756100  1.0
  H  H1033  1  0.513400  0.066700  0.756100  1.0
  H  H1034  1  0.663800  0.513400  0.756100  1.0
  H  H1035  1  0.593100  0.395200  0.180600  1.0
  H  H1036  1  0.831100  0.593100  0.180600  1.0
  H  H1037  1  0.395200  0.831100  0.180600  1.0
  H  H1038  1  0.168900  0.604800  0.819400  1.0
  H  H1039  1  0.406900  0.168900  0.819400  1.0
  H  H1040  1  0.604800  0.406900  0.819400  1.0
  H  H1041  1  0.568700  0.387700  0.137100  1.0
  H  H1042  1  0.906500  0.568700  0.137100  1.0
  H  H1043  1  0.387700  0.906500  0.137100  1.0
  H  H1044  1  0.093500  0.612300  0.862900  1.0
  H  H1045  1  0.431300  0.093500  0.862900  1.0
  H  H1046  1  0.612300  0.431300  0.862900  1.0
  H  H1047  1  0.633100  0.368300  0.222000  1.0
  H  H1048  1  0.776600  0.633100  0.222000  1.0
  H  H1049  1  0.368300  0.776600  0.222000  1.0
  H  H1050  1  0.223400  0.631700  0.778000  1.0
  H  H1051  1  0.366900  0.223400  0.778000  1.0
  H  H1052  1  0.631700  0.366900  0.778000  1.0
  H  H1053  1  0.656300  0.372100  0.267000  1.0
  H  H1054  1  0.704600  0.656300  0.267000  1.0
  H  H1055  1  0.372100  0.704600  0.267000  1.0
  H  H1056  1  0.295400  0.627900  0.733000  1.0
  H  H1057  1  0.343700  0.295400  0.733000  1.0
  H  H1058  1  0.627900  0.343700  0.733000  1.0
  H  H1059  1  0.507400  0.381500  0.321300  1.0
  H  H1060  1  0.789800  0.507400  0.321300  1.0
  H  H1061  1  0.381500  0.789800  0.321300  1.0
  H  H1062  1  0.210200  0.618500  0.678700  1.0
  H  H1063  1  0.492600  0.210200  0.678700  1.0
  H  H1064  1  0.618500  0.492600  0.678700  1.0
  H  H1065  1  0.484100  0.377800  0.276300  1.0
  H  H1066  1  0.861800  0.484100  0.276300  1.0
  H  H1067  1  0.377800  0.861800  0.276300  1.0
  H  H1068  1  0.138200  0.622200  0.723700  1.0
  H  H1069  1  0.515900  0.138200  0.723700  1.0
  H  H1070  1  0.622200  0.515900  0.723700  1.0
  H  H1071  1  0.584800  0.457200  0.315300  1.0
  H  H1072  1  0.642700  0.584800  0.315300  1.0
  H  H1073  1  0.457200  0.642700  0.315300  1.0
  H  H1074  1  0.357300  0.542800  0.684700  1.0
  H  H1075  1  0.415200  0.357300  0.684700  1.0
  H  H1076  1  0.542800  0.415200  0.684700  1.0
  H  H1077  1  0.596700  0.500300  0.353100  1.0
  H  H1078  1  0.549900  0.596700  0.353100  1.0
  H  H1079  1  0.500300  0.549900  0.353100  1.0
  H  H1080  1  0.450100  0.499700  0.646900  1.0
  H  H1081  1  0.403300  0.450100  0.646900  1.0
  H  H1082  1  0.499700  0.403300  0.646900  1.0
  H  H1083  1  0.620100  0.488600  0.402000  1.0
  H  H1084  1  0.489300  0.620100  0.402000  1.0
  H  H1085  1  0.488600  0.489300  0.402000  1.0
  H  H1086  1  0.510700  0.511400  0.598000  1.0
  H  H1087  1  0.379900  0.510700  0.598000  1.0
  H  H1088  1  0.511400  0.379900  0.598000  1.0
  H  H1089  1  0.652500  0.400500  0.435600  1.0
  H  H1090  1  0.511400  0.652500  0.435600  1.0
  H  H1091  1  0.400500  0.511400  0.435600  1.0
  H  H1092  1  0.488600  0.599500  0.564400  1.0
  H  H1093  1  0.347500  0.488600  0.564400  1.0
  H  H1094  1  0.599500  0.347500  0.564400  1.0
  H  H1095  1  0.661400  0.324100  0.420300  1.0
  H  H1096  1  0.594200  0.661400  0.420300  1.0
  H  H1097  1  0.324100  0.594200  0.420300  1.0
  H  H1098  1  0.405800  0.675900  0.579700  1.0
  H  H1099  1  0.338600  0.405800  0.579700  1.0
  H  H1100  1  0.675900  0.338600  0.579700  1.0
  H  H1101  1  0.374500  0.416100  0.153900  1.0
  H  H1102  1  0.055500  0.374500  0.153900  1.0
  H  H1103  1  0.416100  0.055500  0.153900  1.0
  H  H1104  1  0.944500  0.583900  0.846100  1.0
  H  H1105  1  0.625500  0.944500  0.846100  1.0
  H  H1106  1  0.583900  0.625500  0.846100  1.0
  H  H1107  1  0.309100  0.509700  0.148800  1.0
  H  H1108  1  0.032400  0.309100  0.148800  1.0
  H  H1109  1  0.509700  0.032400  0.148800  1.0
  H  H1110  1  0.967600  0.490300  0.851200  1.0
  H  H1111  1  0.690900  0.967600  0.851200  1.0
  H  H1112  1  0.490300  0.690900  0.851200  1.0
  H  H1113  1  0.426900  0.554000  0.085800  1.0
  H  H1114  1  0.933300  0.426900  0.085800  1.0
  H  H1115  1  0.554000  0.933300  0.085800  1.0
  H  H1116  1  0.066700  0.446000  0.914200  1.0
  H  H1117  1  0.573100  0.066700  0.914200  1.0
  H  H1118  1  0.446000  0.573100  0.914200  1.0
  H  H1119  1  0.492200  0.460300  0.091200  1.0
  H  H1120  1  0.956300  0.492200  0.091200  1.0
  H  H1121  1  0.460300  0.956300  0.091200  1.0
  H  H1122  1  0.043700  0.539700  0.908800  1.0
  H  H1123  1  0.507800  0.043700  0.908800  1.0
  H  H1124  1  0.539700  0.507800  0.908800  1.0
  H  H1125  1  0.374500  0.633300  0.102300  1.0
  H  H1126  1  0.889900  0.374500  0.102300  1.0
  H  H1127  1  0.633300  0.889900  0.102300  1.0
  H  H1128  1  0.110100  0.366700  0.897700  1.0
  H  H1129  1  0.625500  0.110100  0.897700  1.0
  H  H1130  1  0.366700  0.625500  0.897700  1.0
  H  H1131  1  0.309600  0.727000  0.095400  1.0
  H  H1132  1  0.868000  0.309600  0.095400  1.0
  H  H1133  1  0.727000  0.868000  0.095400  1.0
  H  H1134  1  0.132000  0.273000  0.904600  1.0
  H  H1135  1  0.690400  0.132000  0.904600  1.0
  H  H1136  1  0.273000  0.690400  0.904600  1.0
  H  H1137  1  0.186100  0.682000  0.114300  1.0
  H  H1138  1  0.017600  0.186100  0.114300  1.0
  H  H1139  1  0.682000  0.017600  0.114300  1.0
  H  H1140  1  0.982400  0.318000  0.885700  1.0
  H  H1141  1  0.813900  0.982400  0.885700  1.0
  H  H1142  1  0.318000  0.813900  0.885700  1.0
  H  H1143  1  0.251000  0.588100  0.121500  1.0
  H  H1144  1  0.039400  0.251000  0.121500  1.0
  H  H1145  1  0.588100  0.039400  0.121500  1.0
  H  H1146  1  0.960600  0.411900  0.878500  1.0
  H  H1147  1  0.749000  0.960600  0.878500  1.0
  H  H1148  1  0.411900  0.749000  0.878500  1.0
  H  H1149  1  0.205200  0.763200  0.059700  1.0
  H  H1150  1  0.971900  0.205200  0.059700  1.0
  H  H1151  1  0.763200  0.971900  0.059700  1.0
  H  H1152  1  0.028100  0.236800  0.940300  1.0
  H  H1153  1  0.794800  0.028100  0.940300  1.0
  H  H1154  1  0.236800  0.794800  0.940300  1.0
  H  H1155  1  0.122600  0.866300  0.024600  1.0
  H  H1156  1  0.986500  0.122600  0.024600  1.0
  H  H1157  1  0.866300  0.986500  0.024600  1.0
  H  H1158  1  0.013500  0.133700  0.975400  1.0
  H  H1159  1  0.877400  0.013500  0.975400  1.0
  H  H1160  1  0.133700  0.877400  0.975400  1.0
  H  H1161  1  0.062100  0.960500  0.024600  1.0
  H  H1162  1  0.952800  0.062100  0.024600  1.0
  H  H1163  1  0.960500  0.952800  0.024600  1.0
  H  H1164  1  0.047200  0.039500  0.975400  1.0
  H  H1165  1  0.937900  0.047200  0.975400  1.0
  H  H1166  1  0.039500  0.937900  0.975400  1.0
  H  H1167  1  0.044800  0.998700  0.069000  1.0
  H  H1168  1  0.887500  0.044800  0.069000  1.0
  H  H1169  1  0.998700  0.887500  0.069000  1.0
  H  H1170  1  0.112500  0.001300  0.931000  1.0
  H  H1171  1  0.955200  0.112500  0.931000  1.0
  H  H1172  1  0.001300  0.955200  0.931000  1.0
  H  H1173  1  0.088100  0.942800  0.113100  1.0
  H  H1174  1  0.856000  0.088100  0.113100  1.0
  H  H1175  1  0.942800  0.856000  0.113100  1.0
  H  H1176  1  0.144000  0.057200  0.886900  1.0
  H  H1177  1  0.911900  0.144000  0.886900  1.0
  H  H1178  1  0.057200  0.911900  0.886900  1.0
  H  H1179  1  0.542800  0.359400  0.054900  1.0
  H  H1180  1  0.042900  0.542800  0.054900  1.0
  H  H1181  1  0.359400  0.042900  0.054900  1.0
  H  H1182  1  0.957100  0.640600  0.945100  1.0
  H  H1183  1  0.457200  0.957100  0.945100  1.0
  H  H1184  1  0.640600  0.457200  0.945100  1.0
  H  H1185  1  0.524600  0.352900  0.009000  1.0
  H  H1186  1  0.113500  0.524600  0.009000  1.0
  H  H1187  1  0.352900  0.113500  0.009000  1.0
  H  H1188  1  0.886500  0.647100  0.991000  1.0
  H  H1189  1  0.475400  0.886500  0.991000  1.0
  H  H1190  1  0.647100  0.475400  0.991000  1.0
  H  H1191  1  0.396100  0.319700  0.064500  1.0
  H  H1192  1  0.219700  0.396100  0.064500  1.0
  H  H1193  1  0.319700  0.219700  0.064500  1.0
  H  H1194  1  0.780300  0.680300  0.935500  1.0
  H  H1195  1  0.603900  0.780300  0.935500  1.0
  H  H1196  1  0.680300  0.603900  0.935500  1.0
  H  H1197  1  0.414200  0.326100  0.110700  1.0
  H  H1198  1  0.149000  0.414200  0.110700  1.0
  H  H1199  1  0.326100  0.149000  0.110700  1.0
  H  H1200  1  0.851000  0.673900  0.889300  1.0
  H  H1201  1  0.585800  0.851000  0.889300  1.0
  H  H1202  1  0.673900  0.585800  0.889300  1.0
  H  H1203  1  0.416600  0.274300  0.024600  1.0
  H  H1204  1  0.284500  0.416600  0.024600  1.0
  H  H1205  1  0.274300  0.284500  0.024600  1.0
  H  H1206  1  0.715500  0.725700  0.975400  1.0
  H  H1207  1  0.583400  0.715500  0.975400  1.0
  H  H1208  1  0.725700  0.583400  0.975400  1.0
  H  H1209  1  0.404700  0.264900  0.977200  1.0
  H  H1210  1  0.353200  0.404700  0.977200  1.0
  H  H1211  1  0.264900  0.353200  0.977200  1.0
  H  H1212  1  0.646800  0.735100  0.022800  1.0
  H  H1213  1  0.595300  0.646800  0.022800  1.0
  H  H1214  1  0.735100  0.595300  0.022800  1.0
  H  H1215  1  0.473900  0.368600  0.923200  1.0
  H  H1216  1  0.234300  0.473900  0.923200  1.0
  H  H1217  1  0.368600  0.234300  0.923200  1.0
  H  H1218  1  0.765700  0.631400  0.076800  1.0
  H  H1219  1  0.526100  0.765700  0.076800  1.0
  H  H1220  1  0.631400  0.526100  0.076800  1.0
  H  H1221  1  0.485800  0.378000  0.970600  1.0
  H  H1222  1  0.165600  0.485800  0.970600  1.0
  H  H1223  1  0.378000  0.165600  0.970600  1.0
  H  H1224  1  0.834400  0.622000  0.029400  1.0
  H  H1225  1  0.514200  0.834400  0.029400  1.0
  H  H1226  1  0.622000  0.514200  0.029400  1.0
  H  H1227  1  0.485200  0.237100  0.916900  1.0
  H  H1228  1  0.360800  0.485200  0.916900  1.0
  H  H1229  1  0.237100  0.360800  0.916900  1.0
  H  H1230  1  0.639200  0.762900  0.083100  1.0
  H  H1231  1  0.514800  0.639200  0.083100  1.0
  H  H1232  1  0.762900  0.514800  0.083100  1.0
  H  H1233  1  0.509000  0.185800  0.872800  1.0
  H  H1234  1  0.432400  0.509000  0.872800  1.0
  H  H1235  1  0.185800  0.432400  0.872800  1.0
  H  H1236  1  0.567600  0.814200  0.127200  1.0
  H  H1237  1  0.491000  0.567600  0.127200  1.0
  H  H1238  1  0.814200  0.491000  0.127200  1.0
  H  H1239  1  0.485200  0.187500  0.826300  1.0
  H  H1240  1  0.501000  0.485200  0.826300  1.0
  H  H1241  1  0.187500  0.501000  0.826300  1.0
  H  H1242  1  0.499000  0.812500  0.173700  1.0
  H  H1243  1  0.514800  0.499000  0.173700  1.0
  H  H1244  1  0.812500  0.514800  0.173700  1.0
  H  H1245  1  0.410800  0.265900  0.805300  1.0
  H  H1246  1  0.518000  0.410800  0.805300  1.0
  H  H1247  1  0.265900  0.518000  0.805300  1.0
  H  H1248  1  0.482000  0.734100  0.194700  1.0
  H  H1249  1  0.589200  0.482000  0.194700  1.0
  H  H1250  1  0.734100  0.589200  0.194700  1.0
  H  H1251  1  0.360200  0.342800  0.830800  1.0
  H  H1252  1  0.466200  0.360200  0.830800  1.0
  H  H1253  1  0.342800  0.466200  0.830800  1.0
  H  H1254  1  0.533800  0.657200  0.169200  1.0
  H  H1255  1  0.639800  0.533800  0.169200  1.0
  H  H1256  1  0.657200  0.639800  0.169200  1.0
  H  H1257  1  0.502300  0.234300  0.155700  1.0
  H  H1258  1  0.107700  0.502300  0.155700  1.0
  H  H1259  1  0.234300  0.107700  0.155700  1.0
  H  H1260  1  0.892300  0.765700  0.844300  1.0
  H  H1261  1  0.497700  0.892300  0.844300  1.0
  H  H1262  1  0.765700  0.497700  0.844300  1.0
  H  H1263  1  0.570400  0.141700  0.160500  1.0
  H  H1264  1  0.127400  0.570400  0.160500  1.0
  H  H1265  1  0.141700  0.127400  0.160500  1.0
  H  H1266  1  0.872600  0.858300  0.839500  1.0
  H  H1267  1  0.429600  0.872600  0.839500  1.0
  H  H1268  1  0.858300  0.429600  0.839500  1.0
  H  H1269  1  0.689100  0.193400  0.110100  1.0
  H  H1270  1  0.007400  0.689100  0.110100  1.0
  H  H1271  1  0.193400  0.007400  0.110100  1.0
  H  H1272  1  0.992600  0.806600  0.889900  1.0
  H  H1273  1  0.310900  0.992600  0.889900  1.0
  H  H1274  1  0.806600  0.310900  0.889900  1.0
  H  H1275  1  0.621000  0.286000  0.105300  1.0
  H  H1276  1  0.987700  0.621000  0.105300  1.0
  H  H1277  1  0.286000  0.987700  0.105300  1.0
  H  H1278  1  0.012300  0.714000  0.894700  1.0
  H  H1279  1  0.379000  0.012300  0.894700  1.0
  H  H1280  1  0.714000  0.379000  0.894700  1.0
  H  H1281  1  0.639000  0.071100  0.183300  1.0
  H  H1282  1  0.106600  0.639000  0.183300  1.0
  H  H1283  1  0.071100  0.106600  0.183300  1.0
  H  H1284  1  0.893400  0.928900  0.816700  1.0
  H  H1285  1  0.361000  0.893400  0.816700  1.0
  H  H1286  1  0.928900  0.361000  0.816700  1.0
  H  H1287  1  0.708700  0.979600  0.190800  1.0
  H  H1288  1  0.120900  0.708700  0.190800  1.0
  H  H1289  1  0.979600  0.120900  0.190800  1.0
  H  H1290  1  0.879100  0.020400  0.809200  1.0
  H  H1291  1  0.291300  0.879100  0.809200  1.0
  H  H1292  1  0.020400  0.291300  0.809200  1.0
  H  H1293  1  0.805100  0.018200  0.106800  1.0
  H  H1294  1  0.069900  0.805100  0.106800  1.0
  H  H1295  1  0.018200  0.069900  0.106800  1.0
  H  H1296  1  0.930100  0.981800  0.893200  1.0
  H  H1297  1  0.194900  0.930100  0.893200  1.0
  H  H1298  1  0.981800  0.194900  0.893200  1.0
  H  H1299  1  0.735400  0.109800  0.099300  1.0
  H  H1300  1  0.055500  0.735400  0.099300  1.0
  H  H1301  1  0.109800  0.055500  0.099300  1.0
  H  H1302  1  0.944500  0.890200  0.900700  1.0
  H  H1303  1  0.264600  0.944500  0.900700  1.0
  H  H1304  1  0.890200  0.264600  0.900700  1.0
  H  H1305  1  0.826000  0.947200  0.187200  1.0
  H  H1306  1  0.039600  0.826000  0.187200  1.0
  H  H1307  1  0.947200  0.039600  0.187200  1.0
  H  H1308  1  0.960400  0.052800  0.812800  1.0
  H  H1309  1  0.174000  0.960400  0.812800  1.0
  H  H1310  1  0.052800  0.174000  0.812800  1.0
  H  H1311  1  0.915000  0.858700  0.212100  1.0
  H  H1312  1  0.014200  0.915000  0.212100  1.0
  H  H1313  1  0.858700  0.014200  0.212100  1.0
  H  H1314  1  0.985800  0.141300  0.787900  1.0
  H  H1315  1  0.085000  0.985800  0.787900  1.0
  H  H1316  1  0.141300  0.085000  0.787900  1.0
  H  H1317  1  0.973900  0.763200  0.217800  1.0
  H  H1318  1  0.045100  0.973900  0.217800  1.0
  H  H1319  1  0.763200  0.045100  0.217800  1.0
  H  H1320  1  0.954900  0.236800  0.782200  1.0
  H  H1321  1  0.026100  0.954900  0.782200  1.0
  H  H1322  1  0.236800  0.026100  0.782200  1.0
  H  H1323  1  0.972300  0.710900  0.186900  1.0
  H  H1324  1  0.129900  0.972300  0.186900  1.0
  H  H1325  1  0.710900  0.129900  0.186900  1.0
  H  H1326  1  0.870100  0.289100  0.813100  1.0
  H  H1327  1  0.027700  0.870100  0.813100  1.0
  H  H1328  1  0.289100  0.027700  0.813100  1.0
  H  H1329  1  0.911700  0.754200  0.150300  1.0
  H  H1330  1  0.183800  0.911700  0.150300  1.0
  H  H1331  1  0.754200  0.183800  0.150300  1.0
  H  H1332  1  0.816200  0.245800  0.849700  1.0
  H  H1333  1  0.088300  0.816200  0.849700  1.0
  H  H1334  1  0.245800  0.088300  0.849700  1.0
  H  H1335  1  0.567300  0.997000  0.381000  1.0
  H  H1336  1  0.054700  0.567300  0.381000  1.0
  H  H1337  1  0.997000  0.054700  0.381000  1.0
  H  H1338  1  0.945300  0.003000  0.619000  1.0
  H  H1339  1  0.432700  0.945300  0.619000  1.0
  H  H1340  1  0.003000  0.432700  0.619000  1.0
  H  H1341  1  0.612600  0.052200  0.371100  1.0
  H  H1342  1  0.964100  0.612600  0.371100  1.0
  H  H1343  1  0.052200  0.964100  0.371100  1.0
  H  H1344  1  0.035900  0.947800  0.628900  1.0
  H  H1345  1  0.387400  0.035900  0.628900  1.0
  H  H1346  1  0.947800  0.387400  0.628900  1.0
  H  H1347  1  0.491200  0.181600  0.325500  1.0
  H  H1348  1  0.001700  0.491200  0.325500  1.0
  H  H1349  1  0.181600  0.001700  0.325500  1.0
  H  H1350  1  0.998300  0.818400  0.674500  1.0
  H  H1351  1  0.508800  0.998300  0.674500  1.0
  H  H1352  1  0.818400  0.508800  0.674500  1.0
  H  H1353  1  0.445900  0.126400  0.335400  1.0
  H  H1354  1  0.092300  0.445900  0.335400  1.0
  H  H1355  1  0.126400  0.092300  0.335400  1.0
  H  H1356  1  0.907700  0.873600  0.664600  1.0
  H  H1357  1  0.554100  0.907700  0.664600  1.0
  H  H1358  1  0.873600  0.554100  0.664600  1.0
  H  H1359  1  0.621100  0.114200  0.380700  1.0
  H  H1360  1  0.884000  0.621100  0.380700  1.0
  H  H1361  1  0.114200  0.884000  0.380700  1.0
  H  H1362  1  0.116000  0.885800  0.619300  1.0
  H  H1363  1  0.378900  0.116000  0.619300  1.0
  H  H1364  1  0.885800  0.378900  0.619300  1.0
  H  H1365  1  0.664100  0.170400  0.373500  1.0
  H  H1366  1  0.792000  0.664100  0.373500  1.0
  H  H1367  1  0.170400  0.792000  0.373500  1.0
  H  H1368  1  0.208000  0.829600  0.626500  1.0
  H  H1369  1  0.335900  0.208000  0.626500  1.0
  H  H1370  1  0.829600  0.335900  0.626500  1.0
  H  H1371  1  0.597700  0.265100  0.293400  1.0
  H  H1372  1  0.843800  0.597700  0.293400  1.0
  H  H1373  1  0.265100  0.843800  0.293400  1.0
  H  H1374  1  0.156200  0.734900  0.706600  1.0
  H  H1375  1  0.402300  0.156200  0.706600  1.0
  H  H1376  1  0.734900  0.402300  0.706600  1.0
  H  H1377  1  0.554600  0.208800  0.300900  1.0
  H  H1378  1  0.935700  0.554600  0.300900  1.0
  H  H1379  1  0.208800  0.935700  0.300900  1.0
  H  H1380  1  0.064300  0.791200  0.699100  1.0
  H  H1381  1  0.445400  0.064300  0.699100  1.0
  H  H1382  1  0.791200  0.445400  0.699100  1.0
  H  H1383  1  0.741800  0.348900  0.346200  1.0
  H  H1384  1  0.563100  0.741800  0.346200  1.0
  H  H1385  1  0.348900  0.563100  0.346200  1.0
  H  H1386  1  0.436900  0.651100  0.653800  1.0
  H  H1387  1  0.258200  0.436900  0.653800  1.0
  H  H1388  1  0.651100  0.258200  0.653800  1.0
  H  H1389  1  0.808000  0.359700  0.301200  1.0
  H  H1390  1  0.531100  0.808000  0.301200  1.0
  H  H1391  1  0.359700  0.531100  0.301200  1.0
  H  H1392  1  0.468900  0.640300  0.698800  1.0
  H  H1393  1  0.192000  0.468900  0.698800  1.0
  H  H1394  1  0.640300  0.192000  0.698800  1.0
  H  H1395  1  0.828800  0.320200  0.256800  1.0
  H  H1396  1  0.594200  0.828800  0.256800  1.0
  H  H1397  1  0.320200  0.594200  0.256800  1.0
  H  H1398  1  0.405800  0.679800  0.743200  1.0
  H  H1399  1  0.171200  0.405800  0.743200  1.0
  H  H1400  1  0.679800  0.171200  0.743200  1.0
  H  H1401  1  0.781500  0.270600  0.258300  1.0
  H  H1402  1  0.689600  0.781500  0.258300  1.0
  H  H1403  1  0.270600  0.689600  0.258300  1.0
  H  H1404  1  0.310400  0.729400  0.741700  1.0
  H  H1405  1  0.218500  0.310400  0.741700  1.0
  H  H1406  1  0.729400  0.218500  0.741700  1.0
  H  H1407  1  0.706300  0.239900  0.286500  1.0
  H  H1408  1  0.767300  0.706300  0.286500  1.0
  H  H1409  1  0.239900  0.767300  0.286500  1.0
  H  H1410  1  0.232700  0.760100  0.713500  1.0
  H  H1411  1  0.293700  0.232700  0.713500  1.0
  H  H1412  1  0.760100  0.293700  0.713500  1.0
  H  H1413  1  0.486900  0.037000  0.292200  1.0
  H  H1414  1  0.183900  0.486900  0.292200  1.0
  H  H1415  1  0.037000  0.183900  0.292200  1.0
  H  H1416  1  0.816100  0.963000  0.707800  1.0
  H  H1417  1  0.513100  0.816100  0.707800  1.0
  H  H1418  1  0.963000  0.513100  0.707800  1.0
  H  H1419  1  0.554000  0.003800  0.247200  1.0
  H  H1420  1  0.195000  0.554000  0.247200  1.0
  H  H1421  1  0.003800  0.195000  0.247200  1.0
  H  H1422  1  0.805000  0.996200  0.752800  1.0
  H  H1423  1  0.446000  0.805000  0.752800  1.0
  H  H1424  1  0.996200  0.446000  0.752800  1.0
  H  H1425  1  0.650900  0.873400  0.306900  1.0
  H  H1426  1  0.168800  0.650900  0.306900  1.0
  H  H1427  1  0.873400  0.168800  0.306900  1.0
  H  H1428  1  0.831200  0.126600  0.693100  1.0
  H  H1429  1  0.349100  0.831200  0.693100  1.0
  H  H1430  1  0.126600  0.349100  0.693100  1.0
  H  H1431  1  0.583800  0.906600  0.351900  1.0
  H  H1432  1  0.157700  0.583800  0.351900  1.0
  H  H1433  1  0.906600  0.157700  0.351900  1.0
  H  H1434  1  0.842300  0.093400  0.648100  1.0
  H  H1435  1  0.416200  0.842300  0.648100  1.0
  H  H1436  1  0.093400  0.416200  0.648100  1.0
  H  H1437  1  0.595200  0.943800  0.213000  1.0
  H  H1438  1  0.248000  0.595200  0.213000  1.0
  H  H1439  1  0.943800  0.248000  0.213000  1.0
  H  H1440  1  0.752000  0.056200  0.787000  1.0
  H  H1441  1  0.404800  0.752000  0.787000  1.0
  H  H1442  1  0.056200  0.404800  0.787000  1.0
  H  H1443  1  0.660400  0.909700  0.167400  1.0
  H  H1444  1  0.262500  0.660400  0.167400  1.0
  H  H1445  1  0.909700  0.262500  0.167400  1.0
  H  H1446  1  0.737500  0.090300  0.832600  1.0
  H  H1447  1  0.339600  0.737500  0.832600  1.0
  H  H1448  1  0.090300  0.339600  0.832600  1.0
  H  H1449  1  0.784400  0.842100  0.217500  1.0
  H  H1450  1  0.156000  0.784400  0.217500  1.0
  H  H1451  1  0.842100  0.156000  0.217500  1.0
  H  H1452  1  0.844000  0.157900  0.782500  1.0
  H  H1453  1  0.215600  0.844000  0.782500  1.0
  H  H1454  1  0.157900  0.215600  0.782500  1.0
  H  H1455  1  0.719300  0.876200  0.262800  1.0
  H  H1456  1  0.141700  0.719300  0.262800  1.0
  H  H1457  1  0.876200  0.141700  0.262800  1.0
  H  H1458  1  0.858300  0.123800  0.737200  1.0
  H  H1459  1  0.280700  0.858300  0.737200  1.0
  H  H1460  1  0.123800  0.280700  0.737200  1.0
  H  H1461  1  0.753200  0.787600  0.175500  1.0
  H  H1462  1  0.283700  0.753200  0.175500  1.0
  H  H1463  1  0.787600  0.283700  0.175500  1.0
  H  H1464  1  0.716300  0.212400  0.824500  1.0
  H  H1465  1  0.246800  0.716300  0.824500  1.0
  H  H1466  1  0.212400  0.246800  0.824500  1.0
  H  H1467  1  0.793700  0.721100  0.131400  1.0
  H  H1468  1  0.353800  0.793700  0.131400  1.0
  H  H1469  1  0.721100  0.353800  0.131400  1.0
  H  H1470  1  0.646200  0.278900  0.868600  1.0
  H  H1471  1  0.206300  0.646200  0.868600  1.0
  H  H1472  1  0.278900  0.206300  0.868600  1.0
  H  H1473  1  0.857300  0.694000  0.084000  1.0
  H  H1474  1  0.364700  0.857300  0.084000  1.0
  H  H1475  1  0.694000  0.364700  0.084000  1.0
  H  H1476  1  0.635300  0.306000  0.916000  1.0
  H  H1477  1  0.142700  0.635300  0.916000  1.0
  H  H1478  1  0.306000  0.142700  0.916000  1.0
  H  H1479  1  0.912200  0.740300  0.055200  1.0
  H  H1480  1  0.292300  0.912200  0.055200  1.0
  H  H1481  1  0.740300  0.292300  0.055200  1.0
  H  H1482  1  0.707700  0.259700  0.944800  1.0
  H  H1483  1  0.087800  0.707700  0.944800  1.0
  H  H1484  1  0.259700  0.087800  0.944800  1.0
  H  H1485  1  0.903700  0.813600  0.073500  1.0
  H  H1486  1  0.209200  0.903700  0.073500  1.0
  H  H1487  1  0.813600  0.209200  0.073500  1.0
  H  H1488  1  0.790800  0.186400  0.926500  1.0
  H  H1489  1  0.096300  0.790800  0.926500  1.0
  H  H1490  1  0.186400  0.096300  0.926500  1.0
  H  H1491  1  0.352800  0.083800  0.382500  1.0
  H  H1492  1  0.180900  0.352800  0.382500  1.0
  H  H1493  1  0.083800  0.180900  0.382500  1.0
  H  H1494  1  0.819100  0.916200  0.617500  1.0
  H  H1495  1  0.647200  0.819100  0.617500  1.0
  H  H1496  1  0.916200  0.647200  0.617500  1.0
  H  H1497  1  0.292000  0.120700  0.428100  1.0
  H  H1498  1  0.159200  0.292000  0.428100  1.0
  H  H1499  1  0.120700  0.159200  0.428100  1.0
  H  H1500  1  0.840800  0.879300  0.571900  1.0
  H  H1501  1  0.708000  0.840800  0.571900  1.0
  H  H1502  1  0.879300  0.708000  0.571900  1.0
  H  H1503  1  0.412800  0.020500  0.481200  1.0
  H  H1504  1  0.085500  0.412800  0.481200  1.0
  H  H1505  1  0.020500  0.085500  0.481200  1.0
  H  H1506  1  0.914500  0.979500  0.518800  1.0
  H  H1507  1  0.587200  0.914500  0.518800  1.0
  H  H1508  1  0.979500  0.587200  0.518800  1.0
  H  H1509  1  0.473600  0.983600  0.435600  1.0
  H  H1510  1  0.107200  0.473600  0.435600  1.0
  H  H1511  1  0.983600  0.107200  0.435600  1.0
  H  H1512  1  0.892800  0.016400  0.564400  1.0
  H  H1513  1  0.526400  0.892800  0.564400  1.0
  H  H1514  1  0.016400  0.526400  0.564400  1.0
  H  H1515  1  0.259600  0.171300  0.463200  1.0
  H  H1516  1  0.105900  0.259600  0.463200  1.0
  H  H1517  1  0.171300  0.105900  0.463200  1.0
  H  H1518  1  0.894100  0.828700  0.536800  1.0
  H  H1519  1  0.740400  0.894100  0.536800  1.0
  H  H1520  1  0.828700  0.740400  0.536800  1.0
  H  H1521  1  0.201500  0.208400  0.509400  1.0
  H  H1522  1  0.080700  0.201500  0.509400  1.0
  H  H1523  1  0.208400  0.080700  0.509400  1.0
  H  H1524  1  0.919300  0.791600  0.490600  1.0
  H  H1525  1  0.798500  0.919300  0.490600  1.0
  H  H1526  1  0.791600  0.798500  0.490600  1.0
  H  H1527  1  0.290000  0.065800  0.566700  1.0
  H  H1528  1  0.077500  0.290000  0.566700  1.0
  H  H1529  1  0.065800  0.077500  0.566700  1.0
  H  H1530  1  0.922500  0.934200  0.433300  1.0
  H  H1531  1  0.710000  0.922500  0.433300  1.0
  H  H1532  1  0.934200  0.710000  0.433300  1.0
  H  H1533  1  0.348100  0.028800  0.520500  1.0
  H  H1534  1  0.102600  0.348100  0.520500  1.0
  H  H1535  1  0.028800  0.102600  0.520500  1.0
  H  H1536  1  0.897400  0.971200  0.479500  1.0
  H  H1537  1  0.651900  0.897400  0.479500  1.0
  H  H1538  1  0.971200  0.651900  0.479500  1.0
  H  H1539  1  0.389300  0.998900  0.336300  1.0
  H  H1540  1  0.275500  0.389300  0.336300  1.0
  H  H1541  1  0.998900  0.275500  0.336300  1.0
  H  H1542  1  0.724500  0.001100  0.663700  1.0
  H  H1543  1  0.610700  0.724500  0.663700  1.0
  H  H1544  1  0.001100  0.610700  0.663700  1.0
  H  H1545  1  0.354200  0.937500  0.339900  1.0
  H  H1546  1  0.368400  0.354200  0.339900  1.0
  H  H1547  1  0.937500  0.368400  0.339900  1.0
  H  H1548  1  0.631600  0.062500  0.660100  1.0
  H  H1549  1  0.645800  0.631600  0.660100  1.0
  H  H1550  1  0.062500  0.645800  0.660100  1.0
  H  H1551  1  0.447500  0.825900  0.406800  1.0
  H  H1552  1  0.319800  0.447500  0.406800  1.0
  H  H1553  1  0.825900  0.319800  0.406800  1.0
  H  H1554  1  0.680200  0.174100  0.593200  1.0
  H  H1555  1  0.552500  0.680200  0.593200  1.0
  H  H1556  1  0.174100  0.552500  0.593200  1.0
  H  H1557  1  0.482600  0.887300  0.403200  1.0
  H  H1558  1  0.226900  0.482600  0.403200  1.0
  H  H1559  1  0.887300  0.226900  0.403200  1.0
  H  H1560  1  0.773100  0.112700  0.596800  1.0
  H  H1561  1  0.517400  0.773100  0.596800  1.0
  H  H1562  1  0.112700  0.517400  0.596800  1.0
  H  H1563  1  0.293100  0.900000  0.376200  1.0
  H  H1564  1  0.430700  0.293100  0.376200  1.0
  H  H1565  1  0.900000  0.430700  0.376200  1.0
  H  H1566  1  0.569300  0.100000  0.623800  1.0
  H  H1567  1  0.706900  0.569300  0.623800  1.0
  H  H1568  1  0.100000  0.706900  0.623800  1.0
  H  H1569  1  0.252500  0.842400  0.381600  1.0
  H  H1570  1  0.523500  0.252500  0.381600  1.0
  H  H1571  1  0.842400  0.523500  0.381600  1.0
  H  H1572  1  0.476500  0.157600  0.618400  1.0
  H  H1573  1  0.747500  0.476500  0.618400  1.0
  H  H1574  1  0.157600  0.747500  0.618400  1.0
  H  H1575  1  0.402900  0.708000  0.383700  1.0
  H  H1576  1  0.505400  0.402900  0.383700  1.0
  H  H1577  1  0.708000  0.505400  0.383700  1.0
  H  H1578  1  0.494600  0.292000  0.616300  1.0
  H  H1579  1  0.597100  0.494600  0.616300  1.0
  H  H1580  1  0.292000  0.597100  0.616300  1.0
  H  H1581  1  0.443400  0.765500  0.378600  1.0
  H  H1582  1  0.412500  0.443400  0.378600  1.0
  H  H1583  1  0.765500  0.412500  0.378600  1.0
  H  H1584  1  0.587500  0.234500  0.621400  1.0
  H  H1585  1  0.556600  0.587500  0.621400  1.0
  H  H1586  1  0.234500  0.556600  0.621400  1.0
  H  H1587  1  0.046800  0.190200  0.656700  1.0
  H  H1588  1  0.106300  0.046800  0.656700  1.0
  H  H1589  1  0.190200  0.106300  0.656700  1.0
  H  H1590  1  0.893700  0.809800  0.343300  1.0
  H  H1591  1  0.953200  0.893700  0.343300  1.0
  H  H1592  1  0.809800  0.953200  0.343300  1.0
  H  H1593  1  0.029800  0.263200  0.678300  1.0
  H  H1594  1  0.028700  0.029800  0.678300  1.0
  H  H1595  1  0.263200  0.028700  0.678300  1.0
  H  H1596  1  0.971300  0.736800  0.321700  1.0
  H  H1597  1  0.970200  0.971300  0.321700  1.0
  H  H1598  1  0.736800  0.970200  0.321700  1.0
  H  H1599  1  0.090400  0.304800  0.658800  1.0
  H  H1600  1  0.946000  0.090400  0.658800  1.0
  H  H1601  1  0.304800  0.946000  0.658800  1.0
  H  H1602  1  0.054000  0.695200  0.341200  1.0
  H  H1603  1  0.909600  0.054000  0.341200  1.0
  H  H1604  1  0.695200  0.909600  0.341200  1.0
  H  H1605  1  0.167400  0.271900  0.617100  1.0
  H  H1606  1  0.943600  0.167400  0.617100  1.0
  H  H1607  1  0.271900  0.943600  0.617100  1.0
  H  H1608  1  0.056400  0.728100  0.382900  1.0
  H  H1609  1  0.832600  0.056400  0.382900  1.0
  H  H1610  1  0.728100  0.832600  0.382900  1.0
  H  H1611  1  0.220300  0.210400  0.576000  1.0
  H  H1612  1  0.993300  0.220300  0.576000  1.0
  H  H1613  1  0.210400  0.993300  0.576000  1.0
  H  H1614  1  0.006700  0.789600  0.424000  1.0
  H  H1615  1  0.779700  0.006700  0.424000  1.0
  H  H1616  1  0.789600  0.779700  0.424000  1.0
  H  H1617  1  0.235500  0.627200  0.368400  1.0
  H  H1618  1  0.768900  0.235500  0.368400  1.0
  H  H1619  1  0.627200  0.768900  0.368400  1.0
  H  H1620  1  0.231100  0.372800  0.631600  1.0
  H  H1621  1  0.764500  0.231100  0.631600  1.0
  H  H1622  1  0.372800  0.764500  0.631600  1.0
  H  H1623  1  0.162600  0.622300  0.410400  1.0
  H  H1624  1  0.804700  0.162600  0.410400  1.0
  H  H1625  1  0.622300  0.804700  0.410400  1.0
  H  H1626  1  0.195300  0.377700  0.589600  1.0
  H  H1627  1  0.837400  0.195300  0.589600  1.0
  H  H1628  1  0.377700  0.837400  0.589600  1.0
  H  H1629  1  0.136400  0.664800  0.454500  1.0
  H  H1630  1  0.744300  0.136400  0.454500  1.0
  H  H1631  1  0.664800  0.744300  0.454500  1.0
  H  H1632  1  0.255700  0.335200  0.545500  1.0
  H  H1633  1  0.863600  0.255700  0.545500  1.0
  H  H1634  1  0.335200  0.863600  0.545500  1.0
  H  H1635  1  0.184300  0.712400  0.455100  1.0
  H  H1636  1  0.648200  0.184300  0.455100  1.0
  H  H1637  1  0.712400  0.648200  0.455100  1.0
  H  H1638  1  0.351800  0.287600  0.544900  1.0
  H  H1639  1  0.815700  0.351800  0.544900  1.0
  H  H1640  1  0.287600  0.815700  0.544900  1.0
  H  H1641  1  0.254600  0.749600  0.426900  1.0
  H  H1642  1  0.568900  0.254600  0.426900  1.0
  H  H1643  1  0.749600  0.568900  0.426900  1.0
  H  H1644  1  0.431100  0.250400  0.573100  1.0
  H  H1645  1  0.745400  0.431100  0.573100  1.0
  H  H1646  1  0.250400  0.745400  0.573100  1.0
  N  N1647  1  0.597890  0.376590  0.326130  1.0
  N  N1648  1  0.699390  0.597890  0.326130  1.0
  N  N1649  1  0.376590  0.699390  0.326130  1.0
  N  N1650  1  0.300610  0.623410  0.673870  1.0
  N  N1651  1  0.402110  0.300610  0.673870  1.0
  N  N1652  1  0.623410  0.402110  0.673870  1.0
  N  N1653  1  0.200130  0.772830  0.101010  1.0
  N  N1654  1  0.926030  0.200130  0.101010  1.0
  N  N1655  1  0.772830  0.926030  0.101010  1.0
  N  N1656  1  0.073970  0.227170  0.898990  1.0
  N  N1657  1  0.799870  0.073970  0.898990  1.0
  N  N1658  1  0.227170  0.799870  0.898990  1.0
  N  N1659  1  0.428680  0.313080  0.917560  1.0
  N  N1660  1  0.340680  0.428680  0.917560  1.0
  N  N1661  1  0.313080  0.340680  0.917560  1.0
  N  N1662  1  0.659320  0.686920  0.082440  1.0
  N  N1663  1  0.571320  0.659320  0.082440  1.0
  N  N1664  1  0.686920  0.571320  0.082440  1.0
  N  N1665  1  0.804680  0.935180  0.152760  1.0
  N  N1666  1  0.107380  0.804680  0.152760  1.0
  N  N1667  1  0.935180  0.107380  0.152760  1.0
  N  N1668  1  0.892620  0.064820  0.847240  1.0
  N  N1669  1  0.195320  0.892620  0.847240  1.0
  N  N1670  1  0.064820  0.195320  0.847240  1.0
  N  N1671  1  0.765540  0.852340  0.161880  1.0
  N  N1672  1  0.220240  0.765540  0.161880  1.0
  N  N1673  1  0.852340  0.220240  0.161880  1.0
  N  N1674  1  0.779760  0.147660  0.838120  1.0
  N  N1675  1  0.234460  0.779760  0.838120  1.0
  N  N1676  1  0.147660  0.234460  0.838120  1.0
  N  N1677  1  0.513160  0.357360  0.164820  1.0
  N  N1678  1  0.964660  0.513160  0.164820  1.0
  N  N1679  1  0.357360  0.964660  0.164820  1.0
  N  N1680  1  0.035340  0.642640  0.835180  1.0
  N  N1681  1  0.486840  0.035340  0.835180  1.0
  N  N1682  1  0.642640  0.486840  0.835180  1.0
  N  N1683  1  0.634340  0.366840  0.377580  1.0
  N  N1684  1  0.621240  0.634340  0.377580  1.0
  N  N1685  1  0.366840  0.621240  0.377580  1.0
  N  N1686  1  0.378760  0.633160  0.622420  1.0
  N  N1687  1  0.365660  0.378760  0.622420  1.0
  N  N1688  1  0.633160  0.365660  0.622420  1.0
  N  N1689  1  0.439500  0.429400  0.123000  1.0
  N  N1690  1  0.008100  0.439500  0.123000  1.0
  N  N1691  1  0.429400  0.008100  0.123000  1.0
  N  N1692  1  0.991900  0.570600  0.877000  1.0
  N  N1693  1  0.560500  0.991900  0.877000  1.0
  N  N1694  1  0.570600  0.560500  0.877000  1.0
  N  N1695  1  0.131050  0.871250  0.095250  1.0
  N  N1696  1  0.902450  0.131050  0.095250  1.0
  N  N1697  1  0.871250  0.902450  0.095250  1.0
  N  N1698  1  0.097550  0.128750  0.904750  1.0
  N  N1699  1  0.868950  0.097550  0.904750  1.0
  N  N1700  1  0.128750  0.868950  0.904750  1.0
  N  N1701  1  0.480220  0.343220  0.087240  1.0
  N  N1702  1  0.089320  0.480220  0.087240  1.0
  N  N1703  1  0.343220  0.089320  0.087240  1.0
  N  N1704  1  0.910680  0.656780  0.912760  1.0
  N  N1705  1  0.519780  0.910680  0.912760  1.0
  N  N1706  1  0.656780  0.519780  0.912760  1.0
  N  N1707  1  0.404550  0.309950  0.866950  1.0
  N  N1708  1  0.418550  0.404550  0.866950  1.0
  N  N1709  1  0.309950  0.418550  0.866950  1.0
  N  N1710  1  0.581450  0.690050  0.133050  1.0
  N  N1711  1  0.595450  0.581450  0.133050  1.0
  N  N1712  1  0.690050  0.595450  0.133050  1.0
  N  N1713  1  0.555260  0.268860  0.130020  1.0
  N  N1714  1  0.045860  0.555260  0.130020  1.0
  N  N1715  1  0.268860  0.045860  0.130020  1.0
  N  N1716  1  0.954140  0.731140  0.869980  1.0
  N  N1717  1  0.444740  0.954140  0.869980  1.0
  N  N1718  1  0.731140  0.444740  0.869980  1.0
  N  N1719  1  0.877330  0.832130  0.159510  1.0
  N  N1720  1  0.131030  0.877330  0.159510  1.0
  N  N1721  1  0.832130  0.131030  0.159510  1.0
  N  N1722  1  0.868970  0.167870  0.840490  1.0
  N  N1723  1  0.122670  0.868970  0.840490  1.0
  N  N1724  1  0.167870  0.122670  0.840490  1.0
  N  N1725  1  0.502420  0.056520  0.359040  1.0
  N  N1726  1  0.082020  0.502420  0.359040  1.0
  N  N1727  1  0.056520  0.082020  0.359040  1.0
  N  N1728  1  0.917980  0.943480  0.640960  1.0
  N  N1729  1  0.497580  0.917980  0.640960  1.0
  N  N1730  1  0.943480  0.497580  0.640960  1.0
  N  N1731  1  0.720490  0.306290  0.329130  1.0
  N  N1732  1  0.644090  0.720490  0.329130  1.0
  N  N1733  1  0.306290  0.644090  0.329130  1.0
  N  N1734  1  0.355910  0.693710  0.670870  1.0
  N  N1735  1  0.279510  0.355910  0.670870  1.0
  N  N1736  1  0.693710  0.279510  0.670870  1.0
  N  N1737  1  0.660610  0.255710  0.328170  1.0
  N  N1738  1  0.755510  0.660610  0.328170  1.0
  N  N1739  1  0.255710  0.755510  0.328170  1.0
  N  N1740  1  0.244490  0.744290  0.671830  1.0
  N  N1741  1  0.339390  0.244490  0.671830  1.0
  N  N1742  1  0.744290  0.339390  0.671830  1.0
  N  N1743  1  0.529030  0.974930  0.326310  1.0
  N  N1744  1  0.169730  0.529030  0.326310  1.0
  N  N1745  1  0.974930  0.169730  0.326310  1.0
  N  N1746  1  0.830270  0.025070  0.673690  1.0
  N  N1747  1  0.470970  0.830270  0.673690  1.0
  N  N1748  1  0.025070  0.470970  0.673690  1.0
  N  N1749  1  0.843590  0.810890  0.113430  1.0
  N  N1750  1  0.232090  0.843590  0.113430  1.0
  N  N1751  1  0.810890  0.232090  0.113430  1.0
  N  N1752  1  0.767910  0.189110  0.886570  1.0
  N  N1753  1  0.156410  0.767910  0.886570  1.0
  N  N1754  1  0.189110  0.156410  0.886570  1.0
  N  N1755  1  0.419020  0.030220  0.404640  1.0
  N  N1756  1  0.146120  0.419020  0.404640  1.0
  N  N1757  1  0.030220  0.146120  0.404640  1.0
  N  N1758  1  0.853880  0.969780  0.595360  1.0
  N  N1759  1  0.580980  0.853880  0.595360  1.0
  N  N1760  1  0.969780  0.580980  0.595360  1.0
  N  N1761  1  0.439240  0.948840  0.369480  1.0
  N  N1762  1  0.242440  0.439240  0.369480  1.0
  N  N1763  1  0.948840  0.242440  0.369480  1.0
  N  N1764  1  0.757560  0.051160  0.630520  1.0
  N  N1765  1  0.560760  0.757560  0.630520  1.0
  N  N1766  1  0.051160  0.560760  0.630520  1.0
  N  N1767  1  0.114420  0.189020  0.623640  1.0
  N  N1768  1  0.072920  0.114420  0.623640  1.0
  N  N1769  1  0.189020  0.072920  0.623640  1.0
  N  N1770  1  0.927080  0.810980  0.376360  1.0
  N  N1771  1  0.885580  0.927080  0.376360  1.0
  N  N1772  1  0.810980  0.885580  0.376360  1.0
  N  N1773  1  0.199410  0.157810  0.572070  1.0
  N  N1774  1  0.070710  0.199410  0.572070  1.0
  N  N1775  1  0.157810  0.070710  0.572070  1.0
  N  N1776  1  0.929290  0.842190  0.427930  1.0
  N  N1777  1  0.800590  0.929290  0.427930  1.0
  N  N1778  1  0.842190  0.800590  0.427930  1.0
  N  N1779  1  0.251480  0.673880  0.385560  1.0
  N  N1780  1  0.689080  0.251480  0.385560  1.0
  N  N1781  1  0.673880  0.689080  0.385560  1.0
  N  N1782  1  0.310920  0.326120  0.614440  1.0
  N  N1783  1  0.748520  0.310920  0.614440  1.0
  N  N1784  1  0.326120  0.748520  0.614440  1.0
  N  N1785  1  0.300270  0.736470  0.384990  1.0
  N  N1786  1  0.578270  0.300270  0.384990  1.0
  N  N1787  1  0.736470  0.578270  0.384990  1.0
  N  N1788  1  0.421730  0.263530  0.615010  1.0
  N  N1789  1  0.699730  0.421730  0.615010  1.0
  N  N1790  1  0.263530  0.699730  0.615010  1.0
  O  O1791  1  0.383390  0.096590  0.321930  1
  O  O1792  1  0.198090  0.383390  0.321930  1
  O  O1793  1  0.096590  0.198090  0.321930  1
  O  O1794  1  0.801910  0.903410  0.678070  1
  O  O1795  1  0.616610  0.801910  0.678070  1
  O  O1796  1  0.903410  0.616610  0.678070  1
  O  O1797  1  0.401640  0.311740  0.174780  1
  O  O1798  1  0.111840  0.401640  0.174780  1
  O  O1799  1  0.311740  0.111840  0.174780  1
  O  O1800  1  0.888160  0.688260  0.825220  1
  O  O1801  1  0.598360  0.888160  0.825220  1
  O  O1802  1  0.688260  0.598360  0.825220  1
  O  O1803  1  0.370100  0.121700  0.300300  1
  O  O1804  1  0.207900  0.370100  0.300300  1
  O  O1805  1  0.121700  0.207900  0.300300  1
  O  O1806  1  0.792100  0.878300  0.699700  1
  O  O1807  1  0.629900  0.792100  0.699700  1
  O  O1808  1  0.878300  0.629900  0.699700  1
  Pd  Pd1809  1  0.496111  0.349491  0.126717  1.0
  Pd  Pd1810  1  0.027681  0.496111  0.126717  1.0
  Pd  Pd1811  1  0.349491  0.027681  0.126717  1.0
  Pd  Pd1812  1  0.972319  0.650509  0.873283  1.0
  Pd  Pd1813  1  0.503889  0.972319  0.873283  1.0
  Pd  Pd1814  1  0.650509  0.503889  0.873283  1.0
  Pd  Pd1815  1  0.473210  0.000910  0.364500  1.0
  Pd  Pd1816  1  0.161380  0.473210  0.364500  1.0
  Pd  Pd1817  1  0.000910  0.161380  0.364500  1.0
  Pd  Pd1818  1  0.838620  0.999090  0.635500  1.0
  Pd  Pd1819  1  0.526790  0.838620  0.635500  1.0
  Pd  Pd1820  1  0.999090  0.526790  0.635500  1.0
