
#######################################################################
#
#                 Cambridge Crystallographic Data Centre
#                                CCDC 
#
#######################################################################
#
# If this CIF has been generated from an entry in the Cambridge 
# Structural Database, then it will include bibliographic, chemical, 
# crystal, experimental, refinement or atomic coordinate data resulting 
# from the CCDC's data processing and validation procedures.
#
#######################################################################

data_KULNAH
_chemical_name_common            
"bis(mu!3$-1,3,5-tris(Pyridin-4-yl)verdazyl radical-N,N',N'')-tris(mu!2$-pyrazine-N,N')-hexakis(ethylenediamine-N,N')-hexa-palladium(ii) triphenylene clathrate dodecanitrate tridecahydrate"
_chemical_formula_moiety         
'C58 H88 N32 Pd6 12+,C18 H12,12(N1 O3 1-),13(H2 O1)'
_chemical_name_systematic        
"bis(\m~3~-2,4,6-tris(Pyridin-4-yl)-3,4-dihydro-1,2,4,5-tetrazin-1(2H)-yl radical-N,N',N'')-tris(\m~2~-pyrazine-N,N')-hexakis(1,2-diaminoethane-N,N')-hexa-palladium(ii) triphenylene clathrate dodecanitrate tridecahydrate"
_symmetry_cell_setting           monoclinic
_symmetry_space_group_name_H-M   'C 2/c'
_symmetry_Int_Tables_number      15
_space_group_name_Hall           '-C 2yn'
loop_
_symmetry_equiv_pos_site_id
_symmetry_equiv_pos_as_xyz
1 x,y,z
2 -x,y,1/2-z
3 1/2+x,1/2+y,z
4 1/2-x,1/2+y,1/2-z
5 -x,-y,-z
6 x,-y,1/2+z
7 1/2-x,1/2-y,-z
8 1/2+x,1/2-y,1/2+z
_cell_length_a                   25.7945(5)
_cell_length_b                   16.1002(3)
_cell_length_c                   28.5387(8)
_cell_angle_alpha                90
_cell_angle_beta                 104.1120(12)
_cell_angle_gamma                90
_cell_volume                     11494.3
_exptl_crystal_colour            green
_exptl_crystal_description       plate
_cell_formula_units_Z            4
_exptl_crystal_preparation       'magnetic study'
loop_
_atom_site_label
_atom_site_type_symbol
_atom_site_fract_x
_atom_site_fract_y
_atom_site_fract_z
O1 O 1.2530(2) 0.2301(4) 0.29718(19)
O2 O 1.2735(3) 0.3553(4) 0.2788(2)
O3 O 1.2567(3) 0.2589(4) 0.2242(2)
N17 N 1.2605(3) 0.2801(5) 0.2662(2)
O4 O 0.9417(6) -0.1632(9) 0.2122(5)
O5 O 0.9225(6) -0.1199(9) 0.1408(5)
O6 O 1.0059(7) -0.1456(11) 0.1703(6)
N18 N 0.9556(7) -0.1425(11) 0.1753(6)
O7 O 0.768(2) 0.148(4) 0.080(2)
O8 O 0.8585(7) 0.0611(11) 0.0912(6)
O13 O 0.7621(5) -0.1376(7) -0.0071(4)
O14 O 0.8412(4) -0.0848(6) 0.0047(3)
O15 O 0.8002(5) -0.0831(7) 0.0586(4)
N19 N 0.7994(4) -0.1018(6) 0.0182(3)
O18 O 1.1285(9) 0.4693(13) 0.0765(7)
O19 O 1.1332(8) 0.3947(11) 0.1415(5)
O20 O 1.0697(10) 0.3843(19) 0.0777(9)
N20 N 1.1099(6) 0.4171(10) 0.0984(5)
O21 O 1.0449(9) 0.5320(14) -0.0040(8)
O28 O 1.0278(12) 0.2491(18) 0.1250(11)
O29 O 0.9997(11) 0.1397(17) 0.0926(10)
O30 O 0.9573(12) 0.045(3) 0.0436(15)
O31 O 1.0400(9) 0.0601(13) 0.0561(8)
N22 N 1.0004(10) 0.0767(19) 0.0690(11)
O32 O 0.8941(8) 0.3588(13) 0.0564(7)
O33 O 0.8281(11) 0.3892(19) -0.0140(11)
O35 O 1.0908(5) -0.0495(7) 0.1421(4)
O36 O 1.1449(7) 0.0208(10) 0.1086(6)
O37 O 1.1332(4) 0.0587(7) 0.1739(3)
N23 N 1.1224(5) 0.0050(7) 0.1429(4)
O42 O 0.8933(11) 0.8116(18) 0.5632(10)
O43 O 1.2469(3) 0.0812(4) 0.2205(2)
C30 C 0.9991(7) 0.5685(6) 0.2051(4)
C31 C 0.9975(14) 0.6462(6) 0.1833(6)
C32 C 0.9964(8) 0.6535(7) 0.1345(5)
C33 C 0.9987(8) 0.5816(9) 0.1077(4)
C34 C 1.0015(8) 0.5046(7) 0.1297(4)
C35 C 1.0005(9) 0.4967(5) 0.1785(4)
C36 C 1.0017(6) 0.4186(5) 0.2012(3)
C37 C 1.0038(7) 0.3436(6) 0.1771(3)
C38 C 1.0025(9) 0.2687(6) 0.2004(4)
C39 C 1.0000 0.2659(6) 0.2500
C40 C 1.0007(8) 0.3406(6) 0.2270(4)
C41 C 1.0000 0.4149(5) 0.2500
C42 C 0.9994(7) 0.4861(6) 0.2240(3)
C43 C 0.9987(15) 0.4796(9) 0.1754(5)
C44 C 0.9993(10) 0.5505(10) 0.1481(4)
C45 C 0.998(2) 0.6286(9) 0.1690(7)
C46 C 0.9948(9) 0.6344(6) 0.2168(5)
C47 C 1.000(3) 0.5636(5) 0.2542(6)
C30A C 1.0009(7) 0.5685(6) 0.2949(4)
C31A C 1.0025(14) 0.6462(6) 0.3167(6)
C32A C 1.0036(8) 0.6535(7) 0.3655(5)
C33A C 1.0013(8) 0.5816(9) 0.3923(4)
C34A C 0.9985(8) 0.5046(7) 0.3703(4)
C35A C 0.9995(9) 0.4967(5) 0.3215(4)
C36A C 0.9983(6) 0.4186(5) 0.2988(3)
C37A C 0.9962(7) 0.3436(6) 0.3229(3)
C38A C 0.9975(9) 0.2687(6) 0.2996(4)
C40A C 0.9993(8) 0.3406(6) 0.2730(4)
C42A C 1.0006(7) 0.4861(6) 0.2760(3)
C43A C 1.0013(15) 0.4796(9) 0.3246(5)
C44A C 1.0007(10) 0.5505(10) 0.3519(4)
C45A C 1.002(2) 0.6286(9) 0.3310(7)
C46A C 1.0052(9) 0.6344(6) 0.2832(5)
C47A C 1.000(3) 0.5636(5) 0.2458(6)
Pd1 Pd 0.87297(3) 0.74174(4) -0.024425(19)
Pd2 Pd 0.86405(3) 0.05802(4) 0.21403(2)
Pd3 Pd 0.86326(3) 0.81085(4) 0.417592(19)
N1 N 0.8665(3) 0.6121(4) 0.20610(19)
C1 C 0.8618(3) 0.5636(4) 0.1669(2)
N2 N 0.8614(3) 0.4804(4) 0.1672(2)
N3 N 0.8650(3) 0.4432(4) 0.21077(19)
C2 C 0.8588(3) 0.4866(4) 0.2518(2)
H1 H 0.8837 0.4650 0.2802
H2 H 0.8228 0.4781 0.2557
N4 N 0.8680(3) 0.5734(4) 0.2477(2)
C3 C 0.8595(3) 0.6017(5) 0.0379(2)
H3 H 0.8564 0.5716 0.0095
C4 C 0.8686(3) 0.7281(5) 0.0771(2)
H4 H 0.8728 0.7854 0.0765
N5 N 0.8654(3) 0.6851(4) 0.0369(2)
C5 C 0.8577(3) 0.5597(5) 0.0798(3)
H5 H 0.8553 0.5021 0.0800
C6 C 0.8597(3) 0.6049(5) 0.1215(2)
C7 C 0.8656(3) 0.6896(5) 0.1203(2)
H6 H 0.8677 0.7212 0.1480
C8 C 0.8683(3) 0.3110(5) 0.1710(2)
H7 H 0.8687 0.3379 0.1422
C9 C 0.8697(3) 0.2263(5) 0.1734(3)
H8 H 0.8711 0.1971 0.1457
N6 N 0.8692(3) 0.1829(4) 0.2129(2)
C10 C 0.8674(3) 0.2278(5) 0.2529(3)
H9 H 0.8673 0.1991 0.2811
C11 C 0.8658(3) 0.3135(5) 0.2538(3)
H10 H 0.8643 0.3417 0.2819
C12 C 0.8664(3) 0.3565(5) 0.2117(2)
C13 C 0.8808(3) 0.7098(5) 0.2850(2)
H11 H 0.8882 0.7321 0.2573
C14 C 0.8700(3) 0.6247(4) 0.2874(2)
C15 C 0.8608(3) 0.5934(5) 0.3305(2)
H12 H 0.8547 0.5371 0.3340
C16 C 0.8612(3) 0.6491(5) 0.3682(2)
H13 H 0.8547 0.6289 0.3968
N7 N 0.8704(3) 0.7295(4) 0.36464(19)
C17 C 0.8806(3) 0.7605(5) 0.3241(2)
H14 H 0.8875 0.8169 0.3223
N8 N 0.7968(3) 0.7165(6) -0.0596(2)
H15 H 0.7929 0.6614 -0.0643
H16 H 0.7746 0.7327 -0.0413
C18 C 0.7828(4) 0.7578(8) -0.1046(3)
H17 H 0.7611 0.7206 -0.1282
H18 H 0.7609 0.8055 -0.1016
C19 C 0.8240(5) 0.7838(14) -0.1215(4)
H19 H 0.8136 0.8351 -0.1390
H20 H 0.8300 0.7430 -0.1447
N9 N 0.8745(3) 0.7980(6) -0.0869(2)
H21 H 0.8799 0.8529 -0.0820
H22 H 0.9015 0.7774 -0.0984
N10 N 0.7840(3) 0.0607(4) 0.1843(2)
H23 H 0.7678 0.0918 0.2028
H24 H 0.7776 0.0839 0.1548
C20 C 0.7619(4) -0.0261(6) 0.1804(4)
H25 H 0.7492 -0.0392 0.2089
H26 H 0.7320 -0.0306 0.1523
C21 C 0.8042(4) -0.0845(6) 0.1762(4)
H27 H 0.8127 -0.0778 0.1451
H28 H 0.7924 -0.1411 0.1786
N11 N 0.8524(3) -0.0668(4) 0.2159(3)
H29 H 0.8810 -0.0944 0.2110
H30 H 0.8469 -0.0821 0.2446
N12 N 0.7844(3) 0.8240(5) 0.3888(3)
H31 H 0.7783 0.8315 0.3566
H32 H 0.7671 0.7777 0.3941
C22 C 0.7644(5) 0.8952(8) 0.4105(5)
H33 H 0.7261 0.8902 0.4063
H34 H 0.7715 0.9459 0.3948
C23 C 0.7907(5) 0.8988(9) 0.4619(4)
H35 H 0.7789 0.8531 0.4789
H36 H 0.7821 0.9506 0.4757
N13 N 0.8496(3) 0.8931(6) 0.4663(3)
H37 H 0.8663 0.8766 0.4964
H38 H 0.8625 0.9432 0.4610
N14 N 0.9423(3) 0.7974(5) 0.4503(2)
C24 C 0.9581(5) 0.7288(8) 0.4735(4)
H39 H 0.9329 0.6888 0.4761
C25 C 1.0116(5) 0.7140(9) 0.4944(4)
H40 H 1.0214 0.6638 0.5102
C26 C 1.0322(5) 0.8385(7) 0.4706(5)
H41 H 1.0570 0.8800 0.4695
C27 C 0.9779(5) 0.8533(7) 0.4483(5)
H42 H 0.9676 0.9032 0.4322
N15 N 0.9507(3) 0.7686(5) 0.0074(2)
C28 C 0.9714(4) 0.0477(6) 0.2827(4)
H43 H 0.9525 0.0461 0.3065
C29 C 0.9731(4) 0.0484(6) 0.2038(4)
H44 H 0.9555 0.0483 0.1713
N16 N 0.9450(3) 0.0492(4) 0.2371(3)
Pd1A Pd 1.12703(3) 0.74174(4) 0.524425(19)
Pd2A Pd 1.13595(3) 0.05802(4) 0.28597(2)
Pd3A Pd 1.13674(3) 0.81085(4) 0.082408(19)
N1A N 1.1335(3) 0.6121(4) 0.29390(19)
C1A C 1.1382(3) 0.5636(4) 0.3331(2)
N2A N 1.1386(3) 0.4804(4) 0.3328(2)
N3A N 1.1350(3) 0.4432(4) 0.28923(19)
C2A C 1.1412(3) 0.4866(4) 0.2482(2)
H1A H 1.1163 0.4650 0.2198
H2A H 1.1772 0.4781 0.2443
N4A N 1.1320(3) 0.5734(4) 0.2523(2)
C3A C 1.1405(3) 0.6017(5) 0.4621(2)
H3A H 1.1436 0.5716 0.4905
C4A C 1.1314(3) 0.7281(5) 0.4229(2)
H4A H 1.1272 0.7854 0.4235
N5A N 1.1346(3) 0.6851(4) 0.4631(2)
C5A C 1.1423(3) 0.5597(5) 0.4202(3)
H5A H 1.1447 0.5021 0.4200
C6A C 1.1403(3) 0.6049(5) 0.3785(2)
C7A C 1.1344(3) 0.6896(5) 0.3797(2)
H6A H 1.1323 0.7212 0.3520
C8A C 1.1317(3) 0.3110(5) 0.3290(2)
H7A H 1.1313 0.3379 0.3578
C9A C 1.1303(3) 0.2263(5) 0.3266(3)
H8A H 1.1289 0.1971 0.3543
N6A N 1.1308(3) 0.1829(4) 0.2871(2)
C10A C 1.1326(3) 0.2278(5) 0.2471(3)
H9A H 1.1327 0.1991 0.2189
C11A C 1.1342(3) 0.3135(5) 0.2462(3)
H10A H 1.1357 0.3417 0.2181
C12A C 1.1336(3) 0.3565(5) 0.2883(2)
C13A C 1.1192(3) 0.7098(5) 0.2150(2)
H11A H 1.1118 0.7321 0.2427
C14A C 1.1300(3) 0.6247(4) 0.2126(2)
C15A C 1.1392(3) 0.5934(5) 0.1695(2)
H12A H 1.1453 0.5371 0.1660
C16A C 1.1388(3) 0.6491(5) 0.1318(2)
H13A H 1.1453 0.6289 0.1032
N7A N 1.1296(3) 0.7295(4) 0.13536(19)
C17A C 1.1194(3) 0.7605(5) 0.1759(2)
H14A H 1.1125 0.8169 0.1777
N8A N 1.2032(3) 0.7165(6) 0.5596(2)
H15A H 1.2071 0.6614 0.5643
H16A H 1.2254 0.7327 0.5413
C18A C 1.2172(4) 0.7578(8) 0.6046(3)
H17A H 1.2389 0.7206 0.6282
H18A H 1.2391 0.8055 0.6016
C19A C 1.1760(5) 0.7838(14) 0.6215(4)
H19A H 1.1864 0.8351 0.6390
H20A H 1.1700 0.7430 0.6447
N9A N 1.1255(3) 0.7980(6) 0.5869(2)
H21A H 1.1201 0.8529 0.5820
H22A H 1.0985 0.7774 0.5984
N10A N 1.2160(3) 0.0607(4) 0.3157(2)
H23A H 1.2322 0.0918 0.2972
H24A H 1.2224 0.0839 0.3452
C20A C 1.2381(4) -0.0261(6) 0.3196(4)
H25A H 1.2508 -0.0392 0.2911
H26A H 1.2680 -0.0306 0.3477
C21A C 1.1958(4) -0.0845(6) 0.3238(4)
H27A H 1.1873 -0.0778 0.3549
H28A H 1.2076 -0.1411 0.3214
N11A N 1.1476(3) -0.0668(4) 0.2841(3)
H29A H 1.1190 -0.0944 0.2890
H30A H 1.1531 -0.0821 0.2554
N12A N 1.2156(3) 0.8240(5) 0.1112(3)
H31A H 1.2217 0.8315 0.1434
H32A H 1.2329 0.7777 0.1059
C22A C 1.2356(5) 0.8952(8) 0.0895(5)
H33A H 1.2739 0.8902 0.0937
H34A H 1.2285 0.9459 0.1052
C23A C 1.2093(5) 0.8988(9) 0.0381(4)
H35A H 1.2211 0.8531 0.0211
H36A H 1.2179 0.9506 0.0243
N13A N 1.1504(3) 0.8931(6) 0.0337(3)
H37A H 1.1337 0.8766 0.0036
H38A H 1.1375 0.9432 0.0390
N14A N 1.0577(3) 0.7974(5) 0.0497(2)
C24A C 1.0419(5) 0.7288(8) 0.0265(4)
H39A H 1.0671 0.6888 0.0239
C25A C 0.9884(5) 0.7140(9) 0.0056(4)
H40A H 0.9786 0.6638 -0.0102
C26A C 0.9678(5) 0.8385(7) 0.0294(5)
H41A H 0.9430 0.8800 0.0305
C27A C 1.0221(5) 0.8533(7) 0.0517(5)
H42A H 1.0324 0.9032 0.0678
N15A N 1.0493(3) 0.7686(5) 0.4926(2)
C28A C 1.0286(4) 0.0477(6) 0.2173(4)
H43A H 1.0475 0.0461 0.1935
C29A C 1.0269(4) 0.0484(6) 0.2962(4)
H44A H 1.0445 0.0483 0.3287
N16A N 1.0550(3) 0.0492(4) 0.2629(3)
loop_
_geom_bond_atom_site_label_1
_geom_bond_atom_site_label_2
_geom_bond_site_symmetry_1
_geom_bond_site_symmetry_2
Pd1 N5 1_555 1_555
Pd2 N6 1_555 1_555
Pd3 N7 1_555 1_555
N1 C1 1_555 1_555
C1 N2 1_555 1_555
N2 N3 1_555 1_555
N3 C2 1_555 1_555
C2 H1 1_555 1_555
H2 C2 1_555 1_555
N4 N1 1_555 1_555
C3 H3 1_555 1_555
C4 H4 1_555 1_555
N5 C3 1_555 1_555
C5 C3 1_555 1_555
H5 C5 1_555 1_555
C6 C1 1_555 1_555
C7 C4 1_555 1_555
H6 C7 1_555 1_555
C8 H7 1_555 1_555
C9 C8 1_555 1_555
H8 C9 1_555 1_555
N6 C9 1_555 1_555
C10 N6 1_555 1_555
H9 C10 1_555 1_555
C11 C10 1_555 1_555
H10 C11 1_555 1_555
C12 N3 1_555 1_555
C13 H11 1_555 1_555
C14 N4 1_555 1_555
C15 C14 1_555 1_555
H12 C15 1_555 1_555
C16 C15 1_555 1_555
H13 C16 1_555 1_555
N7 C16 1_555 1_555
C17 C13 1_555 1_555
H14 C17 1_555 1_555
N8 Pd1 1_555 1_555
H15 N8 1_555 1_555
H16 N8 1_555 1_555
C18 N8 1_555 1_555
H17 C18 1_555 1_555
H18 C18 1_555 1_555
C19 C18 1_555 1_555
H19 C19 1_555 1_555
H20 C19 1_555 1_555
N9 Pd1 1_555 1_555
H21 N9 1_555 1_555
H22 N9 1_555 1_555
N10 Pd2 1_555 1_555
H23 N10 1_555 1_555
H24 N10 1_555 1_555
C20 N10 1_555 1_555
H25 C20 1_555 1_555
H26 C20 1_555 1_555
C21 C20 1_555 1_555
H27 C21 1_555 1_555
H28 C21 1_555 1_555
N11 Pd2 1_555 1_555
H29 N11 1_555 1_555
H30 N11 1_555 1_555
N12 Pd3 1_555 1_555
H31 N12 1_555 1_555
H32 N12 1_555 1_555
C22 N12 1_555 1_555
H33 C22 1_555 1_555
H34 C22 1_555 1_555
C23 C22 1_555 1_555
H35 C23 1_555 1_555
H36 C23 1_555 1_555
N13 Pd3 1_555 1_555
H37 N13 1_555 1_555
H38 N13 1_555 1_555
N14 Pd3 1_555 1_555
C24 N14 1_555 1_555
H39 C24 1_555 1_555
C25 C24 1_555 1_555
H40 C25 1_555 1_555
C26 H41 1_555 1_555
C27 N14 1_555 1_555
H42 C27 1_555 1_555
N15 Pd1 1_555 1_555
C28 H43 1_555 1_555
C29 H44 1_555 1_555
N16 Pd2 1_555 1_555
O1 N17 1_555 1_555
O2 N17 1_555 1_555
O3 N17 1_555 1_555
O4 N18 1_555 1_555
O5 N18 1_555 1_555
O6 N18 1_555 1_555
O13 N19 1_555 1_555
O14 N19 1_555 1_555
O15 N19 1_555 1_555
O18 N20 1_555 1_555
O19 N20 1_555 1_555
O20 N20 1_555 1_555
O29 N22 1_555 1_555
O30 N22 1_555 1_555
O31 N22 1_555 1_555
O35 N23 1_555 1_555
O36 N23 1_555 1_555
O37 N23 1_555 1_555
C30 C31 1_555 1_555
C31 C32 1_555 1_555
C32 C33 1_555 1_555
C33 C34 1_555 1_555
C34 C35 1_555 1_555
C35 C30 1_555 1_555
C36 C35 1_555 1_555
C37 C36 1_555 1_555
C38 C37 1_555 1_555
C39 C38 1_555 1_555
C40 C36 1_555 1_555
C41 C36 1_555 1_555
C42 C30 1_555 1_555
C43 C34 1_555 1_555
C44 C30 1_555 1_555
C45 C30 1_555 1_555
C46 C30 1_555 1_555
C47 C30 1_555 1_555
Pd1A N5A 1_555 1_555
Pd2A N6A 1_555 1_555
Pd3A N7A 1_555 1_555
N1A C1A 1_555 1_555
C1A N2A 1_555 1_555
N2A N3A 1_555 1_555
N3A C2A 1_555 1_555
C2A H1A 1_555 1_555
H2A C2A 1_555 1_555
N4A N1A 1_555 1_555
C3A H3A 1_555 1_555
C4A H4A 1_555 1_555
N5A C3A 1_555 1_555
C5A C3A 1_555 1_555
H5A C5A 1_555 1_555
C6A C1A 1_555 1_555
C7A C4A 1_555 1_555
H6A C7A 1_555 1_555
C8A H7A 1_555 1_555
C9A C8A 1_555 1_555
H8A C9A 1_555 1_555
N6A C9A 1_555 1_555
C10A N6A 1_555 1_555
H9A C10A 1_555 1_555
C11A C10A 1_555 1_555
H10A C11A 1_555 1_555
C12A N3A 1_555 1_555
C13A H11A 1_555 1_555
C14A N4A 1_555 1_555
C15A C14A 1_555 1_555
H12A C15A 1_555 1_555
C16A C15A 1_555 1_555
H13A C16A 1_555 1_555
N7A C16A 1_555 1_555
C17A C13A 1_555 1_555
H14A C17A 1_555 1_555
N8A Pd1A 1_555 1_555
H15A N8A 1_555 1_555
H16A N8A 1_555 1_555
C18A N8A 1_555 1_555
H17A C18A 1_555 1_555
H18A C18A 1_555 1_555
C19A C18A 1_555 1_555
H19A C19A 1_555 1_555
H20A C19A 1_555 1_555
N9A Pd1A 1_555 1_555
H21A N9A 1_555 1_555
H22A N9A 1_555 1_555
N10A Pd2A 1_555 1_555
H23A N10A 1_555 1_555
H24A N10A 1_555 1_555
C20A N10A 1_555 1_555
H25A C20A 1_555 1_555
H26A C20A 1_555 1_555
C21A C20A 1_555 1_555
H27A C21A 1_555 1_555
H28A C21A 1_555 1_555
N11A Pd2A 1_555 1_555
H29A N11A 1_555 1_555
H30A N11A 1_555 1_555
N12A Pd3A 1_555 1_555
H31A N12A 1_555 1_555
H32A N12A 1_555 1_555
C22A N12A 1_555 1_555
H33A C22A 1_555 1_555
H34A C22A 1_555 1_555
C23A C22A 1_555 1_555
H35A C23A 1_555 1_555
H36A C23A 1_555 1_555
N13A Pd3A 1_555 1_555
H37A N13A 1_555 1_555
H38A N13A 1_555 1_555
N14A Pd3A 1_555 1_555
C24A N14A 1_555 1_555
H39A C24A 1_555 1_555
C25A N15 1_555 1_555
H40A C25A 1_555 1_555
C26A N15 1_555 1_555
H41A C26A 1_555 1_555
C27A N14A 1_555 1_555
H42A C27A 1_555 1_555
N15A C25 1_555 1_555
C28A C29 1_555 1_555
H43A C28A 1_555 1_555
C29A C28 1_555 1_555
H44A C29A 1_555 1_555
N16A Pd2A 1_555 1_555
C30A C47 1_555 1_555
C31A C30A 1_555 1_555
C32A C31A 1_555 1_555
C33A C32A 1_555 1_555
C34A C33A 1_555 1_555
C35A C30A 1_555 1_555
C36A C41 1_555 1_555
C37A C36A 1_555 1_555
C38A C39 1_555 1_555
C40A C39 1_555 1_555
C42A C41 1_555 1_555
C43A C34A 1_555 1_555
C44A C30A 1_555 1_555
C45A C30A 1_555 1_555
C46A C47 1_555 1_555
C47A C30 1_555 1_555
C2 N4 1_555 1_555
C4 N5 1_555 1_555
C5 C6 1_555 1_555
C6 C7 1_555 1_555
C8 C12 1_555 1_555
C11 C12 1_555 1_555
C13 C14 1_555 1_555
N7 C17 1_555 1_555
C19 N9 1_555 1_555
C21 N11 1_555 1_555
C23 N13 1_555 1_555
C26 C27 1_555 1_555
C26 N15A 1_555 1_555
C28 N16 1_555 1_555
C29 N16 1_555 1_555
C31 C45 1_555 1_555
C31 C46 1_555 1_555
C32 C45 1_555 1_555
C33 C44 1_555 1_555
C34 C44 1_555 1_555
C35 C42 1_555 1_555
C35 C43 1_555 1_555
C35 C44 1_555 1_555
C36 C42 1_555 1_555
C36 C43 1_555 1_555
C37 C40 1_555 1_555
C38 C40 1_555 1_555
C39 C40 1_555 1_555
C40 C41 1_555 1_555
C40 C40A 1_555 1_555
C41 C42 1_555 1_555
C41 C40A 1_555 1_555
C42 C43 1_555 1_555
C42 C47 1_555 1_555
C42 C42A 1_555 1_555
C42 C47A 1_555 1_555
C43 C44 1_555 1_555
C44 C45 1_555 1_555
C45 C46 1_555 1_555
C46 C47 1_555 1_555
C46 C47A 1_555 1_555
C47 C42A 1_555 1_555
C47 C47A 1_555 1_555
Pd1A N15A 1_555 1_555
C2A N4A 1_555 1_555
C4A N5A 1_555 1_555
C5A C6A 1_555 1_555
C6A C7A 1_555 1_555
C8A C12A 1_555 1_555
C11A C12A 1_555 1_555
C13A C14A 1_555 1_555
N7A C17A 1_555 1_555
C19A N9A 1_555 1_555
C21A N11A 1_555 1_555
C23A N13A 1_555 1_555
C24A C25A 1_555 1_555
C26A C27A 1_555 1_555
C28A N16A 1_555 1_555
C29A N16A 1_555 1_555
C30A C42A 1_555 1_555
C30A C46A 1_555 1_555
C30A C47A 1_555 1_555
C31A C45A 1_555 1_555
C31A C46A 1_555 1_555
C32A C45A 1_555 1_555
C33A C44A 1_555 1_555
C34A C35A 1_555 1_555
C34A C44A 1_555 1_555
C35A C36A 1_555 1_555
C35A C42A 1_555 1_555
C35A C43A 1_555 1_555
C35A C44A 1_555 1_555
C36A C40A 1_555 1_555
C36A C42A 1_555 1_555
C36A C43A 1_555 1_555
C37A C38A 1_555 1_555
C37A C40A 1_555 1_555
C38A C40A 1_555 1_555
C42A C43A 1_555 1_555
C42A C47A 1_555 1_555
C43A C44A 1_555 1_555
C44A C45A 1_555 1_555
C45A C46A 1_555 1_555
C46A C47A 1_555 1_555

#END
