# generated using pymatgen
data_H56Pd3C46N24O43
_symmetry_space_group_name_H-M   'P 1'
_cell_length_a   16.10020000
_cell_length_b   25.79450000
_cell_length_c   28.53870000
_cell_angle_alpha   104.11200000
_cell_angle_beta   90.00000000
_cell_angle_gamma   90.00000000
_symmetry_Int_Tables_number   1
_chemical_formula_structural   H56Pd3C46N24O43
_chemical_formula_sum   'H448 Pd24 C368 N192 O344'
_cell_volume   11494.34272100
_cell_formula_units_Z   8
loop_
 _symmetry_equiv_pos_site_id
 _symmetry_equiv_pos_as_xyz
  1  'x, y, z'
loop_
 _atom_site_type_symbol
 _atom_site_label
 _atom_site_symmetry_multiplicity
 _atom_site_fract_x
 _atom_site_fract_y
 _atom_site_fract_z
 _atom_site_occupancy
  H  H1  1  0.306100  0.002800  0.798300  1
  H  H2  1  0.306100  0.997200  0.701700  1
  H  H3  1  0.806100  0.502800  0.798300  1
  H  H4  1  0.806100  0.497200  0.701700  1
  H  H5  1  0.693900  0.997200  0.201700  1
  H  H6  1  0.693900  0.002800  0.298300  1
  H  H7  1  0.193900  0.497200  0.201700  1
  H  H8  1  0.193900  0.502800  0.298300  1
  H  H9  1  0.294500  0.005800  0.880100  1
  H  H10  1  0.294500  0.994200  0.619900  1
  H  H11  1  0.794500  0.505800  0.880100  1
  H  H12  1  0.794500  0.494200  0.619900  1
  H  H13  1  0.705500  0.994200  0.119900  1
  H  H14  1  0.705500  0.005800  0.380100  1
  H  H15  1  0.205500  0.494200  0.119900  1
  H  H16  1  0.205500  0.505800  0.380100  1
  H  H17  1  0.414500  0.001700  0.924900  1
  H  H18  1  0.414500  0.998300  0.575100  1
  H  H19  1  0.914500  0.501700  0.924900  1
  H  H20  1  0.914500  0.498300  0.575100  1
  H  H21  1  0.585500  0.998300  0.075100  1
  H  H22  1  0.585500  0.001700  0.424900  1
  H  H23  1  0.085500  0.498300  0.075100  1
  H  H24  1  0.085500  0.501700  0.424900  1
  H  H25  1  0.542900  0.995800  0.888200  1
  H  H26  1  0.542900  0.004200  0.611800  1
  H  H27  1  0.042900  0.495800  0.888200  1
  H  H28  1  0.042900  0.504200  0.611800  1
  H  H29  1  0.457100  0.004200  0.111800  1
  H  H30  1  0.457100  0.995800  0.388200  1
  H  H31  1  0.957100  0.504200  0.111800  1
  H  H32  1  0.957100  0.495800  0.388200  1
  H  H33  1  0.656000  0.993900  0.854900  1
  H  H34  1  0.656000  0.006100  0.645100  1
  H  H35  1  0.156000  0.493900  0.854900  1
  H  H36  1  0.156000  0.506100  0.645100  1
  H  H37  1  0.344000  0.006100  0.145100  1
  H  H38  1  0.344000  0.993900  0.354900  1
  H  H39  1  0.844000  0.506100  0.145100  1
  H  H40  1  0.844000  0.493900  0.354900  1
  H  H41  1  0.780700  0.996800  0.816300  1
  H  H42  1  0.780700  0.003200  0.683700  1
  H  H43  1  0.280700  0.496800  0.816300  1
  H  H44  1  0.280700  0.503200  0.683700  1
  H  H45  1  0.219300  0.003200  0.183700  1
  H  H46  1  0.219300  0.996800  0.316300  1
  H  H47  1  0.719300  0.503200  0.183700  1
  H  H48  1  0.719300  0.496800  0.316300  1
  H  H49  1  0.784300  0.001100  0.734100  1
  H  H50  1  0.784300  0.998900  0.765900  1
  H  H51  1  0.284300  0.501100  0.734100  1
  H  H52  1  0.284300  0.498900  0.765900  1
  H  H53  1  0.215700  0.998900  0.265900  1
  H  H54  1  0.215700  0.001100  0.234100  1
  H  H55  1  0.715700  0.498900  0.265900  1
  H  H56  1  0.715700  0.501100  0.234100  1
  H  H57  1  0.659400  0.001800  0.694700  1
  H  H58  1  0.659400  0.998200  0.805300  1
  H  H59  1  0.159400  0.501800  0.694700  1
  H  H60  1  0.159400  0.498200  0.805300  1
  H  H61  1  0.340600  0.998200  0.305300  1
  H  H62  1  0.340600  0.001800  0.194700  1
  H  H63  1  0.840600  0.498200  0.305300  1
  H  H64  1  0.840600  0.501800  0.194700  1
  H  H65  1  0.572500  0.997900  0.661200  1
  H  H66  1  0.572500  0.002100  0.838800  1
  H  H67  1  0.072500  0.497900  0.661200  1
  H  H68  1  0.072500  0.502100  0.838800  1
  H  H69  1  0.427500  0.002100  0.338800  1
  H  H70  1  0.427500  0.997900  0.161200  1
  H  H71  1  0.927500  0.502100  0.338800  1
  H  H72  1  0.927500  0.497900  0.161200  1
  H  H73  1  0.453900  0.000500  0.615900  1
  H  H74  1  0.453900  0.999500  0.884100  1
  H  H75  1  0.953900  0.500500  0.615900  1
  H  H76  1  0.953900  0.499500  0.884100  1
  H  H77  1  0.546100  0.999500  0.384100  1
  H  H78  1  0.546100  0.000500  0.115900  1
  H  H79  1  0.046100  0.499500  0.384100  1
  H  H80  1  0.046100  0.500500  0.115900  1
  H  H81  1  0.323500  0.999100  0.651000  1
  H  H82  1  0.323500  0.000900  0.849000  1
  H  H83  1  0.823500  0.499100  0.651000  1
  H  H84  1  0.823500  0.500900  0.849000  1
  H  H85  1  0.676500  0.000900  0.349000  1
  H  H86  1  0.676500  0.999100  0.151000  1
  H  H87  1  0.176500  0.500900  0.349000  1
  H  H88  1  0.176500  0.499100  0.151000  1
  H  H89  1  0.314100  0.989300  0.729600  1
  H  H90  1  0.314100  0.010700  0.770400  1
  H  H91  1  0.814100  0.489300  0.729600  1
  H  H92  1  0.814100  0.510700  0.770400  1
  H  H93  1  0.685900  0.010700  0.270400  1
  H  H94  1  0.685900  0.989300  0.229600  1
  H  H95  1  0.185900  0.510700  0.270400  1
  H  H96  1  0.185900  0.489300  0.229600  1
  H  H97  1  0.535000  0.116300  0.719800  1.0
  H  H98  1  0.535000  0.883700  0.780200  1.0
  H  H99  1  0.035000  0.616300  0.719800  1.0
  H  H100  1  0.035000  0.383700  0.780200  1.0
  H  H101  1  0.465000  0.883700  0.280200  1.0
  H  H102  1  0.465000  0.116300  0.219800  1.0
  H  H103  1  0.965000  0.383700  0.280200  1.0
  H  H104  1  0.965000  0.616300  0.219800  1.0
  H  H105  1  0.521900  0.177200  0.744300  1.0
  H  H106  1  0.521900  0.822800  0.755700  1.0
  H  H107  1  0.021900  0.677200  0.744300  1.0
  H  H108  1  0.021900  0.322800  0.755700  1.0
  H  H109  1  0.478100  0.822800  0.255700  1.0
  H  H110  1  0.478100  0.177200  0.244300  1.0
  H  H111  1  0.978100  0.322800  0.255700  1.0
  H  H112  1  0.978100  0.677200  0.244300  1.0
  H  H113  1  0.428400  0.143600  0.990500  1.0
  H  H114  1  0.428400  0.856400  0.509500  1.0
  H  H115  1  0.928400  0.643600  0.990500  1.0
  H  H116  1  0.928400  0.356400  0.509500  1.0
  H  H117  1  0.571600  0.856400  0.009500  1.0
  H  H118  1  0.571600  0.143600  0.490500  1.0
  H  H119  1  0.071600  0.356400  0.009500  1.0
  H  H120  1  0.071600  0.643600  0.490500  1.0
  H  H121  1  0.214600  0.127200  0.923500  1.0
  H  H122  1  0.214600  0.872800  0.576500  1.0
  H  H123  1  0.714600  0.627200  0.923500  1.0
  H  H124  1  0.714600  0.372800  0.576500  1.0
  H  H125  1  0.785400  0.872800  0.076500  1.0
  H  H126  1  0.785400  0.127200  0.423500  1.0
  H  H127  1  0.285400  0.372800  0.076500  1.0
  H  H128  1  0.285400  0.627200  0.423500  1.0
  H  H129  1  0.497900  0.144700  0.920000  1.0
  H  H130  1  0.497900  0.855300  0.580000  1.0
  H  H131  1  0.997900  0.644700  0.920000  1.0
  H  H132  1  0.997900  0.355300  0.580000  1.0
  H  H133  1  0.502100  0.855300  0.080000  1.0
  H  H134  1  0.502100  0.144700  0.420000  1.0
  H  H135  1  0.002100  0.355300  0.080000  1.0
  H  H136  1  0.002100  0.644700  0.420000  1.0
  H  H137  1  0.278800  0.132300  0.852000  1.0
  H  H138  1  0.278800  0.867700  0.648000  1.0
  H  H139  1  0.778800  0.632300  0.852000  1.0
  H  H140  1  0.778800  0.367700  0.648000  1.0
  H  H141  1  0.721200  0.867700  0.148000  1.0
  H  H142  1  0.721200  0.132300  0.352000  1.0
  H  H143  1  0.221200  0.367700  0.148000  1.0
  H  H144  1  0.221200  0.632300  0.352000  1.0
  H  H145  1  0.662100  0.131300  0.857800  1.0
  H  H146  1  0.662100  0.868700  0.642200  1.0
  H  H147  1  0.162100  0.631300  0.857800  1.0
  H  H148  1  0.162100  0.368700  0.642200  1.0
  H  H149  1  0.337900  0.868700  0.142200  1.0
  H  H150  1  0.337900  0.131300  0.357800  1.0
  H  H151  1  0.837900  0.368700  0.142200  1.0
  H  H152  1  0.837900  0.631300  0.357800  1.0
  H  H153  1  0.802900  0.128900  0.854300  1.0
  H  H154  1  0.802900  0.871100  0.645700  1.0
  H  H155  1  0.302900  0.628900  0.854300  1.0
  H  H156  1  0.302900  0.371100  0.645700  1.0
  H  H157  1  0.197100  0.871100  0.145700  1.0
  H  H158  1  0.197100  0.128900  0.354300  1.0
  H  H159  1  0.697100  0.371100  0.145700  1.0
  H  H160  1  0.697100  0.628900  0.354300  1.0
  H  H161  1  0.800900  0.132700  0.718900  1.0
  H  H162  1  0.800900  0.867300  0.781100  1.0
  H  H163  1  0.300900  0.632700  0.718900  1.0
  H  H164  1  0.300900  0.367300  0.781100  1.0
  H  H165  1  0.199100  0.867300  0.281100  1.0
  H  H166  1  0.199100  0.132700  0.218900  1.0
  H  H167  1  0.699100  0.367300  0.281100  1.0
  H  H168  1  0.699100  0.632700  0.218900  1.0
  H  H169  1  0.658300  0.135700  0.718100  1.0
  H  H170  1  0.658300  0.864300  0.781900  1.0
  H  H171  1  0.158300  0.635700  0.718100  1.0
  H  H172  1  0.158300  0.364300  0.781900  1.0
  H  H173  1  0.341700  0.864300  0.281900  1.0
  H  H174  1  0.341700  0.135700  0.218100  1.0
  H  H175  1  0.841700  0.364300  0.281900  1.0
  H  H176  1  0.841700  0.635700  0.218100  1.0
  H  H177  1  0.267900  0.111800  0.742700  1.0
  H  H178  1  0.267900  0.888200  0.757300  1.0
  H  H179  1  0.767900  0.611800  0.742700  1.0
  H  H180  1  0.767900  0.388200  0.757300  1.0
  H  H181  1  0.732100  0.888200  0.257300  1.0
  H  H182  1  0.732100  0.111800  0.242700  1.0
  H  H183  1  0.232100  0.388200  0.257300  1.0
  H  H184  1  0.232100  0.611800  0.242700  1.0
  H  H185  1  0.462900  0.145300  0.666000  1.0
  H  H186  1  0.462900  0.854700  0.834000  1.0
  H  H187  1  0.962900  0.645300  0.666000  1.0
  H  H188  1  0.962900  0.354700  0.834000  1.0
  H  H189  1  0.537100  0.854700  0.334000  1.0
  H  H190  1  0.537100  0.145300  0.166000  1.0
  H  H191  1  0.037100  0.354700  0.334000  1.0
  H  H192  1  0.037100  0.645300  0.166000  1.0
  H  H193  1  0.371100  0.145300  0.603200  1.0
  H  H194  1  0.371100  0.854700  0.896800  1.0
  H  H195  1  0.871100  0.645300  0.603200  1.0
  H  H196  1  0.871100  0.354700  0.896800  1.0
  H  H197  1  0.628900  0.854700  0.396800  1.0
  H  H198  1  0.628900  0.145300  0.103200  1.0
  H  H199  1  0.128900  0.354700  0.396800  1.0
  H  H200  1  0.128900  0.645300  0.103200  1.0
  H  H201  1  0.183100  0.112500  0.677700  1.0
  H  H202  1  0.183100  0.887500  0.822300  1.0
  H  H203  1  0.683100  0.612500  0.677700  1.0
  H  H204  1  0.683100  0.387500  0.822300  1.0
  H  H205  1  0.816900  0.887500  0.322300  1.0
  H  H206  1  0.816900  0.112500  0.177700  1.0
  H  H207  1  0.316900  0.387500  0.322300  1.0
  H  H208  1  0.316900  0.612500  0.177700  1.0
  H  H209  1  0.338600  0.207100  0.064300  1.0
  H  H210  1  0.338600  0.792900  0.435700  1.0
  H  H211  1  0.838600  0.707100  0.064300  1.0
  H  H212  1  0.838600  0.292900  0.435700  1.0
  H  H213  1  0.661400  0.792900  0.935700  1.0
  H  H214  1  0.661400  0.207100  0.564300  1.0
  H  H215  1  0.161400  0.292900  0.935700  1.0
  H  H216  1  0.161400  0.707100  0.564300  1.0
  H  H217  1  0.267300  0.225400  0.041300  1.0
  H  H218  1  0.267300  0.774600  0.458700  1.0
  H  H219  1  0.767300  0.725400  0.041300  1.0
  H  H220  1  0.767300  0.274600  0.458700  1.0
  H  H221  1  0.732700  0.774600  0.958700  1.0
  H  H222  1  0.732700  0.225400  0.541300  1.0
  H  H223  1  0.232700  0.274600  0.958700  1.0
  H  H224  1  0.232700  0.725400  0.541300  1.0
  H  H225  1  0.279400  0.238900  0.128200  1.0
  H  H226  1  0.279400  0.761100  0.371800  1.0
  H  H227  1  0.779400  0.738900  0.128200  1.0
  H  H228  1  0.779400  0.261100  0.371800  1.0
  H  H229  1  0.720600  0.761100  0.871800  1.0
  H  H230  1  0.720600  0.238900  0.628200  1.0
  H  H231  1  0.220600  0.261100  0.871800  1.0
  H  H232  1  0.220600  0.738900  0.628200  1.0
  H  H233  1  0.194500  0.239100  0.101600  1.0
  H  H234  1  0.194500  0.760900  0.398400  1.0
  H  H235  1  0.694500  0.739100  0.101600  1.0
  H  H236  1  0.694500  0.260900  0.398400  1.0
  H  H237  1  0.805500  0.760900  0.898400  1.0
  H  H238  1  0.805500  0.239100  0.601600  1.0
  H  H239  1  0.305500  0.260900  0.898400  1.0
  H  H240  1  0.305500  0.739100  0.601600  1.0
  H  H241  1  0.164900  0.186400  0.139000  1.0
  H  H242  1  0.164900  0.813600  0.361000  1.0
  H  H243  1  0.664900  0.686400  0.139000  1.0
  H  H244  1  0.664900  0.313600  0.361000  1.0
  H  H245  1  0.835100  0.813600  0.861000  1.0
  H  H246  1  0.835100  0.186400  0.639000  1.0
  H  H247  1  0.335100  0.313600  0.861000  1.0
  H  H248  1  0.335100  0.686400  0.639000  1.0
  H  H249  1  0.257000  0.170000  0.144700  1.0
  H  H250  1  0.257000  0.830000  0.355300  1.0
  H  H251  1  0.757000  0.670000  0.144700  1.0
  H  H252  1  0.757000  0.330000  0.355300  1.0
  H  H253  1  0.743000  0.830000  0.855300  1.0
  H  H254  1  0.743000  0.170000  0.644700  1.0
  H  H255  1  0.243000  0.330000  0.855300  1.0
  H  H256  1  0.243000  0.670000  0.644700  1.0
  H  H257  1  0.147100  0.120100  0.082000  1.0
  H  H258  1  0.147100  0.879900  0.418000  1.0
  H  H259  1  0.647100  0.620100  0.082000  1.0
  H  H260  1  0.647100  0.379900  0.418000  1.0
  H  H261  1  0.852900  0.879900  0.918000  1.0
  H  H262  1  0.852900  0.120100  0.582000  1.0
  H  H263  1  0.352900  0.379900  0.918000  1.0
  H  H264  1  0.352900  0.620100  0.582000  1.0
  H  H265  1  0.222600  0.098500  0.098400  1.0
  H  H266  1  0.222600  0.901500  0.401600  1.0
  H  H267  1  0.722600  0.598500  0.098400  1.0
  H  H268  1  0.722600  0.401500  0.401600  1.0
  H  H269  1  0.777400  0.901500  0.901600  1.0
  H  H270  1  0.777400  0.098500  0.598400  1.0
  H  H271  1  0.277400  0.401500  0.901600  1.0
  H  H272  1  0.277400  0.598500  0.598400  1.0
  H  H273  1  0.908200  0.232200  0.797200  1.0
  H  H274  1  0.908200  0.767800  0.702800  1.0
  H  H275  1  0.408200  0.732200  0.797200  1.0
  H  H276  1  0.408200  0.267800  0.702800  1.0
  H  H277  1  0.091800  0.767800  0.202800  1.0
  H  H278  1  0.091800  0.232200  0.297200  1.0
  H  H279  1  0.591800  0.267800  0.202800  1.0
  H  H280  1  0.591800  0.732200  0.297200  1.0
  H  H281  1  0.916100  0.222400  0.845200  1.0
  H  H282  1  0.916100  0.777600  0.654800  1.0
  H  H283  1  0.416100  0.722400  0.845200  1.0
  H  H284  1  0.416100  0.277600  0.654800  1.0
  H  H285  1  0.083900  0.777600  0.154800  1.0
  H  H286  1  0.083900  0.222400  0.345200  1.0
  H  H287  1  0.583900  0.277600  0.154800  1.0
  H  H288  1  0.583900  0.722400  0.345200  1.0
  H  H289  1  0.039200  0.250800  0.791100  1.0
  H  H290  1  0.039200  0.749200  0.708900  1.0
  H  H291  1  0.539200  0.750800  0.791100  1.0
  H  H292  1  0.539200  0.249200  0.708900  1.0
  H  H293  1  0.960800  0.749200  0.208900  1.0
  H  H294  1  0.960800  0.250800  0.291100  1.0
  H  H295  1  0.460800  0.249200  0.208900  1.0
  H  H296  1  0.460800  0.750800  0.291100  1.0
  H  H297  1  0.030600  0.268000  0.847700  1.0
  H  H298  1  0.030600  0.732000  0.652300  1.0
  H  H299  1  0.530600  0.768000  0.847700  1.0
  H  H300  1  0.530600  0.232000  0.652300  1.0
  H  H301  1  0.969400  0.732000  0.152300  1.0
  H  H302  1  0.969400  0.268000  0.347700  1.0
  H  H303  1  0.469400  0.232000  0.152300  1.0
  H  H304  1  0.469400  0.768000  0.347700  1.0
  H  H305  1  0.077800  0.187300  0.854900  1.0
  H  H306  1  0.077800  0.812700  0.645100  1.0
  H  H307  1  0.577800  0.687300  0.854900  1.0
  H  H308  1  0.577800  0.312700  0.645100  1.0
  H  H309  1  0.922200  0.812700  0.145100  1.0
  H  H310  1  0.922200  0.187300  0.354900  1.0
  H  H311  1  0.422200  0.312700  0.145100  1.0
  H  H312  1  0.422200  0.687300  0.354900  1.0
  H  H313  1  0.141100  0.207600  0.821400  1.0
  H  H314  1  0.141100  0.792400  0.678600  1.0
  H  H315  1  0.641100  0.707600  0.821400  1.0
  H  H316  1  0.641100  0.292400  0.678600  1.0
  H  H317  1  0.858900  0.792400  0.178600  1.0
  H  H318  1  0.858900  0.207600  0.321400  1.0
  H  H319  1  0.358900  0.292400  0.178600  1.0
  H  H320  1  0.358900  0.707600  0.321400  1.0
  H  H321  1  0.094400  0.119000  0.789000  1.0
  H  H322  1  0.094400  0.881000  0.711000  1.0
  H  H323  1  0.594400  0.619000  0.789000  1.0
  H  H324  1  0.594400  0.381000  0.711000  1.0
  H  H325  1  0.905600  0.881000  0.211000  1.0
  H  H326  1  0.905600  0.119000  0.289000  1.0
  H  H327  1  0.405600  0.381000  0.211000  1.0
  H  H328  1  0.405600  0.619000  0.289000  1.0
  H  H329  1  0.082100  0.153100  0.755400  1.0
  H  H330  1  0.082100  0.846900  0.744600  1.0
  H  H331  1  0.582100  0.653100  0.755400  1.0
  H  H332  1  0.582100  0.346900  0.744600  1.0
  H  H333  1  0.917900  0.846900  0.244600  1.0
  H  H334  1  0.917900  0.153100  0.255400  1.0
  H  H335  1  0.417900  0.346900  0.244600  1.0
  H  H336  1  0.417900  0.653100  0.255400  1.0
  H  H337  1  0.168500  0.221700  0.643400  1.0
  H  H338  1  0.168500  0.778300  0.856600  1.0
  H  H339  1  0.668500  0.721700  0.643400  1.0
  H  H340  1  0.668500  0.278300  0.856600  1.0
  H  H341  1  0.831500  0.778300  0.356600  1.0
  H  H342  1  0.831500  0.221700  0.143400  1.0
  H  H343  1  0.331500  0.278300  0.356600  1.0
  H  H344  1  0.331500  0.721700  0.143400  1.0
  H  H345  1  0.222300  0.232900  0.605900  1.0
  H  H346  1  0.222300  0.767100  0.894100  1.0
  H  H347  1  0.722300  0.732900  0.605900  1.0
  H  H348  1  0.722300  0.267100  0.894100  1.0
  H  H349  1  0.777700  0.767100  0.394100  1.0
  H  H350  1  0.777700  0.232900  0.105900  1.0
  H  H351  1  0.277700  0.267100  0.394100  1.0
  H  H352  1  0.277700  0.732900  0.105900  1.0
  H  H353  1  0.109800  0.273900  0.593700  1.0
  H  H354  1  0.109800  0.726100  0.906300  1.0
  H  H355  1  0.609800  0.773900  0.593700  1.0
  H  H356  1  0.609800  0.226100  0.906300  1.0
  H  H357  1  0.890200  0.726100  0.406300  1.0
  H  H358  1  0.890200  0.273900  0.093700  1.0
  H  H359  1  0.390200  0.226100  0.406300  1.0
  H  H360  1  0.390200  0.773900  0.093700  1.0
  H  H361  1  0.054100  0.228500  0.605200  1.0
  H  H362  1  0.054100  0.771500  0.894800  1.0
  H  H363  1  0.554100  0.728500  0.605200  1.0
  H  H364  1  0.554100  0.271500  0.894800  1.0
  H  H365  1  0.945900  0.771500  0.394800  1.0
  H  H366  1  0.945900  0.228500  0.105200  1.0
  H  H367  1  0.445900  0.271500  0.394800  1.0
  H  H368  1  0.445900  0.728500  0.105200  1.0
  H  H369  1  0.146900  0.221100  0.521100  1.0
  H  H370  1  0.146900  0.778900  0.978900  1.0
  H  H371  1  0.646900  0.721100  0.521100  1.0
  H  H372  1  0.646900  0.278900  0.978900  1.0
  H  H373  1  0.853100  0.778900  0.478900  1.0
  H  H374  1  0.853100  0.221100  0.021100  1.0
  H  H375  1  0.353100  0.278900  0.478900  1.0
  H  H376  1  0.353100  0.721100  0.021100  1.0
  H  H377  1  0.049400  0.217900  0.524300  1.0
  H  H378  1  0.049400  0.782100  0.975700  1.0
  H  H379  1  0.549400  0.717900  0.524300  1.0
  H  H380  1  0.549400  0.282100  0.975700  1.0
  H  H381  1  0.950600  0.782100  0.475700  1.0
  H  H382  1  0.950600  0.217900  0.024300  1.0
  H  H383  1  0.450600  0.282100  0.475700  1.0
  H  H384  1  0.450600  0.717900  0.024300  1.0
  H  H385  1  0.123400  0.133700  0.503600  1.0
  H  H386  1  0.123400  0.866300  0.996400  1.0
  H  H387  1  0.623400  0.633700  0.503600  1.0
  H  H388  1  0.623400  0.366300  0.996400  1.0
  H  H389  1  0.876600  0.866300  0.496400  1.0
  H  H390  1  0.876600  0.133700  0.003600  1.0
  H  H391  1  0.376600  0.366300  0.496400  1.0
  H  H392  1  0.376600  0.633700  0.003600  1.0
  H  H393  1  0.056800  0.137500  0.539000  1.0
  H  H394  1  0.056800  0.862500  0.961000  1.0
  H  H395  1  0.556800  0.637500  0.539000  1.0
  H  H396  1  0.556800  0.362500  0.961000  1.0
  H  H397  1  0.943200  0.862500  0.461000  1.0
  H  H398  1  0.943200  0.137500  0.039000  1.0
  H  H399  1  0.443200  0.362500  0.461000  1.0
  H  H400  1  0.443200  0.637500  0.039000  1.0
  H  H401  1  0.311200  0.067100  0.523900  1.0
  H  H402  1  0.311200  0.932900  0.976100  1.0
  H  H403  1  0.811200  0.567100  0.523900  1.0
  H  H404  1  0.811200  0.432900  0.976100  1.0
  H  H405  1  0.688800  0.932900  0.476100  1.0
  H  H406  1  0.688800  0.067100  0.023900  1.0
  H  H407  1  0.188800  0.432900  0.476100  1.0
  H  H408  1  0.188800  0.567100  0.023900  1.0
  H  H409  1  0.336200  0.978600  0.489800  1.0
  H  H410  1  0.336200  0.021400  0.010200  1.0
  H  H411  1  0.836200  0.478600  0.489800  1.0
  H  H412  1  0.836200  0.521400  0.010200  1.0
  H  H413  1  0.663800  0.021400  0.510200  1.0
  H  H414  1  0.663800  0.978600  0.989800  1.0
  H  H415  1  0.163800  0.521400  0.510200  1.0
  H  H416  1  0.163800  0.478600  0.989800  1.0
  H  H417  1  0.120000  0.943000  0.530500  1.0
  H  H418  1  0.120000  0.057000  0.969500  1.0
  H  H419  1  0.620000  0.443000  0.530500  1.0
  H  H420  1  0.620000  0.557000  0.969500  1.0
  H  H421  1  0.880000  0.057000  0.469500  1.0
  H  H422  1  0.880000  0.943000  0.030500  1.0
  H  H423  1  0.380000  0.557000  0.469500  1.0
  H  H424  1  0.380000  0.443000  0.030500  1.0
  H  H425  1  0.096800  0.032400  0.567800  1.0
  H  H426  1  0.096800  0.967600  0.932200  1.0
  H  H427  1  0.596800  0.532400  0.567800  1.0
  H  H428  1  0.596800  0.467600  0.932200  1.0
  H  H429  1  0.903200  0.967600  0.432200  1.0
  H  H430  1  0.903200  0.032400  0.067800  1.0
  H  H431  1  0.403200  0.467600  0.432200  1.0
  H  H432  1  0.403200  0.532400  0.067800  1.0
  H  H433  1  0.953900  0.047500  0.693500  1.0
  H  H434  1  0.953900  0.952500  0.806500  1.0
  H  H435  1  0.453900  0.547500  0.693500  1.0
  H  H436  1  0.453900  0.452500  0.806500  1.0
  H  H437  1  0.046100  0.952500  0.306500  1.0
  H  H438  1  0.046100  0.047500  0.193500  1.0
  H  H439  1  0.546100  0.452500  0.306500  1.0
  H  H440  1  0.546100  0.547500  0.193500  1.0
  H  H441  1  0.951700  0.044500  0.828700  1.0
  H  H442  1  0.951700  0.955500  0.671300  1.0
  H  H443  1  0.451700  0.544500  0.828700  1.0
  H  H444  1  0.451700  0.455500  0.671300  1.0
  H  H445  1  0.048300  0.955500  0.171300  1.0
  H  H446  1  0.048300  0.044500  0.328700  1.0
  H  H447  1  0.548300  0.455500  0.171300  1.0
  H  H448  1  0.548300  0.544500  0.328700  1.0
  Pd  Pd449  1  0.258260  0.127030  0.024425  1.0
  Pd  Pd450  1  0.258260  0.872970  0.475575  1.0
  Pd  Pd451  1  0.758260  0.627030  0.024425  1.0
  Pd  Pd452  1  0.758260  0.372970  0.475575  1.0
  Pd  Pd453  1  0.741740  0.872970  0.975575  1.0
  Pd  Pd454  1  0.741740  0.127030  0.524425  1.0
  Pd  Pd455  1  0.241740  0.372970  0.975575  1.0
  Pd  Pd456  1  0.241740  0.627030  0.524425  1.0
  Pd  Pd457  1  0.941980  0.135950  0.785970  1.0
  Pd  Pd458  1  0.941980  0.864050  0.714030  1.0
  Pd  Pd459  1  0.441980  0.635950  0.785970  1.0
  Pd  Pd460  1  0.441980  0.364050  0.714030  1.0
  Pd  Pd461  1  0.058020  0.864050  0.214030  1.0
  Pd  Pd462  1  0.058020  0.135950  0.285970  1.0
  Pd  Pd463  1  0.558020  0.364050  0.214030  1.0
  Pd  Pd464  1  0.558020  0.635950  0.285970  1.0
  Pd  Pd465  1  0.189150  0.136740  0.582408  1.0
  Pd  Pd466  1  0.189150  0.863260  0.917592  1.0
  Pd  Pd467  1  0.689150  0.636740  0.582408  1.0
  Pd  Pd468  1  0.689150  0.363260  0.917592  1.0
  Pd  Pd469  1  0.810850  0.863260  0.417592  1.0
  Pd  Pd470  1  0.810850  0.136740  0.082408  1.0
  Pd  Pd471  1  0.310850  0.363260  0.417592  1.0
  Pd  Pd472  1  0.310850  0.636740  0.082408  1.0
  C  C473  1  0.734100  0.000000  0.750000  1
  C  C474  1  0.234100  0.500000  0.750000  1
  C  C475  1  0.265900  1.000000  0.250000  1
  C  C476  1  0.765900  0.500000  0.250000  1
  C  C477  1  0.585100  0.000000  0.750000  1
  C  C478  1  0.085100  0.500000  0.750000  1
  C  C479  1  0.414900  0.000000  0.250000  1
  C  C480  1  0.914900  0.500000  0.250000  1
  C  C481  1  0.431500  0.000900  0.794900  1.0
  C  C482  1  0.431500  0.999100  0.705100  1.0
  C  C483  1  0.931500  0.500900  0.794900  1.0
  C  C484  1  0.931500  0.499100  0.705100  1.0
  C  C485  1  0.568500  0.999100  0.205100  1.0
  C  C486  1  0.568500  0.000900  0.294900  1.0
  C  C487  1  0.068500  0.499100  0.205100  1.0
  C  C488  1  0.068500  0.500900  0.294900  1.0
  C  C489  1  0.353800  0.002500  0.816700  1.0
  C  C490  1  0.353800  0.997500  0.683300  1.0
  C  C491  1  0.853800  0.502500  0.816700  1.0
  C  C492  1  0.853800  0.497500  0.683300  1.0
  C  C493  1  0.646200  0.997500  0.183300  1.0
  C  C494  1  0.646200  0.002500  0.316700  1.0
  C  C495  1  0.146200  0.497500  0.183300  1.0
  C  C496  1  0.146200  0.502500  0.316700  1.0
  C  C497  1  0.346500  0.003600  0.865500  1.0
  C  C498  1  0.346500  0.996400  0.634500  1.0
  C  C499  1  0.846500  0.503600  0.865500  1.0
  C  C500  1  0.846500  0.496400  0.634500  1.0
  C  C501  1  0.653500  0.996400  0.134500  1.0
  C  C502  1  0.653500  0.003600  0.365500  1.0
  C  C503  1  0.153500  0.496400  0.134500  1.0
  C  C504  1  0.153500  0.503600  0.365500  1.0
  C  C505  1  0.418400  0.001300  0.892300  1.0
  C  C506  1  0.418400  0.998700  0.607700  1.0
  C  C507  1  0.918400  0.501300  0.892300  1.0
  C  C508  1  0.918400  0.498700  0.607700  1.0
  C  C509  1  0.581600  0.998700  0.107700  1.0
  C  C510  1  0.581600  0.001300  0.392300  1.0
  C  C511  1  0.081600  0.498700  0.107700  1.0
  C  C512  1  0.081600  0.501300  0.392300  1.0
  C  C513  1  0.495400  0.998500  0.870300  1.0
  C  C514  1  0.495400  0.001500  0.629700  1.0
  C  C515  1  0.995400  0.498500  0.870300  1.0
  C  C516  1  0.995400  0.501500  0.629700  1.0
  C  C517  1  0.504600  0.001500  0.129700  1.0
  C  C518  1  0.504600  0.998500  0.370300  1.0
  C  C519  1  0.004600  0.501500  0.129700  1.0
  C  C520  1  0.004600  0.498500  0.370300  1.0
  C  C521  1  0.503300  0.999500  0.821500  1.0
  C  C522  1  0.503300  0.000500  0.678500  1.0
  C  C523  1  0.003300  0.499500  0.821500  1.0
  C  C524  1  0.003300  0.500500  0.678500  1.0
  C  C525  1  0.496700  0.000500  0.178500  1.0
  C  C526  1  0.496700  0.999500  0.321500  1.0
  C  C527  1  0.996700  0.500500  0.178500  1.0
  C  C528  1  0.996700  0.499500  0.321500  1.0
  C  C529  1  0.581400  0.998300  0.798800  1.0
  C  C530  1  0.581400  0.001700  0.701200  1.0
  C  C531  1  0.081400  0.498300  0.798800  1.0
  C  C532  1  0.081400  0.501700  0.701200  1.0
  C  C533  1  0.418600  0.001700  0.201200  1.0
  C  C534  1  0.418600  0.998300  0.298800  1.0
  C  C535  1  0.918600  0.501700  0.201200  1.0
  C  C536  1  0.918600  0.498300  0.298800  1.0
  C  C537  1  0.656400  0.996200  0.822900  1.0
  C  C538  1  0.656400  0.003800  0.677100  1.0
  C  C539  1  0.156400  0.496200  0.822900  1.0
  C  C540  1  0.156400  0.503800  0.677100  1.0
  C  C541  1  0.343600  0.003800  0.177100  1.0
  C  C542  1  0.343600  0.996200  0.322900  1.0
  C  C543  1  0.843600  0.503800  0.177100  1.0
  C  C544  1  0.843600  0.496200  0.322900  1.0
  C  C545  1  0.731300  0.997500  0.799600  1.0
  C  C546  1  0.731300  0.002500  0.700400  1.0
  C  C547  1  0.231300  0.497500  0.799600  1.0
  C  C548  1  0.231300  0.502500  0.700400  1.0
  C  C549  1  0.268700  0.002500  0.200400  1.0
  C  C550  1  0.268700  0.997500  0.299600  1.0
  C  C551  1  0.768700  0.502500  0.200400  1.0
  C  C552  1  0.768700  0.497500  0.299600  1.0
  C  C553  1  0.659400  0.999300  0.773000  1.0
  C  C554  1  0.659400  0.000700  0.727000  1.0
  C  C555  1  0.159400  0.499300  0.773000  1.0
  C  C556  1  0.159400  0.500700  0.727000  1.0
  C  C557  1  0.340600  0.000700  0.227000  1.0
  C  C558  1  0.340600  0.999300  0.273000  1.0
  C  C559  1  0.840600  0.500700  0.227000  1.0
  C  C560  1  0.840600  0.499300  0.273000  1.0
  C  C561  1  0.513900  0.000600  0.776000  1.0
  C  C562  1  0.513900  0.999400  0.724000  1.0
  C  C563  1  0.013900  0.500600  0.776000  1.0
  C  C564  1  0.013900  0.499400  0.724000  1.0
  C  C565  1  0.486100  0.999400  0.224000  1.0
  C  C566  1  0.486100  0.000600  0.276000  1.0
  C  C567  1  0.986100  0.499400  0.224000  1.0
  C  C568  1  0.986100  0.500600  0.276000  1.0
  C  C569  1  0.520400  0.001300  0.824600  1.0
  C  C570  1  0.520400  0.998700  0.675400  1.0
  C  C571  1  0.020400  0.501300  0.824600  1.0
  C  C572  1  0.020400  0.498700  0.675400  1.0
  C  C573  1  0.479600  0.998700  0.175400  1.0
  C  C574  1  0.479600  0.001300  0.324600  1.0
  C  C575  1  0.979600  0.498700  0.175400  1.0
  C  C576  1  0.979600  0.501300  0.324600  1.0
  C  C577  1  0.449500  0.000700  0.851900  1.0
  C  C578  1  0.449500  0.999300  0.648100  1.0
  C  C579  1  0.949500  0.500700  0.851900  1.0
  C  C580  1  0.949500  0.499300  0.648100  1.0
  C  C581  1  0.550500  0.999300  0.148100  1.0
  C  C582  1  0.550500  0.000700  0.351900  1.0
  C  C583  1  0.050500  0.499300  0.148100  1.0
  C  C584  1  0.050500  0.500700  0.351900  1.0
  C  C585  1  0.371400  0.002000  0.831000  1.0
  C  C586  1  0.371400  0.998000  0.669000  1.0
  C  C587  1  0.871400  0.502000  0.831000  1.0
  C  C588  1  0.871400  0.498000  0.669000  1.0
  C  C589  1  0.628600  0.998000  0.169000  1.0
  C  C590  1  0.628600  0.002000  0.331000  1.0
  C  C591  1  0.128600  0.498000  0.169000  1.0
  C  C592  1  0.128600  0.502000  0.331000  1.0
  C  C593  1  0.365600  0.005200  0.783200  1.0
  C  C594  1  0.365600  0.994800  0.716800  1.0
  C  C595  1  0.865600  0.505200  0.783200  1.0
  C  C596  1  0.865600  0.494800  0.716800  1.0
  C  C597  1  0.634400  0.994800  0.216800  1.0
  C  C598  1  0.634400  0.005200  0.283200  1.0
  C  C599  1  0.134400  0.494800  0.216800  1.0
  C  C600  1  0.134400  0.505200  0.283200  1.0
  C  C601  1  0.436400  0.000000  0.745800  1.0
  C  C602  1  0.436400  0.000000  0.754200  1.0
  C  C603  1  0.936400  0.500000  0.745800  1.0
  C  C604  1  0.936400  0.500000  0.754200  1.0
  C  C605  1  0.563600  0.000000  0.254200  1.0
  C  C606  1  0.563600  0.000000  0.245800  1.0
  C  C607  1  0.063600  0.500000  0.254200  1.0
  C  C608  1  0.063600  0.500000  0.245800  1.0
  C  C609  1  0.436400  0.138200  0.833100  1.0
  C  C610  1  0.436400  0.861800  0.666900  1.0
  C  C611  1  0.936400  0.638200  0.833100  1.0
  C  C612  1  0.936400  0.361800  0.666900  1.0
  C  C613  1  0.563600  0.861800  0.166900  1.0
  C  C614  1  0.563600  0.138200  0.333100  1.0
  C  C615  1  0.063600  0.361800  0.166900  1.0
  C  C616  1  0.063600  0.638200  0.333100  1.0
  C  C617  1  0.513400  0.141200  0.748200  1.0
  C  C618  1  0.513400  0.858800  0.751800  1.0
  C  C619  1  0.013400  0.641200  0.748200  1.0
  C  C620  1  0.013400  0.358800  0.751800  1.0
  C  C621  1  0.486600  0.858800  0.251800  1.0
  C  C622  1  0.486600  0.141200  0.248200  1.0
  C  C623  1  0.986600  0.358800  0.251800  1.0
  C  C624  1  0.986600  0.641200  0.248200  1.0
  C  C625  1  0.398300  0.140500  0.962100  1.0
  C  C626  1  0.398300  0.859500  0.537900  1.0
  C  C627  1  0.898300  0.640500  0.962100  1.0
  C  C628  1  0.898300  0.359500  0.537900  1.0
  C  C629  1  0.601700  0.859500  0.037900  1.0
  C  C630  1  0.601700  0.140500  0.462100  1.0
  C  C631  1  0.101700  0.359500  0.037900  1.0
  C  C632  1  0.101700  0.640500  0.462100  1.0
  C  C633  1  0.271900  0.131400  0.922900  1.0
  C  C634  1  0.271900  0.868600  0.577100  1.0
  C  C635  1  0.771900  0.631400  0.922900  1.0
  C  C636  1  0.771900  0.368600  0.577100  1.0
  C  C637  1  0.728100  0.868600  0.077100  1.0
  C  C638  1  0.728100  0.131400  0.422900  1.0
  C  C639  1  0.228100  0.368600  0.077100  1.0
  C  C640  1  0.228100  0.631400  0.422900  1.0
  C  C641  1  0.440300  0.142300  0.920200  1.0
  C  C642  1  0.440300  0.857700  0.579800  1.0
  C  C643  1  0.940300  0.642300  0.920200  1.0
  C  C644  1  0.940300  0.357700  0.579800  1.0
  C  C645  1  0.559700  0.857700  0.079800  1.0
  C  C646  1  0.559700  0.142300  0.420200  1.0
  C  C647  1  0.059700  0.357700  0.079800  1.0
  C  C648  1  0.059700  0.642300  0.420200  1.0
  C  C649  1  0.395100  0.140300  0.878500  1.0
  C  C650  1  0.395100  0.859700  0.621500  1.0
  C  C651  1  0.895100  0.640300  0.878500  1.0
  C  C652  1  0.895100  0.359700  0.621500  1.0
  C  C653  1  0.604900  0.859700  0.121500  1.0
  C  C654  1  0.604900  0.140300  0.378500  1.0
  C  C655  1  0.104900  0.359700  0.121500  1.0
  C  C656  1  0.104900  0.640300  0.378500  1.0
  C  C657  1  0.310400  0.134400  0.879700  1.0
  C  C658  1  0.310400  0.865600  0.620300  1.0
  C  C659  1  0.810400  0.634400  0.879700  1.0
  C  C660  1  0.810400  0.365600  0.620300  1.0
  C  C661  1  0.689600  0.865600  0.120300  1.0
  C  C662  1  0.689600  0.134400  0.379700  1.0
  C  C663  1  0.189600  0.365600  0.120300  1.0
  C  C664  1  0.189600  0.634400  0.379700  1.0
  C  C665  1  0.689000  0.131700  0.829000  1.0
  C  C666  1  0.689000  0.868300  0.671000  1.0
  C  C667  1  0.189000  0.631700  0.829000  1.0
  C  C668  1  0.189000  0.368300  0.671000  1.0
  C  C669  1  0.311000  0.868300  0.171000  1.0
  C  C670  1  0.311000  0.131700  0.329000  1.0
  C  C671  1  0.811000  0.368300  0.171000  1.0
  C  C672  1  0.811000  0.631700  0.329000  1.0
  C  C673  1  0.773700  0.130300  0.826600  1.0
  C  C674  1  0.773700  0.869700  0.673400  1.0
  C  C675  1  0.273700  0.630300  0.826600  1.0
  C  C676  1  0.273700  0.369700  0.673400  1.0
  C  C677  1  0.226300  0.869700  0.173400  1.0
  C  C678  1  0.226300  0.130300  0.326600  1.0
  C  C679  1  0.726300  0.369700  0.173400  1.0
  C  C680  1  0.726300  0.630300  0.326600  1.0
  C  C681  1  0.772200  0.132600  0.747100  1.0
  C  C682  1  0.772200  0.867400  0.752900  1.0
  C  C683  1  0.272200  0.632600  0.747100  1.0
  C  C684  1  0.272200  0.367400  0.752900  1.0
  C  C685  1  0.227800  0.867400  0.252900  1.0
  C  C686  1  0.227800  0.132600  0.247100  1.0
  C  C687  1  0.727800  0.367400  0.252900  1.0
  C  C688  1  0.727800  0.632600  0.247100  1.0
  C  C689  1  0.686500  0.134200  0.746200  1.0
  C  C690  1  0.686500  0.865800  0.753800  1.0
  C  C691  1  0.186500  0.634200  0.746200  1.0
  C  C692  1  0.186500  0.365800  0.753800  1.0
  C  C693  1  0.313500  0.865800  0.253800  1.0
  C  C694  1  0.313500  0.134200  0.246200  1.0
  C  C695  1  0.813500  0.365800  0.253800  1.0
  C  C696  1  0.813500  0.634200  0.246200  1.0
  C  C697  1  0.643500  0.133600  0.788300  1.0
  C  C698  1  0.643500  0.866400  0.711700  1.0
  C  C699  1  0.143500  0.633600  0.788300  1.0
  C  C700  1  0.143500  0.366400  0.711700  1.0
  C  C701  1  0.356500  0.866400  0.211700  1.0
  C  C702  1  0.356500  0.133600  0.288300  1.0
  C  C703  1  0.856500  0.366400  0.211700  1.0
  C  C704  1  0.856500  0.633600  0.288300  1.0
  C  C705  1  0.290200  0.119200  0.715000  1.0
  C  C706  1  0.290200  0.880800  0.785000  1.0
  C  C707  1  0.790200  0.619200  0.715000  1.0
  C  C708  1  0.790200  0.380800  0.785000  1.0
  C  C709  1  0.709800  0.880800  0.285000  1.0
  C  C710  1  0.709800  0.119200  0.215000  1.0
  C  C711  1  0.209800  0.380800  0.285000  1.0
  C  C712  1  0.209800  0.619200  0.215000  1.0
  C  C713  1  0.375300  0.130000  0.712600  1.0
  C  C714  1  0.375300  0.870000  0.787400  1.0
  C  C715  1  0.875300  0.630000  0.712600  1.0
  C  C716  1  0.875300  0.370000  0.787400  1.0
  C  C717  1  0.624700  0.870000  0.287400  1.0
  C  C718  1  0.624700  0.130000  0.212600  1.0
  C  C719  1  0.124700  0.370000  0.287400  1.0
  C  C720  1  0.124700  0.630000  0.212600  1.0
  C  C721  1  0.406600  0.139200  0.669500  1.0
  C  C722  1  0.406600  0.860800  0.830500  1.0
  C  C723  1  0.906600  0.639200  0.669500  1.0
  C  C724  1  0.906600  0.360800  0.830500  1.0
  C  C725  1  0.593400  0.860800  0.330500  1.0
  C  C726  1  0.593400  0.139200  0.169500  1.0
  C  C727  1  0.093400  0.360800  0.330500  1.0
  C  C728  1  0.093400  0.639200  0.169500  1.0
  C  C729  1  0.350900  0.138800  0.631800  1.0
  C  C730  1  0.350900  0.861200  0.868200  1.0
  C  C731  1  0.850900  0.638800  0.631800  1.0
  C  C732  1  0.850900  0.361200  0.868200  1.0
  C  C733  1  0.649100  0.861200  0.368200  1.0
  C  C734  1  0.649100  0.138800  0.131800  1.0
  C  C735  1  0.149100  0.361200  0.368200  1.0
  C  C736  1  0.149100  0.638800  0.131800  1.0
  C  C737  1  0.239500  0.119400  0.675900  1.0
  C  C738  1  0.239500  0.880600  0.824100  1.0
  C  C739  1  0.739500  0.619400  0.675900  1.0
  C  C740  1  0.739500  0.380600  0.824100  1.0
  C  C741  1  0.760500  0.880600  0.324100  1.0
  C  C742  1  0.760500  0.119400  0.175900  1.0
  C  C743  1  0.260500  0.380600  0.324100  1.0
  C  C744  1  0.260500  0.619400  0.175900  1.0
  C  C745  1  0.242200  0.217200  0.104600  1.0
  C  C746  1  0.242200  0.782800  0.395400  1.0
  C  C747  1  0.742200  0.717200  0.104600  1.0
  C  C748  1  0.742200  0.282800  0.395400  1.0
  C  C749  1  0.757800  0.782800  0.895400  1.0
  C  C750  1  0.757800  0.217200  0.604600  1.0
  C  C751  1  0.257800  0.282800  0.895400  1.0
  C  C752  1  0.257800  0.717200  0.604600  1.0
  C  C753  1  0.216200  0.176000  0.121500  1.0
  C  C754  1  0.216200  0.824000  0.378500  1.0
  C  C755  1  0.716200  0.676000  0.121500  1.0
  C  C756  1  0.716200  0.324000  0.378500  1.0
  C  C757  1  0.783800  0.824000  0.878500  1.0
  C  C758  1  0.783800  0.176000  0.621500  1.0
  C  C759  1  0.283800  0.324000  0.878500  1.0
  C  C760  1  0.283800  0.676000  0.621500  1.0
  C  C761  1  0.026100  0.238100  0.819600  1.0
  C  C762  1  0.026100  0.761900  0.680400  1.0
  C  C763  1  0.526100  0.738100  0.819600  1.0
  C  C764  1  0.526100  0.261900  0.680400  1.0
  C  C765  1  0.973900  0.761900  0.180400  1.0
  C  C766  1  0.973900  0.238100  0.319600  1.0
  C  C767  1  0.473900  0.261900  0.180400  1.0
  C  C768  1  0.473900  0.738100  0.319600  1.0
  C  C769  1  0.084500  0.195800  0.823800  1.0
  C  C770  1  0.084500  0.804200  0.676200  1.0
  C  C771  1  0.584500  0.695800  0.823800  1.0
  C  C772  1  0.584500  0.304200  0.676200  1.0
  C  C773  1  0.915500  0.804200  0.176200  1.0
  C  C774  1  0.915500  0.195800  0.323800  1.0
  C  C775  1  0.415500  0.304200  0.176200  1.0
  C  C776  1  0.415500  0.695800  0.323800  1.0
  C  C777  1  0.104800  0.235600  0.589500  1.0
  C  C778  1  0.104800  0.764400  0.910500  1.0
  C  C779  1  0.604800  0.735600  0.589500  1.0
  C  C780  1  0.604800  0.264400  0.910500  1.0
  C  C781  1  0.895200  0.764400  0.410500  1.0
  C  C782  1  0.895200  0.235600  0.089500  1.0
  C  C783  1  0.395200  0.264400  0.410500  1.0
  C  C784  1  0.395200  0.735600  0.089500  1.0
  C  C785  1  0.101200  0.209300  0.538100  1.0
  C  C786  1  0.101200  0.790700  0.961900  1.0
  C  C787  1  0.601200  0.709300  0.538100  1.0
  C  C788  1  0.601200  0.290700  0.961900  1.0
  C  C789  1  0.898800  0.790700  0.461900  1.0
  C  C790  1  0.898800  0.209300  0.038100  1.0
  C  C791  1  0.398800  0.290700  0.461900  1.0
  C  C792  1  0.398800  0.709300  0.038100  1.0
  C  C793  1  0.271200  0.041900  0.526500  1.0
  C  C794  1  0.271200  0.958100  0.973500  1.0
  C  C795  1  0.771200  0.541900  0.526500  1.0
  C  C796  1  0.771200  0.458100  0.973500  1.0
  C  C797  1  0.728800  0.958100  0.473500  1.0
  C  C798  1  0.728800  0.041900  0.026500  1.0
  C  C799  1  0.228800  0.458100  0.473500  1.0
  C  C800  1  0.228800  0.541900  0.026500  1.0
  C  C801  1  0.286000  0.988400  0.505600  1.0
  C  C802  1  0.286000  0.011600  0.994400  1.0
  C  C803  1  0.786000  0.488400  0.505600  1.0
  C  C804  1  0.786000  0.511600  0.994400  1.0
  C  C805  1  0.714000  0.011600  0.494400  1.0
  C  C806  1  0.714000  0.988400  0.005600  1.0
  C  C807  1  0.214000  0.511600  0.494400  1.0
  C  C808  1  0.214000  0.488400  0.005600  1.0
  C  C809  1  0.161500  0.967800  0.529400  1.0
  C  C810  1  0.161500  0.032200  0.970600  1.0
  C  C811  1  0.661500  0.467800  0.529400  1.0
  C  C812  1  0.661500  0.532200  0.970600  1.0
  C  C813  1  0.838500  0.032200  0.470600  1.0
  C  C814  1  0.838500  0.967800  0.029400  1.0
  C  C815  1  0.338500  0.532200  0.470600  1.0
  C  C816  1  0.338500  0.467800  0.029400  1.0
  C  C817  1  0.146700  0.022100  0.551700  1.0
  C  C818  1  0.146700  0.977900  0.948300  1.0
  C  C819  1  0.646700  0.522100  0.551700  1.0
  C  C820  1  0.646700  0.477900  0.948300  1.0
  C  C821  1  0.853300  0.977900  0.448300  1.0
  C  C822  1  0.853300  0.022100  0.051700  1.0
  C  C823  1  0.353300  0.477900  0.448300  1.0
  C  C824  1  0.353300  0.522100  0.051700  1.0
  C  C825  1  0.952300  0.028600  0.717300  1.0
  C  C826  1  0.952300  0.971400  0.782700  1.0
  C  C827  1  0.452300  0.528600  0.717300  1.0
  C  C828  1  0.452300  0.471400  0.782700  1.0
  C  C829  1  0.047700  0.971400  0.282700  1.0
  C  C830  1  0.047700  0.028600  0.217300  1.0
  C  C831  1  0.547700  0.471400  0.282700  1.0
  C  C832  1  0.547700  0.528600  0.217300  1.0
  C  C833  1  0.951600  0.026900  0.796200  1.0
  C  C834  1  0.951600  0.973100  0.703800  1.0
  C  C835  1  0.451600  0.526900  0.796200  1.0
  C  C836  1  0.451600  0.473100  0.703800  1.0
  C  C837  1  0.048400  0.973100  0.203800  1.0
  C  C838  1  0.048400  0.026900  0.296200  1.0
  C  C839  1  0.548400  0.473100  0.203800  1.0
  C  C840  1  0.548400  0.526900  0.296200  1.0
  N  N841  1  0.719900  0.739500  0.733800  1
  N  N842  1  0.719900  0.260500  0.766200  1
  N  N843  1  0.219900  0.239500  0.733800  1
  N  N844  1  0.219900  0.760500  0.766200  1
  N  N845  1  0.280100  0.260500  0.266200  1
  N  N846  1  0.280100  0.739500  0.233800  1
  N  N847  1  0.780100  0.760500  0.266200  1
  N  N848  1  0.780100  0.239500  0.233800  1
  N  N849  1  0.142500  0.044400  0.824700  1
  N  N850  1  0.142500  0.955600  0.675300  1
  N  N851  1  0.642500  0.544400  0.824700  1
  N  N852  1  0.642500  0.455600  0.675300  1
  N  N853  1  0.857500  0.955600  0.175300  1
  N  N854  1  0.857500  0.044400  0.324700  1
  N  N855  1  0.357500  0.455600  0.175300  1
  N  N856  1  0.357500  0.544400  0.324700  1
  N  N857  1  0.101800  0.200600  0.981800  1
  N  N858  1  0.101800  0.799400  0.518200  1
  N  N859  1  0.601800  0.700600  0.981800  1
  N  N860  1  0.601800  0.299400  0.518200  1
  N  N861  1  0.898200  0.799400  0.018200  1
  N  N862  1  0.898200  0.200600  0.481800  1
  N  N863  1  0.398200  0.299400  0.018200  1
  N  N864  1  0.398200  0.700600  0.481800  1
  N  N865  1  0.582900  0.890100  0.901600  1
  N  N866  1  0.582900  0.109900  0.598400  1
  N  N867  1  0.082900  0.390100  0.901600  1
  N  N868  1  0.082900  0.609900  0.598400  1
  N  N869  1  0.417100  0.109900  0.098400  1
  N  N870  1  0.417100  0.890100  0.401600  1
  N  N871  1  0.917100  0.609900  0.098400  1
  N  N872  1  0.917100  0.390100  0.401600  1
  N  N873  1  0.923300  0.999600  0.931000  1
  N  N874  1  0.923300  0.000400  0.569000  1
  N  N875  1  0.423300  0.499600  0.931000  1
  N  N876  1  0.423300  0.500400  0.569000  1
  N  N877  1  0.076700  0.000400  0.069000  1
  N  N878  1  0.076700  0.999600  0.431000  1
  N  N879  1  0.576700  0.500400  0.069000  1
  N  N880  1  0.576700  0.499600  0.431000  1
  N  N881  1  0.995000  0.877600  0.857100  1
  N  N882  1  0.995000  0.122400  0.642900  1
  N  N883  1  0.495000  0.377600  0.857100  1
  N  N884  1  0.495000  0.622400  0.642900  1
  N  N885  1  0.005000  0.122400  0.142900  1
  N  N886  1  0.005000  0.877600  0.357100  1
  N  N887  1  0.505000  0.622400  0.142900  1
  N  N888  1  0.505000  0.377600  0.357100  1
  N  N889  1  0.550500  0.908800  0.930900  1
  N  N890  1  0.550500  0.091200  0.569100  1
  N  N891  1  0.050500  0.408800  0.930900  1
  N  N892  1  0.050500  0.591200  0.569100  1
  N  N893  1  0.449500  0.091200  0.069100  1
  N  N894  1  0.449500  0.908800  0.430900  1
  N  N895  1  0.949500  0.591200  0.069100  1
  N  N896  1  0.949500  0.408800  0.430900  1
  N  N897  1  0.017000  0.864300  0.869000  1
  N  N898  1  0.017000  0.135700  0.631000  1
  N  N899  1  0.517000  0.364300  0.869000  1
  N  N900  1  0.517000  0.635700  0.631000  1
  N  N901  1  0.983000  0.135700  0.131000  1
  N  N902  1  0.983000  0.864300  0.369000  1
  N  N903  1  0.483000  0.635700  0.131000  1
  N  N904  1  0.483000  0.364300  0.369000  1
  N  N905  1  0.387900  0.133500  0.793900  1.0
  N  N906  1  0.387900  0.866500  0.706100  1.0
  N  N907  1  0.887900  0.633500  0.793900  1.0
  N  N908  1  0.887900  0.366500  0.706100  1.0
  N  N909  1  0.612100  0.866500  0.206100  1.0
  N  N910  1  0.612100  0.133500  0.293900  1.0
  N  N911  1  0.112100  0.366500  0.206100  1.0
  N  N912  1  0.112100  0.633500  0.293900  1.0
  N  N913  1  0.519600  0.138600  0.832800  1.0
  N  N914  1  0.519600  0.861400  0.667200  1.0
  N  N915  1  0.019600  0.638600  0.832800  1.0
  N  N916  1  0.019600  0.361400  0.667200  1.0
  N  N917  1  0.480400  0.861400  0.167200  1.0
  N  N918  1  0.480400  0.138600  0.332800  1.0
  N  N919  1  0.980400  0.361400  0.167200  1.0
  N  N920  1  0.980400  0.638600  0.332800  1.0
  N  N921  1  0.556800  0.135000  0.789230  1.0
  N  N922  1  0.556800  0.865000  0.710770  1.0
  N  N923  1  0.056800  0.635000  0.789230  1.0
  N  N924  1  0.056800  0.365000  0.710770  1.0
  N  N925  1  0.443200  0.865000  0.210770  1.0
  N  N926  1  0.443200  0.135000  0.289230  1.0
  N  N927  1  0.943200  0.365000  0.210770  1.0
  N  N928  1  0.943200  0.635000  0.289230  1.0
  N  N929  1  0.426600  0.132000  0.752300  1.0
  N  N930  1  0.426600  0.868000  0.747700  1.0
  N  N931  1  0.926600  0.632000  0.752300  1.0
  N  N932  1  0.926600  0.368000  0.747700  1.0
  N  N933  1  0.573400  0.868000  0.247700  1.0
  N  N934  1  0.573400  0.132000  0.252300  1.0
  N  N935  1  0.073400  0.368000  0.247700  1.0
  N  N936  1  0.073400  0.632000  0.252300  1.0
  N  N937  1  0.314900  0.134600  0.963100  1.0
  N  N938  1  0.314900  0.865400  0.536900  1.0
  N  N939  1  0.814900  0.634600  0.963100  1.0
  N  N940  1  0.814900  0.365400  0.536900  1.0
  N  N941  1  0.685100  0.865400  0.036900  1.0
  N  N942  1  0.685100  0.134600  0.463100  1.0
  N  N943  1  0.185100  0.365400  0.036900  1.0
  N  N944  1  0.185100  0.634600  0.463100  1.0
  N  N945  1  0.817100  0.130800  0.787100  1.0
  N  N946  1  0.817100  0.869200  0.712900  1.0
  N  N947  1  0.317100  0.630800  0.787100  1.0
  N  N948  1  0.317100  0.369200  0.712900  1.0
  N  N949  1  0.182900  0.869200  0.212900  1.0
  N  N950  1  0.182900  0.130800  0.287100  1.0
  N  N951  1  0.682900  0.369200  0.212900  1.0
  N  N952  1  0.682900  0.630800  0.287100  1.0
  N  N953  1  0.270500  0.129600  0.635360  1.0
  N  N954  1  0.270500  0.870400  0.864640  1.0
  N  N955  1  0.770500  0.629600  0.635360  1.0
  N  N956  1  0.770500  0.370400  0.864640  1.0
  N  N957  1  0.729500  0.870400  0.364640  1.0
  N  N958  1  0.729500  0.129600  0.135360  1.0
  N  N959  1  0.229500  0.370400  0.364640  1.0
  N  N960  1  0.229500  0.629600  0.135360  1.0
  N  N961  1  0.283500  0.203200  0.059600  1.0
  N  N962  1  0.283500  0.796800  0.440400  1.0
  N  N963  1  0.783500  0.703200  0.059600  1.0
  N  N964  1  0.783500  0.296800  0.440400  1.0
  N  N965  1  0.716500  0.796800  0.940400  1.0
  N  N966  1  0.716500  0.203200  0.559600  1.0
  N  N967  1  0.216500  0.296800  0.940400  1.0
  N  N968  1  0.216500  0.703200  0.559600  1.0
  N  N969  1  0.202000  0.125500  0.086900  1.0
  N  N970  1  0.202000  0.874500  0.413100  1.0
  N  N971  1  0.702000  0.625500  0.086900  1.0
  N  N972  1  0.702000  0.374500  0.413100  1.0
  N  N973  1  0.798000  0.874500  0.913100  1.0
  N  N974  1  0.798000  0.125500  0.586900  1.0
  N  N975  1  0.298000  0.374500  0.913100  1.0
  N  N976  1  0.298000  0.625500  0.586900  1.0
  N  N977  1  0.939300  0.216000  0.815700  1.0
  N  N978  1  0.939300  0.784000  0.684300  1.0
  N  N979  1  0.439300  0.716000  0.815700  1.0
  N  N980  1  0.439300  0.284000  0.684300  1.0
  N  N981  1  0.060700  0.784000  0.184300  1.0
  N  N982  1  0.060700  0.216000  0.315700  1.0
  N  N983  1  0.560700  0.284000  0.184300  1.0
  N  N984  1  0.560700  0.716000  0.315700  1.0
  N  N985  1  0.066800  0.147600  0.784100  1.0
  N  N986  1  0.066800  0.852400  0.715900  1.0
  N  N987  1  0.566800  0.647600  0.784100  1.0
  N  N988  1  0.566800  0.352400  0.715900  1.0
  N  N989  1  0.933200  0.852400  0.215900  1.0
  N  N990  1  0.933200  0.147600  0.284100  1.0
  N  N991  1  0.433200  0.352400  0.215900  1.0
  N  N992  1  0.433200  0.647600  0.284100  1.0
  N  N993  1  0.176000  0.215600  0.611200  1.0
  N  N994  1  0.176000  0.784400  0.888800  1.0
  N  N995  1  0.676000  0.715600  0.611200  1.0
  N  N996  1  0.676000  0.284400  0.888800  1.0
  N  N997  1  0.824000  0.784400  0.388800  1.0
  N  N998  1  0.824000  0.215600  0.111200  1.0
  N  N999  1  0.324000  0.284400  0.388800  1.0
  N  N1000  1  0.324000  0.715600  0.111200  1.0
  N  N1001  1  0.106900  0.150400  0.533700  1.0
  N  N1002  1  0.106900  0.849600  0.966300  1.0
  N  N1003  1  0.606900  0.650400  0.533700  1.0
  N  N1004  1  0.606900  0.349600  0.966300  1.0
  N  N1005  1  0.893100  0.849600  0.466300  1.0
  N  N1006  1  0.893100  0.150400  0.033700  1.0
  N  N1007  1  0.393100  0.349600  0.466300  1.0
  N  N1008  1  0.393100  0.650400  0.033700  1.0
  N  N1009  1  0.202600  0.057700  0.549700  1.0
  N  N1010  1  0.202600  0.942300  0.950300  1.0
  N  N1011  1  0.702600  0.557700  0.549700  1.0
  N  N1012  1  0.702600  0.442300  0.950300  1.0
  N  N1013  1  0.797400  0.942300  0.450300  1.0
  N  N1014  1  0.797400  0.057700  0.049700  1.0
  N  N1015  1  0.297400  0.442300  0.450300  1.0
  N  N1016  1  0.297400  0.557700  0.049700  1.0
  N  N1017  1  0.231400  0.049300  0.992600  1.0
  N  N1018  1  0.231400  0.950700  0.507400  1.0
  N  N1019  1  0.731400  0.549300  0.992600  1.0
  N  N1020  1  0.731400  0.450700  0.507400  1.0
  N  N1021  1  0.768600  0.950700  0.007400  1.0
  N  N1022  1  0.768600  0.049300  0.492600  1.0
  N  N1023  1  0.268600  0.450700  0.007400  1.0
  N  N1024  1  0.268600  0.549300  0.492600  1.0
  N  N1025  1  0.950800  0.055000  0.762900  1.0
  N  N1026  1  0.950800  0.945000  0.737100  1.0
  N  N1027  1  0.450800  0.555000  0.762900  1.0
  N  N1028  1  0.450800  0.445000  0.737100  1.0
  N  N1029  1  0.049200  0.945000  0.237100  1.0
  N  N1030  1  0.049200  0.055000  0.262900  1.0
  N  N1031  1  0.549200  0.445000  0.237100  1.0
  N  N1032  1  0.549200  0.555000  0.262900  1.0
  O  O1033  1  0.769900  0.747000  0.702820  1
  O  O1034  1  0.769900  0.253000  0.797180  1
  O  O1035  1  0.269900  0.247000  0.702820  1
  O  O1036  1  0.269900  0.753000  0.797180  1
  O  O1037  1  0.230100  0.253000  0.297180  1
  O  O1038  1  0.230100  0.747000  0.202820  1
  O  O1039  1  0.730100  0.753000  0.297180  1
  O  O1040  1  0.730100  0.247000  0.202820  1
  O  O1041  1  0.644700  0.726500  0.721200  1
  O  O1042  1  0.644700  0.273500  0.778800  1
  O  O1043  1  0.144700  0.226500  0.721200  1
  O  O1044  1  0.144700  0.773500  0.778800  1
  O  O1045  1  0.355300  0.273500  0.278800  1
  O  O1046  1  0.355300  0.726500  0.221200  1
  O  O1047  1  0.855300  0.773500  0.278800  1
  O  O1048  1  0.855300  0.226500  0.221200  1
  O  O1049  1  0.741100  0.743300  0.775800  1
  O  O1050  1  0.741100  0.256700  0.724200  1
  O  O1051  1  0.241100  0.243300  0.775800  1
  O  O1052  1  0.241100  0.756700  0.724200  1
  O  O1053  1  0.258900  0.256700  0.224200  1
  O  O1054  1  0.258900  0.743300  0.275800  1
  O  O1055  1  0.758900  0.756700  0.224200  1
  O  O1056  1  0.758900  0.243300  0.275800  1
  O  O1057  1  0.163200  0.058300  0.787800  1
  O  O1058  1  0.163200  0.941700  0.712200  1
  O  O1059  1  0.663200  0.558300  0.787800  1
  O  O1060  1  0.663200  0.441700  0.712200  1
  O  O1061  1  0.836800  0.941700  0.212200  1
  O  O1062  1  0.836800  0.058300  0.287800  1
  O  O1063  1  0.336800  0.441700  0.212200  1
  O  O1064  1  0.336800  0.558300  0.287800  1
  O  O1065  1  0.119900  0.077500  0.859200  1
  O  O1066  1  0.119900  0.922500  0.640800  1
  O  O1067  1  0.619900  0.577500  0.859200  1
  O  O1068  1  0.619900  0.422500  0.640800  1
  O  O1069  1  0.880100  0.922500  0.140800  1
  O  O1070  1  0.880100  0.077500  0.359200  1
  O  O1071  1  0.380100  0.422500  0.140800  1
  O  O1072  1  0.380100  0.577500  0.359200  1
  O  O1073  1  0.145600  0.994100  0.829700  1
  O  O1074  1  0.145600  0.005900  0.670300  1
  O  O1075  1  0.645600  0.494100  0.829700  1
  O  O1076  1  0.645600  0.505900  0.670300  1
  O  O1077  1  0.854400  0.005900  0.170300  1
  O  O1078  1  0.854400  0.994100  0.329700  1
  O  O1079  1  0.354400  0.505900  0.170300  1
  O  O1080  1  0.354400  0.494100  0.329700  1
  O  O1081  1  0.852000  0.232000  0.920000  1
  O  O1082  1  0.852000  0.768000  0.580000  1
  O  O1083  1  0.352000  0.732000  0.920000  1
  O  O1084  1  0.352000  0.268000  0.580000  1
  O  O1085  1  0.148000  0.768000  0.080000  1
  O  O1086  1  0.148000  0.232000  0.420000  1
  O  O1087  1  0.648000  0.268000  0.080000  1
  O  O1088  1  0.648000  0.732000  0.420000  1
  O  O1089  1  0.938900  0.141500  0.908800  1
  O  O1090  1  0.938900  0.858500  0.591200  1
  O  O1091  1  0.438900  0.641500  0.908800  1
  O  O1092  1  0.438900  0.358500  0.591200  1
  O  O1093  1  0.061100  0.858500  0.091200  1
  O  O1094  1  0.061100  0.141500  0.408800  1
  O  O1095  1  0.561100  0.358500  0.091200  1
  O  O1096  1  0.561100  0.641500  0.408800  1
  O  O1097  1  0.137600  0.237900  0.007100  1
  O  O1098  1  0.137600  0.762100  0.492900  1
  O  O1099  1  0.637600  0.737900  0.007100  1
  O  O1100  1  0.637600  0.262100  0.492900  1
  O  O1101  1  0.862400  0.762100  0.992900  1
  O  O1102  1  0.862400  0.237900  0.507100  1
  O  O1103  1  0.362400  0.262100  0.992900  1
  O  O1104  1  0.362400  0.737900  0.507100  1
  O  O1105  1  0.084800  0.158800  0.995300  1
  O  O1106  1  0.084800  0.841200  0.504700  1
  O  O1107  1  0.584800  0.658800  0.995300  1
  O  O1108  1  0.584800  0.341200  0.504700  1
  O  O1109  1  0.915200  0.841200  0.004700  1
  O  O1110  1  0.915200  0.158800  0.495300  1
  O  O1111  1  0.415200  0.341200  0.004700  1
  O  O1112  1  0.415200  0.658800  0.495300  1
  O  O1113  1  0.083100  0.199800  0.941400  1
  O  O1114  1  0.083100  0.800200  0.558600  1
  O  O1115  1  0.583100  0.699800  0.941400  1
  O  O1116  1  0.583100  0.300200  0.558600  1
  O  O1117  1  0.916900  0.800200  0.058600  1
  O  O1118  1  0.916900  0.199800  0.441400  1
  O  O1119  1  0.416900  0.300200  0.058600  1
  O  O1120  1  0.416900  0.699800  0.441400  1
  O  O1121  1  0.530700  0.871500  0.923500  1
  O  O1122  1  0.530700  0.128500  0.576500  1
  O  O1123  1  0.030700  0.371500  0.923500  1
  O  O1124  1  0.030700  0.628500  0.576500  1
  O  O1125  1  0.469300  0.128500  0.076500  1
  O  O1126  1  0.469300  0.871500  0.423500  1
  O  O1127  1  0.969300  0.628500  0.076500  1
  O  O1128  1  0.969300  0.371500  0.423500  1
  O  O1129  1  0.605300  0.866800  0.858500  1
  O  O1130  1  0.605300  0.133200  0.641500  1
  O  O1131  1  0.105300  0.366800  0.858500  1
  O  O1132  1  0.105300  0.633200  0.641500  1
  O  O1133  1  0.394700  0.133200  0.141500  1
  O  O1134  1  0.394700  0.866800  0.358500  1
  O  O1135  1  0.894700  0.633200  0.141500  1
  O  O1136  1  0.894700  0.366800  0.358500  1
  O  O1137  1  0.615700  0.930300  0.922300  1
  O  O1138  1  0.615700  0.069700  0.577700  1
  O  O1139  1  0.115700  0.430300  0.922300  1
  O  O1140  1  0.115700  0.569700  0.577700  1
  O  O1141  1  0.384300  0.069700  0.077700  1
  O  O1142  1  0.384300  0.930300  0.422300  1
  O  O1143  1  0.884300  0.569700  0.077700  1
  O  O1144  1  0.884300  0.430300  0.422300  1
  O  O1145  1  0.468000  0.955100  0.004000  1
  O  O1146  1  0.468000  0.044900  0.496000  1
  O  O1147  1  0.968000  0.455100  0.004000  1
  O  O1148  1  0.968000  0.544900  0.496000  1
  O  O1149  1  0.532000  0.044900  0.996000  1
  O  O1150  1  0.532000  0.955100  0.504000  1
  O  O1151  1  0.032000  0.544900  0.996000  1
  O  O1152  1  0.032000  0.455100  0.504000  1
  O  O1153  1  0.750900  0.972200  0.875000  1
  O  O1154  1  0.750900  0.027800  0.625000  1
  O  O1155  1  0.250900  0.472200  0.875000  1
  O  O1156  1  0.250900  0.527800  0.625000  1
  O  O1157  1  0.249100  0.027800  0.125000  1
  O  O1158  1  0.249100  0.972200  0.375000  1
  O  O1159  1  0.749100  0.527800  0.125000  1
  O  O1160  1  0.749100  0.472200  0.375000  1
  O  O1161  1  0.860300  0.000300  0.907400  1
  O  O1162  1  0.860300  0.999700  0.592600  1
  O  O1163  1  0.360300  0.500300  0.907400  1
  O  O1164  1  0.360300  0.499700  0.592600  1
  O  O1165  1  0.139700  0.999700  0.092600  1
  O  O1166  1  0.139700  0.000300  0.407400  1
  O  O1167  1  0.639700  0.499700  0.092600  1
  O  O1168  1  0.639700  0.500300  0.407400  1
  O  O1169  1  0.955000  0.042700  0.956400  1
  O  O1170  1  0.955000  0.957300  0.543600  1
  O  O1171  1  0.455000  0.542700  0.956400  1
  O  O1172  1  0.455000  0.457300  0.543600  1
  O  O1173  1  0.045000  0.957300  0.043600  1
  O  O1174  1  0.045000  0.042700  0.456400  1
  O  O1175  1  0.545000  0.457300  0.043600  1
  O  O1176  1  0.545000  0.542700  0.456400  1
  O  O1177  1  0.939900  0.960000  0.943900  1
  O  O1178  1  0.939900  0.040000  0.556100  1
  O  O1179  1  0.439900  0.460000  0.943900  1
  O  O1180  1  0.439900  0.540000  0.556100  1
  O  O1181  1  0.060100  0.040000  0.056100  1
  O  O1182  1  0.060100  0.960000  0.443900  1
  O  O1183  1  0.560100  0.540000  0.056100  1
  O  O1184  1  0.560100  0.460000  0.443900  1
  O  O1185  1  0.641200  0.105900  0.943600  1
  O  O1186  1  0.641200  0.894100  0.556400  1
  O  O1187  1  0.141200  0.605900  0.943600  1
  O  O1188  1  0.141200  0.394100  0.556400  1
  O  O1189  1  0.358800  0.894100  0.056400  1
  O  O1190  1  0.358800  0.105900  0.443600  1
  O  O1191  1  0.858800  0.394100  0.056400  1
  O  O1192  1  0.858800  0.605900  0.443600  1
  O  O1193  1  0.610800  0.171900  0.014000  1
  O  O1194  1  0.610800  0.828100  0.486000  1
  O  O1195  1  0.110800  0.671900  0.014000  1
  O  O1196  1  0.110800  0.328100  0.486000  1
  O  O1197  1  0.389200  0.828100  0.986000  1
  O  O1198  1  0.389200  0.171900  0.514000  1
  O  O1199  1  0.889200  0.328100  0.986000  1
  O  O1200  1  0.889200  0.671900  0.514000  1
  O  O1201  1  0.049500  0.909200  0.857900  1
  O  O1202  1  0.049500  0.090800  0.642100  1
  O  O1203  1  0.549500  0.409200  0.857900  1
  O  O1204  1  0.549500  0.590800  0.642100  1
  O  O1205  1  0.950500  0.090800  0.142100  1
  O  O1206  1  0.950500  0.909200  0.357900  1
  O  O1207  1  0.450500  0.590800  0.142100  1
  O  O1208  1  0.450500  0.409200  0.357900  1
  O  O1209  1  0.979200  0.855100  0.891400  1
  O  O1210  1  0.979200  0.144900  0.608600  1
  O  O1211  1  0.479200  0.355100  0.891400  1
  O  O1212  1  0.479200  0.644900  0.608600  1
  O  O1213  1  0.020800  0.144900  0.108600  1
  O  O1214  1  0.020800  0.855100  0.391400  1
  O  O1215  1  0.520800  0.644900  0.108600  1
  O  O1216  1  0.520800  0.355100  0.391400  1
  O  O1217  1  0.941300  0.866800  0.826100  1
  O  O1218  1  0.941300  0.133200  0.673900  1
  O  O1219  1  0.441300  0.366800  0.826100  1
  O  O1220  1  0.441300  0.633200  0.673900  1
  O  O1221  1  0.058700  0.133200  0.173900  1
  O  O1222  1  0.058700  0.866800  0.326100  1
  O  O1223  1  0.558700  0.633200  0.173900  1
  O  O1224  1  0.558700  0.366800  0.326100  1
  O  O1225  1  0.188400  0.106700  0.436800  1
  O  O1226  1  0.188400  0.893300  0.063200  1
  O  O1227  1  0.688400  0.606700  0.436800  1
  O  O1228  1  0.688400  0.393300  0.063200  1
  O  O1229  1  0.811600  0.893300  0.563200  1
  O  O1230  1  0.811600  0.106700  0.936800  1
  O  O1231  1  0.311600  0.393300  0.563200  1
  O  O1232  1  0.311600  0.606700  0.936800  1
  O  O1233  1  0.918800  0.753100  0.779500  1
  O  O1234  1  0.918800  0.246900  0.720500  1
  O  O1235  1  0.418800  0.253100  0.779500  1
  O  O1236  1  0.418800  0.746900  0.720500  1
  O  O1237  1  0.081200  0.246900  0.220500  1
  O  O1238  1  0.081200  0.753100  0.279500  1
  O  O1239  1  0.581200  0.746900  0.220500  1
  O  O1240  1  0.581200  0.253100  0.279500  1
  O  O1241  1  0.016400  0.098900  0.897300  1
  O  O1242  1  0.016400  0.901100  0.602700  1
  O  O1243  1  0.516400  0.598900  0.897300  1
  O  O1244  1  0.516400  0.401100  0.602700  1
  O  O1245  1  0.983600  0.901100  0.102700  1
  O  O1246  1  0.983600  0.098900  0.397300  1
  O  O1247  1  0.483600  0.401100  0.102700  1
  O  O1248  1  0.483600  0.598900  0.397300  1
  O  O1249  1  0.130200  0.018500  0.863000  1
  O  O1250  1  0.130200  0.981500  0.637000  1
  O  O1251  1  0.630200  0.518500  0.863000  1
  O  O1252  1  0.630200  0.481500  0.637000  1
  O  O1253  1  0.869800  0.981500  0.137000  1
  O  O1254  1  0.869800  0.018500  0.363000  1
  O  O1255  1  0.369800  0.481500  0.137000  1
  O  O1256  1  0.369800  0.518500  0.363000  1
  O  O1257  1  0.159100  0.045900  0.776200  1
  O  O1258  1  0.159100  0.954100  0.723800  1
  O  O1259  1  0.659100  0.545900  0.776200  1
  O  O1260  1  0.659100  0.454100  0.723800  1
  O  O1261  1  0.840900  0.954100  0.223800  1
  O  O1262  1  0.840900  0.045900  0.276200  1
  O  O1263  1  0.340900  0.454100  0.223800  1
  O  O1264  1  0.340900  0.545900  0.276200  1
  O  O1265  1  0.844300  0.237800  0.909800  1
  O  O1266  1  0.844300  0.762200  0.590200  1
  O  O1267  1  0.344300  0.737800  0.909800  1
  O  O1268  1  0.344300  0.262200  0.590200  1
  O  O1269  1  0.155700  0.762200  0.090200  1
  O  O1270  1  0.155700  0.237800  0.409800  1
  O  O1271  1  0.655700  0.262200  0.090200  1
  O  O1272  1  0.655700  0.737800  0.409800  1
  O  O1273  1  0.166200  0.226800  0.000600  1
  O  O1274  1  0.166200  0.773200  0.499400  1
  O  O1275  1  0.666200  0.726800  0.000600  1
  O  O1276  1  0.666200  0.273200  0.499400  1
  O  O1277  1  0.833800  0.773200  0.999400  1
  O  O1278  1  0.833800  0.226800  0.500600  1
  O  O1279  1  0.333800  0.273200  0.999400  1
  O  O1280  1  0.333800  0.726800  0.500600  1
  O  O1281  1  0.060600  0.235600  0.954600  1
  O  O1282  1  0.060600  0.764400  0.545400  1
  O  O1283  1  0.560600  0.735600  0.954600  1
  O  O1284  1  0.560600  0.264400  0.545400  1
  O  O1285  1  0.939400  0.764400  0.045400  1
  O  O1286  1  0.939400  0.235600  0.454600  1
  O  O1287  1  0.439400  0.264400  0.045400  1
  O  O1288  1  0.439400  0.735600  0.454600  1
  O  O1289  1  0.600000  0.933200  0.913300  1
  O  O1290  1  0.600000  0.066800  0.586700  1
  O  O1291  1  0.100000  0.433200  0.913300  1
  O  O1292  1  0.100000  0.566800  0.586700  1
  O  O1293  1  0.400000  0.066800  0.086700  1
  O  O1294  1  0.400000  0.933200  0.413300  1
  O  O1295  1  0.900000  0.566800  0.086700  1
  O  O1296  1  0.900000  0.433200  0.413300  1
  O  O1297  1  0.495000  0.925500  0.962000  1
  O  O1298  1  0.495000  0.074500  0.538000  1
  O  O1299  1  0.995000  0.425500  0.962000  1
  O  O1300  1  0.995000  0.574500  0.538000  1
  O  O1301  1  0.505000  0.074500  0.038000  1
  O  O1302  1  0.505000  0.925500  0.462000  1
  O  O1303  1  0.005000  0.574500  0.038000  1
  O  O1304  1  0.005000  0.425500  0.462000  1
  O  O1305  1  0.552000  0.861400  0.912300  1
  O  O1306  1  0.552000  0.138600  0.587700  1
  O  O1307  1  0.052000  0.361400  0.912300  1
  O  O1308  1  0.052000  0.638600  0.587700  1
  O  O1309  1  0.448000  0.138600  0.087700  1
  O  O1310  1  0.448000  0.861400  0.412300  1
  O  O1311  1  0.948000  0.638600  0.087700  1
  O  O1312  1  0.948000  0.361400  0.412300  1
  O  O1313  1  0.534600  0.841000  0.919000  1
  O  O1314  1  0.534600  0.159000  0.581000  1
  O  O1315  1  0.034600  0.341000  0.919000  1
  O  O1316  1  0.034600  0.659000  0.581000  1
  O  O1317  1  0.465400  0.159000  0.081000  1
  O  O1318  1  0.465400  0.841000  0.419000  1
  O  O1319  1  0.965400  0.659000  0.081000  1
  O  O1320  1  0.965400  0.341000  0.419000  1
  O  O1321  1  0.600600  0.890100  0.871700  1
  O  O1322  1  0.600600  0.109900  0.628300  1
  O  O1323  1  0.100600  0.390100  0.871700  1
  O  O1324  1  0.100600  0.609900  0.628300  1
  O  O1325  1  0.399400  0.109900  0.128300  1
  O  O1326  1  0.399400  0.890100  0.371700  1
  O  O1327  1  0.899400  0.609900  0.128300  1
  O  O1328  1  0.899400  0.390100  0.371700  1
  O  O1329  1  0.964300  0.034500  0.969300  1
  O  O1330  1  0.964300  0.965500  0.530700  1
  O  O1331  1  0.464300  0.534500  0.969300  1
  O  O1332  1  0.464300  0.465500  0.530700  1
  O  O1333  1  0.035700  0.965500  0.030700  1
  O  O1334  1  0.035700  0.034500  0.469300  1
  O  O1335  1  0.535700  0.465500  0.030700  1
  O  O1336  1  0.535700  0.534500  0.469300  1
  O  O1337  1  0.674000  0.151800  0.966000  1
  O  O1338  1  0.674000  0.848200  0.534000  1
  O  O1339  1  0.174000  0.651800  0.966000  1
  O  O1340  1  0.174000  0.348200  0.534000  1
  O  O1341  1  0.326000  0.848200  0.034000  1
  O  O1342  1  0.326000  0.151800  0.466000  1
  O  O1343  1  0.826000  0.348200  0.034000  1
  O  O1344  1  0.826000  0.651800  0.466000  1
  O  O1345  1  0.001000  0.817400  0.852500  1
  O  O1346  1  0.001000  0.182600  0.647500  1
  O  O1347  1  0.501000  0.317400  0.852500  1
  O  O1348  1  0.501000  0.682600  0.647500  1
  O  O1349  1  0.999000  0.182600  0.147500  1
  O  O1350  1  0.999000  0.817400  0.352500  1
  O  O1351  1  0.499000  0.682600  0.147500  1
  O  O1352  1  0.499000  0.317400  0.352500  1
  O  O1353  1  0.979000  0.891200  0.906500  1
  O  O1354  1  0.979000  0.108800  0.593500  1
  O  O1355  1  0.479000  0.391200  0.906500  1
  O  O1356  1  0.479000  0.608800  0.593500  1
  O  O1357  1  0.021000  0.108800  0.093500  1
  O  O1358  1  0.021000  0.891200  0.406500  1
  O  O1359  1  0.521000  0.608800  0.093500  1
  O  O1360  1  0.521000  0.391200  0.406500  1
  O  O1361  1  0.041000  0.888300  0.840300  1
  O  O1362  1  0.041000  0.111700  0.659700  1
  O  O1363  1  0.541000  0.388300  0.840300  1
  O  O1364  1  0.541000  0.611700  0.659700  1
  O  O1365  1  0.959000  0.111700  0.159700  1
  O  O1366  1  0.959000  0.888300  0.340300  1
  O  O1367  1  0.459000  0.611700  0.159700  1
  O  O1368  1  0.459000  0.388300  0.340300  1
  O  O1369  1  0.986000  0.858700  0.819100  1
  O  O1370  1  0.986000  0.141300  0.680900  1
  O  O1371  1  0.486000  0.358700  0.819100  1
  O  O1372  1  0.486000  0.641300  0.680900  1
  O  O1373  1  0.014000  0.141300  0.180900  1
  O  O1374  1  0.014000  0.858700  0.319100  1
  O  O1375  1  0.514000  0.641300  0.180900  1
  O  O1376  1  0.514000  0.358700  0.319100  1
