# generated using pymatgen
data_Zn6Fe8H246C364N98O5
_symmetry_space_group_name_H-M   'P 1'
_cell_length_a   29.74740000
_cell_length_b   33.56000000
_cell_length_c   33.60960000
_cell_angle_alpha   90.00000000
_cell_angle_beta   90.00700000
_cell_angle_gamma   90.00000000
_symmetry_Int_Tables_number   1
_chemical_formula_structural   Zn6Fe8H246C364N98O5
_chemical_formula_sum   'Zn12 Fe16 H492 C728 N196 O10'
_cell_volume   33553.22784633
_cell_formula_units_Z   2
loop_
 _symmetry_equiv_pos_site_id
 _symmetry_equiv_pos_as_xyz
  1  'x, y, z'
loop_
 _atom_site_type_symbol
 _atom_site_label
 _atom_site_symmetry_multiplicity
 _atom_site_fract_x
 _atom_site_fract_y
 _atom_site_fract_z
 _atom_site_occupancy
  Zn  Zn1  1  0.595500  0.392200  0.594900  1
  Zn  Zn2  1  0.404500  0.892200  0.405100  1
  Zn  Zn3  1  0.594000  0.387700  0.905300  1
  Zn  Zn4  1  0.406000  0.887700  0.094700  1
  Zn  Zn5  1  0.838500  0.236300  0.749500  1
  Zn  Zn6  1  0.161500  0.736300  0.250500  1
  Zn  Zn7  1  0.597900  0.089200  0.602200  1
  Zn  Zn8  1  0.402100  0.589200  0.397800  1
  Zn  Zn9  1  0.349100  0.236500  0.748500  1
  Zn  Zn10  1  0.650900  0.736500  0.251500  1
  Zn  Zn11  1  0.596000  0.087300  0.895600  1
  Zn  Zn12  1  0.404000  0.587300  0.104400  1
  Fe  Fe13  1  0.347200  0.238000  0.435400  1
  Fe  Fe14  1  0.652800  0.738000  0.564600  1
  Fe  Fe15  1  0.848200  0.240100  0.437200  1
  Fe  Fe16  1  0.151800  0.740100  0.562800  1
  Fe  Fe17  1  0.844800  0.549700  0.756800  1
  Fe  Fe18  1  0.155200  0.049700  0.243200  1
  Fe  Fe19  1  0.344100  0.548100  0.747800  1
  Fe  Fe20  1  0.655900  0.048100  0.252200  1
  Fe  Fe21  1  0.347100  0.921400  0.746300  1
  Fe  Fe22  1  0.652900  0.421400  0.253700  1
  Fe  Fe23  1  0.848500  0.921100  0.750800  1
  Fe  Fe24  1  0.151500  0.421100  0.249200  1
  Fe  Fe25  1  0.844900  0.233800  0.066500  1
  Fe  Fe26  1  0.155100  0.733800  0.933500  1
  Fe  Fe27  1  0.344300  0.233400  0.062000  1
  Fe  Fe28  1  0.655700  0.733400  0.938000  1
  H  H29  1  0.012200  0.556800  0.735800  1
  H  H30  1  0.987800  0.056800  0.264200  1
  H  H31  1  0.431500  0.660400  0.795700  1
  H  H32  1  0.568500  0.160400  0.204300  1
  H  H33  1  0.300100  0.637300  0.796900  1
  H  H34  1  0.699900  0.137300  0.203100  1
  H  H35  1  0.190100  0.246400  0.415900  1
  H  H36  1  0.809900  0.746400  0.584100  1
  H  H37  1  0.831900  0.146600  0.320600  1
  H  H38  1  0.168100  0.646600  0.679400  1
  H  H39  1  0.654800  0.493500  0.698200  1
  H  H40  1  0.345200  0.993500  0.301800  1
  H  H41  1  0.572000  0.500900  0.701800  1
  H  H42  1  0.428000  0.000900  0.298200  1
  H  H43  1  0.431000  0.427100  0.635800  1
  H  H44  1  0.569000  0.927100  0.364200  1
  H  H45  1  0.421900  0.375700  0.583600  1
  H  H46  1  0.578100  0.875700  0.416400  1
  H  H47  1  0.533900  0.292500  0.491800  1
  H  H48  1  0.466100  0.792500  0.508200  1
  H  H49  1  0.616600  0.287700  0.484100  1
  H  H50  1  0.383400  0.787700  0.515900  1
  H  H51  1  0.755900  0.358200  0.553400  1
  H  H52  1  0.244100  0.858200  0.446600  1
  H  H53  1  0.765800  0.406200  0.608900  1
  H  H54  1  0.234200  0.906200  0.391100  1
  H  H55  1  0.956600  0.577900  0.782600  1
  H  H56  1  0.043400  0.077900  0.217400  1
  H  H57  1  0.977700  0.515700  0.683200  1
  H  H58  1  0.022300  0.015700  0.316800  1
  H  H59  1  0.889500  0.492300  0.669200  1
  H  H60  1  0.110500  0.992300  0.330800  1
  H  H61  1  0.814800  0.436700  0.714300  1
  H  H62  1  0.185200  0.936700  0.285700  1
  H  H63  1  0.748700  0.408200  0.691000  1
  H  H64  1  0.251300  0.908200  0.309000  1
  H  H65  1  0.717800  0.509900  0.633400  1
  H  H66  1  0.282200  0.009900  0.366600  1
  H  H67  1  0.785100  0.538000  0.654200  1
  H  H68  1  0.214900  0.038000  0.345800  1
  H  H69  1  0.356500  0.684400  0.815300  1
  H  H70  1  0.643500  0.184400  0.184700  1
  H  H71  1  0.458900  0.589100  0.756200  1
  H  H72  1  0.541100  0.089100  0.243800  1
  H  H73  1  0.419400  0.545000  0.670000  1
  H  H74  1  0.580600  0.045000  0.330000  1
  H  H75  1  0.464100  0.502900  0.631500  1
  H  H76  1  0.535900  0.002900  0.368500  1
  H  H77  1  0.513500  0.452300  0.731800  1
  H  H78  1  0.486500  0.952300  0.268200  1
  H  H79  1  0.468600  0.494200  0.770400  1
  H  H80  1  0.531400  0.994200  0.229600  1
  H  H81  1  0.213200  0.302300  0.458500  1
  H  H82  1  0.786800  0.802300  0.541500  1
  H  H83  1  0.253200  0.205000  0.400700  1
  H  H84  1  0.746800  0.705000  0.599300  1
  H  H85  1  0.305300  0.320400  0.491400  1
  H  H86  1  0.694700  0.820400  0.508600  1
  H  H87  1  0.416200  0.321400  0.444200  1
  H  H88  1  0.583800  0.821400  0.555800  1
  H  H89  1  0.480800  0.345100  0.474900  1
  H  H90  1  0.519200  0.845100  0.525100  1
  H  H91  1  0.437600  0.300900  0.580000  1
  H  H92  1  0.562400  0.800900  0.420000  1
  H  H93  1  0.372400  0.277400  0.549600  1
  H  H94  1  0.627600  0.777400  0.450400  1
  H  H95  1  0.886700  0.170700  0.367100  1
  H  H96  1  0.113300  0.670700  0.632900  1
  H  H97  1  0.757700  0.175300  0.335200  1
  H  H98  1  0.242300  0.675300  0.664800  1
  H  H99  1  0.730100  0.231600  0.396500  1
  H  H100  1  0.269900  0.731600  0.603500  1
  H  H101  1  0.720300  0.224800  0.481300  1
  H  H102  1  0.279700  0.724800  0.518700  1
  H  H103  1  0.674600  0.260400  0.524700  1
  H  H104  1  0.325400  0.760400  0.475300  1
  H  H105  1  0.727800  0.363700  0.484800  1
  H  H106  1  0.272200  0.863700  0.515200  1
  H  H107  1  0.773900  0.328400  0.441600  1
  H  H108  1  0.226100  0.828400  0.558400  1
  H  H109  1  0.017300  0.215600  0.432200  1
  H  H110  1  0.982700  0.715600  0.567800  1
  H  H111  1  0.362700  0.326800  0.317400  1
  H  H112  1  0.637300  0.826800  0.682600  1
  H  H113  1  0.185500  0.908800  0.729200  1
  H  H114  1  0.814500  0.408800  0.270800  1
  H  H115  1  0.829900  0.800200  0.841900  1
  H  H116  1  0.170100  0.300200  0.158100  1
  H  H117  1  0.658900  0.183400  0.491400  1
  H  H118  1  0.341100  0.683400  0.508600  1
  H  H119  1  0.576100  0.188300  0.486000  1
  H  H120  1  0.423900  0.688300  0.514000  1
  H  H121  1  0.436900  0.120200  0.557800  1
  H  H122  1  0.563100  0.620200  0.442200  1
  H  H123  1  0.428200  0.068200  0.609500  1
  H  H124  1  0.571800  0.568200  0.390500  1
  H  H125  1  0.538300  0.976900  0.692800  1
  H  H126  1  0.461700  0.476900  0.307200  1
  H  H127  1  0.620200  0.970200  0.698200  1
  H  H128  1  0.379800  0.470200  0.301800  1
  H  H129  1  0.761600  0.039000  0.627800  1
  H  H130  1  0.238400  0.539000  0.372200  1
  H  H131  1  0.770200  0.091700  0.577100  1
  H  H132  1  0.229800  0.591700  0.422900  1
  H  H133  1  0.961000  0.260800  0.408900  1
  H  H134  1  0.039000  0.760800  0.591100  1
  H  H135  1  0.983200  0.164200  0.474900  1
  H  H136  1  0.016800  0.664200  0.525100  1
  H  H137  1  0.892100  0.150400  0.497400  1
  H  H138  1  0.107900  0.650400  0.502600  1
  H  H139  1  0.819600  0.195300  0.549100  1
  H  H140  1  0.180400  0.695300  0.450900  1
  H  H141  1  0.753000  0.172800  0.577600  1
  H  H142  1  0.247000  0.672800  0.422400  1
  H  H143  1  0.720200  0.116900  0.475000  1
  H  H144  1  0.279800  0.616900  0.525000  1
  H  H145  1  0.787300  0.138900  0.446700  1
  H  H146  1  0.212700  0.638900  0.553300  1
  H  H147  1  0.311000  0.301800  0.365300  1
  H  H148  1  0.689000  0.801800  0.634700  1
  H  H149  1  0.438600  0.299800  0.330300  1
  H  H150  1  0.561400  0.799800  0.669700  1
  H  H151  1  0.469800  0.245800  0.394400  1
  H  H152  1  0.530200  0.745800  0.605600  1
  H  H153  1  0.433000  0.154500  0.435000  1
  H  H154  1  0.567000  0.654500  0.565000  1
  H  H155  1  0.474900  0.117000  0.479900  1
  H  H156  1  0.525100  0.617000  0.520100  1
  H  H157  1  0.511100  0.218100  0.537300  1
  H  H158  1  0.488900  0.718100  0.462700  1
  H  H159  1  0.470000  0.255700  0.491700  1
  H  H160  1  0.530000  0.755700  0.508300  1
  H  H161  1  0.213300  0.953000  0.676800  1
  H  H162  1  0.786700  0.453000  0.323200  1
  H  H163  1  0.245300  0.886600  0.770600  1
  H  H164  1  0.754700  0.386600  0.229400  1
  H  H165  1  0.307600  0.979100  0.660400  1
  H  H166  1  0.692400  0.479100  0.339600  1
  H  H167  1  0.419200  0.929300  0.657800  1
  H  H168  1  0.580800  0.429300  0.342200  1
  H  H169  1  0.483600  0.961400  0.635600  1
  H  H170  1  0.516400  0.461400  0.364400  1
  H  H171  1  0.437700  0.065500  0.680700  1
  H  H172  1  0.562300  0.565500  0.319300  1
  H  H173  1  0.372700  0.033500  0.702400  1
  H  H174  1  0.627300  0.533500  0.297600  1
  H  H175  1  0.887800  0.844500  0.821100  1
  H  H176  1  0.112200  0.344500  0.178900  1
  H  H177  1  0.757900  0.818000  0.810700  1
  H  H178  1  0.242100  0.318000  0.189300  1
  H  H179  1  0.733600  0.878600  0.758000  1
  H  H180  1  0.266400  0.378600  0.242000  1
  H  H181  1  0.766200  0.918500  0.660300  1
  H  H182  1  0.233800  0.418500  0.339700  1
  H  H183  1  0.722700  0.963300  0.624300  1
  H  H184  1  0.277300  0.463300  0.375700  1
  H  H185  1  0.684500  0.016000  0.727100  1
  H  H186  1  0.315500  0.516000  0.272900  1
  H  H187  1  0.727200  0.970900  0.763100  1
  H  H188  1  0.272800  0.470900  0.236900  1
  H  H189  1  0.307000  0.640600  0.623000  1
  H  H190  1  0.693000  0.140600  0.377000  1
  H  H191  1  0.308600  0.332900  0.165800  1
  H  H192  1  0.691400  0.832900  0.834200  1
  H  H193  1  0.333200  0.821900  0.857600  1
  H  H194  1  0.666800  0.321900  0.142400  1
  H  H195  1  0.327900  0.116200  0.339800  1
  H  H196  1  0.672100  0.616200  0.660200  1
  H  H197  1  0.336400  0.376800  0.810800  1
  H  H198  1  0.663600  0.876800  0.189200  1
  H  H199  1  0.338600  0.332100  0.869700  1
  H  H200  1  0.661400  0.832100  0.130300  1
  H  H201  1  0.342100  0.174900  0.889600  1
  H  H202  1  0.657900  0.674900  0.110400  1
  H  H203  1  0.343500  0.115600  0.845500  1
  H  H204  1  0.656500  0.615600  0.154500  1
  H  H205  1  0.345800  0.094400  0.687000  1
  H  H206  1  0.654200  0.594400  0.313000  1
  H  H207  1  0.344400  0.139700  0.628800  1
  H  H208  1  0.655600  0.639700  0.371200  1
  H  H209  1  0.336400  0.298400  0.608400  1
  H  H210  1  0.663600  0.798400  0.391600  1
  H  H211  1  0.335400  0.356400  0.654000  1
  H  H212  1  0.664600  0.856400  0.346000  1
  H  H213  1  0.338100  0.649200  0.687900  1
  H  H214  1  0.661900  0.149200  0.312100  1
  H  H215  1  0.294200  0.569500  0.609200  1
  H  H216  1  0.705800  0.069500  0.390800  1
  H  H217  1  0.309800  0.501300  0.654100  1
  H  H218  1  0.690200  0.001300  0.345900  1
  H  H219  1  0.274500  0.459800  0.745800  1
  H  H220  1  0.725500  0.959800  0.254200  1
  H  H221  1  0.277400  0.391400  0.757600  1
  H  H222  1  0.722600  0.891400  0.242400  1
  H  H223  1  0.396900  0.385300  0.700100  1
  H  H224  1  0.603100  0.885300  0.299900  1
  H  H225  1  0.394100  0.453700  0.688200  1
  H  H226  1  0.605900  0.953700  0.311800  1
  H  H227  1  0.338000  0.267000  0.158300  1
  H  H228  1  0.662000  0.767000  0.841700  1
  H  H229  1  0.295600  0.363300  0.100200  1
  H  H230  1  0.704400  0.863300  0.899800  1
  H  H231  1  0.313800  0.330600  0.020000  1
  H  H232  1  0.686200  0.830600  0.980000  1
  H  H233  1  0.278200  0.242300  0.972400  1
  H  H234  1  0.721800  0.742300  0.027600  1
  H  H235  1  0.281700  0.228900  0.904700  1
  H  H236  1  0.718300  0.728900  0.095300  1
  H  H237  1  0.400900  0.286200  0.898400  1
  H  H238  1  0.599100  0.786200  0.101600  1
  H  H239  1  0.398000  0.299000  0.966200  1
  H  H240  1  0.602000  0.799000  0.033800  1
  H  H241  1  0.329000  0.890700  0.883400  1
  H  H242  1  0.671000  0.390700  0.116600  1
  H  H243  1  0.343000  0.822200  0.787300  1
  H  H244  1  0.657000  0.322200  0.212700  1
  H  H245  1  0.332600  0.965200  0.843700  1
  H  H246  1  0.667400  0.465200  0.156300  1
  H  H247  1  0.279500  0.012400  0.754800  1
  H  H248  1  0.720500  0.512400  0.245200  1
  H  H249  1  0.282200  0.080900  0.745000  1
  H  H250  1  0.717800  0.580900  0.255000  1
  H  H251  1  0.405700  0.084800  0.795100  1
  H  H252  1  0.594300  0.584800  0.204900  1
  H  H253  1  0.403100  0.016200  0.805500  1
  H  H254  1  0.596900  0.516200  0.194500  1
  H  H255  1  0.340900  0.186100  0.333300  1
  H  H256  1  0.659100  0.686100  0.666700  1
  H  H257  1  0.323000  0.096800  0.410200  1
  H  H258  1  0.677000  0.596800  0.589800  1
  H  H259  1  0.329500  0.140600  0.479300  1
  H  H260  1  0.670500  0.640600  0.520700  1
  H  H261  1  0.398800  0.173700  0.531800  1
  H  H262  1  0.601200  0.673700  0.468200  1
  H  H263  1  0.400300  0.184000  0.600400  1
  H  H264  1  0.599700  0.684000  0.399600  1
  H  H265  1  0.279400  0.238700  0.594500  1
  H  H266  1  0.720600  0.738700  0.405500  1
  H  H267  1  0.278000  0.229200  0.526000  1
  H  H268  1  0.722000  0.729200  0.474000  1
  H  H269  1  0.361900  0.125900  0.172700  1
  H  H270  1  0.638100  0.625900  0.827300  1
  H  H271  1  0.171300  0.536800  0.770100  1
  H  H272  1  0.828700  0.036800  0.229900  1
  H  H273  1  0.841400  0.668000  0.676500  1
  H  H274  1  0.158600  0.168000  0.323500  1
  H  H275  1  0.004000  0.259400  0.078700  1
  H  H276  1  0.996000  0.759400  0.921300  1
  H  H277  1  0.429300  0.350300  0.945700  1
  H  H278  1  0.570700  0.850300  0.054300  1
  H  H279  1  0.420200  0.403000  0.894600  1
  H  H280  1  0.579800  0.903000  0.105400  1
  H  H281  1  0.531500  0.489800  0.806900  1
  H  H282  1  0.468500  0.989800  0.193100  1
  H  H283  1  0.613700  0.498800  0.802900  1
  H  H284  1  0.386300  0.998800  0.197100  1
  H  H285  1  0.756400  0.427800  0.872600  1
  H  H286  1  0.243600  0.927800  0.127400  1
  H  H287  1  0.765000  0.375400  0.923900  1
  H  H288  1  0.235000  0.875400  0.076100  1
  H  H289  1  0.652700  0.290700  0.014700  1
  H  H290  1  0.347300  0.790700  0.985300  1
  H  H291  1  0.570000  0.285900  0.021800  1
  H  H292  1  0.430000  0.785900  0.978200  1
  H  H293  1  0.302900  0.150300  0.131500  1
  H  H294  1  0.697100  0.650300  0.868500  1
  H  H295  1  0.433000  0.159300  0.156700  1
  H  H296  1  0.567000  0.659300  0.843300  1
  H  H297  1  0.455700  0.217400  0.100700  1
  H  H298  1  0.544300  0.717400  0.899300  1
  H  H299  1  0.417600  0.318000  0.064300  1
  H  H300  1  0.582400  0.818000  0.935700  1
  H  H301  1  0.460800  0.356000  0.020500  1
  H  H302  1  0.539200  0.856000  0.979500  1
  H  H303  1  0.510800  0.255000  0.971900  1
  H  H304  1  0.489200  0.755000  0.028100  1
  H  H305  1  0.466200  0.217000  0.014300  1
  H  H306  1  0.533800  0.717000  0.985700  1
  H  H307  1  0.221600  0.572000  0.727600  1
  H  H308  1  0.778400  0.072000  0.272400  1
  H  H309  1  0.212700  0.494900  0.817300  1
  H  H310  1  0.787300  0.994900  0.182700  1
  H  H311  1  0.305600  0.482000  0.826700  1
  H  H312  1  0.694400  0.982000  0.173300  1
  H  H313  1  0.377100  0.437200  0.785600  1
  H  H314  1  0.622900  0.937200  0.214400  1
  H  H315  1  0.440800  0.406800  0.811700  1
  H  H316  1  0.559200  0.906800  0.188300  1
  H  H317  1  0.469400  0.506800  0.873900  1
  H  H318  1  0.530600  0.006800  0.126100  1
  H  H319  1  0.407000  0.537900  0.846200  1
  H  H320  1  0.593000  0.037900  0.153800  1
  H  H321  1  0.763400  0.655400  0.697600  1
  H  H322  1  0.236600  0.155400  0.302400  1
  H  H323  1  0.890500  0.618200  0.702300  1
  H  H324  1  0.109500  0.118200  0.297700  1
  H  H325  1  0.728000  0.589800  0.749700  1
  H  H326  1  0.272000  0.089800  0.250300  1
  H  H327  1  0.765100  0.547800  0.844200  1
  H  H328  1  0.234900  0.047800  0.155800  1
  H  H329  1  0.719200  0.503900  0.878800  1
  H  H330  1  0.280800  0.003900  0.121200  1
  H  H331  1  0.680800  0.453400  0.775200  1
  H  H332  1  0.319200  0.953400  0.224800  1
  H  H333  1  0.726200  0.497300  0.740300  1
  H  H334  1  0.273800  0.997300  0.259700  1
  H  H335  1  0.947900  0.213200  0.100000  1
  H  H336  1  0.052100  0.713200  0.900000  1
  H  H337  1  0.970300  0.311500  0.036400  1
  H  H338  1  0.029700  0.811500  0.963600  1
  H  H339  1  0.876300  0.323000  0.012000  1
  H  H340  1  0.123700  0.823000  0.988000  1
  H  H341  1  0.815000  0.278100  0.959300  1
  H  H342  1  0.185000  0.778100  0.040700  1
  H  H343  1  0.752600  0.304600  0.926700  1
  H  H344  1  0.247400  0.804600  0.073300  1
  H  H345  1  0.705200  0.346800  0.031400  1
  H  H346  1  0.294800  0.846800  0.968600  1
  H  H347  1  0.766700  0.319500  0.064100  1
  H  H348  1  0.233300  0.819500  0.935900  1
  H  H349  1  0.173100  0.200900  0.058900  1
  H  H350  1  0.826900  0.700900  0.941100  1
  H  H351  1  0.353800  0.808200  0.650400  1
  H  H352  1  0.646200  0.308200  0.349600  1
  H  H353  1  0.015000  0.915400  0.780200  1
  H  H354  1  0.985000  0.415400  0.219800  1
  H  H355  1  0.835600  0.308900  0.189600  1
  H  H356  1  0.164400  0.808900  0.810400  1
  H  H357  1  0.426900  0.091400  0.916900  1
  H  H358  1  0.573100  0.591400  0.083100  1
  H  H359  1  0.434700  0.040000  0.864300  1
  H  H360  1  0.565300  0.540000  0.135700  1
  H  H361  1  0.575900  0.965900  0.800200  1
  H  H362  1  0.424100  0.465900  0.199800  1
  H  H363  1  0.658300  0.973300  0.804900  1
  H  H364  1  0.341700  0.473300  0.195100  1
  H  H365  1  0.770700  0.064100  0.890400  1
  H  H366  1  0.229300  0.564100  0.109600  1
  H  H367  1  0.760600  0.114200  0.943600  1
  H  H368  1  0.239400  0.614200  0.056400  1
  H  H369  1  0.619800  0.182000  0.013000  1
  H  H370  1  0.380200  0.682000  0.987000  1
  H  H371  1  0.537100  0.177400  0.006800  1
  H  H372  1  0.462900  0.677400  0.993200  1
  H  H373  1  0.223900  0.248700  0.086100  1
  H  H374  1  0.776100  0.748700  0.913900  1
  H  H375  1  0.213600  0.152400  0.017600  1
  H  H376  1  0.786400  0.652400  0.982400  1
  H  H377  1  0.307000  0.146800  0.998200  1
  H  H378  1  0.693000  0.646800  0.001800  1
  H  H379  1  0.407600  0.136100  0.047800  1
  H  H380  1  0.592400  0.636100  0.952200  1
  H  H381  1  0.473800  0.113200  0.019700  1
  H  H382  1  0.526200  0.613200  0.980300  1
  H  H383  1  0.443200  0.171000  0.917600  1
  H  H384  1  0.556800  0.671000  0.082400  1
  H  H385  1  0.378100  0.195800  0.946700  1
  H  H386  1  0.621900  0.695800  0.053300  1
  H  H387  1  0.302900  0.859000  0.671200  1
  H  H388  1  0.697100  0.359000  0.328800  1
  H  H389  1  0.427800  0.818100  0.681200  1
  H  H390  1  0.572200  0.318100  0.318800  1
  H  H391  1  0.460900  0.878400  0.734400  1
  H  H392  1  0.539100  0.378400  0.265600  1
  H  H393  1  0.465900  0.977300  0.729300  1
  H  H394  1  0.534100  0.477300  0.270700  1
  H  H395  1  0.509100  0.020200  0.768200  1
  H  H396  1  0.490900  0.520200  0.231800  1
  H  H397  1  0.473100  0.959400  0.867300  1
  H  H398  1  0.526900  0.459400  0.132700  1
  H  H399  1  0.428900  0.917200  0.828600  1
  H  H400  1  0.571100  0.417200  0.171400  1
  H  H401  1  0.976700  0.957200  0.830200  1
  H  H402  1  0.023300  0.457200  0.169800  1
  H  H403  1  0.962000  0.889800  0.733500  1
  H  H404  1  0.038000  0.389800  0.266500  1
  H  H405  1  0.882400  0.976200  0.839800  1
  H  H406  1  0.117600  0.476200  0.160200  1
  H  H407  1  0.770100  0.921800  0.837600  1
  H  H408  1  0.229900  0.421800  0.162400  1
  H  H409  1  0.706700  0.955800  0.859400  1
  H  H410  1  0.293300  0.455800  0.140600  1
  H  H411  1  0.759500  0.059100  0.818600  1
  H  H412  1  0.240500  0.559100  0.181400  1
  H  H413  1  0.823400  0.025400  0.797400  1
  H  H414  1  0.176600  0.525400  0.202600  1
  H  H415  1  0.889000  0.286100  0.142100  1
  H  H416  1  0.111000  0.786100  0.857900  1
  H  H417  1  0.759500  0.285600  0.172400  1
  H  H418  1  0.240500  0.785600  0.827600  1
  H  H419  1  0.728000  0.238200  0.106500  1
  H  H420  1  0.272000  0.738200  0.893500  1
  H  H421  1  0.731700  0.247700  0.006700  1
  H  H422  1  0.268300  0.747700  0.993300  1
  H  H423  1  0.691400  0.210900  0.960000  1
  H  H424  1  0.308600  0.710900  0.040000  1
  H  H425  1  0.715200  0.110300  0.022700  1
  H  H426  1  0.284800  0.610300  0.977300  1
  H  H427  1  0.756700  0.146700  0.068700  1
  H  H428  1  0.243300  0.646700  0.931300  1
  H  H429  1  0.864300  0.354100  0.341400  1
  H  H430  1  0.135700  0.854100  0.658600  1
  H  H431  1  0.871100  0.827400  0.630600  1
  H  H432  1  0.128900  0.327400  0.369400  1
  H  H433  1  0.894100  0.117200  0.157300  1
  H  H434  1  0.105900  0.617200  0.842700  1
  H  H435  1  0.893500  0.641700  0.867200  1
  H  H436  1  0.106500  0.141700  0.132800  1
  H  H437  1  0.846700  0.174800  0.609600  1
  H  H438  1  0.153300  0.674800  0.390400  1
  H  H439  1  0.845500  0.115800  0.653800  1
  H  H440  1  0.154500  0.615800  0.346200  1
  H  H441  1  0.845000  0.093000  0.811700  1
  H  H442  1  0.155000  0.593000  0.188300  1
  H  H443  1  0.845000  0.137000  0.871300  1
  H  H444  1  0.155000  0.637000  0.128700  1
  H  H445  1  0.841200  0.296000  0.893100  1
  H  H446  1  0.158800  0.796000  0.106900  1
  H  H447  1  0.844900  0.355000  0.849400  1
  H  H448  1  0.155100  0.855000  0.150600  1
  H  H449  1  0.849400  0.377500  0.691100  1
  H  H450  1  0.150600  0.877500  0.308900  1
  H  H451  1  0.853800  0.333400  0.632200  1
  H  H452  1  0.146200  0.833400  0.367800  1
  H  H453  1  0.852600  0.283500  0.339700  1
  H  H454  1  0.147400  0.783500  0.660300  1
  H  H455  1  0.871200  0.377400  0.410700  1
  H  H456  1  0.128800  0.877400  0.589300  1
  H  H457  1  0.866500  0.335200  0.483900  1
  H  H458  1  0.133500  0.835200  0.516100  1
  H  H459  1  0.919200  0.250300  0.529900  1
  H  H460  1  0.080800  0.750300  0.470100  1
  H  H461  1  0.915700  0.238700  0.598000  1
  H  H462  1  0.084300  0.738700  0.402000  1
  H  H463  1  0.789300  0.283000  0.600100  1
  H  H464  1  0.210700  0.783000  0.399900  1
  H  H465  1  0.793000  0.294900  0.532100  1
  H  H466  1  0.207000  0.794900  0.467900  1
  H  H467  1  0.859800  0.822100  0.700500  1
  H  H468  1  0.140200  0.322100  0.299500  1
  H  H469  1  0.872100  0.898000  0.610100  1
  H  H470  1  0.127900  0.398000  0.389900  1
  H  H471  1  0.862900  0.968800  0.655200  1
  H  H472  1  0.137100  0.468800  0.344800  1
  H  H473  1  0.914600  0.013600  0.740700  1
  H  H474  1  0.085400  0.513600  0.259300  1
  H  H475  1  0.910200  0.081800  0.752500  1
  H  H476  1  0.089800  0.581800  0.247500  1
  H  H477  1  0.784300  0.082800  0.706900  1
  H  H478  1  0.215700  0.582800  0.293100  1
  H  H479  1  0.788600  0.014600  0.695400  1
  H  H480  1  0.211400  0.514600  0.304600  1
  H  H481  1  0.908300  0.101800  0.086500  1
  H  H482  1  0.091700  0.601800  0.913500  1
  H  H483  1  0.852900  0.177700  0.163200  1
  H  H484  1  0.147100  0.677700  0.836800  1
  H  H485  1  0.883500  0.142300  0.016400  1
  H  H486  1  0.116500  0.642300  0.983600  1
  H  H487  1  0.909200  0.224600  0.974100  1
  H  H488  1  0.090800  0.724600  0.025900  1
  H  H489  1  0.905000  0.239900  0.906600  1
  H  H490  1  0.095000  0.739900  0.093400  1
  H  H491  1  0.783600  0.185700  0.900700  1
  H  H492  1  0.216400  0.685700  0.099300  1
  H  H493  1  0.787300  0.171300  0.968300  1
  H  H494  1  0.212700  0.671300  0.031700  1
  H  H495  1  0.855300  0.644800  0.804700  1
  H  H496  1  0.144700  0.144800  0.195300  1
  H  H497  1  0.906400  0.571900  0.887100  1
  H  H498  1  0.093600  0.071900  0.112900  1
  H  H499  1  0.885500  0.499300  0.848200  1
  H  H500  1  0.114500  0.999300  0.151800  1
  H  H501  1  0.914200  0.458200  0.765900  1
  H  H502  1  0.085800  0.958200  0.234100  1
  H  H503  1  0.911200  0.390200  0.752000  1
  H  H504  1  0.088800  0.890200  0.248000  1
  H  H505  1  0.785200  0.385400  0.797600  1
  H  H506  1  0.214800  0.885400  0.202400  1
  H  H507  1  0.788800  0.453300  0.812400  1
  H  H508  1  0.211200  0.953300  0.187600  1
  H  H509  1  0.618100  0.174000  0.716000  1
  H  H510  1  0.381900  0.674000  0.284000  1
  H  H511  1  0.566500  0.185600  0.709000  1
  H  H512  1  0.433500  0.685600  0.291000  1
  H  H513  1  0.605400  0.210000  0.686800  1
  H  H514  1  0.394600  0.710000  0.313200  1
  H  H515  1  0.490000  0.096400  0.753500  1
  H  H516  1  0.510000  0.596400  0.246500  1
  H  H517  1  0.515700  0.134400  0.738700  1
  H  H518  1  0.484300  0.634400  0.261300  1
  H  H519  1  0.463300  0.131800  0.734400  1
  H  H520  1  0.536700  0.631800  0.265600  1
  C  C521  1  0.403000  0.647600  0.792000  1
  C  C522  1  0.597000  0.147600  0.208000  1
  C  C523  1  0.331000  0.634000  0.793000  1
  C  C524  1  0.669000  0.134000  0.207000  1
  C  C525  1  0.693600  0.408000  0.611800  1
  C  C526  1  0.306400  0.908000  0.388200  1
  C  C527  1  0.685900  0.436800  0.641700  1
  C  C528  1  0.314100  0.936800  0.358300  1
  C  C529  1  0.642400  0.448400  0.653900  1
  C  C530  1  0.357600  0.948400  0.346100  1
  C  C531  1  0.633200  0.478900  0.683300  1
  C  C532  1  0.366800  0.978900  0.316700  1
  C  C533  1  0.588100  0.482700  0.685500  1
  C  C534  1  0.411900  0.982700  0.314500  1
  C  C535  1  0.568900  0.453900  0.658200  1
  C  C536  1  0.431100  0.953900  0.341800  1
  C  C537  1  0.522700  0.447600  0.653200  1
  C  C538  1  0.477300  0.947600  0.346800  1
  C  C539  1  0.502000  0.419700  0.627500  1
  C  C540  1  0.498000  0.919700  0.372500  1
  C  C541  1  0.454500  0.413800  0.622000  1
  C  C542  1  0.545500  0.913800  0.378000  1
  C  C543  1  0.449600  0.385800  0.593500  1
  C  C544  1  0.550400  0.885800  0.406500  1
  C  C545  1  0.494000  0.373900  0.580800  1
  C  C546  1  0.506000  0.873900  0.419200  1
  C  C547  1  0.503800  0.346200  0.550800  1
  C  C548  1  0.496200  0.846200  0.449200  1
  C  C549  1  0.546800  0.335300  0.537400  1
  C  C550  1  0.453200  0.835300  0.462600  1
  C  C551  1  0.555700  0.306900  0.506600  1
  C  C552  1  0.444300  0.806900  0.493400  1
  C  C553  1  0.600700  0.304200  0.502300  1
  C  C554  1  0.399300  0.804200  0.497700  1
  C  C555  1  0.620100  0.331800  0.530900  1
  C  C556  1  0.379900  0.831800  0.469100  1
  C  C557  1  0.665800  0.338400  0.535900  1
  C  C558  1  0.334200  0.838400  0.464100  1
  C  C559  1  0.685000  0.364700  0.563600  1
  C  C560  1  0.315000  0.864700  0.436400  1
  C  C561  1  0.732700  0.370500  0.568500  1
  C  C562  1  0.267300  0.870500  0.431500  1
  C  C563  1  0.738000  0.396800  0.598500  1
  C  C564  1  0.262000  0.896800  0.401500  1
  C  C565  1  0.951000  0.561900  0.759800  1
  C  C566  1  0.049000  0.061900  0.240200  1
  C  C567  1  0.963500  0.528000  0.705400  1
  C  C568  1  0.036500  0.028000  0.294600  1
  C  C569  1  0.919100  0.526400  0.714800  1
  C  C570  1  0.080900  0.026400  0.285200  1
  C  C571  1  0.883300  0.506400  0.693100  1
  C  C572  1  0.116700  0.006400  0.306900  1
  C  C573  1  0.806000  0.490800  0.687600  1
  C  C574  1  0.194000  0.990800  0.312400  1
  C  C575  1  0.795200  0.451700  0.697800  1
  C  C576  1  0.204800  0.951700  0.302200  1
  C  C577  1  0.755800  0.434800  0.683800  1
  C  C578  1  0.244200  0.934800  0.316200  1
  C  C579  1  0.726500  0.455800  0.659400  1
  C  C580  1  0.273500  0.955800  0.340600  1
  C  C581  1  0.737800  0.494800  0.649400  1
  C  C582  1  0.262200  0.994800  0.350600  1
  C  C583  1  0.777400  0.511800  0.662400  1
  C  C584  1  0.222600  0.011800  0.337600  1
  C  C585  1  0.396000  0.611600  0.775000  1
  C  C586  1  0.604000  0.111600  0.225000  1
  C  C587  1  0.428000  0.583600  0.757300  1
  C  C588  1  0.572000  0.083600  0.242700  1
  C  C589  1  0.440200  0.523900  0.723800  1
  C  C590  1  0.559800  0.023900  0.276200  1
  C  C591  1  0.439000  0.526200  0.682500  1
  C  C592  1  0.561000  0.026200  0.317500  1
  C  C593  1  0.465000  0.501200  0.659700  1
  C  C594  1  0.535000  0.001200  0.340300  1
  C  C595  1  0.493500  0.473800  0.677900  1
  C  C596  1  0.506500  0.973800  0.322100  1
  C  C597  1  0.494000  0.471200  0.719300  1
  C  C598  1  0.506000  0.971200  0.280700  1
  C  C599  1  0.468000  0.496100  0.742200  1
  C  C600  1  0.532000  0.996100  0.257800  1
  C  C601  1  0.231500  0.281600  0.448000  1
  C  C602  1  0.768500  0.781600  0.552000  1
  C  C603  1  0.254000  0.228500  0.416400  1
  C  C604  1  0.746000  0.728500  0.583600  1
  C  C605  1  0.275500  0.277200  0.453400  1
  C  C606  1  0.724500  0.777200  0.546600  1
  C  C607  1  0.311000  0.297500  0.475600  1
  C  C608  1  0.689000  0.797500  0.524400  1
  C  C609  1  0.387600  0.297300  0.493800  1
  C  C610  1  0.612400  0.797300  0.506200  1
  C  C611  1  0.420300  0.317000  0.472000  1
  C  C612  1  0.579700  0.817000  0.528000  1
  C  C613  1  0.458600  0.331800  0.490200  1
  C  C614  1  0.541400  0.831800  0.509800  1
  C  C615  1  0.464900  0.326800  0.531000  1
  C  C616  1  0.535100  0.826800  0.469000  1
  C  C617  1  0.432900  0.305600  0.552500  1
  C  C618  1  0.567100  0.805600  0.447500  1
  C  C619  1  0.394300  0.291000  0.534400  1
  C  C620  1  0.605700  0.791000  0.465600  1
  C  C621  1  0.856000  0.178000  0.366000  1
  C  C622  1  0.144000  0.678000  0.634000  1
  C  C623  1  0.785000  0.180000  0.348600  1
  C  C624  1  0.215000  0.680000  0.651400  1
  C  C625  1  0.792000  0.204600  0.380100  1
  C  C626  1  0.208000  0.704600  0.619900  1
  C  C627  1  0.761000  0.229800  0.402800  1
  C  C628  1  0.239000  0.729800  0.597200  1
  C  C629  1  0.751700  0.273100  0.457000  1
  C  C630  1  0.248300  0.773100  0.543000  1
  C  C631  1  0.722000  0.253000  0.482000  1
  C  C632  1  0.278000  0.753000  0.518000  1
  C  C633  1  0.695000  0.274300  0.507700  1
  C  C634  1  0.305000  0.774300  0.492300  1
  C  C635  1  0.696500  0.315600  0.509300  1
  C  C636  1  0.303500  0.815600  0.490700  1
  C  C637  1  0.726000  0.335400  0.484200  1
  C  C638  1  0.274000  0.835400  0.515800  1
  C  C639  1  0.754000  0.314400  0.458400  1
  C  C640  1  0.246000  0.814400  0.541600  1
  C  C641  1  0.698100  0.096800  0.578500  1
  C  C642  1  0.301900  0.596800  0.421500  1
  C  C643  1  0.689400  0.125900  0.549000  1
  C  C644  1  0.310600  0.625900  0.451000  1
  C  C645  1  0.647100  0.139700  0.537100  1
  C  C646  1  0.352900  0.639700  0.462900  1
  C  C647  1  0.637500  0.168900  0.506600  1
  C  C648  1  0.362500  0.668900  0.493400  1
  C  C649  1  0.592400  0.171700  0.503800  1
  C  C650  1  0.407600  0.671700  0.496200  1
  C  C651  1  0.573400  0.144700  0.532700  1
  C  C652  1  0.426600  0.644700  0.467300  1
  C  C653  1  0.527200  0.139400  0.538800  1
  C  C654  1  0.472800  0.639400  0.461200  1
  C  C655  1  0.508100  0.113200  0.566400  1
  C  C656  1  0.491900  0.613200  0.433600  1
  C  C657  1  0.460500  0.106900  0.571600  1
  C  C658  1  0.539500  0.606900  0.428400  1
  C  C659  1  0.455800  0.078600  0.599700  1
  C  C660  1  0.544200  0.578600  0.400300  1
  C  C661  1  0.500200  0.067000  0.612300  1
  C  C662  1  0.499800  0.567000  0.387700  1
  C  C663  1  0.507900  0.036800  0.639900  1
  C  C664  1  0.492100  0.536800  0.360100  1
  C  C665  1  0.550600  0.024300  0.651800  1
  C  C666  1  0.449400  0.524300  0.348200  1
  C  C667  1  0.560100  0.992500  0.679100  1
  C  C668  1  0.439900  0.492500  0.320900  1
  C  C669  1  0.604400  0.988800  0.682100  1
  C  C670  1  0.395600  0.488800  0.317900  1
  C  C671  1  0.624200  0.018700  0.655800  1
  C  C672  1  0.375800  0.518700  0.344200  1
  C  C673  1  0.670200  0.022700  0.649600  1
  C  C674  1  0.329800  0.522700  0.350400  1
  C  C675  1  0.690600  0.050300  0.623800  1
  C  C676  1  0.309400  0.550300  0.376200  1
  C  C677  1  0.738200  0.053900  0.615800  1
  C  C678  1  0.261800  0.553900  0.384200  1
  C  C679  1  0.742700  0.082500  0.588200  1
  C  C680  1  0.257300  0.582500  0.411800  1
  C  C681  1  0.956000  0.238600  0.425800  1
  C  C682  1  0.044000  0.738600  0.574200  1
  C  C683  1  0.968600  0.185700  0.461800  1
  C  C684  1  0.031400  0.685700  0.538200  1
  C  C685  1  0.924400  0.194400  0.462700  1
  C  C686  1  0.075600  0.694400  0.537300  1
  C  C687  1  0.887200  0.174100  0.482400  1
  C  C688  1  0.112800  0.674100  0.517600  1
  C  C689  1  0.809400  0.169900  0.494800  1
  C  C690  1  0.190600  0.669900  0.505200  1
  C  C691  1  0.799300  0.179400  0.534000  1
  C  C692  1  0.200700  0.679400  0.466000  1
  C  C693  1  0.759900  0.165900  0.550900  1
  C  C694  1  0.240100  0.665900  0.449100  1
  C  C695  1  0.730200  0.142400  0.529300  1
  C  C696  1  0.269800  0.642400  0.470700  1
  C  C697  1  0.740500  0.132700  0.490100  1
  C  C698  1  0.259500  0.632700  0.509900  1
  C  C699  1  0.780100  0.146100  0.473300  1
  C  C700  1  0.219900  0.646100  0.526700  1
  C  C701  1  0.342200  0.295600  0.364000  1
  C  C702  1  0.657800  0.795600  0.636000  1
  C  C703  1  0.412000  0.294800  0.344700  1
  C  C704  1  0.588000  0.794800  0.655300  1
  C  C705  1  0.407200  0.270900  0.377300  1
  C  C706  1  0.592800  0.770900  0.622700  1
  C  C707  1  0.438700  0.247200  0.400700  1
  C  C708  1  0.561300  0.747200  0.599300  1
  C  C709  1  0.448100  0.208600  0.458700  1
  C  C710  1  0.551900  0.708600  0.541300  1
  C  C711  1  0.449000  0.167500  0.455600  1
  C  C712  1  0.551000  0.667500  0.544400  1
  C  C713  1  0.474000  0.145200  0.482300  1
  C  C714  1  0.526000  0.645200  0.517700  1
  C  C715  1  0.498000  0.164100  0.512700  1
  C  C716  1  0.502000  0.664100  0.487300  1
  C  C717  1  0.496000  0.205200  0.516200  1
  C  C718  1  0.504000  0.705200  0.483800  1
  C  C719  1  0.471000  0.227600  0.489300  1
  C  C720  1  0.529000  0.727600  0.510700  1
  C  C721  1  0.230100  0.939900  0.696900  1
  C  C722  1  0.769900  0.439900  0.303100  1
  C  C723  1  0.248000  0.903800  0.748200  1
  C  C724  1  0.752000  0.403800  0.251800  1
  C  C725  1  0.275500  0.941700  0.702700  1
  C  C726  1  0.724500  0.441700  0.297300  1
  C  C727  1  0.312500  0.962500  0.682900  1
  C  C728  1  0.687500  0.462500  0.317100  1
  C  C729  1  0.389600  0.978000  0.682500  1
  C  C730  1  0.610400  0.478000  0.317500  1
  C  C731  1  0.422800  0.957000  0.662400  1
  C  C732  1  0.577200  0.457000  0.337600  1
  C  C733  1  0.461100  0.976200  0.649200  1
  C  C734  1  0.538900  0.476200  0.350800  1
  C  C735  1  0.467200  0.016900  0.655600  1
  C  C736  1  0.532800  0.516900  0.344400  1
  C  C737  1  0.433900  0.037800  0.675800  1
  C  C738  1  0.566100  0.537800  0.324200  1
  C  C739  1  0.395300  0.018800  0.688900  1
  C  C740  1  0.604700  0.518800  0.311100  1
  C  C741  1  0.857000  0.845500  0.812900  1
  C  C742  1  0.143000  0.345500  0.187100  1
  C  C743  1  0.786000  0.830600  0.807500  1
  C  C744  1  0.214000  0.330600  0.192500  1
  C  C745  1  0.796000  0.863300  0.784000  1
  C  C746  1  0.204000  0.363300  0.216000  1
  C  C747  1  0.764000  0.885900  0.759200  1
  C  C748  1  0.236000  0.385900  0.240800  1
  C  C749  1  0.751400  0.940100  0.715300  1
  C  C750  1  0.248600  0.440100  0.284700  1
  C  C751  1  0.750000  0.938300  0.674000  1
  C  C752  1  0.250000  0.438300  0.326000  1
  C  C753  1  0.724000  0.965000  0.652500  1
  C  C754  1  0.276000  0.465000  0.347500  1
  C  C755  1  0.699100  0.994400  0.672000  1
  C  C756  1  0.300900  0.494400  0.328000  1
  C  C757  1  0.701000  0.996000  0.713400  1
  C  C758  1  0.299000  0.496000  0.286600  1
  C  C759  1  0.727000  0.969400  0.734900  1
  C  C760  1  0.273000  0.469400  0.265100  1
  C  C761  1  0.341600  0.313800  0.701800  1
  C  C762  1  0.658400  0.813800  0.298200  1
  C  C763  1  0.340200  0.337600  0.735900  1
  C  C764  1  0.659800  0.837600  0.264100  1
  C  C765  1  0.341400  0.323600  0.775500  1
  C  C766  1  0.658600  0.823600  0.224500  1
  C  C767  1  0.339000  0.348500  0.810500  1
  C  C768  1  0.661000  0.848500  0.189500  1
  C  C769  1  0.340000  0.324200  0.842600  1
  C  C770  1  0.660000  0.824200  0.157400  1
  C  C771  1  0.343100  0.284100  0.827700  1
  C  C772  1  0.656900  0.784100  0.172300  1
  C  C773  1  0.343600  0.249500  0.850800  1
  C  C774  1  0.656400  0.749500  0.149200  1
  C  C775  1  0.344800  0.209900  0.836500  1
  C  C776  1  0.655200  0.709900  0.163500  1
  C  C777  1  0.343000  0.175100  0.861300  1
  C  C778  1  0.657000  0.675100  0.138700  1
  C  C779  1  0.344000  0.142700  0.837300  1
  C  C780  1  0.656000  0.642700  0.162700  1
  C  C781  1  0.346000  0.157200  0.796800  1
  C  C782  1  0.654000  0.657200  0.203200  1
  C  C783  1  0.346000  0.133500  0.762400  1
  C  C784  1  0.654000  0.633500  0.237600  1
  C  C785  1  0.346900  0.147300  0.722800  1
  C  C786  1  0.653100  0.647300  0.277200  1
  C  C787  1  0.345900  0.122700  0.687700  1
  C  C788  1  0.654100  0.622700  0.312300  1
  C  C789  1  0.345200  0.147300  0.656000  1
  C  C790  1  0.654800  0.647300  0.344000  1
  C  C791  1  0.345800  0.187800  0.671300  1
  C  C792  1  0.654200  0.687800  0.328700  1
  C  C793  1  0.343400  0.222200  0.647600  1
  C  C794  1  0.656600  0.722200  0.352400  1
  C  C795  1  0.342800  0.262300  0.660900  1
  C  C796  1  0.657200  0.762300  0.339100  1
  C  C797  1  0.338500  0.297600  0.636600  1
  C  C798  1  0.661500  0.797600  0.363400  1
  C  C799  1  0.337900  0.329200  0.661500  1
  C  C800  1  0.662100  0.829200  0.338500  1
  C  C801  1  0.330000  0.624400  0.676000  1
  C  C802  1  0.670000  0.124400  0.324000  1
  C  C803  1  0.306000  0.581200  0.632600  1
  C  C804  1  0.694000  0.081200  0.367400  1
  C  C805  1  0.320000  0.561700  0.666300  1
  C  C806  1  0.680000  0.061700  0.333700  1
  C  C807  1  0.320200  0.519000  0.674100  1
  C  C808  1  0.679800  0.019000  0.325900  1
  C  C809  1  0.333800  0.463400  0.715500  1
  C  C810  1  0.666200  0.963400  0.284500  1
  C  C811  1  0.299300  0.444700  0.736400  1
  C  C812  1  0.700700  0.944700  0.263600  1
  C  C813  1  0.301100  0.404000  0.743400  1
  C  C814  1  0.698900  0.904000  0.256600  1
  C  C815  1  0.337100  0.381400  0.730000  1
  C  C816  1  0.662900  0.881400  0.270000  1
  C  C817  1  0.372000  0.400400  0.709300  1
  C  C818  1  0.628000  0.900400  0.290700  1
  C  C819  1  0.370300  0.441000  0.702200  1
  C  C820  1  0.629700  0.941000  0.297800  1
  C  C821  1  0.331000  0.285000  0.137200  1
  C  C822  1  0.669000  0.785000  0.862800  1
  C  C823  1  0.307000  0.337600  0.105900  1
  C  C824  1  0.693000  0.837600  0.894100  1
  C  C825  1  0.320800  0.309400  0.078800  1
  C  C826  1  0.679200  0.809400  0.921200  1
  C  C827  1  0.323000  0.308200  0.035300  1
  C  C828  1  0.677000  0.808200  0.964700  1
  C  C829  1  0.338000  0.271400  0.976400  1
  C  C830  1  0.662000  0.771400  0.023600  1
  C  C831  1  0.303400  0.251000  0.957500  1
  C  C832  1  0.696600  0.751000  0.042500  1
  C  C833  1  0.305400  0.243200  0.917100  1
  C  C834  1  0.694600  0.743200  0.082900  1
  C  C835  1  0.341600  0.256200  0.894500  1
  C  C836  1  0.658400  0.756200  0.105500  1
  C  C837  1  0.375900  0.277000  0.913500  1
  C  C838  1  0.624100  0.777000  0.086500  1
  C  C839  1  0.374300  0.284600  0.953800  1
  C  C840  1  0.625700  0.784600  0.046200  1
  C  C841  1  0.333000  0.882200  0.856600  1
  C  C842  1  0.667000  0.382200  0.143400  1
  C  C843  1  0.341000  0.845200  0.803700  1
  C  C844  1  0.659000  0.345200  0.196300  1
  C  C845  1  0.337200  0.905900  0.823500  1
  C  C846  1  0.662800  0.405900  0.176500  1
  C  C847  1  0.337000  0.949400  0.820600  1
  C  C848  1  0.663000  0.449400  0.179400  1
  C  C849  1  0.341000  0.007600  0.781100  1
  C  C850  1  0.659000  0.507600  0.218900  1
  C  C851  1  0.305200  0.027100  0.763100  1
  C  C852  1  0.694800  0.527100  0.236900  1
  C  C853  1  0.306900  0.067700  0.757100  1
  C  C854  1  0.693100  0.567700  0.242900  1
  C  C855  1  0.344200  0.089700  0.768800  1
  C  C856  1  0.655800  0.589700  0.231200  1
  C  C857  1  0.380100  0.070100  0.786900  1
  C  C858  1  0.619900  0.570100  0.213100  1
  C  C859  1  0.378500  0.029300  0.793100  1
  C  C860  1  0.621500  0.529300  0.206900  1
  C  C861  1  0.338000  0.171900  0.357600  1
  C  C862  1  0.662000  0.671900  0.642400  1
  C  C863  1  0.328000  0.122600  0.399300  1
  C  C864  1  0.672000  0.622600  0.600700  1
  C  C865  1  0.333900  0.157800  0.419900  1
  C  C866  1  0.666100  0.657800  0.580100  1
  C  C867  1  0.334100  0.163300  0.462900  1
  C  C868  1  0.665900  0.663300  0.537100  1
  C  C869  1  0.338600  0.201100  0.521900  1
  C  C870  1  0.661400  0.701100  0.478100  1
  C  C871  1  0.374800  0.187400  0.544400  1
  C  C872  1  0.625200  0.687400  0.455600  1
  C  C873  1  0.375600  0.193600  0.585200  1
  C  C874  1  0.624400  0.693600  0.414800  1
  C  C875  1  0.340700  0.213800  0.604100  1
  C  C876  1  0.659300  0.713800  0.395900  1
  C  C877  1  0.304100  0.226100  0.581800  1
  C  C878  1  0.695900  0.726100  0.418200  1
  C  C879  1  0.303100  0.220200  0.541000  1
  C  C880  1  0.696900  0.720200  0.459000  1
  C  C881  1  0.566300  0.328100  0.973800  1
  C  C882  1  0.433700  0.828100  0.026200  1
  C  C883  1  0.520400  0.333400  0.966600  1
  C  C884  1  0.479600  0.833400  0.033400  1
  C  C885  1  0.500200  0.358500  0.938200  1
  C  C886  1  0.499800  0.858500  0.061800  1
  C  C887  1  0.452800  0.364100  0.932300  1
  C  C888  1  0.547200  0.864100  0.067700  1
  C  C889  1  0.447800  0.392600  0.904200  1
  C  C890  1  0.552200  0.892600  0.095800  1
  C  C891  1  0.491900  0.404500  0.891600  1
  C  C892  1  0.508100  0.904500  0.108400  1
  C  C893  1  0.501500  0.433400  0.863100  1
  C  C894  1  0.498500  0.933400  0.136900  1
  C  C895  1  0.544600  0.445000  0.850200  1
  C  C896  1  0.455400  0.945000  0.149800  1
  C  C897  1  0.553400  0.475400  0.821600  1
  C  C898  1  0.446600  0.975400  0.178400  1
  C  C899  1  0.598200  0.480200  0.819200  1
  C  C900  1  0.401800  0.980200  0.180800  1
  C  C901  1  0.618400  0.451300  0.846400  1
  C  C902  1  0.381600  0.951300  0.153600  1
  C  C903  1  0.664600  0.446800  0.853000  1
  C  C904  1  0.335400  0.946800  0.147000  1
  C  C905  1  0.685000  0.419300  0.879200  1
  C  C906  1  0.315000  0.919300  0.120800  1
  C  C907  1  0.732800  0.413900  0.885700  1
  C  C908  1  0.267200  0.913900  0.114300  1
  C  C909  1  0.737500  0.385500  0.913700  1
  C  C910  1  0.262500  0.885500  0.086300  1
  C  C911  1  0.692600  0.373200  0.925200  1
  C  C912  1  0.307400  0.873200  0.074800  1
  C  C913  1  0.682800  0.345300  0.955200  1
  C  C914  1  0.317200  0.845300  0.044800  1
  C  C915  1  0.639900  0.332700  0.968100  1
  C  C916  1  0.360100  0.832700  0.031900  1
  C  C917  1  0.630900  0.304700  0.999500  1
  C  C918  1  0.369100  0.804700  0.000500  1
  C  C919  1  0.585800  0.302000  0.003300  1
  C  C920  1  0.414200  0.802000  0.996700  1
  C  C921  1  0.333400  0.159000  0.131000  1
  C  C922  1  0.666600  0.659000  0.869000  1
  C  C923  1  0.404000  0.163300  0.144800  1
  C  C924  1  0.596000  0.663300  0.855200  1
  C  C925  1  0.394200  0.189500  0.114700  1
  C  C926  1  0.605800  0.689500  0.885300  1
  C  C927  1  0.425000  0.216600  0.093800  1
  C  C928  1  0.575000  0.716600  0.906200  1
  C  C929  1  0.437600  0.263900  0.043300  1
  C  C930  1  0.562400  0.763900  0.956700  1
  C  C931  1  0.436000  0.305200  0.045300  1
  C  C932  1  0.564000  0.805200  0.954700  1
  C  C933  1  0.462300  0.327700  0.019600  1
  C  C934  1  0.537700  0.827700  0.980400  1
  C  C935  1  0.490600  0.309100  0.992400  1
  C  C936  1  0.509400  0.809100  0.007600  1
  C  C937  1  0.492000  0.267800  0.990600  1
  C  C938  1  0.508000  0.767800  0.009400  1
  C  C939  1  0.465000  0.245200  0.015800  1
  C  C940  1  0.535000  0.745200  0.984200  1
  C  C941  1  0.230000  0.554100  0.748100  1
  C  C942  1  0.770000  0.054100  0.251900  1
  C  C943  1  0.224500  0.512000  0.797200  1
  C  C944  1  0.775500  0.012000  0.202800  1
  C  C945  1  0.269000  0.518400  0.788400  1
  C  C946  1  0.731000  0.018400  0.211600  1
  C  C947  1  0.309100  0.501000  0.806000  1
  C  C948  1  0.690900  0.001000  0.194000  1
  C  C949  1  0.386100  0.490900  0.812800  1
  C  C950  1  0.613900  0.990900  0.187200  1
  C  C951  1  0.396100  0.451600  0.803200  1
  C  C952  1  0.603900  0.951600  0.196800  1
  C  C953  1  0.433800  0.433400  0.819000  1
  C  C954  1  0.566200  0.933400  0.181000  1
  C  C955  1  0.461600  0.453600  0.845500  1
  C  C956  1  0.538400  0.953600  0.154500  1
  C  C957  1  0.451000  0.492700  0.855600  1
  C  C958  1  0.549000  0.992700  0.144400  1
  C  C959  1  0.413800  0.511200  0.839300  1
  C  C960  1  0.586200  0.011200  0.160700  1
  C  C961  1  0.790000  0.640300  0.703800  1
  C  C962  1  0.210000  0.140300  0.296200  1
  C  C963  1  0.859000  0.620000  0.706500  1
  C  C964  1  0.141000  0.120000  0.293500  1
  C  C965  1  0.791700  0.607200  0.726100  1
  C  C966  1  0.208300  0.107200  0.273900  1
  C  C967  1  0.759100  0.583500  0.748200  1
  C  C968  1  0.240900  0.083500  0.251800  1
  C  C969  1  0.750000  0.527300  0.788700  1
  C  C970  1  0.250000  0.027300  0.211300  1
  C  C971  1  0.748000  0.528700  0.830100  1
  C  C972  1  0.252000  0.028700  0.169900  1
  C  C973  1  0.721000  0.502500  0.850600  1
  C  C974  1  0.279000  0.002500  0.149400  1
  C  C975  1  0.695100  0.474000  0.830600  1
  C  C976  1  0.304900  0.974000  0.169400  1
  C  C977  1  0.698000  0.472700  0.789400  1
  C  C978  1  0.302000  0.972700  0.210600  1
  C  C979  1  0.725000  0.498700  0.768500  1
  C  C980  1  0.275000  0.998700  0.231500  1
  C  C981  1  0.943000  0.235600  0.083400  1
  C  C982  1  0.057000  0.735600  0.916600  1
  C  C983  1  0.955800  0.289500  0.048700  1
  C  C984  1  0.044200  0.789500  0.951300  1
  C  C985  1  0.911900  0.280100  0.046600  1
  C  C986  1  0.088100  0.780100  0.953400  1
  C  C987  1  0.873900  0.299100  0.027100  1
  C  C988  1  0.126100  0.799100  0.972900  1
  C  C989  1  0.796900  0.296300  0.014900  1
  C  C990  1  0.203100  0.796300  0.985100  1
  C  C991  1  0.792600  0.291900  0.974000  1
  C  C992  1  0.207400  0.791900  0.026000  1
  C  C993  1  0.755500  0.307700  0.954600  1
  C  C994  1  0.244500  0.807700  0.045400  1
  C  C995  1  0.722600  0.328100  0.975800  1
  C  C996  1  0.277400  0.828100  0.024200  1
  C  C997  1  0.727300  0.332600  0.016700  1
  C  C998  1  0.272700  0.832600  0.983300  1
  C  C999  1  0.763900  0.316600  0.036100  1
  C  C1000  1  0.236100  0.816600  0.963900  1
  C  C1001  1  0.548500  0.136700  0.959400  1
  C  C1002  1  0.451500  0.636700  0.040600  1
  C  C1003  1  0.506800  0.123600  0.946800  1
  C  C1004  1  0.493200  0.623600  0.053200  1
  C  C1005  1  0.498800  0.094800  0.916600  1
  C  C1006  1  0.501200  0.594800  0.083400  1
  C  C1007  1  0.454300  0.081900  0.905900  1
  C  C1008  1  0.545700  0.581900  0.094100  1
  C  C1009  1  0.458500  0.053700  0.877300  1
  C  C1010  1  0.541500  0.553700  0.122700  1
  C  C1011  1  0.505700  0.048400  0.870400  1
  C  C1012  1  0.494300  0.548400  0.129600  1
  C  C1013  1  0.525000  0.020300  0.845600  1
  C  C1014  1  0.475000  0.520300  0.154400  1
  C  C1015  1  0.571700  0.014400  0.841200  1
  C  C1016  1  0.428300  0.514400  0.158800  1
  C  C1017  1  0.591600  0.984800  0.815900  1
  C  C1018  1  0.408400  0.484800  0.184100  1
  C  C1019  1  0.636400  0.988700  0.818600  1
  C  C1020  1  0.363600  0.488700  0.181400  1
  C  C1021  1  0.644900  0.021000  0.846100  1
  C  C1022  1  0.355100  0.521000  0.153900  1
  C  C1023  1  0.687800  0.033300  0.857800  1
  C  C1024  1  0.312200  0.533300  0.142200  1
  C  C1025  1  0.698700  0.064000  0.885300  1
  C  C1026  1  0.301300  0.564000  0.114700  1
  C  C1027  1  0.742900  0.074600  0.899600  1
  C  C1028  1  0.257100  0.574600  0.100400  1
  C  C1029  1  0.737500  0.102000  0.928400  1
  C  C1030  1  0.262500  0.602000  0.071600  1
  C  C1031  1  0.689900  0.109300  0.931600  1
  C  C1032  1  0.310100  0.609300  0.068400  1
  C  C1033  1  0.668900  0.134300  0.959400  1
  C  C1034  1  0.331100  0.634300  0.040600  1
  C  C1035  1  0.622300  0.140300  0.964100  1
  C  C1036  1  0.377700  0.640300  0.035900  1
  C  C1037  1  0.603500  0.166300  0.994400  1
  C  C1038  1  0.396500  0.666300  0.005600  1
  C  C1039  1  0.558500  0.163700  0.991000  1
  C  C1040  1  0.441500  0.663700  0.009000  1
  C  C1041  1  0.232000  0.227100  0.069200  1
  C  C1042  1  0.768000  0.727100  0.930800  1
  C  C1043  1  0.225600  0.174400  0.031800  1
  C  C1044  1  0.774400  0.674400  0.968200  1
  C  C1045  1  0.269500  0.185900  0.033700  1
  C  C1046  1  0.730500  0.685900  0.966300  1
  C  C1047  1  0.309600  0.169500  0.014900  1
  C  C1048  1  0.690400  0.669500  0.985100  1
  C  C1049  1  0.386400  0.169100  0.000700  1
  C  C1050  1  0.613600  0.669100  0.999300  1
  C  C1051  1  0.415100  0.143800  0.021400  1
  C  C1052  1  0.584900  0.643800  0.978600  1
  C  C1053  1  0.454300  0.129700  0.004600  1
  C  C1054  1  0.545700  0.629700  0.995400  1
  C  C1055  1  0.465300  0.139500  0.965500  1
  C  C1056  1  0.534700  0.639500  0.034500  1
  C  C1057  1  0.436300  0.164200  0.944300  1
  C  C1058  1  0.563700  0.664200  0.055700  1
  C  C1059  1  0.397400  0.178900  0.961600  1
  C  C1060  1  0.602600  0.678900  0.038400  1
  C  C1061  1  0.333400  0.856600  0.679100  1
  C  C1062  1  0.666600  0.356600  0.320900  1
  C  C1063  1  0.401600  0.834000  0.684300  1
  C  C1064  1  0.598400  0.334000  0.315700  1
  C  C1065  1  0.397400  0.867400  0.707300  1
  C  C1066  1  0.602600  0.367400  0.292700  1
  C  C1067  1  0.430800  0.887700  0.732200  1
  C  C1068  1  0.569200  0.387700  0.267800  1
  C  C1069  1  0.443600  0.942800  0.775300  1
  C  C1070  1  0.556400  0.442800  0.224700  1
  C  C1071  1  0.467400  0.973600  0.757300  1
  C  C1072  1  0.532600  0.473600  0.242700  1
  C  C1073  1  0.493100  0.999000  0.780400  1
  C  C1074  1  0.506900  0.499000  0.219600  1
  C  C1075  1  0.495900  0.993700  0.821500  1
  C  C1076  1  0.504100  0.493700  0.178500  1
  C  C1077  1  0.471700  0.963100  0.839300  1
  C  C1078  1  0.528300  0.463100  0.160700  1
  C  C1079  1  0.445600  0.937900  0.816300  1
  C  C1080  1  0.554400  0.437900  0.183700  1
  C  C1081  1  0.963700  0.943300  0.808500  1
  C  C1082  1  0.036300  0.443300  0.191500  1
  C  C1083  1  0.955000  0.906500  0.755500  1
  C  C1084  1  0.045000  0.406500  0.244500  1
  C  C1085  1  0.920100  0.942100  0.798400  1
  C  C1086  1  0.079900  0.442100  0.201600  1
  C  C1087  1  0.880500  0.960400  0.816400  1
  C  C1088  1  0.119500  0.460400  0.183600  1
  C  C1089  1  0.802900  0.970200  0.815000  1
  C  C1090  1  0.197100  0.470200  0.185000  1
  C  C1091  1  0.768000  0.949800  0.833800  1
  C  C1092  1  0.232000  0.449800  0.166200  1
  C  C1093  1  0.730400  0.970000  0.846800  1
  C  C1094  1  0.269600  0.470000  0.153200  1
  C  C1095  1  0.727000  0.011100  0.841600  1
  C  C1096  1  0.273000  0.511100  0.158400  1
  C  C1097  1  0.761700  0.031100  0.822700  1
  C  C1098  1  0.238300  0.531100  0.177300  1
  C  C1099  1  0.799600  0.011200  0.809800  1
  C  C1100  1  0.200400  0.511200  0.190200  1
  C  C1101  1  0.857600  0.281100  0.141600  1
  C  C1102  1  0.142400  0.781100  0.858400  1
  C  C1103  1  0.786800  0.281000  0.158400  1
  C  C1104  1  0.213200  0.781000  0.841600  1
  C  C1105  1  0.792100  0.260100  0.124400  1
  C  C1106  1  0.207900  0.760100  0.875600  1
  C  C1107  1  0.759100  0.239200  0.100000  1
  C  C1108  1  0.240900  0.739200  0.900000  1
  C  C1109  1  0.748500  0.200700  0.042000  1
  C  C1110  1  0.251500  0.700700  0.958000  1
  C  C1111  1  0.728600  0.219700  0.009900  1
  C  C1112  1  0.271400  0.719700  0.990100  1
  C  C1113  1  0.704200  0.197800  0.982300  1
  C  C1114  1  0.295800  0.697800  0.017700  1
  C  C1115  1  0.698300  0.157000  0.987100  1
  C  C1116  1  0.301700  0.657000  0.012900  1
  C  C1117  1  0.718500  0.138300  0.019400  1
  C  C1118  1  0.281500  0.638300  0.980600  1
  C  C1119  1  0.743300  0.159800  0.046700  1
  C  C1120  1  0.256700  0.659800  0.953300  1
  C  C1121  1  0.849100  0.284500  0.673800  1
  C  C1122  1  0.150900  0.784500  0.326200  1
  C  C1123  1  0.849000  0.250300  0.649600  1
  C  C1124  1  0.151000  0.750300  0.350400  1
  C  C1125  1  0.846000  0.210300  0.662700  1
  C  C1126  1  0.154000  0.710300  0.337300  1
  C  C1127  1  0.846200  0.175200  0.637900  1
  C  C1128  1  0.153800  0.675200  0.362100  1
  C  C1129  1  0.845400  0.142900  0.662000  1
  C  C1130  1  0.154600  0.642900  0.338000  1
  C  C1131  1  0.844500  0.157200  0.702600  1
  C  C1132  1  0.155500  0.657200  0.297400  1
  C  C1133  1  0.844800  0.133400  0.737100  1
  C  C1134  1  0.155200  0.633400  0.262900  1
  C  C1135  1  0.844100  0.146600  0.777200  1
  C  C1136  1  0.155900  0.646600  0.222800  1
  C  C1137  1  0.845000  0.121300  0.811700  1
  C  C1138  1  0.155000  0.621300  0.188300  1
  C  C1139  1  0.845000  0.145300  0.844200  1
  C  C1140  1  0.155000  0.645300  0.155800  1
  C  C1141  1  0.844000  0.186000  0.829700  1
  C  C1142  1  0.156000  0.686000  0.170300  1
  C  C1143  1  0.843500  0.220900  0.852900  1
  C  C1144  1  0.156500  0.720900  0.147100  1
  C  C1145  1  0.843000  0.260900  0.839900  1
  C  C1146  1  0.157000  0.760900  0.160100  1
  C  C1147  1  0.843000  0.295800  0.864800  1
  C  C1148  1  0.157000  0.795800  0.135200  1
  C  C1149  1  0.844000  0.327900  0.841100  1
  C  C1150  1  0.156000  0.827900  0.158900  1
  C  C1151  1  0.845300  0.313400  0.800300  1
  C  C1152  1  0.154700  0.813400  0.199700  1
  C  C1153  1  0.846700  0.337300  0.766000  1
  C  C1154  1  0.153300  0.837300  0.234000  1
  C  C1155  1  0.847000  0.324200  0.726000  1
  C  C1156  1  0.153000  0.824200  0.274000  1
  C  C1157  1  0.849300  0.349200  0.691300  1
  C  C1158  1  0.150700  0.849200  0.308700  1
  C  C1159  1  0.851400  0.325300  0.659200  1
  C  C1160  1  0.148600  0.825300  0.340800  1
  C  C1161  1  0.856000  0.299000  0.363100  1
  C  C1162  1  0.144000  0.799000  0.636900  1
  C  C1163  1  0.866300  0.351000  0.401400  1
  C  C1164  1  0.133700  0.851000  0.598600  1
  C  C1165  1  0.861600  0.317300  0.424100  1
  C  C1166  1  0.138400  0.817300  0.575900  1
  C  C1167  1  0.862200  0.312700  0.467200  1
  C  C1168  1  0.137800  0.812700  0.532800  1
  C  C1169  1  0.856200  0.272900  0.523900  1
  C  C1170  1  0.143800  0.772900  0.476100  1
  C  C1171  1  0.892600  0.257000  0.544100  1
  C  C1172  1  0.107400  0.757000  0.455900  1
  C  C1173  1  0.890400  0.249700  0.584600  1
  C  C1174  1  0.109600  0.749700  0.415400  1
  C  C1175  1  0.851700  0.258700  0.606100  1
  C  C1176  1  0.148300  0.758700  0.393900  1
  C  C1177  1  0.815700  0.276000  0.585900  1
  C  C1178  1  0.184300  0.776000  0.414100  1
  C  C1179  1  0.817900  0.283100  0.545400  1
  C  C1180  1  0.182100  0.783100  0.454600  1
  C  C1181  1  0.861000  0.846200  0.685800  1
  C  C1182  1  0.139000  0.346200  0.314200  1
  C  C1183  1  0.868000  0.887400  0.636100  1
  C  C1184  1  0.132000  0.387400  0.363900  1
  C  C1185  1  0.862000  0.908300  0.670300  1
  C  C1186  1  0.138000  0.408300  0.329700  1
  C  C1187  1  0.859600  0.951100  0.677000  1
  C  C1188  1  0.140400  0.451100  0.323000  1
  C  C1189  1  0.852100  0.007200  0.717400  1
  C  C1190  1  0.147900  0.507200  0.282600  1
  C  C1191  1  0.887900  0.027600  0.734000  1
  C  C1192  1  0.112100  0.527600  0.266000  1
  C  C1193  1  0.885400  0.068200  0.740900  1
  C  C1194  1  0.114600  0.568200  0.259100  1
  C  C1195  1  0.846700  0.089300  0.730900  1
  C  C1196  1  0.153300  0.589300  0.269100  1
  C  C1197  1  0.810900  0.068800  0.713900  1
  C  C1198  1  0.189100  0.568800  0.286100  1
  C  C1199  1  0.813400  0.028200  0.707100  1
  C  C1200  1  0.186600  0.528200  0.292900  1
  C  C1201  1  0.893000  0.124000  0.097300  1
  C  C1202  1  0.107000  0.624000  0.902700  1
  C  C1203  1  0.862000  0.166000  0.138900  1
  C  C1204  1  0.138000  0.666000  0.861100  1
  C  C1205  1  0.873400  0.154500  0.076900  1
  C  C1206  1  0.126600  0.654500  0.923100  1
  C  C1207  1  0.871000  0.161100  0.034100  1
  C  C1208  1  0.129000  0.661100  0.965900  1
  C  C1209  1  0.848000  0.197300  0.978200  1
  C  C1210  1  0.152000  0.697300  0.021800  1
  C  C1211  1  0.883300  0.217000  0.959300  1
  C  C1212  1  0.116700  0.717000  0.040700  1
  C  C1213  1  0.881100  0.225800  0.919000  1
  C  C1214  1  0.118900  0.725800  0.081000  1
  C  C1215  1  0.843900  0.214000  0.896700  1
  C  C1216  1  0.156100  0.714000  0.103300  1
  C  C1217  1  0.809200  0.193800  0.915600  1
  C  C1218  1  0.190800  0.693800  0.084400  1
  C  C1219  1  0.811000  0.185300  0.955900  1
  C  C1220  1  0.189000  0.685300  0.044100  1
  C  C1221  1  0.864000  0.621100  0.818000  1
  C  C1222  1  0.136000  0.121100  0.182000  1
  C  C1223  1  0.892000  0.581600  0.863800  1
  C  C1224  1  0.108000  0.081600  0.136200  1
  C  C1225  1  0.873900  0.559900  0.833900  1
  C  C1226  1  0.126100  0.059900  0.166100  1
  C  C1227  1  0.873000  0.516700  0.829200  1
  C  C1228  1  0.127000  0.016700  0.170800  1
  C  C1229  1  0.852000  0.462100  0.790300  1
  C  C1230  1  0.148000  0.962100  0.209700  1
  C  C1231  1  0.888100  0.443400  0.772000  1
  C  C1232  1  0.111900  0.943400  0.228000  1
  C  C1233  1  0.886200  0.403000  0.764100  1
  C  C1234  1  0.113800  0.903000  0.235900  1
  C  C1235  1  0.847800  0.381100  0.773500  1
  C  C1236  1  0.152200  0.881100  0.226500  1
  C  C1237  1  0.811500  0.400200  0.791300  1
  C  C1238  1  0.188500  0.900200  0.208700  1
  C  C1239  1  0.813500  0.440500  0.800000  1
  C  C1240  1  0.186500  0.940500  0.200000  1
  C  C1241  1  0.596000  0.184000  0.696000  1
  C  C1242  1  0.404000  0.684000  0.304000  1
  C  C1243  1  0.594000  0.156000  0.663000  1
  C  C1244  1  0.406000  0.656000  0.337000  1
  C  C1245  1  0.489000  0.125000  0.751000  1
  C  C1246  1  0.511000  0.625000  0.249000  1
  C  C1247  1  0.482000  0.142000  0.790000  1
  C  C1248  1  0.518000  0.642000  0.210000  1
  N  N1249  1  0.661600  0.387600  0.590300  1
  N  N1250  1  0.338400  0.887600  0.409700  1
  N  N1251  1  0.603100  0.433700  0.639200  1
  N  N1252  1  0.396900  0.933700  0.360800  1
  N  N1253  1  0.525600  0.394800  0.602600  1
  N  N1254  1  0.474400  0.894800  0.397400  1
  N  N1255  1  0.586200  0.350000  0.551900  1
  N  N1256  1  0.413800  0.850000  0.448100  1
  N  N1257  1  0.911000  0.548000  0.749400  1
  N  N1258  1  0.089000  0.048000  0.250600  1
  N  N1259  1  0.983500  0.550700  0.734000  1
  N  N1260  1  0.016500  0.050700  0.266000  1
  N  N1261  1  0.843400  0.508300  0.706800  1
  N  N1262  1  0.156600  0.008300  0.293200  1
  N  N1263  1  0.411200  0.551100  0.743100  1
  N  N1264  1  0.588800  0.051100  0.256900  1
  N  N1265  1  0.290000  0.243300  0.433300  1
  N  N1266  1  0.710000  0.743300  0.566700  1
  N  N1267  1  0.218000  0.251000  0.424300  1
  N  N1268  1  0.782000  0.751000  0.575700  1
  N  N1269  1  0.350300  0.282400  0.472300  1
  N  N1270  1  0.649700  0.782400  0.527700  1
  N  N1271  1  0.837000  0.203000  0.391500  1
  N  N1272  1  0.163000  0.703000  0.608500  1
  N  N1273  1  0.826000  0.163500  0.339900  1
  N  N1274  1  0.174000  0.663500  0.660100  1
  N  N1275  1  0.778800  0.249300  0.431700  1
  N  N1276  1  0.221200  0.749300  0.568300  1
  N  N1277  1  0.362000  0.661600  0.803300  1
  N  N1278  1  0.638000  0.161600  0.196700  1
  N  N1279  1  0.350000  0.603100  0.775000  1
  N  N1280  1  0.650000  0.103100  0.225000  1
  N  N1281  1  0.666900  0.077300  0.601300  1
  N  N1282  1  0.333100  0.577300  0.398700  1
  N  N1283  1  0.607100  0.125900  0.552500  1
  N  N1284  1  0.392900  0.625900  0.447500  1
  N  N1285  1  0.531800  0.089100  0.592100  1
  N  N1286  1  0.468200  0.589100  0.407900  1
  N  N1287  1  0.590300  0.040400  0.638200  1
  N  N1288  1  0.409700  0.540400  0.361800  1
  N  N1289  1  0.916300  0.228300  0.440000  1
  N  N1290  1  0.083700  0.728300  0.560000  1
  N  N1291  1  0.988500  0.214000  0.438100  1
  N  N1292  1  0.011500  0.714000  0.561900  1
  N  N1293  1  0.847800  0.188800  0.479000  1
  N  N1294  1  0.152200  0.688800  0.521000  1
  N  N1295  1  0.362000  0.271400  0.389100  1
  N  N1296  1  0.638000  0.771400  0.610900  1
  N  N1297  1  0.370000  0.310300  0.336800  1
  N  N1298  1  0.630000  0.810300  0.663200  1
  N  N1299  1  0.421500  0.228300  0.430200  1
  N  N1300  1  0.578500  0.728300  0.569800  1
  N  N1301  1  0.286800  0.918700  0.735600  1
  N  N1302  1  0.713200  0.418700  0.264400  1
  N  N1303  1  0.213800  0.915500  0.725900  1
  N  N1304  1  0.786200  0.415500  0.274100  1
  N  N1305  1  0.351900  0.957200  0.697500  1
  N  N1306  1  0.648100  0.457200  0.302500  1
  N  N1307  1  0.841000  0.872200  0.787800  1
  N  N1308  1  0.159000  0.372200  0.212200  1
  N  N1309  1  0.826000  0.820100  0.825200  1
  N  N1310  1  0.174000  0.320100  0.174800  1
  N  N1311  1  0.778900  0.915400  0.739300  1
  N  N1312  1  0.221100  0.415400  0.260700  1
  N  N1313  1  0.345200  0.273000  0.700400  1
  N  N1314  1  0.654800  0.773000  0.299600  1
  N  N1315  1  0.344600  0.284900  0.786500  1
  N  N1316  1  0.655400  0.784900  0.213500  1
  N  N1317  1  0.346700  0.198300  0.797500  1
  N  N1318  1  0.653300  0.698300  0.202500  1
  N  N1319  1  0.347500  0.186700  0.712200  1
  N  N1320  1  0.652500  0.686700  0.287800  1
  N  N1321  1  0.335000  0.589300  0.694000  1
  N  N1322  1  0.665000  0.089300  0.306000  1
  N  N1323  1  0.313000  0.620900  0.639600  1
  N  N1324  1  0.687000  0.120900  0.360400  1
  N  N1325  1  0.334100  0.504700  0.707000  1
  N  N1326  1  0.665900  0.004700  0.293000  1
  N  N1327  1  0.335000  0.275700  0.099200  1
  N  N1328  1  0.665000  0.775700  0.900800  1
  N  N1329  1  0.314000  0.321000  0.142800  1
  N  N1330  1  0.686000  0.821000  0.857200  1
  N  N1331  1  0.337000  0.276500  0.018200  1
  N  N1332  1  0.663000  0.776500  0.981800  1
  N  N1333  1  0.342000  0.882200  0.789900  1
  N  N1334  1  0.658000  0.382200  0.210100  1
  N  N1335  1  0.335000  0.843600  0.843000  1
  N  N1336  1  0.665000  0.343600  0.157000  1
  N  N1337  1  0.342000  0.965800  0.786500  1
  N  N1338  1  0.658000  0.465800  0.213500  1
  N  N1339  1  0.340000  0.188800  0.393100  1
  N  N1340  1  0.660000  0.688800  0.606900  1
  N  N1341  1  0.330500  0.132600  0.360000  1
  N  N1342  1  0.669500  0.632600  0.640000  1
  N  N1343  1  0.340200  0.197000  0.479800  1
  N  N1344  1  0.659800  0.697000  0.520200  1
  N  N1345  1  0.600200  0.346800  0.952700  1
  N  N1346  1  0.399800  0.846800  0.047300  1
  N  N1347  1  0.523600  0.382800  0.912500  1
  N  N1348  1  0.476400  0.882800  0.087500  1
  N  N1349  1  0.584700  0.430000  0.864300  1
  N  N1350  1  0.415300  0.930000  0.135700  1
  N  N1351  1  0.661300  0.393800  0.903300  1
  N  N1352  1  0.338700  0.893800  0.096700  1
  N  N1353  1  0.349000  0.186100  0.105800  1
  N  N1354  1  0.651000  0.686100  0.894200  1
  N  N1355  1  0.365000  0.144300  0.154300  1
  N  N1356  1  0.635000  0.644300  0.845700  1
  N  N1357  1  0.409500  0.239100  0.066300  1
  N  N1358  1  0.590500  0.739100  0.933700  1
  N  N1359  1  0.272000  0.545200  0.757000  1
  N  N1360  1  0.728000  0.045200  0.243000  1
  N  N1361  1  0.200700  0.534900  0.771300  1
  N  N1362  1  0.799300  0.034900  0.228700  1
  N  N1363  1  0.348800  0.509900  0.794800  1
  N  N1364  1  0.651200  0.009900  0.205200  1
  N  N1365  1  0.835900  0.593900  0.728000  1
  N  N1366  1  0.164100  0.093900  0.272000  1
  N  N1367  1  0.833000  0.648000  0.691500  1
  N  N1368  1  0.167000  0.148000  0.308500  1
  N  N1369  1  0.777000  0.553000  0.765500  1
  N  N1370  1  0.223000  0.053000  0.234500  1
  N  N1371  1  0.903400  0.245700  0.068500  1
  N  N1372  1  0.096600  0.745700  0.931500  1
  N  N1373  1  0.975400  0.261000  0.072200  1
  N  N1374  1  0.024600  0.761000  0.927800  1
  N  N1375  1  0.836400  0.280200  0.032200  1
  N  N1376  1  0.163600  0.780200  0.967800  1
  N  N1377  1  0.588500  0.123200  0.942800  1
  N  N1378  1  0.411500  0.623200  0.057200  1
  N  N1379  1  0.529300  0.075200  0.894600  1
  N  N1380  1  0.470700  0.575200  0.105400  1
  N  N1381  1  0.604000  0.035900  0.859500  1
  N  N1382  1  0.396000  0.535900  0.140500  1
  N  N1383  1  0.666900  0.086200  0.903800  1
  N  N1384  1  0.333100  0.586200  0.096200  1
  N  N1385  1  0.273400  0.219600  0.057500  1
  N  N1386  1  0.726600  0.719600  0.942500  1
  N  N1387  1  0.202300  0.201000  0.054600  1
  N  N1388  1  0.797700  0.701000  0.945400  1
  N  N1389  1  0.348500  0.185300  0.020700  1
  N  N1390  1  0.651500  0.685300  0.979300  1
  N  N1391  1  0.353700  0.881500  0.703600  1
  N  N1392  1  0.646300  0.381500  0.296400  1
  N  N1393  1  0.361000  0.827700  0.666800  1
  N  N1394  1  0.639000  0.327700  0.333200  1
  N  N1395  1  0.416900  0.918600  0.750600  1
  N  N1396  1  0.583100  0.418600  0.249400  1
  N  N1397  1  0.914500  0.919000  0.764400  1
  N  N1398  1  0.085500  0.419000  0.235600  1
  N  N1399  1  0.986000  0.920200  0.780900  1
  N  N1400  1  0.014000  0.420200  0.219100  1
  N  N1401  1  0.842800  0.953900  0.798900  1
  N  N1402  1  0.157200  0.453900  0.201100  1
  N  N1403  1  0.837200  0.260200  0.113700  1
  N  N1404  1  0.162800  0.760200  0.886300  1
  N  N1405  1  0.829000  0.294300  0.168700  1
  N  N1406  1  0.171000  0.794300  0.831300  1
  N  N1407  1  0.775500  0.222200  0.069200  1
  N  N1408  1  0.224500  0.722200  0.930800  1
  N  N1409  1  0.846400  0.285100  0.714700  1
  N  N1410  1  0.153600  0.785100  0.285300  1
  N  N1411  1  0.843700  0.198700  0.701700  1
  N  N1412  1  0.156300  0.698700  0.298300  1
  N  N1413  1  0.843300  0.185700  0.788500  1
  N  N1414  1  0.156700  0.685700  0.211500  1
  N  N1415  1  0.844100  0.272500  0.801100  1
  N  N1416  1  0.155900  0.772500  0.198900  1
  N  N1417  1  0.854700  0.284500  0.399400  1
  N  N1418  1  0.145300  0.784500  0.600600  1
  N  N1419  1  0.862700  0.339000  0.362600  1
  N  N1420  1  0.137300  0.839000  0.637400  1
  N  N1421  1  0.856700  0.277700  0.482100  1
  N  N1422  1  0.143300  0.777700  0.517900  1
  N  N1423  1  0.857000  0.881800  0.701800  1
  N  N1424  1  0.143000  0.381800  0.298200  1
  N  N1425  1  0.867800  0.847900  0.646700  1
  N  N1426  1  0.132200  0.347900  0.353300  1
  N  N1427  1  0.853000  0.965100  0.712100  1
  N  N1428  1  0.147000  0.465100  0.287900  1
  N  N1429  1  0.854000  0.181200  0.103400  1
  N  N1430  1  0.146000  0.681200  0.896600  1
  N  N1431  1  0.885000  0.132000  0.137000  1
  N  N1432  1  0.115000  0.632000  0.863000  1
  N  N1433  1  0.851000  0.192100  0.020200  1
  N  N1434  1  0.149000  0.692100  0.979800  1
  N  N1435  1  0.856000  0.584900  0.805000  1
  N  N1436  1  0.144000  0.084900  0.195000  1
  N  N1437  1  0.885000  0.620700  0.853300  1
  N  N1438  1  0.115000  0.120700  0.146700  1
  N  N1439  1  0.852800  0.503600  0.797900  1
  N  N1440  1  0.147200  0.003600  0.202100  1
  N  N1441  1  0.601000  0.132000  0.640000  1
  N  N1442  1  0.399000  0.632000  0.360000  1
  N  N1443  1  0.470000  0.155000  0.820000  1
  N  N1444  1  0.530000  0.655000  0.180000  1
  O  O1445  1  0.593000  0.128400  0.851600  1
  O  O1446  1  0.407000  0.628400  0.148400  1
  O  O1447  1  0.425400  0.242400  0.753000  1
  O  O1448  1  0.574600  0.742400  0.247000  1
  O  O1449  1  0.738000  0.243000  0.753000  1
  O  O1450  1  0.262000  0.743000  0.247000  1
  O  O1451  1  0.585000  0.330000  0.852000  1
  O  O1452  1  0.415000  0.830000  0.148000  1
  O  O1453  1  0.594000  0.445000  0.534000  1
  O  O1454  1  0.406000  0.945000  0.466000  1
