
#######################################################################
#
#                 Cambridge Crystallographic Data Centre
#                                CCDC 
#
#######################################################################
#
# If this CIF has been generated from an entry in the Cambridge 
# Structural Database, then it will include bibliographic, chemical, 
# crystal, experimental, refinement or atomic coordinate data resulting 
# from the CCDC's data processing and validation procedures.
#
#######################################################################

data_LAQMIC
_chemical_formula_moiety         'C362 H247 Fe8 N97 O2 Zn6,C2 H3 N1,3(H2 O1)'
_chemical_name_systematic        
'hexakis(\m-5,10,15,20-tetrakis(4-(imidazol-4-ylmethyleneamino)phenyl)porphyrinato)-acetonitrile-diaqua-octa-iron-hexa-zinc unknown anion acetonitrile unknown solvate trihydrate'
_symmetry_cell_setting           monoclinic
_symmetry_space_group_name_H-M   'P 21'
_symmetry_Int_Tables_number      4
_space_group_name_Hall           'P 2yb'
loop_
_symmetry_equiv_pos_site_id
_symmetry_equiv_pos_as_xyz
1 x,y,z
2 -x,1/2+y,-z
_cell_length_a                   29.7474(12)
_cell_length_b                   33.5600(15)
_cell_length_c                   33.6096(15)
_cell_angle_alpha                90
_cell_angle_beta                 90.007(3)
_cell_angle_gamma                90
_cell_volume                     33553.2
_exptl_crystal_colour            purple
_exptl_crystal_description       block
_cell_formula_units_Z            2
_exptl_crystal_recrystallization_method 'acetonitrile/ diethyl ether'
loop_
_atom_site_label
_atom_site_type_symbol
_atom_site_fract_x
_atom_site_fract_y
_atom_site_fract_z
Zn1 Zn 0.5955(6) 0.3922(5) -0.4051(5)
Zn2 Zn 0.5940(6) 0.3877(5) -0.0947(5)
Zn3 Zn 0.8385(5) 0.2363(5) -0.2505(5)
Zn4 Zn 0.5979(5) 0.0892(4) -0.3978(4)
Zn5 Zn 0.3491(4) 0.2365(5) -0.2515(5)
Zn6 Zn 0.5960(4) 0.0873(4) -0.1044(4)
Fe1 Fe 0.3472(7) 0.2380(7) -0.5646(5)
Fe2 Fe 0.8482(7) 0.2401(6) -0.5628(5)
Fe3 Fe 0.8448(7) 0.5497(5) -0.2432(5)
Fe4 Fe 0.3441(7) 0.5481(5) -0.2522(6)
Fe5 Fe 0.3471(7) -0.0786(5) -0.2537(6)
Fe6 Fe 0.8485(6) -0.0789(5) -0.2492(6)
Fe7 Fe 0.8449(7) 0.2338(6) 0.0665(5)
Fe8 Fe 0.3443(7) 0.2334(6) 0.0620(5)
N1 N 0.6616(15) 0.3876(13) -0.4097(13)
N2 N 0.6031(14) 0.4337(13) -0.3608(13)
N3 N 0.5256(16) 0.3948(13) -0.3974(13)
N4 N 0.5862(14) 0.3500(13) -0.4481(13)
N5 N 0.911(2) 0.5480(17) -0.2506(18)
N6 N 0.9835(18) 0.5507(18) -0.266(2)
H1 H 1.0122 0.5568 -0.2642
N7 N 0.8434(17) 0.5083(15) -0.2932(16)
C1 C 0.403(2) 0.6476(18) -0.208(2)
H2 H 0.4315 0.6604 -0.2043
C2 C 0.331(2) 0.634(2) -0.207(2)
H3 H 0.3001 0.6373 -0.2031
N8 N 0.4112(19) 0.5511(16) -0.2569(16)
N9 N 0.290(2) 0.2433(15) -0.5667(16)
N10 N 0.218(2) 0.251(2) -0.5757(17)
H4 H 0.1901 0.2464 -0.5841
N11 N 0.3503(15) 0.2824(16) -0.5277(15)
N12 N 0.837(2) 0.2030(19) -0.6085(17)
N13 N 0.826(3) 0.1635(15) -0.6601(17)
H5 H 0.8319 0.1466 -0.6794
N14 N 0.7788(19) 0.2493(15) -0.5683(16)
C3 C 0.6936(17) 0.4080(11) -0.3882(12)
C4 C 0.6859(13) 0.4368(11) -0.3583(11)
C5 C 0.6424(13) 0.4484(13) -0.3461(13)
C6 C 0.6332(17) 0.4789(15) -0.3167(15)
H6 H 0.6548 0.4935 -0.3018
C7 C 0.5881(18) 0.4827(14) -0.3145(15)
H7 H 0.5720 0.5009 -0.2982
C8 C 0.5689(13) 0.4539(14) -0.3418(13)
C9 C 0.5227(14) 0.4476(11) -0.3468(11)
C10 C 0.5020(17) 0.4197(12) -0.3725(12)
C11 C 0.4545(16) 0.4138(15) -0.3780(15)
H8 H 0.4310 0.4271 -0.3642
C12 C 0.4496(16) 0.3858(16) -0.4065(16)
H9 H 0.4219 0.3757 -0.4164
C13 C 0.4940(17) 0.3739(12) -0.4192(12)
C14 C 0.5038(13) 0.3462(11) -0.4492(11)
C15 C 0.5468(13) 0.3353(13) -0.4626(13)
C16 C 0.5557(17) 0.3069(15) -0.4934(14)
H10 H 0.5339 0.2925 -0.5082
C17 C 0.6007(18) 0.3042(15) -0.4977(14)
H11 H 0.6166 0.2877 -0.5159
C18 C 0.6201(13) 0.3318(13) -0.4691(13)
C19 C 0.6658(14) 0.3384(11) -0.4641(11)
C20 C 0.6850(17) 0.3647(11) -0.4364(11)
C21 C 0.7327(16) 0.3705(15) -0.4315(15)
H12 H 0.7559 0.3582 -0.4466
C22 C 0.7380(16) 0.3968(16) -0.4015(16)
H13 H 0.7658 0.4062 -0.3911
C23 C 0.951(3) 0.5619(17) -0.2402(17)
H14 H 0.9566 0.5779 -0.2174
C24 C 0.9635(19) 0.528(2) -0.2946(18)
H15 H 0.9777 0.5157 -0.3168
C25 C 0.9191(16) 0.5264(13) -0.2852(15)
C26 C 0.8833(16) 0.5064(16) -0.3069(17)
H16 H 0.8895 0.4923 -0.3308
C27 C 0.8060(15) 0.4908(16) -0.3124(15)
C28 C 0.7952(17) 0.4517(16) -0.3022(18)
H17 H 0.8148 0.4367 -0.2857
C29 C 0.7558(18) 0.4348(14) -0.3162(18)
H18 H 0.7487 0.4082 -0.3090
C30 C 0.7265(14) 0.4558(13) -0.3406(13)
C31 C 0.7378(18) 0.4948(13) -0.3506(18)
H19 H 0.7178 0.5099 -0.3666
C32 C 0.7774(19) 0.5118(14) -0.3376(19)
H20 H 0.7851 0.5380 -0.3458
N15 N 0.362(3) 0.6616(17) -0.1967(17)
H21 H 0.3565 0.6844 -0.1847
N16 N 0.350(2) 0.6031(19) -0.225(2)
C33 C 0.396(2) 0.6116(14) -0.2250(13)
C34 C 0.428(2) 0.5836(16) -0.2427(18)
H22 H 0.4589 0.5891 -0.2438
C35 C 0.4402(18) 0.5239(14) -0.2762(17)
C36 C 0.439(2) 0.5262(18) -0.3175(17)
H23 H 0.4194 0.5450 -0.3300
C37 C 0.465(2) 0.5012(18) -0.3403(14)
H24 H 0.4641 0.5029 -0.3685
C38 C 0.4935(15) 0.4738(13) -0.3221(13)
C39 C 0.494(2) 0.4712(18) -0.2807(13)
H25 H 0.5135 0.4523 -0.2682
C40 C 0.468(2) 0.4961(19) -0.2578(13)
H26 H 0.4686 0.4942 -0.2296
C41 C 0.2315(15) 0.2816(19) -0.552(2)
H27 H 0.2132 0.3023 -0.5415
C42 C 0.254(3) 0.2285(17) -0.5836(17)
H28 H 0.2532 0.2050 -0.5993
C43 C 0.2755(12) 0.2772(13) -0.5466(13)
C44 C 0.3110(16) 0.2975(17) -0.5244(17)
H29 H 0.3053 0.3204 -0.5086
C45 C 0.3876(14) 0.2973(15) -0.5062(16)
C46 C 0.4203(19) 0.317(2) -0.5280(13)
H30 H 0.4162 0.3214 -0.5558
C47 C 0.4586(17) 0.3318(19) -0.5098(12)
H31 H 0.4808 0.3451 -0.5251
C48 C 0.4649(14) 0.3268(13) -0.4690(12)
C49 C 0.4329(18) 0.3056(19) -0.4475(13)
H32 H 0.4376 0.3009 -0.4200
C50 C 0.3943(17) 0.291(2) -0.4656(16)
H33 H 0.3724 0.2774 -0.4504
C51 C 0.856(2) 0.178(2) -0.634(2)
H34 H 0.8867 0.1707 -0.6329
C52 C 0.785(2) 0.180(2) -0.6514(18)
H35 H 0.7577 0.1753 -0.6648
C53 C 0.792(2) 0.2046(13) -0.6199(14)
C54 C 0.761(2) 0.2298(16) -0.5972(16)
H36 H 0.7301 0.2316 -0.6035
C55 C 0.7517(18) 0.2731(15) -0.5430(14)
C56 C 0.722(2) 0.2530(12) -0.5180(18)
H37 H 0.7203 0.2248 -0.5187
C57 C 0.695(2) 0.2743(12) -0.4923(17)
H38 H 0.6746 0.2604 -0.4753
C58 C 0.6965(15) 0.3156(12) -0.4907(12)
C59 C 0.726(2) 0.3354(13) -0.5158(18)
H39 H 0.7278 0.3637 -0.5152
C60 C 0.754(2) 0.3144(16) -0.5416(18)
H40 H 0.7739 0.3284 -0.5584
N17 N 0.6669(14) 0.0773(12) -0.3987(12)
N18 N 0.6071(13) 0.1259(13) -0.4475(13)
N19 N 0.5318(14) 0.0891(12) -0.4079(12)
N20 N 0.5903(13) 0.0404(12) -0.3618(13)
N21 N 0.9163(19) 0.2283(16) -0.5600(16)
N22 N 0.9885(17) 0.2140(19) -0.5619(16)
H41 H 1.0173 0.2156 -0.5678
N23 N 0.8478(15) 0.1888(15) -0.5210(14)
N24 N 0.362(2) 0.2714(12) -0.6109(13)
N25 N 0.370(3) 0.3103(16) -0.6632(16)
H42 H 0.3627 0.3268 -0.6826
N26 N 0.4215(18) 0.2283(14) -0.5698(14)
N27 N 0.2868(18) -0.0813(16) -0.2644(16)
N28 N 0.2138(18) -0.0845(17) -0.2741(19)
H43 H 0.1855 -0.0912 -0.2708
N29 N 0.3519(16) -0.0428(15) -0.3025(16)
N30 N 0.841(2) -0.1278(14) -0.2122(13)
N31 N 0.826(3) -0.1799(15) -0.1748(14)
H44 H 0.8299 -0.1998 -0.1581
N32 N 0.7789(18) -0.0846(14) -0.2607(13)
C61 C 0.6981(16) 0.0968(11) -0.4215(11)
C62 C 0.6894(12) 0.1259(11) -0.4510(11)
C63 C 0.6471(12) 0.1397(13) -0.4629(13)
C64 C 0.6375(16) 0.1689(14) -0.4934(14)
H45 H 0.6589 0.1834 -0.5086
C65 C 0.5924(16) 0.1717(14) -0.4962(14)
H46 H 0.5761 0.1883 -0.5140
C66 C 0.5734(12) 0.1447(13) -0.4673(13)
C67 C 0.5272(13) 0.1394(11) -0.4612(11)
C68 C 0.5081(16) 0.1132(11) -0.4336(11)
C69 C 0.4605(15) 0.1069(15) -0.4284(15)
H47 H 0.4369 0.1202 -0.4422
C70 C 0.4558(15) 0.0786(15) -0.4003(15)
H48 H 0.4282 0.0682 -0.3905
C71 C 0.5002(16) 0.0670(11) -0.3877(11)
C72 C 0.5079(12) 0.0368(11) -0.3601(11)
C73 C 0.5506(12) 0.0243(13) -0.3482(12)
C74 C 0.5601(16) -0.0075(14) -0.3209(14)
H49 H 0.5383 -0.0231 -0.3072
C75 C 0.6044(17) -0.0112(14) -0.3179(14)
H50 H 0.6202 -0.0298 -0.3018
C76 C 0.6242(12) 0.0187(13) -0.3442(12)
C77 C 0.6702(13) 0.0227(11) -0.3504(11)
C78 C 0.6906(16) 0.0503(11) -0.3762(11)
C79 C 0.7382(15) 0.0539(15) -0.3842(15)
H51 H 0.7616 0.0390 -0.3722
C80 C 0.7427(15) 0.0825(15) -0.4118(15)
H52 H 0.7702 0.0917 -0.4229
C81 C 0.956(2) 0.2386(17) -0.5742(16)
H53 H 0.9610 0.2608 -0.5911
C82 C 0.9686(18) 0.1857(17) -0.5382(18)
H54 H 0.9832 0.1642 -0.5251
C83 C 0.9244(15) 0.1944(14) -0.5373(12)
C84 C 0.8872(15) 0.1741(17) -0.5176(15)
H55 H 0.8921 0.1504 -0.5026
C85 C 0.8094(14) 0.1699(15) -0.5052(15)
C86 C 0.7993(16) 0.1794(17) -0.4660(15)
H56 H 0.8196 0.1953 -0.4509
C87 C 0.7599(16) 0.1659(17) -0.4491(13)
H57 H 0.7530 0.1728 -0.4224
C88 C 0.7302(12) 0.1424(13) -0.4707(12)
C89 C 0.7405(16) 0.1327(17) -0.5099(12)
H58 H 0.7202 0.1169 -0.5250
C90 C 0.7801(17) 0.1461(18) -0.5267(13)
H59 H 0.7873 0.1389 -0.5533
C91 C 0.3422(19) 0.2956(17) -0.636(2)
H60 H 0.3110 0.3018 -0.6347
C92 C 0.412(2) 0.2948(17) -0.6553(15)
H61 H 0.4386 0.2998 -0.6697
C93 C 0.4072(19) 0.2709(13) -0.6227(13)
C94 C 0.4387(19) 0.2472(16) -0.5993(15)
H62 H 0.4698 0.2458 -0.6056
C95 C 0.4481(17) 0.2086(15) -0.5413(13)
C96 C 0.449(2) 0.1675(15) -0.5444(15)
H63 H 0.4330 0.1545 -0.5650
C97 C 0.474(2) 0.1452(13) -0.5177(16)
H64 H 0.4749 0.1170 -0.5201
C98 C 0.4980(14) 0.1641(12) -0.4873(12)
C99 C 0.496(2) 0.2052(12) -0.4838(15)
H65 H 0.5111 0.2181 -0.4627
C100 C 0.471(2) 0.2276(12) -0.5107(17)
H66 H 0.4700 0.2557 -0.5083
C101 C 0.2301(17) -0.0601(19) -0.3031(18)
H67 H 0.2133 -0.0470 -0.3232
C102 C 0.248(2) -0.0962(17) -0.2518(17)
H68 H 0.2453 -0.1134 -0.2294
C103 C 0.2755(15) -0.0583(13) -0.2973(14)
C104 C 0.3125(16) -0.0375(16) -0.3171(16)
H69 H 0.3076 -0.0209 -0.3396
C105 C 0.3896(14) -0.0220(16) -0.3175(14)
C106 C 0.4228(18) -0.0430(13) -0.3376(19)
H70 H 0.4192 -0.0707 -0.3422
C107 C 0.4611(16) -0.0238(12) -0.3508(18)
H71 H 0.4836 -0.0386 -0.3644
C108 C 0.4672(13) 0.0169(12) -0.3444(13)
C109 C 0.4339(16) 0.0378(13) -0.3242(18)
H72 H 0.4377 0.0655 -0.3193
C110 C 0.3953(16) 0.0188(16) -0.3111(18)
H73 H 0.3727 0.0335 -0.2976
C111 C 0.857(2) -0.1545(19) -0.1871(17)
H74 H 0.8878 -0.1555 -0.1789
C112 C 0.786(2) -0.1694(16) -0.1925(16)
H75 H 0.7579 -0.1820 -0.1893
C113 C 0.796(2) -0.1367(13) -0.2160(12)
C114 C 0.764(2) -0.1141(15) -0.2408(15)
H76 H 0.7336 -0.1214 -0.2420
C115 C 0.7514(17) -0.0599(13) -0.2847(15)
C116 C 0.750(2) -0.0617(16) -0.3260(15)
H77 H 0.7662 -0.0815 -0.3397
C117 C 0.724(2) -0.0350(16) -0.3475(12)
H78 H 0.7227 -0.0367 -0.3757
C118 C 0.6991(14) -0.0056(12) -0.3280(12)
C119 C 0.701(2) -0.0040(16) -0.2866(12)
H79 H 0.6845 0.0160 -0.2729
C120 C 0.727(2) -0.0306(17) -0.2651(12)
H80 H 0.7272 -0.0291 -0.2369
N33 N 0.3452(15) 0.2730(11) -0.2996(12)
N34 N 0.3446(16) 0.2849(12) -0.2135(11)
N35 N 0.3467(16) 0.1983(11) -0.2025(12)
N36 N 0.3475(15) 0.1867(11) -0.2878(11)
N37 N 0.335(2) 0.5893(17) -0.3060(15)
N38 N 0.313(2) 0.6209(14) -0.3604(18)
H81 H 0.3070 0.6406 -0.3770
N39 N 0.3341(19) 0.5047(10) -0.2930(16)
N40 N 0.335(2) 0.2757(15) 0.0992(18)
N41 N 0.314(2) 0.321(2) 0.1428(13)
H82 H 0.3086 0.3329 0.1658
N42 N 0.337(2) 0.2765(17) 0.0182(11)
N43 N 0.342(2) -0.1178(17) -0.2101(13)
N44 N 0.335(2) -0.1564(13) -0.1570(18)
H83 H 0.3332 -0.1781 -0.1424
N45 N 0.342(2) -0.0342(10) -0.2135(16)
N46 N 0.340(2) 0.1888(14) -0.6069(17)
N47 N 0.3305(19) 0.1326(18) -0.6400(14)
H84 H 0.3279 0.1162 -0.6602
N48 N 0.3402(19) 0.1970(17) -0.5202(11)
C121 C 0.3416(14) 0.3138(12) -0.2982(12)
C122 C 0.3402(13) 0.3376(9) -0.2641(11)
C123 C 0.3414(14) 0.3236(12) -0.2245(11)
C124 C 0.339(2) 0.3485(12) -0.1895(14)
H85 H 0.3364 0.3768 -0.1892
C125 C 0.340(2) 0.3242(14) -0.1574(12)
H86 H 0.3386 0.3321 -0.1303
C126 C 0.3431(14) 0.2841(12) -0.1723(12)
C127 C 0.3436(13) 0.2495(11) -0.1492(10)
C128 C 0.3448(15) 0.2099(11) -0.1635(12)
C129 C 0.343(2) 0.1751(14) -0.1387(12)
H87 H 0.3421 0.1749 -0.1104
C130 C 0.344(2) 0.1427(12) -0.1627(14)
H88 H 0.3435 0.1156 -0.1545
C131 C 0.3460(14) 0.1572(12) -0.2032(12)
C132 C 0.3460(13) 0.1335(9) -0.2376(11)
C133 C 0.3469(14) 0.1473(12) -0.2772(11)
C134 C 0.3459(19) 0.1227(12) -0.3123(14)
H89 H 0.3458 0.0944 -0.3130
C135 C 0.3452(19) 0.1473(13) -0.3440(12)
H90 H 0.3444 0.1397 -0.3712
C136 C 0.3458(14) 0.1878(12) -0.3287(12)
C137 C 0.3434(13) 0.2222(10) -0.3524(10)
C138 C 0.3428(14) 0.2623(11) -0.3391(12)
C139 C 0.3385(19) 0.2976(13) -0.3634(12)
H91 H 0.3364 0.2984 -0.3916
C140 C 0.3379(19) 0.3292(12) -0.3385(14)
H92 H 0.3354 0.3564 -0.3460
C141 C 0.330(2) 0.6244(14) -0.324(2)
H93 H 0.3381 0.6492 -0.3121
C142 C 0.306(2) 0.5812(16) -0.3674(16)
H94 H 0.2942 0.5695 -0.3908
C143 C 0.3200(15) 0.5617(12) -0.3337(16)
C144 C 0.3202(19) 0.5190(12) -0.3259(17)
H95 H 0.3098 0.5013 -0.3459
C145 C 0.3338(19) 0.4634(10) -0.2845(15)
C146 C 0.2993(18) 0.4447(12) -0.2636(19)
H96 H 0.2745 0.4598 -0.2542
C147 C 0.3011(17) 0.4040(12) -0.2566(18)
H97 H 0.2774 0.3914 -0.2424
C148 C 0.3371(16) 0.3814(9) -0.2700(12)
C149 C 0.3720(17) 0.4004(12) -0.2907(18)
H98 H 0.3969 0.3853 -0.2999
C150 C 0.3703(19) 0.4410(12) -0.2978(18)
H99 H 0.3941 0.4537 -0.3118
C151 C 0.331(3) 0.285(2) 0.1372(16)
H100 H 0.3380 0.2670 0.1583
C152 C 0.307(3) 0.3376(16) 0.1059(16)
H101 H 0.2956 0.3633 0.1002
C153 C 0.3208(16) 0.3094(16) 0.0788(12)
C154 C 0.323(2) 0.3082(18) 0.0353(12)
H102 H 0.3138 0.3306 0.0200
C155 C 0.338(2) 0.2714(15) -0.0236(10)
C156 C 0.3034(19) 0.2510(19) -0.0425(12)
H103 H 0.2782 0.2423 -0.0276
C157 C 0.3054(17) 0.2432(18) -0.0829(12)
H104 H 0.2817 0.2289 -0.0953
C158 C 0.3416(16) 0.2562(12) -0.1055(10)
C159 C 0.3759(17) 0.2770(18) -0.0865(12)
H105 H 0.4009 0.2862 -0.1016
C160 C 0.3743(19) 0.2846(19) -0.0462(13)
H106 H 0.3980 0.2990 -0.0338
C161 C 0.333(2) -0.1178(16) -0.1434(14)
H107 H 0.3290 -0.1093 -0.1166
C162 C 0.341(2) -0.1548(14) -0.1963(18)
H108 H 0.3430 -0.1778 -0.2127
C163 C 0.3372(14) -0.0941(11) -0.1765(15)
C164 C 0.337(2) -0.0506(11) -0.1794(17)
H109 H 0.3326 -0.0348 -0.1563
C165 C 0.341(2) 0.0076(10) -0.2189(14)
C166 C 0.3052(18) 0.0271(12) -0.2369(18)
H110 H 0.2795 0.0124 -0.2452
C167 C 0.3069(16) 0.0677(12) -0.2429(18)
H111 H 0.2822 0.0809 -0.2550
C168 C 0.3442(16) 0.0897(9) -0.2312(12)
C169 C 0.3801(16) 0.0701(12) -0.2131(17)
H112 H 0.4057 0.0848 -0.2049
C170 C 0.3785(19) 0.0293(12) -0.2069(18)
H113 H 0.4031 0.0162 -0.1945
C171 C 0.338(2) 0.1719(19) -0.6424(14)
H114 H 0.3409 0.1861 -0.6667
C172 C 0.328(2) 0.1226(15) -0.6007(16)
H115 H 0.3230 0.0968 -0.5898
C173 C 0.3339(14) 0.1578(16) -0.5801(12)
C174 C 0.3341(19) 0.1633(18) -0.5371(12)
H116 H 0.3295 0.1406 -0.5207
C175 C 0.3386(19) 0.2011(15) -0.4781(10)
C176 C 0.3748(19) 0.1874(18) -0.4556(13)
H117 H 0.3988 0.1737 -0.4682
C177 C 0.3756(17) 0.1936(17) -0.4148(12)
H118 H 0.4003 0.1840 -0.3996
C178 C 0.3407(16) 0.2138(12) -0.3959(10)
C179 C 0.3041(17) 0.2261(18) -0.4182(12)
H119 H 0.2794 0.2387 -0.4055
C180 C 0.3031(18) 0.2202(19) -0.4590(12)
H120 H 0.2780 0.2292 -0.4740
N49 N 0.6002(13) 0.3468(13) -0.0473(12)
N50 N 0.5236(14) 0.3828(12) -0.0875(12)
N51 N 0.5847(13) 0.4300(13) -0.1357(12)
N52 N 0.6613(14) 0.3938(12) -0.0967(12)
N53 N 0.349(2) 0.1861(18) 0.1058(16)
N54 N 0.365(3) 0.1443(15) 0.1543(16)
H121 H 0.3619 0.1259 0.1727
N55 N 0.4095(18) 0.2391(15) 0.0663(15)
N56 N 0.272(2) 0.5452(16) -0.2430(17)
N57 N 0.2007(16) 0.5349(19) -0.2287(19)
H122 H 0.1713 0.5368 -0.2299
N58 N 0.3488(16) 0.5099(16) -0.2052(15)
N59 N 0.8359(19) 0.5939(15) -0.2720(14)
N60 N 0.833(2) 0.6480(15) -0.3085(13)
H123 H 0.8414 0.6680 -0.3235
N61 N 0.7770(17) 0.5530(14) -0.2345(13)
N62 N 0.9034(19) 0.2457(16) 0.0685(16)
N63 N 0.9754(17) 0.261(2) 0.0722(16)
H124 H 1.0040 0.2594 0.0787
N64 N 0.8364(15) 0.2802(16) 0.0322(14)
C181 C 0.5663(12) 0.3281(13) -0.0262(13)
C182 C 0.5204(13) 0.3334(11) -0.0334(10)
C183 C 0.5002(16) 0.3585(11) -0.0618(11)
C184 C 0.4528(15) 0.3641(15) -0.0677(14)
H125 H 0.4293 0.3503 -0.0543
C185 C 0.4478(14) 0.3926(15) -0.0958(14)
H126 H 0.4202 0.4030 -0.1054
C186 C 0.4919(16) 0.4045(11) -0.1084(11)
C187 C 0.5015(12) 0.4334(11) -0.1369(10)
C188 C 0.5446(12) 0.4450(13) -0.1498(12)
C189 C 0.5534(16) 0.4754(14) -0.1784(14)
H127 H 0.5315 0.4898 -0.1931
C190 C 0.5982(16) 0.4802(14) -0.1808(14)
H128 H 0.6137 0.4988 -0.1971
C191 C 0.6184(12) 0.4513(13) -0.1536(12)
C192 C 0.6646(13) 0.4468(11) -0.1470(10)
C193 C 0.6850(16) 0.4193(11) -0.1208(11)
C194 C 0.7328(15) 0.4139(15) -0.1143(14)
H129 H 0.7564 0.4278 -0.1274
C195 C 0.7375(14) 0.3855(15) -0.0863(15)
H130 H 0.7650 0.3754 -0.0761
C196 C 0.6926(16) 0.3732(11) -0.0748(11)
C197 C 0.6828(12) 0.3453(11) -0.0448(11)
C198 C 0.6399(12) 0.3327(13) -0.0319(12)
C199 C 0.6309(16) 0.3047(14) -0.0005(14)
H131 H 0.6527 0.2907 0.0147
C200 C 0.5858(16) 0.3020(14) 0.0033(13)
H132 H 0.5700 0.2859 0.0218
C201 C 0.3334(19) 0.159(2) 0.131(2)
H133 H 0.3029 0.1503 0.1315
C202 C 0.404(2) 0.1633(19) 0.1448(18)
H134 H 0.4330 0.1593 0.1567
C203 C 0.3942(19) 0.1895(12) 0.1147(13)
C204 C 0.425(2) 0.2166(15) 0.0938(15)
H135 H 0.4557 0.2174 0.1007
C205 C 0.4376(17) 0.2639(15) 0.0433(13)
C206 C 0.436(2) 0.3052(15) 0.0453(16)
H136 H 0.4176 0.3180 0.0643
C207 C 0.4623(19) 0.3277(12) 0.0196(16)
H137 H 0.4608 0.3560 0.0205
C208 C 0.4906(14) 0.3091(12) -0.0076(12)
C209 C 0.492(2) 0.2678(12) -0.0094(16)
H138 H 0.5108 0.2550 -0.0281
C210 C 0.465(2) 0.2452(12) 0.0158(17)
H139 H 0.4662 0.2170 0.0143
C211 C 0.230(2) 0.5541(17) -0.2519(17)
H140 H 0.2216 0.5720 -0.2724
C212 C 0.2245(18) 0.512(2) -0.2028(18)
H141 H 0.2127 0.4949 -0.1827
C213 C 0.2690(15) 0.5184(14) -0.2116(14)
C214 C 0.3091(16) 0.5010(16) -0.1940(16)
H142 H 0.3056 0.4820 -0.1733
C215 C 0.3861(14) 0.4909(16) -0.1872(14)
C216 C 0.3961(17) 0.4516(16) -0.1968(17)
H143 H 0.3771 0.4372 -0.2144
C217 C 0.4338(17) 0.4334(14) -0.1810(17)
H144 H 0.4408 0.4068 -0.1883
C218 C 0.4616(13) 0.4536(12) -0.1545(12)
C219 C 0.4510(17) 0.4927(13) -0.1444(17)
H145 H 0.4694 0.5068 -0.1261
C220 C 0.4138(18) 0.5112(14) -0.1607(18)
H146 H 0.4070 0.5379 -0.1538
C221 C 0.790(2) 0.6403(16) -0.2962(17)
H147 H 0.7634 0.6554 -0.3024
C222 C 0.8590(17) 0.620(2) -0.2935(18)
H148 H 0.8905 0.6182 -0.2977
C223 C 0.7917(17) 0.6072(13) -0.2739(11)
C224 C 0.7591(18) 0.5835(15) -0.2518(15)
H149 H 0.7280 0.5898 -0.2503
C225 C 0.7500(16) 0.5273(13) -0.2113(14)
C226 C 0.748(2) 0.5287(16) -0.1699(14)
H150 H 0.7651 0.5478 -0.1558
C227 C 0.721(2) 0.5025(16) -0.1494(11)
H151 H 0.7192 0.5039 -0.1212
C228 C 0.6951(14) 0.4740(12) -0.1694(11)
C229 C 0.698(2) 0.4727(16) -0.2106(11)
H152 H 0.6808 0.4534 -0.2248
C230 C 0.725(2) 0.4987(17) -0.2315(11)
H153 H 0.7262 0.4973 -0.2597
C231 C 0.943(2) 0.2356(17) 0.0834(16)
H154 H 0.9479 0.2132 0.1000
C232 C 0.9558(18) 0.2895(18) 0.0487(19)
H155 H 0.9703 0.3115 0.0364
C233 C 0.9119(15) 0.2801(15) 0.0466(13)
C234 C 0.8739(16) 0.2991(17) 0.0271(16)
H156 H 0.8763 0.3230 0.0120
C235 C 0.7969(14) 0.2963(14) 0.0149(15)
C236 C 0.7926(16) 0.2919(18) -0.0260(15)
H157 H 0.8150 0.2781 -0.0407
C237 C 0.7555(16) 0.3077(18) -0.0454(12)
H158 H 0.7526 0.3046 -0.0733
C238 C 0.7226(13) 0.3281(13) -0.0242(12)
C239 C 0.7273(16) 0.3326(18) 0.0167(12)
H159 H 0.7052 0.3468 0.0314
C240 C 0.7639(18) 0.3166(19) 0.0361(12)
H160 H 0.7667 0.3195 0.0641
N65 N 0.5885(12) 0.1232(12) -0.0572(11)
N66 N 0.5293(13) 0.0752(11) -0.1054(11)
N67 N 0.6040(12) 0.0359(12) -0.1405(12)
N68 N 0.6669(13) 0.0862(12) -0.0962(12)
N69 N 0.2734(17) 0.2196(15) 0.0575(15)
N70 N 0.2023(15) 0.2010(18) 0.0546(15)
H161 H 0.1731 0.2009 0.0589
N71 N 0.3485(14) 0.1853(15) 0.0207(14)
N72 N 0.3537(18) -0.1185(13) -0.2964(15)
N73 N 0.361(2) -0.1723(14) -0.3332(13)
H162 H 0.3538 -0.1918 -0.3496
N74 N 0.4169(16) -0.0814(13) -0.2494(13)
N75 N 0.9145(18) -0.0810(16) -0.2356(15)
N76 N 0.9860(16) -0.0798(17) -0.2191(18)
H163 H 1.0150 -0.0846 -0.2198
N77 N 0.8428(15) -0.0461(14) -0.2011(15)
N78 N 0.8372(17) 0.2602(15) 0.1137(14)
N79 N 0.829(2) 0.2943(13) 0.1687(13)
H164 H 0.8356 0.3089 0.1896
N80 N 0.7755(16) 0.2222(13) 0.0692(12)
C241 C 0.5485(11) 0.1367(12) -0.0406(12)
C242 C 0.5068(11) 0.1236(10) -0.0532(10)
C243 C 0.4988(15) 0.0948(10) -0.0834(10)
C244 C 0.4543(14) 0.0819(14) -0.0941(13)
H165 H 0.4269 0.0914 -0.0831
C245 C 0.4585(14) 0.0537(14) -0.1227(13)
H166 H 0.4347 0.0400 -0.1357
C246 C 0.5057(15) 0.0484(10) -0.1296(10)
C247 C 0.5250(12) 0.0203(10) -0.1544(10)
C248 C 0.5717(11) 0.0144(12) -0.1588(11)
C249 C 0.5916(15) -0.0152(13) -0.1841(13)
H167 H 0.5759 -0.0341 -0.1998
C250 C 0.6364(15) -0.0113(13) -0.1814(13)
H168 H 0.6583 -0.0267 -0.1951
C251 C 0.6449(12) 0.0210(12) -0.1539(11)
C252 C 0.6878(11) 0.0333(10) -0.1422(10)
C253 C 0.6987(15) 0.0640(10) -0.1147(10)
C254 C 0.7429(14) 0.0746(14) -0.1004(14)
H169 H 0.7707 0.0641 -0.1096
C255 C 0.7375(14) 0.1020(14) -0.0716(14)
H170 H 0.7606 0.1142 -0.0564
C256 C 0.6899(15) 0.1093(10) -0.0684(10)
C257 C 0.6689(12) 0.1343(10) -0.0406(10)
C258 C 0.6223(11) 0.1403(12) -0.0359(12)
C259 C 0.6035(15) 0.1663(13) -0.0056(12)
H171 H 0.6198 0.1820 0.0130
C260 C 0.5585(15) 0.1637(13) -0.0090(13)
H172 H 0.5371 0.1774 0.0068
C261 C 0.232(2) 0.2271(15) 0.0692(15)
H173 H 0.2239 0.2487 0.0861
C262 C 0.2256(17) 0.1744(16) 0.0318(17)
H174 H 0.2136 0.1524 0.0176
C263 C 0.2695(14) 0.1859(13) 0.0337(11)
C264 C 0.3096(14) 0.1695(16) 0.0149(14)
H175 H 0.3070 0.1468 -0.0018
C265 C 0.3864(13) 0.1691(14) 0.0007(14)
C266 C 0.4151(16) 0.1438(17) 0.0214(12)
H176 H 0.4076 0.1361 0.0478
C267 C 0.4543(15) 0.1297(16) 0.0046(12)
H177 H 0.4738 0.1132 0.0197
C268 C 0.4653(12) 0.1395(12) -0.0345(11)
C269 C 0.4363(15) 0.1642(16) -0.0557(12)
H178 H 0.4432 0.1710 -0.0824
C270 C 0.3974(15) 0.1789(17) -0.0384(14)
H179 H 0.3781 0.1958 -0.0533
C271 C 0.3334(16) -0.1434(18) -0.3209(17)
H180 H 0.3029 -0.1410 -0.3288
C272 C 0.4016(18) -0.1660(15) -0.3157(16)
H181 H 0.4278 -0.1819 -0.3188
C273 C 0.3974(16) -0.1326(12) -0.2927(11)
C274 C 0.4308(17) -0.1123(14) -0.2678(13)
H182 H 0.4609 -0.1216 -0.2656
C275 C 0.4436(15) -0.0572(12) -0.2247(13)
C276 C 0.4674(19) -0.0264(15) -0.2427(11)
H183 H 0.4659 -0.0227 -0.2707
C277 C 0.4931(18) -0.0010(14) -0.2196(11)
H184 H 0.5091 0.0202 -0.2318
C278 C 0.4959(13) -0.0063(11) -0.1785(11)
C279 C 0.4717(18) -0.0369(14) -0.1607(11)
H185 H 0.4731 -0.0406 -0.1327
C280 C 0.4456(18) -0.0621(14) -0.1837(14)
H186 H 0.4289 -0.0828 -0.1714
C281 C 0.9637(17) -0.0567(19) -0.1915(16)
H187 H 0.9767 -0.0428 -0.1698
C282 C 0.955(2) -0.0935(16) -0.2445(16)
H188 H 0.9620 -0.1102 -0.2665
C283 C 0.9201(14) -0.0579(13) -0.2016(14)
C284 C 0.8805(15) -0.0396(15) -0.1836(16)
H189 H 0.8824 -0.0238 -0.1602
C285 C 0.8029(13) -0.0298(14) -0.1850(14)
C286 C 0.7680(17) -0.0502(12) -0.1662(18)
H190 H 0.7701 -0.0782 -0.1624
C287 C 0.7304(15) -0.0300(11) -0.1532(17)
H191 H 0.7067 -0.0442 -0.1406
C288 C 0.7270(12) 0.0111(11) -0.1584(12)
C289 C 0.7617(15) 0.0311(12) -0.1773(17)
H192 H 0.7595 0.0591 -0.1814
C290 C 0.7996(14) 0.0112(14) -0.1902(17)
H193 H 0.8234 0.0254 -0.2026
C291 C 0.8576(16) 0.2811(17) 0.1416(18)
H194 H 0.8890 0.2861 0.1421
C292 C 0.7868(18) 0.2810(17) 0.1584(14)
H195 H 0.7595 0.2856 0.1724
C293 C 0.7921(16) 0.2601(11) 0.1244(12)
C294 C 0.7591(17) 0.2392(14) 0.1000(13)
H196 H 0.7280 0.2382 0.1065
C295 C 0.7485(14) 0.2007(14) 0.0420(12)
C296 C 0.7286(18) 0.2197(11) 0.0099(14)
H197 H 0.7317 0.2477 0.0067
C297 C 0.7042(17) 0.1978(11) -0.0177(13)
H198 H 0.6914 0.2109 -0.0400
C298 C 0.6983(12) 0.1570(11) -0.0129(11)
C299 C 0.7185(17) 0.1383(12) 0.0194(13)
H199 H 0.7152 0.1103 0.0227
C300 C 0.7433(18) 0.1598(14) 0.0467(13)
H200 H 0.7567 0.1467 0.0687
N81 N 0.8464(15) 0.2851(12) -0.2853(12)
N82 N 0.8437(16) 0.1987(11) -0.2983(12)
N83 N 0.8433(16) 0.1857(12) -0.2115(12)
N84 N 0.8441(16) 0.2725(11) -0.1989(12)
N85 N 0.8547(11) 0.2845(14) -0.6006(18)
N86 N 0.8627(18) 0.339(2) -0.6374(14)
H201 H 0.8643 0.3541 -0.6586
N87 N 0.8567(16) 0.2777(17) -0.5179(11)
N88 N 0.857(2) -0.1182(17) -0.2982(14)
N89 N 0.8678(19) -0.1521(14) -0.3533(19)
H202 H 0.8711 -0.1726 -0.3694
N90 N 0.8530(19) -0.0349(10) -0.2879(16)
N91 N 0.854(2) 0.1812(16) 0.1034(19)
N92 N 0.885(2) 0.132(2) 0.1370(15)
H203 H 0.8941 0.1172 0.1573
N93 N 0.851(2) 0.1921(18) 0.0202(11)
N94 N 0.856(2) 0.5849(17) -0.1950(15)
N95 N 0.885(2) 0.6207(14) -0.1467(19)
H204 H 0.8935 0.6417 -0.1328
N96 N 0.8528(19) 0.5036(10) -0.2021(17)
C301 C 0.8491(14) 0.2845(12) -0.3262(12)
C302 C 0.8490(13) 0.2503(11) -0.3504(10)
C303 C 0.8460(14) 0.2103(11) -0.3373(13)
C304 C 0.8462(19) 0.1752(14) -0.3621(12)
H205 H 0.8467 0.1748 -0.3904
C305 C 0.8454(19) 0.1429(12) -0.3380(14)
H206 H 0.8455 0.1158 -0.3462
C306 C 0.8445(14) 0.1572(12) -0.2974(13)
C307 C 0.8448(13) 0.1334(9) -0.2629(11)
C308 C 0.8441(14) 0.1466(13) -0.2228(12)
C309 C 0.845(2) 0.1213(12) -0.1883(14)
H207 H 0.8450 0.0930 -0.1883
C310 C 0.845(2) 0.1453(14) -0.1558(13)
H208 H 0.8450 0.1370 -0.1287
C311 C 0.8440(15) 0.1860(12) -0.1703(12)
C312 C 0.8435(14) 0.2209(11) -0.1471(10)
C313 C 0.8430(15) 0.2609(11) -0.1601(13)
C314 C 0.843(2) 0.2958(14) -0.1352(12)
H209 H 0.8412 0.2960 -0.1069
C315 C 0.844(2) 0.3279(12) -0.1589(14)
H210 H 0.8449 0.3550 -0.1506
C316 C 0.8453(14) 0.3134(12) -0.1997(13)
C317 C 0.8467(13) 0.3373(10) -0.2340(11)
C318 C 0.8470(14) 0.3242(13) -0.2740(11)
C319 C 0.8493(19) 0.3492(12) -0.3087(14)
H211 H 0.8494 0.3775 -0.3089
C320 C 0.8514(19) 0.3253(14) -0.3408(12)
H212 H 0.8538 0.3334 -0.3678
C321 C 0.8560(18) 0.299(2) -0.6369(15)
H213 H 0.8526 0.2835 -0.6603
C322 C 0.8663(19) 0.3510(15) -0.5986(17)
H214 H 0.8712 0.3774 -0.5893
C323 C 0.8616(14) 0.3173(16) -0.5759(12)
C324 C 0.8622(18) 0.3127(18) -0.5328(12)
H215 H 0.8665 0.3352 -0.5161
C325 C 0.8562(18) 0.2729(15) -0.4761(11)
C326 C 0.8926(17) 0.257(2) -0.4559(12)
H216 H 0.9192 0.2503 -0.4701
C327 C 0.8904(16) 0.2497(19) -0.4154(12)
H217 H 0.9157 0.2387 -0.4020
C328 C 0.8517(15) 0.2587(12) -0.3939(10)
C329 C 0.8157(16) 0.2760(19) -0.4141(12)
H218 H 0.7893 0.2830 -0.3999
C330 C 0.8179(18) 0.2831(19) -0.4546(13)
H219 H 0.7930 0.2949 -0.4679
C331 C 0.861(2) -0.1538(14) -0.3142(19)
H220 H 0.8598 -0.1779 -0.2995
C332 C 0.868(2) -0.1126(16) -0.3639(15)
H221 H 0.8721 -0.1020 -0.3899
C333 C 0.8620(14) -0.0917(11) -0.3297(16)
C334 C 0.8596(19) -0.0489(12) -0.3230(17)
H222 H 0.8629 -0.0312 -0.3448
C335 C 0.8521(19) 0.0072(10) -0.2826(14)
C336 C 0.8879(18) 0.0276(12) -0.2660(19)
H223 H 0.9146 0.0136 -0.2593
C337 C 0.8854(16) 0.0682(12) -0.2591(18)
H224 H 0.9102 0.0818 -0.2475
C338 C 0.8467(15) 0.0893(9) -0.2691(12)
C339 C 0.8109(16) 0.0688(12) -0.2861(18)
H225 H 0.7843 0.0828 -0.2931
C340 C 0.8134(18) 0.0282(12) -0.2929(18)
H226 H 0.7886 0.0146 -0.3046
C341 C 0.893(3) 0.1240(18) 0.0973(17)
H227 H 0.9083 0.1018 0.0865
C342 C 0.862(2) 0.166(2) 0.1389(15)
H228 H 0.8529 0.1777 0.1632
C343 C 0.8734(17) 0.1545(16) 0.0769(12)
C344 C 0.871(2) 0.1611(18) 0.0341(13)
H229 H 0.8835 0.1423 0.0164
C345 C 0.848(2) 0.1973(16) -0.0218(11)
C346 C 0.8833(19) 0.217(2) -0.0407(13)
H230 H 0.9092 0.2246 -0.0259
C347 C 0.8811(18) 0.2258(19) -0.0810(13)
H231 H 0.9050 0.2399 -0.0934
C348 C 0.8439(16) 0.2140(12) -0.1033(10)
C349 C 0.8092(18) 0.1938(18) -0.0844(13)
H232 H 0.7836 0.1857 -0.0993
C350 C 0.811(2) 0.1853(19) -0.0441(13)
H233 H 0.7873 0.1713 -0.0317
C351 C 0.864(2) 0.6211(14) -0.182(2)
H234 H 0.8553 0.6448 -0.1953
C352 C 0.892(2) 0.5816(16) -0.1362(17)
H235 H 0.9064 0.5719 -0.1129
C353 C 0.8739(15) 0.5599(11) -0.1661(15)
C354 C 0.873(2) 0.5167(12) -0.1708(17)
H236 H 0.8855 0.4993 -0.1518
C355 C 0.852(2) 0.4621(10) -0.2097(15)
C356 C 0.8881(18) 0.4434(12) -0.228(2)
H237 H 0.9142 0.4582 -0.2341
C357 C 0.8862(17) 0.4030(12) -0.2359(19)
H238 H 0.9112 0.3902 -0.2480
C358 C 0.8478(16) 0.3811(9) -0.2265(12)
C359 C 0.8115(17) 0.4002(12) -0.2087(19)
H239 H 0.7852 0.3854 -0.2024
C360 C 0.8135(19) 0.4405(13) -0.2000(19)
H240 H 0.7888 0.4533 -0.1876
N97 N 0.601(3) 0.132(2) -0.360(2)
C361 C 0.596(3) 0.184(2) -0.304(2)
H241 H 0.6181 0.1740 -0.2840
H242 H 0.5665 0.1856 -0.2910
H243 H 0.6054 0.2100 -0.3132
C362 C 0.594(3) 0.156(2) -0.337(2)
O1 O 0.5930(16) 0.1284(13) -0.1484(13)
O2 O 0.4254(15) 0.2424(18) -0.247(2)
N98 N 0.470(6) 0.155(5) -0.180(5)
C363 C 0.489(6) 0.125(5) -0.249(5)
H244 H 0.4900 0.0964 -0.2465
H245 H 0.5157 0.1344 -0.2613
H246 H 0.4633 0.1318 -0.2656
C364 C 0.482(6) 0.142(7) -0.210(5)
O3 O 0.738(4) 0.243(4) -0.247(5)
O4 O 0.585(4) 0.330(4) -0.148(4)
O5 O 0.594(3) 0.445(2) -0.466(2)
loop_
_geom_bond_atom_site_label_1
_geom_bond_atom_site_label_2
_geom_bond_site_symmetry_1
_geom_bond_site_symmetry_2
Zn1 N1 1_555 1_555
Zn2 N49 1_555 1_555
Zn3 N81 1_555 1_555
Zn4 N17 1_555 1_555
Zn5 N33 1_555 1_555
Zn6 N65 1_555 1_555
Fe1 N9 1_555 1_555
Fe2 N12 1_555 1_555
Fe3 N5 1_555 1_555
Fe4 N8 1_555 1_555
Fe5 N27 1_555 1_555
Fe6 N30 1_555 1_555
Fe7 N62 1_555 1_555
Fe8 N40 1_555 1_555
N1 C3 1_555 1_555
N2 Zn1 1_555 1_555
N3 Zn1 1_555 1_555
N4 Zn1 1_555 1_555
N5 C23 1_555 1_555
N6 H1 1_555 1_555
N7 Fe3 1_555 1_555
C1 H2 1_555 1_555
C2 H3 1_555 1_555
N8 C34 1_555 1_555
N9 C42 1_555 1_555
N10 H4 1_555 1_555
N11 Fe1 1_555 1_555
N12 C51 1_555 1_555
N13 H5 1_555 1_555
N14 Fe2 1_555 1_555
C3 C4 1_555 1_555
C4 C5 1_555 1_555
C5 N2 1_555 1_555
C6 C5 1_555 1_555
H6 C6 1_555 1_555
C7 C6 1_555 1_555
H7 C7 1_555 1_555
C8 N2 1_555 1_555
C9 C8 1_555 1_555
C10 N3 1_555 1_555
C11 C10 1_555 1_555
H8 C11 1_555 1_555
C12 C11 1_555 1_555
H9 C12 1_555 1_555
C13 N3 1_555 1_555
C14 C13 1_555 1_555
C15 N4 1_555 1_555
C16 C15 1_555 1_555
H10 C16 1_555 1_555
C17 C16 1_555 1_555
H11 C17 1_555 1_555
C18 N4 1_555 1_555
C19 C18 1_555 1_555
C20 N1 1_555 1_555
C21 C20 1_555 1_555
H12 C21 1_555 1_555
C22 C3 1_555 1_555
H13 C22 1_555 1_555
C23 N6 1_555 1_555
H14 C23 1_555 1_555
C24 N6 1_555 1_555
H15 C24 1_555 1_555
C25 N5 1_555 1_555
C26 N7 1_555 1_555
H16 C26 1_555 1_555
C27 N7 1_555 1_555
C28 C27 1_555 1_555
H17 C28 1_555 1_555
C29 C28 1_555 1_555
H18 C29 1_555 1_555
C30 C4 1_555 1_555
C31 C30 1_555 1_555
H19 C31 1_555 1_555
C32 C27 1_555 1_555
H20 C32 1_555 1_555
N15 C1 1_555 1_555
H21 N15 1_555 1_555
N16 Fe4 1_555 1_555
C33 C1 1_555 1_555
C34 C33 1_555 1_555
H22 C34 1_555 1_555
C35 N8 1_555 1_555
C36 C35 1_555 1_555
H23 C36 1_555 1_555
C37 C36 1_555 1_555
H24 C37 1_555 1_555
C38 C9 1_555 1_555
C39 C38 1_555 1_555
H25 C39 1_555 1_555
C40 C35 1_555 1_555
H26 C40 1_555 1_555
C41 N10 1_555 1_555
H27 C41 1_555 1_555
C42 N10 1_555 1_555
H28 C42 1_555 1_555
C43 N9 1_555 1_555
C44 N11 1_555 1_555
H29 C44 1_555 1_555
C45 N11 1_555 1_555
C46 C45 1_555 1_555
H30 C46 1_555 1_555
C47 C46 1_555 1_555
H31 C47 1_555 1_555
C48 C14 1_555 1_555
C49 C48 1_555 1_555
H32 C49 1_555 1_555
C50 C45 1_555 1_555
H33 C50 1_555 1_555
C51 N13 1_555 1_555
H34 C51 1_555 1_555
C52 N13 1_555 1_555
H35 C52 1_555 1_555
C53 N12 1_555 1_555
C54 N14 1_555 1_555
H36 C54 1_555 1_555
C55 N14 1_555 1_555
C56 C55 1_555 1_555
H37 C56 1_555 1_555
C57 C56 1_555 1_555
H38 C57 1_555 1_555
C58 C19 1_555 1_555
C59 C58 1_555 1_555
H39 C59 1_555 1_555
C60 C55 1_555 1_555
H40 C60 1_555 1_555
N17 C61 1_555 1_555
N18 Zn4 1_555 1_555
N19 Zn4 1_555 1_555
N20 Zn4 1_555 1_555
N21 Fe2 1_555 1_555
N22 H41 1_555 1_555
N23 Fe2 1_555 1_555
N24 Fe1 1_555 1_555
N25 H42 1_555 1_555
N26 Fe1 1_555 1_555
N27 C102 1_555 1_555
N28 H43 1_555 1_555
N29 Fe5 1_555 1_555
N30 C111 1_555 1_555
N31 H44 1_555 1_555
N32 Fe6 1_555 1_555
C61 C62 1_555 1_555
C62 C63 1_555 1_555
C63 N18 1_555 1_555
C64 C63 1_555 1_555
H45 C64 1_555 1_555
C65 C64 1_555 1_555
H46 C65 1_555 1_555
C66 N18 1_555 1_555
C67 C66 1_555 1_555
C68 N19 1_555 1_555
C69 C68 1_555 1_555
H47 C69 1_555 1_555
C70 C69 1_555 1_555
H48 C70 1_555 1_555
C71 N19 1_555 1_555
C72 C71 1_555 1_555
C73 N20 1_555 1_555
C74 C73 1_555 1_555
H49 C74 1_555 1_555
C75 C74 1_555 1_555
H50 C75 1_555 1_555
C76 N20 1_555 1_555
C77 C76 1_555 1_555
C78 N17 1_555 1_555
C79 C78 1_555 1_555
H51 C79 1_555 1_555
C80 C61 1_555 1_555
H52 C80 1_555 1_555
C81 N21 1_555 1_555
H53 C81 1_555 1_555
C82 N22 1_555 1_555
H54 C82 1_555 1_555
C83 N21 1_555 1_555
C84 N23 1_555 1_555
H55 C84 1_555 1_555
C85 N23 1_555 1_555
C86 C85 1_555 1_555
H56 C86 1_555 1_555
C87 C86 1_555 1_555
H57 C87 1_555 1_555
C88 C62 1_555 1_555
C89 C88 1_555 1_555
H58 C89 1_555 1_555
C90 C85 1_555 1_555
H59 C90 1_555 1_555
C91 N24 1_555 1_555
H60 C91 1_555 1_555
C92 N25 1_555 1_555
H61 C92 1_555 1_555
C93 N24 1_555 1_555
C94 N26 1_555 1_555
H62 C94 1_555 1_555
C95 N26 1_555 1_555
C96 C95 1_555 1_555
H63 C96 1_555 1_555
C97 C96 1_555 1_555
H64 C97 1_555 1_555
C98 C67 1_555 1_555
C99 C98 1_555 1_555
H65 C99 1_555 1_555
C100 C95 1_555 1_555
H66 C100 1_555 1_555
C101 N28 1_555 1_555
H67 C101 1_555 1_555
C102 N28 1_555 1_555
H68 C102 1_555 1_555
C103 N27 1_555 1_555
C104 N29 1_555 1_555
H69 C104 1_555 1_555
C105 N29 1_555 1_555
C106 C105 1_555 1_555
H70 C106 1_555 1_555
C107 C106 1_555 1_555
H71 C107 1_555 1_555
C108 C72 1_555 1_555
C109 C108 1_555 1_555
H72 C109 1_555 1_555
C110 C105 1_555 1_555
H73 C110 1_555 1_555
C111 N31 1_555 1_555
H74 C111 1_555 1_555
C112 N31 1_555 1_555
H75 C112 1_555 1_555
C113 N30 1_555 1_555
C114 N32 1_555 1_555
H76 C114 1_555 1_555
C115 N32 1_555 1_555
C116 C115 1_555 1_555
H77 C116 1_555 1_555
C117 C116 1_555 1_555
H78 C117 1_555 1_555
C118 C77 1_555 1_555
C119 C118 1_555 1_555
H79 C119 1_555 1_555
C120 C115 1_555 1_555
H80 C120 1_555 1_555
N33 C121 1_555 1_555
N34 Zn5 1_555 1_555
N35 Zn5 1_555 1_555
N36 Zn5 1_555 1_555
N37 Fe4 1_555 1_555
N38 H81 1_555 1_555
N39 Fe4 1_555 1_555
N40 C151 1_555 1_555
N41 H82 1_555 1_555
N42 Fe8 1_555 1_555
N43 Fe5 1_555 1_555
N44 H83 1_555 1_555
N45 Fe5 1_555 1_555
N46 Fe1 1_555 1_555
N47 H84 1_555 1_555
N48 Fe1 1_555 1_555
C121 C122 1_555 1_555
C122 C123 1_555 1_555
C123 N34 1_555 1_555
C124 C123 1_555 1_555
H85 C124 1_555 1_555
C125 C124 1_555 1_555
H86 C125 1_555 1_555
C126 N34 1_555 1_555
C127 C126 1_555 1_555
C128 N35 1_555 1_555
C129 C128 1_555 1_555
H87 C129 1_555 1_555
C130 C129 1_555 1_555
H88 C130 1_555 1_555
C131 N35 1_555 1_555
C132 C131 1_555 1_555
C133 N36 1_555 1_555
C134 C133 1_555 1_555
H89 C134 1_555 1_555
C135 C134 1_555 1_555
H90 C135 1_555 1_555
C136 N36 1_555 1_555
C137 C136 1_555 1_555
C138 N33 1_555 1_555
C139 C138 1_555 1_555
H91 C139 1_555 1_555
C140 C121 1_555 1_555
H92 C140 1_555 1_555
C141 N37 1_555 1_555
H93 C141 1_555 1_555
C142 N38 1_555 1_555
H94 C142 1_555 1_555
C143 N37 1_555 1_555
C144 N39 1_555 1_555
H95 C144 1_555 1_555
C145 N39 1_555 1_555
C146 C145 1_555 1_555
H96 C146 1_555 1_555
C147 C146 1_555 1_555
H97 C147 1_555 1_555
C148 C122 1_555 1_555
C149 C148 1_555 1_555
H98 C149 1_555 1_555
C150 C145 1_555 1_555
H99 C150 1_555 1_555
C151 N41 1_555 1_555
H100 C151 1_555 1_555
C152 N41 1_555 1_555
H101 C152 1_555 1_555
C153 N40 1_555 1_555
C154 N42 1_555 1_555
H102 C154 1_555 1_555
C155 N42 1_555 1_555
C156 C155 1_555 1_555
H103 C156 1_555 1_555
C157 C156 1_555 1_555
H104 C157 1_555 1_555
C158 C127 1_555 1_555
C159 C158 1_555 1_555
H105 C159 1_555 1_555
C160 C155 1_555 1_555
H106 C160 1_555 1_555
C161 N44 1_555 1_555
H107 C161 1_555 1_555
C162 N43 1_555 1_555
H108 C162 1_555 1_555
C163 N43 1_555 1_555
C164 N45 1_555 1_555
H109 C164 1_555 1_555
C165 N45 1_555 1_555
C166 C165 1_555 1_555
H110 C166 1_555 1_555
C167 C166 1_555 1_555
H111 C167 1_555 1_555
C168 C132 1_555 1_555
C169 C168 1_555 1_555
H112 C169 1_555 1_555
C170 C165 1_555 1_555
H113 C170 1_555 1_555
C171 N46 1_555 1_555
H114 C171 1_555 1_555
C172 N47 1_555 1_555
H115 C172 1_555 1_555
C173 N46 1_555 1_555
C174 N48 1_555 1_555
H116 C174 1_555 1_555
C175 N48 1_555 1_555
C176 C175 1_555 1_555
H117 C176 1_555 1_555
C177 C176 1_555 1_555
H118 C177 1_555 1_555
C178 C137 1_555 1_555
C179 C178 1_555 1_555
H119 C179 1_555 1_555
C180 C175 1_555 1_555
H120 C180 1_555 1_555
N49 C181 1_555 1_555
N50 Zn2 1_555 1_555
N51 Zn2 1_555 1_555
N52 Zn2 1_555 1_555
N53 Fe8 1_555 1_555
N54 H121 1_555 1_555
N55 Fe8 1_555 1_555
N56 Fe4 1_555 1_555
N57 H122 1_555 1_555
N58 Fe4 1_555 1_555
N59 Fe3 1_555 1_555
N60 H123 1_555 1_555
N61 Fe3 1_555 1_555
N62 C231 1_555 1_555
N63 H124 1_555 1_555
N64 Fe7 1_555 1_555
C181 C182 1_555 1_555
C182 C183 1_555 1_555
C183 N50 1_555 1_555
C184 C183 1_555 1_555
H125 C184 1_555 1_555
C185 C184 1_555 1_555
H126 C185 1_555 1_555
C186 N50 1_555 1_555
C187 C186 1_555 1_555
C188 N51 1_555 1_555
C189 C188 1_555 1_555
H127 C189 1_555 1_555
C190 C189 1_555 1_555
H128 C190 1_555 1_555
C191 N51 1_555 1_555
C192 C191 1_555 1_555
C193 N52 1_555 1_555
C194 C193 1_555 1_555
H129 C194 1_555 1_555
C195 C194 1_555 1_555
H130 C195 1_555 1_555
C196 N52 1_555 1_555
C197 C196 1_555 1_555
C198 N49 1_555 1_555
C199 C198 1_555 1_555
H131 C199 1_555 1_555
C200 C181 1_555 1_555
H132 C200 1_555 1_555
C201 N53 1_555 1_555
H133 C201 1_555 1_555
C202 N54 1_555 1_555
H134 C202 1_555 1_555
C203 N53 1_555 1_555
C204 N55 1_555 1_555
H135 C204 1_555 1_555
C205 N55 1_555 1_555
C206 C205 1_555 1_555
H136 C206 1_555 1_555
C207 C206 1_555 1_555
H137 C207 1_555 1_555
C208 C182 1_555 1_555
C209 C208 1_555 1_555
H138 C209 1_555 1_555
C210 C205 1_555 1_555
H139 C210 1_555 1_555
C211 N56 1_555 1_555
H140 C211 1_555 1_555
C212 N57 1_555 1_555
H141 C212 1_555 1_555
C213 N56 1_555 1_555
C214 N58 1_555 1_555
H142 C214 1_555 1_555
C215 N58 1_555 1_555
C216 C215 1_555 1_555
H143 C216 1_555 1_555
C217 C216 1_555 1_555
H144 C217 1_555 1_555
C218 C187 1_555 1_555
C219 C218 1_555 1_555
H145 C219 1_555 1_555
C220 C215 1_555 1_555
H146 C220 1_555 1_555
C221 N60 1_555 1_555
H147 C221 1_555 1_555
C222 N59 1_555 1_555
H148 C222 1_555 1_555
C223 N59 1_555 1_555
C224 N61 1_555 1_555
H149 C224 1_555 1_555
C225 N61 1_555 1_555
C226 C225 1_555 1_555
H150 C226 1_555 1_555
C227 C226 1_555 1_555
H151 C227 1_555 1_555
C228 C192 1_555 1_555
C229 C228 1_555 1_555
H152 C229 1_555 1_555
C230 C225 1_555 1_555
H153 C230 1_555 1_555
C231 N63 1_555 1_555
H154 C231 1_555 1_555
C232 N63 1_555 1_555
H155 C232 1_555 1_555
C233 N62 1_555 1_555
C234 N64 1_555 1_555
H156 C234 1_555 1_555
C235 N64 1_555 1_555
C236 C235 1_555 1_555
H157 C236 1_555 1_555
C237 C236 1_555 1_555
H158 C237 1_555 1_555
C238 C197 1_555 1_555
C239 C238 1_555 1_555
H159 C239 1_555 1_555
C240 C235 1_555 1_555
H160 C240 1_555 1_555
N65 C241 1_555 1_555
N66 Zn6 1_555 1_555
N67 Zn6 1_555 1_555
N68 Zn6 1_555 1_555
N69 Fe8 1_555 1_555
N70 H161 1_555 1_555
N71 Fe8 1_555 1_555
N72 Fe5 1_555 1_555
N73 H162 1_555 1_555
N74 Fe5 1_555 1_555
N75 Fe6 1_555 1_555
N76 H163 1_555 1_555
N77 Fe6 1_555 1_555
N78 Fe7 1_555 1_555
N79 H164 1_555 1_555
N80 Fe7 1_555 1_555
C241 C242 1_555 1_555
C242 C243 1_555 1_555
C243 N66 1_555 1_555
C244 C243 1_555 1_555
H165 C244 1_555 1_555
C245 C244 1_555 1_555
H166 C245 1_555 1_555
C246 N66 1_555 1_555
C247 C246 1_555 1_555
C248 N67 1_555 1_555
C249 C248 1_555 1_555
H167 C249 1_555 1_555
C250 C249 1_555 1_555
H168 C250 1_555 1_555
C251 N67 1_555 1_555
C252 C251 1_555 1_555
C253 N68 1_555 1_555
C254 C253 1_555 1_555
H169 C254 1_555 1_555
C255 C254 1_555 1_555
H170 C255 1_555 1_555
C256 N68 1_555 1_555
C257 C256 1_555 1_555
C258 N65 1_555 1_555
C259 C258 1_555 1_555
H171 C259 1_555 1_555
C260 C241 1_555 1_555
H172 C260 1_555 1_555
C261 N69 1_555 1_555
H173 C261 1_555 1_555
C262 N70 1_555 1_555
H174 C262 1_555 1_555
C263 N69 1_555 1_555
C264 N71 1_555 1_555
H175 C264 1_555 1_555
C265 N71 1_555 1_555
C266 C265 1_555 1_555
H176 C266 1_555 1_555
C267 C266 1_555 1_555
H177 C267 1_555 1_555
C268 C242 1_555 1_555
C269 C268 1_555 1_555
H178 C269 1_555 1_555
C270 C265 1_555 1_555
H179 C270 1_555 1_555
C271 N72 1_555 1_555
H180 C271 1_555 1_555
C272 N73 1_555 1_555
H181 C272 1_555 1_555
C273 N72 1_555 1_555
C274 N74 1_555 1_555
H182 C274 1_555 1_555
C275 N74 1_555 1_555
C276 C275 1_555 1_555
H183 C276 1_555 1_555
C277 C276 1_555 1_555
H184 C277 1_555 1_555
C278 C247 1_555 1_555
C279 C278 1_555 1_555
H185 C279 1_555 1_555
C280 C275 1_555 1_555
H186 C280 1_555 1_555
C281 N76 1_555 1_555
H187 C281 1_555 1_555
C282 N75 1_555 1_555
H188 C282 1_555 1_555
C283 N75 1_555 1_555
C284 N77 1_555 1_555
H189 C284 1_555 1_555
C285 N77 1_555 1_555
C286 C285 1_555 1_555
H190 C286 1_555 1_555
C287 C286 1_555 1_555
H191 C287 1_555 1_555
C288 C252 1_555 1_555
C289 C288 1_555 1_555
H192 C289 1_555 1_555
C290 C285 1_555 1_555
H193 C290 1_555 1_555
C291 N78 1_555 1_555
H194 C291 1_555 1_555
C292 N79 1_555 1_555
H195 C292 1_555 1_555
C293 N78 1_555 1_555
C294 N80 1_555 1_555
H196 C294 1_555 1_555
C295 N80 1_555 1_555
C296 C295 1_555 1_555
H197 C296 1_555 1_555
C297 C296 1_555 1_555
H198 C297 1_555 1_555
C298 C257 1_555 1_555
C299 C298 1_555 1_555
H199 C299 1_555 1_555
C300 C295 1_555 1_555
H200 C300 1_555 1_555
N81 C301 1_555 1_555
N82 Zn3 1_555 1_555
N83 Zn3 1_555 1_555
N84 Zn3 1_555 1_555
N85 Fe2 1_555 1_555
N86 H201 1_555 1_555
N87 Fe2 1_555 1_555
N88 Fe6 1_555 1_555
N89 H202 1_555 1_555
N90 Fe6 1_555 1_555
N91 Fe7 1_555 1_555
N92 H203 1_555 1_555
N93 Fe7 1_555 1_555
N94 Fe3 1_555 1_555
N95 H204 1_555 1_555
N96 Fe3 1_555 1_555
C301 C302 1_555 1_555
C302 C303 1_555 1_555
C303 N82 1_555 1_555
C304 C303 1_555 1_555
H205 C304 1_555 1_555
C305 C304 1_555 1_555
H206 C305 1_555 1_555
C306 N82 1_555 1_555
C307 C306 1_555 1_555
C308 N83 1_555 1_555
C309 C308 1_555 1_555
H207 C309 1_555 1_555
C310 C309 1_555 1_555
H208 C310 1_555 1_555
C311 N83 1_555 1_555
C312 C311 1_555 1_555
C313 N84 1_555 1_555
C314 C313 1_555 1_555
H209 C314 1_555 1_555
C315 C314 1_555 1_555
H210 C315 1_555 1_555
C316 N84 1_555 1_555
C317 C316 1_555 1_555
C318 N81 1_555 1_555
C319 C318 1_555 1_555
H211 C319 1_555 1_555
C320 C301 1_555 1_555
H212 C320 1_555 1_555
C321 N85 1_555 1_555
H213 C321 1_555 1_555
C322 N86 1_555 1_555
H214 C322 1_555 1_555
C323 N85 1_555 1_555
C324 N87 1_555 1_555
H215 C324 1_555 1_555
C325 N87 1_555 1_555
C326 C325 1_555 1_555
H216 C326 1_555 1_555
C327 C326 1_555 1_555
H217 C327 1_555 1_555
C328 C302 1_555 1_555
C329 C328 1_555 1_555
H218 C329 1_555 1_555
C330 C325 1_555 1_555
H219 C330 1_555 1_555
C331 N88 1_555 1_555
H220 C331 1_555 1_555
C332 N89 1_555 1_555
H221 C332 1_555 1_555
C333 N88 1_555 1_555
C334 N90 1_555 1_555
H222 C334 1_555 1_555
C335 N90 1_555 1_555
C336 C335 1_555 1_555
H223 C336 1_555 1_555
C337 C336 1_555 1_555
H224 C337 1_555 1_555
C338 C307 1_555 1_555
C339 C338 1_555 1_555
H225 C339 1_555 1_555
C340 C335 1_555 1_555
H226 C340 1_555 1_555
C341 N92 1_555 1_555
H227 C341 1_555 1_555
C342 N91 1_555 1_555
H228 C342 1_555 1_555
C343 N91 1_555 1_555
C344 N93 1_555 1_555
H229 C344 1_555 1_555
C345 N93 1_555 1_555
C346 C345 1_555 1_555
H230 C346 1_555 1_555
C347 C346 1_555 1_555
H231 C347 1_555 1_555
C348 C312 1_555 1_555
C349 C348 1_555 1_555
H232 C349 1_555 1_555
C350 C345 1_555 1_555
H233 C350 1_555 1_555
C351 N94 1_555 1_555
H234 C351 1_555 1_555
C352 N95 1_555 1_555
H235 C352 1_555 1_555
C353 N94 1_555 1_555
C354 N96 1_555 1_555
H236 C354 1_555 1_555
C355 N96 1_555 1_555
C356 C355 1_555 1_555
H237 C356 1_555 1_555
C357 C356 1_555 1_555
H238 C357 1_555 1_555
C358 C317 1_555 1_555
C359 C358 1_555 1_555
H239 C359 1_555 1_555
C360 C355 1_555 1_555
H240 C360 1_555 1_555
N97 Zn4 1_555 1_555
C361 H241 1_555 1_555
H242 C361 1_555 1_555
H243 C361 1_555 1_555
C362 N97 1_555 1_555
O1 Zn6 1_555 1_555
O2 Zn5 1_555 1_555
N98 C364 1_555 1_555
C363 H244 1_555 1_555
H245 C363 1_555 1_555
H246 C363 1_555 1_555
C364 C363 1_555 1_555
C2 N15 1_555 1_555
C2 N16 1_555 1_555
C7 C8 1_555 1_555
C9 C10 1_555 1_555
C12 C13 1_555 1_555
C14 C15 1_555 1_555
C17 C18 1_555 1_555
C19 C20 1_555 1_555
C21 C22 1_555 1_555
C24 C25 1_555 1_555
C25 C26 1_555 1_555
C29 C30 1_555 1_555
C31 C32 1_555 1_555
N16 C33 1_555 1_555
C37 C38 1_555 1_555
C39 C40 1_555 1_555
C41 C43 1_555 1_555
C43 C44 1_555 1_555
C47 C48 1_555 1_555
C49 C50 1_555 1_555
C52 C53 1_555 1_555
C53 C54 1_555 1_555
C57 C58 1_555 1_555
C59 C60 1_555 1_555
N22 C81 1_555 1_555
N25 C91 1_555 1_555
C65 C66 1_555 1_555
C67 C68 1_555 1_555
C70 C71 1_555 1_555
C72 C73 1_555 1_555
C75 C76 1_555 1_555
C77 C78 1_555 1_555
C79 C80 1_555 1_555
C82 C83 1_555 1_555
C83 C84 1_555 1_555
C87 C88 1_555 1_555
C89 C90 1_555 1_555
C92 C93 1_555 1_555
C93 C94 1_555 1_555
C97 C98 1_555 1_555
C99 C100 1_555 1_555
C101 C103 1_555 1_555
C103 C104 1_555 1_555
C107 C108 1_555 1_555
C109 C110 1_555 1_555
C112 C113 1_555 1_555
C113 C114 1_555 1_555
C117 C118 1_555 1_555
C119 C120 1_555 1_555
N38 C141 1_555 1_555
N44 C162 1_555 1_555
N47 C171 1_555 1_555
C125 C126 1_555 1_555
C127 C128 1_555 1_555
C130 C131 1_555 1_555
C132 C133 1_555 1_555
C135 C136 1_555 1_555
C137 C138 1_555 1_555
C139 C140 1_555 1_555
C142 C143 1_555 1_555
C143 C144 1_555 1_555
C147 C148 1_555 1_555
C149 C150 1_555 1_555
C152 C153 1_555 1_555
C153 C154 1_555 1_555
C157 C158 1_555 1_555
C159 C160 1_555 1_555
C161 C163 1_555 1_555
C163 C164 1_555 1_555
C167 C168 1_555 1_555
C169 C170 1_555 1_555
C172 C173 1_555 1_555
C173 C174 1_555 1_555
C177 C178 1_555 1_555
C179 C180 1_555 1_555
N54 C201 1_555 1_555
N57 C211 1_555 1_555
N60 C222 1_555 1_555
C185 C186 1_555 1_555
C187 C188 1_555 1_555
C190 C191 1_555 1_555
C192 C193 1_555 1_555
C195 C196 1_555 1_555
C197 C198 1_555 1_555
C199 C200 1_555 1_555
C202 C203 1_555 1_555
C203 C204 1_555 1_555
C207 C208 1_555 1_555
C209 C210 1_555 1_555
C212 C213 1_555 1_555
C213 C214 1_555 1_555
C217 C218 1_555 1_555
C219 C220 1_555 1_555
C221 C223 1_555 1_555
C223 C224 1_555 1_555
C227 C228 1_555 1_555
C229 C230 1_555 1_555
C232 C233 1_555 1_555
C233 C234 1_555 1_555
C237 C238 1_555 1_555
C239 C240 1_555 1_555
N70 C261 1_555 1_555
N73 C271 1_555 1_555
N76 C282 1_555 1_555
N79 C291 1_555 1_555
C245 C246 1_555 1_555
C247 C248 1_555 1_555
C250 C251 1_555 1_555
C252 C253 1_555 1_555
C255 C256 1_555 1_555
C257 C258 1_555 1_555
C259 C260 1_555 1_555
C262 C263 1_555 1_555
C263 C264 1_555 1_555
C267 C268 1_555 1_555
C269 C270 1_555 1_555
C272 C273 1_555 1_555
C273 C274 1_555 1_555
C277 C278 1_555 1_555
C279 C280 1_555 1_555
C281 C283 1_555 1_555
C283 C284 1_555 1_555
C287 C288 1_555 1_555
C289 C290 1_555 1_555
C292 C293 1_555 1_555
C293 C294 1_555 1_555
C297 C298 1_555 1_555
C299 C300 1_555 1_555
N86 C321 1_555 1_555
N89 C331 1_555 1_555
N92 C342 1_555 1_555
N95 C351 1_555 1_555
C305 C306 1_555 1_555
C307 C308 1_555 1_555
C310 C311 1_555 1_555
C312 C313 1_555 1_555
C315 C316 1_555 1_555
C317 C318 1_555 1_555
C319 C320 1_555 1_555
C322 C323 1_555 1_555
C323 C324 1_555 1_555
C327 C328 1_555 1_555
C329 C330 1_555 1_555
C332 C333 1_555 1_555
C333 C334 1_555 1_555
C337 C338 1_555 1_555
C339 C340 1_555 1_555
C341 C343 1_555 1_555
C343 C344 1_555 1_555
C347 C348 1_555 1_555
C349 C350 1_555 1_555
C352 C353 1_555 1_555
C353 C354 1_555 1_555
C357 C358 1_555 1_555
C359 C360 1_555 1_555
C361 C362 1_555 1_555

#END
