# generated using pymatgen
data_FeP4H105Pt2C58(Cl2O)4
_symmetry_space_group_name_H-M   'P 1'
_cell_length_a   10.40980000
_cell_length_b   30.42520000
_cell_length_c   39.73201266
_cell_angle_alpha   111.89255475
_cell_angle_beta   90.00000000
_cell_angle_gamma   90.00000000
_symmetry_Int_Tables_number   1
_chemical_formula_structural   FeP4H105Pt2C58(Cl2O)4
_chemical_formula_sum   'Fe8 P32 H840 Pt16 C464 Cl64 O32'
_cell_volume   11676.43893914
_cell_formula_units_Z   8
loop_
 _symmetry_equiv_pos_site_id
 _symmetry_equiv_pos_as_xyz
  1  'x, y, z'
loop_
 _atom_site_type_symbol
 _atom_site_label
 _atom_site_symmetry_multiplicity
 _atom_site_fract_x
 _atom_site_fract_y
 _atom_site_fract_z
 _atom_site_occupancy
  Fe  Fe1  1  0.294530  0.326740  0.721730  1.0
  Fe  Fe2  1  0.794530  0.826740  0.221730  1.0
  Fe  Fe3  1  0.294530  0.173260  0.278270  1.0
  Fe  Fe4  1  0.794530  0.673260  0.778270  1.0
  Fe  Fe5  1  0.705470  0.673260  0.278270  1.0
  Fe  Fe6  1  0.205470  0.173260  0.778270  1.0
  Fe  Fe7  1  0.705470  0.826740  0.721730  1.0
  Fe  Fe8  1  0.205470  0.326740  0.221730  1.0
  P  P9  1  0.873300  0.263720  0.611360  1.0
  P  P10  1  0.373300  0.763720  0.111360  1.0
  P  P11  1  0.873300  0.236280  0.388640  1.0
  P  P12  1  0.373300  0.736280  0.888640  1.0
  P  P13  1  0.126700  0.736280  0.388640  1.0
  P  P14  1  0.626700  0.236280  0.888640  1.0
  P  P15  1  0.126700  0.763720  0.611360  1.0
  P  P16  1  0.626700  0.263720  0.111360  1.0
  P  P17  1  0.175700  0.147520  0.566000  1.0
  P  P18  1  0.675700  0.647520  0.066000  1.0
  P  P19  1  0.175700  0.352480  0.434000  1.0
  P  P20  1  0.675700  0.852480  0.934000  1.0
  P  P21  1  0.824300  0.852480  0.434000  1.0
  P  P22  1  0.324300  0.352480  0.934000  1.0
  P  P23  1  0.824300  0.647520  0.566000  1.0
  P  P24  1  0.324300  0.147520  0.066000  1.0
  P  P25  1  0.695500  0.364100  0.823640  1.0
  P  P26  1  0.195500  0.864100  0.323640  1.0
  P  P27  1  0.695500  0.135900  0.176360  1.0
  P  P28  1  0.195500  0.635900  0.676360  1.0
  P  P29  1  0.304500  0.635900  0.176360  1.0
  P  P30  1  0.804500  0.135900  0.676360  1.0
  P  P31  1  0.304500  0.864100  0.823640  1.0
  P  P32  1  0.804500  0.364100  0.323640  1.0
  P  P33  1  0.487700  0.505090  0.881980  1.0
  P  P34  1  0.987700  0.005090  0.381980  1.0
  P  P35  1  0.487700  0.994910  0.118020  1.0
  P  P36  1  0.987700  0.494910  0.618020  1.0
  P  P37  1  0.512300  0.494910  0.118020  1.0
  P  P38  1  0.012300  0.994910  0.618020  1.0
  P  P39  1  0.512300  0.005090  0.881980  1.0
  P  P40  1  0.012300  0.505090  0.381980  1.0
  H  H41  1  0.541500  0.474900  0.742600  1
  H  H42  1  0.041500  0.974900  0.242600  1
  H  H43  1  0.541500  0.025100  0.257400  1
  H  H44  1  0.041500  0.525100  0.757400  1
  H  H45  1  0.458500  0.525100  0.257400  1
  H  H46  1  0.958500  0.025100  0.757400  1
  H  H47  1  0.458500  0.974900  0.742600  1
  H  H48  1  0.958500  0.474900  0.242600  1
  H  H49  1  0.571600  0.524100  0.738900  1
  H  H50  1  0.071600  0.024100  0.238900  1
  H  H51  1  0.571600  0.975900  0.261100  1
  H  H52  1  0.071600  0.475900  0.761100  1
  H  H53  1  0.428400  0.475900  0.261100  1
  H  H54  1  0.928400  0.975900  0.761100  1
  H  H55  1  0.428400  0.024100  0.738900  1
  H  H56  1  0.928400  0.524100  0.238900  1
  H  H57  1  0.441700  0.357400  0.598900  1
  H  H58  1  0.941700  0.857400  0.098900  1
  H  H59  1  0.441700  0.142600  0.401100  1
  H  H60  1  0.941700  0.642600  0.901100  1
  H  H61  1  0.558300  0.642600  0.401100  1
  H  H62  1  0.058300  0.142600  0.901100  1
  H  H63  1  0.558300  0.857400  0.598900  1
  H  H64  1  0.058300  0.357400  0.098900  1
  H  H65  1  0.335300  0.316200  0.587900  1
  H  H66  1  0.835300  0.816200  0.087900  1
  H  H67  1  0.335300  0.183800  0.412100  1
  H  H68  1  0.835300  0.683800  0.912100  1
  H  H69  1  0.664700  0.683800  0.412100  1
  H  H70  1  0.164700  0.183800  0.912100  1
  H  H71  1  0.664700  0.816200  0.587900  1
  H  H72  1  0.164700  0.316200  0.087900  1
  H  H73  1  0.031900  0.333700  0.566300  1
  H  H74  1  0.531900  0.833700  0.066300  1
  H  H75  1  0.031900  0.166300  0.433700  1
  H  H76  1  0.531900  0.666300  0.933700  1
  H  H77  1  0.968100  0.666300  0.433700  1
  H  H78  1  0.468100  0.166300  0.933700  1
  H  H79  1  0.968100  0.833700  0.566300  1
  H  H80  1  0.468100  0.333700  0.066300  1
  H  H81  1  0.913700  0.299600  0.553200  1
  H  H82  1  0.413700  0.799600  0.053200  1
  H  H83  1  0.913700  0.200400  0.446800  1
  H  H84  1  0.413700  0.700400  0.946800  1
  H  H85  1  0.086300  0.700400  0.446800  1
  H  H86  1  0.586300  0.200400  0.946800  1
  H  H87  1  0.086300  0.799600  0.553200  1
  H  H88  1  0.586300  0.299600  0.053200  1
  H  H89  1  0.048500  0.279300  0.557500  1
  H  H90  1  0.548500  0.779300  0.057500  1
  H  H91  1  0.048500  0.220700  0.442500  1
  H  H92  1  0.548500  0.720700  0.942500  1
  H  H93  1  0.951500  0.720700  0.442500  1
  H  H94  1  0.451500  0.220700  0.942500  1
  H  H95  1  0.951500  0.779300  0.557500  1
  H  H96  1  0.451500  0.279300  0.057500  1
  H  H97  1  0.822000  0.360000  0.700300  1
  H  H98  1  0.322000  0.860000  0.200300  1
  H  H99  1  0.822000  0.140000  0.299700  1
  H  H100  1  0.322000  0.640000  0.799700  1
  H  H101  1  0.178000  0.640000  0.299700  1
  H  H102  1  0.678000  0.140000  0.799700  1
  H  H103  1  0.178000  0.860000  0.700300  1
  H  H104  1  0.678000  0.360000  0.200300  1
  H  H105  1  0.741400  0.351100  0.665000  1
  H  H106  1  0.241400  0.851100  0.165000  1
  H  H107  1  0.741400  0.148900  0.335000  1
  H  H108  1  0.241400  0.648900  0.835000  1
  H  H109  1  0.258600  0.648900  0.335000  1
  H  H110  1  0.758600  0.148900  0.835000  1
  H  H111  1  0.258600  0.851100  0.665000  1
  H  H112  1  0.758600  0.351100  0.165000  1
  H  H113  1  0.887400  0.364200  0.666100  1
  H  H114  1  0.387400  0.864200  0.166100  1
  H  H115  1  0.887400  0.135800  0.333900  1
  H  H116  1  0.387400  0.635800  0.833900  1
  H  H117  1  0.112600  0.635800  0.333900  1
  H  H118  1  0.612600  0.135800  0.833900  1
  H  H119  1  0.112600  0.864200  0.666100  1
  H  H120  1  0.612600  0.364200  0.166100  1
  H  H121  1  0.891900  0.342100  0.609200  1
  H  H122  1  0.391900  0.842100  0.109200  1
  H  H123  1  0.891900  0.157900  0.390800  1
  H  H124  1  0.391900  0.657900  0.890800  1
  H  H125  1  0.108100  0.657900  0.390800  1
  H  H126  1  0.608100  0.157900  0.890800  1
  H  H127  1  0.108100  0.842100  0.609200  1
  H  H128  1  0.608100  0.342100  0.109200  1
  H  H129  1  0.029000  0.325800  0.618200  1
  H  H130  1  0.529000  0.825800  0.118200  1
  H  H131  1  0.029000  0.174200  0.381800  1
  H  H132  1  0.529000  0.674200  0.881800  1
  H  H133  1  0.971000  0.674200  0.381800  1
  H  H134  1  0.471000  0.174200  0.881800  1
  H  H135  1  0.971000  0.825800  0.618200  1
  H  H136  1  0.471000  0.325800  0.118200  1
  H  H137  1  0.801300  0.275600  0.668700  1
  H  H138  1  0.301300  0.775600  0.168700  1
  H  H139  1  0.801300  0.224400  0.331300  1
  H  H140  1  0.301300  0.724400  0.831300  1
  H  H141  1  0.198700  0.724400  0.331300  1
  H  H142  1  0.698700  0.224400  0.831300  1
  H  H143  1  0.198700  0.775600  0.668700  1
  H  H144  1  0.698700  0.275600  0.168700  1
  H  H145  1  0.949000  0.290100  0.669800  1
  H  H146  1  0.449000  0.790100  0.169800  1
  H  H147  1  0.949000  0.209900  0.330200  1
  H  H148  1  0.449000  0.709900  0.830200  1
  H  H149  1  0.051000  0.709900  0.330200  1
  H  H150  1  0.551000  0.209900  0.830200  1
  H  H151  1  0.051000  0.790100  0.669800  1
  H  H152  1  0.551000  0.290100  0.169800  1
  H  H153  1  0.688600  0.296300  0.599900  1
  H  H154  1  0.188600  0.796300  0.099900  1
  H  H155  1  0.688600  0.203700  0.400100  1
  H  H156  1  0.188600  0.703700  0.900100  1
  H  H157  1  0.311400  0.703700  0.400100  1
  H  H158  1  0.811400  0.203700  0.900100  1
  H  H159  1  0.311400  0.796300  0.599900  1
  H  H160  1  0.811400  0.296300  0.099900  1
  H  H161  1  0.741900  0.256400  0.563500  1
  H  H162  1  0.241900  0.756400  0.063500  1
  H  H163  1  0.741900  0.243600  0.436500  1
  H  H164  1  0.241900  0.743600  0.936500  1
  H  H165  1  0.258100  0.743600  0.436500  1
  H  H166  1  0.758100  0.243600  0.936500  1
  H  H167  1  0.258100  0.756400  0.563500  1
  H  H168  1  0.758100  0.256400  0.063500  1
  H  H169  1  0.540600  0.226600  0.583800  1
  H  H170  1  0.040600  0.726600  0.083800  1
  H  H171  1  0.540600  0.273400  0.416200  1
  H  H172  1  0.040600  0.773400  0.916200  1
  H  H173  1  0.459400  0.773400  0.416200  1
  H  H174  1  0.959400  0.273400  0.916200  1
  H  H175  1  0.459400  0.726600  0.583800  1
  H  H176  1  0.959400  0.226600  0.083800  1
  H  H177  1  0.608200  0.230000  0.619900  1
  H  H178  1  0.108200  0.730000  0.119900  1
  H  H179  1  0.608200  0.270000  0.380100  1
  H  H180  1  0.108200  0.770000  0.880100  1
  H  H181  1  0.391800  0.770000  0.380100  1
  H  H182  1  0.891800  0.270000  0.880100  1
  H  H183  1  0.391800  0.730000  0.619900  1
  H  H184  1  0.891800  0.230000  0.119900  1
  H  H185  1  0.658600  0.194100  0.582600  1
  H  H186  1  0.158600  0.694100  0.082600  1
  H  H187  1  0.658600  0.305900  0.417400  1
  H  H188  1  0.158600  0.805900  0.917400  1
  H  H189  1  0.341400  0.805900  0.417400  1
  H  H190  1  0.841400  0.305900  0.917400  1
  H  H191  1  0.341400  0.694100  0.582600  1
  H  H192  1  0.841400  0.194100  0.082600  1
  H  H193  1  0.257100  0.098300  0.636000  1
  H  H194  1  0.757100  0.598300  0.136000  1
  H  H195  1  0.257100  0.401700  0.364000  1
  H  H196  1  0.757100  0.901700  0.864000  1
  H  H197  1  0.742900  0.901700  0.364000  1
  H  H198  1  0.242900  0.401700  0.864000  1
  H  H199  1  0.742900  0.598300  0.636000  1
  H  H200  1  0.242900  0.098300  0.136000  1
  H  H201  1  0.214900  0.151400  0.642100  1
  H  H202  1  0.714900  0.651400  0.142100  1
  H  H203  1  0.214900  0.348600  0.357900  1
  H  H204  1  0.714900  0.848600  0.857900  1
  H  H205  1  0.785100  0.848600  0.357900  1
  H  H206  1  0.285100  0.348600  0.857900  1
  H  H207  1  0.785100  0.651400  0.642100  1
  H  H208  1  0.285100  0.151400  0.142100  1
  H  H209  1  0.348300  0.130900  0.622600  1
  H  H210  1  0.848300  0.630900  0.122600  1
  H  H211  1  0.348300  0.369100  0.377400  1
  H  H212  1  0.848300  0.869100  0.877400  1
  H  H213  1  0.651700  0.869100  0.377400  1
  H  H214  1  0.151700  0.369100  0.877400  1
  H  H215  1  0.651700  0.630900  0.622600  1
  H  H216  1  0.151700  0.130900  0.122600  1
  H  H217  1  0.358500  0.189900  0.592400  1
  H  H218  1  0.858500  0.689900  0.092400  1
  H  H219  1  0.358500  0.310100  0.407600  1
  H  H220  1  0.858500  0.810100  0.907600  1
  H  H221  1  0.641500  0.810100  0.407600  1
  H  H222  1  0.141500  0.310100  0.907600  1
  H  H223  1  0.641500  0.689900  0.592400  1
  H  H224  1  0.141500  0.189900  0.092400  1
  H  H225  1  0.397100  0.141200  0.559400  1
  H  H226  1  0.897100  0.641200  0.059400  1
  H  H227  1  0.397100  0.358800  0.440600  1
  H  H228  1  0.897100  0.858800  0.940600  1
  H  H229  1  0.602900  0.858800  0.440600  1
  H  H230  1  0.102900  0.358800  0.940600  1
  H  H231  1  0.602900  0.641200  0.559400  1
  H  H232  1  0.102900  0.141200  0.059400  1
  H  H233  1  0.397100  0.206800  0.537600  1
  H  H234  1  0.897100  0.706800  0.037600  1
  H  H235  1  0.397100  0.293200  0.462400  1
  H  H236  1  0.897100  0.793200  0.962400  1
  H  H237  1  0.602900  0.793200  0.462400  1
  H  H238  1  0.102900  0.293200  0.962400  1
  H  H239  1  0.602900  0.706800  0.537600  1
  H  H240  1  0.102900  0.206800  0.037600  1
  H  H241  1  0.249900  0.217000  0.549600  1
  H  H242  1  0.749900  0.717000  0.049600  1
  H  H243  1  0.249900  0.283000  0.450400  1
  H  H244  1  0.749900  0.783000  0.950400  1
  H  H245  1  0.750100  0.783000  0.450400  1
  H  H246  1  0.250100  0.283000  0.950400  1
  H  H247  1  0.750100  0.717000  0.549600  1
  H  H248  1  0.250100  0.217000  0.049600  1
  H  H249  1  0.288900  0.169000  0.517000  1
  H  H250  1  0.788900  0.669000  0.017000  1
  H  H251  1  0.288900  0.331000  0.483000  1
  H  H252  1  0.788900  0.831000  0.983000  1
  H  H253  1  0.711100  0.831000  0.483000  1
  H  H254  1  0.211100  0.331000  0.983000  1
  H  H255  1  0.711100  0.669000  0.517000  1
  H  H256  1  0.211100  0.169000  0.017000  1
  H  H257  1  0.110900  0.095700  0.596000  1
  H  H258  1  0.610900  0.595700  0.096000  1
  H  H259  1  0.110900  0.404300  0.404000  1
  H  H260  1  0.610900  0.904300  0.904000  1
  H  H261  1  0.889100  0.904300  0.404000  1
  H  H262  1  0.389100  0.404300  0.904000  1
  H  H263  1  0.889100  0.595700  0.596000  1
  H  H264  1  0.389100  0.095700  0.096000  1
  H  H265  1  0.245000  0.078300  0.576300  1
  H  H266  1  0.745000  0.578300  0.076300  1
  H  H267  1  0.245000  0.421700  0.423700  1
  H  H268  1  0.745000  0.921700  0.923700  1
  H  H269  1  0.755000  0.921700  0.423700  1
  H  H270  1  0.255000  0.421700  0.923700  1
  H  H271  1  0.755000  0.578300  0.576300  1
  H  H272  1  0.255000  0.078300  0.076300  1
  H  H273  1  0.316300  0.415200  0.722300  1.0
  H  H274  1  0.816300  0.915200  0.222300  1.0
  H  H275  1  0.316300  0.084800  0.277700  1.0
  H  H276  1  0.816300  0.584800  0.777700  1.0
  H  H277  1  0.683700  0.584800  0.277700  1.0
  H  H278  1  0.183700  0.084800  0.777700  1.0
  H  H279  1  0.683700  0.915200  0.722300  1.0
  H  H280  1  0.183700  0.415200  0.222300  1.0
  H  H281  1  0.107800  0.371500  0.699900  1.0
  H  H282  1  0.607800  0.871500  0.199900  1.0
  H  H283  1  0.107800  0.128500  0.300100  1.0
  H  H284  1  0.607800  0.628500  0.800100  1.0
  H  H285  1  0.892200  0.628500  0.300100  1.0
  H  H286  1  0.392200  0.128500  0.800100  1.0
  H  H287  1  0.892200  0.871500  0.699900  1.0
  H  H288  1  0.392200  0.371500  0.199900  1.0
  H  H289  1  0.046600  0.331500  0.743000  1.0
  H  H290  1  0.546600  0.831500  0.243000  1.0
  H  H291  1  0.046600  0.168500  0.257000  1.0
  H  H292  1  0.546600  0.668500  0.757000  1.0
  H  H293  1  0.953400  0.668500  0.257000  1.0
  H  H294  1  0.453400  0.168500  0.757000  1.0
  H  H295  1  0.953400  0.831500  0.743000  1.0
  H  H296  1  0.453400  0.331500  0.243000  1.0
  H  H297  1  0.215500  0.349900  0.792400  1.0
  H  H298  1  0.715500  0.849900  0.292400  1.0
  H  H299  1  0.215500  0.150100  0.207600  1.0
  H  H300  1  0.715500  0.650100  0.707600  1.0
  H  H301  1  0.784500  0.650100  0.207600  1.0
  H  H302  1  0.284500  0.150100  0.707600  1.0
  H  H303  1  0.784500  0.849900  0.792400  1.0
  H  H304  1  0.284500  0.349900  0.292400  1.0
  H  H305  1  0.225900  0.233800  0.699800  1.0
  H  H306  1  0.725900  0.733800  0.199800  1.0
  H  H307  1  0.225900  0.266200  0.300200  1.0
  H  H308  1  0.725900  0.766200  0.800200  1.0
  H  H309  1  0.774100  0.766200  0.300200  1.0
  H  H310  1  0.274100  0.266200  0.800200  1.0
  H  H311  1  0.774100  0.733800  0.699800  1.0
  H  H312  1  0.274100  0.233800  0.199800  1.0
  H  H313  1  0.412700  0.261300  0.743300  1.0
  H  H314  1  0.912700  0.761300  0.243300  1.0
  H  H315  1  0.412700  0.238700  0.256700  1.0
  H  H316  1  0.912700  0.738700  0.756700  1.0
  H  H317  1  0.587300  0.738700  0.256700  1.0
  H  H318  1  0.087300  0.238700  0.756700  1.0
  H  H319  1  0.587300  0.761300  0.743300  1.0
  H  H320  1  0.087300  0.261300  0.243300  1.0
  H  H321  1  0.551100  0.314400  0.722300  1.0
  H  H322  1  0.051100  0.814400  0.222300  1.0
  H  H323  1  0.551100  0.185600  0.277700  1.0
  H  H324  1  0.051100  0.685600  0.777700  1.0
  H  H325  1  0.448900  0.685600  0.277700  1.0
  H  H326  1  0.948900  0.185600  0.777700  1.0
  H  H327  1  0.448900  0.814400  0.722300  1.0
  H  H328  1  0.948900  0.314400  0.222300  1.0
  H  H329  1  0.450500  0.320700  0.666000  1.0
  H  H330  1  0.950500  0.820700  0.166000  1.0
  H  H331  1  0.450500  0.179300  0.334000  1.0
  H  H332  1  0.950500  0.679300  0.834000  1.0
  H  H333  1  0.549500  0.679300  0.334000  1.0
  H  H334  1  0.049500  0.179300  0.834000  1.0
  H  H335  1  0.549500  0.820700  0.666000  1.0
  H  H336  1  0.049500  0.320700  0.166000  1.0
  H  H337  1  0.926700  0.201700  0.519400  1.0
  H  H338  1  0.426700  0.701700  0.019400  1.0
  H  H339  1  0.926700  0.298300  0.480600  1.0
  H  H340  1  0.426700  0.798300  0.980600  1.0
  H  H341  1  0.073300  0.798300  0.480600  1.0
  H  H342  1  0.573300  0.298300  0.980600  1.0
  H  H343  1  0.073300  0.701700  0.519400  1.0
  H  H344  1  0.573300  0.201700  0.019400  1.0
  H  H345  1  0.768800  0.168200  0.475500  1.0
  H  H346  1  0.268800  0.668200  0.975500  1.0
  H  H347  1  0.768800  0.331800  0.524500  1.0
  H  H348  1  0.268800  0.831800  0.024500  1.0
  H  H349  1  0.231200  0.831800  0.524500  1.0
  H  H350  1  0.731200  0.331800  0.024500  1.0
  H  H351  1  0.231200  0.668200  0.475500  1.0
  H  H352  1  0.731200  0.168200  0.975500  1.0
  H  H353  1  0.630500  0.111200  0.480000  1.0
  H  H354  1  0.130500  0.611200  0.980000  1.0
  H  H355  1  0.630500  0.388800  0.520000  1.0
  H  H356  1  0.130500  0.888800  0.020000  1.0
  H  H357  1  0.369500  0.888800  0.520000  1.0
  H  H358  1  0.869500  0.388800  0.020000  1.0
  H  H359  1  0.369500  0.611200  0.480000  1.0
  H  H360  1  0.869500  0.111200  0.980000  1.0
  H  H361  1  0.566400  0.060200  0.511400  1.0
  H  H362  1  0.066400  0.560200  0.011400  1.0
  H  H363  1  0.566400  0.439800  0.488600  1.0
  H  H364  1  0.066400  0.939800  0.988600  1.0
  H  H365  1  0.433600  0.939800  0.488600  1.0
  H  H366  1  0.933600  0.439800  0.988600  1.0
  H  H367  1  0.433600  0.560200  0.511400  1.0
  H  H368  1  0.933600  0.060200  0.011400  1.0
  H  H369  1  0.487000  0.010000  0.543400  1.0
  H  H370  1  0.987000  0.510000  0.043400  1.0
  H  H371  1  0.487000  0.490000  0.456600  1.0
  H  H372  1  0.987000  0.990000  0.956600  1.0
  H  H373  1  0.513000  0.990000  0.456600  1.0
  H  H374  1  0.013000  0.490000  0.956600  1.0
  H  H375  1  0.513000  0.510000  0.543400  1.0
  H  H376  1  0.013000  0.010000  0.043400  1.0
  H  H377  1  0.515800  0.979500  0.587300  1.0
  H  H378  1  0.015800  0.479500  0.087300  1.0
  H  H379  1  0.515800  0.520500  0.412700  1.0
  H  H380  1  0.015800  0.020500  0.912700  1.0
  H  H381  1  0.484200  0.020500  0.412700  1.0
  H  H382  1  0.984200  0.520500  0.912700  1.0
  H  H383  1  0.484200  0.479500  0.587300  1.0
  H  H384  1  0.984200  0.979500  0.087300  1.0
  H  H385  1  0.693000  0.002400  0.627200  1.0
  H  H386  1  0.193000  0.502400  0.127200  1.0
  H  H387  1  0.693000  0.497600  0.372800  1.0
  H  H388  1  0.193000  0.997600  0.872800  1.0
  H  H389  1  0.307000  0.997600  0.372800  1.0
  H  H390  1  0.807000  0.497600  0.872800  1.0
  H  H391  1  0.307000  0.502400  0.627200  1.0
  H  H392  1  0.807000  0.002400  0.127200  1.0
  H  H393  1  0.904600  0.114100  0.593600  1.0
  H  H394  1  0.404600  0.614100  0.093600  1.0
  H  H395  1  0.904600  0.385900  0.406400  1.0
  H  H396  1  0.404600  0.885900  0.906400  1.0
  H  H397  1  0.095400  0.885900  0.406400  1.0
  H  H398  1  0.595400  0.385900  0.906400  1.0
  H  H399  1  0.095400  0.614100  0.593600  1.0
  H  H400  1  0.595400  0.114100  0.093600  1.0
  H  H401  1  0.804200  0.273600  0.558900  1.0
  H  H402  1  0.304200  0.773600  0.058900  1.0
  H  H403  1  0.804200  0.226400  0.441100  1.0
  H  H404  1  0.304200  0.726400  0.941100  1.0
  H  H405  1  0.195800  0.726400  0.441100  1.0
  H  H406  1  0.695800  0.226400  0.941100  1.0
  H  H407  1  0.195800  0.773600  0.558900  1.0
  H  H408  1  0.695800  0.273600  0.058900  1.0
  H  H409  1  0.805700  0.323600  0.592300  1.0
  H  H410  1  0.305700  0.823600  0.092300  1.0
  H  H411  1  0.805700  0.176400  0.407700  1.0
  H  H412  1  0.305700  0.676400  0.907700  1.0
  H  H413  1  0.194300  0.676400  0.407700  1.0
  H  H414  1  0.694300  0.176400  0.907700  1.0
  H  H415  1  0.194300  0.823600  0.592300  1.0
  H  H416  1  0.694300  0.323600  0.092300  1.0
  H  H417  1  0.978700  0.322200  0.550400  1.0
  H  H418  1  0.478700  0.822200  0.050400  1.0
  H  H419  1  0.978700  0.177800  0.449600  1.0
  H  H420  1  0.478700  0.677800  0.949600  1.0
  H  H421  1  0.021300  0.677800  0.449600  1.0
  H  H422  1  0.521300  0.177800  0.949600  1.0
  H  H423  1  0.021300  0.822200  0.550400  1.0
  H  H424  1  0.521300  0.322200  0.050400  1.0
  H  H425  1  0.038900  0.276300  0.555000  1.0
  H  H426  1  0.538900  0.776300  0.055000  1.0
  H  H427  1  0.038900  0.223700  0.445000  1.0
  H  H428  1  0.538900  0.723700  0.945000  1.0
  H  H429  1  0.961100  0.723700  0.445000  1.0
  H  H430  1  0.461100  0.223700  0.945000  1.0
  H  H431  1  0.961100  0.776300  0.555000  1.0
  H  H432  1  0.461100  0.276300  0.055000  1.0
  H  H433  1  0.040300  0.326200  0.588300  1.0
  H  H434  1  0.540300  0.826200  0.088300  1.0
  H  H435  1  0.040300  0.173800  0.411700  1.0
  H  H436  1  0.540300  0.673800  0.911700  1.0
  H  H437  1  0.959700  0.673800  0.411700  1.0
  H  H438  1  0.459700  0.173800  0.911700  1.0
  H  H439  1  0.959700  0.826200  0.588300  1.0
  H  H440  1  0.459700  0.326200  0.088300  1.0
  H  H441  1  0.960800  0.295400  0.670500  1.0
  H  H442  1  0.460800  0.795400  0.170500  1.0
  H  H443  1  0.960800  0.204600  0.329500  1.0
  H  H444  1  0.460800  0.704600  0.829500  1.0
  H  H445  1  0.039200  0.704600  0.329500  1.0
  H  H446  1  0.539200  0.204600  0.829500  1.0
  H  H447  1  0.039200  0.795400  0.670500  1.0
  H  H448  1  0.539200  0.295400  0.170500  1.0
  H  H449  1  0.001700  0.327600  0.648400  1.0
  H  H450  1  0.501700  0.827600  0.148400  1.0
  H  H451  1  0.001700  0.172400  0.351600  1.0
  H  H452  1  0.501700  0.672400  0.851600  1.0
  H  H453  1  0.998300  0.672400  0.351600  1.0
  H  H454  1  0.498300  0.172400  0.851600  1.0
  H  H455  1  0.998300  0.827600  0.648400  1.0
  H  H456  1  0.498300  0.327600  0.148400  1.0
  H  H457  1  0.861200  0.370900  0.696400  1.0
  H  H458  1  0.361200  0.870900  0.196400  1.0
  H  H459  1  0.861200  0.129100  0.303600  1.0
  H  H460  1  0.361200  0.629100  0.803600  1.0
  H  H461  1  0.138800  0.629100  0.303600  1.0
  H  H462  1  0.638800  0.129100  0.803600  1.0
  H  H463  1  0.138800  0.870900  0.696400  1.0
  H  H464  1  0.638800  0.370900  0.196400  1.0
  H  H465  1  0.752500  0.331300  0.680700  1.0
  H  H466  1  0.252500  0.831300  0.180700  1.0
  H  H467  1  0.752500  0.168700  0.319300  1.0
  H  H468  1  0.252500  0.668700  0.819300  1.0
  H  H469  1  0.247500  0.668700  0.319300  1.0
  H  H470  1  0.747500  0.168700  0.819300  1.0
  H  H471  1  0.247500  0.831300  0.680700  1.0
  H  H472  1  0.747500  0.331300  0.180700  1.0
  H  H473  1  0.793300  0.363400  0.658500  1.0
  H  H474  1  0.293300  0.863400  0.158500  1.0
  H  H475  1  0.793300  0.136600  0.341500  1.0
  H  H476  1  0.293300  0.636600  0.841500  1.0
  H  H477  1  0.206700  0.636600  0.341500  1.0
  H  H478  1  0.706700  0.136600  0.841500  1.0
  H  H479  1  0.206700  0.863400  0.658500  1.0
  H  H480  1  0.706700  0.363400  0.158500  1.0
  H  H481  1  0.704200  0.240500  0.642800  1.0
  H  H482  1  0.204200  0.740500  0.142800  1.0
  H  H483  1  0.704200  0.259500  0.357200  1.0
  H  H484  1  0.204200  0.759500  0.857200  1.0
  H  H485  1  0.295800  0.759500  0.357200  1.0
  H  H486  1  0.795800  0.259500  0.857200  1.0
  H  H487  1  0.295800  0.740500  0.642800  1.0
  H  H488  1  0.795800  0.240500  0.142800  1.0
  H  H489  1  0.659400  0.285800  0.634800  1.0
  H  H490  1  0.159400  0.785800  0.134800  1.0
  H  H491  1  0.659400  0.214200  0.365200  1.0
  H  H492  1  0.159400  0.714200  0.865200  1.0
  H  H493  1  0.340600  0.714200  0.365200  1.0
  H  H494  1  0.840600  0.214200  0.865200  1.0
  H  H495  1  0.340600  0.785800  0.634800  1.0
  H  H496  1  0.840600  0.285800  0.134800  1.0
  H  H497  1  0.535700  0.222400  0.604200  1.0
  H  H498  1  0.035700  0.722400  0.104200  1.0
  H  H499  1  0.535700  0.277600  0.395800  1.0
  H  H500  1  0.035700  0.777600  0.895800  1.0
  H  H501  1  0.464300  0.777600  0.395800  1.0
  H  H502  1  0.964300  0.277600  0.895800  1.0
  H  H503  1  0.464300  0.722400  0.604200  1.0
  H  H504  1  0.964300  0.222400  0.104200  1.0
  H  H505  1  0.659700  0.193100  0.584100  1.0
  H  H506  1  0.159700  0.693100  0.084100  1.0
  H  H507  1  0.659700  0.306900  0.415900  1.0
  H  H508  1  0.159700  0.806900  0.915900  1.0
  H  H509  1  0.340300  0.806900  0.415900  1.0
  H  H510  1  0.840300  0.306900  0.915900  1.0
  H  H511  1  0.340300  0.693100  0.584100  1.0
  H  H512  1  0.840300  0.193100  0.084100  1.0
  H  H513  1  0.614500  0.238700  0.576200  1.0
  H  H514  1  0.114500  0.738700  0.076200  1.0
  H  H515  1  0.614500  0.261300  0.423800  1.0
  H  H516  1  0.114500  0.761300  0.923800  1.0
  H  H517  1  0.385500  0.761300  0.423800  1.0
  H  H518  1  0.885500  0.261300  0.923800  1.0
  H  H519  1  0.385500  0.738700  0.576200  1.0
  H  H520  1  0.885500  0.238700  0.076200  1.0
  H  H521  1  0.073100  0.079500  0.532000  1.0
  H  H522  1  0.573100  0.579500  0.032000  1.0
  H  H523  1  0.073100  0.420500  0.468000  1.0
  H  H524  1  0.573100  0.920500  0.968000  1.0
  H  H525  1  0.926900  0.920500  0.468000  1.0
  H  H526  1  0.426900  0.420500  0.968000  1.0
  H  H527  1  0.926900  0.579500  0.532000  1.0
  H  H528  1  0.426900  0.079500  0.032000  1.0
  H  H529  1  0.103600  0.110500  0.508300  1.0
  H  H530  1  0.603600  0.610500  0.008300  1.0
  H  H531  1  0.103600  0.389500  0.491700  1.0
  H  H532  1  0.603600  0.889500  0.991700  1.0
  H  H533  1  0.896400  0.889500  0.491700  1.0
  H  H534  1  0.396400  0.389500  0.991700  1.0
  H  H535  1  0.896400  0.610500  0.508300  1.0
  H  H536  1  0.396400  0.110500  0.008300  1.0
  H  H537  1  0.218500  0.039100  0.485700  1.0
  H  H538  1  0.718500  0.539100  0.985700  1.0
  H  H539  1  0.218500  0.460900  0.514300  1.0
  H  H540  1  0.718500  0.960900  0.014300  1.0
  H  H541  1  0.781500  0.960900  0.514300  1.0
  H  H542  1  0.281500  0.460900  0.014300  1.0
  H  H543  1  0.781500  0.539100  0.485700  1.0
  H  H544  1  0.281500  0.039100  0.985700  1.0
  H  H545  1  0.287400  0.051000  0.524100  1.0
  H  H546  1  0.787400  0.551000  0.024100  1.0
  H  H547  1  0.287400  0.449000  0.475900  1.0
  H  H548  1  0.787400  0.949000  0.975900  1.0
  H  H549  1  0.712600  0.949000  0.475900  1.0
  H  H550  1  0.212600  0.449000  0.975900  1.0
  H  H551  1  0.712600  0.551000  0.524100  1.0
  H  H552  1  0.212600  0.051000  0.024100  1.0
  H  H553  1  0.318100  0.082200  0.500300  1.0
  H  H554  1  0.818100  0.582200  0.000300  1.0
  H  H555  1  0.318100  0.417800  0.499700  1.0
  H  H556  1  0.818100  0.917800  0.999700  1.0
  H  H557  1  0.681900  0.917800  0.499700  1.0
  H  H558  1  0.181900  0.417800  0.999700  1.0
  H  H559  1  0.681900  0.582200  0.500300  1.0
  H  H560  1  0.181900  0.082200  0.000300  1.0
  H  H561  1  0.306900  0.210200  0.562400  1.0
  H  H562  1  0.806900  0.710200  0.062400  1.0
  H  H563  1  0.306900  0.289800  0.437600  1.0
  H  H564  1  0.806900  0.789800  0.937600  1.0
  H  H565  1  0.693100  0.789800  0.437600  1.0
  H  H566  1  0.193100  0.289800  0.937600  1.0
  H  H567  1  0.693100  0.710200  0.562400  1.0
  H  H568  1  0.193100  0.210200  0.062400  1.0
  H  H569  1  0.349700  0.161700  0.532000  1.0
  H  H570  1  0.849700  0.661700  0.032000  1.0
  H  H571  1  0.349700  0.338300  0.468000  1.0
  H  H572  1  0.849700  0.838300  0.968000  1.0
  H  H573  1  0.650300  0.838300  0.468000  1.0
  H  H574  1  0.150300  0.338300  0.968000  1.0
  H  H575  1  0.650300  0.661700  0.532000  1.0
  H  H576  1  0.150300  0.161700  0.032000  1.0
  H  H577  1  0.289400  0.213800  0.504400  1.0
  H  H578  1  0.789400  0.713800  0.004400  1.0
  H  H579  1  0.289400  0.286200  0.495600  1.0
  H  H580  1  0.789400  0.786200  0.995600  1.0
  H  H581  1  0.710600  0.786200  0.495600  1.0
  H  H582  1  0.210600  0.286200  0.995600  1.0
  H  H583  1  0.710600  0.713800  0.504400  1.0
  H  H584  1  0.210600  0.213800  0.004400  1.0
  H  H585  1  0.150800  0.221400  0.523100  1.0
  H  H586  1  0.650800  0.721400  0.023100  1.0
  H  H587  1  0.150800  0.278600  0.476900  1.0
  H  H588  1  0.650800  0.778600  0.976900  1.0
  H  H589  1  0.849200  0.778600  0.476900  1.0
  H  H590  1  0.349200  0.278600  0.976900  1.0
  H  H591  1  0.849200  0.721400  0.523100  1.0
  H  H592  1  0.349200  0.221400  0.023100  1.0
  H  H593  1  0.187500  0.171300  0.492500  1.0
  H  H594  1  0.687500  0.671300  0.992500  1.0
  H  H595  1  0.187500  0.328700  0.507500  1.0
  H  H596  1  0.687500  0.828700  0.007500  1.0
  H  H597  1  0.812500  0.828700  0.507500  1.0
  H  H598  1  0.312500  0.328700  0.007500  1.0
  H  H599  1  0.812500  0.671300  0.492500  1.0
  H  H600  1  0.312500  0.171300  0.992500  1.0
  H  H601  1  0.354000  0.115500  0.577600  1.0
  H  H602  1  0.854000  0.615500  0.077600  1.0
  H  H603  1  0.354000  0.384500  0.422400  1.0
  H  H604  1  0.854000  0.884500  0.922400  1.0
  H  H605  1  0.646000  0.884500  0.422400  1.0
  H  H606  1  0.146000  0.384500  0.922400  1.0
  H  H607  1  0.646000  0.615500  0.577600  1.0
  H  H608  1  0.146000  0.115500  0.077600  1.0
  H  H609  1  0.340800  0.169400  0.604100  1.0
  H  H610  1  0.840800  0.669400  0.104100  1.0
  H  H611  1  0.340800  0.330600  0.395900  1.0
  H  H612  1  0.840800  0.830600  0.895900  1.0
  H  H613  1  0.659200  0.830600  0.395900  1.0
  H  H614  1  0.159200  0.330600  0.895900  1.0
  H  H615  1  0.659200  0.669400  0.604100  1.0
  H  H616  1  0.159200  0.169400  0.104100  1.0
  H  H617  1  0.223000  0.091000  0.616000  1.0
  H  H618  1  0.723000  0.591000  0.116000  1.0
  H  H619  1  0.223000  0.409000  0.384000  1.0
  H  H620  1  0.723000  0.909000  0.884000  1.0
  H  H621  1  0.777000  0.909000  0.384000  1.0
  H  H622  1  0.277000  0.409000  0.884000  1.0
  H  H623  1  0.777000  0.591000  0.616000  1.0
  H  H624  1  0.277000  0.091000  0.116000  1.0
  H  H625  1  0.195700  0.144800  0.641600  1.0
  H  H626  1  0.695700  0.644800  0.141600  1.0
  H  H627  1  0.195700  0.355200  0.358400  1.0
  H  H628  1  0.695700  0.855200  0.858400  1.0
  H  H629  1  0.804300  0.855200  0.358400  1.0
  H  H630  1  0.304300  0.355200  0.858400  1.0
  H  H631  1  0.804300  0.644800  0.641600  1.0
  H  H632  1  0.304300  0.144800  0.141600  1.0
  H  H633  1  0.336900  0.123200  0.639600  1.0
  H  H634  1  0.836900  0.623200  0.139600  1.0
  H  H635  1  0.336900  0.376800  0.360400  1.0
  H  H636  1  0.836900  0.876800  0.860400  1.0
  H  H637  1  0.663100  0.876800  0.360400  1.0
  H  H638  1  0.163100  0.376800  0.860400  1.0
  H  H639  1  0.663100  0.623200  0.639600  1.0
  H  H640  1  0.163100  0.123200  0.139600  1.0
  H  H641  1  0.497200  0.318900  0.802900  1.0
  H  H642  1  0.997200  0.818900  0.302900  1.0
  H  H643  1  0.497200  0.181100  0.197100  1.0
  H  H644  1  0.997200  0.681100  0.697100  1.0
  H  H645  1  0.502800  0.681100  0.197100  1.0
  H  H646  1  0.002800  0.181100  0.697100  1.0
  H  H647  1  0.502800  0.818900  0.802900  1.0
  H  H648  1  0.002800  0.318900  0.302900  1.0
  H  H649  1  0.556300  0.306700  0.835500  1.0
  H  H650  1  0.056300  0.806700  0.335500  1.0
  H  H651  1  0.556300  0.193300  0.164500  1.0
  H  H652  1  0.056300  0.693300  0.664500  1.0
  H  H653  1  0.443700  0.693300  0.164500  1.0
  H  H654  1  0.943700  0.193300  0.664500  1.0
  H  H655  1  0.443700  0.806700  0.835500  1.0
  H  H656  1  0.943700  0.306700  0.335500  1.0
  H  H657  1  0.561300  0.239600  0.782100  1.0
  H  H658  1  0.061300  0.739600  0.282100  1.0
  H  H659  1  0.561300  0.260400  0.217900  1.0
  H  H660  1  0.061300  0.760400  0.717900  1.0
  H  H661  1  0.438700  0.760400  0.217900  1.0
  H  H662  1  0.938700  0.260400  0.717900  1.0
  H  H663  1  0.438700  0.739600  0.782100  1.0
  H  H664  1  0.938700  0.239600  0.282100  1.0
  H  H665  1  0.645000  0.267400  0.762600  1.0
  H  H666  1  0.145000  0.767400  0.262600  1.0
  H  H667  1  0.645000  0.232600  0.237400  1.0
  H  H668  1  0.145000  0.732600  0.737400  1.0
  H  H669  1  0.355000  0.732600  0.237400  1.0
  H  H670  1  0.855000  0.232600  0.737400  1.0
  H  H671  1  0.355000  0.767400  0.762600  1.0
  H  H672  1  0.855000  0.267400  0.262600  1.0
  H  H673  1  0.705400  0.255300  0.795200  1.0
  H  H674  1  0.205400  0.755300  0.295200  1.0
  H  H675  1  0.705400  0.244700  0.204800  1.0
  H  H676  1  0.205400  0.744700  0.704800  1.0
  H  H677  1  0.294600  0.744700  0.204800  1.0
  H  H678  1  0.794600  0.244700  0.704800  1.0
  H  H679  1  0.294600  0.755300  0.795200  1.0
  H  H680  1  0.794600  0.255300  0.295200  1.0
  H  H681  1  0.677000  0.364200  0.765900  1.0
  H  H682  1  0.177000  0.864200  0.265900  1.0
  H  H683  1  0.677000  0.135800  0.234100  1.0
  H  H684  1  0.177000  0.635800  0.734100  1.0
  H  H685  1  0.323000  0.635800  0.234100  1.0
  H  H686  1  0.823000  0.135800  0.734100  1.0
  H  H687  1  0.323000  0.864200  0.765900  1.0
  H  H688  1  0.823000  0.364200  0.265900  1.0
  H  H689  1  0.804200  0.336400  0.769200  1.0
  H  H690  1  0.304200  0.836400  0.269200  1.0
  H  H691  1  0.804200  0.163600  0.230800  1.0
  H  H692  1  0.304200  0.663600  0.730800  1.0
  H  H693  1  0.195800  0.663600  0.230800  1.0
  H  H694  1  0.695800  0.163600  0.730800  1.0
  H  H695  1  0.195800  0.836400  0.769200  1.0
  H  H696  1  0.695800  0.336400  0.269200  1.0
  H  H697  1  0.859700  0.407000  0.763500  1.0
  H  H698  1  0.359700  0.907000  0.263500  1.0
  H  H699  1  0.859700  0.093000  0.236500  1.0
  H  H700  1  0.359700  0.593000  0.736500  1.0
  H  H701  1  0.140300  0.593000  0.236500  1.0
  H  H702  1  0.640300  0.093000  0.736500  1.0
  H  H703  1  0.140300  0.907000  0.763500  1.0
  H  H704  1  0.640300  0.407000  0.263500  1.0
  H  H705  1  0.776000  0.436100  0.798600  1.0
  H  H706  1  0.276000  0.936100  0.298600  1.0
  H  H707  1  0.776000  0.063900  0.201400  1.0
  H  H708  1  0.276000  0.563900  0.701400  1.0
  H  H709  1  0.224000  0.563900  0.201400  1.0
  H  H710  1  0.724000  0.063900  0.701400  1.0
  H  H711  1  0.224000  0.936100  0.798600  1.0
  H  H712  1  0.724000  0.436100  0.298600  1.0
  H  H713  1  0.902600  0.408700  0.802700  1.0
  H  H714  1  0.402600  0.908700  0.302700  1.0
  H  H715  1  0.902600  0.091300  0.197300  1.0
  H  H716  1  0.402600  0.591300  0.697300  1.0
  H  H717  1  0.097400  0.591300  0.197300  1.0
  H  H718  1  0.597400  0.091300  0.697300  1.0
  H  H719  1  0.097400  0.908700  0.802700  1.0
  H  H720  1  0.597400  0.408700  0.302700  1.0
  H  H721  1  0.800000  0.327500  0.857400  1.0
  H  H722  1  0.300000  0.827500  0.357400  1.0
  H  H723  1  0.800000  0.172500  0.142600  1.0
  H  H724  1  0.300000  0.672500  0.642600  1.0
  H  H725  1  0.200000  0.672500  0.142600  1.0
  H  H726  1  0.700000  0.172500  0.642600  1.0
  H  H727  1  0.200000  0.827500  0.857400  1.0
  H  H728  1  0.700000  0.327500  0.357400  1.0
  H  H729  1  0.865700  0.376900  0.863500  1.0
  H  H730  1  0.365700  0.876900  0.363500  1.0
  H  H731  1  0.865700  0.123100  0.136500  1.0
  H  H732  1  0.365700  0.623100  0.636500  1.0
  H  H733  1  0.134300  0.623100  0.136500  1.0
  H  H734  1  0.634300  0.123100  0.636500  1.0
  H  H735  1  0.134300  0.876900  0.863500  1.0
  H  H736  1  0.634300  0.376900  0.363500  1.0
  H  H737  1  0.998900  0.320400  0.843100  1.0
  H  H738  1  0.498900  0.820400  0.343100  1.0
  H  H739  1  0.998900  0.179600  0.156900  1.0
  H  H740  1  0.498900  0.679600  0.656900  1.0
  H  H741  1  0.001100  0.679600  0.156900  1.0
  H  H742  1  0.501100  0.179600  0.656900  1.0
  H  H743  1  0.001100  0.820400  0.843100  1.0
  H  H744  1  0.501100  0.320400  0.343100  1.0
  H  H745  1  0.910700  0.294100  0.808500  1.0
  H  H746  1  0.410700  0.794100  0.308500  1.0
  H  H747  1  0.910700  0.205900  0.191500  1.0
  H  H748  1  0.410700  0.705900  0.691500  1.0
  H  H749  1  0.089300  0.705900  0.191500  1.0
  H  H750  1  0.589300  0.205900  0.691500  1.0
  H  H751  1  0.089300  0.794100  0.808500  1.0
  H  H752  1  0.589300  0.294100  0.308500  1.0
  H  H753  1  0.975400  0.343900  0.813700  1.0
  H  H754  1  0.475400  0.843900  0.313700  1.0
  H  H755  1  0.975400  0.156100  0.186300  1.0
  H  H756  1  0.475400  0.656100  0.686300  1.0
  H  H757  1  0.024600  0.656100  0.186300  1.0
  H  H758  1  0.524600  0.156100  0.686300  1.0
  H  H759  1  0.024600  0.843900  0.813700  1.0
  H  H760  1  0.524600  0.343900  0.313700  1.0
  H  H761  1  0.453500  0.567000  0.937900  1.0
  H  H762  1  0.953500  0.067000  0.437900  1.0
  H  H763  1  0.453500  0.933000  0.062100  1.0
  H  H764  1  0.953500  0.433000  0.562100  1.0
  H  H765  1  0.546500  0.433000  0.062100  1.0
  H  H766  1  0.046500  0.933000  0.562100  1.0
  H  H767  1  0.546500  0.067000  0.937900  1.0
  H  H768  1  0.046500  0.567000  0.437900  1.0
  H  H769  1  0.585900  0.540900  0.938800  1.0
  H  H770  1  0.085900  0.040900  0.438800  1.0
  H  H771  1  0.585900  0.959100  0.061200  1.0
  H  H772  1  0.085900  0.459100  0.561200  1.0
  H  H773  1  0.414100  0.459100  0.061200  1.0
  H  H774  1  0.914100  0.959100  0.561200  1.0
  H  H775  1  0.414100  0.040900  0.938800  1.0
  H  H776  1  0.914100  0.540900  0.438800  1.0
  H  H777  1  0.438200  0.528100  0.977900  1.0
  H  H778  1  0.938200  0.028100  0.477900  1.0
  H  H779  1  0.438200  0.971900  0.022100  1.0
  H  H780  1  0.938200  0.471900  0.522100  1.0
  H  H781  1  0.561800  0.471900  0.022100  1.0
  H  H782  1  0.061800  0.971900  0.522100  1.0
  H  H783  1  0.561800  0.028100  0.977900  1.0
  H  H784  1  0.061800  0.528100  0.477900  1.0
  H  H785  1  0.340700  0.504500  0.945000  1.0
  H  H786  1  0.840700  0.004500  0.445000  1.0
  H  H787  1  0.340700  0.995500  0.055000  1.0
  H  H788  1  0.840700  0.495500  0.555000  1.0
  H  H789  1  0.659300  0.495500  0.055000  1.0
  H  H790  1  0.159300  0.995500  0.555000  1.0
  H  H791  1  0.659300  0.004500  0.945000  1.0
  H  H792  1  0.159300  0.504500  0.445000  1.0
  H  H793  1  0.473700  0.478900  0.946300  1.0
  H  H794  1  0.973700  0.978900  0.446300  1.0
  H  H795  1  0.473700  0.021100  0.053700  1.0
  H  H796  1  0.973700  0.521100  0.553700  1.0
  H  H797  1  0.526300  0.521100  0.053700  1.0
  H  H798  1  0.026300  0.021100  0.553700  1.0
  H  H799  1  0.526300  0.978900  0.946300  1.0
  H  H800  1  0.026300  0.478900  0.446300  1.0
  H  H801  1  0.653400  0.555300  0.878100  1.0
  H  H802  1  0.153400  0.055300  0.378100  1.0
  H  H803  1  0.653400  0.944700  0.121900  1.0
  H  H804  1  0.153400  0.444700  0.621900  1.0
  H  H805  1  0.346600  0.444700  0.121900  1.0
  H  H806  1  0.846600  0.944700  0.621900  1.0
  H  H807  1  0.346600  0.055300  0.878100  1.0
  H  H808  1  0.846600  0.555300  0.378100  1.0
  H  H809  1  0.517400  0.579800  0.878600  1.0
  H  H810  1  0.017400  0.079800  0.378600  1.0
  H  H811  1  0.517400  0.920200  0.121400  1.0
  H  H812  1  0.017400  0.420200  0.621400  1.0
  H  H813  1  0.482600  0.420200  0.121400  1.0
  H  H814  1  0.982600  0.920200  0.621400  1.0
  H  H815  1  0.482600  0.079800  0.878600  1.0
  H  H816  1  0.982600  0.579800  0.378600  1.0
  H  H817  1  0.616200  0.563600  0.823600  1.0
  H  H818  1  0.116200  0.063600  0.323600  1.0
  H  H819  1  0.616200  0.936400  0.176400  1.0
  H  H820  1  0.116200  0.436400  0.676400  1.0
  H  H821  1  0.383800  0.436400  0.176400  1.0
  H  H822  1  0.883800  0.936400  0.676400  1.0
  H  H823  1  0.383800  0.063600  0.823600  1.0
  H  H824  1  0.883800  0.563600  0.323600  1.0
  H  H825  1  0.625400  0.508700  0.817400  1.0
  H  H826  1  0.125400  0.008700  0.317400  1.0
  H  H827  1  0.625400  0.991300  0.182600  1.0
  H  H828  1  0.125400  0.491300  0.682600  1.0
  H  H829  1  0.374600  0.491300  0.182600  1.0
  H  H830  1  0.874600  0.991300  0.682600  1.0
  H  H831  1  0.374600  0.008700  0.817400  1.0
  H  H832  1  0.874600  0.508700  0.317400  1.0
  H  H833  1  0.488200  0.532600  0.817800  1.0
  H  H834  1  0.988200  0.032600  0.317800  1.0
  H  H835  1  0.488200  0.967400  0.182200  1.0
  H  H836  1  0.988200  0.467400  0.682200  1.0
  H  H837  1  0.511800  0.467400  0.182200  1.0
  H  H838  1  0.011800  0.967400  0.682200  1.0
  H  H839  1  0.511800  0.032600  0.817800  1.0
  H  H840  1  0.011800  0.532600  0.317800  1.0
  H  H841  1  0.272600  0.482800  0.878400  1.0
  H  H842  1  0.772600  0.982800  0.378400  1.0
  H  H843  1  0.272600  0.017200  0.121600  1.0
  H  H844  1  0.772600  0.517200  0.621600  1.0
  H  H845  1  0.727400  0.517200  0.121600  1.0
  H  H846  1  0.227400  0.017200  0.621600  1.0
  H  H847  1  0.727400  0.982800  0.878400  1.0
  H  H848  1  0.227400  0.482800  0.378400  1.0
  H  H849  1  0.311000  0.494600  0.843800  1.0
  H  H850  1  0.811000  0.994600  0.343800  1.0
  H  H851  1  0.311000  0.005400  0.156200  1.0
  H  H852  1  0.811000  0.505400  0.656200  1.0
  H  H853  1  0.689000  0.505400  0.156200  1.0
  H  H854  1  0.189000  0.005400  0.656200  1.0
  H  H855  1  0.689000  0.994600  0.843800  1.0
  H  H856  1  0.189000  0.494600  0.343800  1.0
  H  H857  1  0.159100  0.549200  0.878400  1.0
  H  H858  1  0.659100  0.049200  0.378400  1.0
  H  H859  1  0.159100  0.950800  0.121600  1.0
  H  H860  1  0.659100  0.450800  0.621600  1.0
  H  H861  1  0.840900  0.450800  0.121600  1.0
  H  H862  1  0.340900  0.950800  0.621600  1.0
  H  H863  1  0.840900  0.049200  0.878400  1.0
  H  H864  1  0.340900  0.549200  0.378400  1.0
  H  H865  1  0.251200  0.564400  0.913200  1.0
  H  H866  1  0.751200  0.064400  0.413200  1.0
  H  H867  1  0.251200  0.935600  0.086800  1.0
  H  H868  1  0.751200  0.435600  0.586800  1.0
  H  H869  1  0.748800  0.435600  0.086800  1.0
  H  H870  1  0.248800  0.935600  0.586800  1.0
  H  H871  1  0.748800  0.064400  0.913200  1.0
  H  H872  1  0.248800  0.564400  0.413200  1.0
  H  H873  1  0.290800  0.576400  0.878600  1.0
  H  H874  1  0.790800  0.076400  0.378600  1.0
  H  H875  1  0.290800  0.923600  0.121400  1.0
  H  H876  1  0.790800  0.423600  0.621400  1.0
  H  H877  1  0.709200  0.423600  0.121400  1.0
  H  H878  1  0.209200  0.923600  0.621400  1.0
  H  H879  1  0.709200  0.076400  0.878600  1.0
  H  H880  1  0.209200  0.576400  0.378600  1.0
  Pt  Pt881  1  0.013480  0.200483  0.590745  1.0
  Pt  Pt882  1  0.513480  0.700483  0.090745  1.0
  Pt  Pt883  1  0.013480  0.299517  0.409255  1.0
  Pt  Pt884  1  0.513480  0.799517  0.909255  1.0
  Pt  Pt885  1  0.986520  0.799517  0.409255  1.0
  Pt  Pt886  1  0.486520  0.299517  0.909255  1.0
  Pt  Pt887  1  0.986520  0.700483  0.590745  1.0
  Pt  Pt888  1  0.486520  0.200483  0.090745  1.0
  Pt  Pt889  1  0.584780  0.432110  0.855650  1.0
  Pt  Pt890  1  0.084780  0.932110  0.355650  1.0
  Pt  Pt891  1  0.584780  0.067890  0.144350  1.0
  Pt  Pt892  1  0.084780  0.567890  0.644350  1.0
  Pt  Pt893  1  0.415220  0.567890  0.144350  1.0
  Pt  Pt894  1  0.915220  0.067890  0.644350  1.0
  Pt  Pt895  1  0.415220  0.932110  0.855650  1.0
  Pt  Pt896  1  0.915220  0.432110  0.355650  1.0
  C  C897  1  0.579000  0.489400  0.726200  1
  C  C898  1  0.079000  0.989400  0.226200  1
  C  C899  1  0.579000  0.010600  0.273800  1
  C  C900  1  0.079000  0.510600  0.773800  1
  C  C901  1  0.421000  0.510600  0.273800  1
  C  C902  1  0.921000  0.010600  0.773800  1
  C  C903  1  0.421000  0.989400  0.726200  1
  C  C904  1  0.921000  0.489400  0.226200  1
  C  C905  1  0.388000  0.336600  0.578800  1
  C  C906  1  0.888000  0.836600  0.078800  1
  C  C907  1  0.388000  0.163400  0.421200  1
  C  C908  1  0.888000  0.663400  0.921200  1
  C  C909  1  0.612000  0.663400  0.421200  1
  C  C910  1  0.112000  0.163400  0.921200  1
  C  C911  1  0.612000  0.836600  0.578800  1
  C  C912  1  0.112000  0.336600  0.078800  1
  C  C913  1  0.953000  0.315300  0.602200  1
  C  C914  1  0.453000  0.815300  0.102200  1
  C  C915  1  0.953000  0.184700  0.397800  1
  C  C916  1  0.453000  0.684700  0.897800  1
  C  C917  1  0.047000  0.684700  0.397800  1
  C  C918  1  0.547000  0.184700  0.897800  1
  C  C919  1  0.047000  0.815300  0.602200  1
  C  C920  1  0.547000  0.315300  0.102200  1
  C  C921  1  0.864000  0.292800  0.659500  1
  C  C922  1  0.364000  0.792800  0.159500  1
  C  C923  1  0.864000  0.207200  0.340500  1
  C  C924  1  0.364000  0.707200  0.840500  1
  C  C925  1  0.136000  0.707200  0.340500  1
  C  C926  1  0.636000  0.207200  0.840500  1
  C  C927  1  0.136000  0.792800  0.659500  1
  C  C928  1  0.636000  0.292800  0.159500  1
  C  C929  1  0.726000  0.264200  0.589700  1
  C  C930  1  0.226000  0.764200  0.089700  1
  C  C931  1  0.726000  0.235800  0.410300  1
  C  C932  1  0.226000  0.735800  0.910300  1
  C  C933  1  0.274000  0.735800  0.410300  1
  C  C934  1  0.774000  0.235800  0.910300  1
  C  C935  1  0.274000  0.764200  0.589700  1
  C  C936  1  0.774000  0.264200  0.089700  1
  C  C937  1  0.334400  0.167500  0.568000  1
  C  C938  1  0.834400  0.667500  0.068000  1
  C  C939  1  0.334400  0.332500  0.432000  1
  C  C940  1  0.834400  0.832500  0.932000  1
  C  C941  1  0.665600  0.832500  0.432000  1
  C  C942  1  0.165600  0.332500  0.932000  1
  C  C943  1  0.665600  0.667500  0.568000  1
  C  C944  1  0.165600  0.167500  0.068000  1
  C  C945  1  0.315900  0.192400  0.540500  1
  C  C946  1  0.815900  0.692400  0.040500  1
  C  C947  1  0.315900  0.307600  0.459500  1
  C  C948  1  0.815900  0.807600  0.959500  1
  C  C949  1  0.684100  0.807600  0.459500  1
  C  C950  1  0.184100  0.307600  0.959500  1
  C  C951  1  0.684100  0.692400  0.540500  1
  C  C952  1  0.184100  0.192400  0.040500  1
  C  C953  1  0.197000  0.106600  0.592300  1
  C  C954  1  0.697000  0.606600  0.092300  1
  C  C955  1  0.197000  0.393400  0.407700  1
  C  C956  1  0.697000  0.893400  0.907700  1
  C  C957  1  0.803000  0.893400  0.407700  1
  C  C958  1  0.303000  0.393400  0.907700  1
  C  C959  1  0.803000  0.606600  0.592300  1
  C  C960  1  0.303000  0.106600  0.092300  1
  C  C961  1  0.426300  0.410400  0.787300  1.0
  C  C962  1  0.926300  0.910400  0.287300  1.0
  C  C963  1  0.426300  0.089600  0.212700  1.0
  C  C964  1  0.926300  0.589600  0.712700  1.0
  C  C965  1  0.573700  0.589600  0.212700  1.0
  C  C966  1  0.073700  0.089600  0.712700  1.0
  C  C967  1  0.573700  0.910400  0.787300  1.0
  C  C968  1  0.073700  0.410400  0.287300  1.0
  C  C969  1  0.308900  0.390100  0.765200  1.0
  C  C970  1  0.808900  0.890100  0.265200  1.0
  C  C971  1  0.308900  0.109900  0.234800  1.0
  C  C972  1  0.808900  0.609900  0.734800  1.0
  C  C973  1  0.691100  0.609900  0.234800  1.0
  C  C974  1  0.191100  0.109900  0.734800  1.0
  C  C975  1  0.691100  0.890100  0.765200  1.0
  C  C976  1  0.191100  0.390100  0.265200  1.0
  C  C977  1  0.270900  0.397100  0.733400  1.0
  C  C978  1  0.770900  0.897100  0.233400  1.0
  C  C979  1  0.270900  0.102900  0.266600  1.0
  C  C980  1  0.770900  0.602900  0.766600  1.0
  C  C981  1  0.729100  0.602900  0.266600  1.0
  C  C982  1  0.229100  0.102900  0.766600  1.0
  C  C983  1  0.729100  0.897100  0.733400  1.0
  C  C984  1  0.229100  0.397100  0.233400  1.0
  C  C985  1  0.154600  0.372600  0.720700  1.0
  C  C986  1  0.654600  0.872600  0.220700  1.0
  C  C987  1  0.154600  0.127400  0.279300  1.0
  C  C988  1  0.654600  0.627400  0.779300  1.0
  C  C989  1  0.845400  0.627400  0.279300  1.0
  C  C990  1  0.345400  0.127400  0.779300  1.0
  C  C991  1  0.845400  0.872600  0.720700  1.0
  C  C992  1  0.345400  0.372600  0.220700  1.0
  C  C993  1  0.121000  0.350500  0.745000  1.0
  C  C994  1  0.621000  0.850500  0.245000  1.0
  C  C995  1  0.121000  0.149500  0.255000  1.0
  C  C996  1  0.621000  0.649500  0.755000  1.0
  C  C997  1  0.879000  0.649500  0.255000  1.0
  C  C998  1  0.379000  0.149500  0.755000  1.0
  C  C999  1  0.879000  0.850500  0.745000  1.0
  C  C1000  1  0.379000  0.350500  0.245000  1.0
  C  C1001  1  0.214900  0.360500  0.772700  1.0
  C  C1002  1  0.714900  0.860500  0.272700  1.0
  C  C1003  1  0.214900  0.139500  0.227300  1.0
  C  C1004  1  0.714900  0.639500  0.727300  1.0
  C  C1005  1  0.785100  0.639500  0.227300  1.0
  C  C1006  1  0.285100  0.139500  0.727300  1.0
  C  C1007  1  0.785100  0.860500  0.772700  1.0
  C  C1008  1  0.285100  0.360500  0.272700  1.0
  C  C1009  1  0.293400  0.254000  0.698300  1.0
  C  C1010  1  0.793400  0.754000  0.198300  1.0
  C  C1011  1  0.293400  0.246000  0.301700  1.0
  C  C1012  1  0.793400  0.746000  0.801700  1.0
  C  C1013  1  0.706600  0.746000  0.301700  1.0
  C  C1014  1  0.206600  0.246000  0.801700  1.0
  C  C1015  1  0.706600  0.754000  0.698300  1.0
  C  C1016  1  0.206600  0.254000  0.198300  1.0
  C  C1017  1  0.397400  0.269500  0.722800  1.0
  C  C1018  1  0.897400  0.769500  0.222800  1.0
  C  C1019  1  0.397400  0.230500  0.277200  1.0
  C  C1020  1  0.897400  0.730500  0.777200  1.0
  C  C1021  1  0.602600  0.730500  0.277200  1.0
  C  C1022  1  0.102600  0.230500  0.777200  1.0
  C  C1023  1  0.602600  0.769500  0.722800  1.0
  C  C1024  1  0.102600  0.269500  0.222800  1.0
  C  C1025  1  0.474300  0.299100  0.710900  1.0
  C  C1026  1  0.974300  0.799100  0.210900  1.0
  C  C1027  1  0.474300  0.200900  0.289100  1.0
  C  C1028  1  0.974300  0.700900  0.789100  1.0
  C  C1029  1  0.525700  0.700900  0.289100  1.0
  C  C1030  1  0.025700  0.200900  0.789100  1.0
  C  C1031  1  0.525700  0.799100  0.710900  1.0
  C  C1032  1  0.025700  0.299100  0.210900  1.0
  C  C1033  1  0.418900  0.302600  0.679200  1.0
  C  C1034  1  0.918900  0.802600  0.179200  1.0
  C  C1035  1  0.418900  0.197400  0.320800  1.0
  C  C1036  1  0.918900  0.697400  0.820800  1.0
  C  C1037  1  0.581100  0.697400  0.320800  1.0
  C  C1038  1  0.081100  0.197400  0.820800  1.0
  C  C1039  1  0.581100  0.802600  0.679200  1.0
  C  C1040  1  0.081100  0.302600  0.179200  1.0
  C  C1041  1  0.305900  0.273500  0.671100  1.0
  C  C1042  1  0.805900  0.773500  0.171100  1.0
  C  C1043  1  0.305900  0.226500  0.328900  1.0
  C  C1044  1  0.805900  0.726500  0.828900  1.0
  C  C1045  1  0.694100  0.726500  0.328900  1.0
  C  C1046  1  0.194100  0.226500  0.828900  1.0
  C  C1047  1  0.694100  0.773500  0.671100  1.0
  C  C1048  1  0.194100  0.273500  0.171100  1.0
  C  C1049  1  0.220600  0.264400  0.638900  1.0
  C  C1050  1  0.720600  0.764400  0.138900  1.0
  C  C1051  1  0.220600  0.235600  0.361100  1.0
  C  C1052  1  0.720600  0.735600  0.861100  1.0
  C  C1053  1  0.779400  0.735600  0.361100  1.0
  C  C1054  1  0.279400  0.235600  0.861100  1.0
  C  C1055  1  0.779400  0.764400  0.638900  1.0
  C  C1056  1  0.279400  0.264400  0.138900  1.0
  C  C1057  1  0.892400  0.164900  0.550200  1.0
  C  C1058  1  0.392400  0.664900  0.050200  1.0
  C  C1059  1  0.892400  0.335100  0.449800  1.0
  C  C1060  1  0.392400  0.835100  0.949800  1.0
  C  C1061  1  0.107600  0.835100  0.449800  1.0
  C  C1062  1  0.607600  0.335100  0.949800  1.0
  C  C1063  1  0.107600  0.664900  0.550200  1.0
  C  C1064  1  0.607600  0.164900  0.050200  1.0
  C  C1065  1  0.873100  0.177800  0.521800  1.0
  C  C1066  1  0.373100  0.677800  0.021800  1.0
  C  C1067  1  0.873100  0.322200  0.478200  1.0
  C  C1068  1  0.373100  0.822200  0.978200  1.0
  C  C1069  1  0.126900  0.822200  0.478200  1.0
  C  C1070  1  0.626900  0.322200  0.978200  1.0
  C  C1071  1  0.126900  0.677800  0.521800  1.0
  C  C1072  1  0.626900  0.177800  0.021800  1.0
  C  C1073  1  0.777300  0.157700  0.495100  1.0
  C  C1074  1  0.277300  0.657700  0.995100  1.0
  C  C1075  1  0.777300  0.342300  0.504900  1.0
  C  C1076  1  0.277300  0.842300  0.004900  1.0
  C  C1077  1  0.222700  0.842300  0.504900  1.0
  C  C1078  1  0.722700  0.342300  0.004900  1.0
  C  C1079  1  0.222700  0.657700  0.495100  1.0
  C  C1080  1  0.722700  0.157700  0.995100  1.0
  C  C1081  1  0.697200  0.123400  0.497300  1.0
  C  C1082  1  0.197200  0.623400  0.997300  1.0
  C  C1083  1  0.697200  0.376600  0.502700  1.0
  C  C1084  1  0.197200  0.876600  0.002700  1.0
  C  C1085  1  0.302800  0.876600  0.502700  1.0
  C  C1086  1  0.802800  0.376600  0.002700  1.0
  C  C1087  1  0.302800  0.623400  0.497300  1.0
  C  C1088  1  0.802800  0.123400  0.997300  1.0
  C  C1089  1  0.714000  0.105900  0.525600  1.0
  C  C1090  1  0.214000  0.605900  0.025600  1.0
  C  C1091  1  0.714000  0.394100  0.474400  1.0
  C  C1092  1  0.214000  0.894100  0.974400  1.0
  C  C1093  1  0.286000  0.894100  0.474400  1.0
  C  C1094  1  0.786000  0.394100  0.974400  1.0
  C  C1095  1  0.286000  0.605900  0.525600  1.0
  C  C1096  1  0.786000  0.105900  0.025600  1.0
  C  C1097  1  0.634000  0.071600  0.528500  1.0
  C  C1098  1  0.134000  0.571600  0.028500  1.0
  C  C1099  1  0.634000  0.428400  0.471500  1.0
  C  C1100  1  0.134000  0.928400  0.971500  1.0
  C  C1101  1  0.366000  0.928400  0.471500  1.0
  C  C1102  1  0.866000  0.428400  0.971500  1.0
  C  C1103  1  0.366000  0.571600  0.528500  1.0
  C  C1104  1  0.866000  0.071600  0.028500  1.0
  C  C1105  1  0.647500  0.052700  0.555600  1.0
  C  C1106  1  0.147500  0.552700  0.055600  1.0
  C  C1107  1  0.647500  0.447300  0.444400  1.0
  C  C1108  1  0.147500  0.947300  0.944400  1.0
  C  C1109  1  0.352500  0.947300  0.444400  1.0
  C  C1110  1  0.852500  0.447300  0.944400  1.0
  C  C1111  1  0.352500  0.552700  0.555600  1.0
  C  C1112  1  0.852500  0.052700  0.055600  1.0
  C  C1113  1  0.558700  0.019500  0.559200  1.0
  C  C1114  1  0.058700  0.519500  0.059200  1.0
  C  C1115  1  0.558700  0.480500  0.440800  1.0
  C  C1116  1  0.058700  0.980500  0.940800  1.0
  C  C1117  1  0.441300  0.980500  0.440800  1.0
  C  C1118  1  0.941300  0.480500  0.940800  1.0
  C  C1119  1  0.441300  0.519500  0.559200  1.0
  C  C1120  1  0.941300  0.019500  0.059200  1.0
  C  C1121  1  0.575800  0.001700  0.585000  1.0
  C  C1122  1  0.075800  0.501700  0.085000  1.0
  C  C1123  1  0.575800  0.498300  0.415000  1.0
  C  C1124  1  0.075800  0.998300  0.915000  1.0
  C  C1125  1  0.424200  0.998300  0.415000  1.0
  C  C1126  1  0.924200  0.498300  0.915000  1.0
  C  C1127  1  0.424200  0.501700  0.585000  1.0
  C  C1128  1  0.924200  0.001700  0.085000  1.0
  C  C1129  1  0.683500  0.015700  0.609200  1.0
  C  C1130  1  0.183500  0.515700  0.109200  1.0
  C  C1131  1  0.683500  0.484300  0.390800  1.0
  C  C1132  1  0.183500  0.984300  0.890800  1.0
  C  C1133  1  0.316500  0.984300  0.390800  1.0
  C  C1134  1  0.816500  0.484300  0.890800  1.0
  C  C1135  1  0.316500  0.515700  0.609200  1.0
  C  C1136  1  0.816500  0.015700  0.109200  1.0
  C  C1137  1  0.727300  0.452500  0.892800  1.0
  C  C1138  1  0.227300  0.952500  0.392800  1.0
  C  C1139  1  0.727300  0.047500  0.107200  1.0
  C  C1140  1  0.227300  0.547500  0.607200  1.0
  C  C1141  1  0.272700  0.547500  0.107200  1.0
  C  C1142  1  0.772700  0.047500  0.607200  1.0
  C  C1143  1  0.272700  0.952500  0.892800  1.0
  C  C1144  1  0.772700  0.452500  0.392800  1.0
  C  C1145  1  0.755100  0.067700  0.579900  1.0
  C  C1146  1  0.255100  0.567700  0.079900  1.0
  C  C1147  1  0.755100  0.432300  0.420100  1.0
  C  C1148  1  0.255100  0.932300  0.920100  1.0
  C  C1149  1  0.244900  0.932300  0.420100  1.0
  C  C1150  1  0.744900  0.432300  0.920100  1.0
  C  C1151  1  0.244900  0.567700  0.579900  1.0
  C  C1152  1  0.744900  0.067700  0.079900  1.0
  C  C1153  1  0.834500  0.103600  0.577200  1.0
  C  C1154  1  0.334500  0.603600  0.077200  1.0
  C  C1155  1  0.834500  0.396400  0.422800  1.0
  C  C1156  1  0.334500  0.896400  0.922800  1.0
  C  C1157  1  0.165500  0.896400  0.422800  1.0
  C  C1158  1  0.665500  0.396400  0.922800  1.0
  C  C1159  1  0.165500  0.603600  0.577200  1.0
  C  C1160  1  0.665500  0.103600  0.077200  1.0
  C  C1161  1  0.815300  0.125100  0.551300  1.0
  C  C1162  1  0.315300  0.625100  0.051300  1.0
  C  C1163  1  0.815300  0.374900  0.448700  1.0
  C  C1164  1  0.315300  0.874900  0.948700  1.0
  C  C1165  1  0.184700  0.874900  0.448700  1.0
  C  C1166  1  0.684700  0.374900  0.948700  1.0
  C  C1167  1  0.184700  0.625100  0.551300  1.0
  C  C1168  1  0.684700  0.125100  0.051300  1.0
  C  C1169  1  0.854200  0.293900  0.580300  1.0
  C  C1170  1  0.354200  0.793900  0.080300  1.0
  C  C1171  1  0.854200  0.206100  0.419700  1.0
  C  C1172  1  0.354200  0.706100  0.919700  1.0
  C  C1173  1  0.145800  0.706100  0.419700  1.0
  C  C1174  1  0.645800  0.206100  0.919700  1.0
  C  C1175  1  0.145800  0.793900  0.580300  1.0
  C  C1176  1  0.645800  0.293900  0.080300  1.0
  C  C1177  1  0.991400  0.305800  0.567200  1.0
  C  C1178  1  0.491400  0.805800  0.067200  1.0
  C  C1179  1  0.991400  0.194200  0.432800  1.0
  C  C1180  1  0.491400  0.694200  0.932800  1.0
  C  C1181  1  0.008600  0.694200  0.432800  1.0
  C  C1182  1  0.508600  0.194200  0.932800  1.0
  C  C1183  1  0.008600  0.805800  0.567200  1.0
  C  C1184  1  0.508600  0.305800  0.067200  1.0
  C  C1185  1  0.929000  0.310600  0.654000  1.0
  C  C1186  1  0.429000  0.810600  0.154000  1.0
  C  C1187  1  0.929000  0.189400  0.346000  1.0
  C  C1188  1  0.429000  0.689400  0.846000  1.0
  C  C1189  1  0.071000  0.689400  0.346000  1.0
  C  C1190  1  0.571000  0.189400  0.846000  1.0
  C  C1191  1  0.071000  0.810600  0.654000  1.0
  C  C1192  1  0.571000  0.310600  0.154000  1.0
  C  C1193  1  0.824300  0.347500  0.674300  1.0
  C  C1194  1  0.324300  0.847500  0.174300  1.0
  C  C1195  1  0.824300  0.152500  0.325700  1.0
  C  C1196  1  0.324300  0.652500  0.825700  1.0
  C  C1197  1  0.175700  0.652500  0.325700  1.0
  C  C1198  1  0.675700  0.152500  0.825700  1.0
  C  C1199  1  0.175700  0.847500  0.674300  1.0
  C  C1200  1  0.675700  0.347500  0.174300  1.0
  C  C1201  1  0.701000  0.254400  0.623900  1.0
  C  C1202  1  0.201000  0.754400  0.123900  1.0
  C  C1203  1  0.701000  0.245600  0.376100  1.0
  C  C1204  1  0.201000  0.745600  0.876100  1.0
  C  C1205  1  0.299000  0.745600  0.376100  1.0
  C  C1206  1  0.799000  0.245600  0.876100  1.0
  C  C1207  1  0.299000  0.754400  0.623900  1.0
  C  C1208  1  0.799000  0.254400  0.123900  1.0
  C  C1209  1  0.621400  0.224800  0.594800  1.0
  C  C1210  1  0.121400  0.724800  0.094800  1.0
  C  C1211  1  0.621400  0.275200  0.405200  1.0
  C  C1212  1  0.121400  0.775200  0.905200  1.0
  C  C1213  1  0.378600  0.775200  0.405200  1.0
  C  C1214  1  0.878600  0.275200  0.905200  1.0
  C  C1215  1  0.378600  0.724800  0.594800  1.0
  C  C1216  1  0.878600  0.224800  0.094800  1.0
  C  C1217  1  0.140700  0.098300  0.526100  1.0
  C  C1218  1  0.640700  0.598300  0.026100  1.0
  C  C1219  1  0.140700  0.401700  0.473900  1.0
  C  C1220  1  0.640700  0.901700  0.973900  1.0
  C  C1221  1  0.859300  0.901700  0.473900  1.0
  C  C1222  1  0.359300  0.401700  0.973900  1.0
  C  C1223  1  0.859300  0.598300  0.526100  1.0
  C  C1224  1  0.359300  0.098300  0.026100  1.0
  C  C1225  1  0.251200  0.064600  0.507300  1.0
  C  C1226  1  0.751200  0.564600  0.007300  1.0
  C  C1227  1  0.251200  0.435400  0.492700  1.0
  C  C1228  1  0.751200  0.935400  0.992700  1.0
  C  C1229  1  0.748800  0.935400  0.492700  1.0
  C  C1230  1  0.248800  0.435400  0.992700  1.0
  C  C1231  1  0.748800  0.564600  0.507300  1.0
  C  C1232  1  0.248800  0.064600  0.007300  1.0
  C  C1233  1  0.274000  0.181500  0.542700  1.0
  C  C1234  1  0.774000  0.681500  0.042700  1.0
  C  C1235  1  0.274000  0.318500  0.457300  1.0
  C  C1236  1  0.774000  0.818500  0.957300  1.0
  C  C1237  1  0.726000  0.818500  0.457300  1.0
  C  C1238  1  0.226000  0.318500  0.957300  1.0
  C  C1239  1  0.726000  0.681500  0.542700  1.0
  C  C1240  1  0.226000  0.181500  0.042700  1.0
  C  C1241  1  0.220000  0.198600  0.512900  1.0
  C  C1242  1  0.720000  0.698600  0.012900  1.0
  C  C1243  1  0.220000  0.301400  0.487100  1.0
  C  C1244  1  0.720000  0.801400  0.987100  1.0
  C  C1245  1  0.780000  0.801400  0.487100  1.0
  C  C1246  1  0.280000  0.301400  0.987100  1.0
  C  C1247  1  0.780000  0.698600  0.512900  1.0
  C  C1248  1  0.280000  0.198600  0.012900  1.0
  C  C1249  1  0.293100  0.139200  0.593600  1.0
  C  C1250  1  0.793100  0.639200  0.093600  1.0
  C  C1251  1  0.293100  0.360800  0.406400  1.0
  C  C1252  1  0.793100  0.860800  0.906400  1.0
  C  C1253  1  0.706900  0.860800  0.406400  1.0
  C  C1254  1  0.206900  0.360800  0.906400  1.0
  C  C1255  1  0.706900  0.639200  0.593600  1.0
  C  C1256  1  0.206900  0.139200  0.093600  1.0
  C  C1257  1  0.259000  0.123000  0.625700  1.0
  C  C1258  1  0.759000  0.623000  0.125700  1.0
  C  C1259  1  0.259000  0.377000  0.374300  1.0
  C  C1260  1  0.759000  0.877000  0.874300  1.0
  C  C1261  1  0.741000  0.877000  0.374300  1.0
  C  C1262  1  0.241000  0.377000  0.874300  1.0
  C  C1263  1  0.741000  0.623000  0.625700  1.0
  C  C1264  1  0.241000  0.123000  0.125700  1.0
  C  C1265  1  0.577800  0.310900  0.812600  1.0
  C  C1266  1  0.077800  0.810900  0.312600  1.0
  C  C1267  1  0.577800  0.189100  0.187400  1.0
  C  C1268  1  0.077800  0.689100  0.687400  1.0
  C  C1269  1  0.422200  0.689100  0.187400  1.0
  C  C1270  1  0.922200  0.189100  0.687400  1.0
  C  C1271  1  0.422200  0.810900  0.812600  1.0
  C  C1272  1  0.922200  0.310900  0.312600  1.0
  C  C1273  1  0.626700  0.264200  0.785800  1.0
  C  C1274  1  0.126700  0.764200  0.285800  1.0
  C  C1275  1  0.626700  0.235800  0.214200  1.0
  C  C1276  1  0.126700  0.735800  0.714200  1.0
  C  C1277  1  0.373300  0.735800  0.214200  1.0
  C  C1278  1  0.873300  0.235800  0.714200  1.0
  C  C1279  1  0.373300  0.764200  0.785800  1.0
  C  C1280  1  0.873300  0.264200  0.285800  1.0
  C  C1281  1  0.751400  0.365000  0.781700  1.0
  C  C1282  1  0.251400  0.865000  0.281700  1.0
  C  C1283  1  0.751400  0.135000  0.218300  1.0
  C  C1284  1  0.251400  0.635000  0.718300  1.0
  C  C1285  1  0.248600  0.635000  0.218300  1.0
  C  C1286  1  0.748600  0.135000  0.718300  1.0
  C  C1287  1  0.248600  0.865000  0.781700  1.0
  C  C1288  1  0.748600  0.365000  0.281700  1.0
  C  C1289  1  0.829000  0.407900  0.787100  1.0
  C  C1290  1  0.329000  0.907900  0.287100  1.0
  C  C1291  1  0.829000  0.092100  0.212900  1.0
  C  C1292  1  0.329000  0.592100  0.712900  1.0
  C  C1293  1  0.171000  0.592100  0.212900  1.0
  C  C1294  1  0.671000  0.092100  0.712900  1.0
  C  C1295  1  0.171000  0.907900  0.787100  1.0
  C  C1296  1  0.671000  0.407900  0.287100  1.0
  C  C1297  1  0.833800  0.347300  0.844500  1.0
  C  C1298  1  0.333800  0.847300  0.344500  1.0
  C  C1299  1  0.833800  0.152700  0.155500  1.0
  C  C1300  1  0.333800  0.652700  0.655500  1.0
  C  C1301  1  0.166200  0.652700  0.155500  1.0
  C  C1302  1  0.666200  0.152700  0.655500  1.0
  C  C1303  1  0.166200  0.847300  0.844500  1.0
  C  C1304  1  0.666200  0.347300  0.344500  1.0
  C  C1305  1  0.936400  0.325000  0.826300  1.0
  C  C1306  1  0.436400  0.825000  0.326300  1.0
  C  C1307  1  0.936400  0.175000  0.173700  1.0
  C  C1308  1  0.436400  0.675000  0.673700  1.0
  C  C1309  1  0.063600  0.675000  0.173700  1.0
  C  C1310  1  0.563600  0.175000  0.673700  1.0
  C  C1311  1  0.063600  0.825000  0.826300  1.0
  C  C1312  1  0.563600  0.325000  0.326300  1.0
  C  C1313  1  0.494700  0.535600  0.931300  1.0
  C  C1314  1  0.994700  0.035600  0.431300  1.0
  C  C1315  1  0.494700  0.964400  0.068700  1.0
  C  C1316  1  0.994700  0.464400  0.568700  1.0
  C  C1317  1  0.505300  0.464400  0.068700  1.0
  C  C1318  1  0.005300  0.964400  0.568700  1.0
  C  C1319  1  0.505300  0.035600  0.931300  1.0
  C  C1320  1  0.005300  0.535600  0.431300  1.0
  C  C1321  1  0.431400  0.509600  0.951900  1.0
  C  C1322  1  0.931400  0.009600  0.451900  1.0
  C  C1323  1  0.431400  0.990400  0.048100  1.0
  C  C1324  1  0.931400  0.490400  0.548100  1.0
  C  C1325  1  0.568600  0.490400  0.048100  1.0
  C  C1326  1  0.068600  0.990400  0.548100  1.0
  C  C1327  1  0.568600  0.009600  0.951900  1.0
  C  C1328  1  0.068600  0.509600  0.451900  1.0
  C  C1329  1  0.565500  0.549800  0.867900  1.0
  C  C1330  1  0.065500  0.049800  0.367900  1.0
  C  C1331  1  0.565500  0.950200  0.132100  1.0
  C  C1332  1  0.065500  0.450200  0.632100  1.0
  C  C1333  1  0.434500  0.450200  0.132100  1.0
  C  C1334  1  0.934500  0.950200  0.632100  1.0
  C  C1335  1  0.434500  0.049800  0.867900  1.0
  C  C1336  1  0.934500  0.549800  0.367900  1.0
  C  C1337  1  0.574600  0.537600  0.828300  1.0
  C  C1338  1  0.074600  0.037600  0.328300  1.0
  C  C1339  1  0.574600  0.962400  0.171700  1.0
  C  C1340  1  0.074600  0.462400  0.671700  1.0
  C  C1341  1  0.425400  0.462400  0.171700  1.0
  C  C1342  1  0.925400  0.962400  0.671700  1.0
  C  C1343  1  0.425400  0.037600  0.828300  1.0
  C  C1344  1  0.925400  0.537600  0.328300  1.0
  C  C1345  1  0.318300  0.505900  0.870500  1.0
  C  C1346  1  0.818300  0.005900  0.370500  1.0
  C  C1347  1  0.318300  0.994100  0.129500  1.0
  C  C1348  1  0.818300  0.494100  0.629500  1.0
  C  C1349  1  0.681700  0.494100  0.129500  1.0
  C  C1350  1  0.181700  0.994100  0.629500  1.0
  C  C1351  1  0.681700  0.005900  0.870500  1.0
  C  C1352  1  0.181700  0.505900  0.370500  1.0
  C  C1353  1  0.248600  0.553200  0.886600  1.0
  C  C1354  1  0.748600  0.053200  0.386600  1.0
  C  C1355  1  0.248600  0.946800  0.113400  1.0
  C  C1356  1  0.748600  0.446800  0.613400  1.0
  C  C1357  1  0.751400  0.446800  0.113400  1.0
  C  C1358  1  0.251400  0.946800  0.613400  1.0
  C  C1359  1  0.751400  0.053200  0.886600  1.0
  C  C1360  1  0.251400  0.553200  0.386600  1.0
  Cl  Cl1361  1  0.746200  0.475100  0.721600  1
  Cl  Cl1362  1  0.246200  0.975100  0.221600  1
  Cl  Cl1363  1  0.746200  0.024900  0.278400  1
  Cl  Cl1364  1  0.246200  0.524900  0.778400  1
  Cl  Cl1365  1  0.253800  0.524900  0.278400  1
  Cl  Cl1366  1  0.753800  0.024900  0.778400  1
  Cl  Cl1367  1  0.253800  0.975100  0.721600  1
  Cl  Cl1368  1  0.753800  0.475100  0.221600  1
  Cl  Cl1369  1  0.484800  0.474400  0.689800  1
  Cl  Cl1370  1  0.984800  0.974400  0.189800  1
  Cl  Cl1371  1  0.484800  0.025600  0.310200  1
  Cl  Cl1372  1  0.984800  0.525600  0.810200  1
  Cl  Cl1373  1  0.515200  0.525600  0.310200  1
  Cl  Cl1374  1  0.015200  0.025600  0.810200  1
  Cl  Cl1375  1  0.515200  0.974400  0.689800  1
  Cl  Cl1376  1  0.015200  0.474400  0.189800  1
  Cl  Cl1377  1  0.487400  0.300600  0.542300  1
  Cl  Cl1378  1  0.987400  0.800600  0.042300  1
  Cl  Cl1379  1  0.487400  0.199400  0.457700  1
  Cl  Cl1380  1  0.987400  0.699400  0.957700  1
  Cl  Cl1381  1  0.512600  0.699400  0.457700  1
  Cl  Cl1382  1  0.012600  0.199400  0.957700  1
  Cl  Cl1383  1  0.512600  0.800600  0.542300  1
  Cl  Cl1384  1  0.012600  0.300600  0.042300  1
  Cl  Cl1385  1  0.282100  0.372600  0.561800  1
  Cl  Cl1386  1  0.782100  0.872600  0.061800  1
  Cl  Cl1387  1  0.282100  0.127400  0.438200  1
  Cl  Cl1388  1  0.782100  0.627400  0.938200  1
  Cl  Cl1389  1  0.717900  0.627400  0.438200  1
  Cl  Cl1390  1  0.217900  0.127400  0.938200  1
  Cl  Cl1391  1  0.717900  0.872600  0.561800  1
  Cl  Cl1392  1  0.217900  0.372600  0.061800  1
  Cl  Cl1393  1  0.511900  0.365200  0.612700  1
  Cl  Cl1394  1  0.011900  0.865200  0.112700  1
  Cl  Cl1395  1  0.511900  0.134800  0.387300  1
  Cl  Cl1396  1  0.011900  0.634800  0.887300  1
  Cl  Cl1397  1  0.488100  0.634800  0.387300  1
  Cl  Cl1398  1  0.988100  0.134800  0.887300  1
  Cl  Cl1399  1  0.488100  0.865200  0.612700  1
  Cl  Cl1400  1  0.988100  0.365200  0.112700  1
  Cl  Cl1401  1  0.509000  0.319600  0.558100  1
  Cl  Cl1402  1  0.009000  0.819600  0.058100  1
  Cl  Cl1403  1  0.509000  0.180400  0.441900  1
  Cl  Cl1404  1  0.009000  0.680400  0.941900  1
  Cl  Cl1405  1  0.491000  0.680400  0.441900  1
  Cl  Cl1406  1  0.991000  0.180400  0.941900  1
  Cl  Cl1407  1  0.491000  0.819600  0.558100  1
  Cl  Cl1408  1  0.991000  0.319600  0.058100  1
  Cl  Cl1409  1  0.350500  0.386300  0.574000  1
  Cl  Cl1410  1  0.850500  0.886300  0.074000  1
  Cl  Cl1411  1  0.350500  0.113700  0.426000  1
  Cl  Cl1412  1  0.850500  0.613700  0.926000  1
  Cl  Cl1413  1  0.649500  0.613700  0.426000  1
  Cl  Cl1414  1  0.149500  0.113700  0.926000  1
  Cl  Cl1415  1  0.649500  0.886300  0.574000  1
  Cl  Cl1416  1  0.149500  0.386300  0.074000  1
  Cl  Cl1417  1  0.435000  0.383900  0.619800  1
  Cl  Cl1418  1  0.935000  0.883900  0.119800  1
  Cl  Cl1419  1  0.435000  0.116100  0.380200  1
  Cl  Cl1420  1  0.935000  0.616100  0.880200  1
  Cl  Cl1421  1  0.565000  0.616100  0.380200  1
  Cl  Cl1422  1  0.065000  0.116100  0.880200  1
  Cl  Cl1423  1  0.565000  0.883900  0.619800  1
  Cl  Cl1424  1  0.065000  0.383900  0.119800  1
  O  O1425  1  0.430400  0.405800  0.817900  1.0
  O  O1426  1  0.930400  0.905800  0.317900  1.0
  O  O1427  1  0.430400  0.094200  0.182100  1.0
  O  O1428  1  0.930400  0.594200  0.682100  1.0
  O  O1429  1  0.569600  0.594200  0.182100  1.0
  O  O1430  1  0.069600  0.094200  0.682100  1.0
  O  O1431  1  0.569600  0.905800  0.817900  1.0
  O  O1432  1  0.069600  0.405800  0.317900  1.0
  O  O1433  1  0.507800  0.429600  0.775400  1.0
  O  O1434  1  0.007800  0.929600  0.275400  1.0
  O  O1435  1  0.507800  0.070400  0.224600  1.0
  O  O1436  1  0.007800  0.570400  0.724600  1.0
  O  O1437  1  0.492200  0.570400  0.224600  1.0
  O  O1438  1  0.992200  0.070400  0.724600  1.0
  O  O1439  1  0.492200  0.929600  0.775400  1.0
  O  O1440  1  0.992200  0.429600  0.275400  1.0
  O  O1441  1  0.133500  0.233680  0.636880  1.0
  O  O1442  1  0.633500  0.733680  0.136880  1.0
  O  O1443  1  0.133500  0.266320  0.363120  1.0
  O  O1444  1  0.633500  0.766320  0.863120  1.0
  O  O1445  1  0.866500  0.766320  0.363120  1.0
  O  O1446  1  0.366500  0.266320  0.863120  1.0
  O  O1447  1  0.866500  0.733680  0.636880  1.0
  O  O1448  1  0.366500  0.233680  0.136880  1.0
  O  O1449  1  0.240800  0.283500  0.617200  1.0
  O  O1450  1  0.740800  0.783500  0.117200  1.0
  O  O1451  1  0.240800  0.216500  0.382800  1.0
  O  O1452  1  0.740800  0.716500  0.882800  1.0
  O  O1453  1  0.759200  0.716500  0.382800  1.0
  O  O1454  1  0.259200  0.216500  0.882800  1.0
  O  O1455  1  0.759200  0.783500  0.617200  1.0
  O  O1456  1  0.259200  0.283500  0.117200  1.0
