
#######################################################################
#
#                 Cambridge Crystallographic Data Centre
#                                CCDC 
#
#######################################################################
#
# If this CIF has been generated from an entry in the Cambridge 
# Structural Database, then it will include bibliographic, chemical, 
# crystal, experimental, refinement or atomic coordinate data resulting 
# from the CCDC's data processing and validation procedures.
#
#######################################################################

data_LARZUA
_chemical_formula_moiety         'C100 H152 Fe2 O8 P8 Pt4,3(C1 H2 Cl2)'
_chemical_name_systematic        
"bis(\m~2~-Anthracene-1,8-diyl)-bis(\m~2~-ferrocene-1,1'-dicarboxylato)-tetrakis(trans-bis(triethylphosphine)-platinum(ii)) dichloromethane solvate"
_symmetry_cell_setting           monoclinic
_symmetry_space_group_name_H-M   'C 2/c'
_symmetry_Int_Tables_number      15
_space_group_name_Hall           '-C 2yn'
loop_
_symmetry_equiv_pos_site_id
_symmetry_equiv_pos_as_xyz
1 x,y,z
2 1/2+x,1/2+y,z
3 -x,y,1/2-z
4 1/2-x,1/2+y,1/2-z
5 -x,-y,-z
6 1/2-x,1/2-y,-z
7 x,-y,1/2+z
8 1/2+x,1/2-y,1/2+z
_cell_length_a                   40.0355(12)
_cell_length_b                   10.4098(2)
_cell_length_c                   30.4252(9)
_cell_angle_alpha                90
_cell_angle_beta                 112.9492(9)
_cell_angle_gamma                90
_cell_volume                     11676.4
_exptl_crystal_colour            yellow
_exptl_crystal_description       prism
_cell_formula_units_Z            4
_exptl_crystal_recrystallization_method chloroform/dichloromethane/acetone
loop_
_atom_site_label
_atom_site_type_symbol
_atom_site_fract_x
_atom_site_fract_y
_atom_site_fract_z
Pt1 Pt 0.590745(9) 0.98652(3) 0.390262(12)
Pt2 Pt 0.855650(9) 0.41522(3) 0.423540(12)
Fe1 Fe 0.72173(4) 0.70547(12) 0.39499(5)
P1 P 0.61136(8) 1.1267(3) 0.34764(10)
P2 P 0.56600(10) 0.8243(3) 0.41848(16)
P3 P 0.82364(7) 0.3045(3) 0.45954(11)
P4 P 0.88198(7) 0.5123(2) 0.37689(9)
O1 O 0.81790(16) 0.5696(5) 0.4121(2)
O2 O 0.7754(2) 0.4922(7) 0.3458(3)
O3 O 0.63688(16) 0.8665(6) 0.4032(2)
O4 O 0.6172(2) 0.7592(7) 0.3337(2)
C1 C 0.7873(3) 0.5737(9) 0.3769(3)
C2 C 0.7652(3) 0.6911(8) 0.3751(3)
C3 C 0.7334(3) 0.7291(11) 0.3363(4)
H1 H 0.7223 0.6837 0.3071
C4 C 0.7207(3) 0.8454(11) 0.3481(4)
H2 H 0.6999 0.8922 0.3284
C5 C 0.7450(3) 0.8790(10) 0.3945(4)
H3 H 0.7430 0.9534 0.4115
C6 C 0.7727(3) 0.7851(9) 0.4122(4)
H4 H 0.7924 0.7845 0.4425
C7 C 0.6983(3) 0.7066(11) 0.4443(4)
H5 H 0.6998 0.7741 0.4660
C8 C 0.7228(3) 0.6026(11) 0.4533(4)
H6 H 0.7433 0.5873 0.4820
C9 C 0.7109(3) 0.5257(10) 0.4118(4)
H7 H 0.7223 0.4489 0.4079
C10 C 0.6792(3) 0.5811(9) 0.3766(4)
H8 H 0.6660 0.5495 0.3453
C11 C 0.6711(2) 0.6941(8) 0.3976(3)
C12 C 0.6389(3) 0.7794(8) 0.3745(3)
C13 C 0.5502(2) 1.1076(8) 0.3853(3)
C14 C 0.5218(3) 1.1269(9) 0.3440(3)
H9 H 0.5194 1.0733 0.3177
C15 C 0.4951(3) 1.2227(10) 0.3374(4)
H10 H 0.4755 1.2312 0.3073
C16 C 0.4973(3) 1.3028(9) 0.3739(3)
H11 H 0.4800 1.3695 0.3688
C17 C 0.5256(2) 1.2860(8) 0.4197(3)
C18 C 0.5285(2) 1.3660(8) 0.4569(3)
H12 H 0.5114 1.4336 0.4512
C19 C 0.5556(3) 1.3525(8) 0.5029(3)
C20 C 0.5592(3) 1.4413(9) 0.5397(4)
H13 H 0.5434 1.5130 0.5334
C21 C 0.5850(3) 1.4242(9) 0.5833(4)
H14 H 0.5873 1.4842 0.6078
C22 C 0.6092(3) 1.3165(9) 0.5935(3)
H15 H 0.6272 1.3070 0.6248
C23 C 0.8928(3) 0.2727(8) 0.4403(3)
C24 C 0.5799(2) 1.2449(8) 0.5122(3)
C25 C 0.5772(2) 1.1655(8) 0.4736(3)
H16 H 0.5936 1.0954 0.4795
C26 C 0.5513(2) 1.1847(8) 0.4262(3)
C27 C 0.5803(5) 1.1458(14) 0.2864(6)
H17 H 0.5589 1.1958 0.2853
H18 H 0.5923 1.1943 0.2687
C28 C 0.5672(4) 1.0086(12) 0.2614(4)
H19 H 0.5504 1.0213 0.2282
H20 H 0.5550 0.9611 0.2787
H21 H 0.5883 0.9597 0.2621
C29 C 0.6540(6) 1.071(2) 0.3434(7)
H25 H 0.6705 1.0392 0.3751
H26 H 0.6484 0.9983 0.3208
C30 C 0.6743(4) 1.1757(18) 0.3268(7)
H27 H 0.6964 1.1388 0.3255
H28 H 0.6807 1.2475 0.3494
H29 H 0.6585 1.2067 0.2951
C31 C 0.6239(6) 1.2990(16) 0.3695(7)
H33 H 0.6428 1.2958 0.4023
H34 H 0.6348 1.3406 0.3490
C35 C 0.5948(4) 1.3786(11) 0.3700(5)
H41 H 0.6042 1.4643 0.3818
H42 H 0.5841 1.3403 0.3910
H43 H 0.5762 1.3855 0.3375
C36 C 0.5261(3) 0.8593(9) 0.4278(4)
H47 H 0.5320 0.9269 0.4525
H48 H 0.5083 0.8964 0.3978
C37 C 0.5073(3) 0.7488(10) 0.4427(5)
H49 H 0.4857 0.7815 0.4466
H50 H 0.5241 0.7126 0.4731
H51 H 0.5003 0.6819 0.4181
C38 C 0.5427(9) 0.726(2) 0.3612(8)
H52 H 0.5624 0.6931 0.3522
H53 H 0.5320 0.6503 0.3703
C39 C 0.5129(7) 0.780(2) 0.3143(7)
H54 H 0.5044 0.7106 0.2906
H55 H 0.5231 0.8492 0.3017
H56 H 0.4925 0.8125 0.3212
C40 C 0.5936(5) 0.7069(15) 0.4544(6)
H57 H 0.5776 0.6460 0.4621
H58 H 0.6041 0.6592 0.4347
C41 C 0.6257(5) 0.741(2) 0.5027(7)
H59 H 0.6160 0.7770 0.5250
H60 H 0.6416 0.8043 0.4968
H61 H 0.6396 0.6631 0.5164
C45 C 0.8126(4) 0.4222(13) 0.5017(5)
H72 H 0.8029 0.5028 0.4840
H73 H 0.8355 0.4437 0.5288
C46 C 0.7858(4) 0.3733(15) 0.5216(5)
H74 H 0.7821 0.4387 0.5425
H75 H 0.7626 0.3550 0.4952
H76 H 0.7952 0.2946 0.5399
C47 C 0.7817(4) 0.2486(13) 0.4167(5)
H77 H 0.7659 0.3230 0.4017
H78 H 0.7692 0.1958 0.4328
C48 C 0.7871(4) 0.1710(15) 0.3792(5)
H79 H 0.7635 0.1403 0.3565
H80 H 0.7986 0.2240 0.3625
H81 H 0.8027 0.0974 0.3940
C49 C 0.8445(3) 0.1662(11) 0.4972(5)
H82 H 0.8574 0.2000 0.5299
H83 H 0.8635 0.1343 0.4866
C50 C 0.8263(7) 0.0636(15) 0.5013(7)
H84 H 0.8431 0.0011 0.5227
H85 H 0.8085 0.0893 0.5144
H86 H 0.8137 0.0246 0.4698
C51 C 0.9313(3) 0.5053(11) 0.3957(4)
H87 H 0.9379 0.5465 0.3709
H88 H 0.9388 0.4141 0.3979
C52 C 0.9519(3) 0.5686(13) 0.4423(4)
H89 H 0.9779 0.5618 0.4498
H90 H 0.9450 0.6593 0.4405
H91 H 0.9463 0.5263 0.4674
C53 C 0.8679(4) 0.4345(12) 0.3181(4)
H92 H 0.8781 0.3466 0.3228
H93 H 0.8786 0.4826 0.2988
C54 C 0.8283(4) 0.4254(15) 0.2907(4)
H94 H 0.8236 0.3838 0.2600
H95 H 0.8174 0.3746 0.3087
H96 H 0.8178 0.5118 0.2852
C55 C 0.8705(3) 0.6817(9) 0.3646(4)
H97 H 0.8784 0.7274 0.3956
H98 H 0.8438 0.6890 0.3492
C56 C 0.8866(3) 0.7514(11) 0.3334(4)
H99 H 0.8784 0.8409 0.3292
H100 H 0.9132 0.7488 0.3488
H101 H 0.8786 0.7092 0.3022
Pt1E Pt 0.909255(9) 0.51348(3) 0.609738(12)
Pt2E Pt 0.644350(9) 1.08478(3) 0.576460(12)
Fe1E Fe 0.77827(4) 0.79453(12) 0.60501(5)
P1E P 0.88864(8) 0.3733(3) 0.65236(10)
P2E P 0.93400(10) 0.6757(3) 0.58152(16)
P3E P 0.67636(7) 1.1955(3) 0.54046(11)
P4E P 0.61802(7) 0.9877(2) 0.62311(9)
O1E O 0.68210(16) 0.9304(5) 0.5879(2)
O2E O 0.7246(2) 1.0078(7) 0.6542(3)
O3E O 0.86312(16) 0.6335(6) 0.5968(2)
O4E O 0.8828(2) 0.7408(7) 0.6663(2)
C1E C 0.7127(3) 0.9263(9) 0.6231(3)
C2E C 0.7348(3) 0.8089(8) 0.6249(3)
C3E C 0.7666(3) 0.7709(11) 0.6637(4)
H1E H 0.7777 0.8163 0.6929
C4E C 0.7793(3) 0.6546(11) 0.6519(4)
H2E H 0.8001 0.6078 0.6716
C5E C 0.7550(3) 0.6210(10) 0.6055(4)
H3E H 0.7570 0.5466 0.5885
C6E C 0.7273(3) 0.7149(9) 0.5878(4)
H4E H 0.7076 0.7155 0.5575
C7E C 0.8017(3) 0.7934(11) 0.5557(4)
H5E H 0.8002 0.7259 0.5340
C8E C 0.7772(3) 0.8974(11) 0.5467(4)
H6E H 0.7567 0.9127 0.5180
C9E C 0.7891(3) 0.9743(10) 0.5882(4)
H7E H 0.7777 1.0511 0.5921
C10E C 0.8208(3) 0.9189(9) 0.6234(4)
H8E H 0.8340 0.9505 0.6547
C11E C 0.8289(2) 0.8059(8) 0.6024(3)
C12E C 0.8611(3) 0.7206(8) 0.6255(3)
C13E C 0.9498(2) 0.3924(8) 0.6147(3)
C14E C 0.9782(3) 0.3731(9) 0.6560(3)
H9E H 0.9806 0.4267 0.6823
C15E C 1.0049(3) 0.2773(10) 0.6626(4)
H10E H 1.0245 0.2688 0.6927
C16E C 1.0027(3) 0.1972(9) 0.6261(3)
H11E H 1.0200 0.1305 0.6312
C17E C 0.9744(2) 0.2140(8) 0.5803(3)
C18E C 0.9715(2) 0.1340(8) 0.5431(3)
H12E H 0.9886 0.0664 0.5488
C19E C 0.9444(3) 0.1475(8) 0.4971(3)
C20E C 0.9408(3) 0.0587(9) 0.4603(4)
H13E H 0.9566 -0.0130 0.4666
C21E C 0.9150(3) 0.0758(9) 0.4167(4)
H14E H 0.9127 0.0158 0.3922
C22E C 0.8908(3) 0.1835(9) 0.4065(3)
H15E H 0.8728 0.1930 0.3752
C23E C 0.6072(3) 1.2273(8) 0.5597(3)
C24E C 0.9201(2) 0.2551(8) 0.4878(3)
C25E C 0.9228(2) 0.3345(8) 0.5264(3)
H16E H 0.9064 0.4046 0.5205
C26E C 0.9487(2) 0.3153(8) 0.5738(3)
C27E C 0.9197(5) 0.3542(14) 0.7136(6)
H17E H 0.9411 0.3042 0.7147
H18E H 0.9077 0.3057 0.7313
C28E C 0.9328(4) 0.4914(12) 0.7386(4)
H19E H 0.9496 0.4787 0.7718
H20E H 0.9450 0.5389 0.7213
H21E H 0.9117 0.5403 0.7379
C29E C 0.8460(6) 0.429(2) 0.6566(7)
H25E H 0.8295 0.4608 0.6249
H26E H 0.8516 0.5017 0.6792
C30E C 0.8257(4) 0.3243(18) 0.6732(7)
H27E H 0.8036 0.3612 0.6745
H28E H 0.8193 0.2525 0.6506
H29E H 0.8415 0.2933 0.7049
C31E C 0.8761(6) 0.2010(16) 0.6305(7)
H33E H 0.8572 0.2042 0.5977
H34E H 0.8652 0.1594 0.6510
C35E C 0.9052(4) 0.1214(11) 0.6300(5)
H41E H 0.8958 0.0357 0.6182
H42E H 0.9159 0.1597 0.6090
H43E H 0.9238 0.1145 0.6625
C36E C 0.9739(3) 0.6407(9) 0.5722(4)
H47E H 0.9680 0.5731 0.5475
H48E H 0.9917 0.6036 0.6022
C37E C 0.9927(3) 0.7512(10) 0.5573(5)
H49E H 1.0143 0.7185 0.5534
H50E H 0.9759 0.7874 0.5269
H51E H 0.9997 0.8181 0.5819
C38E C 0.9573(9) 0.774(2) 0.6388(8)
H52E H 0.9376 0.8069 0.6478
H53E H 0.9680 0.8497 0.6297
C39E C 0.9871(7) 0.720(2) 0.6857(7)
H54E H 0.9956 0.7894 0.7094
H55E H 0.9769 0.6508 0.6983
H56E H 1.0075 0.6875 0.6788
C40E C 0.9064(5) 0.7931(15) 0.5456(6)
H57E H 0.9224 0.8540 0.5379
H58E H 0.8959 0.8408 0.5653
C41E C 0.8743(5) 0.759(2) 0.4973(7)
H59E H 0.8840 0.7230 0.4750
H60E H 0.8584 0.6957 0.5032
H61E H 0.8604 0.8369 0.4836
C45E C 0.6874(4) 1.0778(13) 0.4983(5)
H72E H 0.6971 0.9972 0.5160
H73E H 0.6645 1.0563 0.4712
C46E C 0.7142(4) 1.1267(15) 0.4784(5)
H74E H 0.7179 1.0613 0.4575
H75E H 0.7374 1.1450 0.5048
H76E H 0.7048 1.2054 0.4601
C47E C 0.7183(4) 1.2514(13) 0.5833(5)
H77E H 0.7341 1.1770 0.5983
H78E H 0.7308 1.3042 0.5672
C48E C 0.7129(4) 1.3290(15) 0.6208(5)
H79E H 0.7365 1.3597 0.6435
H80E H 0.7014 1.2760 0.6375
H81E H 0.6973 1.4026 0.6060
C49E C 0.6555(3) 1.3338(11) 0.5028(5)
H82E H 0.6426 1.3000 0.4701
H83E H 0.6365 1.3657 0.5134
C50E C 0.6737(7) 1.4364(15) 0.4987(7)
H84E H 0.6569 1.4989 0.4773
H85E H 0.6915 1.4107 0.4856
H86E H 0.6863 1.4754 0.5302
C51E C 0.5687(3) 0.9947(11) 0.6043(4)
H87E H 0.5621 0.9535 0.6291
H88E H 0.5612 1.0859 0.6021
C52E C 0.5481(3) 0.9314(13) 0.5577(4)
H89E H 0.5221 0.9382 0.5502
H90E H 0.5550 0.8407 0.5595
H91E H 0.5537 0.9737 0.5326
C53E C 0.6321(4) 1.0655(12) 0.6819(4)
H92E H 0.6219 1.1534 0.6772
H93E H 0.6214 1.0174 0.7012
C54E C 0.6717(4) 1.0746(15) 0.7093(4)
H94E H 0.6764 1.1162 0.7400
H95E H 0.6826 1.1254 0.6913
H96E H 0.6822 0.9882 0.7148
C55E C 0.6295(3) 0.8183(9) 0.6354(4)
H97E H 0.6216 0.7726 0.6044
H98E H 0.6562 0.8110 0.6508
C56E C 0.6134(3) 0.7486(11) 0.6666(4)
H99E H 0.6216 0.6591 0.6708
H100E H 0.5868 0.7512 0.6512
H101E H 0.6214 0.7908 0.6978
Cl1 Cl 0.72160(16) 1.2538(5) 0.24650(19)
Cl2 Cl 0.6898(2) 1.5152(9) 0.2154(3)
C57 C 0.7262(8) 1.421(3) 0.2368(10)
H102 H 0.7426 1.4585 0.2677
H103 H 0.7389 1.4284 0.2148
Cl3 Cl 0.5423(3) 0.5126(12) 0.2417(3)
Cl4 Cl 0.5618(3) 0.7179(10) 0.1892(4)
C58 C 0.5788(5) 0.612(2) 0.2422(5)
H104 H 0.5989 0.5583 0.2415
H105 H 0.5879 0.6647 0.2717
loop_
_geom_bond_atom_site_label_1
_geom_bond_atom_site_label_2
_geom_bond_site_symmetry_1
_geom_bond_site_symmetry_2
Pt1 P1 1_555 1_555
Pt2 P3 1_555 1_555
Fe1 C2 1_555 1_555
P1 C27 1_555 1_555
P2 Pt1 1_555 1_555
P3 C45 1_555 1_555
P4 Pt2 1_555 1_555
O1 Pt2 1_555 1_555
O2 C1 1_555 1_555
O3 Pt1 1_555 1_555
O4 C12 1_555 1_555
C1 O1 1_555 1_555
C2 C1 1_555 1_555
C3 Fe1 1_555 1_555
H1 C3 1_555 1_555
C4 Fe1 1_555 1_555
H2 C4 1_555 1_555
C5 Fe1 1_555 1_555
H3 C5 1_555 1_555
C6 Fe1 1_555 1_555
H4 C6 1_555 1_555
C7 Fe1 1_555 1_555
H5 C7 1_555 1_555
C8 Fe1 1_555 1_555
H6 C8 1_555 1_555
C9 Fe1 1_555 1_555
H7 C9 1_555 1_555
C10 Fe1 1_555 1_555
H8 C10 1_555 1_555
C11 Fe1 1_555 1_555
C12 O3 1_555 1_555
C13 Pt1 1_555 1_555
C14 C13 1_555 1_555
H9 C14 1_555 1_555
C15 C14 1_555 1_555
H10 C15 1_555 1_555
C16 C15 1_555 1_555
H11 C16 1_555 1_555
C17 C16 1_555 1_555
C18 C17 1_555 1_555
H12 C18 1_555 1_555
C19 C18 1_555 1_555
C20 C19 1_555 1_555
H13 C20 1_555 1_555
C21 C20 1_555 1_555
H14 C21 1_555 1_555
C22 C21 1_555 1_555
H15 C22 1_555 1_555
C23 Pt2 1_555 1_555
C24 C19 1_555 1_555
C25 C24 1_555 1_555
H16 C25 1_555 1_555
C26 C13 1_555 1_555
C27 H17 1_555 1_555
H18 C27 1_555 1_555
C28 C27 1_555 1_555
H19 C28 1_555 1_555
H20 C28 1_555 1_555
H21 C28 1_555 1_555
C29 P1 1_555 1_555
H25 C29 1_555 1_555
H26 C29 1_555 1_555
C30 C29 1_555 1_555
H27 C30 1_555 1_555
H28 C30 1_555 1_555
H29 C30 1_555 1_555
C31 P1 1_555 1_555
H33 C31 1_555 1_555
H34 C31 1_555 1_555
C35 C31 1_555 1_555
H41 C35 1_555 1_555
H42 C35 1_555 1_555
H43 C35 1_555 1_555
C36 P2 1_555 1_555
H47 C36 1_555 1_555
H48 C36 1_555 1_555
C37 C36 1_555 1_555
H49 C37 1_555 1_555
H50 C37 1_555 1_555
H51 C37 1_555 1_555
C38 P2 1_555 1_555
H52 C38 1_555 1_555
H53 C38 1_555 1_555
C39 C38 1_555 1_555
H54 C39 1_555 1_555
H55 C39 1_555 1_555
H56 C39 1_555 1_555
C40 P2 1_555 1_555
H57 C40 1_555 1_555
H58 C40 1_555 1_555
C41 C40 1_555 1_555
H59 C41 1_555 1_555
H60 C41 1_555 1_555
H61 C41 1_555 1_555
C45 H72 1_555 1_555
H73 C45 1_555 1_555
C46 C45 1_555 1_555
H74 C46 1_555 1_555
H75 C46 1_555 1_555
H76 C46 1_555 1_555
C47 P3 1_555 1_555
H77 C47 1_555 1_555
H78 C47 1_555 1_555
C48 C47 1_555 1_555
H79 C48 1_555 1_555
H80 C48 1_555 1_555
H81 C48 1_555 1_555
C49 P3 1_555 1_555
H82 C49 1_555 1_555
H83 C49 1_555 1_555
C50 C49 1_555 1_555
H84 C50 1_555 1_555
H85 C50 1_555 1_555
H86 C50 1_555 1_555
C51 P4 1_555 1_555
H87 C51 1_555 1_555
H88 C51 1_555 1_555
C52 C51 1_555 1_555
H89 C52 1_555 1_555
H90 C52 1_555 1_555
H91 C52 1_555 1_555
C53 P4 1_555 1_555
H92 C53 1_555 1_555
H93 C53 1_555 1_555
C54 C53 1_555 1_555
H94 C54 1_555 1_555
H95 C54 1_555 1_555
H96 C54 1_555 1_555
C55 P4 1_555 1_555
H97 C55 1_555 1_555
H98 C55 1_555 1_555
C56 C55 1_555 1_555
H99 C56 1_555 1_555
H100 C56 1_555 1_555
H101 C56 1_555 1_555
Cl1 C57 1_555 1_555
Cl2 C57 1_555 1_555
C57 H102 1_555 1_555
H103 C57 1_555 1_555
Cl3 C58 1_555 1_555
Cl4 C58 1_555 1_555
C58 H104 1_555 1_555
H105 C58 1_555 1_555
Pt1E P1E 1_555 1_555
Pt2E P3E 1_555 1_555
Fe1E C2E 1_555 1_555
P1E C27E 1_555 1_555
P2E Pt1E 1_555 1_555
P3E C45E 1_555 1_555
P4E Pt2E 1_555 1_555
O1E Pt2E 1_555 1_555
O2E C1E 1_555 1_555
O3E Pt1E 1_555 1_555
O4E C12E 1_555 1_555
C1E O1E 1_555 1_555
C2E C1E 1_555 1_555
C3E Fe1E 1_555 1_555
H1E C3E 1_555 1_555
C4E Fe1E 1_555 1_555
H2E C4E 1_555 1_555
C5E Fe1E 1_555 1_555
H3E C5E 1_555 1_555
C6E Fe1E 1_555 1_555
H4E C6E 1_555 1_555
C7E Fe1E 1_555 1_555
H5E C7E 1_555 1_555
C8E Fe1E 1_555 1_555
H6E C8E 1_555 1_555
C9E Fe1E 1_555 1_555
H7E C9E 1_555 1_555
C10E Fe1E 1_555 1_555
H8E C10E 1_555 1_555
C11E Fe1E 1_555 1_555
C12E O3E 1_555 1_555
C13E Pt1E 1_555 1_555
C14E C13E 1_555 1_555
H9E C14E 1_555 1_555
C15E C14E 1_555 1_555
H10E C15E 1_555 1_555
C16E C15E 1_555 1_555
H11E C16E 1_555 1_555
C17E C16E 1_555 1_555
C18E C17E 1_555 1_555
H12E C18E 1_555 1_555
C19E C18E 1_555 1_555
C20E C19E 1_555 1_555
H13E C20E 1_555 1_555
C21E C20E 1_555 1_555
H14E C21E 1_555 1_555
C22E C23 1_555 1_555
H15E C22E 1_555 1_555
C23E C22 1_555 1_555
C24E C23 1_555 1_555
C25E C24E 1_555 1_555
H16E C25E 1_555 1_555
C26E C13E 1_555 1_555
C27E H17E 1_555 1_555
H18E C27E 1_555 1_555
C28E C27E 1_555 1_555
H19E C28E 1_555 1_555
H20E C28E 1_555 1_555
H21E C28E 1_555 1_555
C29E P1E 1_555 1_555
H25E C29E 1_555 1_555
H26E C29E 1_555 1_555
C30E C29E 1_555 1_555
H27E C30E 1_555 1_555
H28E C30E 1_555 1_555
H29E C30E 1_555 1_555
C31E P1E 1_555 1_555
H33E C31E 1_555 1_555
H34E C31E 1_555 1_555
C35E C31E 1_555 1_555
H41E C35E 1_555 1_555
H42E C35E 1_555 1_555
H43E C35E 1_555 1_555
C36E P2E 1_555 1_555
H47E C36E 1_555 1_555
H48E C36E 1_555 1_555
C37E C36E 1_555 1_555
H49E C37E 1_555 1_555
H50E C37E 1_555 1_555
H51E C37E 1_555 1_555
C38E P2E 1_555 1_555
H52E C38E 1_555 1_555
H53E C38E 1_555 1_555
C39E C38E 1_555 1_555
H54E C39E 1_555 1_555
H55E C39E 1_555 1_555
H56E C39E 1_555 1_555
C40E P2E 1_555 1_555
H57E C40E 1_555 1_555
H58E C40E 1_555 1_555
C41E C40E 1_555 1_555
H59E C41E 1_555 1_555
H60E C41E 1_555 1_555
H61E C41E 1_555 1_555
C45E H72E 1_555 1_555
H73E C45E 1_555 1_555
C46E C45E 1_555 1_555
H74E C46E 1_555 1_555
H75E C46E 1_555 1_555
H76E C46E 1_555 1_555
C47E P3E 1_555 1_555
H77E C47E 1_555 1_555
H78E C47E 1_555 1_555
C48E C47E 1_555 1_555
H79E C48E 1_555 1_555
H80E C48E 1_555 1_555
H81E C48E 1_555 1_555
C49E P3E 1_555 1_555
H82E C49E 1_555 1_555
H83E C49E 1_555 1_555
C50E C49E 1_555 1_555
H84E C50E 1_555 1_555
H85E C50E 1_555 1_555
H86E C50E 1_555 1_555
C51E P4E 1_555 1_555
H87E C51E 1_555 1_555
H88E C51E 1_555 1_555
C52E C51E 1_555 1_555
H89E C52E 1_555 1_555
H90E C52E 1_555 1_555
H91E C52E 1_555 1_555
C53E P4E 1_555 1_555
H92E C53E 1_555 1_555
H93E C53E 1_555 1_555
C54E C53E 1_555 1_555
H94E C54E 1_555 1_555
H95E C54E 1_555 1_555
H96E C54E 1_555 1_555
C55E P4E 1_555 1_555
H97E C55E 1_555 1_555
H98E C55E 1_555 1_555
C56E C55E 1_555 1_555
H99E C56E 1_555 1_555
H100E C56E 1_555 1_555
H101E C56E 1_555 1_555
C2 C3 1_555 1_555
C2 C6 1_555 1_555
C3 C4 1_555 1_555
C4 C5 1_555 1_555
C5 C6 1_555 1_555
C7 C8 1_555 1_555
C7 C11 1_555 1_555
C8 C9 1_555 1_555
C9 C10 1_555 1_555
C10 C11 1_555 1_555
C11 C12 1_555 1_555
C17 C26 1_555 1_555
C24 C23E 1_555 1_555
C25 C26 1_555 1_555
Pt2E C23E 1_555 1_555
C2E C3E 1_555 1_555
C2E C6E 1_555 1_555
C3E C4E 1_555 1_555
C4E C5E 1_555 1_555
C5E C6E 1_555 1_555
C7E C8E 1_555 1_555
C7E C11E 1_555 1_555
C8E C9E 1_555 1_555
C9E C10E 1_555 1_555
C10E C11E 1_555 1_555
C11E C12E 1_555 1_555
C17E C26E 1_555 1_555
C19E C24E 1_555 1_555
C21E C22E 1_555 1_555
C25E C26E 1_555 1_555

#END
