# generated using pymatgen
data_Co4B6H168C183S2N36(O5F6)4
_symmetry_space_group_name_H-M   'P 1'
_cell_length_a   27.52300000
_cell_length_b   39.47800000
_cell_length_c   42.33800000
_cell_angle_alpha   90.00000000
_cell_angle_beta   106.27900000
_cell_angle_gamma   90.00000000
_symmetry_Int_Tables_number   1
_chemical_formula_structural   Co4B6H168C183S2N36(O5F6)4
_chemical_formula_sum   'Co32 B48 H1344 C1464 S16 N288 O160 F192'
_cell_volume   44158.15367800
_cell_formula_units_Z   8
loop_
 _symmetry_equiv_pos_site_id
 _symmetry_equiv_pos_as_xyz
  1  'x, y, z'
loop_
 _atom_site_type_symbol
 _atom_site_label
 _atom_site_symmetry_multiplicity
 _atom_site_fract_x
 _atom_site_fract_y
 _atom_site_fract_z
 _atom_site_occupancy
  Co  Co1  1  0.590420  0.758450  0.041120  1.0
  Co  Co2  1  0.409580  0.758450  0.458880  1.0
  Co  Co3  1  0.090420  0.258450  0.041120  1.0
  Co  Co4  1  0.909580  0.258450  0.458880  1.0
  Co  Co5  1  0.409580  0.241550  0.958880  1.0
  Co  Co6  1  0.590420  0.241550  0.541120  1.0
  Co  Co7  1  0.909580  0.741550  0.958880  1.0
  Co  Co8  1  0.090420  0.741550  0.541120  1.0
  Co  Co9  1  0.402920  0.538540  0.124290  1.0
  Co  Co10  1  0.597080  0.538540  0.375710  1.0
  Co  Co11  1  0.902920  0.038540  0.124290  1.0
  Co  Co12  1  0.097080  0.038540  0.375710  1.0
  Co  Co13  1  0.597080  0.461460  0.875710  1.0
  Co  Co14  1  0.402920  0.461460  0.624290  1.0
  Co  Co15  1  0.097080  0.961460  0.875710  1.0
  Co  Co16  1  0.902920  0.961460  0.624290  1.0
  Co  Co17  1  0.319690  0.757290  0.784010  1.0
  Co  Co18  1  0.680310  0.757290  0.715990  1.0
  Co  Co19  1  0.819690  0.257290  0.784010  1.0
  Co  Co20  1  0.180310  0.257290  0.715990  1.0
  Co  Co21  1  0.680310  0.242710  0.215990  1.0
  Co  Co22  1  0.319690  0.242710  0.284010  1.0
  Co  Co23  1  0.180310  0.742710  0.215990  1.0
  Co  Co24  1  0.819690  0.742710  0.284010  1.0
  Co  Co25  1  0.123350  0.535610  0.871530  1.0
  Co  Co26  1  0.876650  0.535610  0.628470  1.0
  Co  Co27  1  0.623350  0.035610  0.871530  1.0
  Co  Co28  1  0.376650  0.035610  0.628470  1.0
  Co  Co29  1  0.876650  0.464390  0.128470  1.0
  Co  Co30  1  0.123350  0.464390  0.371530  1.0
  Co  Co31  1  0.376650  0.964390  0.128470  1.0
  Co  Co32  1  0.623350  0.964390  0.371530  1.0
  B  B33  1  0.885100  0.626100  0.796400  1
  B  B34  1  0.114900  0.626100  0.703600  1
  B  B35  1  0.385100  0.126100  0.796400  1
  B  B36  1  0.614900  0.126100  0.703600  1
  B  B37  1  0.114900  0.373900  0.203600  1
  B  B38  1  0.885100  0.373900  0.296400  1
  B  B39  1  0.614900  0.873900  0.203600  1
  B  B40  1  0.385100  0.873900  0.296400  1
  B  B41  1  0.628100  0.641300  0.554300  1
  B  B42  1  0.371900  0.641300  0.945700  1
  B  B43  1  0.128100  0.141300  0.554300  1
  B  B44  1  0.871900  0.141300  0.945700  1
  B  B45  1  0.371900  0.358700  0.445700  1
  B  B46  1  0.628100  0.358700  0.054300  1
  B  B47  1  0.871900  0.858700  0.445700  1
  B  B48  1  0.128100  0.858700  0.054300  1
  B  B49  1  0.639200  0.876600  0.544500  1
  B  B50  1  0.360800  0.876600  0.955500  1
  B  B51  1  0.139200  0.376600  0.544500  1
  B  B52  1  0.860800  0.376600  0.955500  1
  B  B53  1  0.360800  0.123400  0.455500  1
  B  B54  1  0.639200  0.123400  0.044500  1
  B  B55  1  0.860800  0.623400  0.455500  1
  B  B56  1  0.139200  0.623400  0.044500  1
  B  B57  1  0.377700  0.557600  0.451700  1
  B  B58  1  0.622300  0.557600  0.048300  1
  B  B59  1  0.877700  0.057600  0.451700  1
  B  B60  1  0.122300  0.057600  0.048300  1
  B  B61  1  0.622300  0.442400  0.548300  1
  B  B62  1  0.377700  0.442400  0.951700  1
  B  B63  1  0.122300  0.942400  0.548300  1
  B  B64  1  0.877700  0.942400  0.951700  1
  B  B65  1  0.598300  0.740300  0.354800  1
  B  B66  1  0.401700  0.740300  0.145200  1
  B  B67  1  0.098300  0.240300  0.354800  1
  B  B68  1  0.901700  0.240300  0.145200  1
  B  B69  1  0.401700  0.259700  0.645200  1
  B  B70  1  0.598300  0.259700  0.854800  1
  B  B71  1  0.901700  0.759700  0.645200  1
  B  B72  1  0.098300  0.759700  0.854800  1
  B  B73  1  0.055300  0.342400  0.860900  1
  B  B74  1  0.944700  0.342400  0.639100  1
  B  B75  1  0.555300  0.842400  0.860900  1
  B  B76  1  0.444700  0.842400  0.639100  1
  B  B77  1  0.944700  0.657600  0.139100  1
  B  B78  1  0.055300  0.657600  0.360900  1
  B  B79  1  0.444700  0.157600  0.139100  1
  B  B80  1  0.555300  0.157600  0.360900  1
  H  H81  1  0.993200  0.390600  0.812800  1
  H  H82  1  0.006800  0.390600  0.687200  1
  H  H83  1  0.493200  0.890600  0.812800  1
  H  H84  1  0.506800  0.890600  0.687200  1
  H  H85  1  0.006800  0.609400  0.187200  1
  H  H86  1  0.993200  0.609400  0.312800  1
  H  H87  1  0.506800  0.109400  0.187200  1
  H  H88  1  0.493200  0.109400  0.312800  1
  H  H89  1  0.944500  0.413900  0.811200  1
  H  H90  1  0.055500  0.413900  0.688800  1
  H  H91  1  0.444500  0.913900  0.811200  1
  H  H92  1  0.555500  0.913900  0.688800  1
  H  H93  1  0.055500  0.586100  0.188800  1
  H  H94  1  0.944500  0.586100  0.311200  1
  H  H95  1  0.555500  0.086100  0.188800  1
  H  H96  1  0.444500  0.086100  0.311200  1
  H  H97  1  0.991300  0.414700  0.763000  1
  H  H98  1  0.008700  0.414700  0.737000  1
  H  H99  1  0.491300  0.914700  0.763000  1
  H  H100  1  0.508700  0.914700  0.737000  1
  H  H101  1  0.008700  0.585300  0.237000  1
  H  H102  1  0.991300  0.585300  0.263000  1
  H  H103  1  0.508700  0.085300  0.237000  1
  H  H104  1  0.491300  0.085300  0.263000  1
  H  H105  1  0.435000  0.768600  0.658900  1
  H  H106  1  0.565000  0.768600  0.841100  1
  H  H107  1  0.935000  0.268600  0.658900  1
  H  H108  1  0.065000  0.268600  0.841100  1
  H  H109  1  0.565000  0.231400  0.341100  1
  H  H110  1  0.435000  0.231400  0.158900  1
  H  H111  1  0.065000  0.731400  0.341100  1
  H  H112  1  0.935000  0.731400  0.158900  1
  H  H113  1  0.469400  0.741000  0.682400  1
  H  H114  1  0.530600  0.741000  0.817600  1
  H  H115  1  0.969400  0.241000  0.682400  1
  H  H116  1  0.030600  0.241000  0.817600  1
  H  H117  1  0.530600  0.259000  0.317600  1
  H  H118  1  0.469400  0.259000  0.182400  1
  H  H119  1  0.030600  0.759000  0.317600  1
  H  H120  1  0.969400  0.759000  0.182400  1
  H  H121  1  0.379900  0.722600  0.641800  1
  H  H122  1  0.620100  0.722600  0.858200  1
  H  H123  1  0.879900  0.222600  0.641800  1
  H  H124  1  0.120100  0.222600  0.858200  1
  H  H125  1  0.620100  0.277400  0.358200  1
  H  H126  1  0.379900  0.277400  0.141800  1
  H  H127  1  0.120100  0.777400  0.358200  1
  H  H128  1  0.879900  0.777400  0.141800  1
  H  H129  1  0.527400  0.397800  0.205900  1
  H  H130  1  0.472600  0.397800  0.294100  1
  H  H131  1  0.027400  0.897800  0.205900  1
  H  H132  1  0.972600  0.897800  0.294100  1
  H  H133  1  0.472600  0.602200  0.794100  1
  H  H134  1  0.527400  0.602200  0.705900  1
  H  H135  1  0.972600  0.102200  0.794100  1
  H  H136  1  0.027400  0.102200  0.705900  1
  H  H137  1  0.571300  0.407600  0.189400  1
  H  H138  1  0.428700  0.407600  0.310600  1
  H  H139  1  0.071300  0.907600  0.189400  1
  H  H140  1  0.928700  0.907600  0.310600  1
  H  H141  1  0.428700  0.592400  0.810600  1
  H  H142  1  0.571300  0.592400  0.689400  1
  H  H143  1  0.928700  0.092400  0.810600  1
  H  H144  1  0.071300  0.092400  0.689400  1
  H  H145  1  0.561200  0.432300  0.245000  1
  H  H146  1  0.438800  0.432300  0.255000  1
  H  H147  1  0.061200  0.932300  0.245000  1
  H  H148  1  0.938800  0.932300  0.255000  1
  H  H149  1  0.438800  0.567700  0.755000  1
  H  H150  1  0.561200  0.567700  0.745000  1
  H  H151  1  0.938800  0.067700  0.755000  1
  H  H152  1  0.061200  0.067700  0.745000  1
  H  H153  1  0.826100  0.759600  0.096600  1
  H  H154  1  0.173900  0.759600  0.403400  1
  H  H155  1  0.326100  0.259600  0.096600  1
  H  H156  1  0.673900  0.259600  0.403400  1
  H  H157  1  0.173900  0.240400  0.903400  1
  H  H158  1  0.826100  0.240400  0.596600  1
  H  H159  1  0.673900  0.740400  0.903400  1
  H  H160  1  0.326100  0.740400  0.596600  1
  H  H161  1  0.785100  0.732500  0.077500  1
  H  H162  1  0.214900  0.732500  0.422500  1
  H  H163  1  0.285100  0.232500  0.077500  1
  H  H164  1  0.714900  0.232500  0.422500  1
  H  H165  1  0.214900  0.267500  0.922500  1
  H  H166  1  0.785100  0.267500  0.577500  1
  H  H167  1  0.714900  0.767500  0.922500  1
  H  H168  1  0.285100  0.767500  0.577500  1
  H  H169  1  0.775700  0.798600  0.072000  1
  H  H170  1  0.224300  0.798600  0.428000  1
  H  H171  1  0.275700  0.298600  0.072000  1
  H  H172  1  0.724300  0.298600  0.428000  1
  H  H173  1  0.224300  0.201400  0.928000  1
  H  H174  1  0.775700  0.201400  0.572000  1
  H  H175  1  0.724300  0.701400  0.928000  1
  H  H176  1  0.275700  0.701400  0.572000  1
  H  H177  1  0.648500  0.849500  0.127500  1.0
  H  H178  1  0.351500  0.849500  0.372500  1.0
  H  H179  1  0.148500  0.349500  0.127500  1.0
  H  H180  1  0.851500  0.349500  0.372500  1.0
  H  H181  1  0.351500  0.150500  0.872500  1.0
  H  H182  1  0.648500  0.150500  0.627500  1.0
  H  H183  1  0.851500  0.650500  0.872500  1.0
  H  H184  1  0.148500  0.650500  0.627500  1.0
  H  H185  1  0.727800  0.851200  0.060100  1.0
  H  H186  1  0.272200  0.851200  0.439900  1.0
  H  H187  1  0.227800  0.351200  0.060100  1.0
  H  H188  1  0.772200  0.351200  0.439900  1.0
  H  H189  1  0.272200  0.148800  0.939900  1.0
  H  H190  1  0.727800  0.148800  0.560100  1.0
  H  H191  1  0.772200  0.648800  0.939900  1.0
  H  H192  1  0.227800  0.648800  0.560100  1.0
  H  H193  1  0.676500  0.808100  0.030600  1.0
  H  H194  1  0.323500  0.808100  0.469400  1.0
  H  H195  1  0.176500  0.308100  0.030600  1.0
  H  H196  1  0.823500  0.308100  0.469400  1.0
  H  H197  1  0.323500  0.191900  0.969400  1.0
  H  H198  1  0.676500  0.191900  0.530600  1.0
  H  H199  1  0.823500  0.691900  0.969400  1.0
  H  H200  1  0.176500  0.691900  0.530600  1.0
  H  H201  1  0.702300  0.903000  0.112200  1.0
  H  H202  1  0.297700  0.903000  0.387800  1.0
  H  H203  1  0.202300  0.403000  0.112200  1.0
  H  H204  1  0.797700  0.403000  0.387800  1.0
  H  H205  1  0.297700  0.097000  0.887800  1.0
  H  H206  1  0.702300  0.097000  0.612200  1.0
  H  H207  1  0.797700  0.597000  0.887800  1.0
  H  H208  1  0.202300  0.597000  0.612200  1.0
  H  H209  1  0.731700  0.876900  0.139000  1.0
  H  H210  1  0.268300  0.876900  0.361000  1.0
  H  H211  1  0.231700  0.376900  0.139000  1.0
  H  H212  1  0.768300  0.376900  0.361000  1.0
  H  H213  1  0.268300  0.123100  0.861000  1.0
  H  H214  1  0.731700  0.123100  0.639000  1.0
  H  H215  1  0.768300  0.623100  0.861000  1.0
  H  H216  1  0.231700  0.623100  0.639000  1.0
  H  H217  1  0.776100  0.891000  0.097500  1.0
  H  H218  1  0.223900  0.891000  0.402500  1.0
  H  H219  1  0.276100  0.391000  0.097500  1.0
  H  H220  1  0.723900  0.391000  0.402500  1.0
  H  H221  1  0.223900  0.109000  0.902500  1.0
  H  H222  1  0.776100  0.109000  0.597500  1.0
  H  H223  1  0.723900  0.609000  0.902500  1.0
  H  H224  1  0.276100  0.609000  0.597500  1.0
  H  H225  1  0.573700  0.823600  0.142800  1.0
  H  H226  1  0.426300  0.823600  0.357200  1.0
  H  H227  1  0.073700  0.323600  0.142800  1.0
  H  H228  1  0.926300  0.323600  0.357200  1.0
  H  H229  1  0.426300  0.176400  0.857200  1.0
  H  H230  1  0.573700  0.176400  0.642800  1.0
  H  H231  1  0.926300  0.676400  0.857200  1.0
  H  H232  1  0.073700  0.676400  0.642800  1.0
  H  H233  1  0.500200  0.782700  0.135400  1.0
  H  H234  1  0.499800  0.782700  0.364600  1.0
  H  H235  1  0.000200  0.282700  0.135400  1.0
  H  H236  1  0.999800  0.282700  0.364600  1.0
  H  H237  1  0.499800  0.217300  0.864600  1.0
  H  H238  1  0.500200  0.217300  0.635400  1.0
  H  H239  1  0.999800  0.717300  0.864600  1.0
  H  H240  1  0.000200  0.717300  0.635400  1.0
  H  H241  1  0.486000  0.735400  0.057100  1.0
  H  H242  1  0.514000  0.735400  0.442900  1.0
  H  H243  1  0.986000  0.235400  0.057100  1.0
  H  H244  1  0.014000  0.235400  0.442900  1.0
  H  H245  1  0.514000  0.264600  0.942900  1.0
  H  H246  1  0.486000  0.264600  0.557100  1.0
  H  H247  1  0.014000  0.764600  0.942900  1.0
  H  H248  1  0.986000  0.764600  0.557100  1.0
  H  H249  1  0.456100  0.740100  0.084100  1.0
  H  H250  1  0.543900  0.740100  0.415900  1.0
  H  H251  1  0.956100  0.240100  0.084100  1.0
  H  H252  1  0.043900  0.240100  0.415900  1.0
  H  H253  1  0.543900  0.259900  0.915900  1.0
  H  H254  1  0.456100  0.259900  0.584100  1.0
  H  H255  1  0.043900  0.759900  0.915900  1.0
  H  H256  1  0.956100  0.759900  0.584100  1.0
  H  H257  1  0.356600  0.469100  0.020900  1.0
  H  H258  1  0.643400  0.469100  0.479100  1.0
  H  H259  1  0.856600  0.969100  0.020900  1.0
  H  H260  1  0.143400  0.969100  0.479100  1.0
  H  H261  1  0.643400  0.530900  0.979100  1.0
  H  H262  1  0.356600  0.530900  0.520900  1.0
  H  H263  1  0.143400  0.030900  0.979100  1.0
  H  H264  1  0.856600  0.030900  0.520900  1.0
  H  H265  1  0.261600  0.449800  0.076600  1.0
  H  H266  1  0.738400  0.449800  0.423400  1.0
  H  H267  1  0.761600  0.949800  0.076600  1.0
  H  H268  1  0.238400  0.949800  0.423400  1.0
  H  H269  1  0.738400  0.550200  0.923400  1.0
  H  H270  1  0.261600  0.550200  0.576600  1.0
  H  H271  1  0.238400  0.050200  0.923400  1.0
  H  H272  1  0.761600  0.050200  0.576600  1.0
  H  H273  1  0.305300  0.489200  0.115700  1.0
  H  H274  1  0.694700  0.489200  0.384300  1.0
  H  H275  1  0.805300  0.989200  0.115700  1.0
  H  H276  1  0.194700  0.989200  0.384300  1.0
  H  H277  1  0.694700  0.510800  0.884300  1.0
  H  H278  1  0.305300  0.510800  0.615700  1.0
  H  H279  1  0.194700  0.010800  0.884300  1.0
  H  H280  1  0.805300  0.010800  0.615700  1.0
  H  H281  1  0.253800  0.444500  0.001100  1.0
  H  H282  1  0.746200  0.444500  0.498900  1.0
  H  H283  1  0.753800  0.944500  0.001100  1.0
  H  H284  1  0.246200  0.944500  0.498900  1.0
  H  H285  1  0.746200  0.555500  0.998900  1.0
  H  H286  1  0.253800  0.555500  0.501100  1.0
  H  H287  1  0.246200  0.055500  0.998900  1.0
  H  H288  1  0.753800  0.055500  0.501100  1.0
  H  H289  1  0.300600  0.418900  0.010500  1.0
  H  H290  1  0.699400  0.418900  0.489500  1.0
  H  H291  1  0.800600  0.918900  0.010500  1.0
  H  H292  1  0.199400  0.918900  0.489500  1.0
  H  H293  1  0.699400  0.581100  0.989500  1.0
  H  H294  1  0.300600  0.581100  0.510500  1.0
  H  H295  1  0.199400  0.081100  0.989500  1.0
  H  H296  1  0.800600  0.081100  0.510500  1.0
  H  H297  1  0.215500  0.413700  0.026300  1.0
  H  H298  1  0.784500  0.413700  0.473700  1.0
  H  H299  1  0.715500  0.913700  0.026300  1.0
  H  H300  1  0.284500  0.913700  0.473700  1.0
  H  H301  1  0.784500  0.586300  0.973700  1.0
  H  H302  1  0.215500  0.586300  0.526300  1.0
  H  H303  1  0.284500  0.086300  0.973700  1.0
  H  H304  1  0.715500  0.086300  0.526300  1.0
  H  H305  1  0.434200  0.495100  0.018000  1.0
  H  H306  1  0.565800  0.495100  0.482000  1.0
  H  H307  1  0.934200  0.995100  0.018000  1.0
  H  H308  1  0.065800  0.995100  0.482000  1.0
  H  H309  1  0.565800  0.504900  0.982000  1.0
  H  H310  1  0.434200  0.504900  0.518000  1.0
  H  H311  1  0.065800  0.004900  0.982000  1.0
  H  H312  1  0.934200  0.004900  0.518000  1.0
  H  H313  1  0.508000  0.535900  0.036000  1.0
  H  H314  1  0.492000  0.535900  0.464000  1.0
  H  H315  1  0.008000  0.035900  0.036000  1.0
  H  H316  1  0.992000  0.035900  0.464000  1.0
  H  H317  1  0.492000  0.464100  0.964000  1.0
  H  H318  1  0.508000  0.464100  0.536000  1.0
  H  H319  1  0.992000  0.964100  0.964000  1.0
  H  H320  1  0.008000  0.964100  0.536000  1.0
  H  H321  1  0.544700  0.576300  0.087400  1.0
  H  H322  1  0.455300  0.576300  0.412600  1.0
  H  H323  1  0.044700  0.076300  0.087400  1.0
  H  H324  1  0.955300  0.076300  0.412600  1.0
  H  H325  1  0.455300  0.423700  0.912600  1.0
  H  H326  1  0.544700  0.423700  0.587400  1.0
  H  H327  1  0.955300  0.923700  0.912600  1.0
  H  H328  1  0.044700  0.923700  0.587400  1.0
  H  H329  1  0.517300  0.576200  0.116200  1.0
  H  H330  1  0.482700  0.576200  0.383800  1.0
  H  H331  1  0.017300  0.076200  0.116200  1.0
  H  H332  1  0.982700  0.076200  0.383800  1.0
  H  H333  1  0.482700  0.423800  0.883800  1.0
  H  H334  1  0.517300  0.423800  0.616200  1.0
  H  H335  1  0.982700  0.923800  0.883800  1.0
  H  H336  1  0.017300  0.923800  0.616200  1.0
  H  H337  1  0.572200  0.720500  0.131400  1.0
  H  H338  1  0.427800  0.720500  0.368600  1.0
  H  H339  1  0.072200  0.220500  0.131400  1.0
  H  H340  1  0.927800  0.220500  0.368600  1.0
  H  H341  1  0.427800  0.279500  0.868600  1.0
  H  H342  1  0.572200  0.279500  0.631400  1.0
  H  H343  1  0.927800  0.779500  0.868600  1.0
  H  H344  1  0.072200  0.779500  0.631400  1.0
  H  H345  1  0.608900  0.668100  0.149800  1.0
  H  H346  1  0.391100  0.668100  0.350200  1.0
  H  H347  1  0.108900  0.168100  0.149800  1.0
  H  H348  1  0.891100  0.168100  0.350200  1.0
  H  H349  1  0.391100  0.331900  0.850200  1.0
  H  H350  1  0.608900  0.331900  0.649800  1.0
  H  H351  1  0.891100  0.831900  0.850200  1.0
  H  H352  1  0.108900  0.831900  0.649800  1.0
  H  H353  1  0.569700  0.618000  0.126200  1.0
  H  H354  1  0.430300  0.618000  0.373800  1.0
  H  H355  1  0.069700  0.118000  0.126200  1.0
  H  H356  1  0.930300  0.118000  0.373800  1.0
  H  H357  1  0.430300  0.382000  0.873800  1.0
  H  H358  1  0.569700  0.382000  0.626200  1.0
  H  H359  1  0.930300  0.882000  0.873800  1.0
  H  H360  1  0.069700  0.882000  0.626200  1.0
  H  H361  1  0.427600  0.694500  0.050200  1.0
  H  H362  1  0.572400  0.694500  0.449800  1.0
  H  H363  1  0.927600  0.194500  0.050200  1.0
  H  H364  1  0.072400  0.194500  0.449800  1.0
  H  H365  1  0.572400  0.305500  0.949800  1.0
  H  H366  1  0.427600  0.305500  0.550200  1.0
  H  H367  1  0.072400  0.805500  0.949800  1.0
  H  H368  1  0.927600  0.805500  0.550200  1.0
  H  H369  1  0.388300  0.644300  0.026600  1.0
  H  H370  1  0.611700  0.644300  0.473400  1.0
  H  H371  1  0.888300  0.144300  0.026600  1.0
  H  H372  1  0.111700  0.144300  0.473400  1.0
  H  H373  1  0.611700  0.355700  0.973400  1.0
  H  H374  1  0.388300  0.355700  0.526600  1.0
  H  H375  1  0.111700  0.855700  0.973400  1.0
  H  H376  1  0.888300  0.855700  0.526600  1.0
  H  H377  1  0.425100  0.591900  0.045100  1.0
  H  H378  1  0.574900  0.591900  0.454900  1.0
  H  H379  1  0.925100  0.091900  0.045100  1.0
  H  H380  1  0.074900  0.091900  0.454900  1.0
  H  H381  1  0.574900  0.408100  0.954900  1.0
  H  H382  1  0.425100  0.408100  0.545100  1.0
  H  H383  1  0.074900  0.908100  0.954900  1.0
  H  H384  1  0.925100  0.908100  0.545100  1.0
  H  H385  1  0.652900  0.643700  0.084700  1.0
  H  H386  1  0.347100  0.643700  0.415300  1.0
  H  H387  1  0.152900  0.143700  0.084700  1.0
  H  H388  1  0.847100  0.143700  0.415300  1.0
  H  H389  1  0.347100  0.356300  0.915300  1.0
  H  H390  1  0.652900  0.356300  0.584700  1.0
  H  H391  1  0.847100  0.856300  0.915300  1.0
  H  H392  1  0.152900  0.856300  0.584700  1.0
  H  H393  1  0.743300  0.715900  0.139200  1.0
  H  H394  1  0.256700  0.715900  0.360800  1.0
  H  H395  1  0.243300  0.215900  0.139200  1.0
  H  H396  1  0.756700  0.215900  0.360800  1.0
  H  H397  1  0.256700  0.284100  0.860800  1.0
  H  H398  1  0.743300  0.284100  0.639200  1.0
  H  H399  1  0.756700  0.784100  0.860800  1.0
  H  H400  1  0.243300  0.784100  0.639200  1.0
  H  H401  1  0.693500  0.758000  0.106800  1.0
  H  H402  1  0.306500  0.758000  0.393200  1.0
  H  H403  1  0.193500  0.258000  0.106800  1.0
  H  H404  1  0.806500  0.258000  0.393200  1.0
  H  H405  1  0.306500  0.242000  0.893200  1.0
  H  H406  1  0.693500  0.242000  0.606800  1.0
  H  H407  1  0.806500  0.742000  0.893200  1.0
  H  H408  1  0.193500  0.742000  0.606800  1.0
  H  H409  1  0.715500  0.637900  0.151000  1.0
  H  H410  1  0.284500  0.637900  0.349000  1.0
  H  H411  1  0.215500  0.137900  0.151000  1.0
  H  H412  1  0.784500  0.137900  0.349000  1.0
  H  H413  1  0.284500  0.362100  0.849000  1.0
  H  H414  1  0.715500  0.362100  0.651000  1.0
  H  H415  1  0.784500  0.862100  0.849000  1.0
  H  H416  1  0.215500  0.862100  0.651000  1.0
  H  H417  1  0.742200  0.629800  0.122700  1.0
  H  H418  1  0.257800  0.629800  0.377300  1.0
  H  H419  1  0.242200  0.129800  0.122700  1.0
  H  H420  1  0.757800  0.129800  0.377300  1.0
  H  H421  1  0.257800  0.370200  0.877300  1.0
  H  H422  1  0.742200  0.370200  0.622700  1.0
  H  H423  1  0.757800  0.870200  0.877300  1.0
  H  H424  1  0.242200  0.870200  0.622700  1.0
  H  H425  1  0.798800  0.646500  0.160900  1.0
  H  H426  1  0.201200  0.646500  0.339100  1.0
  H  H427  1  0.298800  0.146500  0.160900  1.0
  H  H428  1  0.701200  0.146500  0.339100  1.0
  H  H429  1  0.201200  0.353500  0.839100  1.0
  H  H430  1  0.798800  0.353500  0.660900  1.0
  H  H431  1  0.701200  0.853500  0.839100  1.0
  H  H432  1  0.298800  0.853500  0.660900  1.0
  H  H433  1  0.584100  0.630800  0.042600  1.0
  H  H434  1  0.415900  0.630800  0.457400  1.0
  H  H435  1  0.084100  0.130800  0.042600  1.0
  H  H436  1  0.915900  0.130800  0.457400  1.0
  H  H437  1  0.415900  0.369200  0.957400  1.0
  H  H438  1  0.584100  0.369200  0.542600  1.0
  H  H439  1  0.915900  0.869200  0.957400  1.0
  H  H440  1  0.084100  0.869200  0.542600  1.0
  H  H441  1  0.501100  0.640800  0.998900  1.0
  H  H442  1  0.498900  0.640800  0.501100  1.0
  H  H443  1  0.001100  0.140800  0.998900  1.0
  H  H444  1  0.998900  0.140800  0.501100  1.0
  H  H445  1  0.498900  0.359200  0.001100  1.0
  H  H446  1  0.501100  0.359200  0.498900  1.0
  H  H447  1  0.998900  0.859200  0.001100  1.0
  H  H448  1  0.001100  0.859200  0.498900  1.0
  H  H449  1  0.477800  0.734900  0.998800  1.0
  H  H450  1  0.522200  0.734900  0.501200  1.0
  H  H451  1  0.977800  0.234900  0.998800  1.0
  H  H452  1  0.022200  0.234900  0.501200  1.0
  H  H453  1  0.522200  0.265100  0.001200  1.0
  H  H454  1  0.477800  0.265100  0.498800  1.0
  H  H455  1  0.022200  0.765100  0.001200  1.0
  H  H456  1  0.977800  0.765100  0.498800  1.0
  H  H457  1  0.445700  0.701800  0.984800  1.0
  H  H458  1  0.554300  0.701800  0.515200  1.0
  H  H459  1  0.945700  0.201800  0.984800  1.0
  H  H460  1  0.054300  0.201800  0.515200  1.0
  H  H461  1  0.554300  0.298200  0.015200  1.0
  H  H462  1  0.445700  0.298200  0.484800  1.0
  H  H463  1  0.054300  0.798200  0.015200  1.0
  H  H464  1  0.945700  0.798200  0.484800  1.0
  H  H465  1  0.271800  0.880600  0.768500  1.0
  H  H466  1  0.728200  0.880600  0.731500  1.0
  H  H467  1  0.771800  0.380600  0.768500  1.0
  H  H468  1  0.228200  0.380600  0.731500  1.0
  H  H469  1  0.728200  0.119400  0.231500  1.0
  H  H470  1  0.271800  0.119400  0.268500  1.0
  H  H471  1  0.228200  0.619400  0.231500  1.0
  H  H472  1  0.771800  0.619400  0.268500  1.0
  H  H473  1  0.169300  0.821100  0.705200  1.0
  H  H474  1  0.830700  0.821100  0.794800  1.0
  H  H475  1  0.669300  0.321100  0.705200  1.0
  H  H476  1  0.330700  0.321100  0.794800  1.0
  H  H477  1  0.830700  0.178900  0.294800  1.0
  H  H478  1  0.169300  0.178900  0.205200  1.0
  H  H479  1  0.330700  0.678900  0.294800  1.0
  H  H480  1  0.669300  0.678900  0.205200  1.0
  H  H481  1  0.216200  0.773000  0.727500  1.0
  H  H482  1  0.783800  0.773000  0.772500  1.0
  H  H483  1  0.716200  0.273000  0.727500  1.0
  H  H484  1  0.283800  0.273000  0.772500  1.0
  H  H485  1  0.783800  0.227000  0.272500  1.0
  H  H486  1  0.216200  0.227000  0.227500  1.0
  H  H487  1  0.283800  0.727000  0.272500  1.0
  H  H488  1  0.716200  0.727000  0.227500  1.0
  H  H489  1  0.174000  0.896900  0.739300  1.0
  H  H490  1  0.826000  0.896900  0.760700  1.0
  H  H491  1  0.674000  0.396900  0.739300  1.0
  H  H492  1  0.326000  0.396900  0.760700  1.0
  H  H493  1  0.826000  0.103100  0.260700  1.0
  H  H494  1  0.174000  0.103100  0.239300  1.0
  H  H495  1  0.326000  0.603100  0.260700  1.0
  H  H496  1  0.674000  0.603100  0.239300  1.0
  H  H497  1  0.206800  0.902600  0.714000  1.0
  H  H498  1  0.793200  0.902600  0.786000  1.0
  H  H499  1  0.706800  0.402600  0.714000  1.0
  H  H500  1  0.293200  0.402600  0.786000  1.0
  H  H501  1  0.793200  0.097400  0.286000  1.0
  H  H502  1  0.206800  0.097400  0.214000  1.0
  H  H503  1  0.293200  0.597400  0.286000  1.0
  H  H504  1  0.706800  0.597400  0.214000  1.0
  H  H505  1  0.149400  0.877200  0.676600  1.0
  H  H506  1  0.850600  0.877200  0.823400  1.0
  H  H507  1  0.649400  0.377200  0.676600  1.0
  H  H508  1  0.350600  0.377200  0.823400  1.0
  H  H509  1  0.850600  0.122800  0.323400  1.0
  H  H510  1  0.149400  0.122800  0.176600  1.0
  H  H511  1  0.350600  0.622800  0.323400  1.0
  H  H512  1  0.649400  0.622800  0.176600  1.0
  H  H513  1  0.356700  0.882700  0.809800  1.0
  H  H514  1  0.643300  0.882700  0.690200  1.0
  H  H515  1  0.856700  0.382700  0.809800  1.0
  H  H516  1  0.143300  0.382700  0.690200  1.0
  H  H517  1  0.643300  0.117300  0.190200  1.0
  H  H518  1  0.356700  0.117300  0.309800  1.0
  H  H519  1  0.143300  0.617300  0.190200  1.0
  H  H520  1  0.856700  0.617300  0.309800  1.0
  H  H521  1  0.435200  0.856100  0.848100  1.0
  H  H522  1  0.564800  0.856100  0.651900  1.0
  H  H523  1  0.935200  0.356100  0.848100  1.0
  H  H524  1  0.064800  0.356100  0.651900  1.0
  H  H525  1  0.564800  0.143900  0.151900  1.0
  H  H526  1  0.435200  0.143900  0.348100  1.0
  H  H527  1  0.064800  0.643900  0.151900  1.0
  H  H528  1  0.935200  0.643900  0.348100  1.0
  H  H529  1  0.474000  0.796100  0.855500  1.0
  H  H530  1  0.526000  0.796100  0.644500  1.0
  H  H531  1  0.974000  0.296100  0.855500  1.0
  H  H532  1  0.026000  0.296100  0.644500  1.0
  H  H533  1  0.526000  0.203900  0.144500  1.0
  H  H534  1  0.474000  0.203900  0.355500  1.0
  H  H535  1  0.026000  0.703900  0.144500  1.0
  H  H536  1  0.974000  0.703900  0.355500  1.0
  H  H537  1  0.440900  0.764500  0.838400  1.0
  H  H538  1  0.559100  0.764500  0.661600  1.0
  H  H539  1  0.940900  0.264500  0.838400  1.0
  H  H540  1  0.059100  0.264500  0.661600  1.0
  H  H541  1  0.559100  0.235500  0.161600  1.0
  H  H542  1  0.440900  0.235500  0.338400  1.0
  H  H543  1  0.059100  0.735500  0.161600  1.0
  H  H544  1  0.940900  0.735500  0.338400  1.0
  H  H545  1  0.544200  0.689100  0.958500  1.0
  H  H546  1  0.455800  0.689100  0.541500  1.0
  H  H547  1  0.044200  0.189100  0.958500  1.0
  H  H548  1  0.955800  0.189100  0.541500  1.0
  H  H549  1  0.455800  0.310900  0.041500  1.0
  H  H550  1  0.544200  0.310900  0.458500  1.0
  H  H551  1  0.955800  0.810900  0.041500  1.0
  H  H552  1  0.044200  0.810900  0.458500  1.0
  H  H553  1  0.558400  0.703300  0.908200  1.0
  H  H554  1  0.441600  0.703300  0.591800  1.0
  H  H555  1  0.058400  0.203300  0.908200  1.0
  H  H556  1  0.941600  0.203300  0.591800  1.0
  H  H557  1  0.441600  0.296700  0.091800  1.0
  H  H558  1  0.558400  0.296700  0.408200  1.0
  H  H559  1  0.941600  0.796700  0.091800  1.0
  H  H560  1  0.058400  0.796700  0.408200  1.0
  H  H561  1  0.506600  0.743100  0.873700  1.0
  H  H562  1  0.493400  0.743100  0.626300  1.0
  H  H563  1  0.006600  0.243100  0.873700  1.0
  H  H564  1  0.993400  0.243100  0.626300  1.0
  H  H565  1  0.493400  0.256900  0.126300  1.0
  H  H566  1  0.506600  0.256900  0.373700  1.0
  H  H567  1  0.993400  0.756900  0.126300  1.0
  H  H568  1  0.006600  0.756900  0.373700  1.0
  H  H569  1  0.408000  0.753700  0.963300  1.0
  H  H570  1  0.592000  0.753700  0.536700  1.0
  H  H571  1  0.908000  0.253700  0.963300  1.0
  H  H572  1  0.092000  0.253700  0.536700  1.0
  H  H573  1  0.592000  0.246300  0.036700  1.0
  H  H574  1  0.408000  0.246300  0.463300  1.0
  H  H575  1  0.092000  0.746300  0.036700  1.0
  H  H576  1  0.908000  0.746300  0.463300  1.0
  H  H577  1  0.356200  0.793600  0.928900  1.0
  H  H578  1  0.643800  0.793600  0.571100  1.0
  H  H579  1  0.856200  0.293600  0.928900  1.0
  H  H580  1  0.143800  0.293600  0.571100  1.0
  H  H581  1  0.643800  0.206400  0.071100  1.0
  H  H582  1  0.356200  0.206400  0.428900  1.0
  H  H583  1  0.143800  0.706400  0.071100  1.0
  H  H584  1  0.856200  0.706400  0.428900  1.0
  H  H585  1  0.370400  0.807800  0.878500  1.0
  H  H586  1  0.629600  0.807800  0.621500  1.0
  H  H587  1  0.870400  0.307800  0.878500  1.0
  H  H588  1  0.129600  0.307800  0.621500  1.0
  H  H589  1  0.629600  0.192200  0.121500  1.0
  H  H590  1  0.370400  0.192200  0.378500  1.0
  H  H591  1  0.129600  0.692200  0.121500  1.0
  H  H592  1  0.870400  0.692200  0.378500  1.0
  H  H593  1  0.434700  0.662500  0.150700  1.0
  H  H594  1  0.565300  0.662500  0.349300  1.0
  H  H595  1  0.934700  0.162500  0.150700  1.0
  H  H596  1  0.065300  0.162500  0.349300  1.0
  H  H597  1  0.565300  0.337500  0.849300  1.0
  H  H598  1  0.434700  0.337500  0.650700  1.0
  H  H599  1  0.065300  0.837500  0.849300  1.0
  H  H600  1  0.934700  0.837500  0.650700  1.0
  H  H601  1  0.547400  0.604100  0.206700  1.0
  H  H602  1  0.452600  0.604100  0.293300  1.0
  H  H603  1  0.047400  0.104100  0.206700  1.0
  H  H604  1  0.952600  0.104100  0.293300  1.0
  H  H605  1  0.452600  0.395900  0.793300  1.0
  H  H606  1  0.547400  0.395900  0.706700  1.0
  H  H607  1  0.952600  0.895900  0.793300  1.0
  H  H608  1  0.047400  0.895900  0.706700  1.0
  H  H609  1  0.505700  0.555500  0.181100  1.0
  H  H610  1  0.494300  0.555500  0.318900  1.0
  H  H611  1  0.005700  0.055500  0.181100  1.0
  H  H612  1  0.994300  0.055500  0.318900  1.0
  H  H613  1  0.494300  0.444500  0.818900  1.0
  H  H614  1  0.505700  0.444500  0.681100  1.0
  H  H615  1  0.994300  0.944500  0.818900  1.0
  H  H616  1  0.005700  0.944500  0.681100  1.0
  H  H617  1  0.520500  0.687300  0.180700  1.0
  H  H618  1  0.479500  0.687300  0.319300  1.0
  H  H619  1  0.020500  0.187300  0.180700  1.0
  H  H620  1  0.979500  0.187300  0.319300  1.0
  H  H621  1  0.479500  0.312700  0.819300  1.0
  H  H622  1  0.520500  0.312700  0.680700  1.0
  H  H623  1  0.979500  0.812700  0.819300  1.0
  H  H624  1  0.020500  0.812700  0.680700  1.0
  H  H625  1  0.504400  0.678600  0.213200  1.0
  H  H626  1  0.495600  0.678600  0.286800  1.0
  H  H627  1  0.004400  0.178600  0.213200  1.0
  H  H628  1  0.995600  0.178600  0.286800  1.0
  H  H629  1  0.495600  0.321400  0.786800  1.0
  H  H630  1  0.504400  0.321400  0.713200  1.0
  H  H631  1  0.995600  0.821400  0.786800  1.0
  H  H632  1  0.004400  0.821400  0.713200  1.0
  H  H633  1  0.579800  0.645800  0.210400  1.0
  H  H634  1  0.420200  0.645800  0.289600  1.0
  H  H635  1  0.079800  0.145800  0.210400  1.0
  H  H636  1  0.920200  0.145800  0.289600  1.0
  H  H637  1  0.420200  0.354200  0.789600  1.0
  H  H638  1  0.579800  0.354200  0.710400  1.0
  H  H639  1  0.920200  0.854200  0.789600  1.0
  H  H640  1  0.079800  0.854200  0.710400  1.0
  H  H641  1  0.353700  0.663100  0.112000  1.0
  H  H642  1  0.646300  0.663100  0.388000  1.0
  H  H643  1  0.853700  0.163100  0.112000  1.0
  H  H644  1  0.146300  0.163100  0.388000  1.0
  H  H645  1  0.646300  0.336900  0.888000  1.0
  H  H646  1  0.353700  0.336900  0.612000  1.0
  H  H647  1  0.146300  0.836900  0.888000  1.0
  H  H648  1  0.853700  0.836900  0.612000  1.0
  H  H649  1  0.273200  0.639800  0.072900  1.0
  H  H650  1  0.726800  0.639800  0.427100  1.0
  H  H651  1  0.773200  0.139800  0.072900  1.0
  H  H652  1  0.226800  0.139800  0.427100  1.0
  H  H653  1  0.726800  0.360200  0.927100  1.0
  H  H654  1  0.273200  0.360200  0.572900  1.0
  H  H655  1  0.226800  0.860200  0.927100  1.0
  H  H656  1  0.773200  0.860200  0.572900  1.0
  H  H657  1  0.238300  0.574700  0.065100  1.0
  H  H658  1  0.761700  0.574700  0.434900  1.0
  H  H659  1  0.738300  0.074700  0.065100  1.0
  H  H660  1  0.261700  0.074700  0.434900  1.0
  H  H661  1  0.761700  0.425300  0.934900  1.0
  H  H662  1  0.238300  0.425300  0.565100  1.0
  H  H663  1  0.261700  0.925300  0.934900  1.0
  H  H664  1  0.738300  0.925300  0.565100  1.0
  H  H665  1  0.278400  0.546100  0.081500  1.0
  H  H666  1  0.721600  0.546100  0.418500  1.0
  H  H667  1  0.778400  0.046100  0.081500  1.0
  H  H668  1  0.221600  0.046100  0.418500  1.0
  H  H669  1  0.721600  0.453900  0.918500  1.0
  H  H670  1  0.278400  0.453900  0.581500  1.0
  H  H671  1  0.221600  0.953900  0.918500  1.0
  H  H672  1  0.778400  0.953900  0.581500  1.0
  H  H673  1  0.070200  0.414000  0.843300  1.0
  H  H674  1  0.929800  0.414000  0.656700  1.0
  H  H675  1  0.570200  0.914000  0.843300  1.0
  H  H676  1  0.429800  0.914000  0.656700  1.0
  H  H677  1  0.929800  0.586000  0.156700  1.0
  H  H678  1  0.070200  0.586000  0.343300  1.0
  H  H679  1  0.429800  0.086000  0.156700  1.0
  H  H680  1  0.570200  0.086000  0.343300  1.0
  H  H681  1  0.959300  0.478300  0.795200  1.0
  H  H682  1  0.040700  0.478300  0.704800  1.0
  H  H683  1  0.459300  0.978300  0.795200  1.0
  H  H684  1  0.540700  0.978300  0.704800  1.0
  H  H685  1  0.040700  0.521700  0.204800  1.0
  H  H686  1  0.959300  0.521700  0.295200  1.0
  H  H687  1  0.540700  0.021700  0.204800  1.0
  H  H688  1  0.459300  0.021700  0.295200  1.0
  H  H689  1  0.009200  0.524400  0.819600  1.0
  H  H690  1  0.990800  0.524400  0.680400  1.0
  H  H691  1  0.509200  0.024400  0.819600  1.0
  H  H692  1  0.490800  0.024400  0.680400  1.0
  H  H693  1  0.990800  0.475600  0.180400  1.0
  H  H694  1  0.009200  0.475600  0.319600  1.0
  H  H695  1  0.490800  0.975600  0.180400  1.0
  H  H696  1  0.509200  0.975600  0.319600  1.0
  H  H697  1  0.987300  0.401600  0.784900  1.0
  H  H698  1  0.012700  0.401600  0.715100  1.0
  H  H699  1  0.487300  0.901600  0.784900  1.0
  H  H700  1  0.512700  0.901600  0.715100  1.0
  H  H701  1  0.012700  0.598400  0.215100  1.0
  H  H702  1  0.987300  0.598400  0.284900  1.0
  H  H703  1  0.512700  0.098400  0.215100  1.0
  H  H704  1  0.487300  0.098400  0.284900  1.0
  H  H705  1  0.978900  0.394800  0.820400  1.0
  H  H706  1  0.021100  0.394800  0.679600  1.0
  H  H707  1  0.478900  0.894800  0.820400  1.0
  H  H708  1  0.521100  0.894800  0.679600  1.0
  H  H709  1  0.021100  0.605200  0.179600  1.0
  H  H710  1  0.978900  0.605200  0.320400  1.0
  H  H711  1  0.521100  0.105200  0.179600  1.0
  H  H712  1  0.478900  0.105200  0.320400  1.0
  H  H713  1  0.924900  0.442500  0.780000  1.0
  H  H714  1  0.075100  0.442500  0.720000  1.0
  H  H715  1  0.424900  0.942500  0.780000  1.0
  H  H716  1  0.575100  0.942500  0.720000  1.0
  H  H717  1  0.075100  0.557500  0.220000  1.0
  H  H718  1  0.924900  0.557500  0.280000  1.0
  H  H719  1  0.575100  0.057500  0.220000  1.0
  H  H720  1  0.424900  0.057500  0.280000  1.0
  H  H721  1  0.155600  0.404900  0.881200  1.0
  H  H722  1  0.844400  0.404900  0.618800  1.0
  H  H723  1  0.655600  0.904900  0.881200  1.0
  H  H724  1  0.344400  0.904900  0.618800  1.0
  H  H725  1  0.844400  0.595100  0.118800  1.0
  H  H726  1  0.155600  0.595100  0.381200  1.0
  H  H727  1  0.344400  0.095100  0.118800  1.0
  H  H728  1  0.655600  0.095100  0.381200  1.0
  H  H729  1  0.237400  0.426300  0.920400  1.0
  H  H730  1  0.762600  0.426300  0.579600  1.0
  H  H731  1  0.737400  0.926300  0.920400  1.0
  H  H732  1  0.262600  0.926300  0.579600  1.0
  H  H733  1  0.762600  0.573700  0.079600  1.0
  H  H734  1  0.237400  0.573700  0.420400  1.0
  H  H735  1  0.262600  0.073700  0.079600  1.0
  H  H736  1  0.737400  0.073700  0.420400  1.0
  H  H737  1  0.276500  0.487900  0.935700  1.0
  H  H738  1  0.723500  0.487900  0.564300  1.0
  H  H739  1  0.776500  0.987900  0.935700  1.0
  H  H740  1  0.223500  0.987900  0.564300  1.0
  H  H741  1  0.723500  0.512100  0.064300  1.0
  H  H742  1  0.276500  0.512100  0.435700  1.0
  H  H743  1  0.223500  0.012100  0.064300  1.0
  H  H744  1  0.776500  0.012100  0.435700  1.0
  H  H745  1  0.243600  0.519600  0.918100  1.0
  H  H746  1  0.756400  0.519600  0.581900  1.0
  H  H747  1  0.743600  0.019600  0.918100  1.0
  H  H748  1  0.256400  0.019600  0.581900  1.0
  H  H749  1  0.756400  0.480400  0.081900  1.0
  H  H750  1  0.243600  0.480400  0.418100  1.0
  H  H751  1  0.256400  0.980400  0.081900  1.0
  H  H752  1  0.743600  0.980400  0.418100  1.0
  H  H753  1  0.342700  0.587900  0.042600  1.0
  H  H754  1  0.657300  0.587900  0.457400  1.0
  H  H755  1  0.842700  0.087900  0.042600  1.0
  H  H756  1  0.157300  0.087900  0.457400  1.0
  H  H757  1  0.657300  0.412100  0.957400  1.0
  H  H758  1  0.342700  0.412100  0.542600  1.0
  H  H759  1  0.157300  0.912100  0.957400  1.0
  H  H760  1  0.842700  0.912100  0.542600  1.0
  H  H761  1  0.362000  0.575100  0.993500  1.0
  H  H762  1  0.638000  0.575100  0.506500  1.0
  H  H763  1  0.862000  0.075100  0.993500  1.0
  H  H764  1  0.138000  0.075100  0.506500  1.0
  H  H765  1  0.638000  0.424900  0.006500  1.0
  H  H766  1  0.362000  0.424900  0.493500  1.0
  H  H767  1  0.138000  0.924900  0.006500  1.0
  H  H768  1  0.862000  0.924900  0.493500  1.0
  H  H769  1  0.310600  0.537700  0.955700  1.0
  H  H770  1  0.689400  0.537700  0.544300  1.0
  H  H771  1  0.810600  0.037700  0.955700  1.0
  H  H772  1  0.189400  0.037700  0.544300  1.0
  H  H773  1  0.689400  0.462300  0.044300  1.0
  H  H774  1  0.310600  0.462300  0.455700  1.0
  H  H775  1  0.189400  0.962300  0.044300  1.0
  H  H776  1  0.810600  0.962300  0.455700  1.0
  H  H777  1  0.199500  0.526400  0.038100  1.0
  H  H778  1  0.800500  0.526400  0.461900  1.0
  H  H779  1  0.699500  0.026400  0.038100  1.0
  H  H780  1  0.300500  0.026400  0.461900  1.0
  H  H781  1  0.800500  0.473600  0.961900  1.0
  H  H782  1  0.199500  0.473600  0.538100  1.0
  H  H783  1  0.300500  0.973600  0.961900  1.0
  H  H784  1  0.699500  0.973600  0.538100  1.0
  H  H785  1  0.148100  0.489000  0.000200  1.0
  H  H786  1  0.851900  0.489000  0.499800  1.0
  H  H787  1  0.648100  0.989000  0.000200  1.0
  H  H788  1  0.351900  0.989000  0.499800  1.0
  H  H789  1  0.851900  0.511000  0.999800  1.0
  H  H790  1  0.148100  0.511000  0.500200  1.0
  H  H791  1  0.351900  0.011000  0.999800  1.0
  H  H792  1  0.648100  0.011000  0.500200  1.0
  H  H793  1  0.167500  0.476300  0.951100  1.0
  H  H794  1  0.832500  0.476300  0.548900  1.0
  H  H795  1  0.667500  0.976300  0.951100  1.0
  H  H796  1  0.332500  0.976300  0.548900  1.0
  H  H797  1  0.832500  0.523700  0.048900  1.0
  H  H798  1  0.167500  0.523700  0.451100  1.0
  H  H799  1  0.332500  0.023700  0.048900  1.0
  H  H800  1  0.667500  0.023700  0.451100  1.0
  H  H801  1  0.108500  0.581800  0.978000  1.0
  H  H802  1  0.891500  0.581800  0.522000  1.0
  H  H803  1  0.608500  0.081800  0.978000  1.0
  H  H804  1  0.391500  0.081800  0.522000  1.0
  H  H805  1  0.891500  0.418200  0.022000  1.0
  H  H806  1  0.108500  0.418200  0.478000  1.0
  H  H807  1  0.391500  0.918200  0.022000  1.0
  H  H808  1  0.608500  0.918200  0.478000  1.0
  H  H809  1  0.000100  0.511300  0.941800  1.0
  H  H810  1  0.999900  0.511300  0.558200  1.0
  H  H811  1  0.500100  0.011300  0.941800  1.0
  H  H812  1  0.499900  0.011300  0.558200  1.0
  H  H813  1  0.999900  0.488700  0.058200  1.0
  H  H814  1  0.000100  0.488700  0.441800  1.0
  H  H815  1  0.499900  0.988700  0.058200  1.0
  H  H816  1  0.500100  0.988700  0.441800  1.0
  H  H817  1  0.031800  0.503200  0.896600  1.0
  H  H818  1  0.968200  0.503200  0.603400  1.0
  H  H819  1  0.531800  0.003200  0.896600  1.0
  H  H820  1  0.468200  0.003200  0.603400  1.0
  H  H821  1  0.968200  0.496800  0.103400  1.0
  H  H822  1  0.031800  0.496800  0.396600  1.0
  H  H823  1  0.468200  0.996800  0.103400  1.0
  H  H824  1  0.531800  0.996800  0.396600  1.0
  H  H825  1  0.058900  0.546200  0.014400  1.0
  H  H826  1  0.941100  0.546200  0.485600  1.0
  H  H827  1  0.558900  0.046200  0.014400  1.0
  H  H828  1  0.441100  0.046200  0.485600  1.0
  H  H829  1  0.941100  0.453800  0.985600  1.0
  H  H830  1  0.058900  0.453800  0.514400  1.0
  H  H831  1  0.441100  0.953800  0.985600  1.0
  H  H832  1  0.558900  0.953800  0.514400  1.0
  H  H833  1  0.022300  0.575900  0.996000  1.0
  H  H834  1  0.977700  0.575900  0.504000  1.0
  H  H835  1  0.522300  0.075900  0.996000  1.0
  H  H836  1  0.477700  0.075900  0.504000  1.0
  H  H837  1  0.977700  0.424100  0.004000  1.0
  H  H838  1  0.022300  0.424100  0.496000  1.0
  H  H839  1  0.477700  0.924100  0.004000  1.0
  H  H840  1  0.522300  0.924100  0.496000  1.0
  H  H841  1  0.000800  0.515100  0.004900  1.0
  H  H842  1  0.999200  0.515100  0.495100  1.0
  H  H843  1  0.500800  0.015100  0.004900  1.0
  H  H844  1  0.499200  0.015100  0.495100  1.0
  H  H845  1  0.999200  0.484900  0.995100  1.0
  H  H846  1  0.000800  0.484900  0.504900  1.0
  H  H847  1  0.499200  0.984900  0.995100  1.0
  H  H848  1  0.500800  0.984900  0.504900  1.0
  H  H849  1  0.186300  0.609000  0.974700  1.0
  H  H850  1  0.813700  0.609000  0.525300  1.0
  H  H851  1  0.686300  0.109000  0.974700  1.0
  H  H852  1  0.313700  0.109000  0.525300  1.0
  H  H853  1  0.813700  0.391000  0.025300  1.0
  H  H854  1  0.186300  0.391000  0.474700  1.0
  H  H855  1  0.313700  0.891000  0.025300  1.0
  H  H856  1  0.686300  0.891000  0.474700  1.0
  H  H857  1  0.254700  0.623000  0.947200  1.0
  H  H858  1  0.745300  0.623000  0.552800  1.0
  H  H859  1  0.754700  0.123000  0.947200  1.0
  H  H860  1  0.245300  0.123000  0.552800  1.0
  H  H861  1  0.745300  0.377000  0.052800  1.0
  H  H862  1  0.254700  0.377000  0.447200  1.0
  H  H863  1  0.245300  0.877000  0.052800  1.0
  H  H864  1  0.754700  0.877000  0.447200  1.0
  H  H865  1  0.239300  0.573800  0.872700  1.0
  H  H866  1  0.760700  0.573800  0.627300  1.0
  H  H867  1  0.739300  0.073800  0.872700  1.0
  H  H868  1  0.260700  0.073800  0.627300  1.0
  H  H869  1  0.760700  0.426200  0.127300  1.0
  H  H870  1  0.239300  0.426200  0.372700  1.0
  H  H871  1  0.260700  0.926200  0.127300  1.0
  H  H872  1  0.739300  0.926200  0.372700  1.0
  H  H873  1  0.276700  0.599800  0.896300  1.0
  H  H874  1  0.723300  0.599800  0.603700  1.0
  H  H875  1  0.776700  0.099800  0.896300  1.0
  H  H876  1  0.223300  0.099800  0.603700  1.0
  H  H877  1  0.723300  0.400200  0.103700  1.0
  H  H878  1  0.276700  0.400200  0.396300  1.0
  H  H879  1  0.223300  0.900200  0.103700  1.0
  H  H880  1  0.776700  0.900200  0.396300  1.0
  H  H881  1  0.347000  0.722700  0.676200  1.0
  H  H882  1  0.653000  0.722700  0.823800  1.0
  H  H883  1  0.847000  0.222700  0.676200  1.0
  H  H884  1  0.153000  0.222700  0.823800  1.0
  H  H885  1  0.653000  0.277300  0.323800  1.0
  H  H886  1  0.347000  0.277300  0.176200  1.0
  H  H887  1  0.153000  0.777300  0.323800  1.0
  H  H888  1  0.847000  0.777300  0.176200  1.0
  H  H889  1  0.458700  0.786100  0.725100  1.0
  H  H890  1  0.541300  0.786100  0.774900  1.0
  H  H891  1  0.958700  0.286100  0.725100  1.0
  H  H892  1  0.041300  0.286100  0.774900  1.0
  H  H893  1  0.541300  0.213900  0.274900  1.0
  H  H894  1  0.458700  0.213900  0.225100  1.0
  H  H895  1  0.041300  0.713900  0.274900  1.0
  H  H896  1  0.958700  0.713900  0.225100  1.0
  H  H897  1  0.420400  0.790600  0.767800  1.0
  H  H898  1  0.579600  0.790600  0.732200  1.0
  H  H899  1  0.920400  0.290600  0.767800  1.0
  H  H900  1  0.079600  0.290600  0.732200  1.0
  H  H901  1  0.579600  0.209400  0.232200  1.0
  H  H902  1  0.420400  0.209400  0.267800  1.0
  H  H903  1  0.079600  0.709400  0.232200  1.0
  H  H904  1  0.920400  0.709400  0.267800  1.0
  H  H905  1  0.436700  0.724700  0.666200  1.0
  H  H906  1  0.563300  0.724700  0.833800  1.0
  H  H907  1  0.936700  0.224700  0.666200  1.0
  H  H908  1  0.063300  0.224700  0.833800  1.0
  H  H909  1  0.563300  0.275300  0.333800  1.0
  H  H910  1  0.436700  0.275300  0.166200  1.0
  H  H911  1  0.063300  0.775300  0.333800  1.0
  H  H912  1  0.936700  0.775300  0.166200  1.0
  H  H913  1  0.414800  0.760400  0.649800  1.0
  H  H914  1  0.585200  0.760400  0.850200  1.0
  H  H915  1  0.914800  0.260400  0.649800  1.0
  H  H916  1  0.085200  0.260400  0.850200  1.0
  H  H917  1  0.585200  0.239600  0.350200  1.0
  H  H918  1  0.414800  0.239600  0.149800  1.0
  H  H919  1  0.085200  0.739600  0.350200  1.0
  H  H920  1  0.914800  0.739600  0.149800  1.0
  H  H921  1  0.479100  0.785500  0.686400  1.0
  H  H922  1  0.520900  0.785500  0.813600  1.0
  H  H923  1  0.979100  0.285500  0.686400  1.0
  H  H924  1  0.020900  0.285500  0.813600  1.0
  H  H925  1  0.520900  0.214500  0.313600  1.0
  H  H926  1  0.479100  0.214500  0.186400  1.0
  H  H927  1  0.020900  0.714500  0.313600  1.0
  H  H928  1  0.979100  0.714500  0.186400  1.0
  H  H929  1  0.278300  0.692000  0.674000  1.0
  H  H930  1  0.721700  0.692000  0.826000  1.0
  H  H931  1  0.778300  0.192000  0.674000  1.0
  H  H932  1  0.221700  0.192000  0.826000  1.0
  H  H933  1  0.721700  0.308000  0.326000  1.0
  H  H934  1  0.278300  0.308000  0.174000  1.0
  H  H935  1  0.221700  0.808000  0.326000  1.0
  H  H936  1  0.778300  0.808000  0.174000  1.0
  H  H937  1  0.206700  0.669800  0.695000  1.0
  H  H938  1  0.793300  0.669800  0.805000  1.0
  H  H939  1  0.706700  0.169800  0.695000  1.0
  H  H940  1  0.293300  0.169800  0.805000  1.0
  H  H941  1  0.793300  0.330200  0.305000  1.0
  H  H942  1  0.206700  0.330200  0.195000  1.0
  H  H943  1  0.293300  0.830200  0.305000  1.0
  H  H944  1  0.706700  0.830200  0.195000  1.0
  H  H945  1  0.180900  0.686000  0.754900  1.0
  H  H946  1  0.819100  0.686000  0.745100  1.0
  H  H947  1  0.680900  0.186000  0.754900  1.0
  H  H948  1  0.319100  0.186000  0.745100  1.0
  H  H949  1  0.819100  0.314000  0.245100  1.0
  H  H950  1  0.180900  0.314000  0.254900  1.0
  H  H951  1  0.319100  0.814000  0.245100  1.0
  H  H952  1  0.680900  0.814000  0.254900  1.0
  H  H953  1  0.218000  0.713100  0.777300  1.0
  H  H954  1  0.782000  0.713100  0.722700  1.0
  H  H955  1  0.718000  0.213100  0.777300  1.0
  H  H956  1  0.282000  0.213100  0.722700  1.0
  H  H957  1  0.782000  0.286900  0.222700  1.0
  H  H958  1  0.218000  0.286900  0.277300  1.0
  H  H959  1  0.282000  0.786900  0.222700  1.0
  H  H960  1  0.718000  0.786900  0.277300  1.0
  H  H961  1  0.166000  0.634900  0.881600  1.0
  H  H962  1  0.834000  0.634900  0.618400  1.0
  H  H963  1  0.666000  0.134900  0.881600  1.0
  H  H964  1  0.334000  0.134900  0.618400  1.0
  H  H965  1  0.834000  0.365100  0.118400  1.0
  H  H966  1  0.166000  0.365100  0.381600  1.0
  H  H967  1  0.334000  0.865100  0.118400  1.0
  H  H968  1  0.666000  0.865100  0.381600  1.0
  H  H969  1  0.129700  0.678100  0.844600  1.0
  H  H970  1  0.870300  0.678100  0.655400  1.0
  H  H971  1  0.629700  0.178100  0.844600  1.0
  H  H972  1  0.370300  0.178100  0.655400  1.0
  H  H973  1  0.870300  0.321900  0.155400  1.0
  H  H974  1  0.129700  0.321900  0.344600  1.0
  H  H975  1  0.370300  0.821900  0.155400  1.0
  H  H976  1  0.629700  0.821900  0.344600  1.0
  H  H977  1  0.164100  0.691700  0.801600  1.0
  H  H978  1  0.835900  0.691700  0.698400  1.0
  H  H979  1  0.664100  0.191700  0.801600  1.0
  H  H980  1  0.335900  0.191700  0.698400  1.0
  H  H981  1  0.835900  0.308300  0.198400  1.0
  H  H982  1  0.164100  0.308300  0.301600  1.0
  H  H983  1  0.335900  0.808300  0.198400  1.0
  H  H984  1  0.664100  0.808300  0.301600  1.0
  H  H985  1  0.298900  0.596100  0.846400  1.0
  H  H986  1  0.701100  0.596100  0.653600  1.0
  H  H987  1  0.798900  0.096100  0.846400  1.0
  H  H988  1  0.201100  0.096100  0.653600  1.0
  H  H989  1  0.701100  0.403900  0.153600  1.0
  H  H990  1  0.298900  0.403900  0.346400  1.0
  H  H991  1  0.201100  0.903900  0.153600  1.0
  H  H992  1  0.798900  0.903900  0.346400  1.0
  H  H993  1  0.333333  0.609700  0.803400  1.0
  H  H994  1  0.666667  0.609700  0.696600  1.0
  H  H995  1  0.833333  0.109700  0.803400  1.0
  H  H996  1  0.166667  0.109700  0.696600  1.0
  H  H997  1  0.666667  0.390300  0.196600  1.0
  H  H998  1  0.333333  0.390300  0.303400  1.0
  H  H999  1  0.166667  0.890300  0.196600  1.0
  H  H1000  1  0.833333  0.890300  0.303400  1.0
  H  H1001  1  0.297100  0.652900  0.766400  1.0
  H  H1002  1  0.702900  0.652900  0.733600  1.0
  H  H1003  1  0.797100  0.152900  0.766400  1.0
  H  H1004  1  0.202900  0.152900  0.733600  1.0
  H  H1005  1  0.702900  0.347100  0.233600  1.0
  H  H1006  1  0.297100  0.347100  0.266400  1.0
  H  H1007  1  0.202900  0.847100  0.233600  1.0
  H  H1008  1  0.797100  0.847100  0.266400  1.0
  H  H1009  1  0.468800  0.449200  0.212900  1.0
  H  H1010  1  0.531200  0.449200  0.287100  1.0
  H  H1011  1  0.968800  0.949200  0.212900  1.0
  H  H1012  1  0.031200  0.949200  0.287100  1.0
  H  H1013  1  0.531200  0.550800  0.787100  1.0
  H  H1014  1  0.468800  0.550800  0.712900  1.0
  H  H1015  1  0.031200  0.050800  0.787100  1.0
  H  H1016  1  0.968800  0.050800  0.712900  1.0
  H  H1017  1  0.553900  0.451600  0.148800  1.0
  H  H1018  1  0.446100  0.451600  0.351200  1.0
  H  H1019  1  0.053900  0.951600  0.148800  1.0
  H  H1020  1  0.946100  0.951600  0.351200  1.0
  H  H1021  1  0.446100  0.548400  0.851200  1.0
  H  H1022  1  0.553900  0.548400  0.648800  1.0
  H  H1023  1  0.946100  0.048400  0.851200  1.0
  H  H1024  1  0.053900  0.048400  0.648800  1.0
  H  H1025  1  0.503700  0.495600  0.119900  1.0
  H  H1026  1  0.496300  0.495600  0.380100  1.0
  H  H1027  1  0.003700  0.995600  0.119900  1.0
  H  H1028  1  0.996300  0.995600  0.380100  1.0
  H  H1029  1  0.496300  0.504400  0.880100  1.0
  H  H1030  1  0.503700  0.504400  0.619900  1.0
  H  H1031  1  0.996300  0.004400  0.880100  1.0
  H  H1032  1  0.003700  0.004400  0.619900  1.0
  H  H1033  1  0.540100  0.395000  0.190000  1.0
  H  H1034  1  0.459900  0.395000  0.310000  1.0
  H  H1035  1  0.040100  0.895000  0.190000  1.0
  H  H1036  1  0.959900  0.895000  0.310000  1.0
  H  H1037  1  0.459900  0.605000  0.810000  1.0
  H  H1038  1  0.540100  0.605000  0.690000  1.0
  H  H1039  1  0.959900  0.105000  0.810000  1.0
  H  H1040  1  0.040100  0.105000  0.690000  1.0
  H  H1041  1  0.585400  0.421000  0.205400  1.0
  H  H1042  1  0.414600  0.421000  0.294600  1.0
  H  H1043  1  0.085400  0.921000  0.205400  1.0
  H  H1044  1  0.914600  0.921000  0.294600  1.0
  H  H1045  1  0.414600  0.579000  0.794600  1.0
  H  H1046  1  0.585400  0.579000  0.705400  1.0
  H  H1047  1  0.914600  0.079000  0.794600  1.0
  H  H1048  1  0.085400  0.079000  0.705400  1.0
  H  H1049  1  0.510300  0.407200  0.230800  1.0
  H  H1050  1  0.489700  0.407200  0.269200  1.0
  H  H1051  1  0.010300  0.907200  0.230800  1.0
  H  H1052  1  0.989700  0.907200  0.269200  1.0
  H  H1053  1  0.489700  0.592800  0.769200  1.0
  H  H1054  1  0.510300  0.592800  0.730800  1.0
  H  H1055  1  0.989700  0.092800  0.769200  1.0
  H  H1056  1  0.010300  0.092800  0.730800  1.0
  H  H1057  1  0.402700  0.475500  0.228400  1.0
  H  H1058  1  0.597300  0.475500  0.271600  1.0
  H  H1059  1  0.902700  0.975500  0.228400  1.0
  H  H1060  1  0.097300  0.975500  0.271600  1.0
  H  H1061  1  0.597300  0.524500  0.771600  1.0
  H  H1062  1  0.402700  0.524500  0.728400  1.0
  H  H1063  1  0.097300  0.024500  0.771600  1.0
  H  H1064  1  0.902700  0.024500  0.728400  1.0
  H  H1065  1  0.324800  0.511800  0.222900  1.0
  H  H1066  1  0.675200  0.511800  0.277100  1.0
  H  H1067  1  0.824800  0.011800  0.222900  1.0
  H  H1068  1  0.175200  0.011800  0.277100  1.0
  H  H1069  1  0.675200  0.488200  0.777100  1.0
  H  H1070  1  0.324800  0.488200  0.722900  1.0
  H  H1071  1  0.175200  0.988200  0.777100  1.0
  H  H1072  1  0.824800  0.988200  0.722900  1.0
  H  H1073  1  0.271200  0.554800  0.171500  1.0
  H  H1074  1  0.728800  0.554800  0.328500  1.0
  H  H1075  1  0.771200  0.054800  0.171500  1.0
  H  H1076  1  0.228800  0.054800  0.328500  1.0
  H  H1077  1  0.728800  0.445200  0.828500  1.0
  H  H1078  1  0.271200  0.445200  0.671500  1.0
  H  H1079  1  0.228800  0.945200  0.828500  1.0
  H  H1080  1  0.771200  0.945200  0.671500  1.0
  H  H1081  1  0.296900  0.559800  0.142400  1.0
  H  H1082  1  0.703100  0.559800  0.357600  1.0
  H  H1083  1  0.796900  0.059800  0.142400  1.0
  H  H1084  1  0.203100  0.059800  0.357600  1.0
  H  H1085  1  0.703100  0.440200  0.857600  1.0
  H  H1086  1  0.296900  0.440200  0.642400  1.0
  H  H1087  1  0.203100  0.940200  0.857600  1.0
  H  H1088  1  0.796900  0.940200  0.642400  1.0
  H  H1089  1  0.128900  0.820400  0.119000  1.0
  H  H1090  1  0.871100  0.820400  0.381000  1.0
  H  H1091  1  0.628900  0.320400  0.119000  1.0
  H  H1092  1  0.371100  0.320400  0.381000  1.0
  H  H1093  1  0.871100  0.179600  0.881000  1.0
  H  H1094  1  0.128900  0.179600  0.619000  1.0
  H  H1095  1  0.371100  0.679600  0.881000  1.0
  H  H1096  1  0.628900  0.679600  0.619000  1.0
  H  H1097  1  0.040500  0.833000  0.180200  1.0
  H  H1098  1  0.959500  0.833000  0.319800  1.0
  H  H1099  1  0.540500  0.333000  0.180200  1.0
  H  H1100  1  0.459500  0.333000  0.319800  1.0
  H  H1101  1  0.959500  0.167000  0.819800  1.0
  H  H1102  1  0.040500  0.167000  0.680200  1.0
  H  H1103  1  0.459500  0.667000  0.819800  1.0
  H  H1104  1  0.540500  0.667000  0.680200  1.0
  H  H1105  1  0.088300  0.792500  0.216000  1.0
  H  H1106  1  0.911700  0.792500  0.284000  1.0
  H  H1107  1  0.588300  0.292500  0.216000  1.0
  H  H1108  1  0.411700  0.292500  0.284000  1.0
  H  H1109  1  0.911700  0.207500  0.784000  1.0
  H  H1110  1  0.088300  0.207500  0.716000  1.0
  H  H1111  1  0.411700  0.707500  0.784000  1.0
  H  H1112  1  0.588300  0.707500  0.716000  1.0
  H  H1113  1  0.033500  0.848300  0.100600  1.0
  H  H1114  1  0.966500  0.848300  0.399400  1.0
  H  H1115  1  0.533500  0.348300  0.100600  1.0
  H  H1116  1  0.466500  0.348300  0.399400  1.0
  H  H1117  1  0.966500  0.151700  0.899400  1.0
  H  H1118  1  0.033500  0.151700  0.600600  1.0
  H  H1119  1  0.466500  0.651700  0.899400  1.0
  H  H1120  1  0.533500  0.651700  0.600600  1.0
  H  H1121  1  0.072000  0.876700  0.119900  1.0
  H  H1122  1  0.928000  0.876700  0.380100  1.0
  H  H1123  1  0.572000  0.376700  0.119900  1.0
  H  H1124  1  0.428000  0.376700  0.380100  1.0
  H  H1125  1  0.928000  0.123300  0.880100  1.0
  H  H1126  1  0.072000  0.123300  0.619900  1.0
  H  H1127  1  0.428000  0.623300  0.880100  1.0
  H  H1128  1  0.572000  0.623300  0.619900  1.0
  H  H1129  1  0.985300  0.875100  0.119000  1.0
  H  H1130  1  0.014700  0.875100  0.381000  1.0
  H  H1131  1  0.485300  0.375100  0.119000  1.0
  H  H1132  1  0.514700  0.375100  0.381000  1.0
  H  H1133  1  0.014700  0.124900  0.881000  1.0
  H  H1134  1  0.985300  0.124900  0.619000  1.0
  H  H1135  1  0.514700  0.624900  0.881000  1.0
  H  H1136  1  0.485300  0.624900  0.619000  1.0
  H  H1137  1  0.202300  0.794500  0.110500  1.0
  H  H1138  1  0.797700  0.794500  0.389500  1.0
  H  H1139  1  0.702300  0.294500  0.110500  1.0
  H  H1140  1  0.297700  0.294500  0.389500  1.0
  H  H1141  1  0.797700  0.205500  0.889500  1.0
  H  H1142  1  0.202300  0.205500  0.610500  1.0
  H  H1143  1  0.297700  0.705500  0.889500  1.0
  H  H1144  1  0.702300  0.705500  0.610500  1.0
  H  H1145  1  0.281900  0.758500  0.126300  1.0
  H  H1146  1  0.718100  0.758500  0.373700  1.0
  H  H1147  1  0.781900  0.258500  0.126300  1.0
  H  H1148  1  0.218100  0.258500  0.373700  1.0
  H  H1149  1  0.718100  0.241500  0.873700  1.0
  H  H1150  1  0.281900  0.241500  0.626300  1.0
  H  H1151  1  0.218100  0.741500  0.873700  1.0
  H  H1152  1  0.781900  0.741500  0.626300  1.0
  H  H1153  1  0.296000  0.718000  0.208600  1.0
  H  H1154  1  0.704000  0.718000  0.291400  1.0
  H  H1155  1  0.796000  0.218000  0.208600  1.0
  H  H1156  1  0.204000  0.218000  0.291400  1.0
  H  H1157  1  0.704000  0.282000  0.791400  1.0
  H  H1158  1  0.296000  0.282000  0.708600  1.0
  H  H1159  1  0.204000  0.782000  0.791400  1.0
  H  H1160  1  0.796000  0.782000  0.708600  1.0
  H  H1161  1  0.328200  0.722800  0.182800  1.0
  H  H1162  1  0.671800  0.722800  0.317200  1.0
  H  H1163  1  0.828200  0.222800  0.182800  1.0
  H  H1164  1  0.171800  0.222800  0.317200  1.0
  H  H1165  1  0.671800  0.277200  0.817200  1.0
  H  H1166  1  0.328200  0.277200  0.682800  1.0
  H  H1167  1  0.171800  0.777200  0.817200  1.0
  H  H1168  1  0.828200  0.777200  0.682800  1.0
  H  H1169  1  0.389400  0.578300  0.211400  1.0
  H  H1170  1  0.610600  0.578300  0.288600  1.0
  H  H1171  1  0.889400  0.078300  0.211400  1.0
  H  H1172  1  0.110600  0.078300  0.288600  1.0
  H  H1173  1  0.610600  0.421700  0.788600  1.0
  H  H1174  1  0.389400  0.421700  0.711400  1.0
  H  H1175  1  0.110600  0.921700  0.788600  1.0
  H  H1176  1  0.889400  0.921700  0.711400  1.0
  H  H1177  1  0.416400  0.631900  0.232800  1.0
  H  H1178  1  0.583600  0.631900  0.267200  1.0
  H  H1179  1  0.916400  0.131900  0.232800  1.0
  H  H1180  1  0.083600  0.131900  0.267200  1.0
  H  H1181  1  0.583600  0.368100  0.767200  1.0
  H  H1182  1  0.416400  0.368100  0.732800  1.0
  H  H1183  1  0.083600  0.868100  0.767200  1.0
  H  H1184  1  0.916400  0.868100  0.732800  1.0
  H  H1185  1  0.365500  0.679400  0.214400  1.0
  H  H1186  1  0.634500  0.679400  0.285600  1.0
  H  H1187  1  0.865500  0.179400  0.214400  1.0
  H  H1188  1  0.134500  0.179400  0.285600  1.0
  H  H1189  1  0.634500  0.320600  0.785600  1.0
  H  H1190  1  0.365500  0.320600  0.714400  1.0
  H  H1191  1  0.134500  0.820600  0.785600  1.0
  H  H1192  1  0.865500  0.820600  0.714400  1.0
  H  H1193  1  0.235100  0.596800  0.136800  1.0
  H  H1194  1  0.764900  0.596800  0.363200  1.0
  H  H1195  1  0.735100  0.096800  0.136800  1.0
  H  H1196  1  0.264900  0.096800  0.363200  1.0
  H  H1197  1  0.764900  0.403200  0.863200  1.0
  H  H1198  1  0.235100  0.403200  0.636800  1.0
  H  H1199  1  0.264900  0.903200  0.863200  1.0
  H  H1200  1  0.735100  0.903200  0.636800  1.0
  H  H1201  1  0.184200  0.644300  0.118300  1.0
  H  H1202  1  0.815800  0.644300  0.381700  1.0
  H  H1203  1  0.684200  0.144300  0.118300  1.0
  H  H1204  1  0.315800  0.144300  0.381700  1.0
  H  H1205  1  0.815800  0.355700  0.881700  1.0
  H  H1206  1  0.184200  0.355700  0.618300  1.0
  H  H1207  1  0.315800  0.855700  0.881700  1.0
  H  H1208  1  0.684200  0.855700  0.618300  1.0
  H  H1209  1  0.211200  0.697900  0.139800  1.0
  H  H1210  1  0.788800  0.697900  0.360200  1.0
  H  H1211  1  0.711200  0.197900  0.139800  1.0
  H  H1212  1  0.288800  0.197900  0.360200  1.0
  H  H1213  1  0.788800  0.302100  0.860200  1.0
  H  H1214  1  0.211200  0.302100  0.639800  1.0
  H  H1215  1  0.288800  0.802100  0.860200  1.0
  H  H1216  1  0.711200  0.802100  0.639800  1.0
  H  H1217  1  0.146100  0.587200  0.768600  1.0
  H  H1218  1  0.853900  0.587200  0.731400  1.0
  H  H1219  1  0.646100  0.087200  0.768600  1.0
  H  H1220  1  0.353900  0.087200  0.731400  1.0
  H  H1221  1  0.853900  0.412800  0.231400  1.0
  H  H1222  1  0.146100  0.412800  0.268600  1.0
  H  H1223  1  0.353900  0.912800  0.231400  1.0
  H  H1224  1  0.646100  0.912800  0.268600  1.0
  H  H1225  1  0.249600  0.513300  0.802900  1.0
  H  H1226  1  0.750400  0.513300  0.697100  1.0
  H  H1227  1  0.749600  0.013300  0.802900  1.0
  H  H1228  1  0.250400  0.013300  0.697100  1.0
  H  H1229  1  0.750400  0.486700  0.197100  1.0
  H  H1230  1  0.249600  0.486700  0.302900  1.0
  H  H1231  1  0.250400  0.986700  0.197100  1.0
  H  H1232  1  0.749600  0.986700  0.302900  1.0
  H  H1233  1  0.214400  0.503200  0.846300  1.0
  H  H1234  1  0.785600  0.503200  0.653700  1.0
  H  H1235  1  0.714400  0.003200  0.846300  1.0
  H  H1236  1  0.285600  0.003200  0.653700  1.0
  H  H1237  1  0.785600  0.496800  0.153700  1.0
  H  H1238  1  0.214400  0.496800  0.346300  1.0
  H  H1239  1  0.285600  0.996800  0.153700  1.0
  H  H1240  1  0.714400  0.996800  0.346300  1.0
  H  H1241  1  0.197600  0.555200  0.731200  1.0
  H  H1242  1  0.802400  0.555200  0.768800  1.0
  H  H1243  1  0.697600  0.055200  0.731200  1.0
  H  H1244  1  0.302400  0.055200  0.768800  1.0
  H  H1245  1  0.802400  0.444800  0.268800  1.0
  H  H1246  1  0.197600  0.444800  0.231200  1.0
  H  H1247  1  0.302400  0.944800  0.268800  1.0
  H  H1248  1  0.697600  0.944800  0.231200  1.0
  H  H1249  1  0.236900  0.581500  0.753500  1.0
  H  H1250  1  0.763100  0.581500  0.746500  1.0
  H  H1251  1  0.736900  0.081500  0.753500  1.0
  H  H1252  1  0.263100  0.081500  0.746500  1.0
  H  H1253  1  0.763100  0.418500  0.246500  1.0
  H  H1254  1  0.236900  0.418500  0.253500  1.0
  H  H1255  1  0.263100  0.918500  0.246500  1.0
  H  H1256  1  0.736900  0.918500  0.253500  1.0
  H  H1257  1  0.290300  0.543200  0.766200  1.0
  H  H1258  1  0.709700  0.543200  0.733800  1.0
  H  H1259  1  0.790300  0.043200  0.766200  1.0
  H  H1260  1  0.209700  0.043200  0.733800  1.0
  H  H1261  1  0.709700  0.456800  0.233800  1.0
  H  H1262  1  0.290300  0.456800  0.266200  1.0
  H  H1263  1  0.209700  0.956800  0.233800  1.0
  H  H1264  1  0.790300  0.956800  0.266200  1.0
  H  H1265  1  0.067800  0.613800  0.772200  1.0
  H  H1266  1  0.932200  0.613800  0.727800  1.0
  H  H1267  1  0.567800  0.113800  0.772200  1.0
  H  H1268  1  0.432200  0.113800  0.727800  1.0
  H  H1269  1  0.932200  0.386200  0.227800  1.0
  H  H1270  1  0.067800  0.386200  0.272200  1.0
  H  H1271  1  0.432200  0.886200  0.227800  1.0
  H  H1272  1  0.567800  0.886200  0.272200  1.0
  H  H1273  1  0.998100  0.626700  0.798900  1.0
  H  H1274  1  0.001900  0.626700  0.701100  1.0
  H  H1275  1  0.498100  0.126700  0.798900  1.0
  H  H1276  1  0.501900  0.126700  0.701100  1.0
  H  H1277  1  0.001900  0.373300  0.201100  1.0
  H  H1278  1  0.998100  0.373300  0.298900  1.0
  H  H1279  1  0.501900  0.873300  0.201100  1.0
  H  H1280  1  0.498100  0.873300  0.298900  1.0
  H  H1281  1  0.015200  0.573200  0.874000  1.0
  H  H1282  1  0.984800  0.573200  0.626000  1.0
  H  H1283  1  0.515200  0.073200  0.874000  1.0
  H  H1284  1  0.484800  0.073200  0.626000  1.0
  H  H1285  1  0.984800  0.426800  0.126000  1.0
  H  H1286  1  0.015200  0.426800  0.374000  1.0
  H  H1287  1  0.484800  0.926800  0.126000  1.0
  H  H1288  1  0.515200  0.926800  0.374000  1.0
  H  H1289  1  0.974500  0.598500  0.852000  1.0
  H  H1290  1  0.025500  0.598500  0.648000  1.0
  H  H1291  1  0.474500  0.098500  0.852000  1.0
  H  H1292  1  0.525500  0.098500  0.648000  1.0
  H  H1293  1  0.025500  0.401500  0.148000  1.0
  H  H1294  1  0.974500  0.401500  0.352000  1.0
  H  H1295  1  0.525500  0.901500  0.148000  1.0
  H  H1296  1  0.474500  0.901500  0.352000  1.0
  H  H1297  1  0.880700  0.719500  0.069400  1.0
  H  H1298  1  0.119300  0.719500  0.430600  1.0
  H  H1299  1  0.380700  0.219500  0.069400  1.0
  H  H1300  1  0.619300  0.219500  0.430600  1.0
  H  H1301  1  0.119300  0.280500  0.930600  1.0
  H  H1302  1  0.880700  0.280500  0.569400  1.0
  H  H1303  1  0.619300  0.780500  0.930600  1.0
  H  H1304  1  0.380700  0.780500  0.569400  1.0
  H  H1305  1  0.779000  0.787000  0.016700  1.0
  H  H1306  1  0.221000  0.787000  0.483300  1.0
  H  H1307  1  0.279000  0.287000  0.016700  1.0
  H  H1308  1  0.721000  0.287000  0.483300  1.0
  H  H1309  1  0.221000  0.213000  0.983300  1.0
  H  H1310  1  0.779000  0.213000  0.516700  1.0
  H  H1311  1  0.721000  0.713000  0.983300  1.0
  H  H1312  1  0.279000  0.713000  0.516700  1.0
  H  H1313  1  0.816500  0.783300  0.973600  1.0
  H  H1314  1  0.183500  0.783300  0.526400  1.0
  H  H1315  1  0.316500  0.283300  0.973600  1.0
  H  H1316  1  0.683500  0.283300  0.526400  1.0
  H  H1317  1  0.183500  0.216700  0.026400  1.0
  H  H1318  1  0.816500  0.216700  0.473600  1.0
  H  H1319  1  0.683500  0.716700  0.026400  1.0
  H  H1320  1  0.316500  0.716700  0.473600  1.0
  H  H1321  1  0.767600  0.742600  0.068200  1.0
  H  H1322  1  0.232400  0.742600  0.431800  1.0
  H  H1323  1  0.267600  0.242600  0.068200  1.0
  H  H1324  1  0.732400  0.242600  0.431800  1.0
  H  H1325  1  0.232400  0.257400  0.931800  1.0
  H  H1326  1  0.767600  0.257400  0.568200  1.0
  H  H1327  1  0.732400  0.757400  0.931800  1.0
  H  H1328  1  0.267600  0.757400  0.568200  1.0
  H  H1329  1  0.791300  0.779200  0.078300  1.0
  H  H1330  1  0.208700  0.779200  0.421700  1.0
  H  H1331  1  0.291300  0.279200  0.078300  1.0
  H  H1332  1  0.708700  0.279200  0.421700  1.0
  H  H1333  1  0.208700  0.220800  0.921700  1.0
  H  H1334  1  0.791300  0.220800  0.578300  1.0
  H  H1335  1  0.708700  0.720800  0.921700  1.0
  H  H1336  1  0.291300  0.720800  0.578300  1.0
  H  H1337  1  0.854000  0.753600  0.112400  1.0
  H  H1338  1  0.146000  0.753600  0.387600  1.0
  H  H1339  1  0.354000  0.253600  0.112400  1.0
  H  H1340  1  0.646000  0.253600  0.387600  1.0
  H  H1341  1  0.146000  0.246400  0.887600  1.0
  H  H1342  1  0.854000  0.246400  0.612400  1.0
  H  H1343  1  0.646000  0.746400  0.887600  1.0
  H  H1344  1  0.354000  0.746400  0.612400  1.0
  H  H1345  1  0.957400  0.682900  0.072100  1.0
  H  H1346  1  0.042600  0.682900  0.427900  1.0
  H  H1347  1  0.457400  0.182900  0.072100  1.0
  H  H1348  1  0.542600  0.182900  0.427900  1.0
  H  H1349  1  0.042600  0.317100  0.927900  1.0
  H  H1350  1  0.957400  0.317100  0.572100  1.0
  H  H1351  1  0.542600  0.817100  0.927900  1.0
  H  H1352  1  0.457400  0.817100  0.572100  1.0
  H  H1353  1  0.026400  0.659600  0.049100  1.0
  H  H1354  1  0.973600  0.659600  0.450900  1.0
  H  H1355  1  0.526400  0.159600  0.049100  1.0
  H  H1356  1  0.473600  0.159600  0.450900  1.0
  H  H1357  1  0.973600  0.340400  0.950900  1.0
  H  H1358  1  0.026400  0.340400  0.549100  1.0
  H  H1359  1  0.473600  0.840400  0.950900  1.0
  H  H1360  1  0.526400  0.840400  0.549100  1.0
  H  H1361  1  0.059400  0.680200  0.998800  1.0
  H  H1362  1  0.940600  0.680200  0.501200  1.0
  H  H1363  1  0.559400  0.180200  0.998800  1.0
  H  H1364  1  0.440600  0.180200  0.501200  1.0
  H  H1365  1  0.940600  0.319800  0.001200  1.0
  H  H1366  1  0.059400  0.319800  0.498800  1.0
  H  H1367  1  0.440600  0.819800  0.001200  1.0
  H  H1368  1  0.559400  0.819800  0.498800  1.0
  H  H1369  1  0.025200  0.706900  0.973900  1.0
  H  H1370  1  0.974800  0.706900  0.526100  1.0
  H  H1371  1  0.525200  0.206900  0.973900  1.0
  H  H1372  1  0.474800  0.206900  0.526100  1.0
  H  H1373  1  0.974800  0.293100  0.026100  1.0
  H  H1374  1  0.025200  0.293100  0.473900  1.0
  H  H1375  1  0.474800  0.793100  0.026100  1.0
  H  H1376  1  0.525200  0.793100  0.473900  1.0
  H  H1377  1  0.082700  0.637800  0.866300  1.0
  H  H1378  1  0.917300  0.637800  0.633700  1.0
  H  H1379  1  0.582700  0.137800  0.866300  1.0
  H  H1380  1  0.417300  0.137800  0.633700  1.0
  H  H1381  1  0.917300  0.362200  0.133700  1.0
  H  H1382  1  0.082700  0.362200  0.366300  1.0
  H  H1383  1  0.417300  0.862200  0.133700  1.0
  H  H1384  1  0.582700  0.862200  0.366300  1.0
  H  H1385  1  0.114800  0.680300  0.905100  1.0
  H  H1386  1  0.885200  0.680300  0.594900  1.0
  H  H1387  1  0.614800  0.180300  0.905100  1.0
  H  H1388  1  0.385200  0.180300  0.594900  1.0
  H  H1389  1  0.885200  0.319700  0.094900  1.0
  H  H1390  1  0.114800  0.319700  0.405100  1.0
  H  H1391  1  0.385200  0.819700  0.094900  1.0
  H  H1392  1  0.614800  0.819700  0.405100  1.0
  H  H1393  1  0.079100  0.689200  0.948500  1.0
  H  H1394  1  0.920900  0.689200  0.551500  1.0
  H  H1395  1  0.579100  0.189200  0.948500  1.0
  H  H1396  1  0.420900  0.189200  0.551500  1.0
  H  H1397  1  0.920900  0.310800  0.051500  1.0
  H  H1398  1  0.079100  0.310800  0.448500  1.0
  H  H1399  1  0.420900  0.810800  0.051500  1.0
  H  H1400  1  0.579100  0.810800  0.448500  1.0
  H  H1401  1  0.953700  0.589600  0.899600  1.0
  H  H1402  1  0.046300  0.589600  0.600400  1.0
  H  H1403  1  0.453700  0.089600  0.899600  1.0
  H  H1404  1  0.546300  0.089600  0.600400  1.0
  H  H1405  1  0.046300  0.410400  0.100400  1.0
  H  H1406  1  0.953700  0.410400  0.399600  1.0
  H  H1407  1  0.546300  0.910400  0.100400  1.0
  H  H1408  1  0.453700  0.910400  0.399600  1.0
  H  H1409  1  0.918000  0.598500  0.943000  1.0
  H  H1410  1  0.082000  0.598500  0.557000  1.0
  H  H1411  1  0.418000  0.098500  0.943000  1.0
  H  H1412  1  0.582000  0.098500  0.557000  1.0
  H  H1413  1  0.082000  0.401500  0.057000  1.0
  H  H1414  1  0.918000  0.401500  0.443000  1.0
  H  H1415  1  0.582000  0.901500  0.057000  1.0
  H  H1416  1  0.418000  0.901500  0.443000  1.0
  H  H1417  1  0.950100  0.641000  0.981700  1.0
  H  H1418  1  0.049900  0.641000  0.518300  1.0
  H  H1419  1  0.450100  0.141000  0.981700  1.0
  H  H1420  1  0.549900  0.141000  0.518300  1.0
  H  H1421  1  0.049900  0.359000  0.018300  1.0
  H  H1422  1  0.950100  0.359000  0.481700  1.0
  H  H1423  1  0.549900  0.859000  0.018300  1.0
  H  H1424  1  0.450100  0.859000  0.481700  1.0
  C  C1425  1  0.843000  0.731900  0.536600  1
  C  C1426  1  0.157000  0.731900  0.963400  1
  C  C1427  1  0.343000  0.231900  0.536600  1
  C  C1428  1  0.657000  0.231900  0.963400  1
  C  C1429  1  0.157000  0.268100  0.463400  1
  C  C1430  1  0.843000  0.268100  0.036600  1
  C  C1431  1  0.657000  0.768100  0.463400  1
  C  C1432  1  0.343000  0.768100  0.036600  1
  C  C1433  1  0.975900  0.412100  0.804200  1
  C  C1434  1  0.024100  0.412100  0.695800  1
  C  C1435  1  0.475900  0.912100  0.804200  1
  C  C1436  1  0.524100  0.912100  0.695800  1
  C  C1437  1  0.024100  0.587900  0.195800  1
  C  C1438  1  0.975900  0.587900  0.304200  1
  C  C1439  1  0.524100  0.087900  0.195800  1
  C  C1440  1  0.475900  0.087900  0.304200  1
  C  C1441  1  0.434000  0.747300  0.671000  1
  C  C1442  1  0.566000  0.747300  0.829000  1
  C  C1443  1  0.934000  0.247300  0.671000  1
  C  C1444  1  0.066000  0.247300  0.829000  1
  C  C1445  1  0.566000  0.252700  0.329000  1
  C  C1446  1  0.434000  0.252700  0.171000  1
  C  C1447  1  0.066000  0.752700  0.329000  1
  C  C1448  1  0.934000  0.752700  0.171000  1
  C  C1449  1  0.623600  0.815500  0.090300  1.0
  C  C1450  1  0.376400  0.815500  0.409700  1.0
  C  C1451  1  0.123600  0.315500  0.090300  1.0
  C  C1452  1  0.876400  0.315500  0.409700  1.0
  C  C1453  1  0.376400  0.184500  0.909700  1.0
  C  C1454  1  0.623600  0.184500  0.590300  1.0
  C  C1455  1  0.876400  0.684500  0.909700  1.0
  C  C1456  1  0.123600  0.684500  0.590300  1.0
  C  C1457  1  0.654100  0.841100  0.107900  1.0
  C  C1458  1  0.345900  0.841100  0.392100  1.0
  C  C1459  1  0.154100  0.341100  0.107900  1.0
  C  C1460  1  0.845900  0.341100  0.392100  1.0
  C  C1461  1  0.345900  0.158900  0.892100  1.0
  C  C1462  1  0.654100  0.158900  0.607900  1.0
  C  C1463  1  0.845900  0.658900  0.892100  1.0
  C  C1464  1  0.154100  0.658900  0.607900  1.0
  C  C1465  1  0.693000  0.854500  0.096600  1.0
  C  C1466  1  0.307000  0.854500  0.403400  1.0
  C  C1467  1  0.193000  0.354500  0.096600  1.0
  C  C1468  1  0.807000  0.354500  0.403400  1.0
  C  C1469  1  0.307000  0.145500  0.903400  1.0
  C  C1470  1  0.693000  0.145500  0.596600  1.0
  C  C1471  1  0.807000  0.645500  0.903400  1.0
  C  C1472  1  0.193000  0.645500  0.596600  1.0
  C  C1473  1  0.701300  0.842100  0.067800  1.0
  C  C1474  1  0.298700  0.842100  0.432200  1.0
  C  C1475  1  0.201300  0.342100  0.067800  1.0
  C  C1476  1  0.798700  0.342100  0.432200  1.0
  C  C1477  1  0.298700  0.157900  0.932200  1.0
  C  C1478  1  0.701300  0.157900  0.567800  1.0
  C  C1479  1  0.798700  0.657900  0.932200  1.0
  C  C1480  1  0.201300  0.657900  0.567800  1.0
  C  C1481  1  0.670800  0.816500  0.050300  1.0
  C  C1482  1  0.329200  0.816500  0.449700  1.0
  C  C1483  1  0.170800  0.316500  0.050300  1.0
  C  C1484  1  0.829200  0.316500  0.449700  1.0
  C  C1485  1  0.329200  0.183500  0.949700  1.0
  C  C1486  1  0.670800  0.183500  0.550300  1.0
  C  C1487  1  0.829200  0.683500  0.949700  1.0
  C  C1488  1  0.170800  0.683500  0.550300  1.0
  C  C1489  1  0.725800  0.883400  0.115700  1.0
  C  C1490  1  0.274200  0.883400  0.384300  1.0
  C  C1491  1  0.225800  0.383400  0.115700  1.0
  C  C1492  1  0.774200  0.383400  0.384300  1.0
  C  C1493  1  0.274200  0.116600  0.884300  1.0
  C  C1494  1  0.725800  0.116600  0.615700  1.0
  C  C1495  1  0.774200  0.616600  0.884300  1.0
  C  C1496  1  0.225800  0.616600  0.615700  1.0
  C  C1497  1  0.585900  0.801300  0.100000  1.0
  C  C1498  1  0.414100  0.801300  0.400000  1.0
  C  C1499  1  0.085900  0.301300  0.100000  1.0
  C  C1500  1  0.914100  0.301300  0.400000  1.0
  C  C1501  1  0.414100  0.198700  0.900000  1.0
  C  C1502  1  0.585900  0.198700  0.600000  1.0
  C  C1503  1  0.914100  0.698700  0.900000  1.0
  C  C1504  1  0.085900  0.698700  0.600000  1.0
  C  C1505  1  0.563200  0.807200  0.125700  1.0
  C  C1506  1  0.436800  0.807200  0.374300  1.0
  C  C1507  1  0.063200  0.307200  0.125700  1.0
  C  C1508  1  0.936800  0.307200  0.374300  1.0
  C  C1509  1  0.436800  0.192800  0.874300  1.0
  C  C1510  1  0.563200  0.192800  0.625700  1.0
  C  C1511  1  0.936800  0.692800  0.874300  1.0
  C  C1512  1  0.063200  0.692800  0.625700  1.0
  C  C1513  1  0.522000  0.784400  0.121600  1.0
  C  C1514  1  0.478000  0.784400  0.378400  1.0
  C  C1515  1  0.022000  0.284400  0.121600  1.0
  C  C1516  1  0.978000  0.284400  0.378400  1.0
  C  C1517  1  0.478000  0.215600  0.878400  1.0
  C  C1518  1  0.522000  0.215600  0.621600  1.0
  C  C1519  1  0.978000  0.715600  0.878400  1.0
  C  C1520  1  0.022000  0.715600  0.621600  1.0
  C  C1521  1  0.490100  0.736600  0.081000  1.0
  C  C1522  1  0.509900  0.736600  0.419000  1.0
  C  C1523  1  0.990100  0.236600  0.081000  1.0
  C  C1524  1  0.009900  0.236600  0.419000  1.0
  C  C1525  1  0.509900  0.263400  0.919000  1.0
  C  C1526  1  0.490100  0.263400  0.581000  1.0
  C  C1527  1  0.009900  0.763400  0.919000  1.0
  C  C1528  1  0.990100  0.763400  0.581000  1.0
  C  C1529  1  0.372100  0.496600  0.063300  1.0
  C  C1530  1  0.627900  0.496600  0.436700  1.0
  C  C1531  1  0.872100  0.996600  0.063300  1.0
  C  C1532  1  0.127900  0.996600  0.436700  1.0
  C  C1533  1  0.627900  0.503400  0.936700  1.0
  C  C1534  1  0.372100  0.503400  0.563300  1.0
  C  C1535  1  0.127900  0.003400  0.936700  1.0
  C  C1536  1  0.872100  0.003400  0.563300  1.0
  C  C1537  1  0.346200  0.473200  0.040100  1.0
  C  C1538  1  0.653800  0.473200  0.459900  1.0
  C  C1539  1  0.846200  0.973200  0.040100  1.0
  C  C1540  1  0.153800  0.973200  0.459900  1.0
  C  C1541  1  0.653800  0.526800  0.959900  1.0
  C  C1542  1  0.346200  0.526800  0.540100  1.0
  C  C1543  1  0.153800  0.026800  0.959900  1.0
  C  C1544  1  0.846200  0.026800  0.540100  1.0
  C  C1545  1  0.305000  0.455800  0.045100  1.0
  C  C1546  1  0.695000  0.455800  0.454900  1.0
  C  C1547  1  0.805000  0.955800  0.045100  1.0
  C  C1548  1  0.195000  0.955800  0.454900  1.0
  C  C1549  1  0.695000  0.544200  0.954900  1.0
  C  C1550  1  0.305000  0.544200  0.545100  1.0
  C  C1551  1  0.195000  0.044200  0.954900  1.0
  C  C1552  1  0.805000  0.044200  0.545100  1.0
  C  C1553  1  0.289800  0.461700  0.073200  1.0
  C  C1554  1  0.710200  0.461700  0.426800  1.0
  C  C1555  1  0.789800  0.961700  0.073200  1.0
  C  C1556  1  0.210200  0.961700  0.426800  1.0
  C  C1557  1  0.710200  0.538300  0.926800  1.0
  C  C1558  1  0.289800  0.538300  0.573200  1.0
  C  C1559  1  0.210200  0.038300  0.926800  1.0
  C  C1560  1  0.789800  0.038300  0.573200  1.0
  C  C1561  1  0.315700  0.485100  0.096400  1.0
  C  C1562  1  0.684300  0.485100  0.403600  1.0
  C  C1563  1  0.815700  0.985100  0.096400  1.0
  C  C1564  1  0.184300  0.985100  0.403600  1.0
  C  C1565  1  0.684300  0.514900  0.903600  1.0
  C  C1566  1  0.315700  0.514900  0.596400  1.0
  C  C1567  1  0.184300  0.014900  0.903600  1.0
  C  C1568  1  0.815700  0.014900  0.596400  1.0
  C  C1569  1  0.276200  0.431400  0.019400  1.0
  C  C1570  1  0.723800  0.431400  0.480600  1.0
  C  C1571  1  0.776200  0.931400  0.019400  1.0
  C  C1572  1  0.223800  0.931400  0.480600  1.0
  C  C1573  1  0.723800  0.568600  0.980600  1.0
  C  C1574  1  0.276200  0.568600  0.519400  1.0
  C  C1575  1  0.223800  0.068600  0.980600  1.0
  C  C1576  1  0.776200  0.068600  0.519400  1.0
  C  C1577  1  0.412000  0.512100  0.059500  1.0
  C  C1578  1  0.588000  0.512100  0.440500  1.0
  C  C1579  1  0.912000  0.012100  0.059500  1.0
  C  C1580  1  0.088000  0.012100  0.440500  1.0
  C  C1581  1  0.588000  0.487900  0.940500  1.0
  C  C1582  1  0.412000  0.487900  0.559500  1.0
  C  C1583  1  0.088000  0.987900  0.940500  1.0
  C  C1584  1  0.912000  0.987900  0.559500  1.0
  C  C1585  1  0.441200  0.509500  0.036700  1.0
  C  C1586  1  0.558800  0.509500  0.463300  1.0
  C  C1587  1  0.941200  0.009500  0.036700  1.0
  C  C1588  1  0.058800  0.009500  0.463300  1.0
  C  C1589  1  0.558800  0.490500  0.963300  1.0
  C  C1590  1  0.441200  0.490500  0.536700  1.0
  C  C1591  1  0.058800  0.990500  0.963300  1.0
  C  C1592  1  0.941200  0.990500  0.536700  1.0
  C  C1593  1  0.482500  0.532400  0.046800  1.0
  C  C1594  1  0.517500  0.532400  0.453200  1.0
  C  C1595  1  0.982500  0.032400  0.046800  1.0
  C  C1596  1  0.017500  0.032400  0.453200  1.0
  C  C1597  1  0.517500  0.467600  0.953200  1.0
  C  C1598  1  0.482500  0.467600  0.546800  1.0
  C  C1599  1  0.017500  0.967600  0.953200  1.0
  C  C1600  1  0.982500  0.967600  0.546800  1.0
  C  C1601  1  0.511500  0.577700  0.092100  1.0
  C  C1602  1  0.488500  0.577700  0.407900  1.0
  C  C1603  1  0.011500  0.077700  0.092100  1.0
  C  C1604  1  0.988500  0.077700  0.407900  1.0
  C  C1605  1  0.488500  0.422300  0.907900  1.0
  C  C1606  1  0.511500  0.422300  0.592100  1.0
  C  C1607  1  0.988500  0.922300  0.907900  1.0
  C  C1608  1  0.011500  0.922300  0.592100  1.0
  C  C1609  1  0.511000  0.701550  0.096800  1.0
  C  C1610  1  0.489000  0.701550  0.403200  1.0
  C  C1611  1  0.011000  0.201550  0.096800  1.0
  C  C1612  1  0.989000  0.201550  0.403200  1.0
  C  C1613  1  0.489000  0.298450  0.903200  1.0
  C  C1614  1  0.511000  0.298450  0.596800  1.0
  C  C1615  1  0.989000  0.798450  0.903200  1.0
  C  C1616  1  0.011000  0.798450  0.596800  1.0
  C  C1617  1  0.556200  0.700200  0.121800  1.0
  C  C1618  1  0.443800  0.700200  0.378200  1.0
  C  C1619  1  0.056200  0.200200  0.121800  1.0
  C  C1620  1  0.943800  0.200200  0.378200  1.0
  C  C1621  1  0.443800  0.299800  0.878200  1.0
  C  C1622  1  0.556200  0.299800  0.621800  1.0
  C  C1623  1  0.943800  0.799800  0.878200  1.0
  C  C1624  1  0.056200  0.799800  0.621800  1.0
  C  C1625  1  0.578100  0.669000  0.132700  1.0
  C  C1626  1  0.421900  0.669000  0.367300  1.0
  C  C1627  1  0.078100  0.169000  0.132700  1.0
  C  C1628  1  0.921900  0.169000  0.367300  1.0
  C  C1629  1  0.421900  0.331000  0.867300  1.0
  C  C1630  1  0.578100  0.331000  0.632700  1.0
  C  C1631  1  0.921900  0.831000  0.867300  1.0
  C  C1632  1  0.078100  0.831000  0.632700  1.0
  C  C1633  1  0.554700  0.639300  0.118700  1.0
  C  C1634  1  0.445300  0.639300  0.381300  1.0
  C  C1635  1  0.054700  0.139300  0.118700  1.0
  C  C1636  1  0.945300  0.139300  0.381300  1.0
  C  C1637  1  0.445300  0.360700  0.881300  1.0
  C  C1638  1  0.554700  0.360700  0.618700  1.0
  C  C1639  1  0.945300  0.860700  0.881300  1.0
  C  C1640  1  0.054700  0.860700  0.618700  1.0
  C  C1641  1  0.509500  0.640640  0.093700  1.0
  C  C1642  1  0.490500  0.640640  0.406300  1.0
  C  C1643  1  0.009500  0.140640  0.093700  1.0
  C  C1644  1  0.990500  0.140640  0.406300  1.0
  C  C1645  1  0.490500  0.359360  0.906300  1.0
  C  C1646  1  0.509500  0.359360  0.593700  1.0
  C  C1647  1  0.990500  0.859360  0.906300  1.0
  C  C1648  1  0.009500  0.859360  0.593700  1.0
  C  C1649  1  0.487700  0.671780  0.082730  1.0
  C  C1650  1  0.512300  0.671780  0.417270  1.0
  C  C1651  1  0.987700  0.171780  0.082730  1.0
  C  C1652  1  0.012300  0.171780  0.417270  1.0
  C  C1653  1  0.512300  0.328220  0.917270  1.0
  C  C1654  1  0.487700  0.328220  0.582730  1.0
  C  C1655  1  0.012300  0.828220  0.917270  1.0
  C  C1656  1  0.987700  0.828220  0.582730  1.0
  C  C1657  1  0.442500  0.673200  0.057700  1.0
  C  C1658  1  0.557500  0.673200  0.442300  1.0
  C  C1659  1  0.942500  0.173200  0.057700  1.0
  C  C1660  1  0.057500  0.173200  0.442300  1.0
  C  C1661  1  0.557500  0.326800  0.942300  1.0
  C  C1662  1  0.442500  0.326800  0.557700  1.0
  C  C1663  1  0.057500  0.826800  0.942300  1.0
  C  C1664  1  0.942500  0.826800  0.557700  1.0
  C  C1665  1  0.419200  0.643400  0.043700  1.0
  C  C1666  1  0.580800  0.643400  0.456300  1.0
  C  C1667  1  0.919200  0.143400  0.043700  1.0
  C  C1668  1  0.080800  0.143400  0.456300  1.0
  C  C1669  1  0.580800  0.356600  0.956300  1.0
  C  C1670  1  0.419200  0.356600  0.543700  1.0
  C  C1671  1  0.080800  0.856600  0.956300  1.0
  C  C1672  1  0.919200  0.856600  0.543700  1.0
  C  C1673  1  0.441000  0.612300  0.054600  1.0
  C  C1674  1  0.559000  0.612300  0.445400  1.0
  C  C1675  1  0.941000  0.112300  0.054600  1.0
  C  C1676  1  0.059000  0.112300  0.445400  1.0
  C  C1677  1  0.559000  0.387700  0.945400  1.0
  C  C1678  1  0.441000  0.387700  0.554600  1.0
  C  C1679  1  0.059000  0.887700  0.945400  1.0
  C  C1680  1  0.941000  0.887700  0.554600  1.0
  C  C1681  1  0.486200  0.610880  0.079700  1.0
  C  C1682  1  0.513800  0.610880  0.420300  1.0
  C  C1683  1  0.986200  0.110880  0.079700  1.0
  C  C1684  1  0.013800  0.110880  0.420300  1.0
  C  C1685  1  0.513800  0.389120  0.920300  1.0
  C  C1686  1  0.486200  0.389120  0.579700  1.0
  C  C1687  1  0.013800  0.889120  0.920300  1.0
  C  C1688  1  0.986200  0.889120  0.579700  1.0
  C  C1689  1  0.631500  0.691900  0.069900  1.0
  C  C1690  1  0.368500  0.691900  0.430100  1.0
  C  C1691  1  0.131500  0.191900  0.069900  1.0
  C  C1692  1  0.868500  0.191900  0.430100  1.0
  C  C1693  1  0.368500  0.308100  0.930100  1.0
  C  C1694  1  0.631500  0.308100  0.569900  1.0
  C  C1695  1  0.868500  0.808100  0.930100  1.0
  C  C1696  1  0.131500  0.808100  0.569900  1.0
  C  C1697  1  0.661100  0.666900  0.089200  1.0
  C  C1698  1  0.338900  0.666900  0.410800  1.0
  C  C1699  1  0.161100  0.166900  0.089200  1.0
  C  C1700  1  0.838900  0.166900  0.410800  1.0
  C  C1701  1  0.338900  0.333100  0.910800  1.0
  C  C1702  1  0.661100  0.333100  0.589200  1.0
  C  C1703  1  0.838900  0.833100  0.910800  1.0
  C  C1704  1  0.161100  0.833100  0.589200  1.0
  C  C1705  1  0.702800  0.675800  0.115000  1.0
  C  C1706  1  0.297200  0.675800  0.385000  1.0
  C  C1707  1  0.202800  0.175800  0.115000  1.0
  C  C1708  1  0.797200  0.175800  0.385000  1.0
  C  C1709  1  0.297200  0.324200  0.885000  1.0
  C  C1710  1  0.702800  0.324200  0.615000  1.0
  C  C1711  1  0.797200  0.824200  0.885000  1.0
  C  C1712  1  0.202800  0.824200  0.615000  1.0
  C  C1713  1  0.714800  0.709800  0.121600  1.0
  C  C1714  1  0.285200  0.709800  0.378400  1.0
  C  C1715  1  0.214800  0.209800  0.121600  1.0
  C  C1716  1  0.785200  0.209800  0.378400  1.0
  C  C1717  1  0.285200  0.290200  0.878400  1.0
  C  C1718  1  0.714800  0.290200  0.621600  1.0
  C  C1719  1  0.785200  0.790200  0.878400  1.0
  C  C1720  1  0.214800  0.790200  0.621600  1.0
  C  C1721  1  0.685200  0.734800  0.102300  1.0
  C  C1722  1  0.314800  0.734800  0.397700  1.0
  C  C1723  1  0.185200  0.234800  0.102300  1.0
  C  C1724  1  0.814800  0.234800  0.397700  1.0
  C  C1725  1  0.314800  0.265200  0.897700  1.0
  C  C1726  1  0.685200  0.265200  0.602300  1.0
  C  C1727  1  0.814800  0.765200  0.897700  1.0
  C  C1728  1  0.185200  0.765200  0.602300  1.0
  C  C1729  1  0.734600  0.648000  0.136700  1.0
  C  C1730  1  0.265400  0.648000  0.363300  1.0
  C  C1731  1  0.234600  0.148000  0.136700  1.0
  C  C1732  1  0.765400  0.148000  0.363300  1.0
  C  C1733  1  0.265400  0.352000  0.863300  1.0
  C  C1734  1  0.734600  0.352000  0.636700  1.0
  C  C1735  1  0.765400  0.852000  0.863300  1.0
  C  C1736  1  0.234600  0.852000  0.636700  1.0
  C  C1737  1  0.590300  0.684200  0.047200  1.0
  C  C1738  1  0.409700  0.684200  0.452800  1.0
  C  C1739  1  0.090300  0.184200  0.047200  1.0
  C  C1740  1  0.909700  0.184200  0.452800  1.0
  C  C1741  1  0.409700  0.315800  0.952800  1.0
  C  C1742  1  0.590300  0.315800  0.547200  1.0
  C  C1743  1  0.909700  0.815800  0.952800  1.0
  C  C1744  1  0.090300  0.815800  0.547200  1.0
  C  C1745  1  0.569500  0.652200  0.035400  1.0
  C  C1746  1  0.430500  0.652200  0.464600  1.0
  C  C1747  1  0.069500  0.152200  0.035400  1.0
  C  C1748  1  0.930500  0.152200  0.464600  1.0
  C  C1749  1  0.430500  0.347800  0.964600  1.0
  C  C1750  1  0.569500  0.347800  0.535400  1.0
  C  C1751  1  0.930500  0.847800  0.964600  1.0
  C  C1752  1  0.069500  0.847800  0.535400  1.0
  C  C1753  1  0.523000  0.657800  0.010900  1.0
  C  C1754  1  0.477000  0.657800  0.489100  1.0
  C  C1755  1  0.023000  0.157800  0.010900  1.0
  C  C1756  1  0.977000  0.157800  0.489100  1.0
  C  C1757  1  0.477000  0.342200  0.989100  1.0
  C  C1758  1  0.523000  0.342200  0.510900  1.0
  C  C1759  1  0.977000  0.842200  0.989100  1.0
  C  C1760  1  0.023000  0.842200  0.510900  1.0
  C  C1761  1  0.478800  0.713000  0.987500  1.0
  C  C1762  1  0.521200  0.713000  0.512500  1.0
  C  C1763  1  0.978800  0.213000  0.987500  1.0
  C  C1764  1  0.021200  0.213000  0.512500  1.0
  C  C1765  1  0.521200  0.287000  0.012500  1.0
  C  C1766  1  0.478800  0.287000  0.487500  1.0
  C  C1767  1  0.021200  0.787000  0.012500  1.0
  C  C1768  1  0.978800  0.787000  0.487500  1.0
  C  C1769  1  0.288400  0.830200  0.773400  1.0
  C  C1770  1  0.711600  0.830200  0.726600  1.0
  C  C1771  1  0.788400  0.330200  0.773400  1.0
  C  C1772  1  0.211600  0.330200  0.726600  1.0
  C  C1773  1  0.711600  0.169800  0.226600  1.0
  C  C1774  1  0.288400  0.169800  0.273400  1.0
  C  C1775  1  0.211600  0.669800  0.226600  1.0
  C  C1776  1  0.788400  0.669800  0.273400  1.0
  C  C1777  1  0.260500  0.858800  0.760200  1.0
  C  C1778  1  0.739500  0.858800  0.739800  1.0
  C  C1779  1  0.760500  0.358800  0.760200  1.0
  C  C1780  1  0.239500  0.358800  0.739800  1.0
  C  C1781  1  0.739500  0.141200  0.239800  1.0
  C  C1782  1  0.260500  0.141200  0.260200  1.0
  C  C1783  1  0.239500  0.641200  0.239800  1.0
  C  C1784  1  0.760500  0.641200  0.260200  1.0
  C  C1785  1  0.216100  0.855400  0.734800  1.0
  C  C1786  1  0.783900  0.855400  0.765200  1.0
  C  C1787  1  0.716100  0.355400  0.734800  1.0
  C  C1788  1  0.283900  0.355400  0.765200  1.0
  C  C1789  1  0.783900  0.144600  0.265200  1.0
  C  C1790  1  0.216100  0.144600  0.234800  1.0
  C  C1791  1  0.283900  0.644600  0.265200  1.0
  C  C1792  1  0.716100  0.644600  0.234800  1.0
  C  C1793  1  0.199600  0.823400  0.722600  1.0
  C  C1794  1  0.800400  0.823400  0.777400  1.0
  C  C1795  1  0.699600  0.323400  0.722600  1.0
  C  C1796  1  0.300400  0.323400  0.777400  1.0
  C  C1797  1  0.800400  0.176600  0.277400  1.0
  C  C1798  1  0.199600  0.176600  0.222600  1.0
  C  C1799  1  0.300400  0.676600  0.277400  1.0
  C  C1800  1  0.699600  0.676600  0.222600  1.0
  C  C1801  1  0.227500  0.794900  0.735800  1.0
  C  C1802  1  0.772500  0.794900  0.764200  1.0
  C  C1803  1  0.727500  0.294900  0.735800  1.0
  C  C1804  1  0.272500  0.294900  0.764200  1.0
  C  C1805  1  0.772500  0.205100  0.264200  1.0
  C  C1806  1  0.227500  0.205100  0.235800  1.0
  C  C1807  1  0.272500  0.705100  0.264200  1.0
  C  C1808  1  0.727500  0.705100  0.235800  1.0
  C  C1809  1  0.185100  0.886200  0.721400  1.0
  C  C1810  1  0.814900  0.886200  0.778600  1.0
  C  C1811  1  0.685100  0.386200  0.721400  1.0
  C  C1812  1  0.314900  0.386200  0.778600  1.0
  C  C1813  1  0.814900  0.113800  0.278600  1.0
  C  C1814  1  0.185100  0.113800  0.221400  1.0
  C  C1815  1  0.314900  0.613800  0.278600  1.0
  C  C1816  1  0.685100  0.613800  0.221400  1.0
  C  C1817  1  0.332000  0.832600  0.795500  1.0
  C  C1818  1  0.668000  0.832600  0.704500  1.0
  C  C1819  1  0.832000  0.332600  0.795500  1.0
  C  C1820  1  0.168000  0.332600  0.704500  1.0
  C  C1821  1  0.668000  0.167400  0.204500  1.0
  C  C1822  1  0.332000  0.167400  0.295500  1.0
  C  C1823  1  0.168000  0.667400  0.204500  1.0
  C  C1824  1  0.832000  0.667400  0.295500  1.0
  C  C1825  1  0.363700  0.859100  0.812400  1.0
  C  C1826  1  0.636300  0.859100  0.687600  1.0
  C  C1827  1  0.863700  0.359100  0.812400  1.0
  C  C1828  1  0.136300  0.359100  0.687600  1.0
  C  C1829  1  0.636300  0.140900  0.187600  1.0
  C  C1830  1  0.363700  0.140900  0.312400  1.0
  C  C1831  1  0.136300  0.640900  0.187600  1.0
  C  C1832  1  0.863700  0.640900  0.312400  1.0
  C  C1833  1  0.407600  0.844200  0.833800  1.0
  C  C1834  1  0.592400  0.844200  0.666200  1.0
  C  C1835  1  0.907600  0.344200  0.833800  1.0
  C  C1836  1  0.092400  0.344200  0.666200  1.0
  C  C1837  1  0.592400  0.155800  0.166200  1.0
  C  C1838  1  0.407600  0.155800  0.333800  1.0
  C  C1839  1  0.092400  0.655800  0.166200  1.0
  C  C1840  1  0.907600  0.655800  0.333800  1.0
  C  C1841  1  0.440200  0.785600  0.850900  1.0
  C  C1842  1  0.559800  0.785600  0.649100  1.0
  C  C1843  1  0.940200  0.285600  0.850900  1.0
  C  C1844  1  0.059800  0.285600  0.649100  1.0
  C  C1845  1  0.559800  0.214400  0.149100  1.0
  C  C1846  1  0.440200  0.214400  0.350900  1.0
  C  C1847  1  0.059800  0.714400  0.149100  1.0
  C  C1848  1  0.940200  0.714400  0.350900  1.0
  C  C1849  1  0.483800  0.720500  0.953900  1.0
  C  C1850  1  0.516200  0.720500  0.546100  1.0
  C  C1851  1  0.983800  0.220500  0.953900  1.0
  C  C1852  1  0.016200  0.220500  0.546100  1.0
  C  C1853  1  0.516200  0.279500  0.046100  1.0
  C  C1854  1  0.483800  0.279500  0.453900  1.0
  C  C1855  1  0.016200  0.779500  0.046100  1.0
  C  C1856  1  0.983800  0.779500  0.453900  1.0
  C  C1857  1  0.523100  0.705300  0.944500  1.0
  C  C1858  1  0.476900  0.705300  0.555500  1.0
  C  C1859  1  0.023100  0.205300  0.944500  1.0
  C  C1860  1  0.976900  0.205300  0.555500  1.0
  C  C1861  1  0.476900  0.294700  0.055500  1.0
  C  C1862  1  0.523100  0.294700  0.444500  1.0
  C  C1863  1  0.976900  0.794700  0.055500  1.0
  C  C1864  1  0.023100  0.794700  0.444500  1.0
  C  C1865  1  0.531600  0.713700  0.914600  1.0
  C  C1866  1  0.468400  0.713700  0.585400  1.0
  C  C1867  1  0.031600  0.213700  0.914600  1.0
  C  C1868  1  0.968400  0.213700  0.585400  1.0
  C  C1869  1  0.468400  0.286300  0.085400  1.0
  C  C1870  1  0.531600  0.286300  0.414600  1.0
  C  C1871  1  0.968400  0.786300  0.085400  1.0
  C  C1872  1  0.031600  0.786300  0.414600  1.0
  C  C1873  1  0.500800  0.737400  0.894100  1.0
  C  C1874  1  0.499200  0.737400  0.605900  1.0
  C  C1875  1  0.000800  0.237400  0.894100  1.0
  C  C1876  1  0.999200  0.237400  0.605900  1.0
  C  C1877  1  0.499200  0.262600  0.105900  1.0
  C  C1878  1  0.500800  0.262600  0.394100  1.0
  C  C1879  1  0.999200  0.762600  0.105900  1.0
  C  C1880  1  0.000800  0.762600  0.394100  1.0
  C  C1881  1  0.461500  0.752700  0.903600  1.0
  C  C1882  1  0.538500  0.752700  0.596400  1.0
  C  C1883  1  0.961500  0.252700  0.903600  1.0
  C  C1884  1  0.038500  0.252700  0.596400  1.0
  C  C1885  1  0.538500  0.247300  0.096400  1.0
  C  C1886  1  0.461500  0.247300  0.403600  1.0
  C  C1887  1  0.038500  0.747300  0.096400  1.0
  C  C1888  1  0.961500  0.747300  0.403600  1.0
  C  C1889  1  0.453100  0.744200  0.933500  1.0
  C  C1890  1  0.546900  0.744200  0.566500  1.0
  C  C1891  1  0.953100  0.244200  0.933500  1.0
  C  C1892  1  0.046900  0.244200  0.566500  1.0
  C  C1893  1  0.546900  0.255800  0.066500  1.0
  C  C1894  1  0.453100  0.255800  0.433500  1.0
  C  C1895  1  0.046900  0.755800  0.066500  1.0
  C  C1896  1  0.953100  0.755800  0.433500  1.0
  C  C1897  1  0.413800  0.759500  0.942900  1.0
  C  C1898  1  0.586200  0.759500  0.557100  1.0
  C  C1899  1  0.913800  0.259500  0.942900  1.0
  C  C1900  1  0.086200  0.259500  0.557100  1.0
  C  C1901  1  0.586200  0.240500  0.057100  1.0
  C  C1902  1  0.413800  0.240500  0.442900  1.0
  C  C1903  1  0.086200  0.740500  0.057100  1.0
  C  C1904  1  0.913800  0.740500  0.442900  1.0
  C  C1905  1  0.383000  0.783200  0.922400  1.0
  C  C1906  1  0.617000  0.783200  0.577600  1.0
  C  C1907  1  0.883000  0.283200  0.922400  1.0
  C  C1908  1  0.117000  0.283200  0.577600  1.0
  C  C1909  1  0.617000  0.216800  0.077600  1.0
  C  C1910  1  0.383000  0.216800  0.422400  1.0
  C  C1911  1  0.117000  0.716800  0.077600  1.0
  C  C1912  1  0.883000  0.716800  0.422400  1.0
  C  C1913  1  0.391500  0.791600  0.892500  1.0
  C  C1914  1  0.608500  0.791600  0.607500  1.0
  C  C1915  1  0.891500  0.291600  0.892500  1.0
  C  C1916  1  0.108500  0.291600  0.607500  1.0
  C  C1917  1  0.608500  0.208400  0.107500  1.0
  C  C1918  1  0.391500  0.208400  0.392500  1.0
  C  C1919  1  0.108500  0.708400  0.107500  1.0
  C  C1920  1  0.891500  0.708400  0.392500  1.0
  C  C1921  1  0.430700  0.776400  0.883100  1.0
  C  C1922  1  0.569300  0.776400  0.616900  1.0
  C  C1923  1  0.930700  0.276400  0.883100  1.0
  C  C1924  1  0.069300  0.276400  0.616900  1.0
  C  C1925  1  0.569300  0.223600  0.116900  1.0
  C  C1926  1  0.430700  0.223600  0.383100  1.0
  C  C1927  1  0.069300  0.723600  0.116900  1.0
  C  C1928  1  0.930700  0.723600  0.383100  1.0
  C  C1929  1  0.424400  0.611900  0.141700  1.0
  C  C1930  1  0.575600  0.611900  0.358300  1.0
  C  C1931  1  0.924400  0.111900  0.141700  1.0
  C  C1932  1  0.075600  0.111900  0.358300  1.0
  C  C1933  1  0.575600  0.388100  0.858300  1.0
  C  C1934  1  0.424400  0.388100  0.641700  1.0
  C  C1935  1  0.075600  0.888100  0.858300  1.0
  C  C1936  1  0.924400  0.888100  0.641700  1.0
  C  C1937  1  0.449100  0.640800  0.156900  1.0
  C  C1938  1  0.550900  0.640800  0.343100  1.0
  C  C1939  1  0.949100  0.140800  0.156900  1.0
  C  C1940  1  0.050900  0.140800  0.343100  1.0
  C  C1941  1  0.550900  0.359200  0.843100  1.0
  C  C1942  1  0.449100  0.359200  0.656900  1.0
  C  C1943  1  0.050900  0.859200  0.843100  1.0
  C  C1944  1  0.949100  0.859200  0.656900  1.0
  C  C1945  1  0.495000  0.637900  0.181100  1.0
  C  C1946  1  0.505000  0.637900  0.318900  1.0
  C  C1947  1  0.995000  0.137900  0.181100  1.0
  C  C1948  1  0.005000  0.137900  0.318900  1.0
  C  C1949  1  0.505000  0.362100  0.818900  1.0
  C  C1950  1  0.495000  0.362100  0.681100  1.0
  C  C1951  1  0.005000  0.862100  0.818900  1.0
  C  C1952  1  0.995000  0.862100  0.681100  1.0
  C  C1953  1  0.516100  0.606100  0.190200  1.0
  C  C1954  1  0.483900  0.606100  0.309800  1.0
  C  C1955  1  0.016100  0.106100  0.190200  1.0
  C  C1956  1  0.983900  0.106100  0.309800  1.0
  C  C1957  1  0.483900  0.393900  0.809800  1.0
  C  C1958  1  0.516100  0.393900  0.690200  1.0
  C  C1959  1  0.983900  0.893900  0.809800  1.0
  C  C1960  1  0.016100  0.893900  0.690200  1.0
  C  C1961  1  0.491300  0.577200  0.175000  1.0
  C  C1962  1  0.508700  0.577200  0.325000  1.0
  C  C1963  1  0.991300  0.077200  0.175000  1.0
  C  C1964  1  0.008700  0.077200  0.325000  1.0
  C  C1965  1  0.508700  0.422800  0.825000  1.0
  C  C1966  1  0.491300  0.422800  0.675000  1.0
  C  C1967  1  0.008700  0.922800  0.825000  1.0
  C  C1968  1  0.991300  0.922800  0.675000  1.0
  C  C1969  1  0.522500  0.669800  0.197800  1.0
  C  C1970  1  0.477500  0.669800  0.302200  1.0
  C  C1971  1  0.022500  0.169800  0.197800  1.0
  C  C1972  1  0.977500  0.169800  0.302200  1.0
  C  C1973  1  0.477500  0.330200  0.802200  1.0
  C  C1974  1  0.522500  0.330200  0.697800  1.0
  C  C1975  1  0.977500  0.830200  0.802200  1.0
  C  C1976  1  0.022500  0.830200  0.697800  1.0
  C  C1977  1  0.378200  0.612100  0.120300  1.0
  C  C1978  1  0.621800  0.612100  0.379700  1.0
  C  C1979  1  0.878200  0.112100  0.120300  1.0
  C  C1980  1  0.121800  0.112100  0.379700  1.0
  C  C1981  1  0.621800  0.387900  0.879700  1.0
  C  C1982  1  0.378200  0.387900  0.620300  1.0
  C  C1983  1  0.121800  0.887900  0.879700  1.0
  C  C1984  1  0.878200  0.887900  0.620300  1.0
  C  C1985  1  0.346200  0.639900  0.107100  1.0
  C  C1986  1  0.653800  0.639900  0.392900  1.0
  C  C1987  1  0.846200  0.139900  0.107100  1.0
  C  C1988  1  0.153800  0.139900  0.392900  1.0
  C  C1989  1  0.653800  0.360100  0.892900  1.0
  C  C1990  1  0.346200  0.360100  0.607100  1.0
  C  C1991  1  0.153800  0.860100  0.892900  1.0
  C  C1992  1  0.846200  0.860100  0.607100  1.0
  C  C1993  1  0.301200  0.626800  0.085200  1.0
  C  C1994  1  0.698800  0.626800  0.414800  1.0
  C  C1995  1  0.801200  0.126800  0.085200  1.0
  C  C1996  1  0.198800  0.126800  0.414800  1.0
  C  C1997  1  0.698800  0.373200  0.914800  1.0
  C  C1998  1  0.301200  0.373200  0.585200  1.0
  C  C1999  1  0.198800  0.873200  0.914800  1.0
  C  C2000  1  0.801200  0.873200  0.585200  1.0
  C  C2001  1  0.273500  0.566900  0.068000  1.0
  C  C2002  1  0.726500  0.566900  0.432000  1.0
  C  C2003  1  0.773500  0.066900  0.068000  1.0
  C  C2004  1  0.226500  0.066900  0.432000  1.0
  C  C2005  1  0.726500  0.433100  0.932000  1.0
  C  C2006  1  0.273500  0.433100  0.568000  1.0
  C  C2007  1  0.226500  0.933100  0.932000  1.0
  C  C2008  1  0.773500  0.933100  0.568000  1.0
  C  C2009  1  0.087400  0.463800  0.853000  1.0
  C  C2010  1  0.912600  0.463800  0.647000  1.0
  C  C2011  1  0.587400  0.963800  0.853000  1.0
  C  C2012  1  0.412600  0.963800  0.647000  1.0
  C  C2013  1  0.912600  0.536200  0.147000  1.0
  C  C2014  1  0.087400  0.536200  0.353000  1.0
  C  C2015  1  0.412600  0.036200  0.147000  1.0
  C  C2016  1  0.587400  0.036200  0.353000  1.0
  C  C2017  1  0.057800  0.436400  0.838500  1.0
  C  C2018  1  0.942200  0.436400  0.661500  1.0
  C  C2019  1  0.557800  0.936400  0.838500  1.0
  C  C2020  1  0.442200  0.936400  0.661500  1.0
  C  C2021  1  0.942200  0.563600  0.161500  1.0
  C  C2022  1  0.057800  0.563600  0.338500  1.0
  C  C2023  1  0.442200  0.063600  0.161500  1.0
  C  C2024  1  0.557800  0.063600  0.338500  1.0
  C  C2025  1  0.010100  0.441800  0.817000  1.0
  C  C2026  1  0.989900  0.441800  0.683000  1.0
  C  C2027  1  0.510100  0.941800  0.817000  1.0
  C  C2028  1  0.489900  0.941800  0.683000  1.0
  C  C2029  1  0.989900  0.558200  0.183000  1.0
  C  C2030  1  0.010100  0.558200  0.317000  1.0
  C  C2031  1  0.489900  0.058200  0.183000  1.0
  C  C2032  1  0.510100  0.058200  0.317000  1.0
  C  C2033  1  0.991900  0.474600  0.809900  1.0
  C  C2034  1  0.008100  0.474600  0.690100  1.0
  C  C2035  1  0.491900  0.974600  0.809900  1.0
  C  C2036  1  0.508100  0.974600  0.690100  1.0
  C  C2037  1  0.008100  0.525400  0.190100  1.0
  C  C2038  1  0.991900  0.525400  0.309900  1.0
  C  C2039  1  0.508100  0.025400  0.190100  1.0
  C  C2040  1  0.491900  0.025400  0.309900  1.0
  C  C2041  1  0.021600  0.502000  0.824400  1.0
  C  C2042  1  0.978400  0.502000  0.675600  1.0
  C  C2043  1  0.521600  0.002000  0.824400  1.0
  C  C2044  1  0.478400  0.002000  0.675600  1.0
  C  C2045  1  0.978400  0.498000  0.175600  1.0
  C  C2046  1  0.021600  0.498000  0.324400  1.0
  C  C2047  1  0.478400  0.998000  0.175600  1.0
  C  C2048  1  0.521600  0.998000  0.324400  1.0
  C  C2049  1  0.976700  0.412100  0.803200  1.0
  C  C2050  1  0.023300  0.412100  0.696800  1.0
  C  C2051  1  0.476700  0.912100  0.803200  1.0
  C  C2052  1  0.523300  0.912100  0.696800  1.0
  C  C2053  1  0.023300  0.587900  0.196800  1.0
  C  C2054  1  0.976700  0.587900  0.303200  1.0
  C  C2055  1  0.523300  0.087900  0.196800  1.0
  C  C2056  1  0.476700  0.087900  0.303200  1.0
  C  C2057  1  0.133300  0.456500  0.873900  1.0
  C  C2058  1  0.866700  0.456500  0.626100  1.0
  C  C2059  1  0.633300  0.956500  0.873900  1.0
  C  C2060  1  0.366700  0.956500  0.626100  1.0
  C  C2061  1  0.866700  0.543500  0.126100  1.0
  C  C2062  1  0.133300  0.543500  0.373900  1.0
  C  C2063  1  0.366700  0.043500  0.126100  1.0
  C  C2064  1  0.633300  0.043500  0.373900  1.0
  C  C2065  1  0.164100  0.428000  0.886500  1.0
  C  C2066  1  0.835900  0.428000  0.613500  1.0
  C  C2067  1  0.664100  0.928000  0.886500  1.0
  C  C2068  1  0.335900  0.928000  0.613500  1.0
  C  C2069  1  0.835900  0.572000  0.113500  1.0
  C  C2070  1  0.164100  0.572000  0.386500  1.0
  C  C2071  1  0.335900  0.072000  0.113500  1.0
  C  C2072  1  0.664100  0.072000  0.386500  1.0
  C  C2073  1  0.209900  0.439900  0.908400  1.0
  C  C2074  1  0.790100  0.439900  0.591600  1.0
  C  C2075  1  0.709900  0.939900  0.908400  1.0
  C  C2076  1  0.290100  0.939900  0.591600  1.0
  C  C2077  1  0.790100  0.560100  0.091600  1.0
  C  C2078  1  0.209900  0.560100  0.408400  1.0
  C  C2079  1  0.290100  0.060100  0.091600  1.0
  C  C2080  1  0.709900  0.060100  0.408400  1.0
  C  C2081  1  0.242400  0.498300  0.930200  1.0
  C  C2082  1  0.757600  0.498300  0.569800  1.0
  C  C2083  1  0.742400  0.998300  0.930200  1.0
  C  C2084  1  0.257600  0.998300  0.569800  1.0
  C  C2085  1  0.757600  0.501700  0.069800  1.0
  C  C2086  1  0.242400  0.501700  0.430200  1.0
  C  C2087  1  0.257600  0.001700  0.069800  1.0
  C  C2088  1  0.742400  0.001700  0.430200  1.0
  C  C2089  1  0.279800  0.558100  0.033900  1.0
  C  C2090  1  0.720200  0.558100  0.466100  1.0
  C  C2091  1  0.779800  0.058100  0.033900  1.0
  C  C2092  1  0.220200  0.058100  0.466100  1.0
  C  C2093  1  0.720200  0.441900  0.966100  1.0
  C  C2094  1  0.279800  0.441900  0.533900  1.0
  C  C2095  1  0.220200  0.941900  0.966100  1.0
  C  C2096  1  0.779800  0.941900  0.533900  1.0
  C  C2097  1  0.321800  0.572700  0.027300  1.0
  C  C2098  1  0.678200  0.572700  0.472700  1.0
  C  C2099  1  0.821800  0.072700  0.027300  1.0
  C  C2100  1  0.178200  0.072700  0.472700  1.0
  C  C2101  1  0.678200  0.427300  0.972700  1.0
  C  C2102  1  0.321800  0.427300  0.527300  1.0
  C  C2103  1  0.178200  0.927300  0.972700  1.0
  C  C2104  1  0.821800  0.927300  0.527300  1.0
  C  C2105  1  0.333333  0.565100  0.998100  1.0
  C  C2106  1  0.666667  0.565100  0.501900  1.0
  C  C2107  1  0.833333  0.065100  0.998100  1.0
  C  C2108  1  0.166667  0.065100  0.501900  1.0
  C  C2109  1  0.666667  0.434900  0.001900  1.0
  C  C2110  1  0.333333  0.434900  0.498100  1.0
  C  C2111  1  0.166667  0.934900  0.001900  1.0
  C  C2112  1  0.833333  0.934900  0.498100  1.0
  C  C2113  1  0.302800  0.542900  0.975600  1.0
  C  C2114  1  0.697200  0.542900  0.524400  1.0
  C  C2115  1  0.802800  0.042900  0.975600  1.0
  C  C2116  1  0.197200  0.042900  0.524400  1.0
  C  C2117  1  0.697200  0.457100  0.024400  1.0
  C  C2118  1  0.302800  0.457100  0.475600  1.0
  C  C2119  1  0.197200  0.957100  0.024400  1.0
  C  C2120  1  0.802800  0.957100  0.475600  1.0
  C  C2121  1  0.260800  0.528300  0.982300  1.0
  C  C2122  1  0.739200  0.528300  0.517700  1.0
  C  C2123  1  0.760800  0.028300  0.982300  1.0
  C  C2124  1  0.239200  0.028300  0.517700  1.0
  C  C2125  1  0.739200  0.471700  0.017700  1.0
  C  C2126  1  0.260800  0.471700  0.482300  1.0
  C  C2127  1  0.239200  0.971700  0.017700  1.0
  C  C2128  1  0.760800  0.971700  0.482300  1.0
  C  C2129  1  0.249300  0.535900  0.011500  1.0
  C  C2130  1  0.750700  0.535900  0.488500  1.0
  C  C2131  1  0.749300  0.035900  0.011500  1.0
  C  C2132  1  0.250700  0.035900  0.488500  1.0
  C  C2133  1  0.750700  0.464100  0.988500  1.0
  C  C2134  1  0.249300  0.464100  0.511500  1.0
  C  C2135  1  0.250700  0.964100  0.988500  1.0
  C  C2136  1  0.749300  0.964100  0.511500  1.0
  C  C2137  1  0.207300  0.521200  0.018100  1.0
  C  C2138  1  0.792700  0.521200  0.481900  1.0
  C  C2139  1  0.707300  0.021200  0.018100  1.0
  C  C2140  1  0.292700  0.021200  0.481900  1.0
  C  C2141  1  0.792700  0.478800  0.981900  1.0
  C  C2142  1  0.207300  0.478800  0.518100  1.0
  C  C2143  1  0.292700  0.978800  0.981900  1.0
  C  C2144  1  0.707300  0.978800  0.518100  1.0
  C  C2145  1  0.176800  0.499000  0.995700  1.0
  C  C2146  1  0.823200  0.499000  0.504300  1.0
  C  C2147  1  0.676800  0.999000  0.995700  1.0
  C  C2148  1  0.323200  0.999000  0.504300  1.0
  C  C2149  1  0.823200  0.501000  0.004300  1.0
  C  C2150  1  0.176800  0.501000  0.495700  1.0
  C  C2151  1  0.323200  0.001000  0.004300  1.0
  C  C2152  1  0.676800  0.001000  0.495700  1.0
  C  C2153  1  0.188300  0.491400  0.966500  1.0
  C  C2154  1  0.811700  0.491400  0.533500  1.0
  C  C2155  1  0.688300  0.991400  0.966500  1.0
  C  C2156  1  0.311700  0.991400  0.533500  1.0
  C  C2157  1  0.811700  0.508600  0.033500  1.0
  C  C2158  1  0.188300  0.508600  0.466500  1.0
  C  C2159  1  0.311700  0.008600  0.033500  1.0
  C  C2160  1  0.688300  0.008600  0.466500  1.0
  C  C2161  1  0.230300  0.506100  0.959800  1.0
  C  C2162  1  0.769700  0.506100  0.540200  1.0
  C  C2163  1  0.730300  0.006100  0.959800  1.0
  C  C2164  1  0.269700  0.006100  0.540200  1.0
  C  C2165  1  0.769700  0.493900  0.040200  1.0
  C  C2166  1  0.230300  0.493900  0.459800  1.0
  C  C2167  1  0.269700  0.993900  0.040200  1.0
  C  C2168  1  0.730300  0.993900  0.459800  1.0
  C  C2169  1  0.111700  0.561000  0.934600  1.0
  C  C2170  1  0.888300  0.561000  0.565400  1.0
  C  C2171  1  0.611700  0.061000  0.934600  1.0
  C  C2172  1  0.388300  0.061000  0.565400  1.0
  C  C2173  1  0.888300  0.439000  0.065400  1.0
  C  C2174  1  0.111700  0.439000  0.434600  1.0
  C  C2175  1  0.388300  0.939000  0.065400  1.0
  C  C2176  1  0.611700  0.939000  0.434600  1.0
  C  C2177  1  0.092900  0.565800  0.961500  1.0
  C  C2178  1  0.907100  0.565800  0.538500  1.0
  C  C2179  1  0.592900  0.065800  0.961500  1.0
  C  C2180  1  0.407100  0.065800  0.538500  1.0
  C  C2181  1  0.907100  0.434200  0.038500  1.0
  C  C2182  1  0.092900  0.434200  0.461500  1.0
  C  C2183  1  0.407100  0.934200  0.038500  1.0
  C  C2184  1  0.592900  0.934200  0.461500  1.0
  C  C2185  1  0.051300  0.547300  0.964200  1.0
  C  C2186  1  0.948700  0.547300  0.535800  1.0
  C  C2187  1  0.551300  0.047300  0.964200  1.0
  C  C2188  1  0.448700  0.047300  0.535800  1.0
  C  C2189  1  0.948700  0.452700  0.035800  1.0
  C  C2190  1  0.051300  0.452700  0.464200  1.0
  C  C2191  1  0.448700  0.952700  0.035800  1.0
  C  C2192  1  0.551300  0.952700  0.464200  1.0
  C  C2193  1  0.028500  0.524000  0.940000  1.0
  C  C2194  1  0.971500  0.524000  0.560000  1.0
  C  C2195  1  0.528500  0.024000  0.940000  1.0
  C  C2196  1  0.471500  0.024000  0.560000  1.0
  C  C2197  1  0.971500  0.476000  0.060000  1.0
  C  C2198  1  0.028500  0.476000  0.440000  1.0
  C  C2199  1  0.471500  0.976000  0.060000  1.0
  C  C2200  1  0.528500  0.976000  0.440000  1.0
  C  C2201  1  0.047300  0.519100  0.913100  1.0
  C  C2202  1  0.952700  0.519100  0.586900  1.0
  C  C2203  1  0.547300  0.019100  0.913100  1.0
  C  C2204  1  0.452700  0.019100  0.586900  1.0
  C  C2205  1  0.952700  0.480900  0.086900  1.0
  C  C2206  1  0.047300  0.480900  0.413100  1.0
  C  C2207  1  0.452700  0.980900  0.086900  1.0
  C  C2208  1  0.547300  0.980900  0.413100  1.0
  C  C2209  1  0.031400  0.551800  0.994400  1.0
  C  C2210  1  0.968600  0.551800  0.505600  1.0
  C  C2211  1  0.531400  0.051800  0.994400  1.0
  C  C2212  1  0.468600  0.051800  0.505600  1.0
  C  C2213  1  0.968600  0.448200  0.005600  1.0
  C  C2214  1  0.031400  0.448200  0.494400  1.0
  C  C2215  1  0.468600  0.948200  0.005600  1.0
  C  C2216  1  0.531400  0.948200  0.494400  1.0
  C  C2217  1  0.154600  0.577000  0.933900  1.0
  C  C2218  1  0.845400  0.577000  0.566100  1.0
  C  C2219  1  0.654600  0.077000  0.933900  1.0
  C  C2220  1  0.345400  0.077000  0.566100  1.0
  C  C2221  1  0.845400  0.423000  0.066100  1.0
  C  C2222  1  0.154600  0.423000  0.433900  1.0
  C  C2223  1  0.345400  0.923000  0.066100  1.0
  C  C2224  1  0.654600  0.923000  0.433900  1.0
  C  C2225  1  0.188700  0.600300  0.954300  1.0
  C  C2226  1  0.811300  0.600300  0.545700  1.0
  C  C2227  1  0.688700  0.100300  0.954300  1.0
  C  C2228  1  0.311300  0.100300  0.545700  1.0
  C  C2229  1  0.811300  0.399700  0.045700  1.0
  C  C2230  1  0.188700  0.399700  0.454300  1.0
  C  C2231  1  0.311300  0.899700  0.045700  1.0
  C  C2232  1  0.688700  0.899700  0.454300  1.0
  C  C2233  1  0.227000  0.608100  0.938900  1.0
  C  C2234  1  0.773000  0.608100  0.561100  1.0
  C  C2235  1  0.727000  0.108100  0.938900  1.0
  C  C2236  1  0.273000  0.108100  0.561100  1.0
  C  C2237  1  0.773000  0.391900  0.061100  1.0
  C  C2238  1  0.227000  0.391900  0.438900  1.0
  C  C2239  1  0.273000  0.891900  0.061100  1.0
  C  C2240  1  0.727000  0.891900  0.438900  1.0
  C  C2241  1  0.240600  0.595200  0.885100  1.0
  C  C2242  1  0.759400  0.595200  0.614900  1.0
  C  C2243  1  0.740600  0.095200  0.885100  1.0
  C  C2244  1  0.259400  0.095200  0.614900  1.0
  C  C2245  1  0.759400  0.404800  0.114900  1.0
  C  C2246  1  0.240600  0.404800  0.385100  1.0
  C  C2247  1  0.259400  0.904800  0.114900  1.0
  C  C2248  1  0.740600  0.904800  0.385100  1.0
  C  C2249  1  0.339100  0.739200  0.720100  1.0
  C  C2250  1  0.660900  0.739200  0.779900  1.0
  C  C2251  1  0.839100  0.239200  0.720100  1.0
  C  C2252  1  0.160900  0.239200  0.779900  1.0
  C  C2253  1  0.660900  0.260800  0.279900  1.0
  C  C2254  1  0.339100  0.260800  0.220100  1.0
  C  C2255  1  0.160900  0.760800  0.279900  1.0
  C  C2256  1  0.839100  0.760800  0.220100  1.0
  C  C2257  1  0.361900  0.736500  0.694800  1.0
  C  C2258  1  0.638100  0.736500  0.805200  1.0
  C  C2259  1  0.861900  0.236500  0.694800  1.0
  C  C2260  1  0.138100  0.236500  0.805200  1.0
  C  C2261  1  0.638100  0.263500  0.305200  1.0
  C  C2262  1  0.361900  0.263500  0.194800  1.0
  C  C2263  1  0.138100  0.763500  0.305200  1.0
  C  C2264  1  0.861900  0.763500  0.194800  1.0
  C  C2265  1  0.406500  0.754000  0.696600  1.0
  C  C2266  1  0.593500  0.754000  0.803400  1.0
  C  C2267  1  0.906500  0.254000  0.696600  1.0
  C  C2268  1  0.093500  0.254000  0.803400  1.0
  C  C2269  1  0.593500  0.246000  0.303400  1.0
  C  C2270  1  0.406500  0.246000  0.196600  1.0
  C  C2271  1  0.093500  0.746000  0.303400  1.0
  C  C2272  1  0.906500  0.746000  0.196600  1.0
  C  C2273  1  0.428300  0.774100  0.723800  1.0
  C  C2274  1  0.571700  0.774100  0.776200  1.0
  C  C2275  1  0.928300  0.274100  0.723800  1.0
  C  C2276  1  0.071700  0.274100  0.776200  1.0
  C  C2277  1  0.571700  0.225900  0.276200  1.0
  C  C2278  1  0.428300  0.225900  0.223800  1.0
  C  C2279  1  0.071700  0.725900  0.276200  1.0
  C  C2280  1  0.928300  0.725900  0.223800  1.0
  C  C2281  1  0.405500  0.776800  0.749200  1.0
  C  C2282  1  0.594500  0.776800  0.750800  1.0
  C  C2283  1  0.905500  0.276800  0.749200  1.0
  C  C2284  1  0.094500  0.276800  0.750800  1.0
  C  C2285  1  0.594500  0.223200  0.250800  1.0
  C  C2286  1  0.405500  0.223200  0.249200  1.0
  C  C2287  1  0.094500  0.723200  0.250800  1.0
  C  C2288  1  0.905500  0.723200  0.249200  1.0
  C  C2289  1  0.433300  0.749000  0.670600  1.0
  C  C2290  1  0.566700  0.749000  0.829400  1.0
  C  C2291  1  0.933300  0.249000  0.670600  1.0
  C  C2292  1  0.066700  0.249000  0.829400  1.0
  C  C2293  1  0.566700  0.251000  0.329400  1.0
  C  C2294  1  0.433300  0.251000  0.170600  1.0
  C  C2295  1  0.066700  0.751000  0.329400  1.0
  C  C2296  1  0.933300  0.751000  0.170600  1.0
  C  C2297  1  0.302100  0.719900  0.718500  1.0
  C  C2298  1  0.697900  0.719900  0.781500  1.0
  C  C2299  1  0.802100  0.219900  0.718500  1.0
  C  C2300  1  0.197900  0.219900  0.781500  1.0
  C  C2301  1  0.697900  0.280100  0.281500  1.0
  C  C2302  1  0.302100  0.280100  0.218500  1.0
  C  C2303  1  0.197900  0.780100  0.281500  1.0
  C  C2304  1  0.802100  0.780100  0.218500  1.0
  C  C2305  1  0.272400  0.697600  0.694400  1.0
  C  C2306  1  0.727600  0.697600  0.805600  1.0
  C  C2307  1  0.772400  0.197600  0.694400  1.0
  C  C2308  1  0.227600  0.197600  0.805600  1.0
  C  C2309  1  0.727600  0.302400  0.305600  1.0
  C  C2310  1  0.272400  0.302400  0.194400  1.0
  C  C2311  1  0.227600  0.802400  0.305600  1.0
  C  C2312  1  0.772400  0.802400  0.194400  1.0
  C  C2313  1  0.232300  0.685200  0.706200  1.0
  C  C2314  1  0.767700  0.685200  0.793800  1.0
  C  C2315  1  0.732300  0.185200  0.706200  1.0
  C  C2316  1  0.267700  0.185200  0.793800  1.0
  C  C2317  1  0.767700  0.314800  0.293800  1.0
  C  C2318  1  0.232300  0.314800  0.206200  1.0
  C  C2319  1  0.267700  0.814800  0.293800  1.0
  C  C2320  1  0.732300  0.814800  0.206200  1.0
  C  C2321  1  0.217000  0.692100  0.764300  1.0
  C  C2322  1  0.783000  0.692100  0.735700  1.0
  C  C2323  1  0.717000  0.192100  0.764300  1.0
  C  C2324  1  0.283000  0.192100  0.735700  1.0
  C  C2325  1  0.783000  0.307900  0.235700  1.0
  C  C2326  1  0.217000  0.307900  0.264300  1.0
  C  C2327  1  0.283000  0.807900  0.235700  1.0
  C  C2328  1  0.717000  0.807900  0.264300  1.0
  C  C2329  1  0.221900  0.623000  0.860600  1.0
  C  C2330  1  0.778100  0.623000  0.639400  1.0
  C  C2331  1  0.721900  0.123000  0.860600  1.0
  C  C2332  1  0.278100  0.123000  0.639400  1.0
  C  C2333  1  0.778100  0.377000  0.139400  1.0
  C  C2334  1  0.221900  0.377000  0.360600  1.0
  C  C2335  1  0.278100  0.877000  0.139400  1.0
  C  C2336  1  0.721900  0.877000  0.360600  1.0
  C  C2337  1  0.179900  0.640500  0.864200  1.0
  C  C2338  1  0.820100  0.640500  0.635800  1.0
  C  C2339  1  0.679900  0.140500  0.864200  1.0
  C  C2340  1  0.320100  0.140500  0.635800  1.0
  C  C2341  1  0.820100  0.359500  0.135800  1.0
  C  C2342  1  0.179900  0.359500  0.364200  1.0
  C  C2343  1  0.320100  0.859500  0.135800  1.0
  C  C2344  1  0.679900  0.859500  0.364200  1.0
  C  C2345  1  0.158400  0.666100  0.842200  1.0
  C  C2346  1  0.841600  0.666100  0.657800  1.0
  C  C2347  1  0.658400  0.166100  0.842200  1.0
  C  C2348  1  0.341600  0.166100  0.657800  1.0
  C  C2349  1  0.841600  0.333900  0.157800  1.0
  C  C2350  1  0.158400  0.333900  0.342200  1.0
  C  C2351  1  0.341600  0.833900  0.157800  1.0
  C  C2352  1  0.658400  0.833900  0.342200  1.0
  C  C2353  1  0.178800  0.674200  0.816600  1.0
  C  C2354  1  0.821200  0.674200  0.683400  1.0
  C  C2355  1  0.678800  0.174200  0.816600  1.0
  C  C2356  1  0.321200  0.174200  0.683400  1.0
  C  C2357  1  0.821200  0.325800  0.183400  1.0
  C  C2358  1  0.178800  0.325800  0.316600  1.0
  C  C2359  1  0.321200  0.825800  0.183400  1.0
  C  C2360  1  0.678800  0.825800  0.316600  1.0
  C  C2361  1  0.220700  0.656700  0.813000  1.0
  C  C2362  1  0.779300  0.656700  0.687000  1.0
  C  C2363  1  0.720700  0.156700  0.813000  1.0
  C  C2364  1  0.279300  0.156700  0.687000  1.0
  C  C2365  1  0.779300  0.343300  0.187000  1.0
  C  C2366  1  0.220700  0.343300  0.313000  1.0
  C  C2367  1  0.279300  0.843300  0.187000  1.0
  C  C2368  1  0.720700  0.843300  0.313000  1.0
  C  C2369  1  0.242300  0.631080  0.835000  1.0
  C  C2370  1  0.757700  0.631080  0.665000  1.0
  C  C2371  1  0.742300  0.131080  0.835000  1.0
  C  C2372  1  0.257700  0.131080  0.665000  1.0
  C  C2373  1  0.757700  0.368920  0.165000  1.0
  C  C2374  1  0.242300  0.368920  0.335000  1.0
  C  C2375  1  0.257700  0.868920  0.165000  1.0
  C  C2376  1  0.742300  0.868920  0.335000  1.0
  C  C2377  1  0.284200  0.613600  0.831400  1.0
  C  C2378  1  0.715800  0.613600  0.668600  1.0
  C  C2379  1  0.784200  0.113600  0.831400  1.0
  C  C2380  1  0.215800  0.113600  0.668600  1.0
  C  C2381  1  0.715800  0.386400  0.168600  1.0
  C  C2382  1  0.284200  0.386400  0.331400  1.0
  C  C2383  1  0.215800  0.886400  0.168600  1.0
  C  C2384  1  0.784200  0.886400  0.331400  1.0
  C  C2385  1  0.304600  0.621700  0.805800  1.0
  C  C2386  1  0.695400  0.621700  0.694200  1.0
  C  C2387  1  0.804600  0.121700  0.805800  1.0
  C  C2388  1  0.195400  0.121700  0.694200  1.0
  C  C2389  1  0.695400  0.378300  0.194200  1.0
  C  C2390  1  0.304600  0.378300  0.305800  1.0
  C  C2391  1  0.195400  0.878300  0.194200  1.0
  C  C2392  1  0.804600  0.878300  0.305800  1.0
  C  C2393  1  0.283100  0.647300  0.783800  1.0
  C  C2394  1  0.716900  0.647300  0.716200  1.0
  C  C2395  1  0.783100  0.147300  0.783800  1.0
  C  C2396  1  0.216900  0.147300  0.716200  1.0
  C  C2397  1  0.716900  0.352700  0.216200  1.0
  C  C2398  1  0.283100  0.352700  0.283800  1.0
  C  C2399  1  0.216900  0.852700  0.216200  1.0
  C  C2400  1  0.783100  0.852700  0.283800  1.0
  C  C2401  1  0.241200  0.664800  0.787400  1.0
  C  C2402  1  0.758800  0.664800  0.712600  1.0
  C  C2403  1  0.741200  0.164800  0.787400  1.0
  C  C2404  1  0.258800  0.164800  0.712600  1.0
  C  C2405  1  0.758800  0.335200  0.212600  1.0
  C  C2406  1  0.241200  0.335200  0.287400  1.0
  C  C2407  1  0.258800  0.835200  0.212600  1.0
  C  C2408  1  0.741200  0.835200  0.287400  1.0
  C  C2409  1  0.446100  0.484700  0.176800  1.0
  C  C2410  1  0.553900  0.484700  0.323200  1.0
  C  C2411  1  0.946100  0.984700  0.176800  1.0
  C  C2412  1  0.053900  0.984700  0.323200  1.0
  C  C2413  1  0.553900  0.515300  0.823200  1.0
  C  C2414  1  0.446100  0.515300  0.676800  1.0
  C  C2415  1  0.053900  0.015300  0.823200  1.0
  C  C2416  1  0.946100  0.015300  0.676800  1.0
  C  C2417  1  0.475900  0.458600  0.194000  1.0
  C  C2418  1  0.524100  0.458600  0.306000  1.0
  C  C2419  1  0.975900  0.958600  0.194000  1.0
  C  C2420  1  0.024100  0.958600  0.306000  1.0
  C  C2421  1  0.524100  0.541400  0.806000  1.0
  C  C2422  1  0.475900  0.541400  0.694000  1.0
  C  C2423  1  0.024100  0.041400  0.806000  1.0
  C  C2424  1  0.975900  0.041400  0.694000  1.0
  C  C2425  1  0.516100  0.446200  0.183500  1.0
  C  C2426  1  0.483900  0.446200  0.316500  1.0
  C  C2427  1  0.016100  0.946200  0.183500  1.0
  C  C2428  1  0.983900  0.946200  0.316500  1.0
  C  C2429  1  0.483900  0.553800  0.816500  1.0
  C  C2430  1  0.516100  0.553800  0.683500  1.0
  C  C2431  1  0.983900  0.053800  0.816500  1.0
  C  C2432  1  0.016100  0.053800  0.683500  1.0
  C  C2433  1  0.526500  0.460000  0.155900  1.0
  C  C2434  1  0.473500  0.460000  0.344100  1.0
  C  C2435  1  0.026500  0.960000  0.155900  1.0
  C  C2436  1  0.973500  0.960000  0.344100  1.0
  C  C2437  1  0.473500  0.540000  0.844100  1.0
  C  C2438  1  0.526500  0.540000  0.655900  1.0
  C  C2439  1  0.973500  0.040000  0.844100  1.0
  C  C2440  1  0.026500  0.040000  0.655900  1.0
  C  C2441  1  0.496600  0.486100  0.138700  1.0
  C  C2442  1  0.503400  0.486100  0.361300  1.0
  C  C2443  1  0.996600  0.986100  0.138700  1.0
  C  C2444  1  0.003400  0.986100  0.361300  1.0
  C  C2445  1  0.503400  0.513900  0.861300  1.0
  C  C2446  1  0.496600  0.513900  0.638700  1.0
  C  C2447  1  0.003400  0.013900  0.861300  1.0
  C  C2448  1  0.996600  0.013900  0.638700  1.0
  C  C2449  1  0.549100  0.416300  0.202700  1.0
  C  C2450  1  0.450900  0.416300  0.297300  1.0
  C  C2451  1  0.049100  0.916300  0.202700  1.0
  C  C2452  1  0.950900  0.916300  0.297300  1.0
  C  C2453  1  0.450900  0.583700  0.797300  1.0
  C  C2454  1  0.549100  0.583700  0.702700  1.0
  C  C2455  1  0.950900  0.083700  0.797300  1.0
  C  C2456  1  0.049100  0.083700  0.702700  1.0
  C  C2457  1  0.407900  0.498200  0.184000  1.0
  C  C2458  1  0.592100  0.498200  0.316000  1.0
  C  C2459  1  0.907900  0.998200  0.184000  1.0
  C  C2460  1  0.092100  0.998200  0.316000  1.0
  C  C2461  1  0.592100  0.501800  0.816000  1.0
  C  C2462  1  0.407900  0.501800  0.684000  1.0
  C  C2463  1  0.092100  0.001800  0.816000  1.0
  C  C2464  1  0.907900  0.001800  0.684000  1.0
  C  C2465  1  0.388800  0.491100  0.211200  1.0
  C  C2466  1  0.611200  0.491100  0.288800  1.0
  C  C2467  1  0.888800  0.991100  0.211200  1.0
  C  C2468  1  0.111200  0.991100  0.288800  1.0
  C  C2469  1  0.611200  0.508900  0.788800  1.0
  C  C2470  1  0.388800  0.508900  0.711200  1.0
  C  C2471  1  0.111200  0.008900  0.788800  1.0
  C  C2472  1  0.888800  0.008900  0.711200  1.0
  C  C2473  1  0.345100  0.511400  0.208100  1.0
  C  C2474  1  0.654900  0.511400  0.291900  1.0
  C  C2475  1  0.845100  0.011400  0.208100  1.0
  C  C2476  1  0.154900  0.011400  0.291900  1.0
  C  C2477  1  0.654900  0.488600  0.791900  1.0
  C  C2478  1  0.345100  0.488600  0.708100  1.0
  C  C2479  1  0.154900  0.988600  0.791900  1.0
  C  C2480  1  0.845100  0.988600  0.708100  1.0
  C  C2481  1  0.303800  0.559200  0.166600  1.0
  C  C2482  1  0.696200  0.559200  0.333400  1.0
  C  C2483  1  0.803800  0.059200  0.166600  1.0
  C  C2484  1  0.196200  0.059200  0.333400  1.0
  C  C2485  1  0.696200  0.440800  0.833400  1.0
  C  C2486  1  0.303800  0.440800  0.666600  1.0
  C  C2487  1  0.196200  0.940800  0.833400  1.0
  C  C2488  1  0.803800  0.940800  0.666600  1.0
  C  C2489  1  0.149100  0.790700  0.159900  1.0
  C  C2490  1  0.850900  0.790700  0.340100  1.0
  C  C2491  1  0.649100  0.290700  0.159900  1.0
  C  C2492  1  0.350900  0.290700  0.340100  1.0
  C  C2493  1  0.850900  0.209300  0.840100  1.0
  C  C2494  1  0.149100  0.209300  0.659900  1.0
  C  C2495  1  0.350900  0.709300  0.840100  1.0
  C  C2496  1  0.649100  0.709300  0.659900  1.0
  C  C2497  1  0.120700  0.814700  0.138700  1.0
  C  C2498  1  0.879300  0.814700  0.361300  1.0
  C  C2499  1  0.620700  0.314700  0.138700  1.0
  C  C2500  1  0.379300  0.314700  0.361300  1.0
  C  C2501  1  0.879300  0.185300  0.861300  1.0
  C  C2502  1  0.120700  0.185300  0.638700  1.0
  C  C2503  1  0.379300  0.685300  0.861300  1.0
  C  C2504  1  0.620700  0.685300  0.638700  1.0
  C  C2505  1  0.080200  0.830500  0.146200  1.0
  C  C2506  1  0.919800  0.830500  0.353800  1.0
  C  C2507  1  0.580200  0.330500  0.146200  1.0
  C  C2508  1  0.419800  0.330500  0.353800  1.0
  C  C2509  1  0.919800  0.169500  0.853800  1.0
  C  C2510  1  0.080200  0.169500  0.646200  1.0
  C  C2511  1  0.419800  0.669500  0.853800  1.0
  C  C2512  1  0.580200  0.669500  0.646200  1.0
  C  C2513  1  0.068200  0.822200  0.175000  1.0
  C  C2514  1  0.931800  0.822200  0.325000  1.0
  C  C2515  1  0.568200  0.322200  0.175000  1.0
  C  C2516  1  0.431800  0.322200  0.325000  1.0
  C  C2517  1  0.931800  0.177800  0.825000  1.0
  C  C2518  1  0.068200  0.177800  0.675000  1.0
  C  C2519  1  0.431800  0.677800  0.825000  1.0
  C  C2520  1  0.568200  0.677800  0.675000  1.0
  C  C2521  1  0.096600  0.798200  0.196300  1.0
  C  C2522  1  0.903400  0.798200  0.303700  1.0
  C  C2523  1  0.596600  0.298200  0.196300  1.0
  C  C2524  1  0.403400  0.298200  0.303700  1.0
  C  C2525  1  0.903400  0.201800  0.803700  1.0
  C  C2526  1  0.096600  0.201800  0.696300  1.0
  C  C2527  1  0.403400  0.701800  0.803700  1.0
  C  C2528  1  0.596600  0.701800  0.696300  1.0
  C  C2529  1  0.049000  0.858400  0.122500  1.0
  C  C2530  1  0.951000  0.858400  0.377500  1.0
  C  C2531  1  0.549000  0.358400  0.122500  1.0
  C  C2532  1  0.451000  0.358400  0.377500  1.0
  C  C2533  1  0.951000  0.141600  0.877500  1.0
  C  C2534  1  0.049000  0.141600  0.622500  1.0
  C  C2535  1  0.451000  0.641600  0.877500  1.0
  C  C2536  1  0.549000  0.641600  0.622500  1.0
  C  C2537  1  0.188100  0.776900  0.154500  1.0
  C  C2538  1  0.811900  0.776900  0.345500  1.0
  C  C2539  1  0.688100  0.276900  0.154500  1.0
  C  C2540  1  0.311900  0.276900  0.345500  1.0
  C  C2541  1  0.811900  0.223100  0.845500  1.0
  C  C2542  1  0.188100  0.223100  0.654500  1.0
  C  C2543  1  0.311900  0.723100  0.845500  1.0
  C  C2544  1  0.688100  0.723100  0.654500  1.0
  C  C2545  1  0.213300  0.780800  0.129700  1.0
  C  C2546  1  0.786700  0.780800  0.370300  1.0
  C  C2547  1  0.713300  0.280800  0.129700  1.0
  C  C2548  1  0.286700  0.280800  0.370300  1.0
  C  C2549  1  0.786700  0.219200  0.870300  1.0
  C  C2550  1  0.213300  0.219200  0.629700  1.0
  C  C2551  1  0.286700  0.719200  0.870300  1.0
  C  C2552  1  0.713300  0.719200  0.629700  1.0
  C  C2553  1  0.257800  0.760600  0.138500  1.0
  C  C2554  1  0.742200  0.760600  0.361500  1.0
  C  C2555  1  0.757800  0.260600  0.138500  1.0
  C  C2556  1  0.242200  0.260600  0.361500  1.0
  C  C2557  1  0.742200  0.239400  0.861500  1.0
  C  C2558  1  0.257800  0.239400  0.638500  1.0
  C  C2559  1  0.242200  0.739400  0.861500  1.0
  C  C2560  1  0.757800  0.739400  0.638500  1.0
  C  C2561  1  0.293900  0.717900  0.184800  1.0
  C  C2562  1  0.706100  0.717900  0.315200  1.0
  C  C2563  1  0.793900  0.217900  0.184800  1.0
  C  C2564  1  0.206100  0.217900  0.315200  1.0
  C  C2565  1  0.706100  0.282100  0.815200  1.0
  C  C2566  1  0.293900  0.282100  0.684800  1.0
  C  C2567  1  0.206100  0.782100  0.815200  1.0
  C  C2568  1  0.793900  0.782100  0.684800  1.0
  C  C2569  1  0.322500  0.594000  0.180200  1.0
  C  C2570  1  0.677500  0.594000  0.319800  1.0
  C  C2571  1  0.822500  0.094000  0.180200  1.0
  C  C2572  1  0.177500  0.094000  0.319800  1.0
  C  C2573  1  0.677500  0.406000  0.819800  1.0
  C  C2574  1  0.322500  0.406000  0.680200  1.0
  C  C2575  1  0.177500  0.906000  0.819800  1.0
  C  C2576  1  0.822500  0.906000  0.680200  1.0
  C  C2577  1  0.368800  0.597600  0.203900  1.0
  C  C2578  1  0.631200  0.597600  0.296100  1.0
  C  C2579  1  0.868800  0.097600  0.203900  1.0
  C  C2580  1  0.131200  0.097600  0.296100  1.0
  C  C2581  1  0.631200  0.402400  0.796100  1.0
  C  C2582  1  0.368800  0.402400  0.703900  1.0
  C  C2583  1  0.131200  0.902400  0.796100  1.0
  C  C2584  1  0.868800  0.902400  0.703900  1.0
  C  C2585  1  0.384800  0.629400  0.216600  1.0
  C  C2586  1  0.615200  0.629400  0.283400  1.0
  C  C2587  1  0.884800  0.129400  0.216600  1.0
  C  C2588  1  0.115200  0.129400  0.283400  1.0
  C  C2589  1  0.615200  0.370600  0.783400  1.0
  C  C2590  1  0.384800  0.370600  0.716600  1.0
  C  C2591  1  0.115200  0.870600  0.783400  1.0
  C  C2592  1  0.884800  0.870600  0.716600  1.0
  C  C2593  1  0.354600  0.657700  0.205700  1.0
  C  C2594  1  0.645400  0.657700  0.294300  1.0
  C  C2595  1  0.854600  0.157700  0.205700  1.0
  C  C2596  1  0.145400  0.157700  0.294300  1.0
  C  C2597  1  0.645400  0.342300  0.794300  1.0
  C  C2598  1  0.354600  0.342300  0.705700  1.0
  C  C2599  1  0.145400  0.842300  0.794300  1.0
  C  C2600  1  0.854600  0.842300  0.705700  1.0
  C  C2601  1  0.308300  0.654000  0.182000  1.0
  C  C2602  1  0.691700  0.654000  0.318000  1.0
  C  C2603  1  0.808300  0.154000  0.182000  1.0
  C  C2604  1  0.191700  0.154000  0.318000  1.0
  C  C2605  1  0.691700  0.346000  0.818000  1.0
  C  C2606  1  0.308300  0.346000  0.682000  1.0
  C  C2607  1  0.191700  0.846000  0.818000  1.0
  C  C2608  1  0.808300  0.846000  0.682000  1.0
  C  C2609  1  0.292300  0.622200  0.169200  1.0
  C  C2610  1  0.707700  0.622200  0.330800  1.0
  C  C2611  1  0.792300  0.122200  0.169200  1.0
  C  C2612  1  0.207700  0.122200  0.330800  1.0
  C  C2613  1  0.707700  0.377800  0.830800  1.0
  C  C2614  1  0.292300  0.377800  0.669200  1.0
  C  C2615  1  0.207700  0.877800  0.830800  1.0
  C  C2616  1  0.792300  0.877800  0.669200  1.0
  C  C2617  1  0.246100  0.618600  0.145500  1.0
  C  C2618  1  0.753900  0.618600  0.354500  1.0
  C  C2619  1  0.746100  0.118600  0.145500  1.0
  C  C2620  1  0.253900  0.118600  0.354500  1.0
  C  C2621  1  0.753900  0.381400  0.854500  1.0
  C  C2622  1  0.246100  0.381400  0.645500  1.0
  C  C2623  1  0.253900  0.881400  0.854500  1.0
  C  C2624  1  0.746100  0.881400  0.645500  1.0
  C  C2625  1  0.215800  0.646800  0.134500  1.0
  C  C2626  1  0.784200  0.646800  0.365500  1.0
  C  C2627  1  0.715800  0.146800  0.134500  1.0
  C  C2628  1  0.284200  0.146800  0.365500  1.0
  C  C2629  1  0.784200  0.353200  0.865500  1.0
  C  C2630  1  0.215800  0.353200  0.634500  1.0
  C  C2631  1  0.284200  0.853200  0.865500  1.0
  C  C2632  1  0.715800  0.853200  0.634500  1.0
  C  C2633  1  0.231800  0.678600  0.147300  1.0
  C  C2634  1  0.768200  0.678600  0.352700  1.0
  C  C2635  1  0.731800  0.178600  0.147300  1.0
  C  C2636  1  0.268200  0.178600  0.352700  1.0
  C  C2637  1  0.768200  0.321400  0.852700  1.0
  C  C2638  1  0.231800  0.321400  0.647300  1.0
  C  C2639  1  0.268200  0.821400  0.852700  1.0
  C  C2640  1  0.731800  0.821400  0.647300  1.0
  C  C2641  1  0.278100  0.682300  0.171000  1.0
  C  C2642  1  0.721900  0.682300  0.329000  1.0
  C  C2643  1  0.778100  0.182300  0.171000  1.0
  C  C2644  1  0.221900  0.182300  0.329000  1.0
  C  C2645  1  0.721900  0.317700  0.829000  1.0
  C  C2646  1  0.278100  0.317700  0.671000  1.0
  C  C2647  1  0.221900  0.817700  0.829000  1.0
  C  C2648  1  0.778100  0.817700  0.671000  1.0
  C  C2649  1  0.139100  0.564200  0.810100  1.0
  C  C2650  1  0.860900  0.564200  0.689900  1.0
  C  C2651  1  0.639100  0.064200  0.810100  1.0
  C  C2652  1  0.360900  0.064200  0.689900  1.0
  C  C2653  1  0.860900  0.435800  0.189900  1.0
  C  C2654  1  0.139100  0.435800  0.310100  1.0
  C  C2655  1  0.360900  0.935800  0.189900  1.0
  C  C2656  1  0.639100  0.935800  0.310100  1.0
  C  C2657  1  0.160000  0.570200  0.784300  1.0
  C  C2658  1  0.840000  0.570200  0.715700  1.0
  C  C2659  1  0.660000  0.070200  0.784300  1.0
  C  C2660  1  0.340000  0.070200  0.715700  1.0
  C  C2661  1  0.840000  0.429800  0.215700  1.0
  C  C2662  1  0.160000  0.429800  0.284300  1.0
  C  C2663  1  0.340000  0.929800  0.215700  1.0
  C  C2664  1  0.660000  0.929800  0.284300  1.0
  C  C2665  1  0.201200  0.551200  0.781700  1.0
  C  C2666  1  0.798800  0.551200  0.718300  1.0
  C  C2667  1  0.701200  0.051200  0.781700  1.0
  C  C2668  1  0.298800  0.051200  0.718300  1.0
  C  C2669  1  0.798800  0.448800  0.218300  1.0
  C  C2670  1  0.201200  0.448800  0.281700  1.0
  C  C2671  1  0.298800  0.948800  0.218300  1.0
  C  C2672  1  0.701200  0.948800  0.281700  1.0
  C  C2673  1  0.221500  0.526200  0.804700  1.0
  C  C2674  1  0.778500  0.526200  0.695300  1.0
  C  C2675  1  0.721500  0.026200  0.804700  1.0
  C  C2676  1  0.278500  0.026200  0.695300  1.0
  C  C2677  1  0.778500  0.473800  0.195300  1.0
  C  C2678  1  0.221500  0.473800  0.304700  1.0
  C  C2679  1  0.278500  0.973800  0.195300  1.0
  C  C2680  1  0.721500  0.973800  0.304700  1.0
  C  C2681  1  0.200500  0.520200  0.830500  1.0
  C  C2682  1  0.799500  0.520200  0.669500  1.0
  C  C2683  1  0.700500  0.020200  0.830500  1.0
  C  C2684  1  0.299500  0.020200  0.669500  1.0
  C  C2685  1  0.799500  0.479800  0.169500  1.0
  C  C2686  1  0.200500  0.479800  0.330500  1.0
  C  C2687  1  0.299500  0.979800  0.169500  1.0
  C  C2688  1  0.700500  0.979800  0.330500  1.0
  C  C2689  1  0.224300  0.557900  0.752300  1.0
  C  C2690  1  0.775700  0.557900  0.747700  1.0
  C  C2691  1  0.724300  0.057900  0.752300  1.0
  C  C2692  1  0.275700  0.057900  0.747700  1.0
  C  C2693  1  0.775700  0.442100  0.247700  1.0
  C  C2694  1  0.224300  0.442100  0.252300  1.0
  C  C2695  1  0.275700  0.942100  0.247700  1.0
  C  C2696  1  0.724300  0.942100  0.252300  1.0
  C  C2697  1  0.098700  0.581200  0.812700  1.0
  C  C2698  1  0.901300  0.581200  0.687300  1.0
  C  C2699  1  0.598700  0.081200  0.812700  1.0
  C  C2700  1  0.401300  0.081200  0.687300  1.0
  C  C2701  1  0.901300  0.418800  0.187300  1.0
  C  C2702  1  0.098700  0.418800  0.312700  1.0
  C  C2703  1  0.401300  0.918800  0.187300  1.0
  C  C2704  1  0.598700  0.918800  0.312700  1.0
  C  C2705  1  0.064900  0.604600  0.792300  1.0
  C  C2706  1  0.935100  0.604600  0.707700  1.0
  C  C2707  1  0.564900  0.104600  0.792300  1.0
  C  C2708  1  0.435100  0.104600  0.707700  1.0
  C  C2709  1  0.935100  0.395400  0.207700  1.0
  C  C2710  1  0.064900  0.395400  0.292300  1.0
  C  C2711  1  0.435100  0.895400  0.207700  1.0
  C  C2712  1  0.564900  0.895400  0.292300  1.0
  C  C2713  1  0.025800  0.611800  0.807200  1.0
  C  C2714  1  0.974200  0.611800  0.692800  1.0
  C  C2715  1  0.525800  0.111800  0.807200  1.0
  C  C2716  1  0.474200  0.111800  0.692800  1.0
  C  C2717  1  0.974200  0.388200  0.192800  1.0
  C  C2718  1  0.025800  0.388200  0.307200  1.0
  C  C2719  1  0.474200  0.888200  0.192800  1.0
  C  C2720  1  0.525800  0.888200  0.307200  1.0
  C  C2721  1  0.011200  0.595200  0.862400  1.0
  C  C2722  1  0.988800  0.595200  0.637600  1.0
  C  C2723  1  0.511200  0.095200  0.862400  1.0
  C  C2724  1  0.488800  0.095200  0.637600  1.0
  C  C2725  1  0.988800  0.404800  0.137600  1.0
  C  C2726  1  0.011200  0.404800  0.362400  1.0
  C  C2727  1  0.488800  0.904800  0.137600  1.0
  C  C2728  1  0.511200  0.904800  0.362400  1.0
  C  C2729  1  0.890000  0.730200  0.024400  1.0
  C  C2730  1  0.110000  0.730200  0.475600  1.0
  C  C2731  1  0.390000  0.230200  0.024400  1.0
  C  C2732  1  0.610000  0.230200  0.475600  1.0
  C  C2733  1  0.110000  0.269800  0.975600  1.0
  C  C2734  1  0.890000  0.269800  0.524400  1.0
  C  C2735  1  0.610000  0.769800  0.975600  1.0
  C  C2736  1  0.390000  0.769800  0.524400  1.0
  C  C2737  1  0.867700  0.732400  0.050000  1.0
  C  C2738  1  0.132300  0.732400  0.450000  1.0
  C  C2739  1  0.367700  0.232400  0.050000  1.0
  C  C2740  1  0.632300  0.232400  0.450000  1.0
  C  C2741  1  0.132300  0.267600  0.950000  1.0
  C  C2742  1  0.867700  0.267600  0.550000  1.0
  C  C2743  1  0.632300  0.767600  0.950000  1.0
  C  C2744  1  0.367700  0.767600  0.550000  1.0
  C  C2745  1  0.826300  0.753600  0.047100  1.0
  C  C2746  1  0.173700  0.753600  0.452900  1.0
  C  C2747  1  0.326300  0.253600  0.047100  1.0
  C  C2748  1  0.673700  0.253600  0.452900  1.0
  C  C2749  1  0.173700  0.246400  0.952900  1.0
  C  C2750  1  0.826300  0.246400  0.547100  1.0
  C  C2751  1  0.673700  0.746400  0.952900  1.0
  C  C2752  1  0.326300  0.746400  0.547100  1.0
  C  C2753  1  0.807300  0.772600  0.018700  1.0
  C  C2754  1  0.192700  0.772600  0.481300  1.0
  C  C2755  1  0.307300  0.272600  0.018700  1.0
  C  C2756  1  0.692700  0.272600  0.481300  1.0
  C  C2757  1  0.192700  0.227400  0.981300  1.0
  C  C2758  1  0.807300  0.227400  0.518700  1.0
  C  C2759  1  0.692700  0.727400  0.981300  1.0
  C  C2760  1  0.307300  0.727400  0.518700  1.0
  C  C2761  1  0.829500  0.770300  0.993100  1.0
  C  C2762  1  0.170500  0.770300  0.506900  1.0
  C  C2763  1  0.329500  0.270300  0.993100  1.0
  C  C2764  1  0.670500  0.270300  0.506900  1.0
  C  C2765  1  0.170500  0.229700  0.006900  1.0
  C  C2766  1  0.829500  0.229700  0.493100  1.0
  C  C2767  1  0.670500  0.729700  0.006900  1.0
  C  C2768  1  0.329500  0.729700  0.493100  1.0
  C  C2769  1  0.799800  0.755300  0.075400  1.0
  C  C2770  1  0.200200  0.755300  0.424600  1.0
  C  C2771  1  0.299800  0.255300  0.075400  1.0
  C  C2772  1  0.700200  0.255300  0.424600  1.0
  C  C2773  1  0.200200  0.244700  0.924600  1.0
  C  C2774  1  0.799800  0.244700  0.575400  1.0
  C  C2775  1  0.700200  0.744700  0.924600  1.0
  C  C2776  1  0.299800  0.744700  0.575400  1.0
  C  C2777  1  0.933000  0.711600  0.028100  1.0
  C  C2778  1  0.067000  0.711600  0.471900  1.0
  C  C2779  1  0.433000  0.211600  0.028100  1.0
  C  C2780  1  0.567000  0.211600  0.471900  1.0
  C  C2781  1  0.067000  0.288400  0.971900  1.0
  C  C2782  1  0.933000  0.288400  0.528100  1.0
  C  C2783  1  0.567000  0.788400  0.971900  1.0
  C  C2784  1  0.433000  0.788400  0.528100  1.0
  C  C2785  1  0.962600  0.688600  0.051500  1.0
  C  C2786  1  0.037400  0.688600  0.448500  1.0
  C  C2787  1  0.462600  0.188600  0.051500  1.0
  C  C2788  1  0.537400  0.188600  0.448500  1.0
  C  C2789  1  0.037400  0.311400  0.948500  1.0
  C  C2790  1  0.962600  0.311400  0.551500  1.0
  C  C2791  1  0.537400  0.811400  0.948500  1.0
  C  C2792  1  0.462600  0.811400  0.551500  1.0
  C  C2793  1  0.001200  0.675600  0.038600  1.0
  C  C2794  1  0.998800  0.675600  0.461400  1.0
  C  C2795  1  0.501200  0.175600  0.038600  1.0
  C  C2796  1  0.498800  0.175600  0.461400  1.0
  C  C2797  1  0.998800  0.324400  0.961400  1.0
  C  C2798  1  0.001200  0.324400  0.538600  1.0
  C  C2799  1  0.498800  0.824400  0.961400  1.0
  C  C2800  1  0.501200  0.824400  0.538600  1.0
  C  C2801  1  0.024300  0.685600  0.986000  1.0
  C  C2802  1  0.975700  0.685600  0.514000  1.0
  C  C2803  1  0.524300  0.185600  0.986000  1.0
  C  C2804  1  0.475700  0.185600  0.514000  1.0
  C  C2805  1  0.975700  0.314400  0.014000  1.0
  C  C2806  1  0.024300  0.314400  0.486000  1.0
  C  C2807  1  0.475700  0.814400  0.014000  1.0
  C  C2808  1  0.524300  0.814400  0.486000  1.0
  C  C2809  1  0.028000  0.621500  0.886700  1.0
  C  C2810  1  0.972000  0.621500  0.613300  1.0
  C  C2811  1  0.528000  0.121500  0.886700  1.0
  C  C2812  1  0.472000  0.121500  0.613300  1.0
  C  C2813  1  0.972000  0.378500  0.113300  1.0
  C  C2814  1  0.028000  0.378500  0.386700  1.0
  C  C2815  1  0.472000  0.878500  0.113300  1.0
  C  C2816  1  0.528000  0.878500  0.386700  1.0
  C  C2817  1  0.068200  0.641400  0.883900  1.0
  C  C2818  1  0.931800  0.641400  0.616100  1.0
  C  C2819  1  0.568200  0.141400  0.883900  1.0
  C  C2820  1  0.431800  0.141400  0.616100  1.0
  C  C2821  1  0.931800  0.358600  0.116100  1.0
  C  C2822  1  0.068200  0.358600  0.383900  1.0
  C  C2823  1  0.431800  0.858600  0.116100  1.0
  C  C2824  1  0.568200  0.858600  0.383900  1.0
  C  C2825  1  0.087300  0.666667  0.907000  1.0
  C  C2826  1  0.912700  0.666667  0.593000  1.0
  C  C2827  1  0.587300  0.166667  0.907000  1.0
  C  C2828  1  0.412700  0.166667  0.593000  1.0
  C  C2829  1  0.912700  0.333333  0.093000  1.0
  C  C2830  1  0.087300  0.333333  0.407000  1.0
  C  C2831  1  0.412700  0.833333  0.093000  1.0
  C  C2832  1  0.587300  0.833333  0.407000  1.0
  C  C2833  1  0.066100  0.672000  0.932800  1.0
  C  C2834  1  0.933900  0.672000  0.567200  1.0
  C  C2835  1  0.566100  0.172000  0.932800  1.0
  C  C2836  1  0.433900  0.172000  0.567200  1.0
  C  C2837  1  0.933900  0.328000  0.067200  1.0
  C  C2838  1  0.066100  0.328000  0.432800  1.0
  C  C2839  1  0.433900  0.828000  0.067200  1.0
  C  C2840  1  0.566100  0.828000  0.432800  1.0
  C  C2841  1  0.025900  0.652000  0.935500  1.0
  C  C2842  1  0.974100  0.652000  0.564500  1.0
  C  C2843  1  0.525900  0.152000  0.935500  1.0
  C  C2844  1  0.474100  0.152000  0.564500  1.0
  C  C2845  1  0.974100  0.348000  0.064500  1.0
  C  C2846  1  0.025900  0.348000  0.435500  1.0
  C  C2847  1  0.474100  0.848000  0.064500  1.0
  C  C2848  1  0.525900  0.848000  0.435500  1.0
  C  C2849  1  0.006900  0.626800  0.912500  1.0
  C  C2850  1  0.993100  0.626800  0.587500  1.0
  C  C2851  1  0.506900  0.126800  0.912500  1.0
  C  C2852  1  0.493100  0.126800  0.587500  1.0
  C  C2853  1  0.993100  0.373200  0.087500  1.0
  C  C2854  1  0.006900  0.373200  0.412500  1.0
  C  C2855  1  0.493100  0.873200  0.087500  1.0
  C  C2856  1  0.506900  0.873200  0.412500  1.0
  C  C2857  1  0.966700  0.606800  0.915300  1.0
  C  C2858  1  0.033300  0.606800  0.584700  1.0
  C  C2859  1  0.466700  0.106800  0.915300  1.0
  C  C2860  1  0.533300  0.106800  0.584700  1.0
  C  C2861  1  0.033300  0.393200  0.084700  1.0
  C  C2862  1  0.966700  0.393200  0.415300  1.0
  C  C2863  1  0.533300  0.893200  0.084700  1.0
  C  C2864  1  0.466700  0.893200  0.415300  1.0
  C  C2865  1  0.945500  0.612100  0.941100  1.0
  C  C2866  1  0.054500  0.612100  0.558900  1.0
  C  C2867  1  0.445500  0.112100  0.941100  1.0
  C  C2868  1  0.554500  0.112100  0.558900  1.0
  C  C2869  1  0.054500  0.387900  0.058900  1.0
  C  C2870  1  0.945500  0.387900  0.441100  1.0
  C  C2871  1  0.554500  0.887900  0.058900  1.0
  C  C2872  1  0.445500  0.887900  0.441100  1.0
  C  C2873  1  0.964600  0.637400  0.964100  1.0
  C  C2874  1  0.035400  0.637400  0.535900  1.0
  C  C2875  1  0.464600  0.137400  0.964100  1.0
  C  C2876  1  0.535400  0.137400  0.535900  1.0
  C  C2877  1  0.035400  0.362600  0.035900  1.0
  C  C2878  1  0.964600  0.362600  0.464100  1.0
  C  C2879  1  0.535400  0.862600  0.035900  1.0
  C  C2880  1  0.464600  0.862600  0.464100  1.0
  C  C2881  1  0.004800  0.657300  0.961300  1.0
  C  C2882  1  0.995200  0.657300  0.538700  1.0
  C  C2883  1  0.504800  0.157300  0.961300  1.0
  C  C2884  1  0.495200  0.157300  0.538700  1.0
  C  C2885  1  0.995200  0.342700  0.038700  1.0
  C  C2886  1  0.004800  0.342700  0.461300  1.0
  C  C2887  1  0.495200  0.842700  0.038700  1.0
  C  C2888  1  0.504800  0.842700  0.461300  1.0
  S  S2889  1  0.878300  0.747600  0.517600  1
  S  S2890  1  0.121700  0.747600  0.982400  1
  S  S2891  1  0.378300  0.247600  0.517600  1
  S  S2892  1  0.621700  0.247600  0.982400  1
  S  S2893  1  0.121700  0.252400  0.482400  1
  S  S2894  1  0.878300  0.252400  0.017600  1
  S  S2895  1  0.621700  0.752400  0.482400  1
  S  S2896  1  0.378300  0.752400  0.017600  1
  S  S2897  1  0.803500  0.709900  0.548300  1
  S  S2898  1  0.196500  0.709900  0.951700  1
  S  S2899  1  0.303500  0.209900  0.548300  1
  S  S2900  1  0.696500  0.209900  0.951700  1
  S  S2901  1  0.196500  0.290100  0.451700  1
  S  S2902  1  0.803500  0.290100  0.048300  1
  S  S2903  1  0.696500  0.790100  0.451700  1
  S  S2904  1  0.303500  0.790100  0.048300  1
  N  N2905  1  0.631900  0.803200  0.061500  1.0
  N  N2906  1  0.368100  0.803200  0.438500  1.0
  N  N2907  1  0.131900  0.303200  0.061500  1.0
  N  N2908  1  0.868100  0.303200  0.438500  1.0
  N  N2909  1  0.368100  0.196800  0.938500  1.0
  N  N2910  1  0.631900  0.196800  0.561500  1.0
  N  N2911  1  0.868100  0.696800  0.938500  1.0
  N  N2912  1  0.131900  0.696800  0.561500  1.0
  N  N2913  1  0.519300  0.764400  0.093300  1.0
  N  N2914  1  0.480700  0.764400  0.406700  1.0
  N  N2915  1  0.019300  0.264400  0.093300  1.0
  N  N2916  1  0.980700  0.264400  0.406700  1.0
  N  N2917  1  0.480700  0.235600  0.906700  1.0
  N  N2918  1  0.519300  0.235600  0.593300  1.0
  N  N2919  1  0.980700  0.735600  0.906700  1.0
  N  N2920  1  0.019300  0.735600  0.593300  1.0
  N  N2921  1  0.558700  0.774800  0.079900  1.0
  N  N2922  1  0.441300  0.774800  0.420100  1.0
  N  N2923  1  0.058700  0.274800  0.079900  1.0
  N  N2924  1  0.941300  0.274800  0.420100  1.0
  N  N2925  1  0.441300  0.225200  0.920100  1.0
  N  N2926  1  0.558700  0.225200  0.579900  1.0
  N  N2927  1  0.941300  0.725200  0.920100  1.0
  N  N2928  1  0.058700  0.725200  0.579900  1.0
  N  N2929  1  0.356800  0.502500  0.091500  1.0
  N  N2930  1  0.643200  0.502500  0.408500  1.0
  N  N2931  1  0.856800  0.002500  0.091500  1.0
  N  N2932  1  0.143200  0.002500  0.408500  1.0
  N  N2933  1  0.643200  0.497500  0.908500  1.0
  N  N2934  1  0.356800  0.497500  0.591500  1.0
  N  N2935  1  0.143200  0.997500  0.908500  1.0
  N  N2936  1  0.856800  0.997500  0.591500  1.0
  N  N2937  1  0.478900  0.549100  0.075800  1.0
  N  N2938  1  0.521100  0.549100  0.424200  1.0
  N  N2939  1  0.978900  0.049100  0.075800  1.0
  N  N2940  1  0.021100  0.049100  0.424200  1.0
  N  N2941  1  0.521100  0.450900  0.924200  1.0
  N  N2942  1  0.478900  0.450900  0.575800  1.0
  N  N2943  1  0.021100  0.950900  0.924200  1.0
  N  N2944  1  0.978900  0.950900  0.575800  1.0
  N  N2945  1  0.435300  0.536500  0.083600  1.0
  N  N2946  1  0.564700  0.536500  0.416400  1.0
  N  N2947  1  0.935300  0.036500  0.083600  1.0
  N  N2948  1  0.064700  0.036500  0.416400  1.0
  N  N2949  1  0.564700  0.463500  0.916400  1.0
  N  N2950  1  0.435300  0.463500  0.583600  1.0
  N  N2951  1  0.064700  0.963500  0.916400  1.0
  N  N2952  1  0.935300  0.963500  0.583600  1.0
  N  N2953  1  0.643600  0.725900  0.076500  1.0
  N  N2954  1  0.356400  0.725900  0.423500  1.0
  N  N2955  1  0.143600  0.225900  0.076500  1.0
  N  N2956  1  0.856400  0.225900  0.423500  1.0
  N  N2957  1  0.356400  0.274100  0.923500  1.0
  N  N2958  1  0.643600  0.274100  0.576500  1.0
  N  N2959  1  0.856400  0.774100  0.923500  1.0
  N  N2960  1  0.143600  0.774100  0.576500  1.0
  N  N2961  1  0.515100  0.693400  0.007600  1.0
  N  N2962  1  0.484900  0.693400  0.492400  1.0
  N  N2963  1  0.015100  0.193400  0.007600  1.0
  N  N2964  1  0.984900  0.193400  0.492400  1.0
  N  N2965  1  0.484900  0.306600  0.992400  1.0
  N  N2966  1  0.515100  0.306600  0.507600  1.0
  N  N2967  1  0.984900  0.806600  0.992400  1.0
  N  N2968  1  0.015100  0.806600  0.507600  1.0
  N  N2969  1  0.556700  0.709700  0.030000  1.0
  N  N2970  1  0.443300  0.709700  0.470000  1.0
  N  N2971  1  0.056700  0.209700  0.030000  1.0
  N  N2972  1  0.943300  0.209700  0.470000  1.0
  N  N2973  1  0.443300  0.290300  0.970000  1.0
  N  N2974  1  0.556700  0.290300  0.530000  1.0
  N  N2975  1  0.943300  0.790300  0.970000  1.0
  N  N2976  1  0.056700  0.790300  0.530000  1.0
  N  N2977  1  0.271900  0.798300  0.761300  1.0
  N  N2978  1  0.728100  0.798300  0.738700  1.0
  N  N2979  1  0.771900  0.298300  0.761300  1.0
  N  N2980  1  0.228100  0.298300  0.738700  1.0
  N  N2981  1  0.728100  0.201700  0.238700  1.0
  N  N2982  1  0.271900  0.201700  0.261300  1.0
  N  N2983  1  0.228100  0.701700  0.238700  1.0
  N  N2984  1  0.771900  0.701700  0.261300  1.0
  N  N2985  1  0.403100  0.808500  0.830200  1.0
  N  N2986  1  0.596900  0.808500  0.669800  1.0
  N  N2987  1  0.903100  0.308500  0.830200  1.0
  N  N2988  1  0.096900  0.308500  0.669800  1.0
  N  N2989  1  0.596900  0.191500  0.169800  1.0
  N  N2990  1  0.403100  0.191500  0.330200  1.0
  N  N2991  1  0.096900  0.691500  0.169800  1.0
  N  N2992  1  0.903100  0.691500  0.330200  1.0
  N  N2993  1  0.356400  0.801300  0.806500  1.0
  N  N2994  1  0.643600  0.801300  0.693500  1.0
  N  N2995  1  0.856400  0.301300  0.806500  1.0
  N  N2996  1  0.143600  0.301300  0.693500  1.0
  N  N2997  1  0.643600  0.198700  0.193500  1.0
  N  N2998  1  0.356400  0.198700  0.306500  1.0
  N  N2999  1  0.143600  0.698700  0.193500  1.0
  N  N3000  1  0.856400  0.698700  0.306500  1.0
  N  N3001  1  0.445500  0.580100  0.150700  1.0
  N  N3002  1  0.554500  0.580100  0.349300  1.0
  N  N3003  1  0.945500  0.080100  0.150700  1.0
  N  N3004  1  0.054500  0.080100  0.349300  1.0
  N  N3005  1  0.554500  0.419900  0.849300  1.0
  N  N3006  1  0.445500  0.419900  0.650700  1.0
  N  N3007  1  0.054500  0.919900  0.849300  1.0
  N  N3008  1  0.945500  0.919900  0.650700  1.0
  N  N3009  1  0.305400  0.591000  0.084900  1.0
  N  N3010  1  0.694600  0.591000  0.415100  1.0
  N  N3011  1  0.805400  0.091000  0.084900  1.0
  N  N3012  1  0.194600  0.091000  0.415100  1.0
  N  N3013  1  0.694600  0.409000  0.915100  1.0
  N  N3014  1  0.305400  0.409000  0.584900  1.0
  N  N3015  1  0.194600  0.909000  0.915100  1.0
  N  N3016  1  0.805400  0.909000  0.584900  1.0
  N  N3017  1  0.353000  0.581900  0.106600  1.0
  N  N3018  1  0.647000  0.581900  0.393400  1.0
  N  N3019  1  0.853000  0.081900  0.106600  1.0
  N  N3020  1  0.147000  0.081900  0.393400  1.0
  N  N3021  1  0.647000  0.418100  0.893400  1.0
  N  N3022  1  0.353000  0.418100  0.606600  1.0
  N  N3023  1  0.147000  0.918100  0.893400  1.0
  N  N3024  1  0.853000  0.918100  0.606600  1.0
  N  N3025  1  0.069300  0.496600  0.845900  1.0
  N  N3026  1  0.930700  0.496600  0.654100  1.0
  N  N3027  1  0.569300  0.996600  0.845900  1.0
  N  N3028  1  0.430700  0.996600  0.654100  1.0
  N  N3029  1  0.930700  0.503400  0.154100  1.0
  N  N3030  1  0.069300  0.503400  0.345900  1.0
  N  N3031  1  0.430700  0.003400  0.154100  1.0
  N  N3032  1  0.569300  0.003400  0.345900  1.0
  N  N3033  1  0.207400  0.475800  0.909300  1.0
  N  N3034  1  0.792600  0.475800  0.590700  1.0
  N  N3035  1  0.707400  0.975800  0.909300  1.0
  N  N3036  1  0.292600  0.975800  0.590700  1.0
  N  N3037  1  0.792600  0.524200  0.090700  1.0
  N  N3038  1  0.207400  0.524200  0.409300  1.0
  N  N3039  1  0.292600  0.024200  0.090700  1.0
  N  N3040  1  0.707400  0.024200  0.409300  1.0
  N  N3041  1  0.160100  0.486100  0.888000  1.0
  N  N3042  1  0.839900  0.486100  0.612000  1.0
  N  N3043  1  0.660100  0.986100  0.888000  1.0
  N  N3044  1  0.339900  0.986100  0.612000  1.0
  N  N3045  1  0.839900  0.513900  0.112000  1.0
  N  N3046  1  0.160100  0.513900  0.388000  1.0
  N  N3047  1  0.339900  0.013900  0.112000  1.0
  N  N3048  1  0.660100  0.013900  0.388000  1.0
  N  N3049  1  0.088900  0.537700  0.910400  1.0
  N  N3050  1  0.911100  0.537700  0.589600  1.0
  N  N3051  1  0.588900  0.037700  0.910400  1.0
  N  N3052  1  0.411100  0.037700  0.589600  1.0
  N  N3053  1  0.911100  0.462300  0.089600  1.0
  N  N3054  1  0.088900  0.462300  0.410400  1.0
  N  N3055  1  0.411100  0.962300  0.089600  1.0
  N  N3056  1  0.588900  0.962300  0.410400  1.0
  N  N3057  1  0.216500  0.589700  0.908900  1.0
  N  N3058  1  0.783500  0.589700  0.591100  1.0
  N  N3059  1  0.716500  0.089700  0.908900  1.0
  N  N3060  1  0.283500  0.089700  0.591100  1.0
  N  N3061  1  0.783500  0.410300  0.091100  1.0
  N  N3062  1  0.216500  0.410300  0.408900  1.0
  N  N3063  1  0.283500  0.910300  0.091100  1.0
  N  N3064  1  0.716500  0.910300  0.408900  1.0
  N  N3065  1  0.171800  0.570500  0.905800  1.0
  N  N3066  1  0.828200  0.570500  0.594200  1.0
  N  N3067  1  0.671800  0.070500  0.905800  1.0
  N  N3068  1  0.328200  0.070500  0.594200  1.0
  N  N3069  1  0.828200  0.429500  0.094200  1.0
  N  N3070  1  0.171800  0.429500  0.405800  1.0
  N  N3071  1  0.328200  0.929500  0.094200  1.0
  N  N3072  1  0.671800  0.929500  0.405800  1.0
  N  N3073  1  0.360900  0.759300  0.747300  1.0
  N  N3074  1  0.639100  0.759300  0.752700  1.0
  N  N3075  1  0.860900  0.259300  0.747300  1.0
  N  N3076  1  0.139100  0.259300  0.752700  1.0
  N  N3077  1  0.639100  0.240700  0.252700  1.0
  N  N3078  1  0.360900  0.240700  0.247300  1.0
  N  N3079  1  0.139100  0.740700  0.252700  1.0
  N  N3080  1  0.860900  0.740700  0.247300  1.0
  N  N3081  1  0.237300  0.699800  0.737600  1.0
  N  N3082  1  0.762700  0.699800  0.762400  1.0
  N  N3083  1  0.737300  0.199800  0.737600  1.0
  N  N3084  1  0.262700  0.199800  0.762400  1.0
  N  N3085  1  0.762700  0.300200  0.262400  1.0
  N  N3086  1  0.237300  0.300200  0.237600  1.0
  N  N3087  1  0.262700  0.800200  0.262400  1.0
  N  N3088  1  0.737300  0.800200  0.237600  1.0
  N  N3089  1  0.280400  0.721300  0.745200  1.0
  N  N3090  1  0.719600  0.721300  0.754800  1.0
  N  N3091  1  0.780400  0.221300  0.745200  1.0
  N  N3092  1  0.219600  0.221300  0.754800  1.0
  N  N3093  1  0.719600  0.278700  0.254800  1.0
  N  N3094  1  0.280400  0.278700  0.245200  1.0
  N  N3095  1  0.219600  0.778700  0.254800  1.0
  N  N3096  1  0.780400  0.778700  0.245200  1.0
  N  N3097  1  0.456400  0.498500  0.149200  1.0
  N  N3098  1  0.543600  0.498500  0.350800  1.0
  N  N3099  1  0.956400  0.998500  0.149200  1.0
  N  N3100  1  0.043600  0.998500  0.350800  1.0
  N  N3101  1  0.543600  0.501500  0.850800  1.0
  N  N3102  1  0.456400  0.501500  0.649200  1.0
  N  N3103  1  0.043600  0.001500  0.850800  1.0
  N  N3104  1  0.956400  0.001500  0.649200  1.0
  N  N3105  1  0.337200  0.531100  0.179000  1.0
  N  N3106  1  0.662800  0.531100  0.321000  1.0
  N  N3107  1  0.837200  0.031100  0.179000  1.0
  N  N3108  1  0.162800  0.031100  0.321000  1.0
  N  N3109  1  0.662800  0.468900  0.821000  1.0
  N  N3110  1  0.337200  0.468900  0.679000  1.0
  N  N3111  1  0.162800  0.968900  0.821000  1.0
  N  N3112  1  0.837200  0.968900  0.679000  1.0
  N  N3113  1  0.376000  0.523000  0.164200  1.0
  N  N3114  1  0.624000  0.523000  0.335800  1.0
  N  N3115  1  0.876000  0.023000  0.164200  1.0
  N  N3116  1  0.124000  0.023000  0.335800  1.0
  N  N3117  1  0.624000  0.477000  0.835800  1.0
  N  N3118  1  0.376000  0.477000  0.664200  1.0
  N  N3119  1  0.124000  0.977000  0.835800  1.0
  N  N3120  1  0.876000  0.977000  0.664200  1.0
  N  N3121  1  0.137100  0.782400  0.188800  1.0
  N  N3122  1  0.862900  0.782400  0.311200  1.0
  N  N3123  1  0.637100  0.282400  0.188800  1.0
  N  N3124  1  0.362900  0.282400  0.311200  1.0
  N  N3125  1  0.862900  0.217600  0.811200  1.0
  N  N3126  1  0.137100  0.217600  0.688800  1.0
  N  N3127  1  0.362900  0.717600  0.811200  1.0
  N  N3128  1  0.637100  0.717600  0.688800  1.0
  N  N3129  1  0.260100  0.744300  0.168800  1.0
  N  N3130  1  0.739900  0.744300  0.331200  1.0
  N  N3131  1  0.760100  0.244300  0.168800  1.0
  N  N3132  1  0.239900  0.244300  0.331200  1.0
  N  N3133  1  0.739900  0.255700  0.831200  1.0
  N  N3134  1  0.260100  0.255700  0.668800  1.0
  N  N3135  1  0.239900  0.755700  0.831200  1.0
  N  N3136  1  0.760100  0.755700  0.668800  1.0
  N  N3137  1  0.217000  0.754300  0.178600  1.0
  N  N3138  1  0.783000  0.754300  0.321400  1.0
  N  N3139  1  0.717000  0.254300  0.178600  1.0
  N  N3140  1  0.283000  0.254300  0.321400  1.0
  N  N3141  1  0.783000  0.245700  0.821400  1.0
  N  N3142  1  0.217000  0.245700  0.678600  1.0
  N  N3143  1  0.283000  0.745700  0.821400  1.0
  N  N3144  1  0.717000  0.745700  0.678600  1.0
  N  N3145  1  0.159300  0.539200  0.833200  1.0
  N  N3146  1  0.840700  0.539200  0.666800  1.0
  N  N3147  1  0.659300  0.039200  0.833200  1.0
  N  N3148  1  0.340700  0.039200  0.666800  1.0
  N  N3149  1  0.840700  0.460800  0.166800  1.0
  N  N3150  1  0.159300  0.460800  0.333200  1.0
  N  N3151  1  0.340700  0.960800  0.166800  1.0
  N  N3152  1  0.659300  0.960800  0.333200  1.0
  N  N3153  1  0.035500  0.592900  0.836800  1.0
  N  N3154  1  0.964500  0.592900  0.663200  1.0
  N  N3155  1  0.535500  0.092900  0.836800  1.0
  N  N3156  1  0.464500  0.092900  0.663200  1.0
  N  N3157  1  0.964500  0.407100  0.163200  1.0
  N  N3158  1  0.035500  0.407100  0.336800  1.0
  N  N3159  1  0.464500  0.907100  0.163200  1.0
  N  N3160  1  0.535500  0.907100  0.336800  1.0
  N  N3161  1  0.080500  0.573900  0.840200  1.0
  N  N3162  1  0.919500  0.573900  0.659800  1.0
  N  N3163  1  0.580500  0.073900  0.840200  1.0
  N  N3164  1  0.419500  0.073900  0.659800  1.0
  N  N3165  1  0.919500  0.426100  0.159800  1.0
  N  N3166  1  0.080500  0.426100  0.340200  1.0
  N  N3167  1  0.419500  0.926100  0.159800  1.0
  N  N3168  1  0.580500  0.926100  0.340200  1.0
  N  N3169  1  0.870900  0.749200  0.995900  1.0
  N  N3170  1  0.129100  0.749200  0.504100  1.0
  N  N3171  1  0.370900  0.249200  0.995900  1.0
  N  N3172  1  0.629100  0.249200  0.504100  1.0
  N  N3173  1  0.129100  0.250800  0.004100  1.0
  N  N3174  1  0.870900  0.250800  0.495900  1.0
  N  N3175  1  0.629100  0.750800  0.004100  1.0
  N  N3176  1  0.370900  0.750800  0.495900  1.0
  N  N3177  1  0.995500  0.690500  0.007300  1.0
  N  N3178  1  0.004500  0.690500  0.492700  1.0
  N  N3179  1  0.495500  0.190500  0.007300  1.0
  N  N3180  1  0.504500  0.190500  0.492700  1.0
  N  N3181  1  0.004500  0.309500  0.992700  1.0
  N  N3182  1  0.995500  0.309500  0.507300  1.0
  N  N3183  1  0.504500  0.809500  0.992700  1.0
  N  N3184  1  0.495500  0.809500  0.507300  1.0
  N  N3185  1  0.953300  0.712800  0.000800  1.0
  N  N3186  1  0.046700  0.712800  0.499200  1.0
  N  N3187  1  0.453300  0.212800  0.000800  1.0
  N  N3188  1  0.546700  0.212800  0.499200  1.0
  N  N3189  1  0.046700  0.287200  0.999200  1.0
  N  N3190  1  0.953300  0.287200  0.500800  1.0
  N  N3191  1  0.546700  0.787200  0.999200  1.0
  N  N3192  1  0.453300  0.787200  0.500800  1.0
  O  O3193  1  0.500000  0.537600  0.250000  1
  O  O3194  1  0.000000  0.037600  0.250000  1
  O  O3195  1  0.500000  0.462400  0.750000  1
  O  O3196  1  0.000000  0.962400  0.750000  1
  O  O3197  1  0.000000  0.535200  0.750000  1
  O  O3198  1  0.500000  0.035200  0.750000  1
  O  O3199  1  0.000000  0.464800  0.250000  1
  O  O3200  1  0.500000  0.964800  0.250000  1
  O  O3201  1  0.901000  0.477100  0.731200  1
  O  O3202  1  0.099000  0.477100  0.768800  1
  O  O3203  1  0.401000  0.977100  0.731200  1
  O  O3204  1  0.599000  0.977100  0.768800  1
  O  O3205  1  0.099000  0.522900  0.268800  1
  O  O3206  1  0.901000  0.522900  0.231200  1
  O  O3207  1  0.599000  0.022900  0.268800  1
  O  O3208  1  0.401000  0.022900  0.231200  1
  O  O3209  1  0.243800  0.458300  0.735100  1
  O  O3210  1  0.756200  0.458300  0.764900  1
  O  O3211  1  0.743800  0.958300  0.735100  1
  O  O3212  1  0.256200  0.958300  0.764900  1
  O  O3213  1  0.756200  0.541700  0.264900  1
  O  O3214  1  0.243800  0.541700  0.235100  1
  O  O3215  1  0.256200  0.041700  0.264900  1
  O  O3216  1  0.743800  0.041700  0.235100  1
  O  O3217  1  0.527300  0.582800  0.920900  1
  O  O3218  1  0.472700  0.582800  0.579100  1
  O  O3219  1  0.027300  0.082800  0.920900  1
  O  O3220  1  0.972700  0.082800  0.579100  1
  O  O3221  1  0.472700  0.417200  0.079100  1
  O  O3222  1  0.527300  0.417200  0.420900  1
  O  O3223  1  0.972700  0.917200  0.079100  1
  O  O3224  1  0.027300  0.917200  0.420900  1
  O  O3225  1  0.964300  0.413200  0.768500  1
  O  O3226  1  0.035700  0.413200  0.731500  1
  O  O3227  1  0.464300  0.913200  0.768500  1
  O  O3228  1  0.535700  0.913200  0.731500  1
  O  O3229  1  0.035700  0.586800  0.231500  1
  O  O3230  1  0.964300  0.586800  0.268500  1
  O  O3231  1  0.535700  0.086800  0.231500  1
  O  O3232  1  0.464300  0.086800  0.268500  1
  O  O3233  1  0.411600  0.720800  0.647300  1
  O  O3234  1  0.588400  0.720800  0.852700  1
  O  O3235  1  0.911600  0.220800  0.647300  1
  O  O3236  1  0.088400  0.220800  0.852700  1
  O  O3237  1  0.588400  0.279200  0.352700  1
  O  O3238  1  0.411600  0.279200  0.147300  1
  O  O3239  1  0.088400  0.779200  0.352700  1
  O  O3240  1  0.911600  0.779200  0.147300  1
  O  O3241  1  0.579500  0.427300  0.232800  1
  O  O3242  1  0.420500  0.427300  0.267200  1
  O  O3243  1  0.079500  0.927300  0.232800  1
  O  O3244  1  0.920500  0.927300  0.267200  1
  O  O3245  1  0.420500  0.572700  0.767200  1
  O  O3246  1  0.579500  0.572700  0.732800  1
  O  O3247  1  0.920500  0.072700  0.767200  1
  O  O3248  1  0.079500  0.072700  0.732800  1
  O  O3249  1  0.762700  0.779200  0.070900  1
  O  O3250  1  0.237300  0.779200  0.429100  1
  O  O3251  1  0.262700  0.279200  0.070900  1
  O  O3252  1  0.737300  0.279200  0.429100  1
  O  O3253  1  0.237300  0.220800  0.929100  1
  O  O3254  1  0.762700  0.220800  0.570900  1
  O  O3255  1  0.737300  0.720800  0.929100  1
  O  O3256  1  0.262700  0.720800  0.570900  1
  O  O3257  1  0.769200  0.897000  0.114800  1.0
  O  O3258  1  0.230800  0.897000  0.385200  1.0
  O  O3259  1  0.269200  0.397000  0.114800  1.0
  O  O3260  1  0.730800  0.397000  0.385200  1.0
  O  O3261  1  0.230800  0.103000  0.885200  1.0
  O  O3262  1  0.769200  0.103000  0.614800  1.0
  O  O3263  1  0.730800  0.603000  0.885200  1.0
  O  O3264  1  0.269200  0.603000  0.614800  1.0
  O  O3265  1  0.245600  0.406900  0.030900  1.0
  O  O3266  1  0.754400  0.406900  0.469100  1.0
  O  O3267  1  0.745600  0.906900  0.030900  1.0
  O  O3268  1  0.254400  0.906900  0.469100  1.0
  O  O3269  1  0.754400  0.593100  0.969100  1.0
  O  O3270  1  0.245600  0.593100  0.530900  1.0
  O  O3271  1  0.254400  0.093100  0.969100  1.0
  O  O3272  1  0.745600  0.093100  0.530900  1.0
  O  O3273  1  0.776800  0.661600  0.154700  1.0
  O  O3274  1  0.223200  0.661600  0.345300  1.0
  O  O3275  1  0.276800  0.161600  0.154700  1.0
  O  O3276  1  0.723200  0.161600  0.345300  1.0
  O  O3277  1  0.223200  0.338400  0.845300  1.0
  O  O3278  1  0.776800  0.338400  0.654700  1.0
  O  O3279  1  0.723200  0.838400  0.845300  1.0
  O  O3280  1  0.276800  0.838400  0.654700  1.0
  O  O3281  1  0.140700  0.879000  0.694000  1.0
  O  O3282  1  0.859300  0.879000  0.806000  1.0
  O  O3283  1  0.640700  0.379000  0.694000  1.0
  O  O3284  1  0.359300  0.379000  0.806000  1.0
  O  O3285  1  0.859300  0.121000  0.306000  1.0
  O  O3286  1  0.140700  0.121000  0.194000  1.0
  O  O3287  1  0.359300  0.621000  0.306000  1.0
  O  O3288  1  0.640700  0.621000  0.194000  1.0
  O  O3289  1  0.570600  0.665400  0.214100  1.0
  O  O3290  1  0.429400  0.665400  0.285900  1.0
  O  O3291  1  0.070600  0.165400  0.214100  1.0
  O  O3292  1  0.929400  0.165400  0.285900  1.0
  O  O3293  1  0.429400  0.334600  0.785900  1.0
  O  O3294  1  0.570600  0.334600  0.714100  1.0
  O  O3295  1  0.929400  0.834600  0.785900  1.0
  O  O3296  1  0.070600  0.834600  0.714100  1.0
  O  O3297  1  0.925100  0.425000  0.791300  1.0
  O  O3298  1  0.074900  0.425000  0.708700  1.0
  O  O3299  1  0.425100  0.925000  0.791300  1.0
  O  O3300  1  0.574900  0.925000  0.708700  1.0
  O  O3301  1  0.074900  0.575000  0.208700  1.0
  O  O3302  1  0.925100  0.575000  0.291300  1.0
  O  O3303  1  0.574900  0.075000  0.208700  1.0
  O  O3304  1  0.425100  0.075000  0.291300  1.0
  O  O3305  1  0.991400  0.532700  0.993600  1.0
  O  O3306  1  0.008600  0.532700  0.506400  1.0
  O  O3307  1  0.491400  0.032700  0.993600  1.0
  O  O3308  1  0.508600  0.032700  0.506400  1.0
  O  O3309  1  0.008600  0.467300  0.006400  1.0
  O  O3310  1  0.991400  0.467300  0.493600  1.0
  O  O3311  1  0.508600  0.967300  0.006400  1.0
  O  O3312  1  0.491400  0.967300  0.493600  1.0
  O  O3313  1  0.482700  0.764600  0.684400  1.0
  O  O3314  1  0.517300  0.764600  0.815600  1.0
  O  O3315  1  0.982700  0.264600  0.684400  1.0
  O  O3316  1  0.017300  0.264600  0.815600  1.0
  O  O3317  1  0.517300  0.235400  0.315600  1.0
  O  O3318  1  0.482700  0.235400  0.184400  1.0
  O  O3319  1  0.017300  0.735400  0.315600  1.0
  O  O3320  1  0.982700  0.735400  0.184400  1.0
  O  O3321  1  0.540600  0.412800  0.233200  1.0
  O  O3322  1  0.459400  0.412800  0.266800  1.0
  O  O3323  1  0.040600  0.912800  0.233200  1.0
  O  O3324  1  0.959400  0.912800  0.266800  1.0
  O  O3325  1  0.459400  0.587200  0.766800  1.0
  O  O3326  1  0.540600  0.587200  0.733200  1.0
  O  O3327  1  0.959400  0.087200  0.766800  1.0
  O  O3328  1  0.040600  0.087200  0.733200  1.0
  O  O3329  1  0.011500  0.871800  0.134600  1.0
  O  O3330  1  0.988500  0.871800  0.365400  1.0
  O  O3331  1  0.511500  0.371800  0.134600  1.0
  O  O3332  1  0.488500  0.371800  0.365400  1.0
  O  O3333  1  0.988500  0.128200  0.865400  1.0
  O  O3334  1  0.011500  0.128200  0.634600  1.0
  O  O3335  1  0.488500  0.628200  0.865400  1.0
  O  O3336  1  0.511500  0.628200  0.634600  1.0
  O  O3337  1  0.263500  0.535800  0.753100  1.0
  O  O3338  1  0.736500  0.535800  0.746900  1.0
  O  O3339  1  0.763500  0.035800  0.753100  1.0
  O  O3340  1  0.236500  0.035800  0.746900  1.0
  O  O3341  1  0.736500  0.464200  0.246900  1.0
  O  O3342  1  0.263500  0.464200  0.253100  1.0
  O  O3343  1  0.236500  0.964200  0.246900  1.0
  O  O3344  1  0.763500  0.964200  0.253100  1.0
  O  O3345  1  0.826700  0.742900  0.105600  1.0
  O  O3346  1  0.173300  0.742900  0.394400  1.0
  O  O3347  1  0.326700  0.242900  0.105600  1.0
  O  O3348  1  0.673300  0.242900  0.394400  1.0
  O  O3349  1  0.173300  0.257100  0.894400  1.0
  O  O3350  1  0.826700  0.257100  0.605600  1.0
  O  O3351  1  0.673300  0.757100  0.894400  1.0
  O  O3352  1  0.326700  0.757100  0.605600  1.0
  F  F3353  1  0.911700  0.599800  0.787800  1
  F  F3354  1  0.088300  0.599800  0.712200  1
  F  F3355  1  0.411700  0.099800  0.787800  1
  F  F3356  1  0.588300  0.099800  0.712200  1
  F  F3357  1  0.088300  0.400200  0.212200  1
  F  F3358  1  0.911700  0.400200  0.287800  1
  F  F3359  1  0.588300  0.900200  0.212200  1
  F  F3360  1  0.411700  0.900200  0.287800  1
  F  F3361  1  0.906700  0.656400  0.791700  1
  F  F3362  1  0.093300  0.656400  0.708300  1
  F  F3363  1  0.406700  0.156400  0.791700  1
  F  F3364  1  0.593300  0.156400  0.708300  1
  F  F3365  1  0.093300  0.343600  0.208300  1
  F  F3366  1  0.906700  0.343600  0.291700  1
  F  F3367  1  0.593300  0.843600  0.208300  1
  F  F3368  1  0.406700  0.843600  0.291700  1
  F  F3369  1  0.886800  0.623100  0.829100  1
  F  F3370  1  0.113200  0.623100  0.670900  1
  F  F3371  1  0.386800  0.123100  0.829100  1
  F  F3372  1  0.613200  0.123100  0.670900  1
  F  F3373  1  0.113200  0.376900  0.170900  1
  F  F3374  1  0.886800  0.376900  0.329100  1
  F  F3375  1  0.613200  0.876900  0.170900  1
  F  F3376  1  0.386800  0.876900  0.329100  1
  F  F3377  1  0.835100  0.625000  0.777800  1
  F  F3378  1  0.164900  0.625000  0.722200  1
  F  F3379  1  0.335100  0.125000  0.777800  1
  F  F3380  1  0.664900  0.125000  0.722200  1
  F  F3381  1  0.164900  0.375000  0.222200  1
  F  F3382  1  0.835100  0.375000  0.277800  1
  F  F3383  1  0.664900  0.875000  0.222200  1
  F  F3384  1  0.335100  0.875000  0.277800  1
  F  F3385  1  0.661700  0.640000  0.535600  1
  F  F3386  1  0.338300  0.640000  0.964400  1
  F  F3387  1  0.161700  0.140000  0.535600  1
  F  F3388  1  0.838300  0.140000  0.964400  1
  F  F3389  1  0.338300  0.360000  0.464400  1
  F  F3390  1  0.661700  0.360000  0.035600  1
  F  F3391  1  0.838300  0.860000  0.464400  1
  F  F3392  1  0.161700  0.860000  0.035600  1
  F  F3393  1  0.646000  0.623000  0.582800  1
  F  F3394  1  0.354000  0.623000  0.917200  1
  F  F3395  1  0.146000  0.123000  0.582800  1
  F  F3396  1  0.854000  0.123000  0.917200  1
  F  F3397  1  0.354000  0.377000  0.417200  1
  F  F3398  1  0.646000  0.377000  0.082800  1
  F  F3399  1  0.854000  0.877000  0.417200  1
  F  F3400  1  0.146000  0.877000  0.082800  1
  F  F3401  1  0.582500  0.627900  0.536400  1
  F  F3402  1  0.417500  0.627900  0.963600  1
  F  F3403  1  0.082500  0.127900  0.536400  1
  F  F3404  1  0.917500  0.127900  0.963600  1
  F  F3405  1  0.417500  0.372100  0.463600  1
  F  F3406  1  0.582500  0.372100  0.036400  1
  F  F3407  1  0.917500  0.872100  0.463600  1
  F  F3408  1  0.082500  0.872100  0.036400  1
  F  F3409  1  0.621300  0.674600  0.561900  1
  F  F3410  1  0.378700  0.674600  0.938100  1
  F  F3411  1  0.121300  0.174600  0.561900  1
  F  F3412  1  0.878700  0.174600  0.938100  1
  F  F3413  1  0.378700  0.325400  0.438100  1
  F  F3414  1  0.621300  0.325400  0.061900  1
  F  F3415  1  0.878700  0.825400  0.438100  1
  F  F3416  1  0.121300  0.825400  0.061900  1
  F  F3417  1  0.608200  0.869800  0.564300  1
  F  F3418  1  0.391800  0.869800  0.935700  1
  F  F3419  1  0.108200  0.369800  0.564300  1
  F  F3420  1  0.891800  0.369800  0.935700  1
  F  F3421  1  0.391800  0.130200  0.435700  1
  F  F3422  1  0.608200  0.130200  0.064300  1
  F  F3423  1  0.891800  0.630200  0.435700  1
  F  F3424  1  0.108200  0.630200  0.064300  1
  F  F3425  1  0.613700  0.869500  0.512300  1
  F  F3426  1  0.386300  0.869500  0.987700  1
  F  F3427  1  0.113700  0.369500  0.512300  1
  F  F3428  1  0.886300  0.369500  0.987700  1
  F  F3429  1  0.386300  0.130500  0.487700  1
  F  F3430  1  0.613700  0.130500  0.012300  1
  F  F3431  1  0.886300  0.630500  0.487700  1
  F  F3432  1  0.113700  0.630500  0.012300  1
  F  F3433  1  0.652600  0.910400  0.547100  1
  F  F3434  1  0.347400  0.910400  0.952900  1
  F  F3435  1  0.152600  0.410400  0.547100  1
  F  F3436  1  0.847400  0.410400  0.952900  1
  F  F3437  1  0.347400  0.089600  0.452900  1
  F  F3438  1  0.652600  0.089600  0.047100  1
  F  F3439  1  0.847400  0.589600  0.452900  1
  F  F3440  1  0.152600  0.589600  0.047100  1
  F  F3441  1  0.682100  0.857100  0.554300  1
  F  F3442  1  0.317900  0.857100  0.945700  1
  F  F3443  1  0.182100  0.357100  0.554300  1
  F  F3444  1  0.817900  0.357100  0.945700  1
  F  F3445  1  0.317900  0.142900  0.445700  1
  F  F3446  1  0.682100  0.142900  0.054300  1
  F  F3447  1  0.817900  0.642900  0.445700  1
  F  F3448  1  0.182100  0.642900  0.054300  1
  F  F3449  1  0.382800  0.579000  0.427200  1
  F  F3450  1  0.617200  0.579000  0.072800  1
  F  F3451  1  0.882800  0.079000  0.427200  1
  F  F3452  1  0.117200  0.079000  0.072800  1
  F  F3453  1  0.617200  0.421000  0.572800  1
  F  F3454  1  0.382800  0.421000  0.927200  1
  F  F3455  1  0.117200  0.921000  0.572800  1
  F  F3456  1  0.882800  0.921000  0.927200  1
  F  F3457  1  0.420300  0.559600  0.477900  1
  F  F3458  1  0.579700  0.559600  0.022100  1
  F  F3459  1  0.920300  0.059600  0.477900  1
  F  F3460  1  0.079700  0.059600  0.022100  1
  F  F3461  1  0.579700  0.440400  0.522100  1
  F  F3462  1  0.420300  0.440400  0.977900  1
  F  F3463  1  0.079700  0.940400  0.522100  1
  F  F3464  1  0.920300  0.940400  0.977900  1
  F  F3465  1  0.335700  0.567000  0.461200  1
  F  F3466  1  0.664300  0.567000  0.038800  1
  F  F3467  1  0.835700  0.067000  0.461200  1
  F  F3468  1  0.164300  0.067000  0.038800  1
  F  F3469  1  0.664300  0.433000  0.538800  1
  F  F3470  1  0.335700  0.433000  0.961200  1
  F  F3471  1  0.164300  0.933000  0.538800  1
  F  F3472  1  0.835700  0.933000  0.961200  1
  F  F3473  1  0.371800  0.524800  0.440100  1
  F  F3474  1  0.628200  0.524800  0.059900  1
  F  F3475  1  0.871800  0.024800  0.440100  1
  F  F3476  1  0.128200  0.024800  0.059900  1
  F  F3477  1  0.628200  0.475200  0.559900  1
  F  F3478  1  0.371800  0.475200  0.940100  1
  F  F3479  1  0.128200  0.975200  0.559900  1
  F  F3480  1  0.871800  0.975200  0.940100  1
  F  F3481  1  0.550800  0.728500  0.354100  1
  F  F3482  1  0.449200  0.728500  0.145900  1
  F  F3483  1  0.050800  0.228500  0.354100  1
  F  F3484  1  0.949200  0.228500  0.145900  1
  F  F3485  1  0.449200  0.271500  0.645900  1
  F  F3486  1  0.550800  0.271500  0.854100  1
  F  F3487  1  0.949200  0.771500  0.645900  1
  F  F3488  1  0.050800  0.771500  0.854100  1
  F  F3489  1  0.632800  0.714400  0.364200  1
  F  F3490  1  0.367200  0.714400  0.135800  1
  F  F3491  1  0.132800  0.214400  0.364200  1
  F  F3492  1  0.867200  0.214400  0.135800  1
  F  F3493  1  0.367200  0.285600  0.635800  1
  F  F3494  1  0.632800  0.285600  0.864200  1
  F  F3495  1  0.867200  0.785600  0.635800  1
  F  F3496  1  0.132800  0.785600  0.864200  1
  F  F3497  1  0.611500  0.766300  0.377100  1
  F  F3498  1  0.388500  0.766300  0.122900  1
  F  F3499  1  0.111500  0.266300  0.377100  1
  F  F3500  1  0.888500  0.266300  0.122900  1
  F  F3501  1  0.388500  0.233700  0.622900  1
  F  F3502  1  0.611500  0.233700  0.877100  1
  F  F3503  1  0.888500  0.733700  0.622900  1
  F  F3504  1  0.111500  0.733700  0.877100  1
  F  F3505  1  0.597300  0.751600  0.323900  1
  F  F3506  1  0.402700  0.751600  0.176100  1
  F  F3507  1  0.097300  0.251600  0.323900  1
  F  F3508  1  0.902700  0.251600  0.176100  1
  F  F3509  1  0.402700  0.248400  0.676100  1
  F  F3510  1  0.597300  0.248400  0.823900  1
  F  F3511  1  0.902700  0.748400  0.676100  1
  F  F3512  1  0.097300  0.748400  0.823900  1
  F  F3513  1  0.098900  0.358800  0.859400  1
  F  F3514  1  0.901100  0.358800  0.640600  1
  F  F3515  1  0.598900  0.858800  0.859400  1
  F  F3516  1  0.401100  0.858800  0.640600  1
  F  F3517  1  0.901100  0.641200  0.140600  1
  F  F3518  1  0.098900  0.641200  0.359400  1
  F  F3519  1  0.401100  0.141200  0.140600  1
  F  F3520  1  0.598900  0.141200  0.359400  1
  F  F3521  1  0.068400  0.314000  0.880500  1
  F  F3522  1  0.931600  0.314000  0.619500  1
  F  F3523  1  0.568400  0.814000  0.880500  1
  F  F3524  1  0.431600  0.814000  0.619500  1
  F  F3525  1  0.931600  0.686000  0.119500  1
  F  F3526  1  0.068400  0.686000  0.380500  1
  F  F3527  1  0.431600  0.186000  0.119500  1
  F  F3528  1  0.568400  0.186000  0.380500  1
  F  F3529  1  0.026300  0.363600  0.874300  1
  F  F3530  1  0.973700  0.363600  0.625700  1
  F  F3531  1  0.526300  0.863600  0.874300  1
  F  F3532  1  0.473700  0.863600  0.625700  1
  F  F3533  1  0.973700  0.636400  0.125700  1
  F  F3534  1  0.026300  0.636400  0.374300  1
  F  F3535  1  0.473700  0.136400  0.125700  1
  F  F3536  1  0.526300  0.136400  0.374300  1
  F  F3537  1  0.027800  0.333000  0.829700  1
  F  F3538  1  0.972200  0.333000  0.670300  1
  F  F3539  1  0.527800  0.833000  0.829700  1
  F  F3540  1  0.472200  0.833000  0.670300  1
  F  F3541  1  0.972200  0.667000  0.170300  1
  F  F3542  1  0.027800  0.667000  0.329700  1
  F  F3543  1  0.472200  0.167000  0.170300  1
  F  F3544  1  0.527800  0.167000  0.329700  1
