
#######################################################################
#
#                 Cambridge Crystallographic Data Centre
#                                CCDC 
#
#######################################################################
#
# If this CIF has been generated from an entry in the Cambridge 
# Structural Database, then it will include bibliographic, chemical, 
# crystal, experimental, refinement or atomic coordinate data resulting 
# from the CCDC's data processing and validation procedures.
#
#######################################################################

data_LASRUV
_chemical_formula_moiety         
'C360 H312 Co8 N72 O24 16+,16(B1 F4 1-),C1 S2,7(H2 O1)'
_chemical_name_systematic        
'dodecakis(\m-[naphthalene-1,5-diylbis(methylene-1H-pyrazole-1,3-diylpyridine-2,4-diyl)]dimethanol)-octa-cobalt hexadecakis(tetrafluoroborate) carbon disulfide heptahydrate'
_symmetry_cell_setting           monoclinic
_symmetry_space_group_name_H-M   'C 2/c'
_symmetry_Int_Tables_number      15
_space_group_name_Hall           '-C 2yn'
loop_
_symmetry_equiv_pos_site_id
_symmetry_equiv_pos_as_xyz
1 x,y,z
2 -x,y,1/2-z
3 1/2+x,1/2+y,z
4 1/2-x,1/2+y,1/2-z
5 -x,-y,-z
6 x,-y,1/2+z
7 1/2-x,1/2-y,-z
8 1/2+x,1/2-y,1/2+z
_cell_length_a                   27.523(4)
_cell_length_b                   39.478(5)
_cell_length_c                   42.338(7)
_cell_angle_alpha                90
_cell_angle_beta                 106.279(7)
_cell_angle_gamma                90
_cell_volume                     44158.2
_exptl_crystal_colour            orange
_exptl_crystal_description       block
_cell_formula_units_Z            4
_chemical_properties_physical    ', Efflorescent'
_exptl_crystal_recrystallization_method methanol
loop_
_atom_site_label
_atom_site_type_symbol
_atom_site_fract_x
_atom_site_fract_y
_atom_site_fract_z
Co1 Co 0.59042(10) 0.75845(7) 1.04112(7)
Co2 Co 0.40292(11) 0.53854(7) 1.12429(9)
Co3 Co 0.31969(13) 0.75729(9) 0.78401(9)
Co4 Co 0.12335(12) 0.53561(8) 0.87153(8)
N1 N 0.6319(5) 0.8032(3) 1.0615(4)
C1 C 0.6236(4) 0.8155(3) 1.0903(4)
C2 C 0.6541(5) 0.8411(4) 1.1079(3)
H1 H 0.6485 0.8495 1.1275
C3 C 0.6930(5) 0.8545(3) 1.0966(4)
C4 C 0.7013(5) 0.8421(4) 1.0678(4)
H2 H 0.7278 0.8512 1.0601
C5 C 0.6708(5) 0.8165(4) 1.0503(3)
H3 H 0.6765 0.8081 1.0306
C6 C 0.7258(9) 0.8834(6) 1.1157(6)
H4 H 0.7023 0.9030 1.1122
H5 H 0.7317 0.8769 1.1390
O1 O 0.7692(8) 0.8970(7) 1.1148(7)
H6 H 0.7761 0.8910 1.0975
N2 N 0.5193(4) 0.7644(3) 1.0933(3)
N3 N 0.5587(5) 0.7748(3) 1.0799(3)
C7 C 0.5859(4) 0.8013(3) 1.1000(4)
C8 C 0.5632(5) 0.8072(3) 1.1257(3)
H7 H 0.5737 0.8236 1.1428
C9 C 0.5220(5) 0.7844(3) 1.1216(3)
H8 H 0.5002 0.7827 1.1354
C10 C 0.4901(7) 0.7366(4) 1.0810(5)
H9 H 0.4860 0.7354 1.0571
H10 H 0.4561 0.7401 1.0841
N4 N 0.3568(4) 0.5025(3) 1.0915(3)
C11 C 0.3721(4) 0.4966(3) 1.0633(4)
C12 C 0.3462(4) 0.4732(3) 1.0401(3)
H11 H 0.3566 0.4691 1.0209
C13 C 0.3050(4) 0.4558(3) 1.0451(3)
C14 C 0.2898(4) 0.4617(3) 1.0732(3)
H12 H 0.2616 0.4498 1.0766
C15 C 0.3157(5) 0.4851(3) 1.0964(3)
H13 H 0.3053 0.4892 1.1157
C16 C 0.2762(7) 0.4314(4) 1.0194(5)
H14 H 0.2538 0.4445 1.0011
H15 H 0.3006 0.4189 1.0105
O2 O 0.2456(6) 0.4069(4) 1.0309(5)
H16 H 0.2155 0.4137 1.0263
N5 N 0.4789(4) 0.5491(3) 1.0758(3)
N6 N 0.4353(5) 0.5365(3) 1.0836(3)
C17 C 0.4120(4) 0.5121(3) 1.0595(4)
C18 C 0.4412(5) 0.5095(3) 1.0367(3)
H17 H 0.4342 0.4951 1.0180
C19 C 0.4825(4) 0.5324(4) 1.0468(3)
H18 H 0.5080 0.5359 1.0360
C20 C 0.5115(7) 0.5777(4) 1.0921(5)
H19 H 0.5447 0.5763 1.0874
H20 H 0.5173 0.5762 1.1162
C21 C 0.5110(4) 0.70155(19) 1.0968(2)
C22 C 0.5562(4) 0.7002(2) 1.1218(2)
H21 H 0.5722 0.7205 1.1314
C23 C 0.5781(3) 0.6690(3) 1.1327(2)
H22 H 0.6089 0.6681 1.1498
C24 C 0.5547(3) 0.6393(2) 1.1187(2)
H23 H 0.5697 0.6180 1.1262
C25 C 0.5095(3) 0.64064(19) 1.09370(19)
C26 C 0.4877(3) 0.67178(19) 1.08273(18)
C27 C 0.4425(3) 0.6732(2) 1.0577(2)
H24 H 0.4276 0.6945 1.0502
C28 C 0.4192(3) 0.6434(3) 1.0437(2)
H25 H 0.3883 0.6443 1.0266
C29 C 0.4410(4) 0.6123(2) 1.0546(3)
H26 H 0.4251 0.5919 1.0451
C30 C 0.4862(4) 0.61088(19) 1.0797(3)
N7 N 0.6436(5) 0.7259(4) 1.0765(4)
C31 C 0.6315(5) 0.6919(4) 1.0699(3)
C32 C 0.6611(5) 0.6669(3) 1.0892(4)
H27 H 0.6529 0.6437 1.0847
C33 C 0.7028(5) 0.6758(3) 1.1150(3)
C34 C 0.7148(5) 0.7098(4) 1.1216(4)
H28 H 0.7433 0.7159 1.1392
C35 C 0.6852(6) 0.7348(3) 1.1023(4)
H29 H 0.6935 0.7580 1.1068
C36 C 0.7346(9) 0.6480(5) 1.1367(6)
H30 H 0.7155 0.6379 1.1510
H31 H 0.7422 0.6298 1.1227
O3 O 0.7768(10) 0.6616(6) 1.1547(8)
H32 H 0.7988 0.6465 1.1609
N8 N 0.5151(5) 0.6934(3) 1.0076(3)
N9 N 0.5567(5) 0.7097(2) 1.0300(3)
C37 C 0.5903(4) 0.6842(4) 1.0472(3)
C38 C 0.5695(6) 0.6522(3) 1.0354(4)
H33 H 0.5841 0.6308 1.0426
C39 C 0.5230(5) 0.6578(3) 1.0109(3)
H34 H 0.5011 0.6408 0.9989
C40 C 0.4788(8) 0.7130(5) 0.9875(5)
H35 H 0.4778 0.7349 0.9988
H36 H 0.4457 0.7018 0.9848
N10 N 0.2719(5) 0.7983(3) 0.7613(3)
C41 C 0.2884(4) 0.8302(4) 0.7734(3)
C42 C 0.2605(4) 0.8588(3) 0.7602(3)
H37 H 0.2718 0.8806 0.7685
C43 C 0.2161(4) 0.8554(3) 0.7348(3)
C44 C 0.1996(4) 0.8234(3) 0.7226(3)
H38 H 0.1693 0.8211 0.7052
C45 C 0.2275(5) 0.7949(3) 0.7358(3)
H39 H 0.2162 0.7730 0.7275
C46 C 0.1851(6) 0.8862(4) 0.7214(4)
H40 H 0.1740 0.8969 0.7393
H41 H 0.2068 0.9026 0.7140
O4 O 0.1407(6) 0.8790(5) 0.6940(4)
H42 H 0.1494 0.8772 0.6766
N11 N 0.4031(5) 0.8085(4) 0.8302(3)
N12 N 0.3564(5) 0.8013(3) 0.8065(3)
C47 C 0.3320(4) 0.8326(4) 0.7955(4)
C48 C 0.3637(6) 0.8591(3) 0.8124(4)
H43 H 0.3567 0.8827 0.8098
C49 C 0.4076(5) 0.8442(4) 0.8338(4)
H44 H 0.4352 0.8561 0.8481
C50 C 0.4402(8) 0.7856(6) 0.8509(6)
H45 H 0.4740 0.7961 0.8555
H46 H 0.4409 0.7645 0.8384
C51 C 0.4838(4) 0.7205(3) 0.9539(2)
C52 C 0.5231(4) 0.7053(3) 0.9445(3)
H47 H 0.5442 0.6891 0.9585
C53 C 0.5316(4) 0.7137(3) 0.9146(3)
H48 H 0.5584 0.7033 0.9082
C54 C 0.5008(4) 0.7374(3) 0.8941(3)
H49 H 0.5066 0.7431 0.8737
C55 C 0.4615(3) 0.7527(2) 0.9036(2)
C56 C 0.4531(3) 0.7442(2) 0.9335(2)
C57 C 0.4138(4) 0.7595(3) 0.9429(3)
H50 H 0.4080 0.7537 0.9633
C58 C 0.3830(4) 0.7832(3) 0.9224(3)
H51 H 0.3562 0.7936 0.9289
C59 C 0.3915(4) 0.7916(3) 0.8925(3)
H52 H 0.3704 0.8078 0.8785
C60 C 0.4307(4) 0.7764(3) 0.8831(2)
N13 N 0.4455(5) 0.5801(3) 1.1507(3)
C61 C 0.4244(4) 0.6119(3) 1.1417(3)
C62 C 0.4491(4) 0.6408(3) 1.1569(3)
H53 H 0.4347 0.6625 1.1507
C63 C 0.4950(4) 0.6379(3) 1.1811(3)
C64 C 0.5161(4) 0.6061(3) 1.1902(3)
H54 H 0.5474 0.6041 1.2067
C65 C 0.4913(5) 0.5772(2) 1.1750(3)
H55 H 0.5057 0.5555 1.1811
C66 C 0.5225(6) 0.6698(4) 1.1978(5)
H56 H 0.5205 0.6873 1.1807
H57 H 0.5044 0.6786 1.2132
O5 O 0.5706(6) 0.6654(4) 1.2141(5)
H58 H 0.5798 0.6458 1.2104
N14 N 0.3054(5) 0.5910(3) 1.0849(3)
N15 N 0.3530(5) 0.5819(3) 1.1066(4)
C67 C 0.3782(4) 0.6121(4) 1.1203(3)
C68 C 0.3462(6) 0.6399(3) 1.1071(4)
H59 H 0.3537 0.6631 1.1120
C69 C 0.3012(5) 0.6268(3) 1.0852(4)
H60 H 0.2732 0.6398 1.0729
C70 C 0.2735(8) 0.5669(5) 1.0680(6)
H61 H 0.2383 0.5747 1.0651
H62 H 0.2784 0.5461 1.0815
N16 N 0.0693(7) 0.4966(4) 0.8459(4)
C71 C 0.0874(6) 0.4638(5) 0.8530(4)
C72 C 0.0578(6) 0.4364(4) 0.8385(5)
H63 H 0.0702 0.4140 0.8433
C73 C 0.0101(6) 0.4418(4) 0.8170(5)
C74 C -0.0081(6) 0.4746(4) 0.8099(5)
H64 H -0.0407 0.4783 0.7952
C75 C 0.0216(7) 0.5020(3) 0.8244(5)
H65 H 0.0092 0.5244 0.8196
C76 C -0.0233(10) 0.4121(6) 0.8032(9)
H66 H -0.0127 0.4016 0.7849
H67 H -0.0211 0.3948 0.8204
O6 O -0.0749(12) 0.4250(10) 0.7913(12)
H68 H -0.0751 0.4425 0.7800
N17 N 0.2074(6) 0.4758(4) 0.9093(4)
N18 N 0.1601(7) 0.4861(3) 0.8880(4)
C77 C 0.1333(6) 0.4565(5) 0.8739(4)
C78 C 0.1641(8) 0.4280(3) 0.8865(5)
H69 H 0.1556 0.4049 0.8812
C79 C 0.2099(6) 0.4399(4) 0.9084(4)
H70 H 0.2374 0.4263 0.9204
C80 C 0.2424(9) 0.4983(6) 0.9302(6)
H71 H 0.2765 0.4879 0.9357
H72 H 0.2436 0.5196 0.9181
C81 C 0.2798(4) 0.5581(3) 1.0339(3)
C82 C 0.3218(4) 0.5727(3) 1.0273(3)
H73 H 0.3427 0.5879 1.0426
C83 C 0.3333(4) 0.5651(3) 0.9981(4)
H74 H 0.3620 0.5751 0.9935
C84 C 0.3028(4) 0.5429(3) 0.9756(3)
H75 H 0.3106 0.5377 0.9557
C85 C 0.2608(4) 0.5283(2) 0.9823(2)
C86 C 0.2493(3) 0.5359(2) 1.0115(2)
C87 C 0.2073(4) 0.5212(3) 1.0181(3)
H76 H 0.1995 0.5264 1.0381
C88 C 0.1768(4) 0.4990(3) 0.9957(4)
H77 H 0.1481 0.4890 1.0002
C89 C 0.1883(4) 0.4914(3) 0.9665(3)
H78 H 0.1675 0.4763 0.9511
C90 C 0.2303(5) 0.5061(3) 0.9598(3)
N19 N 0.0889(5) 0.5377(3) 0.9104(3)
C91 C 0.1117(4) 0.5610(3) 0.9346(4)
C92 C 0.0929(5) 0.5658(3) 0.9615(3)
H79 H 0.1085 0.5818 0.9780
C93 C 0.0513(5) 0.5473(3) 0.9642(3)
C94 C 0.0285(4) 0.5240(3) 0.9400(3)
H80 H 0.0001 0.5113 0.9418
C95 C 0.0473(5) 0.5191(3) 0.9131(3)
H81 H 0.0318 0.5032 0.8966
C96 C 0.0314(7) 0.5518(5) 0.9944(5)
H82 H 0.0589 0.5462 1.0144
H83 H 0.0223 0.5759 0.9960
O7 O -0.0086(6) 0.5327(4) 0.9936(5)
H84 H 0.0008 0.5151 1.0049
N20 N 0.2165(5) 0.5897(3) 0.9089(3)
N21 N 0.1718(5) 0.5705(3) 0.9058(3)
C97 C 0.1546(5) 0.5770(4) 0.9339(4)
C98 C 0.1887(6) 0.6003(4) 0.9543(3)
H85 H 0.1863 0.6090 0.9747
C99 C 0.2270(5) 0.6081(3) 0.9389(4)
H86 H 0.2547 0.6230 0.9472
C100 C 0.2406(8) 0.5952(5) 0.8851(5)
H87 H 0.2393 0.5738 0.8727
H88 H 0.2767 0.5998 0.8963
N22 N 0.3609(7) 0.7593(5) 0.7473(4)
C101 C 0.3391(5) 0.7392(4) 0.7201(5)
C102 C 0.3619(6) 0.7365(4) 0.6948(4)
H89 H 0.3470 0.7227 0.6762
C103 C 0.4065(6) 0.7540(5) 0.6966(4)
C104 C 0.4283(6) 0.7741(4) 0.7238(4)
H90 H 0.4587 0.7861 0.7251
C105 C 0.4055(7) 0.7768(4) 0.7492(4)
H91 H 0.4204 0.7906 0.7678
C106 C 0.4333(10) 0.7490(9) 0.6706(6)
H92 H 0.4367 0.7247 0.6662
H93 H 0.4148 0.7604 0.6498
O8 O 0.4827(12) 0.7646(11) 0.6844(10)
H94 H 0.4791 0.7855 0.6864
N23 N 0.2373(6) 0.6998(4) 0.7376(4)
N24 N 0.2804(7) 0.7213(4) 0.7452(4)
C107 C 0.3021(6) 0.7199(5) 0.7185(5)
C108 C 0.2724(8) 0.6976(5) 0.6944(4)
H95 H 0.2783 0.6920 0.6740
C109 C 0.2323(6) 0.6852(4) 0.7062(4)
H96 H 0.2067 0.6698 0.6950
C110 C 0.2170(10) 0.6921(6) 0.7643(6)
H97 H 0.1809 0.6860 0.7549
H98 H 0.2180 0.7131 0.7773
C111 C 0.2219(4) 0.6230(3) 0.8606(2)
C112 C 0.1799(4) 0.6405(3) 0.8642(3)
H99 H 0.1660 0.6349 0.8816
C113 C 0.1584(4) 0.6661(3) 0.8422(3)
H100 H 0.1297 0.6781 0.8446
C114 C 0.1788(4) 0.6742(3) 0.8166(3)
H101 H 0.1641 0.6917 0.8016
C115 C 0.2207(3) 0.6567(2) 0.8130(2)
C116 C 0.2423(3) 0.63108(19) 0.8350(2)
C117 C 0.2842(4) 0.6136(2) 0.8314(3)
H102 H 0.2989 0.5961 0.8464
C118 C 0.3046(4) 0.6217(3) 0.8058(3)
H103 H 0.3333 0.6097 0.8034
C119 C 0.2831(5) 0.6473(3) 0.7838(3)
H104 H 0.2971 0.6529 0.7664
C120 C 0.2412(4) 0.6648(3) 0.7874(3)
N25 N 0.4564(5) 0.4985(3) 1.1492(4)
C121 C 0.4461(5) 0.4847(4) 1.1768(4)
C122 C 0.4759(6) 0.4586(4) 1.1940(3)
H105 H 0.4688 0.4492 1.2129
C123 C 0.5161(5) 0.4462(3) 1.1835(4)
C124 C 0.5265(5) 0.4600(4) 1.1559(4)
H106 H 0.5539 0.4516 1.1488
C125 C 0.4966(6) 0.4861(3) 1.1387(3)
H107 H 0.5037 0.4956 1.1199
C126 C 0.5491(11) 0.4163(6) 1.2027(7)
H108 H 0.5401 0.3950 1.1900
H109 H 0.5854 0.4210 1.2054
O9 O 0.5406(17) 0.4128(9) 1.2332(8)
H110 H 0.5103 0.4072 1.2308
N26 N 0.3372(5) 0.5311(3) 1.1790(4)
N27 N 0.3760(7) 0.5230(4) 1.1642(4)
C127 C 0.4079(5) 0.4982(4) 1.1840(5)
C128 C 0.3888(7) 0.4911(4) 1.2112(4)
H111 H 0.4027 0.4755 1.2284
C129 C 0.3451(6) 0.5114(4) 1.2081(4)
H112 H 0.3248 0.5118 1.2229
C130 C 0.3038(9) 0.5592(5) 1.1666(6)
H113 H 0.2712 0.5548 1.1715
H114 H 0.2969 0.5598 1.1424
N28 N 0.1371(5) 0.7824(3) 1.1888(3)
C131 C 0.1491(5) 0.7907(3) 1.1599(4)
C132 C 0.1207(5) 0.8147(4) 1.1387(3)
H115 H 0.1289 0.8204 1.1190
C133 C 0.0802(5) 0.8305(3) 1.1462(3)
C134 C 0.0682(5) 0.8222(4) 1.1750(3)
H116 H 0.0405 0.8330 1.1802
C135 C 0.0966(6) 0.7982(4) 1.1963(3)
H117 H 0.0883 0.7925 1.2160
C136 C 0.0490(8) 0.8584(5) 1.1225(5)
H118 H 0.0335 0.8483 1.1006
H119 H 0.0720 0.8767 1.1199
O10 O 0.0115(8) 0.8718(6) 1.1346(5)
H120 H -0.0147 0.8751 1.1190
N29 N 0.2601(5) 0.7443(3) 1.1688(3)
N30 N 0.2170(5) 0.7543(4) 1.1786(3)
C137 C 0.1881(5) 0.7769(4) 1.1545(4)
C138 C 0.2133(6) 0.7808(4) 1.1297(3)
H121 H 0.2023 0.7945 1.1105
C139 C 0.2578(5) 0.7606(4) 1.1385(3)
H122 H 0.2819 0.7585 1.1263
C140 C 0.2939(8) 0.7179(5) 1.1848(6)
H123 H 0.2960 0.7180 1.2086
H124 H 0.3282 0.7228 1.1828
C141 C 0.3225(4) 0.5940(2) 1.1802(3)
C142 C 0.3688(4) 0.5976(3) 1.2039(3)
H125 H 0.3894 0.5783 1.2114
C143 C 0.3848(4) 0.6294(4) 1.2166(3)
H126 H 0.4164 0.6319 1.2328
C144 C 0.3546(4) 0.6577(3) 1.2057(3)
H127 H 0.3655 0.6794 1.2144
C145 C 0.3083(3) 0.6540(2) 1.1820(2)
C146 C 0.2923(3) 0.6222(2) 1.1692(2)
C147 C 0.2461(4) 0.6186(3) 1.1455(3)
H128 H 0.2351 0.5968 1.1368
C148 C 0.2158(3) 0.6468(4) 1.1345(3)
H129 H 0.1842 0.6443 1.1183
C149 C 0.2318(4) 0.6786(3) 1.1473(3)
H130 H 0.2112 0.6979 1.1398
C150 C 0.2781(4) 0.6823(2) 1.1710(3)
N31 N 0.1593(5) 0.5392(4) 0.8332(3)
C151 C 0.1391(5) 0.5642(4) 0.8101(4)
C152 C 0.1600(5) 0.5702(3) 0.7843(4)
H131 H 0.1461 0.5872 0.7686
C153 C 0.2012(5) 0.5512(3) 0.7817(3)
C154 C 0.2215(5) 0.5262(3) 0.8047(4)
H132 H 0.2496 0.5133 0.8029
C155 C 0.2005(5) 0.5202(3) 0.8305(3)
H133 H 0.2144 0.5032 0.8463
C156 C 0.2243(8) 0.5579(5) 0.7523(5)
H134 H 0.1976 0.5552 0.7312
H135 H 0.2369 0.5815 0.7535
O11 O 0.2635(7) 0.5358(5) 0.7531(5)
H136 H 0.2903 0.5432 0.7662
N32 N 0.0355(5) 0.5929(4) 0.8368(4)
N33 N 0.0805(6) 0.5739(4) 0.8402(4)
C157 C 0.0987(5) 0.5812(4) 0.8127(4)
C158 C 0.0649(7) 0.6046(4) 0.7923(3)
H137 H 0.0678 0.6138 0.7722
C159 C 0.0258(5) 0.6118(4) 0.8072(4)
H138 H -0.0019 0.6267 0.7989
C160 C 0.0112(8) 0.5952(6) 0.8624(6)
H139 H 0.0152 0.5732 0.8740
H140 H -0.0255 0.5985 0.8520
N34 N -0.1291(5) 0.7492(3) 0.9959(3)
C161 C -0.1100(4) 0.7302(3) 1.0244(4)
C162 C -0.1323(4) 0.7324(3) 1.0500(3)
H141 H -0.1193 0.7195 1.0694
C163 C -0.1737(4) 0.7536(3) 1.0471(3)
C164 C -0.1927(4) 0.7726(3) 1.0187(3)
H142 H -0.2210 0.7870 1.0167
C165 C -0.1705(5) 0.7703(3) 0.9931(3)
H143 H -0.1835 0.7833 0.9736
C166 C -0.2002(9) 0.7553(7) 1.0754(5)
H144 H -0.2324 0.7426 1.0682
H145 H -0.2087 0.7792 1.0783
O12 O -0.1733(10) 0.7429(7) 1.1056(6)
H146 H -0.1460 0.7536 1.1124
N35 N -0.0045(4) 0.6905(3) 1.0073(3)
N36 N -0.0467(4) 0.7128(3) 1.0008(3)
C167 C -0.0670(4) 0.7116(3) 1.0281(4)
C168 C -0.0374(5) 0.6886(3) 1.0515(3)
H147 H -0.0426 0.6829 1.0721
C169 C 0.0012(4) 0.6756(3) 1.0386(3)
H148 H 0.0264 0.6596 1.0491
C170 C 0.0243(7) 0.6856(5) 0.9860(5)
H149 H 0.0594 0.6802 0.9988
H150 H 0.0252 0.7069 0.9739
C171 C 0.0280(4) 0.6215(3) 0.8867(2)
C172 C 0.0682(4) 0.6414(3) 0.8839(3)
H151 H 0.0827 0.6378 0.8663
C173 C 0.0873(4) 0.6667(3) 0.9070(3)
H152 H 0.1148 0.6803 0.9051
C174 C 0.0661(4) 0.6720(3) 0.9328(3)
H153 H 0.0791 0.6892 0.9485
C175 C 0.0259(3) 0.6520(2) 0.9355(2)
C176 C 0.0069(3) 0.6268(2) 0.9125(2)
C177 C -0.0333(4) 0.6068(2) 0.9153(3)
H154 H -0.0463 0.5896 0.8996
C178 C -0.0545(4) 0.6121(3) 0.9411(3)
H155 H -0.0820 0.5985 0.9430
C179 C -0.0354(4) 0.6374(3) 0.9641(3)
H156 H -0.0499 0.6410 0.9817
C180 C 0.0048(4) 0.6573(3) 0.9613(2)
Co1F Co -0.09042(10) 0.74155(7) 0.95888(7)
Co2F Co 0.09708(11) 0.96146(7) 0.87571(9)
Co3F Co 0.18031(13) 0.74271(9) 1.21599(9)
Co4F Co 0.37665(12) 0.96439(8) 1.12847(8)
N1F N -0.1319(5) 0.6968(3) 0.9385(4)
C1F C -0.1236(4) 0.6845(3) 0.9097(4)
C2F C -0.1541(5) 0.6589(4) 0.8921(3)
H1F H -0.1485 0.6505 0.8725
C3F C -0.1930(5) 0.6455(3) 0.9034(4)
C4F C -0.2013(5) 0.6579(4) 0.9322(4)
H2F H -0.2278 0.6488 0.9399
C5F C -0.1708(5) 0.6835(4) 0.9497(3)
H3F H -0.1765 0.6919 0.9694
C6F C -0.2258(9) 0.6166(6) 0.8843(6)
H4F H -0.2023 0.5970 0.8878
H5F H -0.2317 0.6231 0.8610
O1F O -0.2692(8) 0.6030(7) 0.8852(7)
H6F H -0.2761 0.6090 0.9025
N2F N -0.0193(4) 0.7356(3) 0.9067(3)
N3F N -0.0587(5) 0.7252(3) 0.9201(3)
C7F C -0.0859(4) 0.6987(3) 0.9000(4)
C8F C -0.0632(5) 0.6928(3) 0.8743(3)
H7F H -0.0737 0.6764 0.8572
C9F C -0.0220(5) 0.7156(3) 0.8784(3)
H8F H -0.0002 0.7173 0.8646
C10F C 0.0099(7) 0.7634(4) 0.9190(5)
H9F H 0.0140 0.7646 0.9429
H10F H 0.0439 0.7599 0.9159
N4F N 0.1432(4) 0.9975(3) 0.9085(3)
C11F C 0.1279(4) 1.0034(3) 0.9367(4)
C12F C 0.1538(4) 1.0268(3) 0.9599(3)
H11F H 0.1434 1.0309 0.9791
C13F C 0.1950(4) 1.0442(3) 0.9549(3)
C14F C 0.2102(4) 1.0383(3) 0.9268(3)
H12F H 0.2384 1.0502 0.9234
C15F C 0.1843(5) 1.0149(3) 0.9036(3)
H13F H 0.1947 1.0108 0.8843
C16F C 0.2238(7) 1.0686(4) 0.9806(5)
H14F H 0.2462 1.0555 0.9989
H15F H 0.1994 1.0811 0.9895
O2F O 0.2544(6) 1.0931(4) 0.9691(5)
H16F H 0.2845 1.0863 0.9737
N5F N 0.0211(4) 0.9509(3) 0.9242(3)
N6F N 0.0647(5) 0.9635(3) 0.9164(3)
C17F C 0.0880(4) 0.9879(3) 0.9405(4)
C18F C 0.0588(5) 0.9905(3) 0.9633(3)
H17F H 0.0658 1.0049 0.9820
C19F C 0.0175(4) 0.9676(4) 0.9532(3)
H18F H -0.0080 0.9641 0.9640
C20F C -0.0115(7) 0.9223(4) 0.9079(5)
H19F H -0.0447 0.9237 0.9126
H20F H -0.0173 0.9238 0.8838
C21F C -0.0110(4) 0.79845(19) 0.9032(2)
C22F C -0.0562(4) 0.7998(2) 0.8782(2)
H21F H -0.0722 0.7795 0.8686
C23F C -0.0781(3) 0.8310(3) 0.8673(2)
H22F H -0.1089 0.8319 0.8502
C24F C -0.0547(3) 0.8607(2) 0.8813(2)
H23F H -0.0697 0.8820 0.8738
C25F C -0.0095(3) 0.85936(19) 0.90630(19)
C26F C 0.0123(3) 0.82822(19) 0.91727(18)
C27F C 0.0575(3) 0.8268(2) 0.9423(2)
H24F H 0.0724 0.8055 0.9498
C28F C 0.0808(3) 0.8566(3) 0.9563(2)
H25F H 0.1117 0.8557 0.9734
C29F C 0.0590(4) 0.8877(2) 0.9454(3)
H26F H 0.0749 0.9081 0.9549
C30F C 0.0138(4) 0.88912(19) 0.9203(3)
N7F N -0.1436(5) 0.7741(4) 0.9235(4)
C31F C -0.1315(5) 0.8081(4) 0.9301(3)
C32F C -0.1611(5) 0.8331(3) 0.9108(4)
H27F H -0.1529 0.8563 0.9153
C33F C -0.2028(5) 0.8242(3) 0.8850(3)
C34F C -0.2148(5) 0.7902(4) 0.8784(4)
H28F H -0.2433 0.7841 0.8608
C35F C -0.1852(6) 0.7652(3) 0.8977(4)
H29F H -0.1935 0.7420 0.8932
C36F C -0.2346(9) 0.8520(5) 0.8633(6)
H30F H -0.2155 0.8621 0.8490
H31F H -0.2422 0.8702 0.8773
O3F O -0.2768(10) 0.8384(6) 0.8453(8)
H32F H -0.2988 0.8535 0.8391
N8F N -0.0151(5) 0.8066(3) 0.9924(3)
N9F N -0.0567(5) 0.7903(2) 0.9700(3)
C37F C -0.0903(4) 0.8158(4) 0.9528(3)
C38F C -0.0695(6) 0.8478(3) 0.9646(4)
H33F H -0.0841 0.8692 0.9574
C39F C -0.0230(5) 0.8422(3) 0.9891(3)
H34F H -0.0011 0.8592 1.0011
C40F C 0.0212(8) 0.7870(5) 1.0125(5)
H35F H 0.0222 0.7651 1.0012
H36F H 0.0543 0.7982 1.0152
N10F N 0.2281(5) 0.7017(3) 1.2387(3)
C41F C 0.2116(4) 0.6698(4) 1.2266(3)
C42F C 0.2395(4) 0.6412(3) 1.2398(3)
H37F H 0.2282 0.6194 1.2315
C43F C 0.2839(4) 0.6446(3) 1.2652(3)
C44F C 0.3004(4) 0.6766(3) 1.2774(3)
H38F H 0.3307 0.6789 1.2948
C45F C 0.2725(5) 0.7051(3) 1.2642(3)
H39F H 0.2838 0.7270 1.2725
C46F C 0.3149(6) 0.6138(4) 1.2786(4)
H40F H 0.3260 0.6031 1.2607
H41F H 0.2932 0.5974 1.2860
O4F O 0.3593(6) 0.6210(5) 1.3060(4)
H42F H 0.3506 0.6228 1.3234
N11F N 0.0969(5) 0.6915(4) 1.1698(3)
N12F N 0.1436(5) 0.6987(3) 1.1935(3)
C47F C 0.1680(4) 0.6674(4) 1.2045(4)
C48F C 0.1363(6) 0.6409(3) 1.1876(4)
H43F H 0.1433 0.6173 1.1902
C49F C 0.0924(5) 0.6558(4) 1.1662(4)
H44F H 0.0648 0.6439 1.1519
C50F C 0.0598(8) 0.7144(6) 1.1491(6)
H45F H 0.0260 0.7039 1.1445
H46F H 0.0591 0.7355 1.1616
C51F C 0.0162(4) 0.7795(3) 1.0461(2)
C52F C -0.0231(4) 0.7947(3) 1.0555(3)
H47F H -0.0442 0.8109 1.0415
C53F C -0.0316(4) 0.7863(3) 1.0854(3)
H48F H -0.0584 0.7967 1.0918
C54F C -0.0008(4) 0.7626(3) 1.1059(3)
H49F H -0.0066 0.7569 1.1263
C55F C 0.0385(3) 0.7473(2) 1.0964(2)
C56F C 0.0469(3) 0.7558(2) 1.0665(2)
C57F C 0.0862(4) 0.7405(3) 1.0571(3)
H50F H 0.0920 0.7463 1.0367
C58F C 0.1170(4) 0.7168(3) 1.0776(3)
H51F H 0.1438 0.7064 1.0711
C59F C 0.1085(4) 0.7084(3) 1.1075(3)
H52F H 0.1296 0.6922 1.1215
C60F C 0.0693(4) 0.7236(3) 1.1169(2)
N13F N 0.0545(5) 0.9199(3) 0.8493(3)
C61F C 0.0756(4) 0.8881(3) 0.8583(3)
C62F C 0.0509(4) 0.8592(3) 0.8431(3)
H53F H 0.0653 0.8375 0.8493
C63F C 0.0050(4) 0.8621(3) 0.8189(3)
C64F C -0.0161(4) 0.8939(3) 0.8098(3)
H54F H -0.0474 0.8959 0.7933
C65F C 0.0087(5) 0.9228(2) 0.8250(3)
H55F H -0.0057 0.9445 0.8189
C66F C -0.0225(6) 0.8302(4) 0.8022(5)
H56F H -0.0205 0.8127 0.8193
H57F H -0.0044 0.8214 0.7868
O5F O -0.0706(6) 0.8346(4) 0.7859(5)
H58F H -0.0798 0.8542 0.7896
N14F N 0.1946(5) 0.9090(3) 0.9151(3)
N15F N 0.1470(5) 0.9181(3) 0.8934(4)
C67F C 0.1218(4) 0.8879(4) 0.8797(3)
C68F C 0.1538(6) 0.8601(3) 0.8929(4)
H59F H 0.1463 0.8369 0.8880
C69F C 0.1988(5) 0.8732(3) 0.9148(4)
H60F H 0.2268 0.8602 0.9271
C70F C 0.2265(8) 0.9331(5) 0.9320(6)
H61F H 0.2617 0.9253 0.9349
H62F H 0.2216 0.9539 0.9185
N16F N 0.4307(7) 1.0034(4) 1.1541(4)
C71F C 0.4126(6) 1.0362(5) 1.1470(4)
C72F C 0.4422(6) 1.0636(4) 1.1615(5)
H63F H 0.4298 1.0860 1.1567
C73F C 0.4899(6) 1.0582(4) 1.1830(5)
C74F C 0.5081(6) 1.0254(4) 1.1901(5)
H64F H 0.5407 1.0217 1.2048
C75F C 0.4784(7) 0.9980(3) 1.1756(5)
H65F H 0.4908 0.9756 1.1804
C76F C 0.5233(10) 1.0879(6) 1.1968(9)
H66F H 0.5127 1.0984 1.2151
H67F H 0.5211 1.1052 1.1796
O6F O 0.5749(12) 1.0750(10) 1.2087(12)
H68F H 0.5751 1.0575 1.2200
N17F N 0.2926(6) 1.0242(4) 1.0907(4)
N18F N 0.3399(7) 1.0139(3) 1.1120(4)
C77F C 0.3667(6) 1.0435(5) 1.1261(4)
C78F C 0.3359(8) 1.0720(3) 1.1135(5)
H69F H 0.3444 1.0951 1.1188
C79F C 0.2901(6) 1.0601(4) 1.0916(4)
H70F H 0.2626 1.0737 1.0796
C80F C 0.2576(9) 1.0017(6) 1.0698(6)
H71F H 0.2235 1.0121 1.0643
H72F H 0.2564 0.9804 1.0819
C81F C 0.2202(4) 0.9419(3) 0.9661(3)
C82F C 0.1782(4) 0.9273(3) 0.9727(3)
H73F H 0.1573 0.9121 0.9574
C83F C 0.1667(4) 0.9349(3) 1.0019(4)
H74F H 0.1380 0.9249 1.0065
C84F C 0.1972(4) 0.9571(3) 1.0244(3)
H75F H 0.1894 0.9623 1.0443
C85F C 0.2392(4) 0.9717(2) 1.0177(2)
C86F C 0.2507(3) 0.9641(2) 0.9885(2)
C87F C 0.2927(4) 0.9788(3) 0.9819(3)
H76F H 0.3005 0.9736 0.9619
C88F C 0.3232(4) 1.0010(3) 1.0043(4)
H77F H 0.3519 1.0110 0.9998
C89F C 0.3117(4) 1.0086(3) 1.0335(3)
H78F H 0.3325 1.0237 1.0489
C90F C 0.2697(5) 0.9939(3) 1.0402(3)
N19F N 0.4111(5) 0.9623(3) 1.0896(3)
C91F C 0.3883(4) 0.9390(3) 1.0654(4)
C92F C 0.4071(5) 0.9342(3) 1.0385(3)
H79F H 0.3915 0.9182 1.0220
C93F C 0.4487(5) 0.9527(3) 1.0358(3)
C94F C 0.4715(4) 0.9760(3) 1.0600(3)
H80F H 0.4999 0.9887 1.0582
C95F C 0.4527(5) 0.9809(3) 1.0869(3)
H81F H 0.4682 0.9968 1.1034
C96F C 0.4686(7) 0.9482(5) 1.0056(5)
H82F H 0.4411 0.9538 0.9856
H83F H 0.4777 0.9241 1.0040
O7F O 0.5086(6) 0.9673(4) 1.0064(5)
H84F H 0.4992 0.9849 0.9951
N20F N 0.2835(5) 0.9103(3) 1.0911(3)
N21F N 0.3282(5) 0.9295(3) 1.0942(3)
C97F C 0.3454(5) 0.9230(4) 1.0661(4)
C98F C 0.3113(6) 0.8997(4) 1.0457(3)
H85F H 0.3137 0.8910 1.0253
C99F C 0.2730(5) 0.8919(3) 1.0611(4)
H86F H 0.2453 0.8770 1.0528
C100F C 0.2594(8) 0.9048(5) 1.1149(5)
H87F H 0.2607 0.9262 1.1273
H88F H 0.2233 0.9002 1.1037
N22F N 0.1391(7) 0.7407(5) 1.2527(4)
C101F C 0.1609(5) 0.7608(4) 1.2799(5)
C102F C 0.1381(6) 0.7635(4) 1.3052(4)
H89F H 0.1530 0.7773 1.3238
C103F C 0.0935(6) 0.7460(5) 1.3034(4)
C104F C 0.0717(6) 0.7259(4) 1.2762(4)
H90F H 0.0413 0.7139 1.2749
C105F C 0.0945(7) 0.7232(4) 1.2508(4)
H91F H 0.0796 0.7094 1.2322
C106F C 0.0667(10) 0.7510(9) 1.3294(6)
H92F H 0.0633 0.7753 1.3338
H93F H 0.0852 0.7396 1.3502
O8F O 0.0173(12) 0.7354(11) 1.3156(10)
H94F H 0.0209 0.7145 1.3136
N23F N 0.2627(6) 0.8002(4) 1.2624(4)
N24F N 0.2196(7) 0.7787(4) 1.2548(4)
C107F C 0.1979(6) 0.7801(5) 1.2815(5)
C108F C 0.2276(8) 0.8024(5) 1.3056(4)
H95F H 0.2217 0.8080 1.3260
C109F C 0.2677(6) 0.8148(4) 1.2938(4)
H96F H 0.2933 0.8302 1.3050
C110F C 0.2830(10) 0.8079(6) 1.2357(6)
H97F H 0.3191 0.8140 1.2451
H98F H 0.2820 0.7869 1.2227
C111F C 0.2781(4) 0.8770(3) 1.1394(2)
C112F C 0.3201(4) 0.8595(3) 1.1358(3)
H99F H 0.3340 0.8651 1.1184
C113F C 0.3416(4) 0.8339(3) 1.1578(3)
H100F H 0.3703 0.8219 1.1554
C114F C 0.3212(4) 0.8258(3) 1.1834(3)
H101F H 0.3359 0.8083 1.1984
C115F C 0.2793(3) 0.8433(2) 1.1870(2)
C116F C 0.2577(3) 0.86892(19) 1.1650(2)
C117F C 0.2158(4) 0.8864(2) 1.1686(3)
H102F H 0.2011 0.9039 1.1536
C118F C 0.1954(4) 0.8783(3) 1.1942(3)
H103F H 0.1667 0.8903 1.1966
C119F C 0.2169(5) 0.8527(3) 1.2162(3)
H104F H 0.2029 0.8471 1.2336
C120F C 0.2588(4) 0.8352(3) 1.2126(3)
N25F N 0.0436(5) 1.0015(3) 0.8508(4)
C121F C 0.0539(5) 1.0153(4) 0.8232(4)
C122F C 0.0241(6) 1.0414(4) 0.8060(3)
H105F H 0.0312 1.0508 0.7871
C123F C -0.0161(5) 1.0538(3) 0.8165(4)
C124F C -0.0265(5) 1.0400(4) 0.8441(4)
H106F H -0.0539 1.0484 0.8512
C125F C 0.0034(6) 1.0139(3) 0.8613(3)
H107F H -0.0037 1.0044 0.8801
C126F C -0.0491(11) 1.0837(6) 0.7973(7)
H108F H -0.0401 1.1050 0.8100
H109F H -0.0854 1.0790 0.7946
O9F O -0.0406(17) 1.0872(9) 0.7668(8)
H110F H -0.0103 1.0928 0.7692
N26F N 0.1628(5) 0.9689(3) 0.8210(4)
N27F N 0.1240(7) 0.9770(4) 0.8358(4)
C127F C 0.0921(5) 1.0018(4) 0.8160(5)
C128F C 0.1112(7) 1.0089(4) 0.7888(4)
H111F H 0.0973 1.0245 0.7716
C129F C 0.1549(6) 0.9886(4) 0.7919(4)
H112F H 0.1752 0.9882 0.7771
C130F C 0.1962(9) 0.9408(5) 0.8334(6)
H113F H 0.2288 0.9452 0.8285
H114F H 0.2031 0.9402 0.8576
N28F N 0.3629(5) 0.7176(3) 0.8112(3)
C131F C 0.3509(5) 0.7093(3) 0.8401(4)
C132F C 0.3793(5) 0.6853(4) 0.8613(3)
H115F H 0.3711 0.6796 0.8810
C133F C 0.4198(5) 0.6695(3) 0.8538(3)
C134F C 0.4318(5) 0.6778(4) 0.8250(3)
H116F H 0.4595 0.6670 0.8198
C135F C 0.4034(6) 0.7018(4) 0.8037(3)
H117F H 0.4117 0.7075 0.7840
C136F C 0.4510(8) 0.6416(5) 0.8775(5)
H118F H 0.4665 0.6517 0.8994
H119F H 0.4280 0.6233 0.8801
O10F O 0.4885(8) 0.6282(6) 0.8654(5)
H120F H 0.5147 0.6249 0.8810
N29F N 0.2399(5) 0.7557(3) 0.8312(3)
N30F N 0.2830(5) 0.7457(4) 0.8214(3)
C137F C 0.3119(5) 0.7231(4) 0.8455(4)
C138F C 0.2867(6) 0.7192(4) 0.8703(3)
H121F H 0.2977 0.7055 0.8895
C139F C 0.2422(5) 0.7394(4) 0.8615(3)
H122F H 0.2181 0.7415 0.8737
C140F C 0.2061(8) 0.7821(5) 0.8152(6)
H123F H 0.2040 0.7820 0.7914
H124F H 0.1718 0.7772 0.8172
C141F C 0.1775(4) 0.9060(2) 0.8198(3)
C142F C 0.1312(4) 0.9024(3) 0.7961(3)
H125F H 0.1106 0.9217 0.7886
C143F C 0.1152(4) 0.8706(4) 0.7834(3)
H126F H 0.0836 0.8681 0.7672
C144F C 0.1454(4) 0.8423(3) 0.7943(3)
H127F H 0.1345 0.8206 0.7856
C145F C 0.1917(3) 0.8460(2) 0.8180(2)
C146F C 0.2077(3) 0.8778(2) 0.8308(2)
C147F C 0.2539(4) 0.8814(3) 0.8545(3)
H128F H 0.2649 0.9032 0.8632
C148F C 0.2842(3) 0.8532(4) 0.8655(3)
H129F H 0.3158 0.8557 0.8817
C149F C 0.2682(4) 0.8214(3) 0.8527(3)
H130F H 0.2888 0.8021 0.8602
C150F C 0.2219(4) 0.8177(2) 0.8290(3)
N31F N 0.3407(5) 0.9608(4) 1.1668(3)
C151F C 0.3609(5) 0.9358(4) 1.1899(4)
C152F C 0.3400(5) 0.9298(3) 1.2157(4)
H131F H 0.3539 0.9128 1.2314
C153F C 0.2988(5) 0.9488(3) 1.2183(3)
C154F C 0.2785(5) 0.9738(3) 1.1953(4)
H132F H 0.2504 0.9867 1.1971
C155F C 0.2995(5) 0.9798(3) 1.1695(3)
H133F H 0.2856 0.9968 1.1537
C156F C 0.2757(8) 0.9421(5) 1.2477(5)
H134F H 0.3024 0.9448 1.2688
H135F H 0.2631 0.9185 1.2465
O11F O 0.2365(7) 0.9642(5) 1.2469(5)
H136F H 0.2097 0.9568 1.2338
N32F N 0.4645(5) 0.9071(4) 1.1632(4)
N33F N 0.4195(6) 0.9261(4) 1.1598(4)
C157F C 0.4013(5) 0.9188(4) 1.1873(4)
C158F C 0.4351(7) 0.8954(4) 1.2077(3)
H137F H 0.4322 0.8862 1.2278
C159F C 0.4742(5) 0.8882(4) 1.1928(4)
H138F H 0.5019 0.8733 1.2011
C160F C 0.4888(8) 0.9048(6) 1.1376(6)
H139F H 0.4848 0.9268 1.1260
H140F H 0.5255 0.9015 1.1480
N34F N 0.6291(5) 0.7508(3) 1.0041(3)
C161F C 0.6100(4) 0.7698(3) 0.9756(4)
C162F C 0.6323(4) 0.7676(3) 0.9500(3)
H141F H 0.6193 0.7805 0.9306
C163F C 0.6737(4) 0.7464(3) 0.9529(3)
C164F C 0.6927(4) 0.7274(3) 0.9813(3)
H142F H 0.7210 0.7130 0.9833
C165F C 0.6705(5) 0.7297(3) 1.0069(3)
H143F H 0.6835 0.7167 1.0264
C166F C 0.7002(9) 0.7447(7) 0.9246(5)
H144F H 0.7324 0.7574 0.9318
H145F H 0.7087 0.7208 0.9217
O12F O 0.6733(10) 0.7571(7) 0.8944(6)
H146F H 0.6460 0.7464 0.8876
N35F N 0.5045(4) 0.8095(3) 0.9927(3)
N36F N 0.5467(4) 0.7872(3) 0.9992(3)
C167F C 0.5670(4) 0.7884(3) 0.9719(4)
C168F C 0.5374(5) 0.8114(3) 0.9485(3)
H147F H 0.5426 0.8171 0.9279
C169F C 0.4988(4) 0.8244(3) 0.9614(3)
H148F H 0.4736 0.8404 0.9509
C170F C 0.4757(7) 0.8144(5) 1.0140(5)
H149F H 0.4406 0.8198 1.0012
H150F H 0.4748 0.7931 1.0261
C171F C 0.4720(4) 0.8785(3) 1.1133(2)
C172F C 0.4318(4) 0.8586(3) 1.1161(3)
H151F H 0.4173 0.8622 1.1337
C173F C 0.4127(4) 0.8333(3) 1.0930(3)
H152F H 0.3852 0.8197 1.0949
C174F C 0.4339(4) 0.8280(3) 1.0672(3)
H153F H 0.4209 0.8108 1.0515
C175F C 0.4741(3) 0.8480(2) 1.0645(2)
C176F C 0.4931(3) 0.8732(2) 1.0875(2)
C177F C 0.5333(4) 0.8932(2) 1.0847(3)
H154F H 0.5463 0.9104 1.1004
C178F C 0.5545(4) 0.8879(3) 1.0589(3)
H155F H 0.5820 0.9015 1.0570
C179F C 0.5354(4) 0.8626(3) 1.0359(3)
H156F H 0.5499 0.8590 1.0183
C180F C 0.4952(4) 0.8427(3) 1.0387(2)
B1 B 0.8851(6) 0.6261(4) 0.7964(4)
F1 F 0.9117(6) 0.5998(5) 0.7878(4)
F2 F 0.9067(9) 0.6564(4) 0.7917(6)
F3 F 0.8868(6) 0.6231(4) 0.8291(3)
F4 F 0.8351(5) 0.6250(5) 0.7778(4)
B2 B 0.6281(6) 0.6413(4) 0.5543(4)
F5 F 0.6617(5) 0.6400(4) 0.5356(3)
F6 F 0.6460(6) 0.6230(4) 0.5828(3)
F7 F 0.5825(5) 0.6279(5) 0.5364(4)
F8 F 0.6213(7) 0.6746(3) 0.5619(5)
B3 B 0.6392(6) 0.8766(4) 0.5445(4)
F9 F 0.6082(6) 0.8698(4) 0.5643(4)
F10 F 0.6137(7) 0.8695(5) 0.5123(3)
F11 F 0.6526(7) 0.9104(3) 0.5471(5)
F12 F 0.6821(5) 0.8571(4) 0.5543(5)
B4 B 0.3777(7) 0.5576(4) 0.4517(5)
F13 F 0.3828(7) 0.5790(5) 0.4272(4)
F14 F 0.4203(7) 0.5596(6) 0.4779(5)
F15 F 0.3357(7) 0.5670(6) 0.4612(6)
F16 F 0.3718(11) 0.5248(4) 0.4401(7)
B5 B 0.5983(7) 0.7403(5) 0.3548(5)
F17 F 0.5508(6) 0.7285(5) 0.3541(5)
F18 F 0.6328(7) 0.7144(6) 0.3642(6)
F19 F 0.6115(10) 0.7663(6) 0.3771(7)
F20 F 0.5973(10) 0.7516(7) 0.3239(5)
B6 B 0.0553(6) 0.3424(4) 0.8609(4)
F21 F 0.0989(7) 0.3588(5) 0.8594(6)
F22 F 0.0684(6) 0.3140(4) 0.8805(4)
F23 F 0.0263(7) 0.3636(4) 0.8743(5)
F24 F 0.0278(9) 0.3330(6) 0.8297(4)
S1 S 0.8783(6) 0.7476(5) 0.5176(5)
C183 C 0.843(3) 0.7319(19) 0.5366(17)
S2 S 0.8035(13) 0.7099(11) 0.5483(10)
O17 O 0.5000 0.5376(10) 0.2500
O18 O 1.0000 0.5352(9) 0.7500
O19 O 0.9010(7) 0.4771(5) 0.7312(5)
O20 O 0.2438(12) 0.4583(8) 0.7351(8)
O21 O 0.5273(13) 0.5828(9) 0.9209(9)
C181? C -0.0241(11) 0.4121(6) 0.8042(9)
H157? H -0.0068 0.3906 0.8128
H158? H -0.0555 0.4139 0.8112
O13? O -0.0357(18) 0.4132(11) 0.7685(9)
H159? H -0.0087 0.4147 0.7630
C182? C 0.4340(12) 0.7473(10) 0.6710(8)
H160? H 0.4350 0.7686 0.6589
H161? H 0.4694 0.7410 0.6824
O14? O 0.4116(15) 0.7208(10) 0.6473(9)
H162? H 0.3799 0.7226 0.6418
H163? H 0.5274 0.3978 1.2059
H164? H 0.5713 0.4076 1.1894
O15? O 0.5795(15) 0.4273(8) 1.2328(9)
H165? H 0.5612 0.4323 1.2450
H166? H -0.1739 0.7596 1.0966
H167? H -0.2149 0.7325 1.0775
O16? O -0.2373(10) 0.7792(7) 1.0709(8)
H168? H -0.2243 0.7986 1.0720
loop_
_geom_bond_atom_site_label_1
_geom_bond_atom_site_label_2
_geom_bond_site_symmetry_1
_geom_bond_site_symmetry_2
Co1 N1 1_555 1_555
Co2 N4 1_555 1_555
Co3 N10 1_555 1_555
Co4 N16 1_555 1_555
N1 C1 1_555 1_555
C1 C2 1_555 1_555
C2 H1 1_555 1_555
C3 C2 1_555 1_555
C4 C3 1_555 1_555
H2 C4 1_555 1_555
C5 N1 1_555 1_555
H3 C5 1_555 1_555
C6 C3 1_555 1_555
H4 C6 1_555 1_555
H5 C6 1_555 1_555
O1 C6 1_555 1_555
H6 O1 1_555 1_555
N2 N3 1_555 1_555
N3 Co1 1_555 1_555
C7 C1 1_555 1_555
C8 C7 1_555 1_555
H7 C8 1_555 1_555
C9 N2 1_555 1_555
H8 C9 1_555 1_555
C10 N2 1_555 1_555
H9 C10 1_555 1_555
H10 C10 1_555 1_555
N4 C11 1_555 1_555
C11 C12 1_555 1_555
C12 H11 1_555 1_555
C13 C12 1_555 1_555
C14 C13 1_555 1_555
H12 C14 1_555 1_555
C15 N4 1_555 1_555
H13 C15 1_555 1_555
C16 C13 1_555 1_555
H14 C16 1_555 1_555
H15 C16 1_555 1_555
O2 C16 1_555 1_555
H16 O2 1_555 1_555
N5 N6 1_555 1_555
N6 Co2 1_555 1_555
C17 C11 1_555 1_555
C18 C17 1_555 1_555
H17 C18 1_555 1_555
C19 N5 1_555 1_555
H18 C19 1_555 1_555
C20 N5 1_555 1_555
H19 C20 1_555 1_555
H20 C20 1_555 1_555
C21 C10 1_555 1_555
C22 C21 1_555 1_555
H21 C22 1_555 1_555
C23 C22 1_555 1_555
H22 C23 1_555 1_555
C24 C23 1_555 1_555
H23 C24 1_555 1_555
C25 C24 1_555 1_555
C26 C21 1_555 1_555
C27 C26 1_555 1_555
H24 C27 1_555 1_555
C28 C27 1_555 1_555
H25 C28 1_555 1_555
C29 C28 1_555 1_555
H26 C29 1_555 1_555
C30 C20 1_555 1_555
N7 Co1 1_555 1_555
C31 N7 1_555 1_555
C32 C31 1_555 1_555
H27 C32 1_555 1_555
C33 C32 1_555 1_555
C34 C33 1_555 1_555
H28 C34 1_555 1_555
C35 N7 1_555 1_555
H29 C35 1_555 1_555
C36 C33 1_555 1_555
H30 C36 1_555 1_555
H31 C36 1_555 1_555
O3 C36 1_555 1_555
H32 O3 1_555 1_555
N8 N9 1_555 1_555
N9 Co1 1_555 1_555
C37 C31 1_555 1_555
C38 C37 1_555 1_555
H33 C38 1_555 1_555
C39 N8 1_555 1_555
H34 C39 1_555 1_555
C40 N8 1_555 1_555
H35 C40 1_555 1_555
H36 C40 1_555 1_555
N10 C41 1_555 1_555
C41 C42 1_555 1_555
C42 H37 1_555 1_555
C43 C42 1_555 1_555
C44 C43 1_555 1_555
H38 C44 1_555 1_555
C45 N10 1_555 1_555
H39 C45 1_555 1_555
C46 C43 1_555 1_555
H40 C46 1_555 1_555
H41 C46 1_555 1_555
O4 C46 1_555 1_555
H42 O4 1_555 1_555
N11 N12 1_555 1_555
N12 Co3 1_555 1_555
C47 C41 1_555 1_555
C48 C47 1_555 1_555
H43 C48 1_555 1_555
C49 N11 1_555 1_555
H44 C49 1_555 1_555
C50 N11 1_555 1_555
H45 C50 1_555 1_555
H46 C50 1_555 1_555
C51 C40 1_555 1_555
C52 C51 1_555 1_555
H47 C52 1_555 1_555
C53 C52 1_555 1_555
H48 C53 1_555 1_555
C54 C53 1_555 1_555
H49 C54 1_555 1_555
C55 C54 1_555 1_555
C56 C51 1_555 1_555
C57 C56 1_555 1_555
H50 C57 1_555 1_555
C58 C57 1_555 1_555
H51 C58 1_555 1_555
C59 C58 1_555 1_555
H52 C59 1_555 1_555
C60 C50 1_555 1_555
N13 Co2 1_555 1_555
C61 N13 1_555 1_555
C62 C61 1_555 1_555
H53 C62 1_555 1_555
C63 C62 1_555 1_555
C64 C63 1_555 1_555
H54 C64 1_555 1_555
C65 N13 1_555 1_555
H55 C65 1_555 1_555
C66 C63 1_555 1_555
H56 C66 1_555 1_555
H57 C66 1_555 1_555
O5 C66 1_555 1_555
H58 O5 1_555 1_555
N14 N15 1_555 1_555
N15 Co2 1_555 1_555
C67 C61 1_555 1_555
C68 C67 1_555 1_555
H59 C68 1_555 1_555
C69 N14 1_555 1_555
H60 C69 1_555 1_555
C70 N14 1_555 1_555
H61 C70 1_555 1_555
H62 C70 1_555 1_555
N16 C71 1_555 1_555
C71 C72 1_555 1_555
C72 H63 1_555 1_555
C73 C72 1_555 1_555
C74 C73 1_555 1_555
H64 C74 1_555 1_555
C75 N16 1_555 1_555
H65 C75 1_555 1_555
C76 C73 1_555 1_555
H66 C76 1_555 1_555
H67 C76 1_555 1_555
O6 C76 1_555 1_555
H68 O6 1_555 1_555
N17 N18 1_555 1_555
N18 Co4 1_555 1_555
C77 C71 1_555 1_555
C78 C77 1_555 1_555
H69 C78 1_555 1_555
C79 N17 1_555 1_555
H70 C79 1_555 1_555
C80 N17 1_555 1_555
H71 C80 1_555 1_555
H72 C80 1_555 1_555
C81 C70 1_555 1_555
C82 C81 1_555 1_555
H73 C82 1_555 1_555
C83 C82 1_555 1_555
H74 C83 1_555 1_555
C84 C83 1_555 1_555
H75 C84 1_555 1_555
C85 C84 1_555 1_555
C86 C81 1_555 1_555
C87 C86 1_555 1_555
H76 C87 1_555 1_555
C88 C87 1_555 1_555
H77 C88 1_555 1_555
C89 C88 1_555 1_555
H78 C89 1_555 1_555
C90 C80 1_555 1_555
N19 Co4 1_555 1_555
C91 N19 1_555 1_555
C92 C91 1_555 1_555
H79 C92 1_555 1_555
C93 C92 1_555 1_555
C94 C93 1_555 1_555
H80 C94 1_555 1_555
C95 N19 1_555 1_555
H81 C95 1_555 1_555
C96 C93 1_555 1_555
H82 C96 1_555 1_555
H83 C96 1_555 1_555
O7 C96 1_555 1_555
H84 O7 1_555 1_555
N20 N21 1_555 1_555
N21 Co4 1_555 1_555
C97 C91 1_555 1_555
C98 C97 1_555 1_555
H85 C98 1_555 1_555
C99 N20 1_555 1_555
H86 C99 1_555 1_555
C100 N20 1_555 1_555
H87 C100 1_555 1_555
H88 C100 1_555 1_555
N22 Co3 1_555 1_555
C101 N22 1_555 1_555
C102 C101 1_555 1_555
H89 C102 1_555 1_555
C103 C102 1_555 1_555
C104 C103 1_555 1_555
H90 C104 1_555 1_555
C105 N22 1_555 1_555
H91 C105 1_555 1_555
C106 C103 1_555 1_555
H92 C106 1_555 1_555
H93 C106 1_555 1_555
O8 C106 1_555 1_555
H94 O8 1_555 1_555
N23 N24 1_555 1_555
N24 Co3 1_555 1_555
C107 C101 1_555 1_555
C108 C107 1_555 1_555
H95 C108 1_555 1_555
C109 N23 1_555 1_555
H96 C109 1_555 1_555
C110 N23 1_555 1_555
H97 C110 1_555 1_555
H98 C110 1_555 1_555
C111 C100 1_555 1_555
C112 C111 1_555 1_555
H99 C112 1_555 1_555
C113 C112 1_555 1_555
H100 C113 1_555 1_555
C114 C113 1_555 1_555
H101 C114 1_555 1_555
C115 C114 1_555 1_555
C116 C111 1_555 1_555
C117 C116 1_555 1_555
H102 C117 1_555 1_555
C118 C117 1_555 1_555
H103 C118 1_555 1_555
C119 C118 1_555 1_555
H104 C119 1_555 1_555
C120 C110 1_555 1_555
N25 Co2 1_555 1_555
C121 N25 1_555 1_555
C122 C121 1_555 1_555
H105 C122 1_555 1_555
C123 C122 1_555 1_555
C124 C123 1_555 1_555
H106 C124 1_555 1_555
C125 N25 1_555 1_555
H107 C125 1_555 1_555
C126 C123 1_555 1_555
H108 C126 1_555 1_555
H109 C126 1_555 1_555
O9 C126 1_555 1_555
H110 O9 1_555 1_555
N26 N27 1_555 1_555
N27 Co2 1_555 1_555
C127 C121 1_555 1_555
C128 C127 1_555 1_555
H111 C128 1_555 1_555
C129 N26 1_555 1_555
H112 C129 1_555 1_555
C130 N26 1_555 1_555
H113 C130 1_555 1_555
H114 C130 1_555 1_555
N28 C131 1_555 1_555
C131 C132 1_555 1_555
C132 H115 1_555 1_555
C133 C132 1_555 1_555
C134 C133 1_555 1_555
H116 C134 1_555 1_555
C135 N28 1_555 1_555
H117 C135 1_555 1_555
C136 C133 1_555 1_555
H118 C136 1_555 1_555
H119 C136 1_555 1_555
O10 C136 1_555 1_555
H120 O10 1_555 1_555
N29 N30 1_555 1_555
N30 C137 1_555 1_555
C137 C131 1_555 1_555
C138 C137 1_555 1_555
H121 C138 1_555 1_555
C139 N29 1_555 1_555
H122 C139 1_555 1_555
C140 N29 1_555 1_555
H123 C140 1_555 1_555
H124 C140 1_555 1_555
C141 C130 1_555 1_555
C142 C141 1_555 1_555
H125 C142 1_555 1_555
C143 C142 1_555 1_555
H126 C143 1_555 1_555
C144 C143 1_555 1_555
H127 C144 1_555 1_555
C145 C144 1_555 1_555
C146 C141 1_555 1_555
C147 C146 1_555 1_555
H128 C147 1_555 1_555
C148 C147 1_555 1_555
H129 C148 1_555 1_555
C149 C148 1_555 1_555
H130 C149 1_555 1_555
C150 C140 1_555 1_555
N31 Co4 1_555 1_555
C151 N31 1_555 1_555
C152 C151 1_555 1_555
H131 C152 1_555 1_555
C153 C152 1_555 1_555
C154 C153 1_555 1_555
H132 C154 1_555 1_555
C155 N31 1_555 1_555
H133 C155 1_555 1_555
C156 C153 1_555 1_555
H134 C156 1_555 1_555
H135 C156 1_555 1_555
O11 C156 1_555 1_555
H136 O11 1_555 1_555
N32 N33 1_555 1_555
N33 Co4 1_555 1_555
C157 C151 1_555 1_555
C158 C157 1_555 1_555
H137 C158 1_555 1_555
C159 N32 1_555 1_555
H138 C159 1_555 1_555
C160 N32 1_555 1_555
H139 C160 1_555 1_555
H140 C160 1_555 1_555
N34 C161 1_555 1_555
C161 C162 1_555 1_555
C162 H141 1_555 1_555
C163 C162 1_555 1_555
C164 C163 1_555 1_555
H142 C164 1_555 1_555
C165 N34 1_555 1_555
H143 C165 1_555 1_555
C166 C163 1_555 1_555
H144 C166 1_555 1_555
H145 C166 1_555 1_555
O12 C166 1_555 1_555
H146 O12 1_555 1_555
N35 N36 1_555 1_555
N36 C167 1_555 1_555
C167 C161 1_555 1_555
C168 C167 1_555 1_555
H147 C168 1_555 1_555
C169 N35 1_555 1_555
H148 C169 1_555 1_555
C170 N35 1_555 1_555
H149 C170 1_555 1_555
H150 C170 1_555 1_555
C171 C160 1_555 1_555
C172 C171 1_555 1_555
H151 C172 1_555 1_555
C173 C172 1_555 1_555
H152 C173 1_555 1_555
C174 C173 1_555 1_555
H153 C174 1_555 1_555
C175 C174 1_555 1_555
C176 C171 1_555 1_555
C177 C176 1_555 1_555
H154 C177 1_555 1_555
C178 C177 1_555 1_555
H155 C178 1_555 1_555
C179 C178 1_555 1_555
H156 C179 1_555 1_555
C180 C170 1_555 1_555
B1 F1 1_555 1_555
F2 B1 1_555 1_555
F3 B1 1_555 1_555
F4 B1 1_555 1_555
B2 F5 1_555 1_555
F6 B2 1_555 1_555
F7 B2 1_555 1_555
F8 B2 1_555 1_555
B3 F9 1_555 1_555
F10 B3 1_555 1_555
F11 B3 1_555 1_555
F12 B3 1_555 1_555
B4 F13 1_555 1_555
F14 B4 1_555 1_555
F15 B4 1_555 1_555
F16 B4 1_555 1_555
B5 F17 1_555 1_555
F18 B5 1_555 1_555
F19 B5 1_555 1_555
F20 B5 1_555 1_555
B6 F21 1_555 1_555
F22 B6 1_555 1_555
F23 B6 1_555 1_555
F24 B6 1_555 1_555
S1 C183 1_555 1_555
C183 S2 1_555 1_555
Co1F N34 1_555 1_555
Co2F N4F 1_555 1_555
Co3F N28 1_555 1_555
Co4F N16F 1_555 1_555
N1F Co1F 1_555 1_555
C1F N1F 1_555 1_555
C2F C1F 1_555 1_555
H1F C2F 1_555 1_555
C3F C2F 1_555 1_555
C4F C3F 1_555 1_555
H2F C4F 1_555 1_555
C5F N1F 1_555 1_555
H3F C5F 1_555 1_555
C6F C3F 1_555 1_555
H4F C6F 1_555 1_555
H5F C6F 1_555 1_555
O1F C6F 1_555 1_555
H6F O1F 1_555 1_555
N2F N3F 1_555 1_555
N3F Co1F 1_555 1_555
C7F C1F 1_555 1_555
C8F C7F 1_555 1_555
H7F C8F 1_555 1_555
C9F N2F 1_555 1_555
H8F C9F 1_555 1_555
C10F N2F 1_555 1_555
H9F C10F 1_555 1_555
H10F C10F 1_555 1_555
N4F C11F 1_555 1_555
C11F C12F 1_555 1_555
C12F H11F 1_555 1_555
C13F C12F 1_555 1_555
C14F C13F 1_555 1_555
H12F C14F 1_555 1_555
C15F N4F 1_555 1_555
H13F C15F 1_555 1_555
C16F C13F 1_555 1_555
H14F C16F 1_555 1_555
H15F C16F 1_555 1_555
O2F C16F 1_555 1_555
H16F O2F 1_555 1_555
N5F N6F 1_555 1_555
N6F Co2F 1_555 1_555
C17F C11F 1_555 1_555
C18F C17F 1_555 1_555
H17F C18F 1_555 1_555
C19F N5F 1_555 1_555
H18F C19F 1_555 1_555
C20F N5F 1_555 1_555
H19F C20F 1_555 1_555
H20F C20F 1_555 1_555
C21F C10F 1_555 1_555
C22F C21F 1_555 1_555
H21F C22F 1_555 1_555
C23F C22F 1_555 1_555
H22F C23F 1_555 1_555
C24F C23F 1_555 1_555
H23F C24F 1_555 1_555
C25F C24F 1_555 1_555
C26F C21F 1_555 1_555
C27F C26F 1_555 1_555
H24F C27F 1_555 1_555
C28F C27F 1_555 1_555
H25F C28F 1_555 1_555
C29F C28F 1_555 1_555
H26F C29F 1_555 1_555
C30F C20F 1_555 1_555
N7F Co1F 1_555 1_555
C31F N7F 1_555 1_555
C32F C31F 1_555 1_555
H27F C32F 1_555 1_555
C33F C32F 1_555 1_555
C34F C33F 1_555 1_555
H28F C34F 1_555 1_555
C35F N7F 1_555 1_555
H29F C35F 1_555 1_555
C36F C33F 1_555 1_555
H30F C36F 1_555 1_555
H31F C36F 1_555 1_555
O3F C36F 1_555 1_555
H32F O3F 1_555 1_555
N8F N9F 1_555 1_555
N9F Co1F 1_555 1_555
C37F C31F 1_555 1_555
C38F C37F 1_555 1_555
H33F C38F 1_555 1_555
C39F N8F 1_555 1_555
H34F C39F 1_555 1_555
C40F N8F 1_555 1_555
H35F C40F 1_555 1_555
H36F C40F 1_555 1_555
N10F Co3F 1_555 1_555
C41F N10F 1_555 1_555
C42F C41F 1_555 1_555
H37F C42F 1_555 1_555
C43F C42F 1_555 1_555
C44F C43F 1_555 1_555
H38F C44F 1_555 1_555
C45F N10F 1_555 1_555
H39F C45F 1_555 1_555
C46F C43F 1_555 1_555
H40F C46F 1_555 1_555
H41F C46F 1_555 1_555
O4F C46F 1_555 1_555
H42F O4F 1_555 1_555
N11F N12F 1_555 1_555
N12F Co3F 1_555 1_555
C47F C41F 1_555 1_555
C48F C47F 1_555 1_555
H43F C48F 1_555 1_555
C49F N11F 1_555 1_555
H44F C49F 1_555 1_555
C50F N11F 1_555 1_555
H45F C50F 1_555 1_555
H46F C50F 1_555 1_555
C51F C40F 1_555 1_555
C52F C51F 1_555 1_555
H47F C52F 1_555 1_555
C53F C52F 1_555 1_555
H48F C53F 1_555 1_555
C54F C53F 1_555 1_555
H49F C54F 1_555 1_555
C55F C54F 1_555 1_555
C56F C51F 1_555 1_555
C57F C56F 1_555 1_555
H50F C57F 1_555 1_555
C58F C57F 1_555 1_555
H51F C58F 1_555 1_555
C59F C58F 1_555 1_555
H52F C59F 1_555 1_555
C60F C50F 1_555 1_555
N13F Co2F 1_555 1_555
C61F N13F 1_555 1_555
C62F C61F 1_555 1_555
H53F C62F 1_555 1_555
C63F C62F 1_555 1_555
C64F C63F 1_555 1_555
H54F C64F 1_555 1_555
C65F N13F 1_555 1_555
H55F C65F 1_555 1_555
C66F C63F 1_555 1_555
H56F C66F 1_555 1_555
H57F C66F 1_555 1_555
O5F C66F 1_555 1_555
H58F O5F 1_555 1_555
N14F N15F 1_555 1_555
N15F Co2F 1_555 1_555
C67F C61F 1_555 1_555
C68F C67F 1_555 1_555
H59F C68F 1_555 1_555
C69F N14F 1_555 1_555
H60F C69F 1_555 1_555
C70F N14F 1_555 1_555
H61F C70F 1_555 1_555
H62F C70F 1_555 1_555
N16F C71F 1_555 1_555
C71F C72F 1_555 1_555
C72F H63F 1_555 1_555
C73F C72F 1_555 1_555
C74F C73F 1_555 1_555
H64F C74F 1_555 1_555
C75F N16F 1_555 1_555
H65F C75F 1_555 1_555
C76F C73F 1_555 1_555
H66F C76F 1_555 1_555
H67F C76F 1_555 1_555
O6F C76F 1_555 1_555
H68F O6F 1_555 1_555
N17F N18F 1_555 1_555
N18F Co4F 1_555 1_555
C77F C71F 1_555 1_555
C78F C77F 1_555 1_555
H69F C78F 1_555 1_555
C79F N17F 1_555 1_555
H70F C79F 1_555 1_555
C80F N17F 1_555 1_555
H71F C80F 1_555 1_555
H72F C80F 1_555 1_555
C81F C70F 1_555 1_555
C82F C81F 1_555 1_555
H73F C82F 1_555 1_555
C83F C82F 1_555 1_555
H74F C83F 1_555 1_555
C84F C83F 1_555 1_555
H75F C84F 1_555 1_555
C85F C84F 1_555 1_555
C86F C81F 1_555 1_555
C87F C86F 1_555 1_555
H76F C87F 1_555 1_555
C88F C87F 1_555 1_555
H77F C88F 1_555 1_555
C89F C88F 1_555 1_555
H78F C89F 1_555 1_555
C90F C80F 1_555 1_555
N19F Co4F 1_555 1_555
C91F N19F 1_555 1_555
C92F C91F 1_555 1_555
H79F C92F 1_555 1_555
C93F C92F 1_555 1_555
C94F C93F 1_555 1_555
H80F C94F 1_555 1_555
C95F N19F 1_555 1_555
H81F C95F 1_555 1_555
C96F C93F 1_555 1_555
H82F C96F 1_555 1_555
H83F C96F 1_555 1_555
O7F C96F 1_555 1_555
H84F O7F 1_555 1_555
N20F N21F 1_555 1_555
N21F Co4F 1_555 1_555
C97F C91F 1_555 1_555
C98F C97F 1_555 1_555
H85F C98F 1_555 1_555
C99F N20F 1_555 1_555
H86F C99F 1_555 1_555
C100F N20F 1_555 1_555
H87F C100F 1_555 1_555
H88F C100F 1_555 1_555
N22F Co3F 1_555 1_555
C101F N22F 1_555 1_555
C102F C101F 1_555 1_555
H89F C102F 1_555 1_555
C103F C102F 1_555 1_555
C104F C103F 1_555 1_555
H90F C104F 1_555 1_555
C105F N22F 1_555 1_555
H91F C105F 1_555 1_555
C106F C103F 1_555 1_555
H92F C106F 1_555 1_555
H93F C106F 1_555 1_555
O8F C106F 1_555 1_555
H94F O8F 1_555 1_555
N23F N24F 1_555 1_555
N24F Co3F 1_555 1_555
C107F C101F 1_555 1_555
C108F C107F 1_555 1_555
H95F C108F 1_555 1_555
C109F N23F 1_555 1_555
H96F C109F 1_555 1_555
C110F N23F 1_555 1_555
H97F C110F 1_555 1_555
H98F C110F 1_555 1_555
C111F C100F 1_555 1_555
C112F C111F 1_555 1_555
H99F C112F 1_555 1_555
C113F C112F 1_555 1_555
H100F C113F 1_555 1_555
C114F C113F 1_555 1_555
H101F C114F 1_555 1_555
C115F C114F 1_555 1_555
C116F C111F 1_555 1_555
C117F C116F 1_555 1_555
H102F C117F 1_555 1_555
C118F C117F 1_555 1_555
H103F C118F 1_555 1_555
C119F C118F 1_555 1_555
H104F C119F 1_555 1_555
C120F C110F 1_555 1_555
N25F Co2F 1_555 1_555
C121F N25F 1_555 1_555
C122F C121F 1_555 1_555
H105F C122F 1_555 1_555
C123F C122F 1_555 1_555
C124F C123F 1_555 1_555
H106F C124F 1_555 1_555
C125F N25F 1_555 1_555
H107F C125F 1_555 1_555
C126F C123F 1_555 1_555
H108F C126F 1_555 1_555
H109F C126F 1_555 1_555
O9F C126F 1_555 1_555
H110F O9F 1_555 1_555
N26F N27F 1_555 1_555
N27F Co2F 1_555 1_555
C127F C121F 1_555 1_555
C128F C127F 1_555 1_555
H111F C128F 1_555 1_555
C129F N26F 1_555 1_555
H112F C129F 1_555 1_555
C130F N26F 1_555 1_555
H113F C130F 1_555 1_555
H114F C130F 1_555 1_555
N28F Co3 1_555 1_555
C131F N28F 1_555 1_555
C132F C131F 1_555 1_555
H115F C132F 1_555 1_555
C133F C132F 1_555 1_555
C134F C133F 1_555 1_555
H116F C134F 1_555 1_555
C135F N28F 1_555 1_555
H117F C135F 1_555 1_555
C136F C133F 1_555 1_555
H118F C136F 1_555 1_555
H119F C136F 1_555 1_555
O10F C136F 1_555 1_555
H120F O10F 1_555 1_555
N29F N30F 1_555 1_555
N30F Co3 1_555 1_555
C137F C131F 1_555 1_555
C138F C137F 1_555 1_555
H121F C138F 1_555 1_555
C139F N29F 1_555 1_555
H122F C139F 1_555 1_555
C140F N29F 1_555 1_555
H123F C140F 1_555 1_555
H124F C140F 1_555 1_555
C141F C130F 1_555 1_555
C142F C141F 1_555 1_555
H125F C142F 1_555 1_555
C143F C142F 1_555 1_555
H126F C143F 1_555 1_555
C144F C143F 1_555 1_555
H127F C144F 1_555 1_555
C145F C144F 1_555 1_555
C146F C141F 1_555 1_555
C147F C146F 1_555 1_555
H128F C147F 1_555 1_555
C148F C147F 1_555 1_555
H129F C148F 1_555 1_555
C149F C148F 1_555 1_555
H130F C149F 1_555 1_555
C150F C140F 1_555 1_555
N31F Co4F 1_555 1_555
C151F N31F 1_555 1_555
C152F C151F 1_555 1_555
H131F C152F 1_555 1_555
C153F C152F 1_555 1_555
C154F C153F 1_555 1_555
H132F C154F 1_555 1_555
C155F N31F 1_555 1_555
H133F C155F 1_555 1_555
C156F C153F 1_555 1_555
H134F C156F 1_555 1_555
H135F C156F 1_555 1_555
O11F C156F 1_555 1_555
H136F O11F 1_555 1_555
N32F N33F 1_555 1_555
N33F Co4F 1_555 1_555
C157F C151F 1_555 1_555
C158F C157F 1_555 1_555
H137F C158F 1_555 1_555
C159F N32F 1_555 1_555
H138F C159F 1_555 1_555
C160F N32F 1_555 1_555
H139F C160F 1_555 1_555
H140F C160F 1_555 1_555
N34F Co1 1_555 1_555
C161F N34F 1_555 1_555
C162F C161F 1_555 1_555
H141F C162F 1_555 1_555
C163F C162F 1_555 1_555
C164F C163F 1_555 1_555
H142F C164F 1_555 1_555
C165F N34F 1_555 1_555
H143F C165F 1_555 1_555
C166F C163F 1_555 1_555
H144F C166F 1_555 1_555
H145F C166F 1_555 1_555
O12F C166F 1_555 1_555
H146F O12F 1_555 1_555
N35F N36F 1_555 1_555
N36F Co1 1_555 1_555
C167F C161F 1_555 1_555
C168F C167F 1_555 1_555
H147F C168F 1_555 1_555
C169F N35F 1_555 1_555
H148F C169F 1_555 1_555
C170F N35F 1_555 1_555
H149F C170F 1_555 1_555
H150F C170F 1_555 1_555
C171F C160F 1_555 1_555
C172F C171F 1_555 1_555
H151F C172F 1_555 1_555
C173F C172F 1_555 1_555
H152F C173F 1_555 1_555
C174F C173F 1_555 1_555
H153F C174F 1_555 1_555
C175F C174F 1_555 1_555
C176F C171F 1_555 1_555
C177F C176F 1_555 1_555
H154F C177F 1_555 1_555
C178F C177F 1_555 1_555
H155F C178F 1_555 1_555
C179F C178F 1_555 1_555
H156F C179F 1_555 1_555
C180F C170F 1_555 1_555
C4 C5 1_555 1_555
N3 C7 1_555 1_555
C8 C9 1_555 1_555
C14 C15 1_555 1_555
N6 C17 1_555 1_555
C18 C19 1_555 1_555
C25 C26 1_555 1_555
C25 C30 1_555 1_555
C29 C30 1_555 1_555
C34 C35 1_555 1_555
N9 C37 1_555 1_555
C38 C39 1_555 1_555
C44 C45 1_555 1_555
N12 C47 1_555 1_555
C48 C49 1_555 1_555
C55 C56 1_555 1_555
C55 C60 1_555 1_555
C59 C60 1_555 1_555
C64 C65 1_555 1_555
N15 C67 1_555 1_555
C68 C69 1_555 1_555
C74 C75 1_555 1_555
N18 C77 1_555 1_555
C78 C79 1_555 1_555
C85 C86 1_555 1_555
C85 C90 1_555 1_555
C89 C90 1_555 1_555
C94 C95 1_555 1_555
N21 C97 1_555 1_555
C98 C99 1_555 1_555
C104 C105 1_555 1_555
N24 C107 1_555 1_555
C108 C109 1_555 1_555
C115 C116 1_555 1_555
C115 C120 1_555 1_555
C119 C120 1_555 1_555
C124 C125 1_555 1_555
N27 C127 1_555 1_555
C128 C129 1_555 1_555
C134 C135 1_555 1_555
N30 Co3F 1_555 1_555
C138 C139 1_555 1_555
C145 C146 1_555 1_555
C145 C150 1_555 1_555
C149 C150 1_555 1_555
C154 C155 1_555 1_555
N33 C157 1_555 1_555
C158 C159 1_555 1_555
C164 C165 1_555 1_555
N36 Co1F 1_555 1_555
C168 C169 1_555 1_555
C175 C176 1_555 1_555
C175 C180 1_555 1_555
C179 C180 1_555 1_555
C4F C5F 1_555 1_555
N3F C7F 1_555 1_555
C8F C9F 1_555 1_555
C14F C15F 1_555 1_555
N6F C17F 1_555 1_555
C18F C19F 1_555 1_555
C25F C26F 1_555 1_555
C25F C30F 1_555 1_555
C29F C30F 1_555 1_555
C34F C35F 1_555 1_555
N9F C37F 1_555 1_555
C38F C39F 1_555 1_555
C44F C45F 1_555 1_555
N12F C47F 1_555 1_555
C48F C49F 1_555 1_555
C55F C56F 1_555 1_555
C55F C60F 1_555 1_555
C59F C60F 1_555 1_555
C64F C65F 1_555 1_555
N15F C67F 1_555 1_555
C68F C69F 1_555 1_555
C74F C75F 1_555 1_555
N18F C77F 1_555 1_555
C78F C79F 1_555 1_555
C85F C86F 1_555 1_555
C85F C90F 1_555 1_555
C89F C90F 1_555 1_555
C94F C95F 1_555 1_555
N21F C97F 1_555 1_555
C98F C99F 1_555 1_555
C104F C105F 1_555 1_555
N24F C107F 1_555 1_555
C108F C109F 1_555 1_555
C115F C116F 1_555 1_555
C115F C120F 1_555 1_555
C119F C120F 1_555 1_555
C124F C125F 1_555 1_555
N27F C127F 1_555 1_555
C128F C129F 1_555 1_555
C134F C135F 1_555 1_555
N30F C137F 1_555 1_555
C138F C139F 1_555 1_555
C145F C146F 1_555 1_555
C145F C150F 1_555 1_555
C149F C150F 1_555 1_555
C154F C155F 1_555 1_555
N33F C157F 1_555 1_555
C158F C159F 1_555 1_555
C164F C165F 1_555 1_555
N36F C167F 1_555 1_555
C168F C169F 1_555 1_555
C175F C176F 1_555 1_555
C175F C180F 1_555 1_555
C179F C180F 1_555 1_555

#END
