
#######################################################################
#
#                 Cambridge Crystallographic Data Centre
#                                CCDC 
#
#######################################################################
#
# If this CIF has been generated from an entry in the Cambridge 
# Structural Database, then it will include bibliographic, chemical, 
# crystal, experimental, refinement or atomic coordinate data resulting 
# from the CCDC's data processing and validation procedures.
#
#######################################################################

data_LAVMIG
_chemical_formula_moiety         
'C184 H152 Cu8 N32 8+,8(B1 F4 1-),12(C2 H3 N1),10(C4 H10 O1)'
_chemical_name_systematic        
"tetrakis(\m~4~-N,N',N'',N'''-tetrakis((6-methylpyridin-2-yl)methylene)-1,1':4',1''-terphenyl-3,3'',5,5''-tetramine)-octa-copper(i) octakis(tetrafluoroborate) acetonitrile diethyl ether solvate"
_symmetry_cell_setting           monoclinic
_symmetry_space_group_name_H-M   'C 2/c'
_symmetry_Int_Tables_number      15
_space_group_name_Hall           '-C 2yn'
loop_
_symmetry_equiv_pos_site_id
_symmetry_equiv_pos_as_xyz
1 x,y,z
2 -x,y,1/2-z
3 1/2+x,1/2+y,z
4 1/2-x,1/2+y,1/2-z
5 -x,-y,-z
6 x,-y,1/2+z
7 1/2-x,1/2-y,-z
8 1/2+x,1/2-y,1/2+z
_cell_length_a                   23.239(5)
_cell_length_b                   52.773(11)
_cell_length_c                   23.131(5)
_cell_angle_alpha                90
_cell_angle_beta                 90.57(3)
_cell_angle_gamma                90
_cell_volume                     28366.3
_exptl_crystal_colour            black
_exptl_crystal_description       slab
_cell_formula_units_Z            4
loop_
_atom_site_label
_atom_site_type_symbol
_atom_site_fract_x
_atom_site_fract_y
_atom_site_fract_z
C93 C 0.5000 0.2962(6) 0.2500
C94 C 0.5000 0.2695(5) 0.2500
N17 N 0.5000 0.3177(4) 0.2500
C95 C 0.5000 0.1048(6) 0.2500
C96 C 0.5000 0.1302(5) 0.2500
N18 N 0.5000 0.0842(4) 0.2500
C1 C 0.5749(8) 0.0382(3) 0.5267(7)
H1 H 0.5937 0.0546 0.5220
H2 H 0.6041 0.0252 0.5347
H3 H 0.5479 0.0390 0.5589
C2 C 0.5439(6) 0.0317(3) 0.4741(8)
C3 C 0.4801(6) 0.0414(3) 0.4018(7)
C4 C 0.4893(6) 0.0187(3) 0.3751(7)
H4 H 0.4694 0.0149 0.3401
C5 C 0.5266(6) 0.0015(3) 0.3981(7)
H5 H 0.5332 -0.0142 0.3793
C6 C 0.5546(6) 0.0073(3) 0.4486(7)
H6 H 0.5803 -0.0045 0.4664
C7 C 0.4408(5) 0.0601(3) 0.3786(6)
H7 H 0.4188 0.0572 0.3445
C8 C 0.4011(5) 0.1014(2) 0.3807(6)
C9 C 0.3519(5) 0.0964(2) 0.3485(5)
H8 H 0.3406 0.0795 0.3405
C10 C 0.3204(5) 0.1160(3) 0.3287(5)
C11 C 0.3388(5) 0.1404(2) 0.3372(5)
H9 H 0.3176 0.1540 0.3204
C12 C 0.3875(5) 0.1457(3) 0.3697(6)
C13 C 0.4162(5) 0.1259(3) 0.3954(5)
H10 H 0.4460 0.1290 0.4228
C14 C 0.2256(4) 0.1233(2) 0.2853(5)
H11 H 0.2245 0.1392 0.3044
C15 C 0.1795(6) 0.1159(3) 0.2507(6)
C16 C 0.1559(8) 0.0872(3) 0.1805(8)
C17 C 0.1010(8) 0.1015(5) 0.1720(9)
H12 H 0.0737 0.0957 0.1442
C18 C 0.0903(7) 0.1207(5) 0.2006(9)
H13 H 0.0567 0.1302 0.1918
C19 C 0.1293(5) 0.1292(3) 0.2487(5)
H14 H 0.1201 0.1424 0.2750
C20 C 0.1736(9) 0.0650(3) 0.1385(7)
H15 H 0.2105 0.0690 0.1206
H16 H 0.1440 0.0629 0.1084
H17 H 0.1772 0.0492 0.1606
C21 C 0.4060(4) 0.1726(2) 0.3786(5)
C22 C 0.4365(5) 0.1801(3) 0.4284(6)
H18 H 0.4468 0.1672 0.4554
C23 C 0.4521(4) 0.2037(3) 0.4407(5)
H19 H 0.4705 0.2078 0.4764
C24 C 0.4402(4) 0.2228(2) 0.3985(5)
C25 C 0.4145(5) 0.2150(3) 0.3519(6)
H20 H 0.4081 0.2275 0.3230
C26 C 0.3945(5) 0.1904(3) 0.3386(5)
H21 H 0.3744 0.1867 0.3036
C27 C 0.4581(4) 0.2475(2) 0.4090(4)
C28 C 0.5100(5) 0.2545(3) 0.4329(4)
H22 H 0.5354 0.2413 0.4441
C29 C 0.5292(5) 0.2794(3) 0.4425(5)
C30 C 0.4940(5) 0.2979(2) 0.4284(4)
H23 H 0.5043 0.3151 0.4356
C31 C 0.4392(5) 0.2916(3) 0.4015(5)
C32 C 0.4220(5) 0.2680(2) 0.3945(5)
H24 H 0.3846 0.2647 0.3793
C33 C 0.6093(5) 0.2709(3) 0.5023(5)
H25 H 0.5903 0.2564 0.5172
C34 C 0.6682(5) 0.2767(3) 0.5196(5)
C35 C 0.7425(6) 0.3048(3) 0.5042(6)
C36 C 0.7782(6) 0.2901(4) 0.5463(8)
H26 H 0.8159 0.2956 0.5564
C37 C 0.7553(7) 0.2682(4) 0.5707(6)
H27 H 0.7782 0.2579 0.5955
C38 C 0.7021(6) 0.2621(3) 0.5589(5)
H28 H 0.6856 0.2477 0.5768
C39 C 0.7662(6) 0.3277(3) 0.4779(7)
H29 H 0.7901 0.3230 0.4449
H30 H 0.7898 0.3368 0.5065
H31 H 0.7347 0.3387 0.4647
C40 C 0.4209(6) 0.3320(3) 0.3682(7)
H32 H 0.4613 0.3346 0.3684
C41 C 0.3830(6) 0.3514(2) 0.3456(6)
C42 C 0.2875(7) 0.3657(3) 0.3407(7)
C43 C 0.3011(7) 0.3866(3) 0.3062(11)
H33 H 0.2724 0.3957 0.2853
C44 C 0.3621(12) 0.3939(3) 0.3039(8)
H34 H 0.3745 0.4097 0.2893
C45 C 0.4036(8) 0.3740(3) 0.3267(9)
H35 H 0.4438 0.3773 0.3277
C46 C 0.2246(7) 0.3605(4) 0.3513(15)
H36 H 0.2013 0.3742 0.3345
H37 H 0.2179 0.3596 0.3930
H38 H 0.2138 0.3444 0.3332
C47 C 0.4032(7) 0.0647(3) 0.5908(8)
H39 H 0.4270 0.0508 0.5763
H40 H 0.3730 0.0686 0.5623
H41 H 0.3856 0.0596 0.6273
C48 C 0.4387(6) 0.0868(3) 0.6001(6)
C49 C 0.5065(6) 0.1164(3) 0.5709(7)
C50 C 0.5019(6) 0.1302(3) 0.6228(5)
H42 H 0.5212 0.1459 0.6286
C51 C 0.4681(9) 0.1196(4) 0.6637(8)
H43 H 0.4684 0.1262 0.7020
C52 C 0.4342(7) 0.0998(3) 0.6496(7)
H44 H 0.4055 0.0948 0.6762
C53 C 0.5403(6) 0.1236(3) 0.5235(6)
H45 H 0.5609 0.1391 0.5255
C54 C 0.5797(5) 0.1168(3) 0.4303(5)
C55 C 0.5970(5) 0.0971(2) 0.3935(6)
H46 H 0.5831 0.0805 0.4002
C56 C 0.6329(6) 0.1012(3) 0.3490(6)
C57 C 0.6416(5) 0.1271(2) 0.3304(5)
H47 H 0.6631 0.1306 0.2967
C58 C 0.6252(6) 0.0615(3) 0.3062(7)
H48 H 0.5872 0.0596 0.3205
C59 C 0.6178(5) 0.1472(3) 0.3631(5)
C60 C 0.5888(5) 0.1419(2) 0.4138(6)
H49 H 0.5751 0.1554 0.4372
C61 C 0.6508(7) 0.0418(3) 0.2760(7)
C62 C 0.7281(7) 0.0292(3) 0.2155(8)
C63 C 0.6999(7) 0.0045(4) 0.2000(11)
H50 H 0.7175 -0.0078 0.1759
C64 C 0.6433(11) 0.0010(3) 0.2251(8)
H51 H 0.6231 -0.0141 0.2157
C65 C 0.6166(9) 0.0179(3) 0.2616(10)
H52 H 0.5794 0.0149 0.2768
C66 C 0.7808(7) 0.0370(4) 0.1885(10)
H53 H 0.7798 0.0553 0.1817
H54 H 0.7851 0.0281 0.1516
H55 H 0.8135 0.0329 0.2140
C67 C 0.6284(5) 0.1729(2) 0.3441(5)
C68 C 0.5887(5) 0.1910(3) 0.3544(5)
H56 H 0.5542 0.1867 0.3737
C69 C 0.5975(4) 0.2150(2) 0.3377(4)
H57 H 0.5693 0.2274 0.3467
C70 C 0.6489(5) 0.2230(3) 0.3060(4)
C71 C 0.6883(5) 0.2035(3) 0.2969(4)
H58 H 0.7238 0.2074 0.2789
C72 C 0.6778(5) 0.1796(3) 0.3125(4)
H59 H 0.7043 0.1667 0.3021
C73 C 0.6587(4) 0.2484(2) 0.2904(5)
C74 C 0.6430(5) 0.2687(2) 0.3280(4)
H60 H 0.6258 0.2653 0.3643
C75 C 0.6532(4) 0.2938(3) 0.3107(4)
C76 C 0.6766(4) 0.2987(2) 0.2532(5)
H61 H 0.6807 0.3154 0.2387
C77 C 0.6915(5) 0.2793(3) 0.2233(4)
C78 C 0.6847(4) 0.2551(2) 0.2376(4)
H62 H 0.6973 0.2422 0.2121
C79 C 0.6183(5) 0.3347(2) 0.3290(5)
H63 H 0.6183 0.3376 0.2884
C80 C 0.5976(6) 0.3535(3) 0.3642(6)
C81 C 0.5879(8) 0.3650(4) 0.4644(6)
C82 C 0.5677(8) 0.3883(3) 0.4485(8)
H64 H 0.5576 0.4007 0.4766
C83 C 0.5623(9) 0.3936(4) 0.3850(9)
H65 H 0.5493 0.4098 0.3721
C84 C 0.5756(6) 0.3756(3) 0.3459(7)
H66 H 0.5694 0.3785 0.3058
C85 C 0.5981(7) 0.3579(4) 0.5275(7)
H67 H 0.5698 0.3452 0.5392
H68 H 0.5941 0.3730 0.5517
H69 H 0.6370 0.3510 0.5323
C86 C 0.7542(5) 0.2715(3) 0.1411(4)
H70 H 0.7705 0.2574 0.1608
C87 C 0.7705(5) 0.2770(3) 0.0829(5)
C88 C 0.7558(5) 0.3046(3) 0.0048(5)
C89 C 0.7960(5) 0.2927(3) -0.0256(5)
H71 H 0.8083 0.2996 -0.0614
C90 C 0.8200(5) 0.2704(3) -0.0057(5)
H72 H 0.8450 0.2608 -0.0294
C91 C 0.8068(5) 0.2624(3) 0.0497(5)
H73 H 0.8225 0.2471 0.0647
C92 C 0.7300(6) 0.3295(3) -0.0172(6)
H74 H 0.7609 0.3405 -0.0314
H75 H 0.7101 0.3381 0.0144
H76 H 0.7027 0.3260 -0.0487
N1 N 0.5078(5) 0.0476(2) 0.4547(6)
N2 N 0.4375(5) 0.0808(2) 0.4066(5)
N3 N 0.2706(4) 0.10870(18) 0.2919(5)
N4 N 0.1918(4) 0.0960(2) 0.2147(5)
N5 N 0.5850(4) 0.28483(19) 0.4685(4)
N6 N 0.6912(5) 0.2965(2) 0.4945(4)
N7 N 0.4018(4) 0.3132(2) 0.3863(4)
N8 N 0.3232(5) 0.3473(3) 0.3545(5)
N9 N 0.4743(4) 0.0959(2) 0.5589(5)
N10 N 0.5441(4) 0.11069(18) 0.4802(5)
N11 N 0.6525(5) 0.0823(2) 0.3149(5)
N12 N 0.7026(5) 0.0468(2) 0.2493(5)
N13 N 0.6046(5) 0.3478(2) 0.4247(5)
N14 N 0.6374(4) 0.3138(2) 0.3481(5)
N15 N 0.7183(4) 0.28532(16) 0.1657(3)
N16 N 0.7438(4) 0.2971(2) 0.0616(4)
Cu1 Cu 0.48536(7) 0.08202(3) 0.48052(7)
Cu2 Cu 0.27158(6) 0.08122(3) 0.23323(7)
Cu3 Cu 0.63494(6) 0.31331(3) 0.43757(6)
Cu4 Cu 0.31215(6) 0.31364(3) 0.38491(6)
C1A C 0.4251(8) 0.0382(3) -0.0267(7)
H1A H 0.4063 0.0546 -0.0220
H2A H 0.3959 0.0252 -0.0347
H3A H 0.4521 0.0390 -0.0589
C2A C 0.4561(6) 0.0317(3) 0.0259(8)
C3A C 0.5199(6) 0.0414(3) 0.0982(7)
C4A C 0.5107(6) 0.0187(3) 0.1249(7)
H4A H 0.5306 0.0149 0.1599
C5A C 0.4734(6) 0.0015(3) 0.1019(7)
H5A H 0.4668 -0.0142 0.1207
C6A C 0.4454(6) 0.0073(3) 0.0514(7)
H6A H 0.4197 -0.0045 0.0336
C7A C 0.5592(5) 0.0601(3) 0.1214(6)
H7A H 0.5812 0.0572 0.1555
C8A C 0.5989(5) 0.1014(2) 0.1193(6)
C9A C 0.6481(5) 0.0964(2) 0.1515(5)
H8A H 0.6594 0.0795 0.1595
C10A C 0.6796(5) 0.1160(3) 0.1713(5)
C11A C 0.6612(5) 0.1404(2) 0.1628(5)
H9A H 0.6824 0.1540 0.1796
C12A C 0.6125(5) 0.1457(3) 0.1303(6)
C13A C 0.5838(5) 0.1259(3) 0.1046(5)
H10A H 0.5540 0.1290 0.0772
C14A C 0.7744(4) 0.1233(2) 0.2147(5)
H11A H 0.7755 0.1392 0.1956
C15A C 0.8205(6) 0.1159(3) 0.2493(6)
C16A C 0.8441(8) 0.0872(3) 0.3195(8)
C17A C 0.8990(8) 0.1015(5) 0.3280(9)
H12A H 0.9263 0.0957 0.3558
C18A C 0.9097(7) 0.1207(5) 0.2994(9)
H13A H 0.9433 0.1302 0.3082
C19A C 0.8707(5) 0.1292(3) 0.2513(5)
H14A H 0.8799 0.1424 0.2250
C20A C 0.8264(9) 0.0650(3) 0.3615(7)
H15A H 0.7895 0.0690 0.3794
H16A H 0.8560 0.0629 0.3916
H17A H 0.8228 0.0492 0.3394
C21A C 0.5940(4) 0.1726(2) 0.1214(5)
C22A C 0.5635(5) 0.1801(3) 0.0716(6)
H18A H 0.5532 0.1672 0.0446
C23A C 0.5479(4) 0.2037(3) 0.0593(5)
H19A H 0.5295 0.2078 0.0236
C24A C 0.5598(4) 0.2228(2) 0.1015(5)
C25A C 0.5855(5) 0.2150(3) 0.1481(6)
H20A H 0.5919 0.2275 0.1770
C26A C 0.6055(5) 0.1904(3) 0.1614(5)
H21A H 0.6256 0.1867 0.1964
C27A C 0.5419(4) 0.2475(2) 0.0910(4)
C28A C 0.4900(5) 0.2545(3) 0.0671(4)
H22A H 0.4646 0.2413 0.0559
C29A C 0.4708(5) 0.2794(3) 0.0575(5)
C30A C 0.5060(5) 0.2979(2) 0.0716(4)
H23A H 0.4957 0.3151 0.0644
C31A C 0.5608(5) 0.2916(3) 0.0985(5)
C32A C 0.5780(5) 0.2680(2) 0.1055(5)
H24A H 0.6154 0.2647 0.1207
C33A C 0.3907(5) 0.2709(3) -0.0023(5)
H25A H 0.4097 0.2564 -0.0172
C34A C 0.3318(5) 0.2767(3) -0.0196(5)
C35A C 0.2575(6) 0.3048(3) -0.0042(6)
C36A C 0.2218(6) 0.2901(4) -0.0463(8)
H26A H 0.1841 0.2956 -0.0564
C37A C 0.2447(7) 0.2682(4) -0.0707(6)
H27A H 0.2218 0.2579 -0.0955
C38A C 0.2979(6) 0.2621(3) -0.0589(5)
H28A H 0.3144 0.2477 -0.0768
C39A C 0.2338(6) 0.3277(3) 0.0221(7)
H29A H 0.2099 0.3230 0.0551
H30A H 0.2102 0.3368 -0.0065
H31A H 0.2653 0.3387 0.0353
C40A C 0.5791(6) 0.3320(3) 0.1318(7)
H32A H 0.5387 0.3346 0.1316
C41A C 0.6170(6) 0.3514(2) 0.1544(6)
C42A C 0.7125(7) 0.3657(3) 0.1593(7)
C43A C 0.6989(7) 0.3866(3) 0.1938(11)
H33A H 0.7276 0.3957 0.2147
C44A C 0.6379(12) 0.3939(3) 0.1961(8)
H34A H 0.6255 0.4097 0.2107
C45A C 0.5964(8) 0.3740(3) 0.1733(9)
H35A H 0.5562 0.3773 0.1723
C46A C 0.7754(7) 0.3605(4) 0.1487(15)
H36A H 0.7987 0.3742 0.1655
H37A H 0.7821 0.3596 0.1070
H38A H 0.7862 0.3444 0.1668
C47A C 0.5968(7) 0.0647(3) -0.0908(8)
H39A H 0.5730 0.0508 -0.0763
H40A H 0.6270 0.0686 -0.0623
H41A H 0.6144 0.0596 -0.1273
C48A C 0.5613(6) 0.0868(3) -0.1001(6)
C49A C 0.4935(6) 0.1164(3) -0.0709(7)
C50A C 0.4981(6) 0.1302(3) -0.1228(5)
H42A H 0.4788 0.1459 -0.1286
C51A C 0.5319(9) 0.1196(4) -0.1637(8)
H43A H 0.5316 0.1262 -0.2020
C52A C 0.5658(7) 0.0998(3) -0.1496(7)
H44A H 0.5945 0.0948 -0.1762
C53A C 0.4597(6) 0.1236(3) -0.0235(6)
H45A H 0.4391 0.1391 -0.0255
C54A C 0.4203(5) 0.1168(3) 0.0697(5)
C55A C 0.4030(5) 0.0971(2) 0.1065(6)
H46A H 0.4169 0.0805 0.0998
C56A C 0.3671(6) 0.1012(3) 0.1510(6)
C57A C 0.3584(5) 0.1271(2) 0.1696(5)
H47A H 0.3369 0.1306 0.2033
C58A C 0.3748(6) 0.0615(3) 0.1938(7)
H48A H 0.4128 0.0596 0.1795
C59A C 0.3822(5) 0.1472(3) 0.1369(5)
C60A C 0.4112(5) 0.1419(2) 0.0862(6)
H49A H 0.4249 0.1554 0.0628
C61A C 0.3492(7) 0.0418(3) 0.2240(7)
C62A C 0.2719(7) 0.0292(3) 0.2845(8)
C63A C 0.3001(7) 0.0045(4) 0.3000(11)
H50A H 0.2825 -0.0078 0.3241
C64A C 0.3567(11) 0.0010(3) 0.2749(8)
H51A H 0.3769 -0.0141 0.2843
C65A C 0.3834(9) 0.0179(3) 0.2384(10)
H52A H 0.4206 0.0149 0.2232
C66A C 0.2192(7) 0.0370(4) 0.3115(10)
H53A H 0.2202 0.0553 0.3183
H54A H 0.2149 0.0281 0.3484
H55A H 0.1865 0.0329 0.2860
C67A C 0.3716(5) 0.1729(2) 0.1559(5)
C68A C 0.4113(5) 0.1910(3) 0.1456(5)
H56A H 0.4458 0.1867 0.1263
C69A C 0.4025(4) 0.2150(2) 0.1623(4)
H57A H 0.4307 0.2274 0.1533
C70A C 0.3511(5) 0.2230(3) 0.1940(4)
C71A C 0.3117(5) 0.2035(3) 0.2031(4)
H58A H 0.2762 0.2074 0.2211
C72A C 0.3222(5) 0.1796(3) 0.1875(4)
H59A H 0.2957 0.1667 0.1979
C73A C 0.3413(4) 0.2484(2) 0.2096(5)
C74A C 0.3570(5) 0.2687(2) 0.1720(4)
H60A H 0.3742 0.2653 0.1357
C75A C 0.3468(4) 0.2938(3) 0.1893(4)
C76A C 0.3234(4) 0.2987(2) 0.2468(5)
H61A H 0.3193 0.3154 0.2613
C77A C 0.3085(5) 0.2793(3) 0.2767(4)
C78A C 0.3153(4) 0.2551(2) 0.2624(4)
H62A H 0.3027 0.2422 0.2879
C79A C 0.3817(5) 0.3347(2) 0.1710(5)
H63A H 0.3817 0.3376 0.2116
C80A C 0.4024(6) 0.3535(3) 0.1358(6)
C81A C 0.4121(8) 0.3650(4) 0.0356(6)
C82A C 0.4323(8) 0.3883(3) 0.0515(8)
H64A H 0.4424 0.4007 0.0234
C83A C 0.4377(9) 0.3936(4) 0.1150(9)
H65A H 0.4507 0.4098 0.1279
C84A C 0.4244(6) 0.3756(3) 0.1541(7)
H66A H 0.4306 0.3785 0.1942
C85A C 0.4019(7) 0.3579(4) -0.0275(7)
H67A H 0.4302 0.3452 -0.0392
H68A H 0.4059 0.3730 -0.0517
H69A H 0.3630 0.3510 -0.0323
C86A C 0.2458(5) 0.2715(3) 0.3589(4)
H70A H 0.2295 0.2574 0.3392
C87A C 0.2295(5) 0.2770(3) 0.4171(5)
C88A C 0.2442(5) 0.3046(3) 0.4952(5)
C89A C 0.2040(5) 0.2927(3) 0.5256(5)
H71A H 0.1917 0.2996 0.5614
C90A C 0.1800(5) 0.2704(3) 0.5057(5)
H72A H 0.1550 0.2608 0.5294
C91A C 0.1932(5) 0.2624(3) 0.4503(5)
H73A H 0.1775 0.2471 0.4353
C92A C 0.2700(6) 0.3295(3) 0.5172(6)
H74A H 0.2391 0.3405 0.5314
H75A H 0.2899 0.3381 0.4856
H76A H 0.2973 0.3260 0.5487
N1A N 0.4922(5) 0.0476(2) 0.0453(6)
N2A N 0.5625(5) 0.0808(2) 0.0934(5)
N3A N 0.7294(4) 0.10870(18) 0.2081(5)
N4A N 0.8082(4) 0.0960(2) 0.2853(5)
N5A N 0.4150(4) 0.28483(19) 0.0315(4)
N6A N 0.3088(5) 0.2965(2) 0.0055(4)
N7A N 0.5982(4) 0.3132(2) 0.1137(4)
N8A N 0.6768(5) 0.3473(3) 0.1455(5)
N9A N 0.5257(4) 0.0959(2) -0.0589(5)
N10A N 0.4559(4) 0.11069(18) 0.0198(5)
N11A N 0.3475(5) 0.0823(2) 0.1851(5)
N12A N 0.2974(5) 0.0468(2) 0.2507(5)
N13A N 0.3954(5) 0.3478(2) 0.0753(5)
N14A N 0.3626(4) 0.3138(2) 0.1519(5)
N15A N 0.2817(4) 0.28532(16) 0.3343(3)
N16A N 0.2562(4) 0.2971(2) 0.4384(4)
Cu1A Cu 0.51464(7) 0.08202(3) 0.01948(7)
Cu2A Cu 0.72842(6) 0.08122(3) 0.26677(7)
Cu3A Cu 0.36506(6) 0.31331(3) 0.06243(6)
Cu4A Cu 0.68785(6) 0.31364(3) 0.11509(6)
H77? H 0.4706 0.2633 0.2766
H78? H 0.5379 0.2633 0.2625
H79? H 0.4915 0.2633 0.2109
H80? H 0.4901 0.1364 0.2886
H81? H 0.4716 0.1364 0.2217
H82? H 0.5383 0.1364 0.2397
loop_
_geom_bond_atom_site_label_1
_geom_bond_atom_site_label_2
_geom_bond_site_symmetry_1
_geom_bond_site_symmetry_2
C1 H1 1_555 1_555
H2 C1 1_555 1_555
H3 C1 1_555 1_555
C2 C1 1_555 1_555
C3 C4 1_555 1_555
C4 H4 1_555 1_555
C5 C4 1_555 1_555
H5 C5 1_555 1_555
C6 C2 1_555 1_555
H6 C6 1_555 1_555
C7 C3 1_555 1_555
H7 C7 1_555 1_555
C8 C9 1_555 1_555
C9 H8 1_555 1_555
C10 C9 1_555 1_555
C11 C10 1_555 1_555
H9 C11 1_555 1_555
C12 C11 1_555 1_555
C13 C8 1_555 1_555
H10 C13 1_555 1_555
C14 H11 1_555 1_555
C15 C14 1_555 1_555
C16 C17 1_555 1_555
C17 H12 1_555 1_555
C18 C17 1_555 1_555
H13 C18 1_555 1_555
C19 C15 1_555 1_555
H14 C19 1_555 1_555
C20 C16 1_555 1_555
H15 C20 1_555 1_555
H16 C20 1_555 1_555
H17 C20 1_555 1_555
C21 C12 1_555 1_555
C22 C21 1_555 1_555
H18 C22 1_555 1_555
C23 C22 1_555 1_555
H19 C23 1_555 1_555
C24 C23 1_555 1_555
C25 C24 1_555 1_555
H20 C25 1_555 1_555
C26 C21 1_555 1_555
H21 C26 1_555 1_555
C27 C24 1_555 1_555
C28 C27 1_555 1_555
H22 C28 1_555 1_555
C29 C28 1_555 1_555
C30 C29 1_555 1_555
H23 C30 1_555 1_555
C31 C30 1_555 1_555
C32 C27 1_555 1_555
H24 C32 1_555 1_555
C33 H25 1_555 1_555
C34 C33 1_555 1_555
C35 C36 1_555 1_555
C36 H26 1_555 1_555
C37 C36 1_555 1_555
H27 C37 1_555 1_555
C38 C34 1_555 1_555
H28 C38 1_555 1_555
C39 C35 1_555 1_555
H29 C39 1_555 1_555
H30 C39 1_555 1_555
H31 C39 1_555 1_555
C40 H32 1_555 1_555
C41 C40 1_555 1_555
C42 C43 1_555 1_555
C43 H33 1_555 1_555
C44 C43 1_555 1_555
H34 C44 1_555 1_555
C45 C41 1_555 1_555
H35 C45 1_555 1_555
C46 C42 1_555 1_555
H36 C46 1_555 1_555
H37 C46 1_555 1_555
H38 C46 1_555 1_555
C47 H39 1_555 1_555
H40 C47 1_555 1_555
H41 C47 1_555 1_555
C48 C47 1_555 1_555
C49 C50 1_555 1_555
C50 H42 1_555 1_555
C51 C50 1_555 1_555
H43 C51 1_555 1_555
C52 C48 1_555 1_555
H44 C52 1_555 1_555
C53 C49 1_555 1_555
H45 C53 1_555 1_555
C54 C55 1_555 1_555
C55 H46 1_555 1_555
C56 C55 1_555 1_555
C57 C56 1_555 1_555
H47 C57 1_555 1_555
C58 H48 1_555 1_555
C59 C57 1_555 1_555
C60 C54 1_555 1_555
H49 C60 1_555 1_555
C61 C58 1_555 1_555
C62 C63 1_555 1_555
C63 H50 1_555 1_555
C64 C63 1_555 1_555
H51 C64 1_555 1_555
C65 C61 1_555 1_555
H52 C65 1_555 1_555
C66 C62 1_555 1_555
H53 C66 1_555 1_555
H54 C66 1_555 1_555
H55 C66 1_555 1_555
C67 C59 1_555 1_555
C68 C67 1_555 1_555
H56 C68 1_555 1_555
C69 C68 1_555 1_555
H57 C69 1_555 1_555
C70 C69 1_555 1_555
C71 C70 1_555 1_555
H58 C71 1_555 1_555
C72 C67 1_555 1_555
H59 C72 1_555 1_555
C73 C70 1_555 1_555
C74 C73 1_555 1_555
H60 C74 1_555 1_555
C75 C74 1_555 1_555
C76 C75 1_555 1_555
H61 C76 1_555 1_555
C77 C76 1_555 1_555
C78 C73 1_555 1_555
H62 C78 1_555 1_555
C79 H63 1_555 1_555
C80 C79 1_555 1_555
C81 C82 1_555 1_555
C82 H64 1_555 1_555
C83 C82 1_555 1_555
H65 C83 1_555 1_555
C84 C80 1_555 1_555
H66 C84 1_555 1_555
C85 C81 1_555 1_555
H67 C85 1_555 1_555
H68 C85 1_555 1_555
H69 C85 1_555 1_555
C86 H70 1_555 1_555
C87 C86 1_555 1_555
C88 C89 1_555 1_555
C89 H71 1_555 1_555
C90 C89 1_555 1_555
H72 C90 1_555 1_555
C91 C87 1_555 1_555
H73 C91 1_555 1_555
C92 C88 1_555 1_555
H74 C92 1_555 1_555
H75 C92 1_555 1_555
H76 C92 1_555 1_555
C93 C94 1_555 1_555
C95 C96 1_555 1_555
N1 C2 1_555 1_555
N2 C7 1_555 1_555
N3 C10 1_555 1_555
N4 C15 1_555 1_555
N5 C29 1_555 1_555
N6 C34 1_555 1_555
N7 C31 1_555 1_555
N8 C41 1_555 1_555
N9 C48 1_555 1_555
N10 C53 1_555 1_555
N11 C56 1_555 1_555
N12 C61 1_555 1_555
N13 C80 1_555 1_555
N14 C75 1_555 1_555
N15 C77 1_555 1_555
N16 C87 1_555 1_555
N17 C93 1_555 1_555
N18 C95 1_555 1_555
Cu1 N1 1_555 1_555
Cu2 N3 1_555 1_555
Cu3 N5 1_555 1_555
Cu4 N7 1_555 1_555
C1A H1A 1_555 1_555
H2A C1A 1_555 1_555
H3A C1A 1_555 1_555
C2A C1A 1_555 1_555
C3A C4A 1_555 1_555
C4A H4A 1_555 1_555
C5A C4A 1_555 1_555
H5A C5A 1_555 1_555
C6A C2A 1_555 1_555
H6A C6A 1_555 1_555
C7A C3A 1_555 1_555
H7A C7A 1_555 1_555
C8A C9A 1_555 1_555
C9A H8A 1_555 1_555
C10A C9A 1_555 1_555
C11A C10A 1_555 1_555
H9A C11A 1_555 1_555
C12A C11A 1_555 1_555
C13A C8A 1_555 1_555
H10A C13A 1_555 1_555
C14A H11A 1_555 1_555
C15A C14A 1_555 1_555
C16A C17A 1_555 1_555
C17A H12A 1_555 1_555
C18A C17A 1_555 1_555
H13A C18A 1_555 1_555
C19A C15A 1_555 1_555
H14A C19A 1_555 1_555
C20A C16A 1_555 1_555
H15A C20A 1_555 1_555
H16A C20A 1_555 1_555
H17A C20A 1_555 1_555
C21A C12A 1_555 1_555
C22A C21A 1_555 1_555
H18A C22A 1_555 1_555
C23A C22A 1_555 1_555
H19A C23A 1_555 1_555
C24A C23A 1_555 1_555
C25A C24A 1_555 1_555
H20A C25A 1_555 1_555
C26A C21A 1_555 1_555
H21A C26A 1_555 1_555
C27A C24A 1_555 1_555
C28A C27A 1_555 1_555
H22A C28A 1_555 1_555
C29A C28A 1_555 1_555
C30A C29A 1_555 1_555
H23A C30A 1_555 1_555
C31A C30A 1_555 1_555
C32A C27A 1_555 1_555
H24A C32A 1_555 1_555
C33A H25A 1_555 1_555
C34A C33A 1_555 1_555
C35A C36A 1_555 1_555
C36A H26A 1_555 1_555
C37A C36A 1_555 1_555
H27A C37A 1_555 1_555
C38A C34A 1_555 1_555
H28A C38A 1_555 1_555
C39A C35A 1_555 1_555
H29A C39A 1_555 1_555
H30A C39A 1_555 1_555
H31A C39A 1_555 1_555
C40A H32A 1_555 1_555
C41A C40A 1_555 1_555
C42A C43A 1_555 1_555
C43A H33A 1_555 1_555
C44A C43A 1_555 1_555
H34A C44A 1_555 1_555
C45A C41A 1_555 1_555
H35A C45A 1_555 1_555
C46A C42A 1_555 1_555
H36A C46A 1_555 1_555
H37A C46A 1_555 1_555
H38A C46A 1_555 1_555
C47A H39A 1_555 1_555
H40A C47A 1_555 1_555
H41A C47A 1_555 1_555
C48A C47A 1_555 1_555
C49A C50A 1_555 1_555
C50A H42A 1_555 1_555
C51A C50A 1_555 1_555
H43A C51A 1_555 1_555
C52A C48A 1_555 1_555
H44A C52A 1_555 1_555
C53A C49A 1_555 1_555
H45A C53A 1_555 1_555
C54A C55A 1_555 1_555
C55A H46A 1_555 1_555
C56A C55A 1_555 1_555
C57A C56A 1_555 1_555
H47A C57A 1_555 1_555
C58A H48A 1_555 1_555
C59A C57A 1_555 1_555
C60A C54A 1_555 1_555
H49A C60A 1_555 1_555
C61A C58A 1_555 1_555
C62A C63A 1_555 1_555
C63A H50A 1_555 1_555
C64A C63A 1_555 1_555
H51A C64A 1_555 1_555
C65A C61A 1_555 1_555
H52A C65A 1_555 1_555
C66A C62A 1_555 1_555
H53A C66A 1_555 1_555
H54A C66A 1_555 1_555
H55A C66A 1_555 1_555
C67A C59A 1_555 1_555
C68A C67A 1_555 1_555
H56A C68A 1_555 1_555
C69A C68A 1_555 1_555
H57A C69A 1_555 1_555
C70A C69A 1_555 1_555
C71A C70A 1_555 1_555
H58A C71A 1_555 1_555
C72A C67A 1_555 1_555
H59A C72A 1_555 1_555
C73A C70A 1_555 1_555
C74A C73A 1_555 1_555
H60A C74A 1_555 1_555
C75A C74A 1_555 1_555
C76A C75A 1_555 1_555
H61A C76A 1_555 1_555
C77A C76A 1_555 1_555
C78A C73A 1_555 1_555
H62A C78A 1_555 1_555
C79A H63A 1_555 1_555
C80A C79A 1_555 1_555
C81A C82A 1_555 1_555
C82A H64A 1_555 1_555
C83A C82A 1_555 1_555
H65A C83A 1_555 1_555
C84A C80A 1_555 1_555
H66A C84A 1_555 1_555
C85A C81A 1_555 1_555
H67A C85A 1_555 1_555
H68A C85A 1_555 1_555
H69A C85A 1_555 1_555
C86A H70A 1_555 1_555
C87A C86A 1_555 1_555
C88A C89A 1_555 1_555
C89A H71A 1_555 1_555
C90A C89A 1_555 1_555
H72A C90A 1_555 1_555
C91A C87A 1_555 1_555
H73A C91A 1_555 1_555
C92A C88A 1_555 1_555
H74A C92A 1_555 1_555
H75A C92A 1_555 1_555
H76A C92A 1_555 1_555
N1A C2A 1_555 1_555
N2A C7A 1_555 1_555
N3A C10A 1_555 1_555
N4A C15A 1_555 1_555
N5A C29A 1_555 1_555
N6A C34A 1_555 1_555
N7A C31A 1_555 1_555
N8A C41A 1_555 1_555
N9A C48A 1_555 1_555
N10A C53A 1_555 1_555
N11A Cu2 1_555 1_555
N12A Cu2 1_555 1_555
N13A C80A 1_555 1_555
N14A C75A 1_555 1_555
N15A Cu4 1_555 1_555
N16A Cu4 1_555 1_555
Cu1A N1A 1_555 1_555
Cu2A N11 1_555 1_555
Cu3A N5A 1_555 1_555
Cu4A N15 1_555 1_555
C3 N1 1_555 1_555
C5 C6 1_555 1_555
C8 N2 1_555 1_555
C12 C13 1_555 1_555
C14 N3 1_555 1_555
C16 N4 1_555 1_555
C18 C19 1_555 1_555
C25 C26 1_555 1_555
C31 C32 1_555 1_555
C33 N5 1_555 1_555
C35 N6 1_555 1_555
C37 C38 1_555 1_555
C40 N7 1_555 1_555
C42 N8 1_555 1_555
C44 C45 1_555 1_555
C49 N9 1_555 1_555
C51 C52 1_555 1_555
C54 N10 1_555 1_555
C58 N11 1_555 1_555
C59 C60 1_555 1_555
C62 N12 1_555 1_555
C64 C65 1_555 1_555
C71 C72 1_555 1_555
C77 C78 1_555 1_555
C79 N14 1_555 1_555
C81 N13 1_555 1_555
C83 C84 1_555 1_555
C86 N15 1_555 1_555
C88 N16 1_555 1_555
C90 C91 1_555 1_555
N2 Cu1 1_555 1_555
N4 Cu2 1_555 1_555
N6 Cu3 1_555 1_555
N8 Cu4 1_555 1_555
N9 Cu1 1_555 1_555
N10 Cu1 1_555 1_555
N12 Cu2A 1_555 1_555
N13 Cu3 1_555 1_555
N14 Cu3 1_555 1_555
N16 Cu4A 1_555 1_555
C3A N1A 1_555 1_555
C5A C6A 1_555 1_555
C8A N2A 1_555 1_555
C12A C13A 1_555 1_555
C14A N3A 1_555 1_555
C16A N4A 1_555 1_555
C18A C19A 1_555 1_555
C25A C26A 1_555 1_555
C31A C32A 1_555 1_555
C33A N5A 1_555 1_555
C35A N6A 1_555 1_555
C37A C38A 1_555 1_555
C40A N7A 1_555 1_555
C42A N8A 1_555 1_555
C44A C45A 1_555 1_555
C49A N9A 1_555 1_555
C51A C52A 1_555 1_555
C54A N10A 1_555 1_555
C56A N11A 1_555 1_555
C58A N11A 1_555 1_555
C59A C60A 1_555 1_555
C61A N12A 1_555 1_555
C62A N12A 1_555 1_555
C64A C65A 1_555 1_555
C71A C72A 1_555 1_555
C77A C78A 1_555 1_555
C77A N15A 1_555 1_555
C79A N14A 1_555 1_555
C81A N13A 1_555 1_555
C83A C84A 1_555 1_555
C86A N15A 1_555 1_555
C87A N16A 1_555 1_555
C88A N16A 1_555 1_555
C90A C91A 1_555 1_555
N2A Cu1A 1_555 1_555
N3A Cu2A 1_555 1_555
N4A Cu2A 1_555 1_555
N6A Cu3A 1_555 1_555
N7A Cu4A 1_555 1_555
N8A Cu4A 1_555 1_555
N9A Cu1A 1_555 1_555
N10A Cu1A 1_555 1_555
N13A Cu3A 1_555 1_555
N14A Cu3A 1_555 1_555

#END
