
#######################################################################
#
#                 Cambridge Crystallographic Data Centre
#                                CCDC 
#
#######################################################################
#
# If this CIF has been generated from an entry in the Cambridge 
# Structural Database, then it will include bibliographic, chemical, 
# crystal, experimental, refinement or atomic coordinate data resulting 
# from the CCDC's data processing and validation procedures.
#
#######################################################################

data_LAVMOM
_chemical_formula_moiety         
'C184 H152 Cu8 N32 8+,8(B1 F4 1-),10(C4 H10 O1),10(C2 H3 N1)'
_chemical_name_systematic        
"tetrakis(\m~4~-N,N',N'',N'''-tetrakis((6-methylpyridin-2-yl)methylene)-1,1':4',1''-terphenyl-3,3'',5,5''-tetramine)-octa-copper(i) octakis(tetrafluoroborate) acetonitrile diethyl ether solvate"
_symmetry_cell_setting           orthorhombic
_symmetry_space_group_name_H-M   'P n a 21'
_symmetry_Int_Tables_number      33
_space_group_name_Hall           'P 2c -2n'
loop_
_symmetry_equiv_pos_site_id
_symmetry_equiv_pos_as_xyz
1 x,y,z
2 -x,-y,1/2+z
3 1/2+x,1/2-y,z
4 1/2-x,1/2+y,1/2+z
_cell_length_a                   28.117(6)
_cell_length_b                   38.465(8)
_cell_length_c                   25.724(5)
_cell_angle_alpha                90
_cell_angle_beta                 90
_cell_angle_gamma                90
_cell_volume                     27821
_exptl_crystal_colour            red
_exptl_crystal_description       block
_cell_formula_units_Z            4
loop_
_atom_site_label
_atom_site_type_symbol
_atom_site_fract_x
_atom_site_fract_y
_atom_site_fract_z
C1 C 0.9338(4) 0.8742(4) 0.9731(7)
H1 H 0.9525 0.8846 0.9996
C2 C 0.9278(5) 0.8166(4) 1.0125(7)
C3 C 0.9569(5) 0.8296(4) 1.0602(8)
H2 H 0.9688 0.8527 1.0610
C4 C 0.9649(5) 0.8086(3) 1.0989(7)
C5 C 0.9464(5) 0.7751(4) 1.0950(7)
H3 H 0.9509 0.7606 1.1245
C6 C 0.9214(5) 0.7597(3) 1.0525(7)
C7 C 0.9153(5) 0.7839(3) 1.0116(7)
H4 H 0.9008 0.7756 0.9807
C8 C 1.0195(5) 0.8446(4) 1.1389(8)
H5 H 1.0208 0.8590 1.1089
C9 C 0.8983(7) 0.7262(5) 1.0549(9)
C10 C 0.8758(4) 0.7160(3) 1.1041(7)
H6 H 0.8783 0.7299 1.1346
C11 C 0.8508(4) 0.6850(3) 1.1034(7)
H7 H 0.8364 0.6776 1.1349
C12 C 0.8455(4) 0.6651(3) 1.0626(7)
C13 C 0.8666(5) 0.6751(4) 1.0161(8)
H8 H 0.8626 0.6606 0.9865
C14 C 0.8928(5) 0.7049(3) 1.0112(7)
H9 H 0.9069 0.7110 0.9789
C15 C 0.8153(5) 0.6296(4) 1.0629(8)
C16 C 0.7899(4) 0.6210(3) 1.0243(6)
H10 H 0.7888 0.6351 0.9940
C17 C 0.7638(6) 0.5904(4) 1.0274(8)
C18 C 0.7974(6) 0.5809(4) 1.1086(8)
C19 C 0.8203(4) 0.6106(3) 1.1099(6)
H11 H 0.8381 0.6186 1.1389
C20 C 0.7123(5) 0.5993(4) 0.9510(7)
H12 H 0.7126 0.6239 0.9536
C21 C 0.8060(6) 0.5703(5) 1.1978(9)
H13 H 0.8007 0.5944 1.2033
C22 C 0.8785(4) 0.7577(3) 0.8660(6)
C23 C 0.9174(5) 0.7707(4) 0.8404(7)
H14 H 0.9214 0.7950 0.8352
C24 C 0.9505(5) 0.7469(3) 0.8223(6)
C25 C 0.9450(4) 0.7131(3) 0.8344(6)
H15 H 0.9689 0.6975 0.8229
C26 C 0.9050(4) 0.6983(3) 0.8638(6)
C27 C 0.8735(4) 0.7259(3) 0.8814(6)
H16 H 0.8485 0.7204 0.9049
C28 C 1.0057(6) 0.7428(4) 0.7578(8)
H17 H 0.9923 0.7209 0.7492
C29 C 0.8995(4) 0.6639(3) 0.8727(6)
C30 C 0.9372(5) 0.6391(3) 0.8879(7)
H18 H 0.9686 0.6478 0.8923
C31 C 0.9297(4) 0.6049(3) 0.8961(6)
H19 H 0.9560 0.5899 0.9020
C32 C 0.8845(5) 0.5918(3) 0.8958(7)
C33 C 0.8462(5) 0.6118(3) 0.8860(6)
H20 H 0.8152 0.6019 0.8878
C34 C 0.8513(5) 0.6474(3) 0.8729(7)
H21 H 0.8241 0.6608 0.8642
C35 C 0.8782(6) 0.5517(4) 0.9032(7)
C36 C 0.9107(5) 0.5308(3) 0.8793(6)
H22 H 0.9388 0.5397 0.8637
C37 C 0.8986(5) 0.4923(3) 0.8795(7)
C38 C 0.8583(5) 0.4807(4) 0.9046(7)
H23 H 0.8511 0.4566 0.9060
C39 C 0.8300(7) 0.5038(4) 0.9269(8)
C40 C 0.6680(9) 0.4900(5) 0.8588(11)
H24 H 0.6431 0.4820 0.8348
H25 H 0.6614 0.4811 0.8937
H26 H 0.6989 0.4814 0.8470
C41 C 0.9226(5) 0.4378(4) 0.8480(7)
H27 H 0.8977 0.4270 0.8671
C42 C 0.9765(8) 0.8489(5) 0.7162(10)
H28 H 0.9649 0.8641 0.6884
H29 H 0.9504 0.8341 0.7284
H30 H 1.0024 0.8344 0.7030
C43 C 1.0389(6) 0.8508(5) 0.8920(8)
H31 H 1.0429 0.8599 0.9260
C44 C 1.0629(4) 0.7955(3) 0.9212(7)
C45 C 1.0977(5) 0.7856(3) 0.9998(7)
C46 C 1.0904(5) 0.7489(3) 0.9960(7)
H32 H 1.0999 0.7335 1.0230
C47 C 1.0684(4) 0.7366(3) 0.9503(7)
C48 C 1.0561(5) 0.7606(4) 0.9142(8)
H33 H 1.0421 0.7528 0.8826
C49 C 1.0660(4) 0.6984(3) 0.9415(6)
C50 C 1.0760(4) 0.6829(3) 0.8904(7)
H34 H 1.0817 0.6981 0.8620
C51 C 1.0775(4) 0.6488(3) 0.8818(7)
H35 H 1.0850 0.6400 0.8483
C52 C 1.0677(4) 0.6264(3) 0.9229(7)
C53 C 1.0592(4) 0.6388(3) 0.9711(6)
H36 H 1.0545 0.6227 0.9987
C54 C 1.0672(4) 0.5878(3) 0.9142(7)
C55 C 1.0852(4) 0.5654(3) 0.9485(7)
H37 H 1.0997 0.5733 0.9798
C56 C 1.0823(4) 0.5303(3) 0.9373(7)
C57 C 1.0611(4) 0.5183(3) 0.8928(7)
H38 H 1.0560 0.4941 0.8881
C58 C 1.0477(4) 0.5764(3) 0.8649(6)
H39 H 1.0357 0.5933 0.8414
C59 C 1.1338(5) 0.5081(3) 1.0000(7)
H40 H 1.1512 0.5292 0.9968
C60 C 1.1316(5) 0.4234(4) 1.0709(8)
C61 C 1.1688(6) 0.4274(5) 1.1049(9)
H41 H 1.1785 0.4088 1.1267
C62 C 1.1897(6) 0.4562(4) 1.1064(9)
H42 H 1.2110 0.4599 1.1345
C63 C 1.1022(5) 0.3920(3) 1.0658(7)
H43 H 1.0994 0.3806 1.0998
H44 H 1.1171 0.3760 1.0411
H45 H 1.0705 0.3984 1.0532
C64 C 1.0254(5) 0.5483(3) 0.7666(7)
H46 H 1.0443 0.5687 0.7660
C65 C 0.9993(5) 0.5388(3) 0.7225(7)
C66 C 0.9411(5) 0.4991(4) 0.6867(8)
C67 C 0.9499(6) 0.5180(4) 0.6409(8)
H47 H 0.9326 0.5105 0.6112
C68 C 0.9776(5) 0.5436(4) 0.6334(8)
H48 H 0.9794 0.5542 0.6001
C69 C 1.0056(5) 0.5562(4) 0.6748(7)
H49 H 1.0271 0.5751 0.6708
C70 C 1.2124(5) 0.7056(4) 1.0931(7)
C71 C 1.2535(6) 0.7468(4) 1.0474(8)
C72 C 1.2911(6) 0.6937(4) 1.0664(8)
H50 H 1.3195 0.6803 1.0647
C73 C 1.2547(6) 0.6769(4) 1.0906(8)
H51 H 1.2541 0.6537 1.1032
C74 C 1.1682(5) 0.6923(4) 1.1225(7)
H52 H 1.1657 0.6699 1.1376
C75 C 1.0905(6) 0.7032(3) 1.1388(7)
C76 C 1.0615(5) 0.7252(3) 1.1717(7)
H53 H 1.0739 0.7461 1.1860
C77 C 1.0167(5) 0.7153(3) 1.1814(7)
C78 C 0.9964(5) 0.6854(3) 1.1658(6)
H54 H 0.9647 0.6793 1.1746
C79 C 1.0254(4) 0.6639(3) 1.1359(6)
C80 C 1.0714(5) 0.6715(3) 1.1221(7)
H55 H 1.0897 0.6558 1.1019
C81 C 0.9593(5) 0.7302(4) 1.2494(7)
H56 H 0.9531 0.7061 1.2537
C82 C 0.9315(6) 0.8506(4) 1.2859(8)
H57 H 0.9082 0.8643 1.3055
H58 H 0.9257 0.8534 1.2485
H59 H 0.9636 0.8588 1.2942
C83 C 1.0066(4) 0.6310(3) 1.1148(6)
C84 C 1.0377(5) 0.6024(3) 1.1075(7)
H60 H 1.0707 0.6043 1.1148
C85 C 1.0168(5) 0.5698(3) 1.0882(7)
H61 H 1.0372 0.5502 1.0850
C86 C 0.9702(4) 0.5657(3) 1.0745(6)
C87 C 0.9439(5) 0.5947(3) 1.0813(7)
H62 H 0.9108 0.5922 1.0752
C88 C 0.9582(4) 0.6275(3) 1.0959(6)
H63 H 0.9374 0.6469 1.0938
C89 C 0.9538(5) 0.5313(3) 1.0635(7)
C90 C 0.9078(6) 0.5197(4) 1.0801(8)
H64 H 0.8875 0.5357 1.0974
C91 C 0.8921(7) 0.4866(4) 1.0720(8)
C92 C 0.9226(6) 0.4656(4) 1.0432(8)
H65 H 0.9136 0.4418 1.0406
C93 C 0.9621(6) 0.4743(4) 1.0194(7)
C94 C 0.9787(6) 0.5100(4) 1.0323(7)
H66 H 1.0078 0.5180 1.0179
C95 C 0.8334(5) 0.4386(4) 1.1062(7)
H67 H 0.8505 0.4193 1.0926
C96 C 0.9736(8) 0.4226(5) 0.9712(9)
H68 H 0.9409 0.4165 0.9734
C97 C 1.0845(4) 0.8080(3) 0.9671(6)
H69 H 1.0888 0.8321 0.9730
C98 C 1.0571(5) 0.6763(3) 0.9823(7)
H70 H 1.0499 0.6848 1.0161
C99 C 1.0460(5) 0.5434(3) 0.8519(7)
C100 C 1.1469(6) 0.4803(5) 1.0362(8)
C101 C 0.9106(5) 0.4714(3) 0.6972(7)
H71 H 0.8894 0.4776 0.7261
H72 H 0.9293 0.4508 0.7067
H73 H 0.8915 0.4662 0.6663
C102 C 0.8033(5) 0.7780(3) 0.8983(6)
H74 H 0.7919 0.7556 0.8893
C103 C 1.2094(7) 0.7884(4) 1.2133(9)
H75 H 1.2354 0.7739 1.2001
H76 H 1.1803 0.7745 1.2159
H77 H 1.2178 0.7974 1.2478
C104 C 1.0575(6) 0.4402(4) 0.7321(9)
H78 H 1.0471 0.4443 0.6963
H79 H 1.0886 0.4286 0.7319
H80 H 1.0602 0.4625 0.7503
C105 C 0.8402(5) 0.5377(4) 0.9247(7)
H81 H 0.8179 0.5532 0.9401
C106 C 0.7974(6) 0.8881(4) 0.9817(8)
H82 H 0.8130 0.9010 0.9535
H83 H 0.8216 0.8784 1.0049
H84 H 0.7767 0.9039 1.0013
C107 C 1.0756(7) 0.8098(4) 1.3044(9)
H85 H 1.0977 0.8176 1.3314
H86 H 1.0878 0.7885 1.2884
H87 H 1.0444 0.8052 1.3199
C108 C 1.2533(7) 0.7793(5) 1.0234(9)
H88 H 1.2861 0.7868 1.0172
H89 H 1.2373 0.7962 1.0460
H90 H 1.2364 0.7778 0.9902
C109 C 0.8489(11) 0.4530(4) 1.2432(12)
H91 H 0.8605 0.4550 1.2074
H92 H 0.8196 0.4392 1.2437
H93 H 0.8731 0.4417 1.2647
C110 C 1.1258(7) 0.8327(4) 0.7511(9)
H94 H 1.1295 0.8507 0.7244
H95 H 1.1568 0.8279 0.7670
H96 H 1.1036 0.8408 0.7778
C111 C 1.1844(6) 0.4845(4) 1.0697(8)
H97 H 1.2050 0.5041 1.0689
C112 C 1.1311(5) 0.8285(4) 1.0579(8)
H98 H 1.1205 0.8463 1.0350
C113 C 0.8456(5) 0.8779(4) 0.8091(8)
H99 H 0.8429 0.8921 0.7777
H100 H 0.8138 0.8735 0.8233
H101 H 0.8609 0.8557 0.8005
C114 C 1.2951(7) 0.7244(5) 1.0450(8)
H102 H 1.3237 0.7316 1.0287
C115 C 1.1323(5) 0.4026(7) 0.9117(16)
H103 H 1.1405 0.4043 0.8747
H104 H 1.1346 0.4256 0.9279
H105 H 1.1543 0.3865 0.9289
C116 C 0.7715(5) 0.5673(4) 1.0699(7)
H106 H 0.7594 0.5443 1.0707
C117 C 0.6375(3) 0.5073(4) 1.0426(6)
H107 H 0.6528 0.5227 1.0679
H108 H 0.6058 0.5008 1.0553
H109 H 0.6344 0.5194 1.0092
C118 C 0.7766(7) 0.4650(9) 0.9672(8)
H110 H 0.7994 0.4476 0.9589
N1 N 0.7051(5) 0.4831(3) 1.0074(4)
C119 C 0.6638(5) 0.4786(4) 1.0363(5)
C120 C 0.6527(6) 0.4460(6) 1.0563(6)
H111 H 0.6245 0.4429 1.0761
C121 C 0.6828(9) 0.4180(4) 1.0473(8)
H112 H 0.6752 0.3957 1.0609
C122 C 0.7241(8) 0.4225(4) 1.0183(9)
H113 H 0.7446 0.4034 1.0121
C123 C 0.7352(5) 0.4551(5) 0.9983(6)
C124 C 0.7035(2) 0.4861(6) 1.1972(11)
H114 H 0.7279 0.5043 1.1987
H115 H 0.6784 0.4931 1.1729
H116 H 0.6898 0.4828 1.2319
N2 N 0.7662(9) 0.4618(5) 1.1531(4)
C125 C 0.7240(9) 0.4568(8) 1.1801(4)
C126 C 0.7064(6) 0.4234(10) 1.1875(8)
H117 H 0.6775 0.4200 1.2061
C127 C 0.7310(12) 0.3950(6) 1.1679(11)
H118 H 0.7190 0.3722 1.1729
C128 C 0.7733(11) 0.4000(5) 1.1408(10)
H119 H 0.7901 0.3805 1.1274
C129 C 0.7909(5) 0.4334(7) 1.1334(5)
N3 N 0.8888(3) 0.8761(2) 0.8894(6)
C130 C 0.9162(3) 0.8909(3) 0.9285(5)
C131 C 0.9287(4) 0.9258(3) 0.9257(6)
H120 H 0.9475 0.9360 0.9524
C132 C 0.9139(5) 0.9459(2) 0.8838(8)
H121 H 0.9224 0.9697 0.8818
C133 C 0.8865(4) 0.9310(3) 0.8446(6)
H122 H 0.8763 0.9447 0.8160
C134 C 0.8739(3) 0.8961(3) 0.8474(5)
N4 N 0.9186(3) 0.8384(3) 0.9716(6)
N5 N 0.9938(4) 0.8174(3) 1.1414(6)
N6 N 0.7358(5) 0.5789(3) 0.9862(7)
N7 N 1.0459(3) 0.8273(2) 1.2242(6)
C135 C 1.0716(4) 0.8337(3) 1.2693(6)
C136 C 1.0970(4) 0.8645(3) 1.2745(6)
H123 H 1.1145 0.8689 1.3054
C137 C 1.0967(4) 0.8889(2) 1.2346(7)
H124 H 1.1140 0.9099 1.2382
C138 C 1.0710(4) 0.8824(3) 1.1894(6)
H125 H 1.0708 0.8990 1.1621
C139 C 1.0456(3) 0.8516(3) 1.1842(6)
N8 N 0.6907(3) 0.5457(3) 0.9020(6)
C140 C 0.6866(4) 0.5814(3) 0.9089(6)
C141 C 0.6604(5) 0.6011(2) 0.8737(7)
H126 H 0.6576 0.6255 0.8784
C142 C 0.6383(4) 0.5850(4) 0.8318(6)
H127 H 0.6204 0.5985 0.8078
C143 C 0.6424(5) 0.5493(4) 0.8249(6)
H128 H 0.6273 0.5384 0.7962
C144 C 0.6686(4) 0.5296(2) 0.8600(6)
N9 N 0.8283(4) 0.5098(4) 1.2252(6)
C145 C 0.8177(4) 0.5435(3) 1.2407(7)
C146 C 0.8188(5) 0.5523(3) 1.2931(8)
H129 H 0.8116 0.5754 1.3037
C147 C 0.8304(6) 0.5273(5) 1.3300(6)
H130 H 0.8312 0.5333 1.3658
C148 C 0.8409(5) 0.4936(4) 1.3145(7)
H131 H 0.8488 0.4765 1.3398
C149 C 0.8398(4) 0.4848(3) 1.2621(7)
C150 C 0.7723(3) 0.8016(2) 0.9198(5)
N10 N 0.7940(2) 0.8326(2) 0.9346(5)
C151 C 0.7675(3) 0.85852(19) 0.9586(5)
C152 C 0.7193(3) 0.8535(2) 0.9678(5)
H132 H 0.7012 0.8713 0.9842
C153 C 0.6975(3) 0.8226(3) 0.9530(6)
H133 H 0.6646 0.8192 0.9593
C154 C 0.7241(3) 0.7967(2) 0.9290(6)
H134 H 0.7092 0.7755 0.9190
N11 N 0.8045(4) 0.5554(3) 1.1549(7)
N12 N 0.8476(4) 0.7853(3) 0.8898(6)
N13 N 0.9884(4) 0.7594(2) 0.7955(6)
N14 N 0.7831(5) 0.4927(4) 0.9523(6)
N15 N 0.9297(4) 0.4719(3) 0.8496(6)
N16 N 1.0459(4) 0.8168(3) 0.8792(6)
N17 N 1.1221(2) 0.7951(3) 1.0482(6)
C155 C 1.0431(3) 0.7549(3) 0.7285(6)
N18 N 1.0652(4) 0.7843(3) 0.7487(5)
C156 C 1.1054(4) 0.7978(3) 0.7247(7)
C157 C 1.1236(4) 0.7819(4) 0.6804(7)
H135 H 1.1511 0.7911 0.6640
C158 C 1.1016(5) 0.7525(4) 0.6602(6)
H136 H 1.1140 0.7416 0.6300
C159 C 1.0613(5) 0.7390(3) 0.6843(6)
H137 H 1.0462 0.7189 0.6705
N19 N 0.9913(2) 0.43593(14) 0.7916(5)
C160 C 0.9543(3) 0.41854(14) 0.8162(5)
C161 C 0.9482(3) 0.38305(14) 0.8085(5)
H138 H 0.9229 0.3712 0.8254
C162 C 0.9791(3) 0.36494(14) 0.7762(5)
H139 H 0.9750 0.3407 0.7710
C163 C 1.0161(3) 0.38233(14) 0.7516(5)
H140 H 1.0373 0.3700 0.7295
C164 C 1.0222(3) 0.41782(14) 0.7593(5)
C165 C 1.0242(3) 0.87190(14) 0.8457(6)
N20 N 1.0098(2) 0.85274(14) 0.8027(5)
C166 C 0.9935(3) 0.86967(14) 0.7584(5)
C167 C 0.9917(3) 0.90577(14) 0.7571(6)
H141 H 0.9807 0.9173 0.7268
C168 C 1.0062(3) 0.92494(14) 0.8001(6)
H142 H 1.0050 0.9496 0.7992
C169 C 1.0224(3) 0.90800(14) 0.8444(6)
H143 H 1.0323 0.9211 0.8738
N21 N 1.1746(3) 0.80964(18) 1.1343(5)
C170 C 1.2015(4) 0.8170(3) 1.1784(5)
C171 C 1.2108(3) 0.8514(3) 1.1918(6)
H144 H 1.2292 0.8564 1.2219
C172 C 1.1934(4) 0.8783(2) 1.1612(6)
H145 H 1.1998 0.9018 1.1704
C173 C 1.1665(4) 0.87089(17) 1.1172(6)
H146 H 1.1546 0.8893 1.0963
C174 C 1.1572(3) 0.83656(17) 1.1038(5)
N22 N 1.0239(3) 0.5295(2) 0.8079(6)
N23 N 0.9701(4) 0.5103(3) 0.7273(6)
N24 N 1.0980(4) 0.5015(3) 0.9741(6)
N25 N 1.1219(5) 0.4513(3) 1.0379(6)
N26 N 1.2151(4) 0.7342(3) 1.0762(6)
N27 N 1.1360(4) 0.7151(3) 1.1238(6)
N28 N 0.9887(4) 0.7403(3) 1.2157(7)
N29 N 0.9934(5) 0.4527(3) 0.9945(6)
C175 C 0.9365(4) 0.7538(2) 1.2793(6)
N30 N 0.9475(3) 0.7884(3) 1.2696(5)
C176 C 0.9272(4) 0.8145(2) 1.2997(6)
C177 C 0.8959(4) 0.8059(3) 1.3395(6)
H147 H 0.8820 0.8237 1.3600
C178 C 0.8849(4) 0.7713(3) 1.3492(6)
H148 H 0.8635 0.7655 1.3764
C179 C 0.9052(4) 0.7452(2) 1.3191(6)
H149 H 0.8977 0.7215 1.3257
N31 N 1.0549(5) 0.4129(2) 0.9389(6)
C180 C 1.0078(4) 0.4026(3) 0.9444(6)
C181 C 0.9935(4) 0.3700(4) 0.9274(7)
H150 H 0.9613 0.3630 0.9312
C182 C 1.0263(6) 0.3476(3) 0.9047(7)
H151 H 1.0165 0.3253 0.8931
C183 C 1.0734(5) 0.3579(3) 0.8991(7)
H152 H 1.0959 0.3426 0.8837
C184 C 1.0877(4) 0.3906(4) 0.9162(7)
N32 N 0.8541(7) 0.4795(4) 1.0977(7)
Cu1 Cu 0.86524(6) 0.83150(4) 0.9164(4)
Cu2 Cu 0.99506(7) 0.79293(5) 1.2124(4)
Cu3 Cu 0.72741(7) 0.52582(5) 0.9670(4)
Cu4 Cu 0.81118(8) 0.50441(6) 1.1475(4)
Cu5 Cu 1.02535(7) 0.80314(4) 0.8073(4)
Cu6 Cu 1.15633(6) 0.76250(5) 1.1004(4)
Cu7 Cu 0.98117(6) 0.48778(4) 0.7997(4)
Cu8 Cu 1.06715(7) 0.45470(4) 0.9823(4)
loop_
_geom_bond_atom_site_label_1
_geom_bond_atom_site_label_2
_geom_bond_site_symmetry_1
_geom_bond_site_symmetry_2
C1 H1 1_555 1_555
C2 C3 1_555 1_555
C3 H2 1_555 1_555
C4 C3 1_555 1_555
C5 C4 1_555 1_555
H3 C5 1_555 1_555
C6 C5 1_555 1_555
C7 C2 1_555 1_555
H4 C7 1_555 1_555
C8 H5 1_555 1_555
C9 C6 1_555 1_555
C10 C9 1_555 1_555
H6 C10 1_555 1_555
C11 C10 1_555 1_555
H7 C11 1_555 1_555
C12 C11 1_555 1_555
C13 C12 1_555 1_555
H8 C13 1_555 1_555
C14 C9 1_555 1_555
H9 C14 1_555 1_555
C15 C12 1_555 1_555
C16 C15 1_555 1_555
H10 C16 1_555 1_555
C17 C16 1_555 1_555
C18 C19 1_555 1_555
C19 C15 1_555 1_555
H11 C19 1_555 1_555
C20 H12 1_555 1_555
C21 H13 1_555 1_555
C22 C23 1_555 1_555
C23 H14 1_555 1_555
C24 C23 1_555 1_555
C25 C24 1_555 1_555
H15 C25 1_555 1_555
C26 C25 1_555 1_555
C27 C22 1_555 1_555
H16 C27 1_555 1_555
C28 H17 1_555 1_555
C29 C26 1_555 1_555
C30 C29 1_555 1_555
H18 C30 1_555 1_555
C31 C30 1_555 1_555
H19 C31 1_555 1_555
C32 C31 1_555 1_555
C33 C32 1_555 1_555
H20 C33 1_555 1_555
C34 C29 1_555 1_555
H21 C34 1_555 1_555
C35 C32 1_555 1_555
C36 C35 1_555 1_555
H22 C36 1_555 1_555
C37 C36 1_555 1_555
C38 C37 1_555 1_555
H23 C38 1_555 1_555
C39 C38 1_555 1_555
C40 H24 1_555 1_555
H25 C40 1_555 1_555
H26 C40 1_555 1_555
C41 H27 1_555 1_555
C42 H28 1_555 1_555
H29 C42 1_555 1_555
H30 C42 1_555 1_555
C43 H31 1_555 1_555
C44 C48 1_555 1_555
C45 C46 1_555 1_555
C46 H32 1_555 1_555
C47 C46 1_555 1_555
C48 C47 1_555 1_555
H33 C48 1_555 1_555
C49 C47 1_555 1_555
C50 C49 1_555 1_555
H34 C50 1_555 1_555
C51 C50 1_555 1_555
H35 C51 1_555 1_555
C52 C51 1_555 1_555
C53 C52 1_555 1_555
H36 C53 1_555 1_555
C54 C52 1_555 1_555
C55 C54 1_555 1_555
H37 C55 1_555 1_555
C56 C55 1_555 1_555
C57 C56 1_555 1_555
H38 C57 1_555 1_555
C58 C54 1_555 1_555
H39 C58 1_555 1_555
C59 H40 1_555 1_555
C60 C61 1_555 1_555
C61 H41 1_555 1_555
C62 C61 1_555 1_555
H42 C62 1_555 1_555
C63 C60 1_555 1_555
H43 C63 1_555 1_555
H44 C63 1_555 1_555
H45 C63 1_555 1_555
C64 H46 1_555 1_555
C65 C64 1_555 1_555
C66 C67 1_555 1_555
C67 H47 1_555 1_555
C68 C67 1_555 1_555
H48 C68 1_555 1_555
C69 C65 1_555 1_555
H49 C69 1_555 1_555
C70 C73 1_555 1_555
C71 C108 1_555 1_555
C72 H50 1_555 1_555
C73 C72 1_555 1_555
H51 C73 1_555 1_555
C74 C70 1_555 1_555
H52 C74 1_555 1_555
C75 C76 1_555 1_555
C76 H53 1_555 1_555
C77 C76 1_555 1_555
C78 C77 1_555 1_555
H54 C78 1_555 1_555
C79 C78 1_555 1_555
C80 C75 1_555 1_555
H55 C80 1_555 1_555
C81 H56 1_555 1_555
C82 H57 1_555 1_555
H58 C82 1_555 1_555
H59 C82 1_555 1_555
C83 C79 1_555 1_555
C84 C83 1_555 1_555
H60 C84 1_555 1_555
C85 C84 1_555 1_555
H61 C85 1_555 1_555
C86 C85 1_555 1_555
C87 C86 1_555 1_555
H62 C87 1_555 1_555
C88 C83 1_555 1_555
H63 C88 1_555 1_555
C89 C86 1_555 1_555
C90 C89 1_555 1_555
H64 C90 1_555 1_555
C91 C90 1_555 1_555
C92 C91 1_555 1_555
H65 C92 1_555 1_555
C93 C92 1_555 1_555
C94 C89 1_555 1_555
H66 C94 1_555 1_555
C95 H67 1_555 1_555
C96 H68 1_555 1_555
C97 C44 1_555 1_555
H69 C97 1_555 1_555
C98 C49 1_555 1_555
H70 C98 1_555 1_555
C99 C57 1_555 1_555
C100 C59 1_555 1_555
C101 C66 1_555 1_555
H71 C101 1_555 1_555
H72 C101 1_555 1_555
H73 C101 1_555 1_555
C102 H74 1_555 1_555
C103 H75 1_555 1_555
H76 C103 1_555 1_555
H77 C103 1_555 1_555
C104 H78 1_555 1_555
H79 C104 1_555 1_555
H80 C104 1_555 1_555
C105 C35 1_555 1_555
H81 C105 1_555 1_555
C106 H82 1_555 1_555
H83 C106 1_555 1_555
H84 C106 1_555 1_555
C107 H85 1_555 1_555
H86 C107 1_555 1_555
H87 C107 1_555 1_555
C108 H88 1_555 1_555
H89 C108 1_555 1_555
H90 C108 1_555 1_555
C109 H91 1_555 1_555
H92 C109 1_555 1_555
H93 C109 1_555 1_555
C110 H94 1_555 1_555
H95 C110 1_555 1_555
H96 C110 1_555 1_555
C111 C62 1_555 1_555
H97 C111 1_555 1_555
C112 H98 1_555 1_555
C113 H99 1_555 1_555
H100 C113 1_555 1_555
H101 C113 1_555 1_555
C114 C71 1_555 1_555
H102 C114 1_555 1_555
C115 H103 1_555 1_555
H104 C115 1_555 1_555
H105 C115 1_555 1_555
C116 C17 1_555 1_555
H106 C116 1_555 1_555
C117 H107 1_555 1_555
H108 C117 1_555 1_555
H109 C117 1_555 1_555
C118 H110 1_555 1_555
N1 C119 1_555 1_555
C119 C117 1_555 1_555
C120 C119 1_555 1_555
H111 C120 1_555 1_555
C121 C120 1_555 1_555
H112 C121 1_555 1_555
C122 C121 1_555 1_555
H113 C122 1_555 1_555
C123 C118 1_555 1_555
C124 H114 1_555 1_555
H115 C124 1_555 1_555
H116 C124 1_555 1_555
N2 C125 1_555 1_555
C125 C124 1_555 1_555
C126 C125 1_555 1_555
H117 C126 1_555 1_555
C127 C126 1_555 1_555
H118 C127 1_555 1_555
C128 C127 1_555 1_555
H119 C128 1_555 1_555
C129 C95 1_555 1_555
N3 C130 1_555 1_555
C130 C1 1_555 1_555
C131 C130 1_555 1_555
H120 C131 1_555 1_555
C132 C131 1_555 1_555
H121 C132 1_555 1_555
C133 C132 1_555 1_555
H122 C133 1_555 1_555
C134 C113 1_555 1_555
N4 C1 1_555 1_555
N5 C4 1_555 1_555
N6 C17 1_555 1_555
N7 C135 1_555 1_555
C135 C107 1_555 1_555
C136 C135 1_555 1_555
H123 C136 1_555 1_555
C137 C136 1_555 1_555
H124 C137 1_555 1_555
C138 C137 1_555 1_555
H125 C138 1_555 1_555
C139 C8 1_555 1_555
N8 C140 1_555 1_555
C140 C20 1_555 1_555
C141 C140 1_555 1_555
H126 C141 1_555 1_555
C142 C141 1_555 1_555
H127 C142 1_555 1_555
C143 C142 1_555 1_555
H128 C143 1_555 1_555
C144 C40 1_555 1_555
N9 C145 1_555 1_555
C145 C21 1_555 1_555
C146 C145 1_555 1_555
H129 C146 1_555 1_555
C147 C146 1_555 1_555
H130 C147 1_555 1_555
C148 C147 1_555 1_555
H131 C148 1_555 1_555
C149 C109 1_555 1_555
C150 C102 1_555 1_555
N10 C150 1_555 1_555
C151 C106 1_555 1_555
C152 C151 1_555 1_555
H132 C152 1_555 1_555
C153 C152 1_555 1_555
H133 C153 1_555 1_555
C154 C150 1_555 1_555
H134 C154 1_555 1_555
N11 C18 1_555 1_555
N12 C22 1_555 1_555
N13 C24 1_555 1_555
N14 C39 1_555 1_555
N15 C37 1_555 1_555
N16 C43 1_555 1_555
N17 C45 1_555 1_555
C155 C28 1_555 1_555
N18 C155 1_555 1_555
C156 C110 1_555 1_555
C157 C156 1_555 1_555
H135 C157 1_555 1_555
C158 C157 1_555 1_555
H136 C158 1_555 1_555
C159 C155 1_555 1_555
H137 C159 1_555 1_555
N19 C160 1_555 1_555
C160 C41 1_555 1_555
C161 C160 1_555 1_555
H138 C161 1_555 1_555
C162 C161 1_555 1_555
H139 C162 1_555 1_555
C163 C162 1_555 1_555
H140 C163 1_555 1_555
C164 C104 1_555 1_555
C165 C43 1_555 1_555
N20 C165 1_555 1_555
C166 C42 1_555 1_555
C167 C166 1_555 1_555
H141 C167 1_555 1_555
C168 C167 1_555 1_555
H142 C168 1_555 1_555
C169 C165 1_555 1_555
H143 C169 1_555 1_555
N21 C170 1_555 1_555
C170 C103 1_555 1_555
C171 C170 1_555 1_555
H144 C171 1_555 1_555
C172 C171 1_555 1_555
H145 C172 1_555 1_555
C173 C172 1_555 1_555
H146 C173 1_555 1_555
C174 C112 1_555 1_555
N22 C64 1_555 1_555
N23 C65 1_555 1_555
N24 C56 1_555 1_555
N25 C60 1_555 1_555
N26 C70 1_555 1_555
N27 C74 1_555 1_555
N28 C77 1_555 1_555
N29 C93 1_555 1_555
C175 C81 1_555 1_555
N30 C175 1_555 1_555
C176 C82 1_555 1_555
C177 C176 1_555 1_555
H147 C177 1_555 1_555
C178 C177 1_555 1_555
H148 C178 1_555 1_555
C179 C175 1_555 1_555
H149 C179 1_555 1_555
N31 C180 1_555 1_555
C180 C96 1_555 1_555
C181 C180 1_555 1_555
H150 C181 1_555 1_555
C182 C181 1_555 1_555
H151 C182 1_555 1_555
C183 C182 1_555 1_555
H152 C183 1_555 1_555
C184 C115 1_555 1_555
N32 C91 1_555 1_555
Cu1 N3 1_555 1_555
Cu2 N5 1_555 1_555
Cu3 N1 1_555 1_555
Cu4 N2 1_555 1_555
Cu5 N13 1_555 1_555
Cu6 N17 1_555 1_555
Cu7 N15 1_555 1_555
Cu8 N24 1_555 1_555
C2 N4 1_555 1_555
C6 C7 1_555 1_555
C8 N5 1_555 1_555
C13 C14 1_555 1_555
C18 C116 1_555 1_555
C20 N6 1_555 1_555
C21 N11 1_555 1_555
C26 C27 1_555 1_555
C28 N13 1_555 1_555
C33 C34 1_555 1_555
C39 C105 1_555 1_555
C41 N15 1_555 1_555
C44 N16 1_555 1_555
C45 C97 1_555 1_555
C53 C98 1_555 1_555
C58 C99 1_555 1_555
C59 N24 1_555 1_555
C66 N23 1_555 1_555
C68 C69 1_555 1_555
C71 N26 1_555 1_555
C72 C114 1_555 1_555
C75 N27 1_555 1_555
C79 C80 1_555 1_555
C81 N28 1_555 1_555
C87 C88 1_555 1_555
C93 C94 1_555 1_555
C95 N32 1_555 1_555
C96 N29 1_555 1_555
C99 N22 1_555 1_555
C100 C111 1_555 1_555
C100 N25 1_555 1_555
C102 N12 1_555 1_555
C112 N17 1_555 1_555
C118 N14 1_555 1_555
N1 C123 1_555 1_555
C122 C123 1_555 1_555
N2 C129 1_555 1_555
C128 C129 1_555 1_555
N3 C134 1_555 1_555
C133 C134 1_555 1_555
N4 Cu1 1_555 1_555
N6 Cu3 1_555 1_555
N7 C139 1_555 1_555
N7 Cu2 1_555 1_555
C138 C139 1_555 1_555
N8 C144 1_555 1_555
N8 Cu3 1_555 1_555
C143 C144 1_555 1_555
N9 C149 1_555 1_555
N9 Cu4 1_555 1_555
C148 C149 1_555 1_555
N10 C151 1_555 1_555
N10 Cu1 1_555 1_555
C153 C154 1_555 1_555
N11 Cu4 1_555 1_555
N12 Cu1 1_555 1_555
N14 Cu3 1_555 1_555
N16 Cu5 1_555 1_555
N18 C156 1_555 1_555
N18 Cu5 1_555 1_555
C158 C159 1_555 1_555
N19 C164 1_555 1_555
N19 Cu7 1_555 1_555
C163 C164 1_555 1_555
N20 C166 1_555 1_555
N20 Cu5 1_555 1_555
C168 C169 1_555 1_555
N21 C174 1_555 1_555
N21 Cu6 1_555 1_555
C173 C174 1_555 1_555
N22 Cu7 1_555 1_555
N23 Cu7 1_555 1_555
N25 Cu8 1_555 1_555
N26 Cu6 1_555 1_555
N27 Cu6 1_555 1_555
N28 Cu2 1_555 1_555
N29 Cu8 1_555 1_555
N30 C176 1_555 1_555
N30 Cu2 1_555 1_555
C178 C179 1_555 1_555
N31 C184 1_555 1_555
N31 Cu8 1_555 1_555
C183 C184 1_555 1_555
N32 Cu4 1_555 1_555

#END
