# generated using pymatgen
data_CuH19C23N4
_symmetry_space_group_name_H-M   'P 1'
_cell_length_a   25.72400000
_cell_length_b   28.11700000
_cell_length_c   38.46500000
_cell_angle_alpha   90.00000000
_cell_angle_beta   90.00000000
_cell_angle_gamma   90.00000000
_symmetry_Int_Tables_number   1
_chemical_formula_structural   CuH19C23N4
_chemical_formula_sum   'Cu32 H608 C736 N128'
_cell_volume   27821.03089822
_cell_formula_units_Z   32
loop_
 _symmetry_equiv_pos_site_id
 _symmetry_equiv_pos_as_xyz
  1  'x, y, z'
loop_
 _atom_site_type_symbol
 _atom_site_label
 _atom_site_symmetry_multiplicity
 _atom_site_fract_x
 _atom_site_fract_y
 _atom_site_fract_z
 _atom_site_occupancy
  Cu  Cu1  1  0.916400  0.865240  0.831500  1
  Cu  Cu2  1  0.416400  0.134760  0.168500  1
  Cu  Cu3  1  0.916400  0.365240  0.668500  1
  Cu  Cu4  1  0.416400  0.634760  0.331500  1
  Cu  Cu5  1  0.212400  0.995060  0.792930  1
  Cu  Cu6  1  0.712400  0.004940  0.207070  1
  Cu  Cu7  1  0.212400  0.495060  0.707070  1
  Cu  Cu8  1  0.712400  0.504940  0.292930  1
  Cu  Cu9  1  0.967000  0.727410  0.525820  1
  Cu  Cu10  1  0.467000  0.272590  0.474180  1
  Cu  Cu11  1  0.967000  0.227410  0.974180  1
  Cu  Cu12  1  0.467000  0.772590  0.025820  1
  Cu  Cu13  1  0.147500  0.811180  0.504410  1
  Cu  Cu14  1  0.647500  0.188820  0.495590  1
  Cu  Cu15  1  0.147500  0.311180  0.995590  1
  Cu  Cu16  1  0.647500  0.688820  0.004410  1
  Cu  Cu17  1  0.807300  0.025350  0.803140  1
  Cu  Cu18  1  0.307300  0.974650  0.196860  1
  Cu  Cu19  1  0.807300  0.525350  0.696860  1
  Cu  Cu20  1  0.307300  0.474650  0.303140  1
  Cu  Cu21  1  0.100400  0.156330  0.762500  1
  Cu  Cu22  1  0.600400  0.843670  0.237500  1
  Cu  Cu23  1  0.100400  0.656330  0.737500  1
  Cu  Cu24  1  0.600400  0.343670  0.262500  1
  Cu  Cu25  1  0.799700  0.981170  0.487780  1
  Cu  Cu26  1  0.299700  0.018830  0.512220  1
  Cu  Cu27  1  0.799700  0.481170  0.012220  1
  Cu  Cu28  1  0.299700  0.518830  0.987780  1
  Cu  Cu29  1  0.982300  0.067150  0.454700  1
  Cu  Cu30  1  0.482300  0.932850  0.545300  1
  Cu  Cu31  1  0.982300  0.567150  0.045300  1
  Cu  Cu32  1  0.482300  0.432850  0.954700  1
  H  H33  1  0.999600  0.952500  0.884600  1
  H  H34  1  0.499600  0.047500  0.115400  1
  H  H35  1  0.999600  0.452500  0.615400  1
  H  H36  1  0.499600  0.547500  0.384600  1
  H  H37  1  0.061000  0.968800  0.852700  1
  H  H38  1  0.561000  0.031200  0.147300  1
  H  H39  1  0.061000  0.468800  0.647300  1
  H  H40  1  0.561000  0.531200  0.352700  1
  H  H41  1  0.124500  0.950900  0.760600  1
  H  H42  1  0.624500  0.049100  0.239400  1
  H  H43  1  0.124500  0.450900  0.739400  1
  H  H44  1  0.624500  0.549100  0.260600  1
  H  H45  1  0.980700  0.900800  0.775600  1
  H  H46  1  0.480700  0.099200  0.224400  1
  H  H47  1  0.980700  0.400800  0.724400  1
  H  H48  1  0.480700  0.599200  0.275600  1
  H  H49  1  0.108900  0.020800  0.859000  1
  H  H50  1  0.608900  0.979200  0.141000  1
  H  H51  1  0.108900  0.520800  0.641000  1
  H  H52  1  0.608900  0.479200  0.359000  1
  H  H53  1  0.134600  0.878300  0.729900  1
  H  H54  1  0.634600  0.121700  0.270100  1
  H  H55  1  0.134600  0.378300  0.770100  1
  H  H56  1  0.634600  0.621700  0.229900  1
  H  H57  1  0.134900  0.836400  0.677600  1
  H  H58  1  0.634900  0.163600  0.322400  1
  H  H59  1  0.134900  0.336400  0.822400  1
  H  H60  1  0.634900  0.663600  0.177600  1
  H  H61  1  0.986500  0.862600  0.660600  1
  H  H62  1  0.486500  0.137400  0.339400  1
  H  H63  1  0.986500  0.362600  0.839400  1
  H  H64  1  0.486500  0.637400  0.160600  1
  H  H65  1  0.978900  0.906900  0.711000  1
  H  H66  1  0.478900  0.093100  0.289000  1
  H  H67  1  0.978900  0.406900  0.789000  1
  H  H68  1  0.478900  0.593100  0.211000  1
  H  H69  1  0.994000  0.788800  0.635100  1
  H  H70  1  0.494000  0.211200  0.364900  1
  H  H71  1  0.994000  0.288800  0.864900  1
  H  H72  1  0.494000  0.711200  0.135100  1
  H  H73  1  0.138900  0.838100  0.618600  1
  H  H74  1  0.638900  0.161900  0.381400  1
  H  H75  1  0.138900  0.338100  0.881400  1
  H  H76  1  0.638900  0.661900  0.118600  1
  H  H77  1  0.953600  0.712600  0.623900  1
  H  H78  1  0.453600  0.287400  0.376100  1
  H  H79  1  0.953600  0.212600  0.876100  1
  H  H80  1  0.453600  0.787400  0.123900  1
  H  H81  1  0.203300  0.800700  0.594400  1
  H  H82  1  0.703300  0.199300  0.405600  1
  H  H83  1  0.203300  0.300700  0.905600  1
  H  H84  1  0.703300  0.699300  0.094400  1
  H  H85  1  0.835200  0.921400  0.795000  1
  H  H86  1  0.335200  0.078600  0.205000  1
  H  H87  1  0.835200  0.421400  0.705000  1
  H  H88  1  0.335200  0.578600  0.295000  1
  H  H89  1  0.822900  0.968900  0.697500  1
  H  H90  1  0.322900  0.031100  0.302500  1
  H  H91  1  0.822900  0.468900  0.802500  1
  H  H92  1  0.322900  0.531100  0.197500  1
  H  H93  1  0.904900  0.848500  0.720400  1
  H  H94  1  0.404900  0.151500  0.279600  1
  H  H95  1  0.904900  0.348500  0.779600  1
  H  H96  1  0.404900  0.651500  0.220400  1
  H  H97  1  0.749200  0.992300  0.720900  1
  H  H98  1  0.249200  0.007700  0.279100  1
  H  H99  1  0.749200  0.492300  0.779100  1
  H  H100  1  0.249200  0.507700  0.220900  1
  H  H101  1  0.892300  0.968600  0.647800  1
  H  H102  1  0.392300  0.031400  0.352200  1
  H  H103  1  0.892300  0.468600  0.852200  1
  H  H104  1  0.392300  0.531400  0.147800  1
  H  H105  1  0.902000  0.956000  0.589900  1
  H  H106  1  0.402000  0.044000  0.410100  1
  H  H107  1  0.902000  0.456000  0.910100  1
  H  H108  1  0.402000  0.544000  0.089900  1
  H  H109  1  0.887800  0.815200  0.601900  1
  H  H110  1  0.387800  0.184800  0.398100  1
  H  H111  1  0.887800  0.315200  0.898100  1
  H  H112  1  0.387800  0.684800  0.101900  1
  H  H113  1  0.864200  0.824100  0.660800  1
  H  H114  1  0.364200  0.175900  0.339200  1
  H  H115  1  0.864200  0.324100  0.839200  1
  H  H116  1  0.364200  0.675900  0.160800  1
  H  H117  1  0.863700  0.938800  0.539700  1
  H  H118  1  0.363700  0.061200  0.460300  1
  H  H119  1  0.863700  0.438800  0.960300  1
  H  H120  1  0.363700  0.561200  0.039700  1
  H  H121  1  0.906000  0.851100  0.456600  1
  H  H122  1  0.406000  0.148900  0.543400  1
  H  H123  1  0.906000  0.351100  0.043400  1
  H  H124  1  0.406000  0.648900  0.956600  1
  H  H125  1  0.834800  0.643100  0.482000  1
  H  H126  1  0.334800  0.356900  0.518000  1
  H  H127  1  0.834800  0.143100  0.018000  1
  H  H128  1  0.334800  0.856900  0.982000  1
  H  H129  1  0.893700  0.661400  0.481100  1
  H  H130  1  0.393700  0.338600  0.518900  1
  H  H131  1  0.893700  0.161400  0.018900  1
  H  H132  1  0.393700  0.838600  0.981100  1
  H  H133  1  0.847000  0.698900  0.481400  1
  H  H134  1  0.347000  0.301100  0.518600  1
  H  H135  1  0.847000  0.198900  0.018600  1
  H  H136  1  0.347000  0.801100  0.981400  1
  H  H137  1  0.867100  0.897700  0.427000  1
  H  H138  1  0.367100  0.102300  0.573000  1
  H  H139  1  0.867100  0.397700  0.073000  1
  H  H140  1  0.367100  0.602300  0.927000  1
  H  H141  1  0.688400  0.964900  0.864100  1
  H  H142  1  0.188400  0.035100  0.135900  1
  H  H143  1  0.688400  0.464900  0.635900  1
  H  H144  1  0.188400  0.535100  0.364100  1
  H  H145  1  0.728400  0.950400  0.834100  1
  H  H146  1  0.228400  0.049600  0.165900  1
  H  H147  1  0.728400  0.450400  0.665900  1
  H  H148  1  0.228400  0.549600  0.334100  1
  H  H149  1  0.703000  0.002400  0.834400  1
  H  H150  1  0.203000  0.997600  0.165600  1
  H  H151  1  0.703000  0.502400  0.665600  1
  H  H152  1  0.203000  0.497600  0.334400  1
  H  H153  1  0.926000  0.042900  0.859900  1
  H  H154  1  0.426000  0.957100  0.140100  1
  H  H155  1  0.926000  0.542900  0.640100  1
  H  H156  1  0.426000  0.457100  0.359900  1
  H  H157  1  0.023000  0.099900  0.733500  1
  H  H158  1  0.523000  0.900100  0.266500  1
  H  H159  1  0.023000  0.599900  0.766500  1
  H  H160  1  0.523000  0.400100  0.233500  1
  H  H161  1  0.882600  0.042100  0.752800  1
  H  H162  1  0.382600  0.957900  0.247200  1
  H  H163  1  0.882600  0.542100  0.747200  1
  H  H164  1  0.382600  0.457900  0.252800  1
  H  H165  1  0.862000  0.081700  0.698100  1
  H  H166  1  0.362000  0.918300  0.301900  1
  H  H167  1  0.862000  0.581700  0.801900  1
  H  H168  1  0.362000  0.418300  0.198100  1
  H  H169  1  0.848300  0.085000  0.640000  1
  H  H170  1  0.348300  0.915000  0.360000  1
  H  H171  1  0.848300  0.585000  0.860000  1
  H  H172  1  0.348300  0.415000  0.140000  1
  H  H173  1  0.998700  0.054500  0.622700  1
  H  H174  1  0.498700  0.945500  0.377300  1
  H  H175  1  0.998700  0.554500  0.877300  1
  H  H176  1  0.498700  0.445500  0.122700  1
  H  H177  1  0.979800  0.099700  0.573300  1
  H  H178  1  0.479800  0.900300  0.426700  1
  H  H179  1  0.979800  0.599700  0.926700  1
  H  H180  1  0.479800  0.400300  0.073300  1
  H  H181  1  0.888100  0.056000  0.494100  1
  H  H182  1  0.388100  0.944000  0.505900  1
  H  H183  1  0.888100  0.556000  0.005900  1
  H  H184  1  0.388100  0.444000  0.994100  1
  H  H185  1  0.841400  0.035700  0.593300  1
  H  H186  1  0.341400  0.964300  0.406700  1
  H  H187  1  0.841400  0.535700  0.906700  1
  H  H188  1  0.341400  0.464300  0.093300  1
  H  H189  1  0.996800  0.151200  0.529200  1
  H  H190  1  0.496800  0.848800  0.470800  1
  H  H191  1  0.996800  0.651200  0.970800  1
  H  H192  1  0.496800  0.348800  0.029200  1
  H  H193  1  0.126700  0.178500  0.408800  1
  H  H194  1  0.626700  0.821500  0.591200  1
  H  H195  1  0.126700  0.678500  0.091200  1
  H  H196  1  0.626700  0.321500  0.908800  1
  H  H197  1  0.134500  0.211000  0.459900  1
  H  H198  1  0.634500  0.789000  0.540100  1
  H  H199  1  0.134500  0.711000  0.040100  1
  H  H200  1  0.634500  0.289000  0.959900  1
  H  H201  1  0.099800  0.099400  0.380600  1
  H  H202  1  0.599800  0.900600  0.619400  1
  H  H203  1  0.099800  0.599400  0.119400  1
  H  H204  1  0.599800  0.400600  0.880600  1
  H  H205  1  0.041100  0.117100  0.376000  1
  H  H206  1  0.541100  0.882900  0.624000  1
  H  H207  1  0.041100  0.617100  0.124000  1
  H  H208  1  0.541100  0.382900  0.876000  1
  H  H209  1  0.053200  0.070500  0.398400  1
  H  H210  1  0.553200  0.929500  0.601600  1
  H  H211  1  0.053200  0.570500  0.101600  1
  H  H212  1  0.553200  0.429500  0.898400  1
  H  H213  1  0.766000  0.044300  0.568700  1
  H  H214  1  0.266000  0.955700  0.431300  1
  H  H215  1  0.766000  0.544300  0.931300  1
  H  H216  1  0.266000  0.455700  0.068700  1
  H  H217  1  0.611200  0.932600  0.510500  1
  H  H218  1  0.111200  0.067400  0.489500  1
  H  H219  1  0.611200  0.432600  0.989500  1
  H  H220  1  0.111200  0.567400  0.010500  1
  H  H221  1  0.600100  0.979400  0.554200  1
  H  H222  1  0.100100  0.020600  0.445800  1
  H  H223  1  0.600100  0.479400  0.945800  1
  H  H224  1  0.100100  0.520600  0.054200  1
  H  H225  1  0.670800  0.027100  0.575100  1
  H  H226  1  0.170800  0.972900  0.424900  1
  H  H227  1  0.670800  0.527100  0.924900  1
  H  H228  1  0.170800  0.472900  0.075100  1
  H  H229  1  0.064700  0.319500  0.680300  1
  H  H230  1  0.564700  0.680500  0.319700  1
  H  H231  1  0.064700  0.819500  0.819700  1
  H  H232  1  0.564700  0.180500  0.180300  1
  H  H233  1  0.103200  0.254100  0.653700  1
  H  H234  1  0.603200  0.745900  0.346300  1
  H  H235  1  0.103200  0.754100  0.846300  1
  H  H236  1  0.603200  0.245900  0.153700  1
  H  H237  1  0.137600  0.165700  0.669900  1
  H  H238  1  0.637600  0.834300  0.330100  1
  H  H239  1  0.137600  0.665700  0.830100  1
  H  H240  1  0.637600  0.334300  0.169900  1
  H  H241  1  0.186000  0.073900  0.746100  1
  H  H242  1  0.686000  0.926100  0.253900  1
  H  H243  1  0.186000  0.573900  0.753900  1
  H  H244  1  0.686000  0.426100  0.246100  1
  H  H245  1  0.174600  0.964700  0.679300  1
  H  H246  1  0.674600  0.035300  0.320700  1
  H  H247  1  0.174600  0.464700  0.820700  1
  H  H248  1  0.674600  0.535300  0.179300  1
  H  H249  1  0.101900  0.089700  0.655800  1
  H  H250  1  0.601900  0.910300  0.344200  1
  H  H251  1  0.101900  0.589700  0.844200  1
  H  H252  1  0.601900  0.410300  0.155800  1
  H  H253  1  0.253700  0.953100  0.706100  1
  H  H254  1  0.753700  0.046900  0.293900  1
  H  H255  1  0.253700  0.453100  0.793900  1
  H  H256  1  0.753700  0.546900  0.206100  1
  H  H257  1  0.305500  0.908200  0.864300  1
  H  H258  1  0.805500  0.091800  0.135700  1
  H  H259  1  0.305500  0.408200  0.635700  1
  H  H260  1  0.805500  0.591800  0.364300  1
  H  H261  1  0.248500  0.925700  0.853400  1
  H  H262  1  0.748500  0.074300  0.146600  1
  H  H263  1  0.248500  0.425700  0.646600  1
  H  H264  1  0.748500  0.574300  0.353400  1
  H  H265  1  0.294200  0.963600  0.858800  1
  H  H266  1  0.794200  0.036400  0.141200  1
  H  H267  1  0.294200  0.463600  0.641200  1
  H  H268  1  0.794200  0.536400  0.358800  1
  H  H269  1  0.114800  0.070700  0.604300  1
  H  H270  1  0.614800  0.929300  0.395700  1
  H  H271  1  0.114800  0.570700  0.895700  1
  H  H272  1  0.614800  0.429300  0.104300  1
  H  H273  1  0.085000  0.037200  0.550200  1
  H  H274  1  0.585000  0.962800  0.449800  1
  H  H275  1  0.085000  0.537200  0.949800  1
  H  H276  1  0.585000  0.462800  0.050200  1
  H  H277  1  0.075200  0.910800  0.592200  1
  H  H278  1  0.575200  0.089200  0.407800  1
  H  H279  1  0.075200  0.410800  0.907800  1
  H  H280  1  0.575200  0.589200  0.092200  1
  H  H281  1  0.093800  0.937400  0.646900  1
  H  H282  1  0.593800  0.062600  0.353100  1
  H  H283  1  0.093800  0.437400  0.853100  1
  H  H284  1  0.593800  0.562600  0.146900  1
  H  H285  1  0.097400  0.887500  0.535700  1
  H  H286  1  0.597400  0.112500  0.464300  1
  H  H287  1  0.097400  0.387500  0.964300  1
  H  H288  1  0.597400  0.612500  0.035700  1
  H  H289  1  0.040600  0.913600  0.441800  1
  H  H290  1  0.540600  0.086400  0.558200  1
  H  H291  1  0.040600  0.413600  0.058200  1
  H  H292  1  0.540600  0.586400  0.941800  1
  H  H293  1  0.017900  0.007800  0.518000  1
  H  H294  1  0.517900  0.992200  0.482000  1
  H  H295  1  0.017900  0.507800  0.982000  1
  H  H296  1  0.517900  0.492200  0.018000  1
  H  H297  1  0.092600  0.850500  0.419300  1
  H  H298  1  0.592600  0.149500  0.580700  1
  H  H299  1  0.092600  0.350500  0.080700  1
  H  H300  1  0.592600  0.649500  0.919300  1
  H  H301  1  0.973400  0.940900  0.416500  1
  H  H302  1  0.473400  0.059100  0.583500  1
  H  H303  1  0.973400  0.440900  0.083500  1
  H  H304  1  0.473400  0.559100  0.916500  1
  H  H305  1  0.973000  0.088800  0.832100  1
  H  H306  1  0.473000  0.911200  0.167900  1
  H  H307  1  0.973000  0.588800  0.667900  1
  H  H308  1  0.473000  0.411200  0.332100  1
  H  H309  1  0.016100  0.049900  0.684800  1
  H  H310  1  0.516100  0.950100  0.315200  1
  H  H311  1  0.016100  0.549900  0.815200  1
  H  H312  1  0.516100  0.450100  0.184800  1
  H  H313  1  0.726100  0.889400  0.477600  1
  H  H314  1  0.226100  0.110600  0.522400  1
  H  H315  1  0.726100  0.389400  0.022400  1
  H  H316  1  0.226100  0.610600  0.977600  1
  H  H317  1  0.706700  0.929300  0.450800  1
  H  H318  1  0.206700  0.070700  0.549200  1
  H  H319  1  0.706700  0.429300  0.049200  1
  H  H320  1  0.206700  0.570700  0.950800  1
  H  H321  1  0.666300  0.891500  0.466200  1
  H  H322  1  0.166300  0.108500  0.533800  1
  H  H323  1  0.666300  0.391500  0.033800  1
  H  H324  1  0.166300  0.608500  0.966200  1
  H  H325  1  0.889300  0.791900  0.755600  1
  H  H326  1  0.389300  0.208100  0.244400  1
  H  H327  1  0.889300  0.291900  0.744400  1
  H  H328  1  0.389300  0.708100  0.255600  1
  H  H329  1  0.200100  0.235400  0.773900  1
  H  H330  1  0.700100  0.764600  0.226100  1
  H  H331  1  0.200100  0.735400  0.726100  1
  H  H332  1  0.700100  0.264600  0.273900  1
  H  H333  1  0.215900  0.180300  0.774500  1
  H  H334  1  0.715900  0.819700  0.225500  1
  H  H335  1  0.215900  0.680300  0.725500  1
  H  H336  1  0.715900  0.319700  0.274500  1
  H  H337  1  0.247800  0.217800  0.797400  1
  H  H338  1  0.747800  0.782200  0.202600  1
  H  H339  1  0.247800  0.717800  0.702600  1
  H  H340  1  0.747800  0.282200  0.297400  1
  H  H341  1  0.696300  0.047100  0.444300  1
  H  H342  1  0.196300  0.952900  0.555700  1
  H  H343  1  0.696300  0.547100  0.055700  1
  H  H344  1  0.196300  0.452900  0.944300  1
  H  H345  1  0.731900  0.088600  0.428600  1
  H  H346  1  0.231900  0.911400  0.571400  1
  H  H347  1  0.731900  0.588600  0.071400  1
  H  H348  1  0.231900  0.411400  0.928600  1
  H  H349  1  0.750300  0.060200  0.462500  1
  H  H350  1  0.250300  0.939800  0.537500  1
  H  H351  1  0.750300  0.560200  0.037500  1
  H  H352  1  0.250300  0.439800  0.962500  1
  H  H353  1  0.940100  0.817900  0.553200  1
  H  H354  1  0.440100  0.182100  0.446800  1
  H  H355  1  0.940100  0.317900  0.946800  1
  H  H356  1  0.440100  0.682100  0.053200  1
  H  H357  1  0.953500  0.813000  0.901000  1
  H  H358  1  0.453500  0.187000  0.099000  1
  H  H359  1  0.953500  0.313000  0.599000  1
  H  H360  1  0.453500  0.687000  0.401000  1
  H  H361  1  0.004900  0.821600  0.878400  1
  H  H362  1  0.504900  0.178400  0.121600  1
  H  H363  1  0.004900  0.321600  0.621600  1
  H  H364  1  0.504900  0.678400  0.378400  1
  H  H365  1  0.001300  0.776700  0.903900  1
  H  H366  1  0.501300  0.223300  0.096100  1
  H  H367  1  0.001300  0.276700  0.596100  1
  H  H368  1  0.501300  0.723300  0.403900  1
  H  H369  1  0.331400  0.097700  0.817600  1
  H  H370  1  0.831400  0.902300  0.182400  1
  H  H371  1  0.331400  0.597700  0.682400  1
  H  H372  1  0.831400  0.402300  0.317600  1
  H  H373  1  0.288400  0.087800  0.788500  1
  H  H374  1  0.788400  0.912200  0.211500  1
  H  H375  1  0.288400  0.587800  0.711500  1
  H  H376  1  0.788400  0.412200  0.288500  1
  H  H377  1  0.319900  0.044400  0.805200  1
  H  H378  1  0.819900  0.955600  0.194800  1
  H  H379  1  0.319900  0.544400  0.694800  1
  H  H380  1  0.819900  0.455600  0.305200  1
  H  H381  1  0.017200  0.286100  0.786800  1
  H  H382  1  0.517200  0.713900  0.213200  1
  H  H383  1  0.017200  0.786100  0.713200  1
  H  H384  1  0.517200  0.213900  0.286800  1
  H  H385  1  0.046000  0.237300  0.796200  1
  H  H386  1  0.546000  0.762700  0.203800  1
  H  H387  1  0.046000  0.737300  0.703800  1
  H  H388  1  0.546000  0.262700  0.296200  1
  H  H389  1  0.990200  0.236400  0.777800  1
  H  H390  1  0.490200  0.763600  0.222200  1
  H  H391  1  0.990200  0.736400  0.722200  1
  H  H392  1  0.490200  0.263600  0.277800  1
  H  H393  1  0.207400  0.860500  0.455000  1
  H  H394  1  0.707400  0.139500  0.545000  1
  H  H395  1  0.207400  0.360500  0.045000  1
  H  H396  1  0.707400  0.639500  0.955000  1
  H  H397  1  0.243700  0.819600  0.439200  1
  H  H398  1  0.743700  0.180400  0.560800  1
  H  H399  1  0.243700  0.319600  0.060800  1
  H  H400  1  0.743700  0.680400  0.939200  1
  H  H401  1  0.264700  0.873100  0.441700  1
  H  H402  1  0.764700  0.126900  0.558300  1
  H  H403  1  0.264700  0.373100  0.058300  1
  H  H404  1  0.764700  0.626900  0.941700  1
  H  H405  1  0.724400  0.129500  0.850700  1
  H  H406  1  0.224400  0.870500  0.149300  1
  H  H407  1  0.724400  0.629500  0.649300  1
  H  H408  1  0.224400  0.370500  0.350700  1
  H  H409  1  0.767000  0.156800  0.827900  1
  H  H410  1  0.267000  0.843200  0.172100  1
  H  H411  1  0.767000  0.656800  0.672100  1
  H  H412  1  0.267000  0.343200  0.327900  1
  H  H413  1  0.777800  0.103600  0.840800  1
  H  H414  1  0.277800  0.896400  0.159200  1
  H  H415  1  0.777800  0.603600  0.659200  1
  H  H416  1  0.277800  0.396400  0.340800  1
  H  H417  1  0.068900  0.205000  0.504100  1
  H  H418  1  0.568900  0.795000  0.495900  1
  H  H419  1  0.068900  0.705000  0.995900  1
  H  H420  1  0.568900  0.295000  0.004100  1
  H  H421  1  0.035000  0.120500  0.846300  1
  H  H422  1  0.535000  0.879500  0.153700  1
  H  H423  1  0.035000  0.620500  0.653700  1
  H  H424  1  0.535000  0.379500  0.346300  1
  H  H425  1  0.777700  0.842900  0.892100  1
  H  H426  1  0.277700  0.157100  0.107900  1
  H  H427  1  0.777700  0.342900  0.607900  1
  H  H428  1  0.277700  0.657100  0.392100  1
  H  H429  1  0.823300  0.813800  0.873500  1
  H  H430  1  0.323300  0.186200  0.126500  1
  H  H431  1  0.823300  0.313800  0.626500  1
  H  H432  1  0.323300  0.686200  0.373500  1
  H  H433  1  0.800500  0.860900  0.855700  1
  H  H434  1  0.300500  0.139100  0.144300  1
  H  H435  1  0.800500  0.360900  0.644300  1
  H  H436  1  0.300500  0.639100  0.355700  1
  H  H437  1  0.028700  0.323700  0.731600  1
  H  H438  1  0.528700  0.676300  0.268400  1
  H  H439  1  0.028700  0.823700  0.768400  1
  H  H440  1  0.528700  0.176300  0.231600  1
  H  H441  1  0.874700  0.140500  0.404300  1
  H  H442  1  0.374700  0.859500  0.595700  1
  H  H443  1  0.874700  0.640500  0.095700  1
  H  H444  1  0.374700  0.359500  0.904300  1
  H  H445  1  0.927900  0.134600  0.425600  1
  H  H446  1  0.427900  0.865400  0.574400  1
  H  H447  1  0.927900  0.634600  0.074400  1
  H  H448  1  0.427900  0.365400  0.925600  1
  H  H449  1  0.928900  0.154300  0.386500  1
  H  H450  1  0.428900  0.845700  0.613500  1
  H  H451  1  0.928900  0.654300  0.113500  1
  H  H452  1  0.428900  0.345700  0.886500  1
  H  H453  1  0.070700  0.759400  0.544300  1
  H  H454  1  0.570700  0.240600  0.455700  1
  H  H455  1  0.070700  0.259400  0.955700  1
  H  H456  1  0.570700  0.740600  0.044300  1
  H  H457  1  0.067900  0.652800  0.522700  1
  H  H458  1  0.567900  0.347200  0.477300  1
  H  H459  1  0.067900  0.152800  0.977300  1
  H  H460  1  0.567900  0.847200  0.022700  1
  H  H461  1  0.055300  0.605800  0.500800  1
  H  H462  1  0.555300  0.394200  0.499200  1
  H  H463  1  0.055300  0.105800  0.999200  1
  H  H464  1  0.555300  0.894200  0.000800  1
  H  H465  1  0.009200  0.634400  0.519400  1
  H  H466  1  0.509200  0.365600  0.480600  1
  H  H467  1  0.009200  0.134400  0.980600  1
  H  H468  1  0.509200  0.865600  0.019400  1
  H  H469  1  0.958900  0.799400  0.447600  1
  H  H470  1  0.458900  0.200600  0.552400  1
  H  H471  1  0.958900  0.299400  0.052400  1
  H  H472  1  0.458900  0.700600  0.947600  1
  H  H473  1  0.076100  0.624500  0.442900  1
  H  H474  1  0.576100  0.375500  0.557100  1
  H  H475  1  0.076100  0.124500  0.057100  1
  H  H476  1  0.576100  0.875500  0.942900  1
  H  H477  1  0.060900  0.675200  0.395700  1
  H  H478  1  0.560900  0.324800  0.604300  1
  H  H479  1  0.060900  0.175200  0.104300  1
  H  H480  1  0.560900  0.824800  0.895700  1
  H  H481  1  0.012100  0.744600  0.403400  1
  H  H482  1  0.512100  0.255400  0.596600  1
  H  H483  1  0.012100  0.244600  0.096600  1
  H  H484  1  0.512100  0.755400  0.903400  1
  H  H485  1  0.198700  0.727900  0.504300  1
  H  H486  1  0.698700  0.272100  0.495700  1
  H  H487  1  0.198700  0.227900  0.995700  1
  H  H488  1  0.698700  0.772100  0.004300  1
  H  H489  1  0.172900  0.678400  0.493100  1
  H  H490  1  0.672900  0.321600  0.506900  1
  H  H491  1  0.172900  0.178400  0.006900  1
  H  H492  1  0.672900  0.821600  0.993100  1
  H  H493  1  0.231900  0.689800  0.482800  1
  H  H494  1  0.731900  0.310200  0.517200  1
  H  H495  1  0.231900  0.189800  0.017200  1
  H  H496  1  0.731900  0.810200  0.982800  1
  H  H497  1  0.206100  0.677500  0.420000  1
  H  H498  1  0.706100  0.322500  0.580000  1
  H  H499  1  0.206100  0.177500  0.080000  1
  H  H500  1  0.706100  0.822500  0.920000  1
  H  H501  1  0.172900  0.719000  0.372200  1
  H  H502  1  0.672900  0.281000  0.627800  1
  H  H503  1  0.172900  0.219000  0.127800  1
  H  H504  1  0.672900  0.781000  0.872200  1
  H  H505  1  0.127400  0.790100  0.380500  1
  H  H506  1  0.627400  0.209900  0.619500  1
  H  H507  1  0.127400  0.290100  0.119500  1
  H  H508  1  0.627400  0.709900  0.880500  1
  H  H509  1  0.952400  0.947500  0.936000  1
  H  H510  1  0.452400  0.052500  0.064000  1
  H  H511  1  0.952400  0.447500  0.564000  1
  H  H512  1  0.452400  0.552500  0.436000  1
  H  H513  1  0.881800  0.922400  0.969700  1
  H  H514  1  0.381800  0.077600  0.030300  1
  H  H515  1  0.881800  0.422400  0.530300  1
  H  H516  1  0.381800  0.577600  0.469700  1
  H  H517  1  0.816000  0.876300  0.944700  1
  H  H518  1  0.316000  0.123700  0.055300  1
  H  H519  1  0.816000  0.376300  0.555300  1
  H  H520  1  0.316000  0.623700  0.444700  1
  H  H521  1  0.305400  0.114500  0.868900  1
  H  H522  1  0.805400  0.885500  0.131100  1
  H  H523  1  0.305400  0.614500  0.631100  1
  H  H524  1  0.805400  0.385500  0.368900  1
  H  H525  1  0.238200  0.114000  0.909900  1
  H  H526  1  0.738200  0.886000  0.090100  1
  H  H527  1  0.238200  0.614000  0.590100  1
  H  H528  1  0.738200  0.386000  0.409900  1
  H  H529  1  0.162100  0.070800  0.899000  1
  H  H530  1  0.662100  0.929200  0.101000  1
  H  H531  1  0.162100  0.570800  0.601000  1
  H  H532  1  0.662100  0.429200  0.399000  1
  H  H533  1  0.878400  0.657600  0.625500  1
  H  H534  1  0.378400  0.342400  0.374500  1
  H  H535  1  0.878400  0.157600  0.874500  1
  H  H536  1  0.378400  0.842400  0.125500  1
  H  H537  1  0.807800  0.620400  0.598500  1
  H  H538  1  0.307800  0.379600  0.401500  1
  H  H539  1  0.807800  0.120400  0.901500  1
  H  H540  1  0.307800  0.879600  0.098500  1
  H  H541  1  0.796200  0.627300  0.538400  1
  H  H542  1  0.296200  0.372700  0.461600  1
  H  H543  1  0.796200  0.127300  0.961600  1
  H  H544  1  0.296200  0.872700  0.038400  1
  H  H545  1  0.303700  0.811600  0.575400  1
  H  H546  1  0.803700  0.188400  0.424600  1
  H  H547  1  0.303700  0.311600  0.924600  1
  H  H548  1  0.803700  0.688400  0.075400  1
  H  H549  1  0.365800  0.831200  0.533300  1
  H  H550  1  0.865800  0.168800  0.466700  1
  H  H551  1  0.365800  0.331200  0.966700  1
  H  H552  1  0.865800  0.668800  0.033300  1
  H  H553  1  0.339800  0.848800  0.476500  1
  H  H554  1  0.839800  0.151200  0.523500  1
  H  H555  1  0.339800  0.348800  0.023500  1
  H  H556  1  0.839800  0.651200  0.976500  1
  H  H557  1  0.984200  0.701200  0.871300  1
  H  H558  1  0.484200  0.298800  0.128700  1
  H  H559  1  0.984200  0.201200  0.628700  1
  H  H560  1  0.484200  0.798800  0.371300  1
  H  H561  1  0.959300  0.664600  0.819200  1
  H  H562  1  0.459300  0.335400  0.180800  1
  H  H563  1  0.959300  0.164600  0.680800  1
  H  H564  1  0.459300  0.835400  0.319200  1
  H  H565  1  0.919000  0.709200  0.775500  1
  H  H566  1  0.419000  0.290800  0.224500  1
  H  H567  1  0.919000  0.209200  0.724500  1
  H  H568  1  0.419000  0.790800  0.275500  1
  H  H569  1  0.664000  0.151100  0.791100  1
  H  H570  1  0.164000  0.848900  0.208900  1
  H  H571  1  0.664000  0.651100  0.708900  1
  H  H572  1  0.164000  0.348900  0.291100  1
  H  H573  1  0.630000  0.114000  0.741600  1
  H  H574  1  0.130000  0.886000  0.258400  1
  H  H575  1  0.630000  0.614000  0.758400  1
  H  H576  1  0.130000  0.386000  0.241600  1
  H  H577  1  0.670500  0.046200  0.718900  1
  H  H578  1  0.170500  0.953800  0.281100  1
  H  H579  1  0.670500  0.546200  0.781100  1
  H  H580  1  0.170500  0.453800  0.218900  1
  H  H581  1  0.825400  0.922900  0.371200  1
  H  H582  1  0.325400  0.077100  0.628800  1
  H  H583  1  0.825400  0.422900  0.128800  1
  H  H584  1  0.325400  0.577100  0.871200  1
  H  H585  1  0.771000  0.975000  0.340700  1
  H  H586  1  0.271000  0.025000  0.659300  1
  H  H587  1  0.771000  0.475000  0.159300  1
  H  H588  1  0.271000  0.525000  0.840700  1
  H  H589  1  0.729500  0.037300  0.370000  1
  H  H590  1  0.229500  0.962700  0.630000  1
  H  H591  1  0.729500  0.537300  0.130000  1
  H  H592  1  0.229500  0.462700  0.870000  1
  H  H593  1  0.726800  0.980700  0.917300  1
  H  H594  1  0.226800  0.019300  0.082700  1
  H  H595  1  0.726800  0.480700  0.582700  1
  H  H596  1  0.226800  0.519300  0.417300  1
  H  H597  1  0.799200  0.005000  0.949600  1
  H  H598  1  0.299200  0.995000  0.050400  1
  H  H599  1  0.799200  0.505000  0.550400  1
  H  H600  1  0.299200  0.495000  0.449600  1
  H  H601  1  0.873800  0.032300  0.921100  1
  H  H602  1  0.373800  0.967700  0.078900  1
  H  H603  1  0.873800  0.532300  0.578900  1
  H  H604  1  0.373800  0.467700  0.421100  1
  H  H605  1  0.221900  0.229200  0.856400  1
  H  H606  1  0.721900  0.770800  0.143600  1
  H  H607  1  0.221900  0.729200  0.643600  1
  H  H608  1  0.721900  0.270800  0.356400  1
  H  H609  1  0.170400  0.199800  0.901800  1
  H  H610  1  0.670400  0.800200  0.098200  1
  H  H611  1  0.170400  0.699800  0.598200  1
  H  H612  1  0.670400  0.300200  0.401800  1
  H  H613  1  0.096300  0.154600  0.889300  1
  H  H614  1  0.596300  0.845400  0.110700  1
  H  H615  1  0.096300  0.654600  0.610700  1
  H  H616  1  0.596300  0.345400  0.389300  1
  H  H617  1  0.360000  0.882000  0.823700  1
  H  H618  1  0.860000  0.118000  0.176300  1
  H  H619  1  0.360000  0.382000  0.676300  1
  H  H620  1  0.860000  0.618000  0.323700  1
  H  H621  1  0.376400  0.863500  0.765500  1
  H  H622  1  0.876400  0.136500  0.234500  1
  H  H623  1  0.376400  0.363500  0.734500  1
  H  H624  1  0.876400  0.636500  0.265500  1
  H  H625  1  0.325700  0.897700  0.721500  1
  H  H626  1  0.825700  0.102300  0.278500  1
  H  H627  1  0.325700  0.397700  0.778500  1
  H  H628  1  0.825700  0.602300  0.221500  1
  H  H629  1  0.931200  0.961300  0.363000  1
  H  H630  1  0.431200  0.038700  0.637000  1
  H  H631  1  0.931200  0.461300  0.137000  1
  H  H632  1  0.431200  0.538700  0.863000  1
  H  H633  1  0.893100  0.016500  0.325300  1
  H  H634  1  0.393100  0.983500  0.674700  1
  H  H635  1  0.893100  0.516500  0.174700  1
  H  H636  1  0.393100  0.483500  0.825300  1
  H  H637  1  0.883700  0.095900  0.342600  1
  H  H638  1  0.383700  0.904100  0.657400  1
  H  H639  1  0.883700  0.595900  0.157400  1
  H  H640  1  0.383700  0.404100  0.842600  1
  C  C641  1  0.973100  0.933800  0.874200  1
  C  C642  1  0.473100  0.066200  0.125800  1
  C  C643  1  0.973100  0.433800  0.625800  1
  C  C644  1  0.473100  0.566200  0.374200  1
  C  C645  1  0.012500  0.927800  0.816600  1
  C  C646  1  0.512500  0.072200  0.183400  1
  C  C647  1  0.012500  0.427800  0.683400  1
  C  C648  1  0.512500  0.572200  0.316600  1
  C  C649  1  0.060200  0.956900  0.829600  1
  C  C650  1  0.560200  0.043100  0.170400  1
  C  C651  1  0.060200  0.456900  0.670400  1
  C  C652  1  0.560200  0.543100  0.329600  1
  C  C653  1  0.098900  0.964900  0.808600  1
  C  C654  1  0.598900  0.035100  0.191400  1
  C  C655  1  0.098900  0.464900  0.691400  1
  C  C656  1  0.598900  0.535100  0.308600  1
  C  C657  1  0.095000  0.946400  0.775100  1
  C  C658  1  0.595000  0.053600  0.224900  1
  C  C659  1  0.095000  0.446400  0.724900  1
  C  C660  1  0.595000  0.553600  0.275100  1
  C  C661  1  0.052500  0.921400  0.759700  1
  C  C662  1  0.552500  0.078600  0.240300  1
  C  C663  1  0.052500  0.421400  0.740300  1
  C  C664  1  0.552500  0.578600  0.259700  1
  C  C665  1  0.011600  0.915300  0.783900  1
  C  C666  1  0.511600  0.084700  0.216100  1
  C  C667  1  0.011600  0.415300  0.716100  1
  C  C668  1  0.511600  0.584700  0.283900  1
  C  C669  1  0.138900  0.019500  0.844600  1
  C  C670  1  0.638900  0.980500  0.155400  1
  C  C671  1  0.138900  0.519500  0.655400  1
  C  C672  1  0.638900  0.480500  0.344600  1
  C  C673  1  0.054900  0.898300  0.726200  1
  C  C674  1  0.554900  0.101700  0.273800  1
  C  C675  1  0.054900  0.398300  0.773800  1
  C  C676  1  0.554900  0.601700  0.226200  1
  C  C677  1  0.104100  0.875800  0.716000  1
  C  C678  1  0.604100  0.124200  0.284000  1
  C  C679  1  0.104100  0.375800  0.784000  1
  C  C680  1  0.604100  0.624200  0.216000  1
  C  C681  1  0.103400  0.850800  0.685000  1
  C  C682  1  0.603400  0.149200  0.315000  1
  C  C683  1  0.103400  0.350800  0.815000  1
  C  C684  1  0.603400  0.649200  0.185000  1
  C  C685  1  0.062600  0.845500  0.665100  1
  C  C686  1  0.562600  0.154500  0.334900  1
  C  C687  1  0.062600  0.345500  0.834900  1
  C  C688  1  0.562600  0.654500  0.165100  1
  C  C689  1  0.016100  0.866600  0.675100  1
  C  C690  1  0.516100  0.133400  0.324900  1
  C  C691  1  0.016100  0.366600  0.824900  1
  C  C692  1  0.516100  0.633400  0.175100  1
  C  C693  1  0.011200  0.892800  0.704900  1
  C  C694  1  0.511200  0.107200  0.295100  1
  C  C695  1  0.011200  0.392800  0.795100  1
  C  C696  1  0.511200  0.607200  0.204900  1
  C  C697  1  0.062900  0.815300  0.629600  1
  C  C698  1  0.562900  0.184700  0.370400  1
  C  C699  1  0.062900  0.315300  0.870400  1
  C  C700  1  0.562900  0.684700  0.129600  1
  C  C701  1  0.024300  0.789900  0.621000  1
  C  C702  1  0.524300  0.210100  0.379000  1
  C  C703  1  0.024300  0.289900  0.879000  1
  C  C704  1  0.524300  0.710100  0.121000  1
  C  C705  1  0.027400  0.763800  0.590400  1
  C  C706  1  0.527400  0.236200  0.409600  1
  C  C707  1  0.027400  0.263800  0.909600  1
  C  C708  1  0.527400  0.736200  0.090400  1
  C  C709  1  0.108600  0.797400  0.580900  1
  C  C710  1  0.608600  0.202600  0.419100  1
  C  C711  1  0.108600  0.297400  0.919100  1
  C  C712  1  0.608600  0.702600  0.080900  1
  C  C713  1  0.109900  0.820300  0.610600  1
  C  C714  1  0.609900  0.179700  0.389400  1
  C  C715  1  0.109900  0.320300  0.889400  1
  C  C716  1  0.609900  0.679700  0.110600  1
  C  C717  1  0.951000  0.712300  0.599300  1
  C  C718  1  0.451000  0.287700  0.400700  1
  C  C719  1  0.951000  0.212300  0.900700  1
  C  C720  1  0.451000  0.787700  0.099300  1
  C  C721  1  0.197800  0.806000  0.570300  1
  C  C722  1  0.697800  0.194000  0.429700  1
  C  C723  1  0.197800  0.306000  0.929700  1
  C  C724  1  0.697800  0.694000  0.070300  1
  C  C725  1  0.866000  0.878500  0.757700  1
  C  C726  1  0.366000  0.121500  0.242300  1
  C  C727  1  0.866000  0.378500  0.742300  1
  C  C728  1  0.366000  0.621500  0.257700  1
  C  C729  1  0.840400  0.917400  0.770700  1
  C  C730  1  0.340400  0.082600  0.229300  1
  C  C731  1  0.840400  0.417400  0.729300  1
  C  C732  1  0.340400  0.582600  0.270700  1
  C  C733  1  0.822300  0.950500  0.746900  1
  C  C734  1  0.322300  0.049500  0.253100  1
  C  C735  1  0.822300  0.450500  0.753100  1
  C  C736  1  0.322300  0.549500  0.246900  1
  C  C737  1  0.834400  0.945000  0.713100  1
  C  C738  1  0.334400  0.055000  0.286900  1
  C  C739  1  0.834400  0.445000  0.786900  1
  C  C740  1  0.334400  0.555000  0.213100  1
  C  C741  1  0.863800  0.905000  0.698300  1
  C  C742  1  0.363800  0.095000  0.301700  1
  C  C743  1  0.863800  0.405000  0.801700  1
  C  C744  1  0.363800  0.595000  0.198300  1
  C  C745  1  0.881400  0.873500  0.725900  1
  C  C746  1  0.381400  0.126500  0.274100  1
  C  C747  1  0.881400  0.373500  0.774100  1
  C  C748  1  0.381400  0.626500  0.225900  1
  C  C749  1  0.757800  0.005700  0.742800  1
  C  C750  1  0.257800  0.994300  0.257200  1
  C  C751  1  0.757800  0.505700  0.757200  1
  C  C752  1  0.257800  0.494300  0.242800  1
  C  C753  1  0.872700  0.899500  0.663900  1
  C  C754  1  0.372700  0.100500  0.336100  1
  C  C755  1  0.872700  0.399500  0.836100  1
  C  C756  1  0.372700  0.600500  0.163900  1
  C  C757  1  0.887900  0.937200  0.639100  1
  C  C758  1  0.387900  0.062800  0.360900  1
  C  C759  1  0.887900  0.437200  0.860900  1
  C  C760  1  0.387900  0.562800  0.139100  1
  C  C761  1  0.896100  0.929700  0.604900  1
  C  C762  1  0.396100  0.070300  0.395100  1
  C  C763  1  0.896100  0.429700  0.895100  1
  C  C764  1  0.396100  0.570300  0.104900  1
  C  C765  1  0.895800  0.884500  0.591800  1
  C  C766  1  0.395800  0.115500  0.408200  1
  C  C767  1  0.895800  0.384500  0.908200  1
  C  C768  1  0.395800  0.615500  0.091800  1
  C  C769  1  0.886000  0.846200  0.611800  1
  C  C770  1  0.386000  0.153800  0.388200  1
  C  C771  1  0.886000  0.346200  0.888200  1
  C  C772  1  0.386000  0.653800  0.111800  1
  C  C773  1  0.872900  0.851300  0.647400  1
  C  C774  1  0.372900  0.148700  0.352600  1
  C  C775  1  0.872900  0.351300  0.852600  1
  C  C776  1  0.372900  0.648700  0.147400  1
  C  C777  1  0.903200  0.878200  0.551700  1
  C  C778  1  0.403200  0.121800  0.448300  1
  C  C779  1  0.903200  0.378200  0.948300  1
  C  C780  1  0.403200  0.621800  0.051700  1
  C  C781  1  0.879300  0.910700  0.530800  1
  C  C782  1  0.379300  0.089300  0.469200  1
  C  C783  1  0.879300  0.410700  0.969200  1
  C  C784  1  0.379300  0.589300  0.030800  1
  C  C785  1  0.879500  0.898600  0.492300  1
  C  C786  1  0.379500  0.101400  0.507700  1
  C  C787  1  0.879500  0.398600  0.007700  1
  C  C788  1  0.379500  0.601400  0.992300  1
  C  C789  1  0.904600  0.858300  0.480700  1
  C  C790  1  0.404600  0.141700  0.519300  1
  C  C791  1  0.904600  0.358300  0.019300  1
  C  C792  1  0.404600  0.641700  0.980700  1
  C  C793  1  0.926900  0.830000  0.503800  1
  C  C794  1  0.426900  0.170000  0.496200  1
  C  C795  1  0.926900  0.330000  0.996200  1
  C  C796  1  0.426900  0.670000  0.003800  1
  C  C797  1  0.858800  0.668000  0.490000  1
  C  C798  1  0.358800  0.332000  0.510000  1
  C  C799  1  0.858800  0.168000  0.010000  1
  C  C800  1  0.358800  0.832000  0.990000  1
  C  C801  1  0.848000  0.922600  0.437800  1
  C  C802  1  0.348000  0.077400  0.562200  1
  C  C803  1  0.848000  0.422600  0.062200  1
  C  C804  1  0.348000  0.577400  0.937800  1
  C  C805  1  0.716200  0.976500  0.848900  1
  C  C806  1  0.216200  0.023500  0.151100  1
  C  C807  1  0.716200  0.476500  0.651100  1
  C  C808  1  0.216200  0.523500  0.348900  1
  C  C809  1  0.892000  0.038900  0.850800  1
  C  C810  1  0.392000  0.961100  0.149200  1
  C  C811  1  0.892000  0.538900  0.649200  1
  C  C812  1  0.392000  0.461100  0.350800  1
  C  C813  1  0.921200  0.062900  0.795500  1
  C  C814  1  0.421200  0.937100  0.204500  1
  C  C815  1  0.921200  0.562900  0.704500  1
  C  C816  1  0.421200  0.437100  0.295500  1
  C  C817  1  0.999800  0.097700  0.785600  1
  C  C818  1  0.499800  0.902300  0.214400  1
  C  C819  1  0.999800  0.597700  0.714400  1
  C  C820  1  0.499800  0.402300  0.285600  1
  C  C821  1  0.996000  0.090400  0.748900  1
  C  C822  1  0.496000  0.909600  0.251100  1
  C  C823  1  0.996000  0.590400  0.751100  1
  C  C824  1  0.496000  0.409600  0.248900  1
  C  C825  1  0.950300  0.068400  0.736600  1
  C  C826  1  0.450300  0.931600  0.263400  1
  C  C827  1  0.950300  0.568400  0.763400  1
  C  C828  1  0.450300  0.431600  0.236600  1
  C  C829  1  0.914200  0.056100  0.760600  1
  C  C830  1  0.414200  0.943900  0.239400  1
  C  C831  1  0.914200  0.556100  0.739400  1
  C  C832  1  0.414200  0.443900  0.260600  1
  C  C833  1  0.941500  0.066000  0.698400  1
  C  C834  1  0.441500  0.934000  0.301600  1
  C  C835  1  0.941500  0.566000  0.801600  1
  C  C836  1  0.441500  0.434000  0.198400  1
  C  C837  1  0.890400  0.076000  0.682900  1
  C  C838  1  0.390400  0.924000  0.317100  1
  C  C839  1  0.890400  0.576000  0.817100  1
  C  C840  1  0.390400  0.424000  0.182900  1
  C  C841  1  0.881800  0.077500  0.648800  1
  C  C842  1  0.381800  0.922500  0.351200  1
  C  C843  1  0.881800  0.577500  0.851200  1
  C  C844  1  0.381800  0.422500  0.148800  1
  C  C845  1  0.922900  0.067700  0.626400  1
  C  C846  1  0.422900  0.932300  0.373600  1
  C  C847  1  0.922900  0.567700  0.873600  1
  C  C848  1  0.422900  0.432300  0.126400  1
  C  C849  1  0.971100  0.059200  0.638800  1
  C  C850  1  0.471100  0.940800  0.361200  1
  C  C851  1  0.971100  0.559200  0.861200  1
  C  C852  1  0.471100  0.440800  0.138800  1
  C  C853  1  0.914200  0.067200  0.587800  1
  C  C854  1  0.414200  0.932800  0.412200  1
  C  C855  1  0.914200  0.567200  0.912200  1
  C  C856  1  0.414200  0.432800  0.087800  1
  C  C857  1  0.948500  0.085200  0.565400  1
  C  C858  1  0.448500  0.914800  0.434600  1
  C  C859  1  0.948500  0.585200  0.934600  1
  C  C860  1  0.448500  0.414800  0.065400  1
  C  C861  1  0.937300  0.082300  0.530300  1
  C  C862  1  0.437300  0.917700  0.469700  1
  C  C863  1  0.937300  0.582300  0.969700  1
  C  C864  1  0.437300  0.417700  0.030300  1
  C  C865  1  0.892800  0.061100  0.518300  1
  C  C866  1  0.392800  0.938900  0.481700  1
  C  C867  1  0.892800  0.561100  0.981700  1
  C  C868  1  0.392800  0.438900  0.018300  1
  C  C869  1  0.864900  0.047700  0.576400  1
  C  C870  1  0.364900  0.952300  0.423600  1
  C  C871  1  0.864900  0.547700  0.923600  1
  C  C872  1  0.364900  0.452300  0.076400  1
  C  C873  1  0.000000  0.133800  0.508100  1
  C  C874  1  0.500000  0.866200  0.491900  1
  C  C875  1  0.000000  0.633800  0.991900  1
  C  C876  1  0.500000  0.366200  0.008100  1
  C  C877  1  0.070900  0.131600  0.423400  1
  C  C878  1  0.570900  0.868400  0.576600  1
  C  C879  1  0.070900  0.631600  0.076600  1
  C  C880  1  0.570900  0.368400  0.923400  1
  C  C881  1  0.104900  0.168800  0.427400  1
  C  C882  1  0.604900  0.831200  0.572600  1
  C  C883  1  0.104900  0.668800  0.072600  1
  C  C884  1  0.604900  0.331200  0.927400  1
  C  C885  1  0.106400  0.189700  0.456200  1
  C  C886  1  0.606400  0.810300  0.543800  1
  C  C887  1  0.106400  0.689700  0.043800  1
  C  C888  1  0.606400  0.310300  0.956200  1
  C  C889  1  0.065800  0.102200  0.392000  1
  C  C890  1  0.565800  0.897800  0.608000  1
  C  C891  1  0.065800  0.602200  0.108000  1
  C  C892  1  0.565800  0.397800  0.892000  1
  C  C893  1  0.766600  0.025400  0.548300  1
  C  C894  1  0.266600  0.974600  0.451700  1
  C  C895  1  0.766600  0.525400  0.951700  1
  C  C896  1  0.266600  0.474600  0.048300  1
  C  C897  1  0.722500  0.999300  0.538800  1
  C  C898  1  0.222500  0.000700  0.461200  1
  C  C899  1  0.722500  0.499300  0.961200  1
  C  C900  1  0.222500  0.500700  0.038800  1
  C  C901  1  0.686700  0.941100  0.499100  1
  C  C902  1  0.186700  0.058900  0.500900  1
  C  C903  1  0.686700  0.441100  0.000900  1
  C  C904  1  0.186700  0.558900  0.999100  1
  C  C905  1  0.640900  0.949900  0.518000  1
  C  C906  1  0.140900  0.050100  0.482000  1
  C  C907  1  0.640900  0.449900  0.982000  1
  C  C908  1  0.140900  0.550100  0.018000  1
  C  C909  1  0.633400  0.977600  0.543600  1
  C  C910  1  0.133400  0.022400  0.456400  1
  C  C911  1  0.633400  0.477600  0.956400  1
  C  C912  1  0.133400  0.522400  0.043600  1
  C  C913  1  0.674800  0.005600  0.556200  1
  C  C914  1  0.174800  0.994400  0.443800  1
  C  C915  1  0.674800  0.505600  0.943800  1
  C  C916  1  0.174800  0.494400  0.056200  1
  C  C917  1  0.093100  0.212400  0.705600  1
  C  C918  1  0.593100  0.787600  0.294400  1
  C  C919  1  0.093100  0.712400  0.794400  1
  C  C920  1  0.593100  0.287600  0.205600  1
  C  C921  1  0.047400  0.253500  0.746800  1
  C  C922  1  0.547400  0.746500  0.253200  1
  C  C923  1  0.047400  0.753500  0.753200  1
  C  C924  1  0.547400  0.246500  0.246800  1
  C  C925  1  0.066400  0.291100  0.693700  1
  C  C926  1  0.566400  0.708900  0.306300  1
  C  C927  1  0.066400  0.791100  0.806300  1
  C  C928  1  0.566400  0.208900  0.193700  1
  C  C929  1  0.090600  0.254700  0.676900  1
  C  C930  1  0.590600  0.745300  0.323100  1
  C  C931  1  0.090600  0.754700  0.823100  1
  C  C932  1  0.590600  0.245300  0.176900  1
  C  C933  1  0.122500  0.168200  0.692300  1
  C  C934  1  0.622500  0.831800  0.307700  1
  C  C935  1  0.122500  0.668200  0.807700  1
  C  C936  1  0.622500  0.331800  0.192300  1
  C  C937  1  0.138800  0.090500  0.703200  1
  C  C938  1  0.638800  0.909500  0.296800  1
  C  C939  1  0.138800  0.590500  0.796800  1
  C  C940  1  0.638800  0.409500  0.203200  1
  C  C941  1  0.171700  0.061500  0.725200  1
  C  C942  1  0.671700  0.938500  0.274800  1
  C  C943  1  0.171700  0.561500  0.774800  1
  C  C944  1  0.671700  0.438500  0.225200  1
  C  C945  1  0.181400  0.016700  0.715300  1
  C  C946  1  0.681400  0.983300  0.284700  1
  C  C947  1  0.181400  0.516700  0.784700  1
  C  C948  1  0.681400  0.483300  0.215300  1
  C  C949  1  0.165800  0.996400  0.685400  1
  C  C950  1  0.665800  0.003600  0.314600  1
  C  C951  1  0.165800  0.496400  0.814600  1
  C  C952  1  0.665800  0.503600  0.185400  1
  C  C953  1  0.135900  0.025400  0.663900  1
  C  C954  1  0.635900  0.974600  0.336100  1
  C  C955  1  0.135900  0.525400  0.836100  1
  C  C956  1  0.635900  0.474600  0.163900  1
  C  C957  1  0.122100  0.071400  0.671500  1
  C  C958  1  0.622100  0.928600  0.328500  1
  C  C959  1  0.122100  0.571400  0.828500  1
  C  C960  1  0.622100  0.428600  0.171500  1
  C  C961  1  0.249400  0.959300  0.730200  1
  C  C962  1  0.749400  0.040700  0.269800  1
  C  C963  1  0.249400  0.459300  0.769800  1
  C  C964  1  0.749400  0.540700  0.230200  1
  C  C965  1  0.285900  0.931500  0.850600  1
  C  C966  1  0.785900  0.068500  0.149400  1
  C  C967  1  0.285900  0.431500  0.649400  1
  C  C968  1  0.785900  0.568500  0.350600  1
  C  C969  1  0.114800  0.006600  0.631000  1
  C  C970  1  0.614800  0.993400  0.369000  1
  C  C971  1  0.114800  0.506600  0.869000  1
  C  C972  1  0.614800  0.493400  0.131000  1
  C  C973  1  0.107500  0.037700  0.602400  1
  C  C974  1  0.607500  0.962300  0.397600  1
  C  C975  1  0.107500  0.537700  0.897600  1
  C  C976  1  0.607500  0.462300  0.102400  1
  C  C977  1  0.088200  0.016800  0.569800  1
  C  C978  1  0.588200  0.983200  0.430200  1
  C  C979  1  0.088200  0.516800  0.930200  1
  C  C980  1  0.588200  0.483200  0.069800  1
  C  C981  1  0.074500  0.970200  0.565700  1
  C  C982  1  0.574500  0.029800  0.434300  1
  C  C983  1  0.074500  0.470200  0.934300  1
  C  C984  1  0.574500  0.529800  0.065700  1
  C  C985  1  0.081300  0.943900  0.594700  1
  C  C986  1  0.581300  0.056100  0.405300  1
  C  C987  1  0.081300  0.443900  0.905300  1
  C  C988  1  0.581300  0.556100  0.094700  1
  C  C989  1  0.095900  0.958200  0.627500  1
  C  C990  1  0.595900  0.041800  0.372500  1
  C  C991  1  0.095900  0.458200  0.872500  1
  C  C992  1  0.595900  0.541800  0.127500  1
  C  C993  1  0.063500  0.953800  0.531300  1
  C  C994  1  0.563500  0.046200  0.468700  1
  C  C995  1  0.063500  0.453800  0.968700  1
  C  C996  1  0.563500  0.546200  0.031300  1
  C  C997  1  0.080100  0.907800  0.519700  1
  C  C998  1  0.580100  0.092200  0.480300  1
  C  C999  1  0.080100  0.407800  0.980300  1
  C  C1000  1  0.580100  0.592200  0.019700  1
  C  C1001  1  0.072000  0.892100  0.486600  1
  C  C1002  1  0.572000  0.107900  0.513400  1
  C  C1003  1  0.072000  0.392100  0.013400  1
  C  C1004  1  0.572000  0.607900  0.986600  1
  C  C1005  1  0.043200  0.922600  0.465600  1
  C  C1006  1  0.543200  0.077400  0.534400  1
  C  C1007  1  0.043200  0.422600  0.034400  1
  C  C1008  1  0.543200  0.577400  0.965600  1
  C  C1009  1  0.019400  0.962100  0.474300  1
  C  C1010  1  0.519400  0.037900  0.525700  1
  C  C1011  1  0.019400  0.462100  0.025700  1
  C  C1012  1  0.519400  0.537900  0.974300  1
  C  C1013  1  0.032300  0.978700  0.510000  1
  C  C1014  1  0.532300  0.021300  0.490000  1
  C  C1015  1  0.032300  0.478700  0.990000  1
  C  C1016  1  0.532300  0.521300  0.010000  1
  C  C1017  1  0.106200  0.833400  0.438600  1
  C  C1018  1  0.606200  0.166600  0.561400  1
  C  C1019  1  0.106200  0.333400  0.061400  1
  C  C1020  1  0.606200  0.666600  0.938600  1
  C  C1021  1  0.971200  0.973600  0.422600  1
  C  C1022  1  0.471200  0.026400  0.577400  1
  C  C1023  1  0.971200  0.473600  0.077400  1
  C  C1024  1  0.471200  0.526400  0.922600  1
  C  C1025  1  0.967100  0.084500  0.808000  1
  C  C1026  1  0.467100  0.915500  0.192000  1
  C  C1027  1  0.967100  0.584500  0.692000  1
  C  C1028  1  0.467100  0.415500  0.308000  1
  C  C1029  1  0.982300  0.057100  0.676300  1
  C  C1030  1  0.482300  0.942900  0.323700  1
  C  C1031  1  0.982300  0.557100  0.823700  1
  C  C1032  1  0.482300  0.442900  0.176300  1
  C  C1033  1  0.851900  0.046000  0.543400  1
  C  C1034  1  0.351900  0.954000  0.456600  1
  C  C1035  1  0.851900  0.546000  0.956600  1
  C  C1036  1  0.351900  0.454000  0.043400  1
  C  C1037  1  0.036200  0.146900  0.480300  1
  C  C1038  1  0.536200  0.853100  0.519700  1
  C  C1039  1  0.036200  0.646900  0.019700  1
  C  C1040  1  0.536200  0.353100  0.980300  1
  C  C1041  1  0.697200  0.910600  0.471400  1
  C  C1042  1  0.197200  0.089400  0.528600  1
  C  C1043  1  0.697200  0.410600  0.028600  1
  C  C1044  1  0.197200  0.589400  0.971400  1
  C  C1045  1  0.898300  0.803300  0.778000  1
  C  C1046  1  0.398300  0.196700  0.222000  1
  C  C1047  1  0.898300  0.303300  0.722000  1
  C  C1048  1  0.398300  0.696700  0.278000  1
  C  C1049  1  0.213300  0.209400  0.788400  1
  C  C1050  1  0.713300  0.790600  0.211600  1
  C  C1051  1  0.213300  0.709400  0.711600  1
  C  C1052  1  0.713300  0.290600  0.288400  1
  C  C1053  1  0.732100  0.057500  0.440200  1
  C  C1054  1  0.232100  0.942500  0.559800  1
  C  C1055  1  0.732100  0.557500  0.059800  1
  C  C1056  1  0.232100  0.442500  0.940200  1
  C  C1057  1  0.924700  0.840200  0.537700  1
  C  C1058  1  0.424700  0.159800  0.462300  1
  C  C1059  1  0.924700  0.340200  0.962300  1
  C  C1060  1  0.424700  0.659800  0.037700  1
  C  C1061  1  0.981700  0.797400  0.888100  1
  C  C1062  1  0.481700  0.202600  0.111900  1
  C  C1063  1  0.981700  0.297400  0.611900  1
  C  C1064  1  0.481700  0.702600  0.388100  1
  C  C1065  1  0.304400  0.075600  0.809800  1
  C  C1066  1  0.804400  0.924400  0.190200  1
  C  C1067  1  0.304400  0.575600  0.690200  1
  C  C1068  1  0.804400  0.424400  0.309800  1
  C  C1069  1  0.023400  0.253300  0.779300  1
  C  C1070  1  0.523400  0.746700  0.220700  1
  C  C1071  1  0.023400  0.753300  0.720700  1
  C  C1072  1  0.523400  0.246700  0.279300  1
  C  C1073  1  0.243200  0.848900  0.453000  1
  C  C1074  1  0.743200  0.151100  0.547000  1
  C  C1075  1  0.243200  0.348900  0.047000  1
  C  C1076  1  0.743200  0.651100  0.953000  1
  C  C1077  1  0.751100  0.125800  0.832700  1
  C  C1078  1  0.251100  0.874200  0.167300  1
  C  C1079  1  0.751100  0.625800  0.667300  1
  C  C1080  1  0.251100  0.374200  0.332700  1
  C  C1081  1  0.069700  0.184400  0.484500  1
  C  C1082  1  0.569700  0.815600  0.515500  1
  C  C1083  1  0.069700  0.684400  0.015500  1
  C  C1084  1  0.569700  0.315600  0.984500  1
  C  C1085  1  0.057900  0.131100  0.828500  1
  C  C1086  1  0.557900  0.868900  0.171500  1
  C  C1087  1  0.057900  0.631100  0.671500  1
  C  C1088  1  0.557900  0.368900  0.328500  1
  C  C1089  1  0.809100  0.845600  0.877900  1
  C  C1090  1  0.309100  0.154400  0.122100  1
  C  C1091  1  0.809100  0.345600  0.622100  1
  C  C1092  1  0.309100  0.654400  0.377900  1
  C  C1093  1  0.045000  0.295100  0.724400  1
  C  C1094  1  0.545000  0.704900  0.275600  1
  C  C1095  1  0.045000  0.795100  0.775600  1
  C  C1096  1  0.545000  0.204900  0.224400  1
  C  C1097  1  0.911700  0.132300  0.402600  1
  C  C1098  1  0.411700  0.867700  0.597400  1
  C  C1099  1  0.911700  0.632300  0.097400  1
  C  C1100  1  0.411700  0.367700  0.902600  1
  C  C1101  1  0.069900  0.771500  0.567300  1
  C  C1102  1  0.569900  0.228500  0.432700  1
  C  C1103  1  0.069900  0.271500  0.932700  1
  C  C1104  1  0.569900  0.728500  0.067300  1
  C  C1105  1  0.042600  0.637500  0.507300  1
  C  C1106  1  0.542600  0.362500  0.492700  1
  C  C1107  1  0.042600  0.137500  0.992700  1
  C  C1108  1  0.542600  0.862500  0.007300  1
  C  C1109  1  0.967200  0.776600  0.465000  1
  C  C1110  1  0.467200  0.223400  0.535000  1
  C  C1111  1  0.967200  0.276600  0.035000  1
  C  C1112  1  0.467200  0.723400  0.965000  1
  C  C1113  1  0.036300  0.663800  0.478600  1
  C  C1114  1  0.536300  0.336200  0.521400  1
  C  C1115  1  0.036300  0.163800  0.021400  1
  C  C1116  1  0.536300  0.836200  0.978600  1
  C  C1117  1  0.056300  0.652700  0.446000  1
  C  C1118  1  0.556300  0.347300  0.554000  1
  C  C1119  1  0.056300  0.152700  0.054000  1
  C  C1120  1  0.556300  0.847300  0.946000  1
  C  C1121  1  0.047300  0.682800  0.418000  1
  C  C1122  1  0.547300  0.317200  0.582000  1
  C  C1123  1  0.047300  0.182800  0.082000  1
  C  C1124  1  0.547300  0.817200  0.918000  1
  C  C1125  1  0.018300  0.724100  0.422500  1
  C  C1126  1  0.518300  0.275900  0.577500  1
  C  C1127  1  0.018300  0.224100  0.077500  1
  C  C1128  1  0.518300  0.775900  0.922500  1
  C  C1129  1  0.998300  0.735200  0.455100  1
  C  C1130  1  0.498300  0.264800  0.544900  1
  C  C1131  1  0.998300  0.235200  0.044900  1
  C  C1132  1  0.498300  0.764800  0.955100  1
  C  C1133  1  0.197200  0.703500  0.486100  1
  C  C1134  1  0.697200  0.296500  0.513900  1
  C  C1135  1  0.197200  0.203500  0.013900  1
  C  C1136  1  0.697200  0.796500  0.986100  1
  C  C1137  1  0.180100  0.724000  0.456800  1
  C  C1138  1  0.680100  0.276000  0.543200  1
  C  C1139  1  0.180100  0.224000  0.043200  1
  C  C1140  1  0.680100  0.776000  0.956800  1
  C  C1141  1  0.187500  0.706400  0.423400  1
  C  C1142  1  0.687500  0.293600  0.576600  1
  C  C1143  1  0.187500  0.206400  0.076600  1
  C  C1144  1  0.687500  0.793600  0.923400  1
  C  C1145  1  0.167900  0.731000  0.395000  1
  C  C1146  1  0.667900  0.269000  0.605000  1
  C  C1147  1  0.167900  0.231000  0.105000  1
  C  C1148  1  0.667900  0.769000  0.895000  1
  C  C1149  1  0.140800  0.773300  0.400000  1
  C  C1150  1  0.640800  0.226700  0.600000  1
  C  C1151  1  0.140800  0.273300  0.100000  1
  C  C1152  1  0.640800  0.726700  0.900000  1
  C  C1153  1  0.133400  0.790900  0.433400  1
  C  C1154  1  0.633400  0.209100  0.566600  1
  C  C1155  1  0.133400  0.290900  0.066600  1
  C  C1156  1  0.633400  0.709100  0.933400  1
  C  C1157  1  0.928500  0.916200  0.890900  1
  C  C1158  1  0.428500  0.083800  0.109100  1
  C  C1159  1  0.928500  0.416200  0.609100  1
  C  C1160  1  0.428500  0.583800  0.390900  1
  C  C1161  1  0.925700  0.928700  0.925800  1
  C  C1162  1  0.425700  0.071300  0.074200  1
  C  C1163  1  0.925700  0.428700  0.574200  1
  C  C1164  1  0.425700  0.571300  0.425800  1
  C  C1165  1  0.883800  0.913900  0.945900  1
  C  C1166  1  0.383800  0.086100  0.054100  1
  C  C1167  1  0.883800  0.413900  0.554100  1
  C  C1168  1  0.383800  0.586100  0.445900  1
  C  C1169  1  0.844600  0.886500  0.931000  1
  C  C1170  1  0.344600  0.113500  0.069000  1
  C  C1171  1  0.844600  0.386500  0.569000  1
  C  C1172  1  0.344600  0.613500  0.431000  1
  C  C1173  1  0.847400  0.873900  0.896100  1
  C  C1174  1  0.347400  0.126100  0.103900  1
  C  C1175  1  0.847400  0.373900  0.603900  1
  C  C1176  1  0.347400  0.626100  0.396100  1
  C  C1177  1  0.269300  0.071600  0.833700  1
  C  C1178  1  0.769300  0.928400  0.166300  1
  C  C1179  1  0.269300  0.571600  0.666300  1
  C  C1180  1  0.769300  0.428400  0.333700  1
  C  C1181  1  0.274500  0.097000  0.864500  1
  C  C1182  1  0.774500  0.903000  0.135500  1
  C  C1183  1  0.274500  0.597000  0.635500  1
  C  C1184  1  0.774500  0.403000  0.364500  1
  C  C1185  1  0.234600  0.096700  0.888900  1
  C  C1186  1  0.734600  0.903300  0.111100  1
  C  C1187  1  0.234600  0.596700  0.611100  1
  C  C1188  1  0.734600  0.403300  0.388900  1
  C  C1189  1  0.189400  0.071000  0.882400  1
  C  C1190  1  0.689400  0.929000  0.117600  1
  C  C1191  1  0.189400  0.571000  0.617600  1
  C  C1192  1  0.689400  0.429000  0.382400  1
  C  C1193  1  0.184200  0.045600  0.851600  1
  C  C1194  1  0.684200  0.954400  0.148400  1
  C  C1195  1  0.184200  0.545600  0.648400  1
  C  C1196  1  0.684200  0.454400  0.351600  1
  C  C1197  1  0.908900  0.686600  0.581400  1
  C  C1198  1  0.408900  0.313400  0.418600  1
  C  C1199  1  0.908900  0.186600  0.918600  1
  C  C1200  1  0.408900  0.813400  0.081400  1
  C  C1201  1  0.873700  0.660400  0.601100  1
  C  C1202  1  0.373700  0.339600  0.398900  1
  C  C1203  1  0.873700  0.160400  0.898900  1
  C  C1204  1  0.373700  0.839600  0.101100  1
  C  C1205  1  0.831800  0.638300  0.585000  1
  C  C1206  1  0.331800  0.361700  0.415000  1
  C  C1207  1  0.831800  0.138300  0.915000  1
  C  C1208  1  0.331800  0.861700  0.085000  1
  C  C1209  1  0.824900  0.642400  0.549300  1
  C  C1210  1  0.324900  0.357600  0.450700  1
  C  C1211  1  0.824900  0.142400  0.950700  1
  C  C1212  1  0.324900  0.857600  0.049300  1
  C  C1213  1  0.860000  0.668600  0.529600  1
  C  C1214  1  0.360000  0.331400  0.470400  1
  C  C1215  1  0.860000  0.168600  0.970400  1
  C  C1216  1  0.360000  0.831400  0.029600  1
  C  C1217  1  0.240700  0.817700  0.543500  1
  C  C1218  1  0.740700  0.182300  0.456500  1
  C  C1219  1  0.240700  0.317700  0.956500  1
  C  C1220  1  0.740700  0.682300  0.043500  1
  C  C1221  1  0.293100  0.818800  0.552300  1
  C  C1222  1  0.793100  0.181200  0.447700  1
  C  C1223  1  0.293100  0.318800  0.947700  1
  C  C1224  1  0.793100  0.681200  0.052300  1
  C  C1225  1  0.330000  0.830400  0.527300  1
  C  C1226  1  0.830000  0.169600  0.472700  1
  C  C1227  1  0.330000  0.330400  0.972700  1
  C  C1228  1  0.830000  0.669600  0.027300  1
  C  C1229  1  0.314500  0.840900  0.493600  1
  C  C1230  1  0.814500  0.159100  0.506400  1
  C  C1231  1  0.314500  0.340900  0.006400  1
  C  C1232  1  0.814500  0.659100  0.993600  1
  C  C1233  1  0.262100  0.839800  0.484800  1
  C  C1234  1  0.762100  0.160200  0.515200  1
  C  C1235  1  0.262100  0.339800  0.015200  1
  C  C1236  1  0.762100  0.660200  0.984800  1
  C  C1237  1  0.919800  0.772300  0.801600  1
  C  C1238  1  0.419800  0.227700  0.198400  1
  C  C1239  1  0.919800  0.272300  0.698400  1
  C  C1240  1  0.419800  0.727700  0.301600  1
  C  C1241  1  0.958600  0.767500  0.858520  1
  C  C1242  1  0.458600  0.232500  0.141480  1
  C  C1243  1  0.958600  0.267500  0.641480  1
  C  C1244  1  0.458600  0.732500  0.358520  1
  C  C1245  1  0.967800  0.719300  0.853500  1
  C  C1246  1  0.467800  0.280700  0.146500  1
  C  C1247  1  0.967800  0.219300  0.646500  1
  C  C1248  1  0.467800  0.780700  0.353500  1
  C  C1249  1  0.953000  0.697500  0.822600  1
  C  C1250  1  0.453000  0.302500  0.177400  1
  C  C1251  1  0.953000  0.197500  0.677400  1
  C  C1252  1  0.453000  0.802500  0.322600  1
  C  C1253  1  0.929000  0.724100  0.796700  1
  C  C1254  1  0.429000  0.275900  0.203300  1
  C  C1255  1  0.929000  0.224100  0.703300  1
  C  C1256  1  0.429000  0.775900  0.296700  1
  C  C1257  1  0.728500  0.043100  0.754900  1
  C  C1258  1  0.228500  0.956900  0.245100  1
  C  C1259  1  0.728500  0.543100  0.745100  1
  C  C1260  1  0.228500  0.456900  0.254900  1
  C  C1261  1  0.724700  0.105400  0.797800  1
  C  C1262  1  0.224700  0.894600  0.202200  1
  C  C1263  1  0.724700  0.605400  0.702200  1
  C  C1264  1  0.224700  0.394600  0.297800  1
  C  C1265  1  0.680400  0.123600  0.781900  1
  C  C1266  1  0.180400  0.876400  0.218100  1
  C  C1267  1  0.680400  0.623600  0.718100  1
  C  C1268  1  0.180400  0.376400  0.281900  1
  C  C1269  1  0.660200  0.101600  0.752500  1
  C  C1270  1  0.160200  0.898400  0.247500  1
  C  C1271  1  0.660200  0.601600  0.747500  1
  C  C1272  1  0.160200  0.398400  0.252500  1
  C  C1273  1  0.684300  0.061300  0.739000  1
  C  C1274  1  0.184300  0.938700  0.261000  1
  C  C1275  1  0.684300  0.561300  0.761000  1
  C  C1276  1  0.184300  0.438700  0.239000  1
  C  C1277  1  0.816200  0.954300  0.418540  1
  C  C1278  1  0.316200  0.045700  0.581460  1
  C  C1279  1  0.816200  0.454300  0.081460  1
  C  C1280  1  0.316200  0.545700  0.918540  1
  C  C1281  1  0.808500  0.948200  0.383050  1
  C  C1282  1  0.308500  0.051800  0.616950  1
  C  C1283  1  0.808500  0.448200  0.116950  1
  C  C1284  1  0.308500  0.551800  0.883050  1
  C  C1285  1  0.776200  0.979100  0.364940  1
  C  C1286  1  0.276200  0.020900  0.635060  1
  C  C1287  1  0.776200  0.479100  0.135060  1
  C  C1288  1  0.276200  0.520900  0.864940  1
  C  C1289  1  0.751600  0.016100  0.382330  1
  C  C1290  1  0.251600  0.983900  0.617670  1
  C  C1291  1  0.751600  0.516100  0.117670  1
  C  C1292  1  0.251600  0.483900  0.882330  1
  C  C1293  1  0.759300  0.022200  0.417820  1
  C  C1294  1  0.259300  0.977800  0.582180  1
  C  C1295  1  0.759300  0.522200  0.082180  1
  C  C1296  1  0.259300  0.477800  0.917820  1
  C  C1297  1  0.845700  0.024200  0.871900  1
  C  C1298  1  0.345700  0.975800  0.128100  1
  C  C1299  1  0.845700  0.524200  0.628100  1
  C  C1300  1  0.345700  0.475800  0.371900  1
  C  C1301  1  0.758400  0.993500  0.869670  1
  C  C1302  1  0.258400  0.006500  0.130330  1
  C  C1303  1  0.758400  0.493500  0.630330  1
  C  C1304  1  0.258400  0.506500  0.369670  1
  C  C1305  1  0.757100  0.991700  0.905770  1
  C  C1306  1  0.257100  0.008300  0.094230  1
  C  C1307  1  0.757100  0.491700  0.594230  1
  C  C1308  1  0.257100  0.508300  0.405770  1
  C  C1309  1  0.800100  0.006200  0.924940  1
  C  C1310  1  0.300100  0.993800  0.075060  1
  C  C1311  1  0.800100  0.506200  0.575060  1
  C  C1312  1  0.300100  0.493800  0.424940  1
  C  C1313  1  0.844400  0.022400  0.908000  1
  C  C1314  1  0.344400  0.977600  0.092000  1
  C  C1315  1  0.844400  0.522400  0.592000  1
  C  C1316  1  0.344400  0.477600  0.408000  1
  C  C1317  1  0.178400  0.201500  0.817000  1
  C  C1318  1  0.678400  0.798500  0.183000  1
  C  C1319  1  0.178400  0.701500  0.683000  1
  C  C1320  1  0.678400  0.298500  0.317000  1
  C  C1321  1  0.191800  0.210800  0.851400  1
  C  C1322  1  0.691800  0.789200  0.148600  1
  C  C1323  1  0.191800  0.710800  0.648600  1
  C  C1324  1  0.691800  0.289200  0.351400  1
  C  C1325  1  0.161200  0.193400  0.878300  1
  C  C1326  1  0.661200  0.806600  0.121700  1
  C  C1327  1  0.161200  0.693400  0.621700  1
  C  C1328  1  0.661200  0.306600  0.378300  1
  C  C1329  1  0.117200  0.166500  0.870890  1
  C  C1330  1  0.617200  0.833500  0.129110  1
  C  C1331  1  0.117200  0.666500  0.629110  1
  C  C1332  1  0.617200  0.333500  0.370890  1
  C  C1333  1  0.103800  0.157200  0.836560  1
  C  C1334  1  0.603800  0.842800  0.163440  1
  C  C1335  1  0.103800  0.657200  0.663440  1
  C  C1336  1  0.603800  0.342800  0.336560  1
  C  C1337  1  0.279300  0.936500  0.753800  1
  C  C1338  1  0.779300  0.063500  0.246200  1
  C  C1339  1  0.279300  0.436500  0.746200  1
  C  C1340  1  0.779300  0.563500  0.253800  1
  C  C1341  1  0.299700  0.927200  0.814500  1
  C  C1342  1  0.799700  0.072800  0.185500  1
  C  C1343  1  0.299700  0.427200  0.685500  1
  C  C1344  1  0.799700  0.572800  0.314500  1
  C  C1345  1  0.339500  0.895900  0.805900  1
  C  C1346  1  0.839500  0.104100  0.194100  1
  C  C1347  1  0.339500  0.395900  0.694100  1
  C  C1348  1  0.839500  0.604100  0.305900  1
  C  C1349  1  0.349200  0.884900  0.771300  1
  C  C1350  1  0.849200  0.115100  0.228700  1
  C  C1351  1  0.349200  0.384900  0.728700  1
  C  C1352  1  0.849200  0.615100  0.271300  1
  C  C1353  1  0.319100  0.905200  0.745200  1
  C  C1354  1  0.819100  0.094800  0.254800  1
  C  C1355  1  0.319100  0.405200  0.754800  1
  C  C1356  1  0.819100  0.594800  0.245200  1
  C  C1357  1  0.944400  0.007800  0.402600  1
  C  C1358  1  0.444400  0.992200  0.597400  1
  C  C1359  1  0.944400  0.507800  0.097400  1
  C  C1360  1  0.444400  0.492200  0.902600  1
  C  C1361  1  0.927400  0.993500  0.370000  1
  C  C1362  1  0.427400  0.006500  0.630000  1
  C  C1363  1  0.927400  0.493500  0.130000  1
  C  C1364  1  0.427400  0.506500  0.870000  1
  C  C1365  1  0.904700  0.026300  0.347600  1
  C  C1366  1  0.404700  0.973700  0.652400  1
  C  C1367  1  0.904700  0.526300  0.152400  1
  C  C1368  1  0.404700  0.473700  0.847600  1
  C  C1369  1  0.899100  0.073400  0.357900  1
  C  C1370  1  0.399100  0.926600  0.642100  1
  C  C1371  1  0.899100  0.573400  0.142100  1
  C  C1372  1  0.399100  0.426600  0.857900  1
  C  C1373  1  0.916200  0.087700  0.390600  1
  C  C1374  1  0.416200  0.912300  0.609400  1
  C  C1375  1  0.916200  0.587700  0.109400  1
  C  C1376  1  0.416200  0.412300  0.890600  1
  N  N1377  1  0.007400  0.705100  0.483100  1
  N  N1378  1  0.507400  0.294900  0.516900  1
  N  N1379  1  0.007400  0.205100  0.016900  1
  N  N1380  1  0.507400  0.794900  0.983100  1
  N  N1381  1  0.153100  0.766200  0.461800  1
  N  N1382  1  0.653100  0.233800  0.538200  1
  N  N1383  1  0.153100  0.266200  0.038200  1
  N  N1384  1  0.653100  0.733800  0.961800  1
  N  N1385  1  0.889400  0.888800  0.876100  1
  N  N1386  1  0.389400  0.111200  0.123900  1
  N  N1387  1  0.889400  0.388800  0.623900  1
  N  N1388  1  0.389400  0.611200  0.376100  1
  N  N1389  1  0.971600  0.918600  0.838400  1
  N  N1390  1  0.471600  0.081400  0.161600  1
  N  N1391  1  0.971600  0.418600  0.661600  1
  N  N1392  1  0.471600  0.581400  0.338400  1
  N  N1393  1  0.141400  0.993800  0.817400  1
  N  N1394  1  0.641400  0.006200  0.182600  1
  N  N1395  1  0.141400  0.493800  0.682600  1
  N  N1396  1  0.641400  0.506200  0.317400  1
  N  N1397  1  0.986200  0.735800  0.578900  1
  N  N1398  1  0.486200  0.264200  0.421100  1
  N  N1399  1  0.986200  0.235800  0.921100  1
  N  N1400  1  0.486200  0.764200  0.078900  1
  N  N1401  1  0.224200  0.045900  0.827300  1
  N  N1402  1  0.724200  0.954100  0.172700  1
  N  N1403  1  0.224200  0.545900  0.672700  1
  N  N1404  1  0.724200  0.454100  0.327300  1
  N  N1405  1  0.902000  0.690700  0.545700  1
  N  N1406  1  0.402000  0.309300  0.454300  1
  N  N1407  1  0.902000  0.190700  0.954300  1
  N  N1408  1  0.402000  0.809300  0.045700  1
  N  N1409  1  0.225200  0.828300  0.509800  1
  N  N1410  1  0.725200  0.171700  0.490200  1
  N  N1411  1  0.225200  0.328300  0.990200  1
  N  N1412  1  0.725200  0.671700  0.009800  1
  N  N1413  1  0.934600  0.794000  0.832600  1
  N  N1414  1  0.434600  0.206000  0.167400  1
  N  N1415  1  0.934600  0.294000  0.667400  1
  N  N1416  1  0.434600  0.706000  0.332600  1
  N  N1417  1  0.154900  0.804500  0.555400  1
  N  N1418  1  0.654900  0.195500  0.444600  1
  N  N1419  1  0.154900  0.304500  0.944600  1
  N  N1420  1  0.654900  0.695500  0.055400  1
  N  N1421  1  0.889800  0.847600  0.785300  1
  N  N1422  1  0.389800  0.152400  0.214700  1
  N  N1423  1  0.889800  0.347600  0.714700  1
  N  N1424  1  0.389800  0.652400  0.285300  1
  N  N1425  1  0.795500  0.988400  0.759400  1
  N  N1426  1  0.295500  0.011600  0.240600  1
  N  N1427  1  0.795500  0.488400  0.740600  1
  N  N1428  1  0.295500  0.511600  0.259400  1
  N  N1429  1  0.952300  0.783100  0.492700  1
  N  N1430  1  0.452300  0.216900  0.507300  1
  N  N1431  1  0.952300  0.283100  0.007300  1
  N  N1432  1  0.452300  0.716900  0.992700  1
  N  N1433  1  0.849600  0.929700  0.471900  1
  N  N1434  1  0.349600  0.070300  0.528100  1
  N  N1435  1  0.849600  0.429700  0.028100  1
  N  N1436  1  0.349600  0.570300  0.971900  1
  N  N1437  1  0.879200  0.045900  0.816800  1
  N  N1438  1  0.379200  0.954100  0.183200  1
  N  N1439  1  0.879200  0.545900  0.683200  1
  N  N1440  1  0.379200  0.454100  0.316800  1
  N  N1441  1  0.048200  0.122100  0.795100  1
  N  N1442  1  0.548200  0.877900  0.204900  1
  N  N1443  1  0.048200  0.622100  0.704900  1
  N  N1444  1  0.548200  0.377900  0.295100  1
  N  N1445  1  0.748700  0.065200  0.784300  1
  N  N1446  1  0.248700  0.934800  0.215700  1
  N  N1447  1  0.748700  0.565200  0.715700  1
  N  N1448  1  0.248700  0.434800  0.284300  1
  N  N1449  1  0.791600  0.991300  0.435930  1
  N  N1450  1  0.291600  0.008700  0.564070  1
  N  N1451  1  0.791600  0.491300  0.064070  1
  N  N1452  1  0.291600  0.508700  0.935930  1
  N  N1453  1  0.802700  0.009800  0.852740  1
  N  N1454  1  0.302700  0.990200  0.147260  1
  N  N1455  1  0.802700  0.509800  0.647260  1
  N  N1456  1  0.302700  0.490200  0.352740  1
  N  N1457  1  0.134300  0.174600  0.809640  1
  N  N1458  1  0.634300  0.825400  0.190360  1
  N  N1459  1  0.134300  0.674600  0.690360  1
  N  N1460  1  0.634300  0.325400  0.309640  1
  N  N1461  1  0.807900  0.023900  0.529500  1
  N  N1462  1  0.307900  0.976100  0.470500  1
  N  N1463  1  0.807900  0.523900  0.970500  1
  N  N1464  1  0.307900  0.476100  0.029500  1
  N  N1465  1  0.727300  0.970100  0.510300  1
  N  N1466  1  0.227300  0.029900  0.489700  1
  N  N1467  1  0.727300  0.470100  0.989700  1
  N  N1468  1  0.227300  0.529900  0.010300  1
  N  N1469  1  0.974100  0.098000  0.501500  1
  N  N1470  1  0.474100  0.902000  0.498500  1
  N  N1471  1  0.974100  0.598000  0.998500  1
  N  N1472  1  0.474100  0.402000  0.001500  1
  N  N1473  1  0.037900  0.121900  0.451300  1
  N  N1474  1  0.537900  0.878100  0.548700  1
  N  N1475  1  0.037900  0.621900  0.048700  1
  N  N1476  1  0.537900  0.378100  0.951300  1
  N  N1477  1  0.076200  0.215100  0.734200  1
  N  N1478  1  0.576200  0.784900  0.265800  1
  N  N1479  1  0.076200  0.715100  0.765800  1
  N  N1480  1  0.576200  0.284900  0.234200  1
  N  N1481  1  0.123800  0.136000  0.715100  1
  N  N1482  1  0.623800  0.864000  0.284900  1
  N  N1483  1  0.123800  0.636000  0.784900  1
  N  N1484  1  0.623800  0.364000  0.215100  1
  N  N1485  1  0.215700  0.988700  0.740300  1
  N  N1486  1  0.715700  0.011300  0.259700  1
  N  N1487  1  0.215700  0.488700  0.759700  1
  N  N1488  1  0.715700  0.511300  0.240300  1
  N  N1489  1  0.994500  0.993400  0.452700  1
  N  N1490  1  0.494500  0.006600  0.547300  1
  N  N1491  1  0.994500  0.493400  0.047300  1
  N  N1492  1  0.494500  0.506600  0.952700  1
  N  N1493  1  0.269600  0.947500  0.788400  1
  N  N1494  1  0.769600  0.052500  0.211600  1
  N  N1495  1  0.269600  0.447500  0.711600  1
  N  N1496  1  0.769600  0.552500  0.288400  1
  N  N1497  1  0.938900  0.054900  0.412900  1
  N  N1498  1  0.438900  0.945100  0.587100  1
  N  N1499  1  0.938900  0.554900  0.087100  1
  N  N1500  1  0.438900  0.445100  0.912900  1
  N  N1501  1  0.097700  0.854100  0.479500  1
  N  N1502  1  0.597700  0.145900  0.520500  1
  N  N1503  1  0.097700  0.354100  0.020500  1
  N  N1504  1  0.597700  0.645900  0.979500  1
