
#######################################################################
#
#                 Cambridge Crystallographic Data Centre
#                                CCDC 
#
#######################################################################
#
# If this CIF has been generated from an entry in the Cambridge 
# Structural Database, then it will include bibliographic, chemical, 
# crystal, experimental, refinement or atomic coordinate data resulting 
# from the CCDC's data processing and validation procedures.
#
#######################################################################

data_LAXFEX
_chemical_formula_moiety         'C116 H72 N8 O4 Pd2 4+,4(B1 F4 1-),8(C2 H3 N1)'
_chemical_name_systematic        
'tris(\m~2~-3,7-bis(2-(3-pyridyl)ethynyl)suberone)-di-palladium(ii) tetrakis(tetrafluoroborate) acetonitrile solvate'
_symmetry_cell_setting           tetragonal
_symmetry_space_group_name_H-M   'P 4/n n c'
_symmetry_Int_Tables_number      126
_space_group_name_Hall           '-P 4a 2bc'
loop_
_symmetry_equiv_pos_site_id
_symmetry_equiv_pos_as_xyz
1 x,y,z
2 1/2-x,1/2-y,z
3 1/2-y,x,z
4 y,1/2-x,z
5 1/2-x,y,1/2-z
6 x,1/2-y,1/2-z
7 y,x,1/2-z
8 1/2-y,1/2-x,1/2-z
9 -x,-y,-z
10 1/2+x,1/2+y,-z
11 1/2+y,-x,-z
12 -y,1/2+x,-z
13 1/2+x,-y,1/2+z
14 -x,1/2+y,1/2+z
15 -y,-x,1/2+z
16 1/2+y,1/2+x,1/2+z
_cell_length_a                   16.542(2)
_cell_length_b                   16.542(2)
_cell_length_c                   43.002(3)
_cell_angle_alpha                90
_cell_angle_beta                 90
_cell_angle_gamma                90
_cell_volume                     11767
_exptl_crystal_colour            colorless
_exptl_crystal_description       block
_cell_formula_units_Z            4
loop_
_atom_site_label
_atom_site_type_symbol
_atom_site_fract_x
_atom_site_fract_y
_atom_site_fract_z
N2 N 0.784(5) 0.065(7) 0.464(2)
C3 C 0.792(4) 0.109(5) 0.4436(17)
C4 C 0.779(5) 0.184(6) 0.4262(18)
H4 H 0.7635 0.2270 0.4405
H5 H 0.7354 0.1752 0.4110
N2A N 0.716(5) 0.435(7) 0.464(2)
C3A C 0.708(4) 0.391(5) 0.4436(17)
C4A C 0.721(5) 0.316(6) 0.4262(18)
H4A H 0.7365 0.2730 0.4405
H5A H 0.7646 0.3248 0.4110
Pd1 Pd 0.7500 0.7500 0.34593(3)
Pd2 Pd 0.7500 0.7500 -0.03413(4)
O1 O 0.5401(5) 0.5978(6) 0.1590(2)
N3 N 0.6290(5) 0.7362(5) 0.34599(19)
N4 N 0.6925(7) 0.6428(7) -0.0326(2)
C5 C 0.5022(8) 0.7376(9) 0.3718(3)
H6 H 0.4724 0.7466 0.3903
C6 C 0.5843(7) 0.7490(9) 0.3716(3)
H7 H 0.6104 0.7665 0.3901
C7 C 0.4631(8) 0.7135(8) 0.3456(4)
H8 H 0.4061 0.7064 0.3456
C8 C 0.5085(7) 0.6993(7) 0.3188(3)
C9 C 0.5908(7) 0.7131(7) 0.3199(3)
H9 H 0.6216 0.7061 0.3014
C10 C 0.4745(8) 0.6667(7) 0.2905(3)
C11 C 0.4505(8) 0.6326(7) 0.2679(3)
C12 C 0.4260(7) 0.5826(7) 0.2420(3)
C13 C 0.3619(8) 0.5286(8) 0.2458(3)
H10 H 0.3305 0.5299 0.2642
C14 C 0.3441(8) 0.4739(8) 0.2231(3)
H11 H 0.2998 0.4382 0.2261
C15 C 0.3890(7) 0.4685(8) 0.1955(3)
C16 C 0.4519(7) 0.5250(7) 0.1908(3)
C17 C 0.4688(7) 0.5811(8) 0.2144(3)
H12 H 0.5109 0.6193 0.2113
C18 C 0.3701(8) 0.4014(8) 0.1739(3)
H13 H 0.3430 0.4232 0.1551
H14 H 0.3325 0.3632 0.1841
C19 C 0.4468(10) 0.3567(9) 0.1643(3)
H15 H 0.4854 0.3567 0.1819
H16 H 0.4332 0.2998 0.1594
C20 C 0.4859(9) 0.3949(9) 0.1365(3)
C21 C 0.5034(7) 0.4762(8) 0.1345(3)
C22 C 0.4990(7) 0.5356(8) 0.1613(3)
C23 C 0.5023(10) 0.3467(10) 0.1114(4)
H17 H 0.4937 0.2901 0.1130
C24 C 0.5323(12) 0.3800(11) 0.0826(4)
H18 H 0.5417 0.3457 0.0653
C25 C 0.5470(10) 0.4599(11) 0.0803(4)
C26 C 0.5312(9) 0.5092(10) 0.1067(3)
H19 H 0.5397 0.5659 0.1053
C27 C 0.5730(11) 0.4919(12) 0.0514(4)
C28 C 0.5969(12) 0.5152(11) 0.0274(4)
C29 C 0.6246(10) 0.5423(10) -0.0027(4)
C30 C 0.6222(12) 0.4917(11) -0.0292(5)
H20 H 0.5997 0.4389 -0.0280
C31 C 0.6533(12) 0.5206(12) -0.0567(4)
H21 H 0.6513 0.4881 -0.0749
C32 C 0.6874(10) 0.5970(10) -0.0580(3)
H22 H 0.7074 0.6170 -0.0772
C33 C 0.6635(9) 0.6179(9) -0.0057(3)
H23 H 0.6687 0.6516 0.0121
O1A O 0.9599(5) 0.9022(6) 0.1590(2)
N3A N 0.8710(5) 0.7638(5) 0.34599(19)
N4A N 0.8075(7) 0.8572(7) -0.0326(2)
C5A C 0.9978(8) 0.7624(9) 0.3718(3)
H6A H 1.0276 0.7534 0.3903
C6A C 0.9157(7) 0.7510(9) 0.3716(3)
H7A H 0.8896 0.7335 0.3901
C7A C 1.0369(8) 0.7865(8) 0.3456(4)
H8A H 1.0939 0.7936 0.3456
C8A C 0.9915(7) 0.8007(7) 0.3188(3)
C9A C 0.9092(7) 0.7869(7) 0.3199(3)
H9A H 0.8784 0.7939 0.3014
C10A C 1.0255(8) 0.8333(7) 0.2905(3)
C11A C 1.0495(8) 0.8674(7) 0.2679(3)
C12A C 1.0740(7) 0.9174(7) 0.2420(3)
C13A C 1.1381(8) 0.9714(8) 0.2458(3)
H10A H 1.1695 0.9701 0.2642
C14A C 1.1559(8) 1.0261(8) 0.2231(3)
H11A H 1.2002 1.0618 0.2261
C15A C 1.1110(7) 1.0315(8) 0.1955(3)
C16A C 1.0481(7) 0.9750(7) 0.1908(3)
C17A C 1.0312(7) 0.9189(8) 0.2144(3)
H12A H 0.9891 0.8807 0.2113
C18A C 1.1299(8) 1.0986(8) 0.1739(3)
H13A H 1.1570 1.0768 0.1551
H14A H 1.1675 1.1368 0.1841
C19A C 1.0532(10) 1.1433(9) 0.1643(3)
H15A H 1.0146 1.1433 0.1819
H16A H 1.0668 1.2002 0.1594
C20A C 1.0141(9) 1.1051(9) 0.1365(3)
C21A C 0.9966(7) 1.0238(8) 0.1345(3)
C22A C 1.0010(7) 0.9644(8) 0.1613(3)
C23A C 0.9977(10) 1.1533(10) 0.1114(4)
H17A H 1.0063 1.2099 0.1130
C24A C 0.9677(12) 1.1200(11) 0.0826(4)
H18A H 0.9583 1.1543 0.0653
C25A C 0.9530(10) 1.0401(11) 0.0803(4)
C26A C 0.9688(9) 0.9908(10) 0.1067(3)
H19A H 0.9603 0.9341 0.1053
C27A C 0.9270(11) 1.0081(12) 0.0514(4)
C28A C 0.9031(12) 0.9848(11) 0.0274(4)
C29A C 0.8754(10) 0.9577(10) -0.0027(4)
C30A C 0.8778(12) 1.0083(11) -0.0292(5)
H20A H 0.9003 1.0611 -0.0280
C31A C 0.8467(12) 0.9794(12) -0.0567(4)
H21A H 0.8487 1.0119 -0.0749
C32A C 0.8126(10) 0.9030(10) -0.0580(3)
H22A H 0.7926 0.8830 -0.0772
C33A C 0.8365(9) 0.8821(9) -0.0057(3)
H23A H 0.8313 0.8484 0.0121
O1B O 0.9022(6) 0.5401(5) 0.1590(2)
N3B N 0.7638(5) 0.6290(5) 0.34599(19)
N4B N 0.8572(7) 0.6925(7) -0.0326(2)
C5B C 0.7624(9) 0.5022(8) 0.3718(3)
H6B H 0.7534 0.4724 0.3903
C6B C 0.7510(9) 0.5843(7) 0.3716(3)
H7B H 0.7335 0.6104 0.3901
C7B C 0.7865(8) 0.4631(8) 0.3456(4)
H8B H 0.7936 0.4061 0.3456
C8B C 0.8007(7) 0.5085(7) 0.3188(3)
C9B C 0.7869(7) 0.5908(7) 0.3199(3)
H9B H 0.7939 0.6216 0.3014
C10B C 0.8333(7) 0.4745(8) 0.2905(3)
C11B C 0.8674(7) 0.4505(8) 0.2679(3)
C12B C 0.9174(7) 0.4260(7) 0.2420(3)
C13B C 0.9714(8) 0.3619(8) 0.2458(3)
H10B H 0.9701 0.3305 0.2642
C14B C 1.0261(8) 0.3441(8) 0.2231(3)
H11B H 1.0618 0.2998 0.2261
C15B C 1.0315(8) 0.3890(7) 0.1955(3)
C16B C 0.9750(7) 0.4519(7) 0.1908(3)
C17B C 0.9189(8) 0.4688(7) 0.2144(3)
H12B H 0.8807 0.5109 0.2113
C18B C 1.0986(8) 0.3701(8) 0.1739(3)
H13B H 1.0768 0.3430 0.1551
H14B H 1.1368 0.3325 0.1841
C19B C 1.1433(9) 0.4468(10) 0.1643(3)
H15B H 1.1433 0.4854 0.1819
H16B H 1.2002 0.4332 0.1594
C20B C 1.1051(9) 0.4859(9) 0.1365(3)
C21B C 1.0238(8) 0.5034(7) 0.1345(3)
C22B C 0.9644(8) 0.4990(7) 0.1613(3)
C23B C 1.1533(10) 0.5023(10) 0.1114(4)
H17B H 1.2099 0.4937 0.1130
C24B C 1.1200(11) 0.5323(12) 0.0826(4)
H18B H 1.1543 0.5417 0.0653
C25B C 1.0401(11) 0.5470(10) 0.0803(4)
C26B C 0.9908(10) 0.5312(9) 0.1067(3)
H19B H 0.9341 0.5397 0.1053
C27B C 1.0081(12) 0.5730(11) 0.0514(4)
C28B C 0.9848(11) 0.5969(12) 0.0274(4)
C29B C 0.9577(10) 0.6246(10) -0.0027(4)
C30B C 1.0083(11) 0.6222(12) -0.0292(5)
H20B H 1.0611 0.5997 -0.0280
C31B C 0.9794(12) 0.6533(12) -0.0567(4)
H21B H 1.0119 0.6513 -0.0749
C32B C 0.9030(10) 0.6874(10) -0.0580(3)
H22B H 0.8830 0.7074 -0.0772
C33B C 0.8821(9) 0.6635(9) -0.0057(3)
H23B H 0.8484 0.6687 0.0121
O1C O 0.5978(6) 0.9599(5) 0.1590(2)
N3C N 0.7362(5) 0.8710(5) 0.34599(19)
N4C N 0.6428(7) 0.8075(7) -0.0326(2)
C5C C 0.7376(9) 0.9978(8) 0.3718(3)
H6C H 0.7466 1.0276 0.3903
C6C C 0.7490(9) 0.9157(7) 0.3716(3)
H7C H 0.7665 0.8896 0.3901
C7C C 0.7135(8) 1.0369(8) 0.3456(4)
H8C H 0.7064 1.0939 0.3456
C8C C 0.6993(7) 0.9915(7) 0.3188(3)
C9C C 0.7131(7) 0.9092(7) 0.3199(3)
H9C H 0.7061 0.8784 0.3014
C10C C 0.6667(7) 1.0255(8) 0.2905(3)
C11C C 0.6326(7) 1.0495(8) 0.2679(3)
C12C C 0.5826(7) 1.0740(7) 0.2420(3)
C13C C 0.5286(8) 1.1381(8) 0.2458(3)
H10C H 0.5299 1.1695 0.2642
C14C C 0.4739(8) 1.1559(8) 0.2231(3)
H11C H 0.4382 1.2002 0.2261
C15C C 0.4685(8) 1.1110(7) 0.1955(3)
C16C C 0.5250(7) 1.0481(7) 0.1908(3)
C17C C 0.5811(8) 1.0312(7) 0.2144(3)
H12C H 0.6193 0.9891 0.2113
C18C C 0.4014(8) 1.1299(8) 0.1739(3)
H13C H 0.4232 1.1570 0.1551
H14C H 0.3632 1.1675 0.1841
C19C C 0.3567(9) 1.0532(10) 0.1643(3)
H15C H 0.3567 1.0146 0.1819
H16C H 0.2998 1.0668 0.1594
C20C C 0.3949(9) 1.0141(9) 0.1365(3)
C21C C 0.4762(8) 0.9966(7) 0.1345(3)
C22C C 0.5356(8) 1.0010(7) 0.1613(3)
C23C C 0.3467(10) 0.9977(10) 0.1114(4)
H17C H 0.2901 1.0063 0.1130
C24C C 0.3800(11) 0.9677(12) 0.0826(4)
H18C H 0.3457 0.9583 0.0653
C25C C 0.4599(11) 0.9530(10) 0.0803(4)
C26C C 0.5092(10) 0.9688(9) 0.1067(3)
H19C H 0.5659 0.9603 0.1053
C27C C 0.4919(12) 0.9270(11) 0.0514(4)
C28C C 0.5152(11) 0.9031(12) 0.0274(4)
C29C C 0.5423(10) 0.8754(10) -0.0027(4)
C30C C 0.4917(11) 0.8778(12) -0.0292(5)
H20C H 0.4389 0.9003 -0.0280
C31C C 0.5206(12) 0.8467(12) -0.0567(4)
H21C H 0.4881 0.8487 -0.0749
C32C C 0.5970(10) 0.8126(10) -0.0580(3)
H22C H 0.6170 0.7926 -0.0772
C33C C 0.6179(9) 0.8365(9) -0.0057(3)
H23C H 0.6516 0.8313 0.0121
C1 C 0.637(3) 0.283(3) 0.3368(9)
H1 H 0.5923 0.2925 0.3224
H2 H 0.6476 0.2245 0.3381
H3 H 0.6858 0.3103 0.3291
C2 C 0.616(2) 0.314(3) 0.3676(9)
N1 N 0.646(3) 0.330(4) 0.3927(10)
loop_
_geom_bond_atom_site_label_1
_geom_bond_atom_site_label_2
_geom_bond_site_symmetry_1
_geom_bond_site_symmetry_2
C1 H1 1_555 1_555
H2 C1 1_555 1_555
H3 C1 1_555 1_555
C2 C1 1_555 1_555
N1 C2 1_555 1_555
N2 C3 1_555 1_555
C3 C4 1_555 1_555
C4 H4 1_555 1_555
H5 C4 1_555 1_555
Pd1 N3 1_555 1_555
Pd2 N4 1_555 1_555
O1 C22 1_555 1_555
N3 C6 1_555 1_555
N4 C32 1_555 1_555
C5 H6 1_555 1_555
C6 C5 1_555 1_555
H7 C6 1_555 1_555
C7 C5 1_555 1_555
H8 C7 1_555 1_555
C8 C7 1_555 1_555
C9 N3 1_555 1_555
H9 C9 1_555 1_555
C10 C8 1_555 1_555
C11 C10 1_555 1_555
C12 C11 1_555 1_555
C13 C12 1_555 1_555
H10 C13 1_555 1_555
C14 C13 1_555 1_555
H11 C14 1_555 1_555
C15 C14 1_555 1_555
C16 C15 1_555 1_555
C17 C12 1_555 1_555
H12 C17 1_555 1_555
C18 C15 1_555 1_555
H13 C18 1_555 1_555
H14 C18 1_555 1_555
C19 C18 1_555 1_555
H15 C19 1_555 1_555
H16 C19 1_555 1_555
C20 C19 1_555 1_555
C21 C20 1_555 1_555
C22 C16 1_555 1_555
C23 C20 1_555 1_555
H17 C23 1_555 1_555
C24 C23 1_555 1_555
H18 C24 1_555 1_555
C25 C24 1_555 1_555
C26 C21 1_555 1_555
H19 C26 1_555 1_555
C27 C25 1_555 1_555
C28 C27 1_555 1_555
C29 C28 1_555 1_555
C30 C29 1_555 1_555
H20 C30 1_555 1_555
C31 C30 1_555 1_555
H21 C31 1_555 1_555
C32 C31 1_555 1_555
H22 C32 1_555 1_555
C33 N4 1_555 1_555
H23 C33 1_555 1_555
N2A C3A 1_555 1_555
C3A C4A 1_555 1_555
C4A H4A 1_555 1_555
H5A C4A 1_555 1_555
O1A C22A 1_555 1_555
N3A Pd1 1_555 1_555
N4A Pd2 1_555 1_555
C5A H6A 1_555 1_555
C6A N3A 1_555 1_555
H7A C6A 1_555 1_555
C7A C5A 1_555 1_555
H8A C7A 1_555 1_555
C8A C7A 1_555 1_555
C9A N3A 1_555 1_555
H9A C9A 1_555 1_555
C10A C8A 1_555 1_555
C11A C10A 1_555 1_555
C12A C11A 1_555 1_555
C13A C12A 1_555 1_555
H10A C13A 1_555 1_555
C14A C13A 1_555 1_555
H11A C14A 1_555 1_555
C15A C14A 1_555 1_555
C16A C15A 1_555 1_555
C17A C12A 1_555 1_555
H12A C17A 1_555 1_555
C18A C15A 1_555 1_555
H13A C18A 1_555 1_555
H14A C18A 1_555 1_555
C19A C18A 1_555 1_555
H15A C19A 1_555 1_555
H16A C19A 1_555 1_555
C20A C19A 1_555 1_555
C21A C20A 1_555 1_555
C22A C16A 1_555 1_555
C23A C20A 1_555 1_555
H17A C23A 1_555 1_555
C24A C23A 1_555 1_555
H18A C24A 1_555 1_555
C25A C24A 1_555 1_555
C26A C21A 1_555 1_555
H19A C26A 1_555 1_555
C27A C25A 1_555 1_555
C28A C27A 1_555 1_555
C29A C28A 1_555 1_555
C30A C29A 1_555 1_555
H20A C30A 1_555 1_555
C31A C30A 1_555 1_555
H21A C31A 1_555 1_555
C32A N4A 1_555 1_555
H22A C32A 1_555 1_555
C33A N4A 1_555 1_555
H23A C33A 1_555 1_555
O1B C22B 1_555 1_555
N3B Pd1 1_555 1_555
N4B Pd2 1_555 1_555
C5B H6B 1_555 1_555
C6B N3B 1_555 1_555
H7B C6B 1_555 1_555
C7B C5B 1_555 1_555
H8B C7B 1_555 1_555
C8B C7B 1_555 1_555
C9B N3B 1_555 1_555
H9B C9B 1_555 1_555
C10B C8B 1_555 1_555
C11B C10B 1_555 1_555
C12B C11B 1_555 1_555
C13B C12B 1_555 1_555
H10B C13B 1_555 1_555
C14B C13B 1_555 1_555
H11B C14B 1_555 1_555
C15B C14B 1_555 1_555
C16B C15B 1_555 1_555
C17B C12B 1_555 1_555
H12B C17B 1_555 1_555
C18B C15B 1_555 1_555
H13B C18B 1_555 1_555
H14B C18B 1_555 1_555
C19B C18B 1_555 1_555
H15B C19B 1_555 1_555
H16B C19B 1_555 1_555
C20B C19B 1_555 1_555
C21B C20B 1_555 1_555
C22B C16B 1_555 1_555
C23B C20B 1_555 1_555
H17B C23B 1_555 1_555
C24B C23B 1_555 1_555
H18B C24B 1_555 1_555
C25B C24B 1_555 1_555
C26B C21B 1_555 1_555
H19B C26B 1_555 1_555
C27B C25B 1_555 1_555
C28B C27B 1_555 1_555
C29B C28B 1_555 1_555
C30B C29B 1_555 1_555
H20B C30B 1_555 1_555
C31B C30B 1_555 1_555
H21B C31B 1_555 1_555
C32B N4B 1_555 1_555
H22B C32B 1_555 1_555
C33B N4B 1_555 1_555
H23B C33B 1_555 1_555
O1C C22C 1_555 1_555
N3C Pd1 1_555 1_555
N4C Pd2 1_555 1_555
C5C H6C 1_555 1_555
C6C N3C 1_555 1_555
H7C C6C 1_555 1_555
C7C C5C 1_555 1_555
H8C C7C 1_555 1_555
C8C C7C 1_555 1_555
C9C N3C 1_555 1_555
H9C C9C 1_555 1_555
C10C C8C 1_555 1_555
C11C C10C 1_555 1_555
C12C C11C 1_555 1_555
C13C C12C 1_555 1_555
H10C C13C 1_555 1_555
C14C C13C 1_555 1_555
H11C C14C 1_555 1_555
C15C C14C 1_555 1_555
C16C C15C 1_555 1_555
C17C C12C 1_555 1_555
H12C C17C 1_555 1_555
C18C C15C 1_555 1_555
H13C C18C 1_555 1_555
H14C C18C 1_555 1_555
C19C C18C 1_555 1_555
H15C C19C 1_555 1_555
H16C C19C 1_555 1_555
C20C C19C 1_555 1_555
C21C C20C 1_555 1_555
C22C C16C 1_555 1_555
C23C C20C 1_555 1_555
H17C C23C 1_555 1_555
C24C C23C 1_555 1_555
H18C C24C 1_555 1_555
C25C C24C 1_555 1_555
C26C C21C 1_555 1_555
H19C C26C 1_555 1_555
C27C C25C 1_555 1_555
C28C C27C 1_555 1_555
C29C C28C 1_555 1_555
C30C C29C 1_555 1_555
H20C C30C 1_555 1_555
C31C C30C 1_555 1_555
H21C C31C 1_555 1_555
C32C N4C 1_555 1_555
H22C C32C 1_555 1_555
C33C N4C 1_555 1_555
H23C C33C 1_555 1_555
C8 C9 1_555 1_555
C16 C17 1_555 1_555
C21 C22 1_555 1_555
C25 C26 1_555 1_555
C29 C33 1_555 1_555
C5A C6A 1_555 1_555
C8A C9A 1_555 1_555
C16A C17A 1_555 1_555
C21A C22A 1_555 1_555
C25A C26A 1_555 1_555
C29A C33A 1_555 1_555
C31A C32A 1_555 1_555
C5B C6B 1_555 1_555
C8B C9B 1_555 1_555
C16B C17B 1_555 1_555
C21B C22B 1_555 1_555
C25B C26B 1_555 1_555
C29B C33B 1_555 1_555
C31B C32B 1_555 1_555
C5C C6C 1_555 1_555
C8C C9C 1_555 1_555
C16C C17C 1_555 1_555
C21C C22C 1_555 1_555
C25C C26C 1_555 1_555
C29C C33C 1_555 1_555
C31C C32C 1_555 1_555

#END
