# generated using pymatgen
data_B20H144Pd2C164N32O4F77
_symmetry_space_group_name_H-M   'P 1'
_cell_length_a   16.54200000
_cell_length_b   16.54200000
_cell_length_c   43.00200000
_cell_angle_alpha   90.00000000
_cell_angle_beta   90.00000000
_cell_angle_gamma   90.00000000
_symmetry_Int_Tables_number   1
_chemical_formula_structural   B20H144Pd2C164N32O4F77
_chemical_formula_sum   'B80 H576 Pd8 C656 N128 O16 F308'
_cell_volume   11766.97112753
_cell_formula_units_Z   4
loop_
 _symmetry_equiv_pos_site_id
 _symmetry_equiv_pos_as_xyz
  1  'x, y, z'
loop_
 _atom_site_type_symbol
 _atom_site_label
 _atom_site_symmetry_multiplicity
 _atom_site_fract_x
 _atom_site_fract_y
 _atom_site_fract_z
 _atom_site_occupancy
  B  B1  1  0.734500  0.705500  0.060900  1
  B  B2  1  0.765500  0.794500  0.060900  1
  B  B3  1  0.794500  0.734500  0.060900  1
  B  B4  1  0.705500  0.765500  0.060900  1
  B  B5  1  0.765500  0.705500  0.439100  1
  B  B6  1  0.734500  0.794500  0.439100  1
  B  B7  1  0.705500  0.734500  0.439100  1
  B  B8  1  0.794500  0.765500  0.439100  1
  B  B9  1  0.265500  0.294500  0.939100  1
  B  B10  1  0.234500  0.205500  0.939100  1
  B  B11  1  0.205500  0.265500  0.939100  1
  B  B12  1  0.294500  0.234500  0.939100  1
  B  B13  1  0.234500  0.294500  0.560900  1
  B  B14  1  0.265500  0.205500  0.560900  1
  B  B15  1  0.294500  0.265500  0.560900  1
  B  B16  1  0.205500  0.234500  0.560900  1
  B  B17  1  0.713700  0.738000  0.250700  1
  B  B18  1  0.786300  0.762000  0.250700  1
  B  B19  1  0.762000  0.713700  0.250700  1
  B  B20  1  0.738000  0.786300  0.250700  1
  B  B21  1  0.786300  0.738000  0.249300  1
  B  B22  1  0.713700  0.762000  0.249300  1
  B  B23  1  0.738000  0.713700  0.249300  1
  B  B24  1  0.762000  0.786300  0.249300  1
  B  B25  1  0.286300  0.262000  0.749300  1
  B  B26  1  0.213700  0.238000  0.749300  1
  B  B27  1  0.238000  0.286300  0.749300  1
  B  B28  1  0.262000  0.213700  0.749300  1
  B  B29  1  0.213700  0.262000  0.750700  1
  B  B30  1  0.286300  0.238000  0.750700  1
  B  B31  1  0.262000  0.286300  0.750700  1
  B  B32  1  0.238000  0.213700  0.750700  1
  B  B33  1  0.761000  0.736000  0.751400  1
  B  B34  1  0.739000  0.764000  0.751400  1
  B  B35  1  0.764000  0.761000  0.751400  1
  B  B36  1  0.736000  0.739000  0.751400  1
  B  B37  1  0.739000  0.736000  0.748600  1
  B  B38  1  0.761000  0.764000  0.748600  1
  B  B39  1  0.736000  0.761000  0.748600  1
  B  B40  1  0.764000  0.739000  0.748600  1
  B  B41  1  0.239000  0.264000  0.248600  1
  B  B42  1  0.261000  0.236000  0.248600  1
  B  B43  1  0.236000  0.239000  0.248600  1
  B  B44  1  0.264000  0.261000  0.248600  1
  B  B45  1  0.261000  0.264000  0.251400  1
  B  B46  1  0.239000  0.236000  0.251400  1
  B  B47  1  0.264000  0.239000  0.251400  1
  B  B48  1  0.236000  0.261000  0.251400  1
  B  B49  1  0.751000  0.772000  0.757600  1
  B  B50  1  0.749000  0.728000  0.757600  1
  B  B51  1  0.728000  0.751000  0.757600  1
  B  B52  1  0.772000  0.749000  0.757600  1
  B  B53  1  0.749000  0.772000  0.742400  1
  B  B54  1  0.751000  0.728000  0.742400  1
  B  B55  1  0.772000  0.751000  0.742400  1
  B  B56  1  0.728000  0.749000  0.742400  1
  B  B57  1  0.249000  0.228000  0.242400  1
  B  B58  1  0.251000  0.272000  0.242400  1
  B  B59  1  0.272000  0.249000  0.242400  1
  B  B60  1  0.228000  0.251000  0.242400  1
  B  B61  1  0.251000  0.228000  0.257600  1
  B  B62  1  0.249000  0.272000  0.257600  1
  B  B63  1  0.228000  0.249000  0.257600  1
  B  B64  1  0.272000  0.251000  0.257600  1
  B  B65  1  0.760200  0.746100  0.873800  1
  B  B66  1  0.739800  0.753900  0.873800  1
  B  B67  1  0.753900  0.760200  0.873800  1
  B  B68  1  0.746100  0.739800  0.873800  1
  B  B69  1  0.739800  0.746100  0.626200  1
  B  B70  1  0.760200  0.753900  0.626200  1
  B  B71  1  0.746100  0.760200  0.626200  1
  B  B72  1  0.753900  0.739800  0.626200  1
  B  B73  1  0.239800  0.253900  0.126200  1
  B  B74  1  0.260200  0.246100  0.126200  1
  B  B75  1  0.246100  0.239800  0.126200  1
  B  B76  1  0.253900  0.260200  0.126200  1
  B  B77  1  0.260200  0.253900  0.373800  1
  B  B78  1  0.239800  0.246100  0.373800  1
  B  B79  1  0.253900  0.239800  0.373800  1
  B  B80  1  0.246100  0.260200  0.373800  1
  H  H81  1  0.592300  0.292500  0.322400  1
  H  H82  1  0.907700  0.207500  0.322400  1
  H  H83  1  0.207500  0.592300  0.322400  1
  H  H84  1  0.292500  0.907700  0.322400  1
  H  H85  1  0.907700  0.292500  0.177600  1
  H  H86  1  0.592300  0.207500  0.177600  1
  H  H87  1  0.292500  0.592300  0.177600  1
  H  H88  1  0.207500  0.907700  0.177600  1
  H  H89  1  0.407700  0.707500  0.677600  1
  H  H90  1  0.092300  0.792500  0.677600  1
  H  H91  1  0.792500  0.407700  0.677600  1
  H  H92  1  0.707500  0.092300  0.677600  1
  H  H93  1  0.092300  0.707500  0.822400  1
  H  H94  1  0.407700  0.792500  0.822400  1
  H  H95  1  0.707500  0.407700  0.822400  1
  H  H96  1  0.792500  0.092300  0.822400  1
  H  H97  1  0.647600  0.224500  0.338100  1
  H  H98  1  0.852400  0.275500  0.338100  1
  H  H99  1  0.275500  0.647600  0.338100  1
  H  H100  1  0.224500  0.852400  0.338100  1
  H  H101  1  0.852400  0.224500  0.161900  1
  H  H102  1  0.647600  0.275500  0.161900  1
  H  H103  1  0.224500  0.647600  0.161900  1
  H  H104  1  0.275500  0.852400  0.161900  1
  H  H105  1  0.352400  0.775500  0.661900  1
  H  H106  1  0.147600  0.724500  0.661900  1
  H  H107  1  0.724500  0.352400  0.661900  1
  H  H108  1  0.775500  0.147600  0.661900  1
  H  H109  1  0.147600  0.775500  0.838100  1
  H  H110  1  0.352400  0.724500  0.838100  1
  H  H111  1  0.775500  0.352400  0.838100  1
  H  H112  1  0.724500  0.147600  0.838100  1
  H  H113  1  0.685800  0.310300  0.329100  1
  H  H114  1  0.814200  0.189700  0.329100  1
  H  H115  1  0.189700  0.685800  0.329100  1
  H  H116  1  0.310300  0.814200  0.329100  1
  H  H117  1  0.814200  0.310300  0.170900  1
  H  H118  1  0.685800  0.189700  0.170900  1
  H  H119  1  0.310300  0.685800  0.170900  1
  H  H120  1  0.189700  0.814200  0.170900  1
  H  H121  1  0.314200  0.689700  0.670900  1
  H  H122  1  0.185800  0.810300  0.670900  1
  H  H123  1  0.810300  0.314200  0.670900  1
  H  H124  1  0.689700  0.185800  0.670900  1
  H  H125  1  0.185800  0.689700  0.829100  1
  H  H126  1  0.314200  0.810300  0.829100  1
  H  H127  1  0.689700  0.314200  0.829100  1
  H  H128  1  0.810300  0.185800  0.829100  1
  H  H129  1  0.645000  0.297000  0.398300  1
  H  H130  1  0.855000  0.203000  0.398300  1
  H  H131  1  0.203000  0.645000  0.398300  1
  H  H132  1  0.297000  0.855000  0.398300  1
  H  H133  1  0.855000  0.297000  0.101700  1
  H  H134  1  0.645000  0.203000  0.101700  1
  H  H135  1  0.297000  0.645000  0.101700  1
  H  H136  1  0.203000  0.855000  0.101700  1
  H  H137  1  0.355000  0.703000  0.601700  1
  H  H138  1  0.145000  0.797000  0.601700  1
  H  H139  1  0.797000  0.355000  0.601700  1
  H  H140  1  0.703000  0.145000  0.601700  1
  H  H141  1  0.145000  0.703000  0.898300  1
  H  H142  1  0.355000  0.797000  0.898300  1
  H  H143  1  0.703000  0.355000  0.898300  1
  H  H144  1  0.797000  0.145000  0.898300  1
  H  H145  1  0.759000  0.196500  0.394400  1
  H  H146  1  0.741000  0.303500  0.394400  1
  H  H147  1  0.303500  0.759000  0.394400  1
  H  H148  1  0.196500  0.741000  0.394400  1
  H  H149  1  0.741000  0.196500  0.105600  1
  H  H150  1  0.759000  0.303500  0.105600  1
  H  H151  1  0.196500  0.759000  0.105600  1
  H  H152  1  0.303500  0.741000  0.105600  1
  H  H153  1  0.241000  0.803500  0.605600  1
  H  H154  1  0.259000  0.696500  0.605600  1
  H  H155  1  0.696500  0.241000  0.605600  1
  H  H156  1  0.803500  0.259000  0.605600  1
  H  H157  1  0.259000  0.803500  0.894400  1
  H  H158  1  0.241000  0.696500  0.894400  1
  H  H159  1  0.803500  0.241000  0.894400  1
  H  H160  1  0.696500  0.259000  0.894400  1
  H  H161  1  0.802100  0.283100  0.393600  1
  H  H162  1  0.697900  0.216900  0.393600  1
  H  H163  1  0.216900  0.802100  0.393600  1
  H  H164  1  0.283100  0.697900  0.393600  1
  H  H165  1  0.697900  0.283100  0.106400  1
  H  H166  1  0.802100  0.216900  0.106400  1
  H  H167  1  0.283100  0.802100  0.106400  1
  H  H168  1  0.216900  0.697900  0.106400  1
  H  H169  1  0.197900  0.716900  0.606400  1
  H  H170  1  0.302100  0.783100  0.606400  1
  H  H171  1  0.783100  0.197900  0.606400  1
  H  H172  1  0.716900  0.302100  0.606400  1
  H  H173  1  0.302100  0.716900  0.893600  1
  H  H174  1  0.197900  0.783100  0.893600  1
  H  H175  1  0.716900  0.197900  0.893600  1
  H  H176  1  0.783100  0.302100  0.893600  1
  H  H177  1  0.660400  0.262200  0.291800  1
  H  H178  1  0.839600  0.237800  0.291800  1
  H  H179  1  0.237800  0.660400  0.291800  1
  H  H180  1  0.262200  0.839600  0.291800  1
  H  H181  1  0.839600  0.262200  0.208200  1
  H  H182  1  0.660400  0.237800  0.208200  1
  H  H183  1  0.262200  0.660400  0.208200  1
  H  H184  1  0.237800  0.839600  0.208200  1
  H  H185  1  0.339600  0.737800  0.708200  1
  H  H186  1  0.160400  0.762200  0.708200  1
  H  H187  1  0.762200  0.339600  0.708200  1
  H  H188  1  0.737800  0.160400  0.708200  1
  H  H189  1  0.160400  0.737800  0.791800  1
  H  H190  1  0.339600  0.762200  0.791800  1
  H  H191  1  0.737800  0.339600  0.791800  1
  H  H192  1  0.762200  0.160400  0.791800  1
  H  H193  1  0.785200  0.294000  0.269900  1
  H  H194  1  0.714800  0.206000  0.269900  1
  H  H195  1  0.206000  0.785200  0.269900  1
  H  H196  1  0.294000  0.714800  0.269900  1
  H  H197  1  0.714800  0.294000  0.230100  1
  H  H198  1  0.785200  0.206000  0.230100  1
  H  H199  1  0.294000  0.785200  0.230100  1
  H  H200  1  0.206000  0.714800  0.230100  1
  H  H201  1  0.214800  0.706000  0.730100  1
  H  H202  1  0.285200  0.794000  0.730100  1
  H  H203  1  0.794000  0.214800  0.730100  1
  H  H204  1  0.706000  0.285200  0.730100  1
  H  H205  1  0.285200  0.706000  0.769900  1
  H  H206  1  0.214800  0.794000  0.769900  1
  H  H207  1  0.706000  0.214800  0.769900  1
  H  H208  1  0.794000  0.285200  0.769900  1
  H  H209  1  0.769700  0.198500  0.271000  1
  H  H210  1  0.730300  0.301500  0.271000  1
  H  H211  1  0.301500  0.769700  0.271000  1
  H  H212  1  0.198500  0.730300  0.271000  1
  H  H213  1  0.730300  0.198500  0.229000  1
  H  H214  1  0.769700  0.301500  0.229000  1
  H  H215  1  0.198500  0.769700  0.229000  1
  H  H216  1  0.301500  0.730300  0.229000  1
  H  H217  1  0.230300  0.801500  0.729000  1
  H  H218  1  0.269700  0.698500  0.729000  1
  H  H219  1  0.698500  0.230300  0.729000  1
  H  H220  1  0.801500  0.269700  0.729000  1
  H  H221  1  0.269700  0.801500  0.771000  1
  H  H222  1  0.230300  0.698500  0.771000  1
  H  H223  1  0.801500  0.230300  0.771000  1
  H  H224  1  0.698500  0.269700  0.771000  1
  H  H225  1  0.828600  0.198500  0.415300  1
  H  H226  1  0.671400  0.301500  0.415300  1
  H  H227  1  0.301500  0.828600  0.415300  1
  H  H228  1  0.198500  0.671400  0.415300  1
  H  H229  1  0.671400  0.198500  0.084700  1
  H  H230  1  0.828600  0.301500  0.084700  1
  H  H231  1  0.198500  0.828600  0.084700  1
  H  H232  1  0.301500  0.671400  0.084700  1
  H  H233  1  0.171400  0.801500  0.584700  1
  H  H234  1  0.328600  0.698500  0.584700  1
  H  H235  1  0.698500  0.171400  0.584700  1
  H  H236  1  0.801500  0.328600  0.584700  1
  H  H237  1  0.328600  0.801500  0.915300  1
  H  H238  1  0.171400  0.698500  0.915300  1
  H  H239  1  0.801500  0.171400  0.915300  1
  H  H240  1  0.698500  0.328600  0.915300  1
  H  H241  1  0.788400  0.272000  0.432700  1
  H  H242  1  0.711600  0.228000  0.432700  1
  H  H243  1  0.228000  0.788400  0.432700  1
  H  H244  1  0.272000  0.711600  0.432700  1
  H  H245  1  0.711600  0.272000  0.067300  1
  H  H246  1  0.788400  0.228000  0.067300  1
  H  H247  1  0.272000  0.788400  0.067300  1
  H  H248  1  0.228000  0.711600  0.067300  1
  H  H249  1  0.211600  0.728000  0.567300  1
  H  H250  1  0.288400  0.772000  0.567300  1
  H  H251  1  0.772000  0.211600  0.567300  1
  H  H252  1  0.728000  0.288400  0.567300  1
  H  H253  1  0.288400  0.728000  0.932700  1
  H  H254  1  0.211600  0.772000  0.932700  1
  H  H255  1  0.728000  0.211600  0.932700  1
  H  H256  1  0.772000  0.288400  0.932700  1
  H  H257  1  0.867500  0.235800  0.449000  1
  H  H258  1  0.632500  0.264200  0.449000  1
  H  H259  1  0.264200  0.867500  0.449000  1
  H  H260  1  0.235800  0.632500  0.449000  1
  H  H261  1  0.632500  0.235800  0.051000  1
  H  H262  1  0.867500  0.264200  0.051000  1
  H  H263  1  0.235800  0.867500  0.051000  1
  H  H264  1  0.264200  0.632500  0.051000  1
  H  H265  1  0.132500  0.764200  0.551000  1
  H  H266  1  0.367500  0.735800  0.551000  1
  H  H267  1  0.735800  0.132500  0.551000  1
  H  H268  1  0.764200  0.367500  0.551000  1
  H  H269  1  0.367500  0.764200  0.949000  1
  H  H270  1  0.132500  0.735800  0.949000  1
  H  H271  1  0.764200  0.132500  0.949000  1
  H  H272  1  0.735800  0.367500  0.949000  1
  H  H273  1  0.690800  0.204500  0.467900  1
  H  H274  1  0.809200  0.295500  0.467900  1
  H  H275  1  0.295500  0.690800  0.467900  1
  H  H276  1  0.204500  0.809200  0.467900  1
  H  H277  1  0.809200  0.204500  0.032100  1
  H  H278  1  0.690800  0.295500  0.032100  1
  H  H279  1  0.204500  0.690800  0.032100  1
  H  H280  1  0.295500  0.809200  0.032100  1
  H  H281  1  0.309200  0.795500  0.532100  1
  H  H282  1  0.190800  0.704500  0.532100  1
  H  H283  1  0.704500  0.309200  0.532100  1
  H  H284  1  0.795500  0.190800  0.532100  1
  H  H285  1  0.190800  0.795500  0.967900  1
  H  H286  1  0.309200  0.704500  0.967900  1
  H  H287  1  0.795500  0.309200  0.967900  1
  H  H288  1  0.704500  0.190800  0.967900  1
  H  H289  1  0.774400  0.095800  0.440800  1
  H  H290  1  0.725600  0.404200  0.440800  1
  H  H291  1  0.404200  0.774400  0.440800  1
  H  H292  1  0.095800  0.725600  0.440800  1
  H  H293  1  0.725600  0.095800  0.059200  1
  H  H294  1  0.774400  0.404200  0.059200  1
  H  H295  1  0.095800  0.774400  0.059200  1
  H  H296  1  0.404200  0.725600  0.059200  1
  H  H297  1  0.225600  0.904200  0.559200  1
  H  H298  1  0.274400  0.595800  0.559200  1
  H  H299  1  0.595800  0.225600  0.559200  1
  H  H300  1  0.904200  0.274400  0.559200  1
  H  H301  1  0.274400  0.904200  0.940800  1
  H  H302  1  0.225600  0.595800  0.940800  1
  H  H303  1  0.904200  0.225600  0.940800  1
  H  H304  1  0.595800  0.274400  0.940800  1
  H  H305  1  0.762600  0.999800  0.441400  1
  H  H306  1  0.737400  0.500200  0.441400  1
  H  H307  1  0.500200  0.762600  0.441400  1
  H  H308  1  0.999800  0.737400  0.441400  1
  H  H309  1  0.737400  0.999800  0.058600  1
  H  H310  1  0.762600  0.500200  0.058600  1
  H  H311  1  0.999800  0.762600  0.058600  1
  H  H312  1  0.500200  0.737400  0.058600  1
  H  H313  1  0.237400  0.000200  0.558600  1
  H  H314  1  0.262600  0.499800  0.558600  1
  H  H315  1  0.499800  0.237400  0.558600  1
  H  H316  1  0.000200  0.262600  0.558600  1
  H  H317  1  0.262600  0.000200  0.941400  1
  H  H318  1  0.237400  0.499800  0.941400  1
  H  H319  1  0.000200  0.237400  0.941400  1
  H  H320  1  0.499800  0.262600  0.941400  1
  H  H321  1  0.851600  0.037700  0.442000  1
  H  H322  1  0.648400  0.462300  0.442000  1
  H  H323  1  0.462300  0.851600  0.442000  1
  H  H324  1  0.037700  0.648400  0.442000  1
  H  H325  1  0.648400  0.037700  0.058000  1
  H  H326  1  0.851600  0.462300  0.058000  1
  H  H327  1  0.037700  0.851600  0.058000  1
  H  H328  1  0.462300  0.648400  0.058000  1
  H  H329  1  0.148400  0.962300  0.558000  1
  H  H330  1  0.351600  0.537700  0.558000  1
  H  H331  1  0.537700  0.148400  0.558000  1
  H  H332  1  0.962300  0.351600  0.558000  1
  H  H333  1  0.351600  0.962300  0.942000  1
  H  H334  1  0.148400  0.537700  0.942000  1
  H  H335  1  0.962300  0.148400  0.942000  1
  H  H336  1  0.537700  0.351600  0.942000  1
  H  H337  1  0.763500  0.227000  0.440500  1.0
  H  H338  1  0.736500  0.273000  0.440500  1.0
  H  H339  1  0.273000  0.763500  0.440500  1.0
  H  H340  1  0.227000  0.736500  0.440500  1.0
  H  H341  1  0.736500  0.227000  0.059500  1.0
  H  H342  1  0.763500  0.273000  0.059500  1.0
  H  H343  1  0.227000  0.763500  0.059500  1.0
  H  H344  1  0.273000  0.736500  0.059500  1.0
  H  H345  1  0.236500  0.773000  0.559500  1.0
  H  H346  1  0.263500  0.727000  0.559500  1.0
  H  H347  1  0.727000  0.236500  0.559500  1.0
  H  H348  1  0.773000  0.263500  0.559500  1.0
  H  H349  1  0.263500  0.773000  0.940500  1.0
  H  H350  1  0.236500  0.727000  0.940500  1.0
  H  H351  1  0.773000  0.236500  0.940500  1.0
  H  H352  1  0.727000  0.263500  0.940500  1.0
  H  H353  1  0.735400  0.175200  0.411000  1.0
  H  H354  1  0.764600  0.324800  0.411000  1.0
  H  H355  1  0.324800  0.735400  0.411000  1.0
  H  H356  1  0.175200  0.764600  0.411000  1.0
  H  H357  1  0.764600  0.175200  0.089000  1.0
  H  H358  1  0.735400  0.324800  0.089000  1.0
  H  H359  1  0.175200  0.735400  0.089000  1.0
  H  H360  1  0.324800  0.764600  0.089000  1.0
  H  H361  1  0.264600  0.824800  0.589000  1.0
  H  H362  1  0.235400  0.675200  0.589000  1.0
  H  H363  1  0.675200  0.264600  0.589000  1.0
  H  H364  1  0.824800  0.235400  0.589000  1.0
  H  H365  1  0.235400  0.824800  0.911000  1.0
  H  H366  1  0.264600  0.675200  0.911000  1.0
  H  H367  1  0.824800  0.264600  0.911000  1.0
  H  H368  1  0.675200  0.235400  0.911000  1.0
  H  H369  1  0.472400  0.746600  0.390300  1.0
  H  H370  1  0.027600  0.753400  0.390300  1.0
  H  H371  1  0.753400  0.472400  0.390300  1.0
  H  H372  1  0.746600  0.027600  0.390300  1.0
  H  H373  1  0.027600  0.746600  0.109700  1.0
  H  H374  1  0.472400  0.753400  0.109700  1.0
  H  H375  1  0.746600  0.472400  0.109700  1.0
  H  H376  1  0.753400  0.027600  0.109700  1.0
  H  H377  1  0.527600  0.253400  0.609700  1.0
  H  H378  1  0.972400  0.246600  0.609700  1.0
  H  H379  1  0.246600  0.527600  0.609700  1.0
  H  H380  1  0.253400  0.972400  0.609700  1.0
  H  H381  1  0.972400  0.253400  0.890300  1.0
  H  H382  1  0.527600  0.246600  0.890300  1.0
  H  H383  1  0.253400  0.527600  0.890300  1.0
  H  H384  1  0.246600  0.972400  0.890300  1.0
  H  H385  1  0.610400  0.766500  0.390100  1.0
  H  H386  1  0.889600  0.733500  0.390100  1.0
  H  H387  1  0.733500  0.610400  0.390100  1.0
  H  H388  1  0.766500  0.889600  0.390100  1.0
  H  H389  1  0.889600  0.766500  0.109900  1.0
  H  H390  1  0.610400  0.733500  0.109900  1.0
  H  H391  1  0.766500  0.610400  0.109900  1.0
  H  H392  1  0.733500  0.889600  0.109900  1.0
  H  H393  1  0.389600  0.233500  0.609900  1.0
  H  H394  1  0.110400  0.266500  0.609900  1.0
  H  H395  1  0.266500  0.389600  0.609900  1.0
  H  H396  1  0.233500  0.110400  0.609900  1.0
  H  H397  1  0.110400  0.233500  0.890100  1.0
  H  H398  1  0.389600  0.266500  0.890100  1.0
  H  H399  1  0.233500  0.389600  0.890100  1.0
  H  H400  1  0.266500  0.110400  0.890100  1.0
  H  H401  1  0.406100  0.706400  0.345600  1.0
  H  H402  1  0.093900  0.793600  0.345600  1.0
  H  H403  1  0.793600  0.406100  0.345600  1.0
  H  H404  1  0.706400  0.093900  0.345600  1.0
  H  H405  1  0.093900  0.706400  0.154400  1.0
  H  H406  1  0.406100  0.793600  0.154400  1.0
  H  H407  1  0.706400  0.406100  0.154400  1.0
  H  H408  1  0.793600  0.093900  0.154400  1.0
  H  H409  1  0.593900  0.293600  0.654400  1.0
  H  H410  1  0.906100  0.206400  0.654400  1.0
  H  H411  1  0.206400  0.593900  0.654400  1.0
  H  H412  1  0.293600  0.906100  0.654400  1.0
  H  H413  1  0.906100  0.293600  0.845600  1.0
  H  H414  1  0.593900  0.206400  0.845600  1.0
  H  H415  1  0.293600  0.593900  0.845600  1.0
  H  H416  1  0.206400  0.906100  0.845600  1.0
  H  H417  1  0.621600  0.706100  0.301400  1.0
  H  H418  1  0.878400  0.793900  0.301400  1.0
  H  H419  1  0.793900  0.621600  0.301400  1.0
  H  H420  1  0.706100  0.878400  0.301400  1.0
  H  H421  1  0.878400  0.706100  0.198600  1.0
  H  H422  1  0.621600  0.793900  0.198600  1.0
  H  H423  1  0.706100  0.621600  0.198600  1.0
  H  H424  1  0.793900  0.878400  0.198600  1.0
  H  H425  1  0.378400  0.293900  0.698600  1.0
  H  H426  1  0.121600  0.206100  0.698600  1.0
  H  H427  1  0.206100  0.378400  0.698600  1.0
  H  H428  1  0.293900  0.121600  0.698600  1.0
  H  H429  1  0.121600  0.293900  0.801400  1.0
  H  H430  1  0.378400  0.206100  0.801400  1.0
  H  H431  1  0.293900  0.378400  0.801400  1.0
  H  H432  1  0.206100  0.121600  0.801400  1.0
  H  H433  1  0.330500  0.529900  0.264200  1.0
  H  H434  1  0.169500  0.970100  0.264200  1.0
  H  H435  1  0.970100  0.330500  0.264200  1.0
  H  H436  1  0.529900  0.169500  0.264200  1.0
  H  H437  1  0.169500  0.529900  0.235800  1.0
  H  H438  1  0.330500  0.970100  0.235800  1.0
  H  H439  1  0.529900  0.330500  0.235800  1.0
  H  H440  1  0.970100  0.169500  0.235800  1.0
  H  H441  1  0.669500  0.470100  0.735800  1.0
  H  H442  1  0.830500  0.029900  0.735800  1.0
  H  H443  1  0.029900  0.669500  0.735800  1.0
  H  H444  1  0.470100  0.830500  0.735800  1.0
  H  H445  1  0.830500  0.470100  0.764200  1.0
  H  H446  1  0.669500  0.029900  0.764200  1.0
  H  H447  1  0.470100  0.669500  0.764200  1.0
  H  H448  1  0.029900  0.830500  0.764200  1.0
  H  H449  1  0.299800  0.438200  0.226100  1.0
  H  H450  1  0.200200  0.061800  0.226100  1.0
  H  H451  1  0.061800  0.299800  0.226100  1.0
  H  H452  1  0.438200  0.200200  0.226100  1.0
  H  H453  1  0.200200  0.438200  0.273900  1.0
  H  H454  1  0.299800  0.061800  0.273900  1.0
  H  H455  1  0.438200  0.299800  0.273900  1.0
  H  H456  1  0.061800  0.200200  0.273900  1.0
  H  H457  1  0.700200  0.561800  0.773900  1.0
  H  H458  1  0.799800  0.938200  0.773900  1.0
  H  H459  1  0.938200  0.700200  0.773900  1.0
  H  H460  1  0.561800  0.799800  0.773900  1.0
  H  H461  1  0.799800  0.561800  0.726100  1.0
  H  H462  1  0.700200  0.938200  0.726100  1.0
  H  H463  1  0.561800  0.700200  0.726100  1.0
  H  H464  1  0.938200  0.799800  0.726100  1.0
  H  H465  1  0.510900  0.619300  0.211300  1.0
  H  H466  1  0.989100  0.880700  0.211300  1.0
  H  H467  1  0.880700  0.510900  0.211300  1.0
  H  H468  1  0.619300  0.989100  0.211300  1.0
  H  H469  1  0.989100  0.619300  0.288700  1.0
  H  H470  1  0.510900  0.880700  0.288700  1.0
  H  H471  1  0.619300  0.510900  0.288700  1.0
  H  H472  1  0.880700  0.989100  0.288700  1.0
  H  H473  1  0.489100  0.380700  0.788700  1.0
  H  H474  1  0.010900  0.119300  0.788700  1.0
  H  H475  1  0.119300  0.489100  0.788700  1.0
  H  H476  1  0.380700  0.010900  0.788700  1.0
  H  H477  1  0.010900  0.380700  0.711300  1.0
  H  H478  1  0.489100  0.119300  0.711300  1.0
  H  H479  1  0.380700  0.489100  0.711300  1.0
  H  H480  1  0.119300  0.010900  0.711300  1.0
  H  H481  1  0.343000  0.423200  0.155100  1.0
  H  H482  1  0.157000  0.076800  0.155100  1.0
  H  H483  1  0.076800  0.343000  0.155100  1.0
  H  H484  1  0.423200  0.157000  0.155100  1.0
  H  H485  1  0.157000  0.423200  0.344900  1.0
  H  H486  1  0.343000  0.076800  0.344900  1.0
  H  H487  1  0.423200  0.343000  0.344900  1.0
  H  H488  1  0.076800  0.157000  0.344900  1.0
  H  H489  1  0.657000  0.576800  0.844900  1.0
  H  H490  1  0.843000  0.923200  0.844900  1.0
  H  H491  1  0.923200  0.657000  0.844900  1.0
  H  H492  1  0.576800  0.843000  0.844900  1.0
  H  H493  1  0.843000  0.576800  0.655100  1.0
  H  H494  1  0.657000  0.923200  0.655100  1.0
  H  H495  1  0.576800  0.657000  0.655100  1.0
  H  H496  1  0.923200  0.843000  0.655100  1.0
  H  H497  1  0.332500  0.363200  0.184100  1.0
  H  H498  1  0.167500  0.136800  0.184100  1.0
  H  H499  1  0.136800  0.332500  0.184100  1.0
  H  H500  1  0.363200  0.167500  0.184100  1.0
  H  H501  1  0.167500  0.363200  0.315900  1.0
  H  H502  1  0.332500  0.136800  0.315900  1.0
  H  H503  1  0.363200  0.332500  0.315900  1.0
  H  H504  1  0.136800  0.167500  0.315900  1.0
  H  H505  1  0.667500  0.636800  0.815900  1.0
  H  H506  1  0.832500  0.863200  0.815900  1.0
  H  H507  1  0.863200  0.667500  0.815900  1.0
  H  H508  1  0.636800  0.832500  0.815900  1.0
  H  H509  1  0.832500  0.636800  0.684100  1.0
  H  H510  1  0.667500  0.863200  0.684100  1.0
  H  H511  1  0.636800  0.667500  0.684100  1.0
  H  H512  1  0.863200  0.832500  0.684100  1.0
  H  H513  1  0.485400  0.356700  0.181900  1.0
  H  H514  1  0.014600  0.143300  0.181900  1.0
  H  H515  1  0.143300  0.485400  0.181900  1.0
  H  H516  1  0.356700  0.014600  0.181900  1.0
  H  H517  1  0.014600  0.356700  0.318100  1.0
  H  H518  1  0.485400  0.143300  0.318100  1.0
  H  H519  1  0.356700  0.485400  0.318100  1.0
  H  H520  1  0.143300  0.014600  0.318100  1.0
  H  H521  1  0.514600  0.643300  0.818100  1.0
  H  H522  1  0.985400  0.856700  0.818100  1.0
  H  H523  1  0.856700  0.514600  0.818100  1.0
  H  H524  1  0.643300  0.985400  0.818100  1.0
  H  H525  1  0.985400  0.643300  0.681900  1.0
  H  H526  1  0.514600  0.856700  0.681900  1.0
  H  H527  1  0.643300  0.514600  0.681900  1.0
  H  H528  1  0.856700  0.985400  0.681900  1.0
  H  H529  1  0.433200  0.299800  0.159400  1.0
  H  H530  1  0.066800  0.200200  0.159400  1.0
  H  H531  1  0.200200  0.433200  0.159400  1.0
  H  H532  1  0.299800  0.066800  0.159400  1.0
  H  H533  1  0.066800  0.299800  0.340600  1.0
  H  H534  1  0.433200  0.200200  0.340600  1.0
  H  H535  1  0.299800  0.433200  0.340600  1.0
  H  H536  1  0.200200  0.066800  0.340600  1.0
  H  H537  1  0.566800  0.700200  0.840600  1.0
  H  H538  1  0.933200  0.799800  0.840600  1.0
  H  H539  1  0.799800  0.566800  0.840600  1.0
  H  H540  1  0.700200  0.933200  0.840600  1.0
  H  H541  1  0.933200  0.700200  0.659400  1.0
  H  H542  1  0.566800  0.799800  0.659400  1.0
  H  H543  1  0.700200  0.566800  0.659400  1.0
  H  H544  1  0.799800  0.933200  0.659400  1.0
  H  H545  1  0.493700  0.290100  0.113000  1.0
  H  H546  1  0.006300  0.209900  0.113000  1.0
  H  H547  1  0.209900  0.493700  0.113000  1.0
  H  H548  1  0.290100  0.006300  0.113000  1.0
  H  H549  1  0.006300  0.290100  0.387000  1.0
  H  H550  1  0.493700  0.209900  0.387000  1.0
  H  H551  1  0.290100  0.493700  0.387000  1.0
  H  H552  1  0.209900  0.006300  0.387000  1.0
  H  H553  1  0.506300  0.709900  0.887000  1.0
  H  H554  1  0.993700  0.790100  0.887000  1.0
  H  H555  1  0.790100  0.506300  0.887000  1.0
  H  H556  1  0.709900  0.993700  0.887000  1.0
  H  H557  1  0.993700  0.709900  0.613000  1.0
  H  H558  1  0.506300  0.790100  0.613000  1.0
  H  H559  1  0.709900  0.506300  0.613000  1.0
  H  H560  1  0.790100  0.993700  0.613000  1.0
  H  H561  1  0.541700  0.345700  0.065300  1.0
  H  H562  1  0.958300  0.154300  0.065300  1.0
  H  H563  1  0.154300  0.541700  0.065300  1.0
  H  H564  1  0.345700  0.958300  0.065300  1.0
  H  H565  1  0.958300  0.345700  0.434700  1.0
  H  H566  1  0.541700  0.154300  0.434700  1.0
  H  H567  1  0.345700  0.541700  0.434700  1.0
  H  H568  1  0.154300  0.958300  0.434700  1.0
  H  H569  1  0.458300  0.654300  0.934700  1.0
  H  H570  1  0.041700  0.845700  0.934700  1.0
  H  H571  1  0.845700  0.458300  0.934700  1.0
  H  H572  1  0.654300  0.041700  0.934700  1.0
  H  H573  1  0.041700  0.654300  0.565300  1.0
  H  H574  1  0.458300  0.845700  0.565300  1.0
  H  H575  1  0.654300  0.458300  0.565300  1.0
  H  H576  1  0.845700  0.041700  0.565300  1.0
  H  H577  1  0.539700  0.565900  0.105300  1.0
  H  H578  1  0.960300  0.934100  0.105300  1.0
  H  H579  1  0.934100  0.539700  0.105300  1.0
  H  H580  1  0.565900  0.960300  0.105300  1.0
  H  H581  1  0.960300  0.565900  0.394700  1.0
  H  H582  1  0.539700  0.934100  0.394700  1.0
  H  H583  1  0.565900  0.539700  0.394700  1.0
  H  H584  1  0.934100  0.960300  0.394700  1.0
  H  H585  1  0.460300  0.434100  0.894700  1.0
  H  H586  1  0.039700  0.065900  0.894700  1.0
  H  H587  1  0.065900  0.460300  0.894700  1.0
  H  H588  1  0.434100  0.039700  0.894700  1.0
  H  H589  1  0.039700  0.434100  0.605300  1.0
  H  H590  1  0.460300  0.065900  0.605300  1.0
  H  H591  1  0.434100  0.460300  0.605300  1.0
  H  H592  1  0.065900  0.039700  0.605300  1.0
  H  H593  1  0.599700  0.438900  0.972000  1.0
  H  H594  1  0.900300  0.061100  0.972000  1.0
  H  H595  1  0.061100  0.599700  0.972000  1.0
  H  H596  1  0.438900  0.900300  0.972000  1.0
  H  H597  1  0.900300  0.438900  0.528000  1.0
  H  H598  1  0.599700  0.061100  0.528000  1.0
  H  H599  1  0.438900  0.599700  0.528000  1.0
  H  H600  1  0.061100  0.900300  0.528000  1.0
  H  H601  1  0.400300  0.561100  0.028000  1.0
  H  H602  1  0.099700  0.938900  0.028000  1.0
  H  H603  1  0.938900  0.400300  0.028000  1.0
  H  H604  1  0.561100  0.099700  0.028000  1.0
  H  H605  1  0.099700  0.561100  0.472000  1.0
  H  H606  1  0.400300  0.938900  0.472000  1.0
  H  H607  1  0.561100  0.400300  0.472000  1.0
  H  H608  1  0.938900  0.099700  0.472000  1.0
  H  H609  1  0.651300  0.488100  0.925100  1.0
  H  H610  1  0.848700  0.011900  0.925100  1.0
  H  H611  1  0.011900  0.651300  0.925100  1.0
  H  H612  1  0.488100  0.848700  0.925100  1.0
  H  H613  1  0.848700  0.488100  0.574900  1.0
  H  H614  1  0.651300  0.011900  0.574900  1.0
  H  H615  1  0.488100  0.651300  0.574900  1.0
  H  H616  1  0.011900  0.848700  0.574900  1.0
  H  H617  1  0.348700  0.511900  0.074900  1.0
  H  H618  1  0.151300  0.988100  0.074900  1.0
  H  H619  1  0.988100  0.348700  0.074900  1.0
  H  H620  1  0.511900  0.151300  0.074900  1.0
  H  H621  1  0.151300  0.511900  0.425100  1.0
  H  H622  1  0.348700  0.988100  0.425100  1.0
  H  H623  1  0.511900  0.348700  0.425100  1.0
  H  H624  1  0.988100  0.151300  0.425100  1.0
  H  H625  1  0.707400  0.617000  0.922800  1.0
  H  H626  1  0.792600  0.883000  0.922800  1.0
  H  H627  1  0.883000  0.707400  0.922800  1.0
  H  H628  1  0.617000  0.792600  0.922800  1.0
  H  H629  1  0.792600  0.617000  0.577200  1.0
  H  H630  1  0.707400  0.883000  0.577200  1.0
  H  H631  1  0.617000  0.707400  0.577200  1.0
  H  H632  1  0.883000  0.792600  0.577200  1.0
  H  H633  1  0.292600  0.383000  0.077200  1.0
  H  H634  1  0.207400  0.117000  0.077200  1.0
  H  H635  1  0.117000  0.292600  0.077200  1.0
  H  H636  1  0.383000  0.207400  0.077200  1.0
  H  H637  1  0.207400  0.383000  0.422800  1.0
  H  H638  1  0.292600  0.117000  0.422800  1.0
  H  H639  1  0.383000  0.292600  0.422800  1.0
  H  H640  1  0.117000  0.207400  0.422800  1.0
  H  H641  1  0.668700  0.651600  0.012100  1.0
  H  H642  1  0.831300  0.848400  0.012100  1.0
  H  H643  1  0.848400  0.668700  0.012100  1.0
  H  H644  1  0.651600  0.831300  0.012100  1.0
  H  H645  1  0.831300  0.651600  0.487900  1.0
  H  H646  1  0.668700  0.848400  0.487900  1.0
  H  H647  1  0.651600  0.668700  0.487900  1.0
  H  H648  1  0.848400  0.831300  0.487900  1.0
  H  H649  1  0.331300  0.348400  0.987900  1.0
  H  H650  1  0.168700  0.151600  0.987900  1.0
  H  H651  1  0.151600  0.331300  0.987900  1.0
  H  H652  1  0.348400  0.168700  0.987900  1.0
  H  H653  1  0.168700  0.348400  0.512100  1.0
  H  H654  1  0.331300  0.151600  0.512100  1.0
  H  H655  1  0.348400  0.331300  0.512100  1.0
  H  H656  1  0.151600  0.168700  0.512100  1.0
  Pd  Pd657  1  0.750000  0.750000  0.345930  1
  Pd  Pd658  1  0.750000  0.750000  0.154070  1
  Pd  Pd659  1  0.250000  0.250000  0.654070  1
  Pd  Pd660  1  0.250000  0.250000  0.845930  1
  Pd  Pd661  1  0.750000  0.750000  0.965870  1
  Pd  Pd662  1  0.750000  0.750000  0.534130  1
  Pd  Pd663  1  0.250000  0.250000  0.034130  1
  Pd  Pd664  1  0.250000  0.250000  0.465870  1
  C  C665  1  0.637000  0.283000  0.336800  1
  C  C666  1  0.863000  0.217000  0.336800  1
  C  C667  1  0.217000  0.637000  0.336800  1
  C  C668  1  0.283000  0.863000  0.336800  1
  C  C669  1  0.863000  0.283000  0.163200  1
  C  C670  1  0.637000  0.217000  0.163200  1
  C  C671  1  0.283000  0.637000  0.163200  1
  C  C672  1  0.217000  0.863000  0.163200  1
  C  C673  1  0.363000  0.717000  0.663200  1
  C  C674  1  0.137000  0.783000  0.663200  1
  C  C675  1  0.783000  0.363000  0.663200  1
  C  C676  1  0.717000  0.137000  0.663200  1
  C  C677  1  0.137000  0.717000  0.836800  1
  C  C678  1  0.363000  0.783000  0.836800  1
  C  C679  1  0.717000  0.363000  0.836800  1
  C  C680  1  0.783000  0.137000  0.836800  1
  C  C681  1  0.616000  0.314000  0.367600  1
  C  C682  1  0.884000  0.186000  0.367600  1
  C  C683  1  0.186000  0.616000  0.367600  1
  C  C684  1  0.314000  0.884000  0.367600  1
  C  C685  1  0.884000  0.314000  0.132400  1
  C  C686  1  0.616000  0.186000  0.132400  1
  C  C687  1  0.314000  0.616000  0.132400  1
  C  C688  1  0.186000  0.884000  0.132400  1
  C  C689  1  0.384000  0.686000  0.632400  1
  C  C690  1  0.116000  0.814000  0.632400  1
  C  C691  1  0.814000  0.384000  0.632400  1
  C  C692  1  0.686000  0.116000  0.632400  1
  C  C693  1  0.116000  0.686000  0.867600  1
  C  C694  1  0.384000  0.814000  0.867600  1
  C  C695  1  0.686000  0.384000  0.867600  1
  C  C696  1  0.814000  0.116000  0.867600  1
  C  C697  1  0.817000  0.219000  0.354500  1
  C  C698  1  0.683000  0.281000  0.354500  1
  C  C699  1  0.281000  0.817000  0.354500  1
  C  C700  1  0.219000  0.683000  0.354500  1
  C  C701  1  0.683000  0.219000  0.145500  1
  C  C702  1  0.817000  0.281000  0.145500  1
  C  C703  1  0.219000  0.817000  0.145500  1
  C  C704  1  0.281000  0.683000  0.145500  1
  C  C705  1  0.183000  0.781000  0.645500  1
  C  C706  1  0.317000  0.719000  0.645500  1
  C  C707  1  0.719000  0.183000  0.645500  1
  C  C708  1  0.781000  0.317000  0.645500  1
  C  C709  1  0.317000  0.781000  0.854500  1
  C  C710  1  0.183000  0.719000  0.854500  1
  C  C711  1  0.781000  0.183000  0.854500  1
  C  C712  1  0.719000  0.317000  0.854500  1
  C  C713  1  0.808000  0.226000  0.387900  1
  C  C714  1  0.692000  0.274000  0.387900  1
  C  C715  1  0.274000  0.808000  0.387900  1
  C  C716  1  0.226000  0.692000  0.387900  1
  C  C717  1  0.692000  0.226000  0.112100  1
  C  C718  1  0.808000  0.274000  0.112100  1
  C  C719  1  0.226000  0.808000  0.112100  1
  C  C720  1  0.274000  0.692000  0.112100  1
  C  C721  1  0.192000  0.774000  0.612100  1
  C  C722  1  0.308000  0.726000  0.612100  1
  C  C723  1  0.726000  0.192000  0.612100  1
  C  C724  1  0.774000  0.308000  0.612100  1
  C  C725  1  0.308000  0.774000  0.887900  1
  C  C726  1  0.192000  0.726000  0.887900  1
  C  C727  1  0.774000  0.192000  0.887900  1
  C  C728  1  0.726000  0.308000  0.887900  1
  C  C729  1  0.785000  0.246000  0.283200  1
  C  C730  1  0.715000  0.254000  0.283200  1
  C  C731  1  0.254000  0.785000  0.283200  1
  C  C732  1  0.246000  0.715000  0.283200  1
  C  C733  1  0.715000  0.246000  0.216800  1
  C  C734  1  0.785000  0.254000  0.216800  1
  C  C735  1  0.246000  0.785000  0.216800  1
  C  C736  1  0.254000  0.715000  0.216800  1
  C  C737  1  0.215000  0.754000  0.716800  1
  C  C738  1  0.285000  0.746000  0.716800  1
  C  C739  1  0.746000  0.215000  0.716800  1
  C  C740  1  0.754000  0.285000  0.716800  1
  C  C741  1  0.285000  0.754000  0.783200  1
  C  C742  1  0.215000  0.746000  0.783200  1
  C  C743  1  0.754000  0.215000  0.783200  1
  C  C744  1  0.746000  0.285000  0.783200  1
  C  C745  1  0.728000  0.257000  0.308700  1
  C  C746  1  0.772000  0.243000  0.308700  1
  C  C747  1  0.243000  0.728000  0.308700  1
  C  C748  1  0.257000  0.772000  0.308700  1
  C  C749  1  0.772000  0.257000  0.191300  1
  C  C750  1  0.728000  0.243000  0.191300  1
  C  C751  1  0.257000  0.728000  0.191300  1
  C  C752  1  0.243000  0.772000  0.191300  1
  C  C753  1  0.272000  0.743000  0.691300  1
  C  C754  1  0.228000  0.757000  0.691300  1
  C  C755  1  0.757000  0.272000  0.691300  1
  C  C756  1  0.743000  0.228000  0.691300  1
  C  C757  1  0.228000  0.743000  0.808700  1
  C  C758  1  0.272000  0.757000  0.808700  1
  C  C759  1  0.743000  0.272000  0.808700  1
  C  C760  1  0.757000  0.228000  0.808700  1
  C  C761  1  0.811000  0.252000  0.452300  1
  C  C762  1  0.689000  0.248000  0.452300  1
  C  C763  1  0.248000  0.811000  0.452300  1
  C  C764  1  0.252000  0.689000  0.452300  1
  C  C765  1  0.689000  0.252000  0.047700  1
  C  C766  1  0.811000  0.248000  0.047700  1
  C  C767  1  0.252000  0.811000  0.047700  1
  C  C768  1  0.248000  0.689000  0.047700  1
  C  C769  1  0.189000  0.748000  0.547700  1
  C  C770  1  0.311000  0.752000  0.547700  1
  C  C771  1  0.752000  0.189000  0.547700  1
  C  C772  1  0.748000  0.311000  0.547700  1
  C  C773  1  0.311000  0.748000  0.952300  1
  C  C774  1  0.189000  0.752000  0.952300  1
  C  C775  1  0.748000  0.189000  0.952300  1
  C  C776  1  0.752000  0.311000  0.952300  1
  C  C777  1  0.764000  0.183000  0.463300  1
  C  C778  1  0.736000  0.317000  0.463300  1
  C  C779  1  0.317000  0.764000  0.463300  1
  C  C780  1  0.183000  0.736000  0.463300  1
  C  C781  1  0.736000  0.183000  0.036700  1
  C  C782  1  0.764000  0.317000  0.036700  1
  C  C783  1  0.183000  0.764000  0.036700  1
  C  C784  1  0.317000  0.736000  0.036700  1
  C  C785  1  0.236000  0.817000  0.536700  1
  C  C786  1  0.264000  0.683000  0.536700  1
  C  C787  1  0.683000  0.236000  0.536700  1
  C  C788  1  0.817000  0.264000  0.536700  1
  C  C789  1  0.264000  0.817000  0.963300  1
  C  C790  1  0.236000  0.683000  0.963300  1
  C  C791  1  0.817000  0.236000  0.963300  1
  C  C792  1  0.683000  0.264000  0.963300  1
  C  C793  1  0.796000  0.045000  0.449000  1
  C  C794  1  0.704000  0.455000  0.449000  1
  C  C795  1  0.455000  0.796000  0.449000  1
  C  C796  1  0.045000  0.704000  0.449000  1
  C  C797  1  0.704000  0.045000  0.051000  1
  C  C798  1  0.796000  0.455000  0.051000  1
  C  C799  1  0.045000  0.796000  0.051000  1
  C  C800  1  0.455000  0.704000  0.051000  1
  C  C801  1  0.204000  0.955000  0.551000  1
  C  C802  1  0.296000  0.545000  0.551000  1
  C  C803  1  0.545000  0.204000  0.551000  1
  C  C804  1  0.955000  0.296000  0.551000  1
  C  C805  1  0.296000  0.955000  0.949000  1
  C  C806  1  0.204000  0.545000  0.949000  1
  C  C807  1  0.955000  0.204000  0.949000  1
  C  C808  1  0.545000  0.296000  0.949000  1
  C  C809  1  0.794000  0.046000  0.482800  1
  C  C810  1  0.706000  0.454000  0.482800  1
  C  C811  1  0.454000  0.794000  0.482800  1
  C  C812  1  0.046000  0.706000  0.482800  1
  C  C813  1  0.706000  0.046000  0.017200  1
  C  C814  1  0.794000  0.454000  0.017200  1
  C  C815  1  0.046000  0.794000  0.017200  1
  C  C816  1  0.454000  0.706000  0.017200  1
  C  C817  1  0.206000  0.954000  0.517200  1
  C  C818  1  0.294000  0.546000  0.517200  1
  C  C819  1  0.546000  0.206000  0.517200  1
  C  C820  1  0.954000  0.294000  0.517200  1
  C  C821  1  0.294000  0.954000  0.982800  1
  C  C822  1  0.206000  0.546000  0.982800  1
  C  C823  1  0.954000  0.206000  0.982800  1
  C  C824  1  0.546000  0.294000  0.982800  1
  C  C825  1  0.792000  0.109000  0.443600  1.0
  C  C826  1  0.708000  0.391000  0.443600  1.0
  C  C827  1  0.391000  0.792000  0.443600  1.0
  C  C828  1  0.109000  0.708000  0.443600  1.0
  C  C829  1  0.708000  0.109000  0.056400  1.0
  C  C830  1  0.792000  0.391000  0.056400  1.0
  C  C831  1  0.109000  0.792000  0.056400  1.0
  C  C832  1  0.391000  0.708000  0.056400  1.0
  C  C833  1  0.208000  0.891000  0.556400  1.0
  C  C834  1  0.292000  0.609000  0.556400  1.0
  C  C835  1  0.609000  0.208000  0.556400  1.0
  C  C836  1  0.891000  0.292000  0.556400  1.0
  C  C837  1  0.292000  0.891000  0.943600  1.0
  C  C838  1  0.208000  0.609000  0.943600  1.0
  C  C839  1  0.891000  0.208000  0.943600  1.0
  C  C840  1  0.609000  0.292000  0.943600  1.0
  C  C841  1  0.779000  0.184000  0.426200  1.0
  C  C842  1  0.721000  0.316000  0.426200  1.0
  C  C843  1  0.316000  0.779000  0.426200  1.0
  C  C844  1  0.184000  0.721000  0.426200  1.0
  C  C845  1  0.721000  0.184000  0.073800  1.0
  C  C846  1  0.779000  0.316000  0.073800  1.0
  C  C847  1  0.184000  0.779000  0.073800  1.0
  C  C848  1  0.316000  0.721000  0.073800  1.0
  C  C849  1  0.221000  0.816000  0.573800  1.0
  C  C850  1  0.279000  0.684000  0.573800  1.0
  C  C851  1  0.684000  0.221000  0.573800  1.0
  C  C852  1  0.816000  0.279000  0.573800  1.0
  C  C853  1  0.279000  0.816000  0.926200  1.0
  C  C854  1  0.221000  0.684000  0.926200  1.0
  C  C855  1  0.816000  0.221000  0.926200  1.0
  C  C856  1  0.684000  0.279000  0.926200  1.0
  C  C857  1  0.502200  0.737600  0.371800  1.0
  C  C858  1  0.997800  0.762400  0.371800  1.0
  C  C859  1  0.762400  0.502200  0.371800  1.0
  C  C860  1  0.737600  0.997800  0.371800  1.0
  C  C861  1  0.997800  0.737600  0.128200  1.0
  C  C862  1  0.502200  0.762400  0.128200  1.0
  C  C863  1  0.737600  0.502200  0.128200  1.0
  C  C864  1  0.762400  0.997800  0.128200  1.0
  C  C865  1  0.497800  0.262400  0.628200  1.0
  C  C866  1  0.002200  0.237600  0.628200  1.0
  C  C867  1  0.237600  0.497800  0.628200  1.0
  C  C868  1  0.262400  0.002200  0.628200  1.0
  C  C869  1  0.002200  0.262400  0.871800  1.0
  C  C870  1  0.497800  0.237600  0.871800  1.0
  C  C871  1  0.262400  0.497800  0.871800  1.0
  C  C872  1  0.237600  0.002200  0.871800  1.0
  C  C873  1  0.584300  0.749000  0.371600  1.0
  C  C874  1  0.915700  0.751000  0.371600  1.0
  C  C875  1  0.751000  0.584300  0.371600  1.0
  C  C876  1  0.749000  0.915700  0.371600  1.0
  C  C877  1  0.915700  0.749000  0.128400  1.0
  C  C878  1  0.584300  0.751000  0.128400  1.0
  C  C879  1  0.749000  0.584300  0.128400  1.0
  C  C880  1  0.751000  0.915700  0.128400  1.0
  C  C881  1  0.415700  0.251000  0.628400  1.0
  C  C882  1  0.084300  0.249000  0.628400  1.0
  C  C883  1  0.249000  0.415700  0.628400  1.0
  C  C884  1  0.251000  0.084300  0.628400  1.0
  C  C885  1  0.084300  0.251000  0.871600  1.0
  C  C886  1  0.415700  0.249000  0.871600  1.0
  C  C887  1  0.251000  0.415700  0.871600  1.0
  C  C888  1  0.249000  0.084300  0.871600  1.0
  C  C889  1  0.463100  0.713500  0.345600  1.0
  C  C890  1  0.036900  0.786500  0.345600  1.0
  C  C891  1  0.786500  0.463100  0.345600  1.0
  C  C892  1  0.713500  0.036900  0.345600  1.0
  C  C893  1  0.036900  0.713500  0.154400  1.0
  C  C894  1  0.463100  0.786500  0.154400  1.0
  C  C895  1  0.713500  0.463100  0.154400  1.0
  C  C896  1  0.786500  0.036900  0.154400  1.0
  C  C897  1  0.536900  0.286500  0.654400  1.0
  C  C898  1  0.963100  0.213500  0.654400  1.0
  C  C899  1  0.213500  0.536900  0.654400  1.0
  C  C900  1  0.286500  0.963100  0.654400  1.0
  C  C901  1  0.963100  0.286500  0.845600  1.0
  C  C902  1  0.536900  0.213500  0.845600  1.0
  C  C903  1  0.286500  0.536900  0.845600  1.0
  C  C904  1  0.213500  0.963100  0.845600  1.0
  C  C905  1  0.508500  0.699300  0.318800  1.0
  C  C906  1  0.991500  0.800700  0.318800  1.0
  C  C907  1  0.800700  0.508500  0.318800  1.0
  C  C908  1  0.699300  0.991500  0.318800  1.0
  C  C909  1  0.991500  0.699300  0.181200  1.0
  C  C910  1  0.508500  0.800700  0.181200  1.0
  C  C911  1  0.699300  0.508500  0.181200  1.0
  C  C912  1  0.800700  0.991500  0.181200  1.0
  C  C913  1  0.491500  0.300700  0.681200  1.0
  C  C914  1  0.008500  0.199300  0.681200  1.0
  C  C915  1  0.199300  0.491500  0.681200  1.0
  C  C916  1  0.300700  0.008500  0.681200  1.0
  C  C917  1  0.008500  0.300700  0.818800  1.0
  C  C918  1  0.491500  0.199300  0.818800  1.0
  C  C919  1  0.300700  0.491500  0.818800  1.0
  C  C920  1  0.199300  0.008500  0.818800  1.0
  C  C921  1  0.590800  0.713100  0.319900  1.0
  C  C922  1  0.909200  0.786900  0.319900  1.0
  C  C923  1  0.786900  0.590800  0.319900  1.0
  C  C924  1  0.713100  0.909200  0.319900  1.0
  C  C925  1  0.909200  0.713100  0.180100  1.0
  C  C926  1  0.590800  0.786900  0.180100  1.0
  C  C927  1  0.713100  0.590800  0.180100  1.0
  C  C928  1  0.786900  0.909200  0.180100  1.0
  C  C929  1  0.409200  0.286900  0.680100  1.0
  C  C930  1  0.090800  0.213100  0.680100  1.0
  C  C931  1  0.213100  0.409200  0.680100  1.0
  C  C932  1  0.286900  0.090800  0.680100  1.0
  C  C933  1  0.090800  0.286900  0.819900  1.0
  C  C934  1  0.409200  0.213100  0.819900  1.0
  C  C935  1  0.286900  0.409200  0.819900  1.0
  C  C936  1  0.213100  0.090800  0.819900  1.0
  C  C937  1  0.474500  0.666667  0.290500  1.0
  C  C938  1  0.025500  0.833333  0.290500  1.0
  C  C939  1  0.833333  0.474500  0.290500  1.0
  C  C940  1  0.666667  0.025500  0.290500  1.0
  C  C941  1  0.025500  0.666667  0.209500  1.0
  C  C942  1  0.474500  0.833333  0.209500  1.0
  C  C943  1  0.666667  0.474500  0.209500  1.0
  C  C944  1  0.833333  0.025500  0.209500  1.0
  C  C945  1  0.525500  0.333333  0.709500  1.0
  C  C946  1  0.974500  0.166667  0.709500  1.0
  C  C947  1  0.166667  0.525500  0.709500  1.0
  C  C948  1  0.333333  0.974500  0.709500  1.0
  C  C949  1  0.974500  0.333333  0.790500  1.0
  C  C950  1  0.525500  0.166667  0.790500  1.0
  C  C951  1  0.333333  0.525500  0.790500  1.0
  C  C952  1  0.166667  0.974500  0.790500  1.0
  C  C953  1  0.450500  0.632600  0.267900  1.0
  C  C954  1  0.049500  0.867400  0.267900  1.0
  C  C955  1  0.867400  0.450500  0.267900  1.0
  C  C956  1  0.632600  0.049500  0.267900  1.0
  C  C957  1  0.049500  0.632600  0.232100  1.0
  C  C958  1  0.450500  0.867400  0.232100  1.0
  C  C959  1  0.632600  0.450500  0.232100  1.0
  C  C960  1  0.867400  0.049500  0.232100  1.0
  C  C961  1  0.549500  0.367400  0.732100  1.0
  C  C962  1  0.950500  0.132600  0.732100  1.0
  C  C963  1  0.132600  0.549500  0.732100  1.0
  C  C964  1  0.367400  0.950500  0.732100  1.0
  C  C965  1  0.950500  0.367400  0.767900  1.0
  C  C966  1  0.549500  0.132600  0.767900  1.0
  C  C967  1  0.367400  0.549500  0.767900  1.0
  C  C968  1  0.132600  0.950500  0.767900  1.0
  C  C969  1  0.426000  0.582600  0.242000  1.0
  C  C970  1  0.074000  0.917400  0.242000  1.0
  C  C971  1  0.917400  0.426000  0.242000  1.0
  C  C972  1  0.582600  0.074000  0.242000  1.0
  C  C973  1  0.074000  0.582600  0.258000  1.0
  C  C974  1  0.426000  0.917400  0.258000  1.0
  C  C975  1  0.582600  0.426000  0.258000  1.0
  C  C976  1  0.917400  0.074000  0.258000  1.0
  C  C977  1  0.574000  0.417400  0.758000  1.0
  C  C978  1  0.926000  0.082600  0.758000  1.0
  C  C979  1  0.082600  0.574000  0.758000  1.0
  C  C980  1  0.417400  0.926000  0.758000  1.0
  C  C981  1  0.926000  0.417400  0.742000  1.0
  C  C982  1  0.574000  0.082600  0.742000  1.0
  C  C983  1  0.417400  0.574000  0.742000  1.0
  C  C984  1  0.082600  0.926000  0.742000  1.0
  C  C985  1  0.361900  0.528600  0.245800  1.0
  C  C986  1  0.138100  0.971400  0.245800  1.0
  C  C987  1  0.971400  0.361900  0.245800  1.0
  C  C988  1  0.528600  0.138100  0.245800  1.0
  C  C989  1  0.138100  0.528600  0.254200  1.0
  C  C990  1  0.361900  0.971400  0.254200  1.0
  C  C991  1  0.528600  0.361900  0.254200  1.0
  C  C992  1  0.971400  0.138100  0.254200  1.0
  C  C993  1  0.638100  0.471400  0.754200  1.0
  C  C994  1  0.861900  0.028600  0.754200  1.0
  C  C995  1  0.028600  0.638100  0.754200  1.0
  C  C996  1  0.471400  0.861900  0.754200  1.0
  C  C997  1  0.861900  0.471400  0.745800  1.0
  C  C998  1  0.638100  0.028600  0.745800  1.0
  C  C999  1  0.471400  0.638100  0.745800  1.0
  C  C1000  1  0.028600  0.861900  0.745800  1.0
  C  C1001  1  0.344100  0.473900  0.223100  1.0
  C  C1002  1  0.155900  0.026100  0.223100  1.0
  C  C1003  1  0.026100  0.344100  0.223100  1.0
  C  C1004  1  0.473900  0.155900  0.223100  1.0
  C  C1005  1  0.155900  0.473900  0.276900  1.0
  C  C1006  1  0.344100  0.026100  0.276900  1.0
  C  C1007  1  0.473900  0.344100  0.276900  1.0
  C  C1008  1  0.026100  0.155900  0.276900  1.0
  C  C1009  1  0.655900  0.526100  0.776900  1.0
  C  C1010  1  0.844100  0.973900  0.776900  1.0
  C  C1011  1  0.973900  0.655900  0.776900  1.0
  C  C1012  1  0.526100  0.844100  0.776900  1.0
  C  C1013  1  0.844100  0.526100  0.723100  1.0
  C  C1014  1  0.655900  0.973900  0.723100  1.0
  C  C1015  1  0.526100  0.655900  0.723100  1.0
  C  C1016  1  0.973900  0.844100  0.723100  1.0
  C  C1017  1  0.389000  0.468500  0.195500  1.0
  C  C1018  1  0.111000  0.031500  0.195500  1.0
  C  C1019  1  0.031500  0.389000  0.195500  1.0
  C  C1020  1  0.468500  0.111000  0.195500  1.0
  C  C1021  1  0.111000  0.468500  0.304500  1.0
  C  C1022  1  0.389000  0.031500  0.304500  1.0
  C  C1023  1  0.468500  0.389000  0.304500  1.0
  C  C1024  1  0.031500  0.111000  0.304500  1.0
  C  C1025  1  0.611000  0.531500  0.804500  1.0
  C  C1026  1  0.889000  0.968500  0.804500  1.0
  C  C1027  1  0.968500  0.611000  0.804500  1.0
  C  C1028  1  0.531500  0.889000  0.804500  1.0
  C  C1029  1  0.889000  0.531500  0.695500  1.0
  C  C1030  1  0.611000  0.968500  0.695500  1.0
  C  C1031  1  0.531500  0.611000  0.695500  1.0
  C  C1032  1  0.968500  0.889000  0.695500  1.0
  C  C1033  1  0.451900  0.525000  0.190800  1.0
  C  C1034  1  0.048100  0.975000  0.190800  1.0
  C  C1035  1  0.975000  0.451900  0.190800  1.0
  C  C1036  1  0.525000  0.048100  0.190800  1.0
  C  C1037  1  0.048100  0.525000  0.309200  1.0
  C  C1038  1  0.451900  0.975000  0.309200  1.0
  C  C1039  1  0.525000  0.451900  0.309200  1.0
  C  C1040  1  0.975000  0.048100  0.309200  1.0
  C  C1041  1  0.548100  0.475000  0.809200  1.0
  C  C1042  1  0.951900  0.025000  0.809200  1.0
  C  C1043  1  0.025000  0.548100  0.809200  1.0
  C  C1044  1  0.475000  0.951900  0.809200  1.0
  C  C1045  1  0.951900  0.475000  0.690800  1.0
  C  C1046  1  0.548100  0.025000  0.690800  1.0
  C  C1047  1  0.475000  0.548100  0.690800  1.0
  C  C1048  1  0.025000  0.951900  0.690800  1.0
  C  C1049  1  0.468800  0.581100  0.214400  1.0
  C  C1050  1  0.031200  0.918900  0.214400  1.0
  C  C1051  1  0.918900  0.468800  0.214400  1.0
  C  C1052  1  0.581100  0.031200  0.214400  1.0
  C  C1053  1  0.031200  0.581100  0.285600  1.0
  C  C1054  1  0.468800  0.918900  0.285600  1.0
  C  C1055  1  0.581100  0.468800  0.285600  1.0
  C  C1056  1  0.918900  0.031200  0.285600  1.0
  C  C1057  1  0.531200  0.418900  0.785600  1.0
  C  C1058  1  0.968800  0.081100  0.785600  1.0
  C  C1059  1  0.081100  0.531200  0.785600  1.0
  C  C1060  1  0.418900  0.968800  0.785600  1.0
  C  C1061  1  0.968800  0.418900  0.714400  1.0
  C  C1062  1  0.531200  0.081100  0.714400  1.0
  C  C1063  1  0.418900  0.531200  0.714400  1.0
  C  C1064  1  0.081100  0.968800  0.714400  1.0
  C  C1065  1  0.370100  0.401400  0.173900  1.0
  C  C1066  1  0.129900  0.098600  0.173900  1.0
  C  C1067  1  0.098600  0.370100  0.173900  1.0
  C  C1068  1  0.401400  0.129900  0.173900  1.0
  C  C1069  1  0.129900  0.401400  0.326100  1.0
  C  C1070  1  0.370100  0.098600  0.326100  1.0
  C  C1071  1  0.401400  0.370100  0.326100  1.0
  C  C1072  1  0.098600  0.129900  0.326100  1.0
  C  C1073  1  0.629900  0.598600  0.826100  1.0
  C  C1074  1  0.870100  0.901400  0.826100  1.0
  C  C1075  1  0.901400  0.629900  0.826100  1.0
  C  C1076  1  0.598600  0.870100  0.826100  1.0
  C  C1077  1  0.870100  0.598600  0.673900  1.0
  C  C1078  1  0.629900  0.901400  0.673900  1.0
  C  C1079  1  0.598600  0.629900  0.673900  1.0
  C  C1080  1  0.901400  0.870100  0.673900  1.0
  C  C1081  1  0.446800  0.356700  0.164300  1.0
  C  C1082  1  0.053200  0.143300  0.164300  1.0
  C  C1083  1  0.143300  0.446800  0.164300  1.0
  C  C1084  1  0.356700  0.053200  0.164300  1.0
  C  C1085  1  0.053200  0.356700  0.335700  1.0
  C  C1086  1  0.446800  0.143300  0.335700  1.0
  C  C1087  1  0.356700  0.446800  0.335700  1.0
  C  C1088  1  0.143300  0.053200  0.335700  1.0
  C  C1089  1  0.553200  0.643300  0.835700  1.0
  C  C1090  1  0.946800  0.856700  0.835700  1.0
  C  C1091  1  0.856700  0.553200  0.835700  1.0
  C  C1092  1  0.643300  0.946800  0.835700  1.0
  C  C1093  1  0.946800  0.643300  0.664300  1.0
  C  C1094  1  0.553200  0.856700  0.664300  1.0
  C  C1095  1  0.643300  0.553200  0.664300  1.0
  C  C1096  1  0.856700  0.946800  0.664300  1.0
  C  C1097  1  0.485900  0.394900  0.136500  1.0
  C  C1098  1  0.014100  0.105100  0.136500  1.0
  C  C1099  1  0.105100  0.485900  0.136500  1.0
  C  C1100  1  0.394900  0.014100  0.136500  1.0
  C  C1101  1  0.014100  0.394900  0.363500  1.0
  C  C1102  1  0.485900  0.105100  0.363500  1.0
  C  C1103  1  0.394900  0.485900  0.363500  1.0
  C  C1104  1  0.105100  0.014100  0.363500  1.0
  C  C1105  1  0.514100  0.605100  0.863500  1.0
  C  C1106  1  0.985900  0.894900  0.863500  1.0
  C  C1107  1  0.894900  0.514100  0.863500  1.0
  C  C1108  1  0.605100  0.985900  0.863500  1.0
  C  C1109  1  0.985900  0.605100  0.636500  1.0
  C  C1110  1  0.514100  0.894900  0.636500  1.0
  C  C1111  1  0.605100  0.514100  0.636500  1.0
  C  C1112  1  0.894900  0.985900  0.636500  1.0
  C  C1113  1  0.503400  0.476200  0.134500  1.0
  C  C1114  1  0.996600  0.023800  0.134500  1.0
  C  C1115  1  0.023800  0.503400  0.134500  1.0
  C  C1116  1  0.476200  0.996600  0.134500  1.0
  C  C1117  1  0.996600  0.476200  0.365500  1.0
  C  C1118  1  0.503400  0.023800  0.365500  1.0
  C  C1119  1  0.476200  0.503400  0.365500  1.0
  C  C1120  1  0.023800  0.996600  0.365500  1.0
  C  C1121  1  0.496600  0.523800  0.865500  1.0
  C  C1122  1  0.003400  0.976200  0.865500  1.0
  C  C1123  1  0.976200  0.496600  0.865500  1.0
  C  C1124  1  0.523800  0.003400  0.865500  1.0
  C  C1125  1  0.003400  0.523800  0.634500  1.0
  C  C1126  1  0.496600  0.976200  0.634500  1.0
  C  C1127  1  0.523800  0.496600  0.634500  1.0
  C  C1128  1  0.976200  0.003400  0.634500  1.0
  C  C1129  1  0.499000  0.535600  0.161300  1.0
  C  C1130  1  0.001000  0.964400  0.161300  1.0
  C  C1131  1  0.964400  0.499000  0.161300  1.0
  C  C1132  1  0.535600  0.001000  0.161300  1.0
  C  C1133  1  0.001000  0.535600  0.338700  1.0
  C  C1134  1  0.499000  0.964400  0.338700  1.0
  C  C1135  1  0.535600  0.499000  0.338700  1.0
  C  C1136  1  0.964400  0.001000  0.338700  1.0
  C  C1137  1  0.501000  0.464400  0.838700  1.0
  C  C1138  1  0.999000  0.035600  0.838700  1.0
  C  C1139  1  0.035600  0.501000  0.838700  1.0
  C  C1140  1  0.464400  0.999000  0.838700  1.0
  C  C1141  1  0.999000  0.464400  0.661300  1.0
  C  C1142  1  0.501000  0.035600  0.661300  1.0
  C  C1143  1  0.464400  0.501000  0.661300  1.0
  C  C1144  1  0.035600  0.999000  0.661300  1.0
  C  C1145  1  0.502300  0.346700  0.111400  1.0
  C  C1146  1  0.997700  0.153300  0.111400  1.0
  C  C1147  1  0.153300  0.502300  0.111400  1.0
  C  C1148  1  0.346700  0.997700  0.111400  1.0
  C  C1149  1  0.997700  0.346700  0.388600  1.0
  C  C1150  1  0.502300  0.153300  0.388600  1.0
  C  C1151  1  0.346700  0.502300  0.388600  1.0
  C  C1152  1  0.153300  0.997700  0.388600  1.0
  C  C1153  1  0.497700  0.653300  0.888600  1.0
  C  C1154  1  0.002300  0.846700  0.888600  1.0
  C  C1155  1  0.846700  0.497700  0.888600  1.0
  C  C1156  1  0.653300  0.002300  0.888600  1.0
  C  C1157  1  0.002300  0.653300  0.611400  1.0
  C  C1158  1  0.497700  0.846700  0.611400  1.0
  C  C1159  1  0.653300  0.497700  0.611400  1.0
  C  C1160  1  0.846700  0.002300  0.611400  1.0
  C  C1161  1  0.532300  0.380000  0.082600  1.0
  C  C1162  1  0.967700  0.120000  0.082600  1.0
  C  C1163  1  0.120000  0.532300  0.082600  1.0
  C  C1164  1  0.380000  0.967700  0.082600  1.0
  C  C1165  1  0.967700  0.380000  0.417400  1.0
  C  C1166  1  0.532300  0.120000  0.417400  1.0
  C  C1167  1  0.380000  0.532300  0.417400  1.0
  C  C1168  1  0.120000  0.967700  0.417400  1.0
  C  C1169  1  0.467700  0.620000  0.917400  1.0
  C  C1170  1  0.032300  0.880000  0.917400  1.0
  C  C1171  1  0.880000  0.467700  0.917400  1.0
  C  C1172  1  0.620000  0.032300  0.917400  1.0
  C  C1173  1  0.032300  0.620000  0.582600  1.0
  C  C1174  1  0.467700  0.880000  0.582600  1.0
  C  C1175  1  0.620000  0.467700  0.582600  1.0
  C  C1176  1  0.880000  0.032300  0.582600  1.0
  C  C1177  1  0.547000  0.459900  0.080300  1.0
  C  C1178  1  0.953000  0.040100  0.080300  1.0
  C  C1179  1  0.040100  0.547000  0.080300  1.0
  C  C1180  1  0.459900  0.953000  0.080300  1.0
  C  C1181  1  0.953000  0.459900  0.419700  1.0
  C  C1182  1  0.547000  0.040100  0.419700  1.0
  C  C1183  1  0.459900  0.547000  0.419700  1.0
  C  C1184  1  0.040100  0.953000  0.419700  1.0
  C  C1185  1  0.453000  0.540100  0.919700  1.0
  C  C1186  1  0.047000  0.959900  0.919700  1.0
  C  C1187  1  0.959900  0.453000  0.919700  1.0
  C  C1188  1  0.540100  0.047000  0.919700  1.0
  C  C1189  1  0.047000  0.540100  0.580300  1.0
  C  C1190  1  0.453000  0.959900  0.580300  1.0
  C  C1191  1  0.540100  0.453000  0.580300  1.0
  C  C1192  1  0.959900  0.047000  0.580300  1.0
  C  C1193  1  0.531200  0.509200  0.106700  1.0
  C  C1194  1  0.968800  0.990800  0.106700  1.0
  C  C1195  1  0.990800  0.531200  0.106700  1.0
  C  C1196  1  0.509200  0.968800  0.106700  1.0
  C  C1197  1  0.968800  0.509200  0.393300  1.0
  C  C1198  1  0.531200  0.990800  0.393300  1.0
  C  C1199  1  0.509200  0.531200  0.393300  1.0
  C  C1200  1  0.990800  0.968800  0.393300  1.0
  C  C1201  1  0.468800  0.490800  0.893300  1.0
  C  C1202  1  0.031200  0.009200  0.893300  1.0
  C  C1203  1  0.009200  0.468800  0.893300  1.0
  C  C1204  1  0.490800  0.031200  0.893300  1.0
  C  C1205  1  0.031200  0.490800  0.606700  1.0
  C  C1206  1  0.468800  0.009200  0.606700  1.0
  C  C1207  1  0.490800  0.468800  0.606700  1.0
  C  C1208  1  0.009200  0.031200  0.606700  1.0
  C  C1209  1  0.573000  0.491900  0.051400  1.0
  C  C1210  1  0.927000  0.008100  0.051400  1.0
  C  C1211  1  0.008100  0.573000  0.051400  1.0
  C  C1212  1  0.491900  0.927000  0.051400  1.0
  C  C1213  1  0.927000  0.491900  0.448600  1.0
  C  C1214  1  0.573000  0.008100  0.448600  1.0
  C  C1215  1  0.491900  0.573000  0.448600  1.0
  C  C1216  1  0.008100  0.927000  0.448600  1.0
  C  C1217  1  0.427000  0.508100  0.948600  1.0
  C  C1218  1  0.073000  0.991900  0.948600  1.0
  C  C1219  1  0.991900  0.427000  0.948600  1.0
  C  C1220  1  0.508100  0.073000  0.948600  1.0
  C  C1221  1  0.073000  0.508100  0.551400  1.0
  C  C1222  1  0.427000  0.991900  0.551400  1.0
  C  C1223  1  0.508100  0.427000  0.551400  1.0
  C  C1224  1  0.991900  0.073000  0.551400  1.0
  C  C1225  1  0.596900  0.515200  0.027400  1.0
  C  C1226  1  0.903100  0.984800  0.027400  1.0
  C  C1227  1  0.984800  0.596900  0.027400  1.0
  C  C1228  1  0.515200  0.903100  0.027400  1.0
  C  C1229  1  0.903100  0.515200  0.472600  1.0
  C  C1230  1  0.596900  0.984800  0.472600  1.0
  C  C1231  1  0.515200  0.596900  0.472600  1.0
  C  C1232  1  0.984800  0.903100  0.472600  1.0
  C  C1233  1  0.403100  0.484800  0.972600  1.0
  C  C1234  1  0.096900  0.015200  0.972600  1.0
  C  C1235  1  0.015200  0.403100  0.972600  1.0
  C  C1236  1  0.484800  0.096900  0.972600  1.0
  C  C1237  1  0.096900  0.484800  0.527400  1.0
  C  C1238  1  0.403100  0.015200  0.527400  1.0
  C  C1239  1  0.484800  0.403100  0.527400  1.0
  C  C1240  1  0.015200  0.096900  0.527400  1.0
  C  C1241  1  0.624600  0.542300  0.997300  1.0
  C  C1242  1  0.875400  0.957700  0.997300  1.0
  C  C1243  1  0.957700  0.624600  0.997300  1.0
  C  C1244  1  0.542300  0.875400  0.997300  1.0
  C  C1245  1  0.875400  0.542300  0.502700  1.0
  C  C1246  1  0.624600  0.957700  0.502700  1.0
  C  C1247  1  0.542300  0.624600  0.502700  1.0
  C  C1248  1  0.957700  0.875400  0.502700  1.0
  C  C1249  1  0.375400  0.457700  0.002700  1.0
  C  C1250  1  0.124600  0.042300  0.002700  1.0
  C  C1251  1  0.042300  0.375400  0.002700  1.0
  C  C1252  1  0.457700  0.124600  0.002700  1.0
  C  C1253  1  0.124600  0.457700  0.497300  1.0
  C  C1254  1  0.375400  0.042300  0.497300  1.0
  C  C1255  1  0.457700  0.375400  0.497300  1.0
  C  C1256  1  0.042300  0.124600  0.497300  1.0
  C  C1257  1  0.622200  0.491700  0.970800  1.0
  C  C1258  1  0.877800  0.008300  0.970800  1.0
  C  C1259  1  0.008300  0.622200  0.970800  1.0
  C  C1260  1  0.491700  0.877800  0.970800  1.0
  C  C1261  1  0.877800  0.491700  0.529200  1.0
  C  C1262  1  0.622200  0.008300  0.529200  1.0
  C  C1263  1  0.491700  0.622200  0.529200  1.0
  C  C1264  1  0.008300  0.877800  0.529200  1.0
  C  C1265  1  0.377800  0.508300  0.029200  1.0
  C  C1266  1  0.122200  0.991700  0.029200  1.0
  C  C1267  1  0.991700  0.377800  0.029200  1.0
  C  C1268  1  0.508300  0.122200  0.029200  1.0
  C  C1269  1  0.122200  0.508300  0.470800  1.0
  C  C1270  1  0.377800  0.991700  0.470800  1.0
  C  C1271  1  0.508300  0.377800  0.470800  1.0
  C  C1272  1  0.991700  0.122200  0.470800  1.0
  C  C1273  1  0.653300  0.520600  0.943300  1.0
  C  C1274  1  0.846700  0.979400  0.943300  1.0
  C  C1275  1  0.979400  0.653300  0.943300  1.0
  C  C1276  1  0.520600  0.846700  0.943300  1.0
  C  C1277  1  0.846700  0.520600  0.556700  1.0
  C  C1278  1  0.653300  0.979400  0.556700  1.0
  C  C1279  1  0.520600  0.653300  0.556700  1.0
  C  C1280  1  0.979400  0.846700  0.556700  1.0
  C  C1281  1  0.346700  0.479400  0.056700  1.0
  C  C1282  1  0.153300  0.020600  0.056700  1.0
  C  C1283  1  0.020600  0.346700  0.056700  1.0
  C  C1284  1  0.479400  0.153300  0.056700  1.0
  C  C1285  1  0.153300  0.479400  0.443300  1.0
  C  C1286  1  0.346700  0.020600  0.443300  1.0
  C  C1287  1  0.479400  0.346700  0.443300  1.0
  C  C1288  1  0.020600  0.153300  0.443300  1.0
  C  C1289  1  0.687400  0.597000  0.942000  1.0
  C  C1290  1  0.812600  0.903000  0.942000  1.0
  C  C1291  1  0.903000  0.687400  0.942000  1.0
  C  C1292  1  0.597000  0.812600  0.942000  1.0
  C  C1293  1  0.812600  0.597000  0.558000  1.0
  C  C1294  1  0.687400  0.903000  0.558000  1.0
  C  C1295  1  0.597000  0.687400  0.558000  1.0
  C  C1296  1  0.903000  0.812600  0.558000  1.0
  C  C1297  1  0.312600  0.403000  0.058000  1.0
  C  C1298  1  0.187400  0.097000  0.058000  1.0
  C  C1299  1  0.097000  0.312600  0.058000  1.0
  C  C1300  1  0.403000  0.187400  0.058000  1.0
  C  C1301  1  0.187400  0.403000  0.442000  1.0
  C  C1302  1  0.312600  0.097000  0.442000  1.0
  C  C1303  1  0.403000  0.312600  0.442000  1.0
  C  C1304  1  0.097000  0.187400  0.442000  1.0
  C  C1305  1  0.663500  0.617900  0.994300  1.0
  C  C1306  1  0.836500  0.882100  0.994300  1.0
  C  C1307  1  0.882100  0.663500  0.994300  1.0
  C  C1308  1  0.617900  0.836500  0.994300  1.0
  C  C1309  1  0.836500  0.617900  0.505700  1.0
  C  C1310  1  0.663500  0.882100  0.505700  1.0
  C  C1311  1  0.617900  0.663500  0.505700  1.0
  C  C1312  1  0.882100  0.836500  0.505700  1.0
  C  C1313  1  0.336500  0.382100  0.005700  1.0
  C  C1314  1  0.163500  0.117900  0.005700  1.0
  C  C1315  1  0.117900  0.336500  0.005700  1.0
  C  C1316  1  0.382100  0.163500  0.005700  1.0
  C  C1317  1  0.163500  0.382100  0.494300  1.0
  C  C1318  1  0.336500  0.117900  0.494300  1.0
  C  C1319  1  0.382100  0.336500  0.494300  1.0
  C  C1320  1  0.117900  0.163500  0.494300  1.0
  N  N1321  1  0.646000  0.330000  0.392700  1
  N  N1322  1  0.854000  0.170000  0.392700  1
  N  N1323  1  0.170000  0.646000  0.392700  1
  N  N1324  1  0.330000  0.854000  0.392700  1
  N  N1325  1  0.854000  0.330000  0.107300  1
  N  N1326  1  0.646000  0.170000  0.107300  1
  N  N1327  1  0.330000  0.646000  0.107300  1
  N  N1328  1  0.170000  0.854000  0.107300  1
  N  N1329  1  0.354000  0.670000  0.607300  1
  N  N1330  1  0.146000  0.830000  0.607300  1
  N  N1331  1  0.830000  0.354000  0.607300  1
  N  N1332  1  0.670000  0.146000  0.607300  1
  N  N1333  1  0.146000  0.670000  0.892700  1
  N  N1334  1  0.354000  0.830000  0.892700  1
  N  N1335  1  0.670000  0.354000  0.892700  1
  N  N1336  1  0.830000  0.146000  0.892700  1
  N  N1337  1  0.771700  0.243000  0.336900  1
  N  N1338  1  0.728300  0.257000  0.336900  1
  N  N1339  1  0.257000  0.771700  0.336900  1
  N  N1340  1  0.243000  0.728300  0.336900  1
  N  N1341  1  0.728300  0.243000  0.163100  1
  N  N1342  1  0.771700  0.257000  0.163100  1
  N  N1343  1  0.243000  0.771700  0.163100  1
  N  N1344  1  0.257000  0.728300  0.163100  1
  N  N1345  1  0.228300  0.757000  0.663100  1
  N  N1346  1  0.271700  0.743000  0.663100  1
  N  N1347  1  0.743000  0.228300  0.663100  1
  N  N1348  1  0.757000  0.271700  0.663100  1
  N  N1349  1  0.271700  0.757000  0.836900  1
  N  N1350  1  0.228300  0.743000  0.836900  1
  N  N1351  1  0.757000  0.228300  0.836900  1
  N  N1352  1  0.743000  0.271700  0.836900  1
  N  N1353  1  0.663000  0.266000  0.317600  1
  N  N1354  1  0.837000  0.234000  0.317600  1
  N  N1355  1  0.234000  0.663000  0.317600  1
  N  N1356  1  0.266000  0.837000  0.317600  1
  N  N1357  1  0.837000  0.266000  0.182400  1
  N  N1358  1  0.663000  0.234000  0.182400  1
  N  N1359  1  0.266000  0.663000  0.182400  1
  N  N1360  1  0.234000  0.837000  0.182400  1
  N  N1361  1  0.337000  0.734000  0.682400  1
  N  N1362  1  0.163000  0.766000  0.682400  1
  N  N1363  1  0.766000  0.337000  0.682400  1
  N  N1364  1  0.734000  0.163000  0.682400  1
  N  N1365  1  0.163000  0.734000  0.817600  1
  N  N1366  1  0.337000  0.766000  0.817600  1
  N  N1367  1  0.734000  0.337000  0.817600  1
  N  N1368  1  0.766000  0.163000  0.817600  1
  N  N1369  1  0.745000  0.139000  0.482400  1
  N  N1370  1  0.755000  0.361000  0.482400  1
  N  N1371  1  0.361000  0.745000  0.482400  1
  N  N1372  1  0.139000  0.755000  0.482400  1
  N  N1373  1  0.755000  0.139000  0.017600  1
  N  N1374  1  0.745000  0.361000  0.017600  1
  N  N1375  1  0.139000  0.745000  0.017600  1
  N  N1376  1  0.361000  0.755000  0.017600  1
  N  N1377  1  0.255000  0.861000  0.517600  1
  N  N1378  1  0.245000  0.639000  0.517600  1
  N  N1379  1  0.639000  0.255000  0.517600  1
  N  N1380  1  0.861000  0.245000  0.517600  1
  N  N1381  1  0.245000  0.861000  0.982400  1
  N  N1382  1  0.255000  0.639000  0.982400  1
  N  N1383  1  0.861000  0.255000  0.982400  1
  N  N1384  1  0.639000  0.245000  0.982400  1
  N  N1385  1  0.792000  0.064000  0.507900  1
  N  N1386  1  0.708000  0.436000  0.507900  1
  N  N1387  1  0.436000  0.792000  0.507900  1
  N  N1388  1  0.064000  0.708000  0.507900  1
  N  N1389  1  0.708000  0.064000  0.992100  1
  N  N1390  1  0.792000  0.436000  0.992100  1
  N  N1391  1  0.064000  0.792000  0.992100  1
  N  N1392  1  0.436000  0.708000  0.992100  1
  N  N1393  1  0.208000  0.936000  0.492100  1
  N  N1394  1  0.292000  0.564000  0.492100  1
  N  N1395  1  0.564000  0.208000  0.492100  1
  N  N1396  1  0.936000  0.292000  0.492100  1
  N  N1397  1  0.292000  0.936000  0.007900  1
  N  N1398  1  0.208000  0.564000  0.007900  1
  N  N1399  1  0.936000  0.208000  0.007900  1
  N  N1400  1  0.564000  0.292000  0.007900  1
  N  N1401  1  0.784000  0.065000  0.464000  1.0
  N  N1402  1  0.716000  0.435000  0.464000  1.0
  N  N1403  1  0.435000  0.784000  0.464000  1.0
  N  N1404  1  0.065000  0.716000  0.464000  1.0
  N  N1405  1  0.716000  0.065000  0.036000  1.0
  N  N1406  1  0.784000  0.435000  0.036000  1.0
  N  N1407  1  0.065000  0.784000  0.036000  1.0
  N  N1408  1  0.435000  0.716000  0.036000  1.0
  N  N1409  1  0.216000  0.935000  0.536000  1.0
  N  N1410  1  0.284000  0.565000  0.536000  1.0
  N  N1411  1  0.565000  0.216000  0.536000  1.0
  N  N1412  1  0.935000  0.284000  0.536000  1.0
  N  N1413  1  0.284000  0.935000  0.964000  1.0
  N  N1414  1  0.216000  0.565000  0.964000  1.0
  N  N1415  1  0.935000  0.216000  0.964000  1.0
  N  N1416  1  0.565000  0.284000  0.964000  1.0
  N  N1417  1  0.629000  0.736200  0.345990  1.0
  N  N1418  1  0.871000  0.763800  0.345990  1.0
  N  N1419  1  0.763800  0.629000  0.345990  1.0
  N  N1420  1  0.736200  0.871000  0.345990  1.0
  N  N1421  1  0.871000  0.736200  0.154010  1.0
  N  N1422  1  0.629000  0.763800  0.154010  1.0
  N  N1423  1  0.736200  0.629000  0.154010  1.0
  N  N1424  1  0.763800  0.871000  0.154010  1.0
  N  N1425  1  0.371000  0.263800  0.654010  1.0
  N  N1426  1  0.129000  0.236200  0.654010  1.0
  N  N1427  1  0.236200  0.371000  0.654010  1.0
  N  N1428  1  0.263800  0.129000  0.654010  1.0
  N  N1429  1  0.129000  0.263800  0.845990  1.0
  N  N1430  1  0.371000  0.236200  0.845990  1.0
  N  N1431  1  0.263800  0.371000  0.845990  1.0
  N  N1432  1  0.236200  0.129000  0.845990  1.0
  N  N1433  1  0.692500  0.642800  0.967400  1.0
  N  N1434  1  0.807500  0.857200  0.967400  1.0
  N  N1435  1  0.857200  0.692500  0.967400  1.0
  N  N1436  1  0.642800  0.807500  0.967400  1.0
  N  N1437  1  0.807500  0.642800  0.532600  1.0
  N  N1438  1  0.692500  0.857200  0.532600  1.0
  N  N1439  1  0.642800  0.692500  0.532600  1.0
  N  N1440  1  0.857200  0.807500  0.532600  1.0
  N  N1441  1  0.307500  0.357200  0.032600  1.0
  N  N1442  1  0.192500  0.142800  0.032600  1.0
  N  N1443  1  0.142800  0.307500  0.032600  1.0
  N  N1444  1  0.357200  0.192500  0.032600  1.0
  N  N1445  1  0.192500  0.357200  0.467400  1.0
  N  N1446  1  0.307500  0.142800  0.467400  1.0
  N  N1447  1  0.357200  0.307500  0.467400  1.0
  N  N1448  1  0.142800  0.192500  0.467400  1.0
  O  O1449  1  0.540100  0.597800  0.159000  1.0
  O  O1450  1  0.959900  0.902200  0.159000  1.0
  O  O1451  1  0.902200  0.540100  0.159000  1.0
  O  O1452  1  0.597800  0.959900  0.159000  1.0
  O  O1453  1  0.959900  0.597800  0.341000  1.0
  O  O1454  1  0.540100  0.902200  0.341000  1.0
  O  O1455  1  0.597800  0.540100  0.341000  1.0
  O  O1456  1  0.902200  0.959900  0.341000  1.0
  O  O1457  1  0.459900  0.402200  0.841000  1.0
  O  O1458  1  0.040100  0.097800  0.841000  1.0
  O  O1459  1  0.097800  0.459900  0.841000  1.0
  O  O1460  1  0.402200  0.040100  0.841000  1.0
  O  O1461  1  0.040100  0.402200  0.659000  1.0
  O  O1462  1  0.459900  0.097800  0.659000  1.0
  O  O1463  1  0.402200  0.459900  0.659000  1.0
  O  O1464  1  0.097800  0.040100  0.659000  1.0
  F  F1465  1  0.747000  0.736200  0.841500  1
  F  F1466  1  0.753000  0.763800  0.841500  1
  F  F1467  1  0.763800  0.747000  0.841500  1
  F  F1468  1  0.736200  0.753000  0.841500  1
  F  F1469  1  0.753000  0.736200  0.658500  1
  F  F1470  1  0.747000  0.763800  0.658500  1
  F  F1471  1  0.736200  0.747000  0.658500  1
  F  F1472  1  0.763800  0.753000  0.658500  1
  F  F1473  1  0.253000  0.263800  0.158500  1
  F  F1474  1  0.247000  0.236200  0.158500  1
  F  F1475  1  0.236200  0.253000  0.158500  1
  F  F1476  1  0.263800  0.247000  0.158500  1
  F  F1477  1  0.247000  0.263800  0.341500  1
  F  F1478  1  0.253000  0.236200  0.341500  1
  F  F1479  1  0.263800  0.253000  0.341500  1
  F  F1480  1  0.236200  0.247000  0.341500  1
  F  F1481  1  0.835400  0.763000  0.882400  1
  F  F1482  1  0.664600  0.737000  0.882400  1
  F  F1483  1  0.737000  0.835400  0.882400  1
  F  F1484  1  0.763000  0.664600  0.882400  1
  F  F1485  1  0.664600  0.763000  0.617600  1
  F  F1486  1  0.835400  0.737000  0.617600  1
  F  F1487  1  0.763000  0.835400  0.617600  1
  F  F1488  1  0.737000  0.664600  0.617600  1
  F  F1489  1  0.164600  0.237000  0.117600  1
  F  F1490  1  0.335400  0.263000  0.117600  1
  F  F1491  1  0.263000  0.164600  0.117600  1
  F  F1492  1  0.237000  0.335400  0.117600  1
  F  F1493  1  0.335400  0.237000  0.382400  1
  F  F1494  1  0.164600  0.263000  0.382400  1
  F  F1495  1  0.237000  0.164600  0.382400  1
  F  F1496  1  0.263000  0.335400  0.382400  1
  F  F1497  1  0.722000  0.690300  0.887400  1
  F  F1498  1  0.778000  0.809700  0.887400  1
  F  F1499  1  0.809700  0.722000  0.887400  1
  F  F1500  1  0.690300  0.778000  0.887400  1
  F  F1501  1  0.778000  0.690300  0.612600  1
  F  F1502  1  0.722000  0.809700  0.612600  1
  F  F1503  1  0.690300  0.722000  0.612600  1
  F  F1504  1  0.809700  0.778000  0.612600  1
  F  F1505  1  0.278000  0.309700  0.112600  1
  F  F1506  1  0.222000  0.190300  0.112600  1
  F  F1507  1  0.190300  0.278000  0.112600  1
  F  F1508  1  0.309700  0.222000  0.112600  1
  F  F1509  1  0.222000  0.309700  0.387400  1
  F  F1510  1  0.278000  0.190300  0.387400  1
  F  F1511  1  0.309700  0.278000  0.387400  1
  F  F1512  1  0.190300  0.222000  0.387400  1
  F  F1513  1  0.782000  0.636100  0.059000  1
  F  F1514  1  0.718000  0.863900  0.059000  1
  F  F1515  1  0.863900  0.782000  0.059000  1
  F  F1516  1  0.636100  0.718000  0.059000  1
  F  F1517  1  0.718000  0.636100  0.441000  1
  F  F1518  1  0.782000  0.863900  0.441000  1
  F  F1519  1  0.636100  0.782000  0.441000  1
  F  F1520  1  0.863900  0.718000  0.441000  1
  F  F1521  1  0.218000  0.363900  0.941000  1
  F  F1522  1  0.282000  0.136100  0.941000  1
  F  F1523  1  0.136100  0.218000  0.941000  1
  F  F1524  1  0.363900  0.282000  0.941000  1
  F  F1525  1  0.282000  0.363900  0.559000  1
  F  F1526  1  0.218000  0.136100  0.559000  1
  F  F1527  1  0.363900  0.218000  0.559000  1
  F  F1528  1  0.136100  0.282000  0.559000  1
  F  F1529  1  0.827000  0.657600  0.065500  1
  F  F1530  1  0.673000  0.842400  0.065500  1
  F  F1531  1  0.842400  0.827000  0.065500  1
  F  F1532  1  0.657600  0.673000  0.065500  1
  F  F1533  1  0.673000  0.657600  0.434500  1
  F  F1534  1  0.827000  0.842400  0.434500  1
  F  F1535  1  0.657600  0.827000  0.434500  1
  F  F1536  1  0.842400  0.673000  0.434500  1
  F  F1537  1  0.173000  0.342400  0.934500  1
  F  F1538  1  0.327000  0.157600  0.934500  1
  F  F1539  1  0.157600  0.173000  0.934500  1
  F  F1540  1  0.342400  0.327000  0.934500  1
  F  F1541  1  0.327000  0.342400  0.565500  1
  F  F1542  1  0.173000  0.157600  0.565500  1
  F  F1543  1  0.342400  0.173000  0.565500  1
  F  F1544  1  0.157600  0.327000  0.565500  1
  F  F1545  1  0.731100  0.753000  0.034200  1
  F  F1546  1  0.768900  0.747000  0.034200  1
  F  F1547  1  0.747000  0.731100  0.034200  1
  F  F1548  1  0.753000  0.768900  0.034200  1
  F  F1549  1  0.768900  0.753000  0.465800  1
  F  F1550  1  0.731100  0.747000  0.465800  1
  F  F1551  1  0.753000  0.731100  0.465800  1
  F  F1552  1  0.747000  0.768900  0.465800  1
  F  F1553  1  0.268900  0.247000  0.965800  1
  F  F1554  1  0.231100  0.253000  0.965800  1
  F  F1555  1  0.253000  0.268900  0.965800  1
  F  F1556  1  0.247000  0.231100  0.965800  1
  F  F1557  1  0.231100  0.247000  0.534200  1
  F  F1558  1  0.268900  0.253000  0.534200  1
  F  F1559  1  0.247000  0.268900  0.534200  1
  F  F1560  1  0.253000  0.231100  0.534200  1
  F  F1561  1  0.765200  0.750000  0.086000  1
  F  F1562  1  0.734800  0.750000  0.086000  1
  F  F1563  1  0.750000  0.765200  0.086000  1
  F  F1564  1  0.750000  0.734800  0.086000  1
  F  F1565  1  0.734800  0.750000  0.414000  1
  F  F1566  1  0.765200  0.750000  0.414000  1
  F  F1567  1  0.750000  0.765200  0.414000  1
  F  F1568  1  0.750000  0.734800  0.414000  1
  F  F1569  1  0.234800  0.250000  0.914000  1
  F  F1570  1  0.265200  0.250000  0.914000  1
  F  F1571  1  0.250000  0.234800  0.914000  1
  F  F1572  1  0.250000  0.265200  0.914000  1
  F  F1573  1  0.265200  0.250000  0.586000  1
  F  F1574  1  0.234800  0.250000  0.586000  1
  F  F1575  1  0.250000  0.234800  0.586000  1
  F  F1576  1  0.250000  0.265200  0.586000  1
  F  F1577  1  0.674000  0.663000  0.251000  1
  F  F1578  1  0.826000  0.837000  0.251000  1
  F  F1579  1  0.837000  0.674000  0.251000  1
  F  F1580  1  0.663000  0.826000  0.251000  1
  F  F1581  1  0.826000  0.663000  0.249000  1
  F  F1582  1  0.674000  0.837000  0.249000  1
  F  F1583  1  0.663000  0.674000  0.249000  1
  F  F1584  1  0.837000  0.826000  0.249000  1
  F  F1585  1  0.326000  0.337000  0.749000  1
  F  F1586  1  0.174000  0.163000  0.749000  1
  F  F1587  1  0.163000  0.326000  0.749000  1
  F  F1588  1  0.337000  0.174000  0.749000  1
  F  F1589  1  0.174000  0.337000  0.751000  1
  F  F1590  1  0.326000  0.163000  0.751000  1
  F  F1591  1  0.337000  0.326000  0.751000  1
  F  F1592  1  0.163000  0.174000  0.751000  1
  F  F1593  1  0.761000  0.737000  0.223500  1
  F  F1594  1  0.739000  0.763000  0.223500  1
  F  F1595  1  0.763000  0.761000  0.223500  1
  F  F1596  1  0.737000  0.739000  0.223500  1
  F  F1597  1  0.739000  0.737000  0.276500  1
  F  F1598  1  0.761000  0.763000  0.276500  1
  F  F1599  1  0.737000  0.761000  0.276500  1
  F  F1600  1  0.763000  0.739000  0.276500  1
  F  F1601  1  0.239000  0.263000  0.776500  1
  F  F1602  1  0.261000  0.237000  0.776500  1
  F  F1603  1  0.237000  0.239000  0.776500  1
  F  F1604  1  0.263000  0.261000  0.776500  1
  F  F1605  1  0.261000  0.263000  0.723500  1
  F  F1606  1  0.239000  0.237000  0.723500  1
  F  F1607  1  0.263000  0.239000  0.723500  1
  F  F1608  1  0.237000  0.261000  0.723500  1
  F  F1609  1  0.767000  0.753000  0.275500  1
  F  F1610  1  0.733000  0.747000  0.275500  1
  F  F1611  1  0.747000  0.767000  0.275500  1
  F  F1612  1  0.753000  0.733000  0.275500  1
  F  F1613  1  0.733000  0.753000  0.224500  1
  F  F1614  1  0.767000  0.747000  0.224500  1
  F  F1615  1  0.753000  0.767000  0.224500  1
  F  F1616  1  0.747000  0.733000  0.224500  1
  F  F1617  1  0.233000  0.247000  0.724500  1
  F  F1618  1  0.267000  0.253000  0.724500  1
  F  F1619  1  0.253000  0.233000  0.724500  1
  F  F1620  1  0.247000  0.267000  0.724500  1
  F  F1621  1  0.267000  0.247000  0.775500  1
  F  F1622  1  0.233000  0.253000  0.775500  1
  F  F1623  1  0.247000  0.233000  0.775500  1
  F  F1624  1  0.253000  0.267000  0.775500  1
  F  F1625  1  0.653000  0.703000  0.247100  1
  F  F1626  1  0.847000  0.797000  0.247100  1
  F  F1627  1  0.797000  0.653000  0.247100  1
  F  F1628  1  0.703000  0.847000  0.247100  1
  F  F1629  1  0.847000  0.703000  0.252900  1
  F  F1630  1  0.653000  0.797000  0.252900  1
  F  F1631  1  0.703000  0.653000  0.252900  1
  F  F1632  1  0.797000  0.847000  0.252900  1
  F  F1633  1  0.347000  0.297000  0.752900  1
  F  F1634  1  0.153000  0.203000  0.752900  1
  F  F1635  1  0.203000  0.347000  0.752900  1
  F  F1636  1  0.297000  0.153000  0.752900  1
  F  F1637  1  0.153000  0.297000  0.747100  1
  F  F1638  1  0.347000  0.203000  0.747100  1
  F  F1639  1  0.297000  0.347000  0.747100  1
  F  F1640  1  0.203000  0.153000  0.747100  1
  F  F1641  1  0.686000  0.759000  0.737900  1
  F  F1642  1  0.814000  0.741000  0.737900  1
  F  F1643  1  0.741000  0.686000  0.737900  1
  F  F1644  1  0.759000  0.814000  0.737900  1
  F  F1645  1  0.814000  0.759000  0.762100  1
  F  F1646  1  0.686000  0.741000  0.762100  1
  F  F1647  1  0.759000  0.686000  0.762100  1
  F  F1648  1  0.741000  0.814000  0.762100  1
  F  F1649  1  0.314000  0.241000  0.262100  1
  F  F1650  1  0.186000  0.259000  0.262100  1
  F  F1651  1  0.259000  0.314000  0.262100  1
  F  F1652  1  0.241000  0.186000  0.262100  1
  F  F1653  1  0.186000  0.241000  0.237900  1
  F  F1654  1  0.314000  0.259000  0.237900  1
  F  F1655  1  0.241000  0.314000  0.237900  1
  F  F1656  1  0.259000  0.186000  0.237900  1
  F  F1657  1  0.692000  0.783000  0.722100  1
  F  F1658  1  0.808000  0.717000  0.722100  1
  F  F1659  1  0.717000  0.692000  0.722100  1
  F  F1660  1  0.783000  0.808000  0.722100  1
  F  F1661  1  0.808000  0.783000  0.777900  1
  F  F1662  1  0.692000  0.717000  0.777900  1
  F  F1663  1  0.783000  0.692000  0.777900  1
  F  F1664  1  0.717000  0.808000  0.777900  1
  F  F1665  1  0.308000  0.217000  0.277900  1
  F  F1666  1  0.192000  0.283000  0.277900  1
  F  F1667  1  0.283000  0.308000  0.277900  1
  F  F1668  1  0.217000  0.192000  0.277900  1
  F  F1669  1  0.192000  0.217000  0.222100  1
  F  F1670  1  0.308000  0.283000  0.222100  1
  F  F1671  1  0.217000  0.308000  0.222100  1
  F  F1672  1  0.283000  0.192000  0.222100  1
  F  F1673  1  0.675000  0.729000  0.769500  1
  F  F1674  1  0.825000  0.771000  0.769500  1
  F  F1675  1  0.771000  0.675000  0.769500  1
  F  F1676  1  0.729000  0.825000  0.769500  1
  F  F1677  1  0.825000  0.729000  0.730500  1
  F  F1678  1  0.675000  0.771000  0.730500  1
  F  F1679  1  0.729000  0.675000  0.730500  1
  F  F1680  1  0.771000  0.825000  0.730500  1
  F  F1681  1  0.325000  0.271000  0.230500  1
  F  F1682  1  0.175000  0.229000  0.230500  1
  F  F1683  1  0.229000  0.325000  0.230500  1
  F  F1684  1  0.271000  0.175000  0.230500  1
  F  F1685  1  0.175000  0.271000  0.269500  1
  F  F1686  1  0.325000  0.229000  0.269500  1
  F  F1687  1  0.271000  0.325000  0.269500  1
  F  F1688  1  0.229000  0.175000  0.269500  1
  F  F1689  1  0.693000  0.792000  0.764600  1
  F  F1690  1  0.807000  0.708000  0.764600  1
  F  F1691  1  0.708000  0.693000  0.764600  1
  F  F1692  1  0.792000  0.807000  0.764600  1
  F  F1693  1  0.807000  0.792000  0.735400  1
  F  F1694  1  0.693000  0.708000  0.735400  1
  F  F1695  1  0.792000  0.693000  0.735400  1
  F  F1696  1  0.708000  0.807000  0.735400  1
  F  F1697  1  0.307000  0.208000  0.235400  1
  F  F1698  1  0.193000  0.292000  0.235400  1
  F  F1699  1  0.292000  0.307000  0.235400  1
  F  F1700  1  0.208000  0.193000  0.235400  1
  F  F1701  1  0.193000  0.208000  0.264600  1
  F  F1702  1  0.307000  0.292000  0.264600  1
  F  F1703  1  0.208000  0.307000  0.264600  1
  F  F1704  1  0.292000  0.193000  0.264600  1
  F  F1705  1  0.643000  0.744000  0.759000  1
  F  F1706  1  0.857000  0.756000  0.759000  1
  F  F1707  1  0.756000  0.643000  0.759000  1
  F  F1708  1  0.744000  0.857000  0.759000  1
  F  F1709  1  0.857000  0.744000  0.741000  1
  F  F1710  1  0.643000  0.756000  0.741000  1
  F  F1711  1  0.744000  0.643000  0.741000  1
  F  F1712  1  0.756000  0.857000  0.741000  1
  F  F1713  1  0.357000  0.256000  0.241000  1
  F  F1714  1  0.143000  0.244000  0.241000  1
  F  F1715  1  0.244000  0.357000  0.241000  1
  F  F1716  1  0.256000  0.143000  0.241000  1
  F  F1717  1  0.143000  0.256000  0.259000  1
  F  F1718  1  0.357000  0.244000  0.259000  1
  F  F1719  1  0.256000  0.357000  0.259000  1
  F  F1720  1  0.244000  0.143000  0.259000  1
  F  F1721  1  0.688000  0.742000  0.775000  1
  F  F1722  1  0.812000  0.758000  0.775000  1
  F  F1723  1  0.758000  0.688000  0.775000  1
  F  F1724  1  0.742000  0.812000  0.775000  1
  F  F1725  1  0.812000  0.742000  0.725000  1
  F  F1726  1  0.688000  0.758000  0.725000  1
  F  F1727  1  0.742000  0.688000  0.725000  1
  F  F1728  1  0.758000  0.812000  0.725000  1
  F  F1729  1  0.312000  0.258000  0.225000  1
  F  F1730  1  0.188000  0.242000  0.225000  1
  F  F1731  1  0.242000  0.312000  0.225000  1
  F  F1732  1  0.258000  0.188000  0.225000  1
  F  F1733  1  0.188000  0.258000  0.275000  1
  F  F1734  1  0.312000  0.242000  0.275000  1
  F  F1735  1  0.258000  0.312000  0.275000  1
  F  F1736  1  0.242000  0.188000  0.275000  1
  F  F1737  1  0.678000  0.740000  0.730000  1
  F  F1738  1  0.822000  0.760000  0.730000  1
  F  F1739  1  0.760000  0.678000  0.730000  1
  F  F1740  1  0.740000  0.822000  0.730000  1
  F  F1741  1  0.822000  0.740000  0.770000  1
  F  F1742  1  0.678000  0.760000  0.770000  1
  F  F1743  1  0.740000  0.678000  0.770000  1
  F  F1744  1  0.760000  0.822000  0.770000  1
  F  F1745  1  0.322000  0.260000  0.270000  1
  F  F1746  1  0.178000  0.240000  0.270000  1
  F  F1747  1  0.240000  0.322000  0.270000  1
  F  F1748  1  0.260000  0.178000  0.270000  1
  F  F1749  1  0.178000  0.260000  0.230000  1
  F  F1750  1  0.322000  0.240000  0.230000  1
  F  F1751  1  0.260000  0.322000  0.230000  1
  F  F1752  1  0.240000  0.178000  0.230000  1
  F  F1753  1  0.750000  0.750000  0.726000  1
  F  F1754  1  0.750000  0.750000  0.774000  1
  F  F1755  1  0.250000  0.250000  0.274000  1
  F  F1756  1  0.250000  0.250000  0.226000  1
  F  F1757  1  0.704000  0.824000  0.883700  1
  F  F1758  1  0.796000  0.676000  0.883700  1
  F  F1759  1  0.676000  0.704000  0.883700  1
  F  F1760  1  0.824000  0.796000  0.883700  1
  F  F1761  1  0.796000  0.824000  0.616300  1
  F  F1762  1  0.704000  0.676000  0.616300  1
  F  F1763  1  0.824000  0.704000  0.616300  1
  F  F1764  1  0.676000  0.796000  0.616300  1
  F  F1765  1  0.296000  0.176000  0.116300  1
  F  F1766  1  0.204000  0.324000  0.116300  1
  F  F1767  1  0.324000  0.296000  0.116300  1
  F  F1768  1  0.176000  0.204000  0.116300  1
  F  F1769  1  0.204000  0.176000  0.383700  1
  F  F1770  1  0.296000  0.324000  0.383700  1
  F  F1771  1  0.176000  0.296000  0.383700  1
  F  F1772  1  0.324000  0.204000  0.383700  1
