
#######################################################################
#
#                 Cambridge Crystallographic Data Centre
#                                CCDC 
#
#######################################################################
#
# If this CIF has been generated from an entry in the Cambridge 
# Structural Database, then it will include bibliographic, chemical, 
# crystal, experimental, refinement or atomic coordinate data resulting 
# from the CCDC's data processing and validation procedures.
#
#######################################################################

data_LEKPOJ
_chemical_formula_moiety         'C288 H336 Cr24 O120'
_chemical_name_systematic        
'tetracosakis(\m-5-t-butylisophthalato)-tetracosa-aqua-tetracosa-chromium unknown solvate'
_symmetry_cell_setting           tetragonal
_symmetry_space_group_name_H-M   'I 4/m'
_symmetry_Int_Tables_number      87
_space_group_name_Hall           '-I 4'
loop_
_symmetry_equiv_pos_site_id
_symmetry_equiv_pos_as_xyz
1 x,y,z
2 -y,x,z
3 -x,-y,z
4 y,-x,z
5 1/2+x,1/2+y,1/2+z
6 1/2-y,1/2+x,1/2+z
7 1/2-x,1/2-y,1/2+z
8 1/2+y,1/2-x,1/2+z
9 -x,-y,-z
10 y,-x,-z
11 x,y,-z
12 -y,x,-z
13 1/2-x,1/2-y,1/2-z
14 1/2+y,1/2-x,1/2-z
15 1/2+x,1/2+y,1/2-z
16 1/2-y,1/2+x,1/2-z
_cell_length_a                   29.167(5)
_cell_length_b                   29.167(5)
_cell_length_c                   41.251(10)
_cell_angle_alpha                90
_cell_angle_beta                 90
_cell_angle_gamma                90
_cell_volume                     35092.8
_exptl_crystal_colour            'dark purple'
_exptl_crystal_description       Block
_cell_formula_units_Z            2
loop_
_atom_site_label
_atom_site_type_symbol
_atom_site_fract_x
_atom_site_fract_y
_atom_site_fract_z
Cr1 Cr 0.98363(6) 0.71918(5) 0.0000
Cr2 Cr 0.97840(7) 0.63739(6) 0.0000
Cr3 Cr 0.80717(5) 0.83061(5) -0.18218(4)
Cr4 Cr 0.85104(5) 0.86814(5) -0.14109(3)
O1 O 0.9875(3) 0.7966(2) 0.0000
O2 O 0.93508(16) 0.71943(15) -0.03462(12)
O3 O 0.9300(2) 0.64295(17) -0.03440(14)
O4 O 0.9715(3) 0.5623(2) 0.0000
O5 O 0.8164(2) 0.7730(2) -0.15795(15)
O6 O 0.7636(2) 0.79588(19) -0.22003(16)
O7 O 0.85755(17) 0.80755(17) -0.11820(11)
O8 O 0.8935(2) 0.9053(2) -0.10254(14)
O9 O 0.75107(18) 0.84382(19) -0.15563(18)
O10 O 0.79187(15) 0.88037(17) -0.11688(12)
O11 O 1.1104(2) 0.8004(2) -0.20474(15)
O12 O 1.07318(16) 0.84248(18) -0.16582(13)
O13 O 0.8643(2) 0.81912(19) -0.20489(13)
O14 O 0.9079(2) 0.8554(2) -0.16603(14)
O15 O 0.63668(15) 0.9740(2) -0.03111(17)
O16 O 0.71520(13) 0.96819(18) -0.03355(16)
C1 C 0.9234(3) 0.6821(3) -0.0461(2)
C2 C 0.8402(4) 0.7745(3) -0.1313(3)
C3 C 0.8783(2) 0.72538(18) -0.08875(19)
H1 H 0.8944 0.7521 -0.0822
C4 C 0.8860(2) 0.6840(2) -0.07289(17)
C5 C 0.8624(3) 0.64487(17) -0.08247(18)
H2 H 0.8677 0.6166 -0.0716
C6 C 0.8313(2) 0.64706(18) -0.10792(19)
C7 C 0.8236(2) 0.6884(2) -0.12378(17)
H3 H 0.8024 0.6899 -0.1412
C8 C 0.8472(3) 0.72757(17) -0.11419(18)
C9 C 0.8072(2) 0.60316(16) -0.11872(17)
C10 C 0.8396(3) 0.5750(3) -0.1399(3)
H4 H 0.8481 0.5929 -0.1591
H5 H 0.8243 0.5467 -0.1467
H6 H 0.8673 0.5674 -0.1275
C11 C 0.7937(4) 0.5751(3) -0.0890(2)
H7 H 0.7729 0.5932 -0.0753
H8 H 0.8212 0.5672 -0.0766
H9 H 0.7781 0.5470 -0.0959
C12 C 0.7643(3) 0.6154(3) -0.1381(3)
H10 H 0.7428 0.6319 -0.1241
H11 H 0.7499 0.5873 -0.1461
H12 H 0.7728 0.6349 -0.1565
C13 C 0.7557(3) 0.8660(3) -0.1298(3)
C14 C 0.6743(4) 0.9563(4) -0.0410(3)
C15 C 0.7112(2) 0.8761(3) -0.11018(19)
C16 C 0.6697(3) 0.8555(2) -0.11805(17)
H13 H 0.6685 0.8327 -0.1345
C17 C 0.62987(19) 0.8683(2) -0.10186(18)
C18 C 0.63160(18) 0.9016(3) -0.07781(19)
H14 H 0.6044 0.9103 -0.0667
C19 C 0.6731(2) 0.9222(2) -0.06993(18)
C20 C 0.71292(17) 0.9094(2) -0.08612(19)
H15 H 0.7413 0.9235 -0.0807
C21 C 0.5852(2) 0.8444(3) -0.1116(2)
C22 C 0.5906(3) 0.7937(3) -0.1208(3)
H16 H 0.5988 0.7760 -0.1015
H17 H 0.6147 0.7906 -0.1372
H18 H 0.5616 0.7822 -0.1297
C23 C 0.5477(4) 0.8484(4) -0.0858(3)
H19 H 0.5451 0.8804 -0.0788
H20 H 0.5556 0.8291 -0.0672
H21 H 0.5183 0.8382 -0.0949
C24 C 0.5700(4) 0.8711(4) -0.1418(3)
H22 H 0.5670 0.9037 -0.1363
H23 H 0.5405 0.8593 -0.1494
H24 H 0.5930 0.8675 -0.1589
C25 C 0.9022(3) 0.8332(4) -0.1910(3)
C26 C 1.0748(4) 0.8211(4) -0.1928(2)
C27 C 0.9890(3) 0.8266(3) -0.19407(11)
H25 H 0.9899 0.8381 -0.1725
C28 C 0.9472(2) 0.8217(3) -0.20989(16)
C29 C 0.9459(2) 0.8049(3) -0.24141(17)
H26 H 0.9174 0.8015 -0.2522
C30 C 0.9864(3) 0.7930(3) -0.25711(12)
C31 C 1.0282(2) 0.7979(3) -0.24129(17)
H27 H 1.0558 0.7898 -0.2520
C32 C 1.0295(2) 0.8147(3) -0.20977(17)
C33 C 0.9869(2) 0.7700(3) -0.29036(12)
C34 C 1.0116(4) 0.7240(3) -0.2880(2)
H28 H 1.0127 0.7096 -0.3094
H29 H 0.9949 0.7039 -0.2730
H30 H 1.0428 0.7288 -0.2800
C35 C 1.0120(4) 0.8008(4) -0.31450(17)
H31 H 1.0132 0.7856 -0.3357
H32 H 1.0432 0.8065 -0.3068
H33 H 0.9956 0.8300 -0.3166
C36 C 0.9378(3) 0.7624(5) -0.3018(2)
H34 H 0.9381 0.7476 -0.3232
H35 H 0.9220 0.7919 -0.3034
H36 H 0.9216 0.7427 -0.2863
Cr1A Cr 1.28082(5) 0.98363(6) 0.0000
Cr2A Cr 1.36261(6) 0.97840(7) 0.0000
Cr3A Cr 1.16939(5) 0.80717(5) -0.18218(4)
Cr4A Cr 1.13186(5) 0.85104(5) -0.14109(3)
O1A O 1.2034(2) 0.9875(3) 0.0000
O2A O 1.28057(15) 0.93508(16) -0.03462(12)
O3A O 1.35705(17) 0.9300(2) -0.03440(14)
O4A O 1.4377(2) 0.9715(3) 0.0000
O5A O 1.2270(2) 0.8164(2) -0.15795(15)
O6A O 1.20412(19) 0.7636(2) -0.22003(16)
O7A O 1.19245(17) 0.85755(17) -0.11820(11)
O8A O 1.0947(2) 0.8935(2) -0.10254(14)
O9A O 1.15618(19) 0.75107(18) -0.15563(18)
O10A O 1.11963(17) 0.79187(15) -0.11688(12)
O11A O 1.1996(2) 1.1104(2) -0.20474(15)
O12A O 1.15752(18) 1.07318(16) -0.16582(13)
O13A O 1.18088(19) 0.8643(2) -0.20489(13)
O14A O 1.1446(2) 0.9079(2) -0.16603(14)
O15A O 1.0260(2) 0.63668(15) -0.03111(17)
O16A O 1.03181(18) 0.71520(13) -0.03355(16)
C1A C 1.3179(3) 0.9234(3) -0.0461(2)
C2A C 1.2255(3) 0.8402(4) -0.1313(3)
C3A C 1.27462(18) 0.8783(2) -0.08875(19)
H1A H 1.2479 0.8944 -0.0822
C4A C 1.3160(2) 0.8860(2) -0.07289(17)
C5A C 1.35513(17) 0.8624(3) -0.08247(18)
H2A H 1.3834 0.8677 -0.0716
C6A C 1.35294(18) 0.8313(2) -0.10792(19)
C7A C 1.3116(2) 0.8236(2) -0.12378(17)
H3A H 1.3101 0.8024 -0.1412
C8A C 1.27243(17) 0.8472(3) -0.11419(18)
C9A C 1.39684(16) 0.8072(2) -0.11872(17)
C10A C 1.4250(3) 0.8396(3) -0.1399(3)
H4A H 1.4071 0.8481 -0.1591
H5A H 1.4533 0.8243 -0.1467
H6A H 1.4326 0.8673 -0.1275
C11A C 1.4249(3) 0.7937(4) -0.0890(2)
H7A H 1.4068 0.7729 -0.0753
H8A H 1.4328 0.8212 -0.0766
H9A H 1.4530 0.7781 -0.0959
C12A C 1.3846(3) 0.7643(3) -0.1381(3)
H10A H 1.3681 0.7428 -0.1241
H11A H 1.4127 0.7499 -0.1461
H12A H 1.3651 0.7728 -0.1565
C13A C 1.1340(3) 0.7557(3) -0.1298(3)
C14A C 1.0437(4) 0.6743(4) -0.0410(3)
C15A C 1.1239(3) 0.7112(2) -0.11018(19)
C16A C 1.1445(2) 0.6697(3) -0.11805(17)
H13A H 1.1673 0.6685 -0.1345
C17A C 1.1317(2) 0.62987(19) -0.10186(18)
C18A C 1.0984(3) 0.63160(18) -0.07781(19)
H14A H 1.0897 0.6044 -0.0667
C19A C 1.0778(2) 0.6731(2) -0.06993(18)
C20A C 1.0906(2) 0.71292(17) -0.08612(19)
H15A H 1.0765 0.7413 -0.0807
C21A C 1.1556(3) 0.5852(2) -0.1116(2)
C22A C 1.2063(3) 0.5906(3) -0.1208(3)
H16A H 1.2240 0.5988 -0.1015
H17A H 1.2094 0.6147 -0.1372
H18A H 1.2178 0.5616 -0.1297
C23A C 1.1516(4) 0.5477(4) -0.0858(3)
H19A H 1.1196 0.5451 -0.0788
H20A H 1.1709 0.5556 -0.0672
H21A H 1.1618 0.5183 -0.0949
C24A C 1.1289(4) 0.5700(4) -0.1418(3)
H22A H 1.0963 0.5670 -0.1363
H23A H 1.1407 0.5405 -0.1494
H24A H 1.1325 0.5930 -0.1589
C25A C 1.1668(4) 0.9022(3) -0.1910(3)
C26A C 1.1789(4) 1.0748(4) -0.1928(2)
C27A C 1.1734(3) 0.9890(3) -0.19407(11)
H25A H 1.1619 0.9899 -0.1725
C28A C 1.1783(3) 0.9472(2) -0.20989(16)
C29A C 1.1951(3) 0.9459(2) -0.24141(17)
H26A H 1.1985 0.9174 -0.2522
C30A C 1.2070(3) 0.9864(3) -0.25711(12)
C31A C 1.2021(3) 1.0282(2) -0.24129(17)
H27A H 1.2102 1.0558 -0.2520
C32A C 1.1853(3) 1.0295(2) -0.20977(17)
C33A C 1.2300(3) 0.9869(2) -0.29036(12)
C34A C 1.2760(3) 1.0116(4) -0.2880(2)
H28A H 1.2904 1.0127 -0.3094
H29A H 1.2961 0.9949 -0.2730
H30A H 1.2712 1.0428 -0.2800
C35A C 1.1992(4) 1.0120(4) -0.31450(17)
H31A H 1.2144 1.0132 -0.3357
H32A H 1.1935 1.0432 -0.3068
H33A H 1.1700 0.9956 -0.3166
C36A C 1.2376(5) 0.9378(3) -0.3018(2)
H34A H 1.2524 0.9381 -0.3232
H35A H 1.2081 0.9220 -0.3034
H36A H 1.2573 0.9216 -0.2863
Cr1C Cr 0.71918(5) 1.01637(6) 0.0000
Cr2C Cr 0.63739(6) 1.02160(7) 0.0000
Cr3C Cr 0.83061(5) 1.19283(5) -0.18218(4)
Cr4C Cr 0.86814(5) 1.14896(5) -0.14109(3)
O1C O 0.7966(2) 1.0125(3) 0.0000
O2C O 0.71943(15) 1.06492(16) -0.03462(12)
O3C O 0.64295(17) 1.0700(2) -0.03440(14)
O4C O 0.5623(2) 1.0285(3) 0.0000
O5C O 0.7730(2) 1.1836(2) -0.15795(15)
O6C O 0.79588(19) 1.2364(2) -0.22003(16)
O7C O 0.80755(17) 1.14245(17) -0.11820(11)
O8C O 0.9053(2) 1.1065(2) -0.10254(14)
O9C O 0.84382(19) 1.24893(18) -0.15563(18)
O10C O 0.88037(17) 1.20813(15) -0.11688(12)
O11C O 0.8004(2) 0.8896(2) -0.20474(15)
O12C O 0.84248(18) 0.92682(16) -0.16582(13)
O13C O 0.81912(19) 1.1357(2) -0.20489(13)
O14C O 0.8554(2) 1.0921(2) -0.16603(14)
O15C O 0.9740(2) 1.36332(15) -0.03111(17)
O16C O 0.96819(18) 1.28480(13) -0.03355(16)
C1C C 0.6821(3) 1.0766(3) -0.0461(2)
C2C C 0.7745(3) 1.1598(4) -0.1313(3)
C3C C 0.72538(18) 1.1217(2) -0.08875(19)
H1C H 0.7521 1.1056 -0.0822
C4C C 0.6840(2) 1.1140(2) -0.07289(17)
C5C C 0.64487(17) 1.1376(3) -0.08247(18)
H2C H 0.6166 1.1323 -0.0716
C6C C 0.64706(18) 1.1687(2) -0.10792(19)
C7C C 0.6884(2) 1.1764(2) -0.12378(17)
H3C H 0.6899 1.1976 -0.1412
C8C C 0.72757(17) 1.1528(3) -0.11419(18)
C9C C 0.60316(16) 1.1928(2) -0.11872(17)
C10C C 0.5750(3) 1.1604(3) -0.1399(3)
H4C H 0.5929 1.1519 -0.1591
H5C H 0.5467 1.1757 -0.1467
H6C H 0.5674 1.1327 -0.1275
C11C C 0.5751(3) 1.2063(4) -0.0890(2)
H7C H 0.5932 1.2271 -0.0753
H8C H 0.5672 1.1788 -0.0766
H9C H 0.5470 1.2219 -0.0959
C12C C 0.6154(3) 1.2357(3) -0.1381(3)
H10C H 0.6319 1.2572 -0.1241
H11C H 0.5873 1.2501 -0.1461
H12C H 0.6349 1.2272 -0.1565
C13C C 0.8660(3) 1.2443(3) -0.1298(3)
C14C C 0.9563(4) 1.3257(4) -0.0410(3)
C15C C 0.8761(3) 1.2888(2) -0.11018(19)
C16C C 0.8555(2) 1.3303(3) -0.11805(17)
H13C H 0.8327 1.3315 -0.1345
C17C C 0.8683(2) 1.37013(19) -0.10186(18)
C18C C 0.9016(3) 1.36840(18) -0.07781(19)
H14C H 0.9103 1.3956 -0.0667
C19C C 0.9222(2) 1.3269(2) -0.06993(18)
C20C C 0.9094(2) 1.28708(17) -0.08612(19)
H15C H 0.9235 1.2587 -0.0807
C21C C 0.8444(3) 1.4148(2) -0.1116(2)
C22C C 0.7937(3) 1.4094(3) -0.1208(3)
H16C H 0.7760 1.4012 -0.1015
H17C H 0.7906 1.3853 -0.1372
H18C H 0.7822 1.4384 -0.1297
C23C C 0.8484(4) 1.4523(4) -0.0858(3)
H19C H 0.8804 1.4549 -0.0788
H20C H 0.8291 1.4444 -0.0672
H21C H 0.8382 1.4817 -0.0949
C24C C 0.8711(4) 1.4300(4) -0.1418(3)
H22C H 0.9037 1.4330 -0.1363
H23C H 0.8593 1.4595 -0.1494
H24C H 0.8675 1.4070 -0.1589
C25C C 0.8332(4) 1.0978(3) -0.1910(3)
C26C C 0.8211(4) 0.9252(4) -0.1928(2)
C27C C 0.8266(3) 1.0110(3) -0.19407(11)
H25C H 0.8381 1.0101 -0.1725
C28C C 0.8217(3) 1.0528(2) -0.20989(16)
C29C C 0.8049(3) 1.0541(2) -0.24141(17)
H26C H 0.8015 1.0826 -0.2522
C30C C 0.7930(3) 1.0136(3) -0.25711(12)
C31C C 0.7979(3) 0.9718(2) -0.24129(17)
H27C H 0.7898 0.9442 -0.2520
C32C C 0.8147(3) 0.9705(2) -0.20977(17)
C33C C 0.7700(3) 1.0131(2) -0.29036(12)
C34C C 0.7240(3) 0.9884(4) -0.2880(2)
H28C H 0.7096 0.9873 -0.3094
H29C H 0.7039 1.0051 -0.2730
H30C H 0.7288 0.9572 -0.2800
C35C C 0.8008(4) 0.9880(4) -0.31450(17)
H31C H 0.7856 0.9868 -0.3357
H32C H 0.8065 0.9568 -0.3068
H33C H 0.8300 1.0044 -0.3166
C36C C 0.7624(5) 1.0622(3) -0.3018(2)
H34C H 0.7476 1.0619 -0.3232
H35C H 0.7919 1.0780 -0.3034
H36C H 0.7427 1.0784 -0.2863
Cr3I Cr 0.83061(5) 1.19283(5) 0.18218(4)
Cr4I Cr 0.86814(5) 1.14896(5) 0.14109(3)
O2I O 0.71943(15) 1.06492(16) 0.03462(12)
O3I O 0.64295(17) 1.0700(2) 0.03440(14)
O5I O 0.7730(2) 1.1836(2) 0.15795(15)
O6I O 0.79588(19) 1.2364(2) 0.22003(16)
O7I O 0.80755(17) 1.14245(17) 0.11820(11)
O8I O 0.9053(2) 1.1065(2) 0.10254(14)
O9I O 0.84382(19) 1.24893(18) 0.15563(18)
O10I O 0.88037(17) 1.20813(15) 0.11688(12)
O11I O 0.8004(2) 0.8896(2) 0.20474(15)
O12I O 0.84248(18) 0.92682(16) 0.16582(13)
O13I O 0.81912(19) 1.1357(2) 0.20489(13)
O14I O 0.8554(2) 1.0921(2) 0.16603(14)
O15I O 0.9740(2) 1.36332(15) 0.03111(17)
O16I O 0.96819(18) 1.28480(13) 0.03355(16)
C1I C 0.6821(3) 1.0766(3) 0.0461(2)
C2I C 0.7745(3) 1.1598(4) 0.1313(3)
C3I C 0.72538(18) 1.1217(2) 0.08875(19)
H1I H 0.7521 1.1056 0.0822
C4I C 0.6840(2) 1.1140(2) 0.07289(17)
C5I C 0.64487(17) 1.1376(3) 0.08247(18)
H2I H 0.6166 1.1323 0.0716
C6I C 0.64706(18) 1.1687(2) 0.10792(19)
C7I C 0.6884(2) 1.1764(2) 0.12378(17)
H3I H 0.6899 1.1976 0.1412
C8I C 0.72757(17) 1.1528(3) 0.11419(18)
C9I C 0.60316(16) 1.1928(2) 0.11872(17)
C10I C 0.5750(3) 1.1604(3) 0.1399(3)
H4I H 0.5929 1.1519 0.1591
H5I H 0.5467 1.1757 0.1467
H6I H 0.5674 1.1327 0.1275
C11I C 0.5751(3) 1.2063(4) 0.0890(2)
H7I H 0.5932 1.2271 0.0753
H8I H 0.5672 1.1788 0.0766
H9I H 0.5470 1.2219 0.0959
C12I C 0.6154(3) 1.2357(3) 0.1381(3)
H10I H 0.6319 1.2572 0.1241
H11I H 0.5873 1.2501 0.1461
H12I H 0.6349 1.2272 0.1565
C13I C 0.8660(3) 1.2443(3) 0.1298(3)
C14I C 0.9563(4) 1.3257(4) 0.0410(3)
C15I C 0.8761(3) 1.2888(2) 0.11018(19)
C16I C 0.8555(2) 1.3303(3) 0.11805(17)
H13I H 0.8327 1.3315 0.1345
C17I C 0.8683(2) 1.37013(19) 0.10186(18)
C18I C 0.9016(3) 1.36840(18) 0.07781(19)
H14I H 0.9103 1.3956 0.0667
C19I C 0.9222(2) 1.3269(2) 0.06993(18)
C20I C 0.9094(2) 1.28708(17) 0.08612(19)
H15I H 0.9235 1.2587 0.0807
C21I C 0.8444(3) 1.4148(2) 0.1116(2)
C22I C 0.7937(3) 1.4094(3) 0.1208(3)
H16I H 0.7760 1.4012 0.1015
H17I H 0.7906 1.3853 0.1372
H18I H 0.7822 1.4384 0.1297
C23I C 0.8484(4) 1.4523(4) 0.0858(3)
H19I H 0.8804 1.4549 0.0788
H20I H 0.8291 1.4444 0.0672
H21I H 0.8382 1.4817 0.0949
C24I C 0.8711(4) 1.4300(4) 0.1418(3)
H22I H 0.9037 1.4330 0.1363
H23I H 0.8593 1.4595 0.1494
H24I H 0.8675 1.4070 0.1589
C25I C 0.8332(4) 1.0978(3) 0.1910(3)
C26I C 0.8211(4) 0.9252(4) 0.1928(2)
C27I C 0.8266(3) 1.0110(3) 0.19407(11)
H25I H 0.8381 1.0101 0.1725
C28I C 0.8217(3) 1.0528(2) 0.20989(16)
C29I C 0.8049(3) 1.0541(2) 0.24141(17)
H26I H 0.8015 1.0826 0.2522
C30I C 0.7930(3) 1.0136(3) 0.25711(12)
C31I C 0.7979(3) 0.9718(2) 0.24129(17)
H27I H 0.7898 0.9442 0.2520
C32I C 0.8147(3) 0.9705(2) 0.20977(17)
C33I C 0.7700(3) 1.0131(2) 0.29036(12)
C34I C 0.7240(3) 0.9884(4) 0.2880(2)
H28I H 0.7096 0.9873 0.3094
H29I H 0.7039 1.0051 0.2730
H30I H 0.7288 0.9572 0.2800
C35I C 0.8008(4) 0.9880(4) 0.31450(17)
H31I H 0.7856 0.9868 0.3357
H32I H 0.8065 0.9568 0.3068
H33I H 0.8300 1.0044 0.3166
C36I C 0.7624(5) 1.0622(3) 0.3018(2)
H34I H 0.7476 1.0619 0.3232
H35I H 0.7919 1.0780 0.3034
H36I H 0.7427 1.0784 0.2863
Cr3J Cr 0.80717(5) 0.83061(5) 0.18218(4)
Cr4J Cr 0.85104(5) 0.86814(5) 0.14109(3)
O2J O 0.93508(16) 0.71943(15) 0.03462(12)
O3J O 0.9300(2) 0.64295(17) 0.03440(14)
O5J O 0.8164(2) 0.7730(2) 0.15795(15)
O6J O 0.7636(2) 0.79588(19) 0.22003(16)
O7J O 0.85755(17) 0.80755(17) 0.11820(11)
O8J O 0.8935(2) 0.9053(2) 0.10254(14)
O9J O 0.75107(18) 0.84382(19) 0.15563(18)
O10J O 0.79187(15) 0.88037(17) 0.11688(12)
O11J O 1.1104(2) 0.8004(2) 0.20474(15)
O12J O 1.07318(16) 0.84248(18) 0.16582(13)
O13J O 0.8643(2) 0.81912(19) 0.20489(13)
O14J O 0.9079(2) 0.8554(2) 0.16603(14)
O15J O 0.63668(15) 0.9740(2) 0.03111(17)
O16J O 0.71520(13) 0.96819(18) 0.03355(16)
C1J C 0.9234(3) 0.6821(3) 0.0461(2)
C2J C 0.8402(4) 0.7745(3) 0.1313(3)
C3J C 0.8783(2) 0.72538(18) 0.08875(19)
H1J H 0.8944 0.7521 0.0822
C4J C 0.8860(2) 0.6840(2) 0.07289(17)
C5J C 0.8624(3) 0.64487(17) 0.08247(18)
H2J H 0.8677 0.6166 0.0716
C6J C 0.8313(2) 0.64706(18) 0.10792(19)
C7J C 0.8236(2) 0.6884(2) 0.12378(17)
H3J H 0.8024 0.6899 0.1412
C8J C 0.8472(3) 0.72757(17) 0.11419(18)
C9J C 0.8072(2) 0.60316(16) 0.11872(17)
C10J C 0.8396(3) 0.5750(3) 0.1399(3)
H4J H 0.8481 0.5929 0.1591
H5J H 0.8243 0.5467 0.1467
H6J H 0.8673 0.5674 0.1275
C11J C 0.7937(4) 0.5751(3) 0.0890(2)
H7J H 0.7729 0.5932 0.0753
H8J H 0.8212 0.5672 0.0766
H9J H 0.7781 0.5470 0.0959
C12J C 0.7643(3) 0.6154(3) 0.1381(3)
H10J H 0.7428 0.6319 0.1241
H11J H 0.7499 0.5873 0.1461
H12J H 0.7728 0.6349 0.1565
C13J C 0.7557(3) 0.8660(3) 0.1298(3)
C14J C 0.6743(4) 0.9563(4) 0.0410(3)
C15J C 0.7112(2) 0.8761(3) 0.11018(19)
C16J C 0.6697(3) 0.8555(2) 0.11805(17)
H13J H 0.6685 0.8327 0.1345
C17J C 0.62987(19) 0.8683(2) 0.10186(18)
C18J C 0.63160(18) 0.9016(3) 0.07781(19)
H14J H 0.6044 0.9103 0.0667
C19J C 0.6731(2) 0.9222(2) 0.06993(18)
C20J C 0.71292(17) 0.9094(2) 0.08612(19)
H15J H 0.7413 0.9235 0.0807
C21J C 0.5852(2) 0.8444(3) 0.1116(2)
C22J C 0.5906(3) 0.7937(3) 0.1208(3)
H16J H 0.5988 0.7760 0.1015
H17J H 0.6147 0.7906 0.1372
H18J H 0.5616 0.7822 0.1297
C23J C 0.5477(4) 0.8484(4) 0.0858(3)
H19J H 0.5451 0.8804 0.0788
H20J H 0.5556 0.8291 0.0672
H21J H 0.5183 0.8382 0.0949
C24J C 0.5700(4) 0.8711(4) 0.1418(3)
H22J H 0.5670 0.9037 0.1363
H23J H 0.5405 0.8593 0.1494
H24J H 0.5930 0.8675 0.1589
C25J C 0.9022(3) 0.8332(4) 0.1910(3)
C26J C 1.0748(4) 0.8211(4) 0.1928(2)
C27J C 0.9890(3) 0.8266(3) 0.19407(11)
H25J H 0.9899 0.8381 0.1725
C28J C 0.9472(2) 0.8217(3) 0.20989(16)
C29J C 0.9459(2) 0.8049(3) 0.24141(17)
H26J H 0.9174 0.8015 0.2522
C30J C 0.9864(3) 0.7930(3) 0.25711(12)
C31J C 1.0282(2) 0.7979(3) 0.24129(17)
H27J H 1.0558 0.7898 0.2520
C32J C 1.0295(2) 0.8147(3) 0.20977(17)
C33J C 0.9869(2) 0.7700(3) 0.29036(12)
C34J C 1.0116(4) 0.7240(3) 0.2880(2)
H28J H 1.0127 0.7096 0.3094
H29J H 0.9949 0.7039 0.2730
H30J H 1.0428 0.7288 0.2800
C35J C 1.0120(4) 0.8008(4) 0.31450(17)
H31J H 1.0132 0.7856 0.3357
H32J H 1.0432 0.8065 0.3068
H33J H 0.9956 0.8300 0.3166
C36J C 0.9378(3) 0.7624(5) 0.3018(2)
H34J H 0.9381 0.7476 0.3232
H35J H 0.9220 0.7919 0.3034
H36J H 0.9216 0.7427 0.2863
Cr3K Cr 1.16939(5) 0.80717(5) 0.18218(4)
Cr4K Cr 1.13186(5) 0.85104(5) 0.14109(3)
O2K O 1.28057(15) 0.93508(16) 0.03462(12)
O3K O 1.35705(17) 0.9300(2) 0.03440(14)
O5K O 1.2270(2) 0.8164(2) 0.15795(15)
O6K O 1.20412(19) 0.7636(2) 0.22003(16)
O7K O 1.19245(17) 0.85755(17) 0.11820(11)
O8K O 1.0947(2) 0.8935(2) 0.10254(14)
O9K O 1.15618(19) 0.75107(18) 0.15563(18)
O10K O 1.11963(17) 0.79187(15) 0.11688(12)
O11K O 1.1996(2) 1.1104(2) 0.20474(15)
O12K O 1.15752(18) 1.07318(16) 0.16582(13)
O13K O 1.18088(19) 0.8643(2) 0.20489(13)
O14K O 1.1446(2) 0.9079(2) 0.16603(14)
O15K O 1.0260(2) 0.63668(15) 0.03111(17)
O16K O 1.03181(18) 0.71520(13) 0.03355(16)
C1K C 1.3179(3) 0.9234(3) 0.0461(2)
C2K C 1.2255(3) 0.8402(4) 0.1313(3)
C3K C 1.27462(18) 0.8783(2) 0.08875(19)
H1K H 1.2479 0.8944 0.0822
C4K C 1.3160(2) 0.8860(2) 0.07289(17)
C5K C 1.35513(17) 0.8624(3) 0.08247(18)
H2K H 1.3834 0.8677 0.0716
C6K C 1.35294(18) 0.8313(2) 0.10792(19)
C7K C 1.3116(2) 0.8236(2) 0.12378(17)
H3K H 1.3101 0.8024 0.1412
C8K C 1.27243(17) 0.8472(3) 0.11419(18)
C9K C 1.39684(16) 0.8072(2) 0.11872(17)
C10K C 1.4250(3) 0.8396(3) 0.1399(3)
H4K H 1.4071 0.8481 0.1591
H5K H 1.4533 0.8243 0.1467
H6K H 1.4326 0.8673 0.1275
C11K C 1.4249(3) 0.7937(4) 0.0890(2)
H7K H 1.4068 0.7729 0.0753
H8K H 1.4328 0.8212 0.0766
H9K H 1.4530 0.7781 0.0959
C12K C 1.3846(3) 0.7643(3) 0.1381(3)
H10K H 1.3681 0.7428 0.1241
H11K H 1.4127 0.7499 0.1461
H12K H 1.3651 0.7728 0.1565
C13K C 1.1340(3) 0.7557(3) 0.1298(3)
C14K C 1.0437(4) 0.6743(4) 0.0410(3)
C15K C 1.1239(3) 0.7112(2) 0.11018(19)
C16K C 1.1445(2) 0.6697(3) 0.11805(17)
H13K H 1.1673 0.6685 0.1345
C17K C 1.1317(2) 0.62987(19) 0.10186(18)
C18K C 1.0984(3) 0.63160(18) 0.07781(19)
H14K H 1.0897 0.6044 0.0667
C19K C 1.0778(2) 0.6731(2) 0.06993(18)
C20K C 1.0906(2) 0.71292(17) 0.08612(19)
H15K H 1.0765 0.7413 0.0807
C21K C 1.1556(3) 0.5852(2) 0.1116(2)
C22K C 1.2063(3) 0.5906(3) 0.1208(3)
H16K H 1.2240 0.5988 0.1015
H17K H 1.2094 0.6147 0.1372
H18K H 1.2178 0.5616 0.1297
C23K C 1.1516(4) 0.5477(4) 0.0858(3)
H19K H 1.1196 0.5451 0.0788
H20K H 1.1709 0.5556 0.0672
H21K H 1.1618 0.5183 0.0949
C24K C 1.1289(4) 0.5700(4) 0.1418(3)
H22K H 1.0963 0.5670 0.1363
H23K H 1.1407 0.5405 0.1494
H24K H 1.1325 0.5930 0.1589
C25K C 1.1668(4) 0.9022(3) 0.1910(3)
C26K C 1.1789(4) 1.0748(4) 0.1928(2)
C27K C 1.1734(3) 0.9890(3) 0.19407(11)
H25K H 1.1619 0.9899 0.1725
C28K C 1.1783(3) 0.9472(2) 0.20989(16)
C29K C 1.1951(3) 0.9459(2) 0.24141(17)
H26K H 1.1985 0.9174 0.2522
C30K C 1.2070(3) 0.9864(3) 0.25711(12)
C31K C 1.2021(3) 1.0282(2) 0.24129(17)
H27K H 1.2102 1.0558 0.2520
C32K C 1.1853(3) 1.0295(2) 0.20977(17)
C33K C 1.2300(3) 0.9869(2) 0.29036(12)
C34K C 1.2760(3) 1.0116(4) 0.2880(2)
H28K H 1.2904 1.0127 0.3094
H29K H 1.2961 0.9949 0.2730
H30K H 1.2712 1.0428 0.2800
C35K C 1.1992(4) 1.0120(4) 0.31450(17)
H31K H 1.2144 1.0132 0.3357
H32K H 1.1935 1.0432 0.3068
H33K H 1.1700 0.9956 0.3166
C36K C 1.2376(5) 0.9378(3) 0.3018(2)
H34K H 1.2524 0.9381 0.3232
H35K H 1.2081 0.9220 0.3034
H36K H 1.2573 0.9216 0.2863
Cr1B Cr 1.01637(6) 1.28082(5) 0.0000
Cr2B Cr 1.02160(7) 1.36261(6) 0.0000
Cr3B Cr 1.19283(5) 1.16939(5) -0.18218(4)
Cr4B Cr 1.14896(5) 1.13186(5) -0.14109(3)
O1B O 1.0125(3) 1.2034(2) 0.0000
O2B O 1.06492(16) 1.28057(15) -0.03462(12)
O3B O 1.0700(2) 1.35705(17) -0.03440(14)
O4B O 1.0285(3) 1.4377(2) 0.0000
O5B O 1.1836(2) 1.2270(2) -0.15795(15)
O6B O 1.2364(2) 1.20412(19) -0.22003(16)
O7B O 1.14245(17) 1.19245(17) -0.11820(11)
O8B O 1.1065(2) 1.0947(2) -0.10254(14)
O9B O 1.24893(18) 1.15618(19) -0.15563(18)
O10B O 1.20813(15) 1.11963(17) -0.11688(12)
O11B O 0.8896(2) 1.1996(2) -0.20474(15)
O12B O 0.92682(16) 1.15752(18) -0.16582(13)
O13B O 1.1357(2) 1.18088(19) -0.20489(13)
O14B O 1.0921(2) 1.1446(2) -0.16603(14)
O15B O 1.36332(15) 1.0260(2) -0.03111(17)
O16B O 1.28480(13) 1.03181(18) -0.03355(16)
C1B C 1.0766(3) 1.3179(3) -0.0461(2)
C2B C 1.1598(4) 1.2255(3) -0.1313(3)
C3B C 1.1217(2) 1.27462(18) -0.08875(19)
H1B H 1.1056 1.2479 -0.0822
C4B C 1.1140(2) 1.3160(2) -0.07289(17)
C5B C 1.1376(3) 1.35513(17) -0.08247(18)
H2B H 1.1323 1.3834 -0.0716
C6B C 1.1687(2) 1.35294(18) -0.10792(19)
C7B C 1.1764(2) 1.3116(2) -0.12378(17)
H3B H 1.1976 1.3101 -0.1412
C8B C 1.1528(3) 1.27243(17) -0.11419(18)
C9B C 1.1928(2) 1.39684(16) -0.11872(17)
C10B C 1.1604(3) 1.4250(3) -0.1399(3)
H4B H 1.1519 1.4071 -0.1591
H5B H 1.1757 1.4533 -0.1467
H6B H 1.1327 1.4326 -0.1275
C11B C 1.2063(4) 1.4249(3) -0.0890(2)
H7B H 1.2271 1.4068 -0.0753
H8B H 1.1788 1.4328 -0.0766
H9B H 1.2219 1.4530 -0.0959
C12B C 1.2357(3) 1.3846(3) -0.1381(3)
H10B H 1.2572 1.3681 -0.1241
H11B H 1.2501 1.4127 -0.1461
H12B H 1.2272 1.3651 -0.1565
C13B C 1.2443(3) 1.1340(3) -0.1298(3)
C14B C 1.3257(4) 1.0437(4) -0.0410(3)
C15B C 1.2888(2) 1.1239(3) -0.11018(19)
C16B C 1.3303(3) 1.1445(2) -0.11805(17)
H13B H 1.3315 1.1673 -0.1345
C17B C 1.37013(19) 1.1317(2) -0.10186(18)
C18B C 1.36840(18) 1.0984(3) -0.07781(19)
H14B H 1.3956 1.0897 -0.0667
C19B C 1.3269(2) 1.0778(2) -0.06993(18)
C20B C 1.28708(17) 1.0906(2) -0.08612(19)
H15B H 1.2587 1.0765 -0.0807
C21B C 1.4148(2) 1.1556(3) -0.1116(2)
C22B C 1.4094(3) 1.2063(3) -0.1208(3)
H16B H 1.4012 1.2240 -0.1015
H17B H 1.3853 1.2094 -0.1372
H18B H 1.4384 1.2178 -0.1297
C23B C 1.4523(4) 1.1516(4) -0.0858(3)
H19B H 1.4549 1.1196 -0.0788
H20B H 1.4444 1.1709 -0.0672
H21B H 1.4817 1.1618 -0.0949
C24B C 1.4300(4) 1.1289(4) -0.1418(3)
H22B H 1.4330 1.0963 -0.1363
H23B H 1.4595 1.1407 -0.1494
H24B H 1.4070 1.1325 -0.1589
C25B C 1.0978(3) 1.1668(4) -0.1910(3)
C26B C 0.9252(4) 1.1789(4) -0.1928(2)
C27B C 1.0110(3) 1.1734(3) -0.19407(11)
H25B H 1.0101 1.1619 -0.1725
C28B C 1.0528(2) 1.1783(3) -0.20989(16)
C29B C 1.0541(2) 1.1951(3) -0.24141(17)
H26B H 1.0826 1.1985 -0.2522
C30B C 1.0136(3) 1.2070(3) -0.25711(12)
C31B C 0.9718(2) 1.2021(3) -0.24129(17)
H27B H 0.9442 1.2102 -0.2520
C32B C 0.9705(2) 1.1853(3) -0.20977(17)
C33B C 1.0131(2) 1.2300(3) -0.29036(12)
C34B C 0.9884(4) 1.2760(3) -0.2880(2)
H28B H 0.9873 1.2904 -0.3094
H29B H 1.0051 1.2961 -0.2730
H30B H 0.9572 1.2712 -0.2800
C35B C 0.9880(4) 1.1992(4) -0.31450(17)
H31B H 0.9868 1.2144 -0.3357
H32B H 0.9568 1.1935 -0.3068
H33B H 1.0044 1.1700 -0.3166
C36B C 1.0622(3) 1.2376(5) -0.3018(2)
H34B H 1.0619 1.2524 -0.3232
H35B H 1.0780 1.2081 -0.3034
H36B H 1.0784 1.2573 -0.2863
Cr3H Cr 1.19283(5) 1.16939(5) 0.18218(4)
Cr4H Cr 1.14896(5) 1.13186(5) 0.14109(3)
O2H O 1.06492(16) 1.28057(15) 0.03462(12)
O3H O 1.0700(2) 1.35705(17) 0.03440(14)
O5H O 1.1836(2) 1.2270(2) 0.15795(15)
O6H O 1.2364(2) 1.20412(19) 0.22003(16)
O7H O 1.14245(17) 1.19245(17) 0.11820(11)
O8H O 1.1065(2) 1.0947(2) 0.10254(14)
O9H O 1.24893(18) 1.15618(19) 0.15563(18)
O10H O 1.20813(15) 1.11963(17) 0.11688(12)
O11H O 0.8896(2) 1.1996(2) 0.20474(15)
O12H O 0.92682(16) 1.15752(18) 0.16582(13)
O13H O 1.1357(2) 1.18088(19) 0.20489(13)
O14H O 1.0921(2) 1.1446(2) 0.16603(14)
O15H O 1.36332(15) 1.0260(2) 0.03111(17)
O16H O 1.28480(13) 1.03181(18) 0.03355(16)
C1H C 1.0766(3) 1.3179(3) 0.0461(2)
C2H C 1.1598(4) 1.2255(3) 0.1313(3)
C3H C 1.1217(2) 1.27462(18) 0.08875(19)
H1H H 1.1056 1.2479 0.0822
C4H C 1.1140(2) 1.3160(2) 0.07289(17)
C5H C 1.1376(3) 1.35513(17) 0.08247(18)
H2H H 1.1323 1.3834 0.0716
C6H C 1.1687(2) 1.35294(18) 0.10792(19)
C7H C 1.1764(2) 1.3116(2) 0.12378(17)
H3H H 1.1976 1.3101 0.1412
C8H C 1.1528(3) 1.27243(17) 0.11419(18)
C9H C 1.1928(2) 1.39684(16) 0.11872(17)
C10H C 1.1604(3) 1.4250(3) 0.1399(3)
H4H H 1.1519 1.4071 0.1591
H5H H 1.1757 1.4533 0.1467
H6H H 1.1327 1.4326 0.1275
C11H C 1.2063(4) 1.4249(3) 0.0890(2)
H7H H 1.2271 1.4068 0.0753
H8H H 1.1788 1.4328 0.0766
H9H H 1.2219 1.4530 0.0959
C12H C 1.2357(3) 1.3846(3) 0.1381(3)
H10H H 1.2572 1.3681 0.1241
H11H H 1.2501 1.4127 0.1461
H12H H 1.2272 1.3651 0.1565
C13H C 1.2443(3) 1.1340(3) 0.1298(3)
C14H C 1.3257(4) 1.0437(4) 0.0410(3)
C15H C 1.2888(2) 1.1239(3) 0.11018(19)
C16H C 1.3303(3) 1.1445(2) 0.11805(17)
H13H H 1.3315 1.1673 0.1345
C17H C 1.37013(19) 1.1317(2) 0.10186(18)
C18H C 1.36840(18) 1.0984(3) 0.07781(19)
H14H H 1.3956 1.0897 0.0667
C19H C 1.3269(2) 1.0778(2) 0.06993(18)
C20H C 1.28708(17) 1.0906(2) 0.08612(19)
H15H H 1.2587 1.0765 0.0807
C21H C 1.4148(2) 1.1556(3) 0.1116(2)
C22H C 1.4094(3) 1.2063(3) 0.1208(3)
H16H H 1.4012 1.2240 0.1015
H17H H 1.3853 1.2094 0.1372
H18H H 1.4384 1.2178 0.1297
C23H C 1.4523(4) 1.1516(4) 0.0858(3)
H19H H 1.4549 1.1196 0.0788
H20H H 1.4444 1.1709 0.0672
H21H H 1.4817 1.1618 0.0949
C24H C 1.4300(4) 1.1289(4) 0.1418(3)
H22H H 1.4330 1.0963 0.1363
H23H H 1.4595 1.1407 0.1494
H24H H 1.4070 1.1325 0.1589
C25H C 1.0978(3) 1.1668(4) 0.1910(3)
C26H C 0.9252(4) 1.1789(4) 0.1928(2)
C27H C 1.0110(3) 1.1734(3) 0.19407(11)
H25H H 1.0101 1.1619 0.1725
C28H C 1.0528(2) 1.1783(3) 0.20989(16)
C29H C 1.0541(2) 1.1951(3) 0.24141(17)
H26H H 1.0826 1.1985 0.2522
C30H C 1.0136(3) 1.2070(3) 0.25711(12)
C31H C 0.9718(2) 1.2021(3) 0.24129(17)
H27H H 0.9442 1.2102 0.2520
C32H C 0.9705(2) 1.1853(3) 0.20977(17)
C33H C 1.0131(2) 1.2300(3) 0.29036(12)
C34H C 0.9884(4) 1.2760(3) 0.2880(2)
H28H H 0.9873 1.2904 0.3094
H29H H 1.0051 1.2961 0.2730
H30H H 0.9572 1.2712 0.2800
C35H C 0.9880(4) 1.1992(4) 0.31450(17)
H31H H 0.9868 1.2144 0.3357
H32H H 0.9568 1.1935 0.3068
H33H H 1.0044 1.1700 0.3166
C36H C 1.0622(3) 1.2376(5) 0.3018(2)
H34H H 1.0619 1.2524 0.3232
H35H H 1.0780 1.2081 0.3034
H36H H 1.0784 1.2573 0.2863
loop_
_geom_bond_atom_site_label_1
_geom_bond_atom_site_label_2
_geom_bond_site_symmetry_1
_geom_bond_site_symmetry_2
Cr1 Cr2 1_555 1_555
Cr2 O3 1_555 1_555
Cr3 Cr4 1_555 1_555
Cr4 O7 1_555 1_555
O1 Cr1 1_555 1_555
O2 Cr1 1_555 1_555
O3 C1 1_555 1_555
O4 Cr2 1_555 1_555
O5 Cr3 1_555 1_555
O6 Cr3 1_555 1_555
O7 C2 1_555 1_555
O8 Cr4 1_555 1_555
O9 Cr3 1_555 1_555
O10 Cr4 1_555 1_555
O11 C26 1_555 1_555
O12 C26 1_555 1_555
O13 Cr3 1_555 1_555
O14 Cr4 1_555 1_555
O15 C14 1_555 1_555
O16 C14 1_555 1_555
C1 O2 1_555 1_555
C2 O5 1_555 1_555
C3 H1 1_555 1_555
C4 C1 1_555 1_555
C5 C4 1_555 1_555
H2 C5 1_555 1_555
C6 C5 1_555 1_555
C7 C6 1_555 1_555
H3 C7 1_555 1_555
C8 C2 1_555 1_555
C9 C6 1_555 1_555
C10 C9 1_555 1_555
H4 C10 1_555 1_555
H5 C10 1_555 1_555
H6 C10 1_555 1_555
C11 C9 1_555 1_555
H7 C11 1_555 1_555
H8 C11 1_555 1_555
H9 C11 1_555 1_555
C12 C9 1_555 1_555
H10 C12 1_555 1_555
H11 C12 1_555 1_555
H12 C12 1_555 1_555
C13 O9 1_555 1_555
C14 C19 1_555 1_555
C15 C13 1_555 1_555
C16 C15 1_555 1_555
H13 C16 1_555 1_555
C17 C16 1_555 1_555
C18 C17 1_555 1_555
H14 C18 1_555 1_555
C19 C18 1_555 1_555
C20 C15 1_555 1_555
H15 C20 1_555 1_555
C21 C17 1_555 1_555
C22 C21 1_555 1_555
H16 C22 1_555 1_555
H17 C22 1_555 1_555
H18 C22 1_555 1_555
C23 C21 1_555 1_555
H19 C23 1_555 1_555
H20 C23 1_555 1_555
H21 C23 1_555 1_555
C24 C21 1_555 1_555
H22 C24 1_555 1_555
H23 C24 1_555 1_555
H24 C24 1_555 1_555
C25 O13 1_555 1_555
C26 C32 1_555 1_555
C27 H25 1_555 1_555
C28 C25 1_555 1_555
C29 C28 1_555 1_555
H26 C29 1_555 1_555
C30 C29 1_555 1_555
C31 C30 1_555 1_555
H27 C31 1_555 1_555
C32 C27 1_555 1_555
C33 C30 1_555 1_555
C34 C33 1_555 1_555
H28 C34 1_555 1_555
H29 C34 1_555 1_555
H30 C34 1_555 1_555
C35 C33 1_555 1_555
H31 C35 1_555 1_555
H32 C35 1_555 1_555
H33 C35 1_555 1_555
C36 C33 1_555 1_555
H34 C36 1_555 1_555
H35 C36 1_555 1_555
H36 C36 1_555 1_555
Cr1A Cr2A 1_555 1_555
Cr2A O3A 1_555 1_555
Cr3A O11 1_555 1_555
Cr4A O12 1_555 1_555
O1A Cr1A 1_555 1_555
O2A Cr1A 1_555 1_555
O3A C1A 1_555 1_555
O4A Cr2A 1_555 1_555
O5A Cr3A 1_555 1_555
O6A Cr3A 1_555 1_555
O7A Cr4A 1_555 1_555
O8A Cr4A 1_555 1_555
O9A Cr3A 1_555 1_555
O10A Cr4A 1_555 1_555
O11A C26A 1_555 1_555
O12A C26A 1_555 1_555
O13A Cr3A 1_555 1_555
O14A Cr4A 1_555 1_555
O15A Cr2 1_555 1_555
O16A Cr1 1_555 1_555
C1A O2A 1_555 1_555
C2A O5A 1_555 1_555
C3A H1A 1_555 1_555
C4A C1A 1_555 1_555
C5A C4A 1_555 1_555
H2A C5A 1_555 1_555
C6A C5A 1_555 1_555
C7A C6A 1_555 1_555
H3A C7A 1_555 1_555
C8A C2A 1_555 1_555
C9A C6A 1_555 1_555
C10A C9A 1_555 1_555
H4A C10A 1_555 1_555
H5A C10A 1_555 1_555
H6A C10A 1_555 1_555
C11A C9A 1_555 1_555
H7A C11A 1_555 1_555
H8A C11A 1_555 1_555
H9A C11A 1_555 1_555
C12A C9A 1_555 1_555
H10A C12A 1_555 1_555
H11A C12A 1_555 1_555
H12A C12A 1_555 1_555
C13A O9A 1_555 1_555
C14A O15A 1_555 1_555
C15A C13A 1_555 1_555
C16A C15A 1_555 1_555
H13A C16A 1_555 1_555
C17A C16A 1_555 1_555
C18A C17A 1_555 1_555
H14A C18A 1_555 1_555
C19A C14A 1_555 1_555
C20A C15A 1_555 1_555
H15A C20A 1_555 1_555
C21A C17A 1_555 1_555
C22A C21A 1_555 1_555
H16A C22A 1_555 1_555
H17A C22A 1_555 1_555
H18A C22A 1_555 1_555
C23A C21A 1_555 1_555
H19A C23A 1_555 1_555
H20A C23A 1_555 1_555
H21A C23A 1_555 1_555
C24A C21A 1_555 1_555
H22A C24A 1_555 1_555
H23A C24A 1_555 1_555
H24A C24A 1_555 1_555
C25A O13A 1_555 1_555
C26A C32A 1_555 1_555
C27A H25A 1_555 1_555
C28A C25A 1_555 1_555
C29A C28A 1_555 1_555
H26A C29A 1_555 1_555
C30A C29A 1_555 1_555
C31A C30A 1_555 1_555
H27A C31A 1_555 1_555
C32A C27A 1_555 1_555
C33A C30A 1_555 1_555
C34A C33A 1_555 1_555
H28A C34A 1_555 1_555
H29A C34A 1_555 1_555
H30A C34A 1_555 1_555
C35A C33A 1_555 1_555
H31A C35A 1_555 1_555
H32A C35A 1_555 1_555
H33A C35A 1_555 1_555
C36A C33A 1_555 1_555
H34A C36A 1_555 1_555
H35A C36A 1_555 1_555
H36A C36A 1_555 1_555
Cr1C O16 1_555 1_555
Cr2C O15 1_555 1_555
Cr3C Cr4C 1_555 1_555
Cr4C O7C 1_555 1_555
O1C Cr1C 1_555 1_555
O2C Cr1C 1_555 1_555
O3C Cr2C 1_555 1_555
O4C Cr2C 1_555 1_555
O5C Cr3C 1_555 1_555
O6C Cr3C 1_555 1_555
O7C C2C 1_555 1_555
O8C Cr4C 1_555 1_555
O9C Cr3C 1_555 1_555
O10C Cr4C 1_555 1_555
O11C Cr3 1_555 1_555
O12C Cr4 1_555 1_555
O13C Cr3C 1_555 1_555
O14C Cr4C 1_555 1_555
O15C C14C 1_555 1_555
O16C C14C 1_555 1_555
C1C O2C 1_555 1_555
C2C O5C 1_555 1_555
C3C H1C 1_555 1_555
C4C C1C 1_555 1_555
C5C C4C 1_555 1_555
H2C C5C 1_555 1_555
C6C C5C 1_555 1_555
C7C C6C 1_555 1_555
H3C C7C 1_555 1_555
C8C C2C 1_555 1_555
C9C C6C 1_555 1_555
C10C C9C 1_555 1_555
H4C C10C 1_555 1_555
H5C C10C 1_555 1_555
H6C C10C 1_555 1_555
C11C C9C 1_555 1_555
H7C C11C 1_555 1_555
H8C C11C 1_555 1_555
H9C C11C 1_555 1_555
C12C C9C 1_555 1_555
H10C C12C 1_555 1_555
H11C C12C 1_555 1_555
H12C C12C 1_555 1_555
C13C O9C 1_555 1_555
C14C C19C 1_555 1_555
C15C C13C 1_555 1_555
C16C C15C 1_555 1_555
H13C C16C 1_555 1_555
C17C C16C 1_555 1_555
C18C C17C 1_555 1_555
H14C C18C 1_555 1_555
C19C C18C 1_555 1_555
C20C C15C 1_555 1_555
H15C C20C 1_555 1_555
C21C C17C 1_555 1_555
C22C C21C 1_555 1_555
H16C C22C 1_555 1_555
H17C C22C 1_555 1_555
H18C C22C 1_555 1_555
C23C C21C 1_555 1_555
H19C C23C 1_555 1_555
H20C C23C 1_555 1_555
H21C C23C 1_555 1_555
C24C C21C 1_555 1_555
H22C C24C 1_555 1_555
H23C C24C 1_555 1_555
H24C C24C 1_555 1_555
C25C O13C 1_555 1_555
C26C O11C 1_555 1_555
C27C H25C 1_555 1_555
C28C C25C 1_555 1_555
C29C C28C 1_555 1_555
H26C C29C 1_555 1_555
C30C C29C 1_555 1_555
C31C C30C 1_555 1_555
H27C C31C 1_555 1_555
C32C C26C 1_555 1_555
C33C C30C 1_555 1_555
C34C C33C 1_555 1_555
H28C C34C 1_555 1_555
H29C C34C 1_555 1_555
H30C C34C 1_555 1_555
C35C C33C 1_555 1_555
H31C C35C 1_555 1_555
H32C C35C 1_555 1_555
H33C C35C 1_555 1_555
C36C C33C 1_555 1_555
H34C C36C 1_555 1_555
H35C C36C 1_555 1_555
H36C C36C 1_555 1_555
Cr3I Cr4I 1_555 1_555
Cr4I O7I 1_555 1_555
O2I Cr1C 1_555 1_555
O3I Cr2C 1_555 1_555
O5I Cr3I 1_555 1_555
O6I Cr3I 1_555 1_555
O7I C2I 1_555 1_555
O8I Cr4I 1_555 1_555
O9I Cr3I 1_555 1_555
O10I Cr4I 1_555 1_555
O11I C26I 1_555 1_555
O12I C26I 1_555 1_555
O13I Cr3I 1_555 1_555
O14I Cr4I 1_555 1_555
O15I C14I 1_555 1_555
O16I C14I 1_555 1_555
C1I O2I 1_555 1_555
C2I O5I 1_555 1_555
C3I H1I 1_555 1_555
C4I C1I 1_555 1_555
C5I C4I 1_555 1_555
H2I C5I 1_555 1_555
C6I C5I 1_555 1_555
C7I C6I 1_555 1_555
H3I C7I 1_555 1_555
C8I C2I 1_555 1_555
C9I C6I 1_555 1_555
C10I C9I 1_555 1_555
H4I C10I 1_555 1_555
H5I C10I 1_555 1_555
H6I C10I 1_555 1_555
C11I C9I 1_555 1_555
H7I C11I 1_555 1_555
H8I C11I 1_555 1_555
H9I C11I 1_555 1_555
C12I C9I 1_555 1_555
H10I C12I 1_555 1_555
H11I C12I 1_555 1_555
H12I C12I 1_555 1_555
C13I O9I 1_555 1_555
C14I C19I 1_555 1_555
C15I C13I 1_555 1_555
C16I C15I 1_555 1_555
H13I C16I 1_555 1_555
C17I C16I 1_555 1_555
C18I C17I 1_555 1_555
H14I C18I 1_555 1_555
C19I C18I 1_555 1_555
C20I C15I 1_555 1_555
H15I C20I 1_555 1_555
C21I C17I 1_555 1_555
C22I C21I 1_555 1_555
H16I C22I 1_555 1_555
H17I C22I 1_555 1_555
H18I C22I 1_555 1_555
C23I C21I 1_555 1_555
H19I C23I 1_555 1_555
H20I C23I 1_555 1_555
H21I C23I 1_555 1_555
C24I C21I 1_555 1_555
H22I C24I 1_555 1_555
H23I C24I 1_555 1_555
H24I C24I 1_555 1_555
C25I O13I 1_555 1_555
C26I C32I 1_555 1_555
C27I H25I 1_555 1_555
C28I C25I 1_555 1_555
C29I C28I 1_555 1_555
H26I C29I 1_555 1_555
C30I C29I 1_555 1_555
C31I C30I 1_555 1_555
H27I C31I 1_555 1_555
C32I C27I 1_555 1_555
C33I C30I 1_555 1_555
C34I C33I 1_555 1_555
H28I C34I 1_555 1_555
H29I C34I 1_555 1_555
H30I C34I 1_555 1_555
C35I C33I 1_555 1_555
H31I C35I 1_555 1_555
H32I C35I 1_555 1_555
H33I C35I 1_555 1_555
C36I C33I 1_555 1_555
H34I C36I 1_555 1_555
H35I C36I 1_555 1_555
H36I C36I 1_555 1_555
Cr3J O11I 1_555 1_555
Cr4J O12I 1_555 1_555
O2J Cr1 1_555 1_555
O3J Cr2 1_555 1_555
O5J Cr3J 1_555 1_555
O6J Cr3J 1_555 1_555
O7J Cr4J 1_555 1_555
O8J Cr4J 1_555 1_555
O9J Cr3J 1_555 1_555
O10J Cr4J 1_555 1_555
O11J C26J 1_555 1_555
O12J C26J 1_555 1_555
O13J Cr3J 1_555 1_555
O14J Cr4J 1_555 1_555
O15J Cr2C 1_555 1_555
O16J Cr1C 1_555 1_555
C1J O2J 1_555 1_555
C2J O5J 1_555 1_555
C3J H1J 1_555 1_555
C4J C1J 1_555 1_555
C5J C4J 1_555 1_555
H2J C5J 1_555 1_555
C6J C5J 1_555 1_555
C7J C6J 1_555 1_555
H3J C7J 1_555 1_555
C8J C2J 1_555 1_555
C9J C6J 1_555 1_555
C10J C9J 1_555 1_555
H4J C10J 1_555 1_555
H5J C10J 1_555 1_555
H6J C10J 1_555 1_555
C11J C9J 1_555 1_555
H7J C11J 1_555 1_555
H8J C11J 1_555 1_555
H9J C11J 1_555 1_555
C12J C9J 1_555 1_555
H10J C12J 1_555 1_555
H11J C12J 1_555 1_555
H12J C12J 1_555 1_555
C13J O9J 1_555 1_555
C14J O15J 1_555 1_555
C15J C13J 1_555 1_555
C16J C15J 1_555 1_555
H13J C16J 1_555 1_555
C17J C16J 1_555 1_555
C18J C17J 1_555 1_555
H14J C18J 1_555 1_555
C19J C14J 1_555 1_555
C20J C15J 1_555 1_555
H15J C20J 1_555 1_555
C21J C17J 1_555 1_555
C22J C21J 1_555 1_555
H16J C22J 1_555 1_555
H17J C22J 1_555 1_555
H18J C22J 1_555 1_555
C23J C21J 1_555 1_555
H19J C23J 1_555 1_555
H20J C23J 1_555 1_555
H21J C23J 1_555 1_555
C24J C21J 1_555 1_555
H22J C24J 1_555 1_555
H23J C24J 1_555 1_555
H24J C24J 1_555 1_555
C25J O13J 1_555 1_555
C26J C32J 1_555 1_555
C27J H25J 1_555 1_555
C28J C25J 1_555 1_555
C29J C28J 1_555 1_555
H26J C29J 1_555 1_555
C30J C29J 1_555 1_555
C31J C30J 1_555 1_555
H27J C31J 1_555 1_555
C32J C27J 1_555 1_555
C33J C30J 1_555 1_555
C34J C33J 1_555 1_555
H28J C34J 1_555 1_555
H29J C34J 1_555 1_555
H30J C34J 1_555 1_555
C35J C33J 1_555 1_555
H31J C35J 1_555 1_555
H32J C35J 1_555 1_555
H33J C35J 1_555 1_555
C36J C33J 1_555 1_555
H34J C36J 1_555 1_555
H35J C36J 1_555 1_555
H36J C36J 1_555 1_555
Cr3K O11J 1_555 1_555
Cr4K O12J 1_555 1_555
O2K Cr1A 1_555 1_555
O3K Cr2A 1_555 1_555
O5K Cr3K 1_555 1_555
O6K Cr3K 1_555 1_555
O7K Cr4K 1_555 1_555
O8K Cr4K 1_555 1_555
O9K Cr3K 1_555 1_555
O10K Cr4K 1_555 1_555
O11K C26K 1_555 1_555
O12K C26K 1_555 1_555
O13K Cr3K 1_555 1_555
O14K Cr4K 1_555 1_555
O15K Cr2 1_555 1_555
O16K Cr1 1_555 1_555
C1K O2K 1_555 1_555
C2K O5K 1_555 1_555
C3K H1K 1_555 1_555
C4K C1K 1_555 1_555
C5K C4K 1_555 1_555
H2K C5K 1_555 1_555
C6K C5K 1_555 1_555
C7K C6K 1_555 1_555
H3K C7K 1_555 1_555
C8K C2K 1_555 1_555
C9K C6K 1_555 1_555
C10K C9K 1_555 1_555
H4K C10K 1_555 1_555
H5K C10K 1_555 1_555
H6K C10K 1_555 1_555
C11K C9K 1_555 1_555
H7K C11K 1_555 1_555
H8K C11K 1_555 1_555
H9K C11K 1_555 1_555
C12K C9K 1_555 1_555
H10K C12K 1_555 1_555
H11K C12K 1_555 1_555
H12K C12K 1_555 1_555
C13K O9K 1_555 1_555
C14K O15K 1_555 1_555
C15K C13K 1_555 1_555
C16K C15K 1_555 1_555
H13K C16K 1_555 1_555
C17K C16K 1_555 1_555
C18K C17K 1_555 1_555
H14K C18K 1_555 1_555
C19K C14K 1_555 1_555
C20K C15K 1_555 1_555
H15K C20K 1_555 1_555
C21K C17K 1_555 1_555
C22K C21K 1_555 1_555
H16K C22K 1_555 1_555
H17K C22K 1_555 1_555
H18K C22K 1_555 1_555
C23K C21K 1_555 1_555
H19K C23K 1_555 1_555
H20K C23K 1_555 1_555
H21K C23K 1_555 1_555
C24K C21K 1_555 1_555
H22K C24K 1_555 1_555
H23K C24K 1_555 1_555
H24K C24K 1_555 1_555
C25K O13K 1_555 1_555
C26K C32K 1_555 1_555
C27K H25K 1_555 1_555
C28K C25K 1_555 1_555
C29K C28K 1_555 1_555
H26K C29K 1_555 1_555
C30K C29K 1_555 1_555
C31K C30K 1_555 1_555
H27K C31K 1_555 1_555
C32K C27K 1_555 1_555
C33K C30K 1_555 1_555
C34K C33K 1_555 1_555
H28K C34K 1_555 1_555
H29K C34K 1_555 1_555
H30K C34K 1_555 1_555
C35K C33K 1_555 1_555
H31K C35K 1_555 1_555
H32K C35K 1_555 1_555
H33K C35K 1_555 1_555
C36K C33K 1_555 1_555
H34K C36K 1_555 1_555
H35K C36K 1_555 1_555
H36K C36K 1_555 1_555
Cr1B O16C 1_555 1_555
Cr2B O15C 1_555 1_555
Cr3B O11A 1_555 1_555
Cr4B O12A 1_555 1_555
O1B Cr1B 1_555 1_555
O2B Cr1B 1_555 1_555
O3B Cr2B 1_555 1_555
O4B Cr2B 1_555 1_555
O5B Cr3B 1_555 1_555
O6B Cr3B 1_555 1_555
O7B Cr4B 1_555 1_555
O8B Cr4B 1_555 1_555
O9B Cr3B 1_555 1_555
O10B Cr4B 1_555 1_555
O11B Cr3C 1_555 1_555
O12B Cr4C 1_555 1_555
O13B Cr3B 1_555 1_555
O14B Cr4B 1_555 1_555
O15B Cr2A 1_555 1_555
O16B Cr1A 1_555 1_555
C1B O2B 1_555 1_555
C2B O5B 1_555 1_555
C3B H1B 1_555 1_555
C4B C1B 1_555 1_555
C5B C4B 1_555 1_555
H2B C5B 1_555 1_555
C6B C5B 1_555 1_555
C7B C6B 1_555 1_555
H3B C7B 1_555 1_555
C8B C2B 1_555 1_555
C9B C6B 1_555 1_555
C10B C9B 1_555 1_555
H4B C10B 1_555 1_555
H5B C10B 1_555 1_555
H6B C10B 1_555 1_555
C11B C9B 1_555 1_555
H7B C11B 1_555 1_555
H8B C11B 1_555 1_555
H9B C11B 1_555 1_555
C12B C9B 1_555 1_555
H10B C12B 1_555 1_555
H11B C12B 1_555 1_555
H12B C12B 1_555 1_555
C13B O9B 1_555 1_555
C14B O15B 1_555 1_555
C15B C13B 1_555 1_555
C16B C15B 1_555 1_555
H13B C16B 1_555 1_555
C17B C16B 1_555 1_555
C18B C17B 1_555 1_555
H14B C18B 1_555 1_555
C19B C14B 1_555 1_555
C20B C15B 1_555 1_555
H15B C20B 1_555 1_555
C21B C17B 1_555 1_555
C22B C21B 1_555 1_555
H16B C22B 1_555 1_555
H17B C22B 1_555 1_555
H18B C22B 1_555 1_555
C23B C21B 1_555 1_555
H19B C23B 1_555 1_555
H20B C23B 1_555 1_555
H21B C23B 1_555 1_555
C24B C21B 1_555 1_555
H22B C24B 1_555 1_555
H23B C24B 1_555 1_555
H24B C24B 1_555 1_555
C25B O13B 1_555 1_555
C26B O11B 1_555 1_555
C27B H25B 1_555 1_555
C28B C25B 1_555 1_555
C29B C28B 1_555 1_555
H26B C29B 1_555 1_555
C30B C29B 1_555 1_555
C31B C30B 1_555 1_555
H27B C31B 1_555 1_555
C32B C26B 1_555 1_555
C33B C30B 1_555 1_555
C34B C33B 1_555 1_555
H28B C34B 1_555 1_555
H29B C34B 1_555 1_555
H30B C34B 1_555 1_555
C35B C33B 1_555 1_555
H31B C35B 1_555 1_555
H32B C35B 1_555 1_555
H33B C35B 1_555 1_555
C36B C33B 1_555 1_555
H34B C36B 1_555 1_555
H35B C36B 1_555 1_555
H36B C36B 1_555 1_555
Cr3H O11K 1_555 1_555
Cr4H O12K 1_555 1_555
O2H Cr1B 1_555 1_555
O3H Cr2B 1_555 1_555
O5H Cr3H 1_555 1_555
O6H Cr3H 1_555 1_555
O7H Cr4H 1_555 1_555
O8H Cr4H 1_555 1_555
O9H Cr3H 1_555 1_555
O10H Cr4H 1_555 1_555
O11H Cr3I 1_555 1_555
O12H Cr4I 1_555 1_555
O13H Cr3H 1_555 1_555
O14H Cr4H 1_555 1_555
O15H Cr2A 1_555 1_555
O16H Cr1A 1_555 1_555
C1H O2H 1_555 1_555
C2H O5H 1_555 1_555
C3H H1H 1_555 1_555
C4H C1H 1_555 1_555
C5H C4H 1_555 1_555
H2H C5H 1_555 1_555
C6H C5H 1_555 1_555
C7H C6H 1_555 1_555
H3H C7H 1_555 1_555
C8H C2H 1_555 1_555
C9H C6H 1_555 1_555
C10H C9H 1_555 1_555
H4H C10H 1_555 1_555
H5H C10H 1_555 1_555
H6H C10H 1_555 1_555
C11H C9H 1_555 1_555
H7H C11H 1_555 1_555
H8H C11H 1_555 1_555
H9H C11H 1_555 1_555
C12H C9H 1_555 1_555
H10H C12H 1_555 1_555
H11H C12H 1_555 1_555
H12H C12H 1_555 1_555
C13H O9H 1_555 1_555
C14H O15H 1_555 1_555
C15H C13H 1_555 1_555
C16H C15H 1_555 1_555
H13H C16H 1_555 1_555
C17H C16H 1_555 1_555
C18H C17H 1_555 1_555
H14H C18H 1_555 1_555
C19H C14H 1_555 1_555
C20H C15H 1_555 1_555
H15H C20H 1_555 1_555
C21H C17H 1_555 1_555
C22H C21H 1_555 1_555
H16H C22H 1_555 1_555
H17H C22H 1_555 1_555
H18H C22H 1_555 1_555
C23H C21H 1_555 1_555
H19H C23H 1_555 1_555
H20H C23H 1_555 1_555
H21H C23H 1_555 1_555
C24H C21H 1_555 1_555
H22H C24H 1_555 1_555
H23H C24H 1_555 1_555
H24H C24H 1_555 1_555
C25H O13H 1_555 1_555
C26H O11H 1_555 1_555
C27H H25H 1_555 1_555
C28H C25H 1_555 1_555
C29H C28H 1_555 1_555
H26H C29H 1_555 1_555
C30H C29H 1_555 1_555
C31H C30H 1_555 1_555
H27H C31H 1_555 1_555
C32H C26H 1_555 1_555
C33H C30H 1_555 1_555
C34H C33H 1_555 1_555
H28H C34H 1_555 1_555
H29H C34H 1_555 1_555
H30H C34H 1_555 1_555
C35H C33H 1_555 1_555
H31H C35H 1_555 1_555
H32H C35H 1_555 1_555
H33H C35H 1_555 1_555
C36H C33H 1_555 1_555
H34H C36H 1_555 1_555
H35H C36H 1_555 1_555
H36H C36H 1_555 1_555
O10 C13 1_555 1_555
O14 C25 1_555 1_555
C3 C4 1_555 1_555
C3 C8 1_555 1_555
C7 C8 1_555 1_555
C19 C20 1_555 1_555
C27 C28 1_555 1_555
C31 C32 1_555 1_555
Cr3A Cr4A 1_555 1_555
O7A C2A 1_555 1_555
O10A C13A 1_555 1_555
O14A C25A 1_555 1_555
O16A C14A 1_555 1_555
C3A C4A 1_555 1_555
C3A C8A 1_555 1_555
C7A C8A 1_555 1_555
C18A C19A 1_555 1_555
C19A C20A 1_555 1_555
C27A C28A 1_555 1_555
C31A C32A 1_555 1_555
Cr1C Cr2C 1_555 1_555
O3C C1C 1_555 1_555
O10C C13C 1_555 1_555
O12C C26C 1_555 1_555
O14C C25C 1_555 1_555
C3C C4C 1_555 1_555
C3C C8C 1_555 1_555
C7C C8C 1_555 1_555
C19C C20C 1_555 1_555
C27C C28C 1_555 1_555
C27C C32C 1_555 1_555
C31C C32C 1_555 1_555
O3I C1I 1_555 1_555
O10I C13I 1_555 1_555
O14I C25I 1_555 1_555
O15I Cr2B 1_555 1_555
O16I Cr1B 1_555 1_555
C3I C4I 1_555 1_555
C3I C8I 1_555 1_555
C7I C8I 1_555 1_555
C19I C20I 1_555 1_555
C27I C28I 1_555 1_555
C31I C32I 1_555 1_555
Cr3J Cr4J 1_555 1_555
O3J C1J 1_555 1_555
O7J C2J 1_555 1_555
O10J C13J 1_555 1_555
O14J C25J 1_555 1_555
O16J C14J 1_555 1_555
C3J C4J 1_555 1_555
C3J C8J 1_555 1_555
C7J C8J 1_555 1_555
C18J C19J 1_555 1_555
C19J C20J 1_555 1_555
C27J C28J 1_555 1_555
C31J C32J 1_555 1_555
Cr3K Cr4K 1_555 1_555
O3K C1K 1_555 1_555
O7K C2K 1_555 1_555
O10K C13K 1_555 1_555
O14K C25K 1_555 1_555
O16K C14K 1_555 1_555
C3K C4K 1_555 1_555
C3K C8K 1_555 1_555
C7K C8K 1_555 1_555
C18K C19K 1_555 1_555
C19K C20K 1_555 1_555
C27K C28K 1_555 1_555
C31K C32K 1_555 1_555
Cr1B Cr2B 1_555 1_555
Cr3B Cr4B 1_555 1_555
O3B C1B 1_555 1_555
O7B C2B 1_555 1_555
O10B C13B 1_555 1_555
O12B C26B 1_555 1_555
O14B C25B 1_555 1_555
O16B C14B 1_555 1_555
C3B C4B 1_555 1_555
C3B C8B 1_555 1_555
C7B C8B 1_555 1_555
C18B C19B 1_555 1_555
C19B C20B 1_555 1_555
C27B C28B 1_555 1_555
C27B C32B 1_555 1_555
C31B C32B 1_555 1_555
Cr3H Cr4H 1_555 1_555
O3H C1H 1_555 1_555
O7H C2H 1_555 1_555
O10H C13H 1_555 1_555
O12H C26H 1_555 1_555
O14H C25H 1_555 1_555
O16H C14H 1_555 1_555
C3H C4H 1_555 1_555
C3H C8H 1_555 1_555
C7H C8H 1_555 1_555
C18H C19H 1_555 1_555
C19H C20H 1_555 1_555
C27H C28H 1_555 1_555
C27H C32H 1_555 1_555
C31H C32H 1_555 1_555

#END
