
#######################################################################
#
#                 Cambridge Crystallographic Data Centre
#                                CCDC 
#
#######################################################################
#
# If this CIF has been generated from an entry in the Cambridge 
# Structural Database, then it will include bibliographic, chemical, 
# crystal, experimental, refinement or atomic coordinate data resulting 
# from the CCDC's data processing and validation procedures.
#
#######################################################################

data_LEKPID
_chemical_formula_moiety         'C192 H144 Cr24 O120'
_chemical_name_systematic        
'tetracosakis(\m-isophthalato)-tetracosa-aqua-tetracosa-chromium unknown solvate'
_symmetry_cell_setting           tetragonal
_symmetry_space_group_name_H-M   'I 4/m'
_symmetry_Int_Tables_number      87
_space_group_name_Hall           '-I 4'
loop_
_symmetry_equiv_pos_site_id
_symmetry_equiv_pos_as_xyz
1 x,y,z
2 -y,x,z
3 -x,-y,z
4 y,-x,z
5 1/2+x,1/2+y,1/2+z
6 1/2-y,1/2+x,1/2+z
7 1/2-x,1/2-y,1/2+z
8 1/2+y,1/2-x,1/2+z
9 -x,-y,-z
10 y,-x,-z
11 x,y,-z
12 -y,x,-z
13 1/2-x,1/2-y,1/2-z
14 1/2+y,1/2-x,1/2-z
15 1/2+x,1/2+y,1/2-z
16 1/2-y,1/2+x,1/2-z
_cell_length_a                   26.454(4)
_cell_length_b                   26.454(4)
_cell_length_c                   36.809(6)
_cell_angle_alpha                90
_cell_angle_beta                 90
_cell_angle_gamma                90
_cell_volume                     25759.5
_exptl_crystal_colour            purple
_exptl_crystal_description       'truncated octahedron'
_cell_formula_units_Z            2
loop_
_atom_site_label
_atom_site_type_symbol
_atom_site_fract_x
_atom_site_fract_y
_atom_site_fract_z
Cr1 Cr 0.28252(5) 0.13685(6) 0.0000
Cr2 Cr 0.20909(4) -0.07273(4) -0.15760(3)
Cr3 Cr 0.26788(5) -0.09272(5) -0.20373(3)
Cr4 Cr 0.36328(6) 0.17612(7) 0.0000
O1 O 0.15568(19) 0.28478(19) 0.17525(13)
O2 O 0.13658(17) 0.22854(16) 0.13190(10)
O3 O 0.26151(15) 0.18633(16) 0.03868(11)
O4 O 0.33727(19) 0.22295(17) 0.03858(13)
O5 O 0.30807(16) 0.08950(15) -0.03859(10)
O6 O 0.38367(17) 0.12600(19) -0.03851(13)
O7 O 0.26538(19) -0.03514(15) -0.13184(10)
O8 O 0.32203(17) -0.05518(18) -0.17495(12)
O9 O 0.15629(15) -0.11209(16) -0.18661(12)
O10 O 0.2107(2) -0.1311(2) -0.23047(12)
O11 O -0.00960(16) -0.19136(16) -0.18520(11)
O12 O -0.03042(19) -0.24640(19) -0.23032(11)
O13 O 0.2065(2) 0.0974(2) 0.0000
O14 O 0.4407(3) 0.2124(3) 0.0000
O15 O 0.15323(16) -0.05254(17) -0.11381(11)
O16 O 0.32063(18) -0.11766(18) -0.25247(15)
C1 C 0.16332(19) 0.2600(2) 0.14564(18)
C2 C 0.21413(16) 0.2701(2) 0.12779(16)
C3 C 0.2292(2) 0.24082(16) 0.09836(16)
H1 H 0.2078 0.2147 0.0896
C4 C 0.2755(3) 0.2496(2) 0.08178(11)
C5 C 0.30683(17) 0.2878(3) 0.09466(18)
H2 H 0.3385 0.2939 0.0833
C6 C 0.2919(3) 0.3172(2) 0.1241(2)
H3 H 0.3133 0.3432 0.1328
C7 C 0.2455(3) 0.3083(2) 0.14063(13)
H4 H 0.2352 0.3283 0.1607
C8 C 0.2917(3) 0.2186(3) 0.0505(2)
C9 C 0.3507(2) 0.0940(3) -0.0509(2)
C10 C 0.3684(3) 0.06257(17) -0.08222(11)
C11 C 0.33177(18) 0.0317(2) -0.09774(18)
H5 H 0.2983 0.0316 -0.0883
C12 C 0.3441(3) 0.00083(17) -0.12702(17)
C13 C 0.3930(3) 0.0010(2) -0.14075(13)
H6 H 0.4015 -0.0201 -0.1608
C14 C 0.42964(18) 0.0318(3) -0.1253(2)
H7 H 0.4631 0.0319 -0.1347
C15 C 0.4173(3) 0.0626(2) -0.0960(2)
H8 H 0.4423 0.0838 -0.0854
C16 C 0.3086(3) -0.0343(3) -0.1464(2)
C17 C 0.1708(2) -0.1339(3) -0.2160(2)
C18 C 0.12895(18) -0.16478(14) -0.23303(13)
C19 C 0.0835(2) -0.17525(16) -0.21573(9)
H9 H 0.0775 -0.1627 -0.1919
C20 C 0.04674(15) -0.20392(16) -0.23303(13)
C21 C 0.05547(18) -0.22224(16) -0.26783(14)
H10 H 0.0304 -0.2419 -0.2797
C22 C 0.1009(2) -0.2119(2) -0.28526(10)
H11 H 0.1069 -0.2244 -0.3091
C23 C 0.13763(16) -0.18312(18) -0.26783(14)
H12 H 0.1687 -0.1760 -0.2797
C24 C -0.0010(3) -0.2144(3) -0.2142(2)
Cr1A Cr -0.13685(6) 0.28252(5) 0.0000
Cr2A Cr 0.07273(4) 0.20909(4) -0.15760(3)
Cr3A Cr 0.09272(5) 0.26788(5) -0.20373(3)
Cr4A Cr -0.17612(7) 0.36328(6) 0.0000
O1A O -0.28478(19) 0.15568(19) 0.17525(13)
O2A O -0.22854(16) 0.13658(17) 0.13190(10)
O3A O -0.18633(16) 0.26151(15) 0.03868(11)
O4A O -0.22295(17) 0.33727(19) 0.03858(13)
O5A O -0.08950(15) 0.30807(16) -0.03859(10)
O6A O -0.12600(19) 0.38367(17) -0.03851(13)
O7A O 0.03514(15) 0.26538(19) -0.13184(10)
O8A O 0.05518(18) 0.32203(17) -0.17495(12)
O9A O 0.11209(16) 0.15629(15) -0.18661(12)
O10A O 0.1311(2) 0.2107(2) -0.23047(12)
O11A O 0.19136(16) -0.00960(16) -0.18520(11)
O12A O 0.24640(19) -0.03042(19) -0.23032(11)
O13A O -0.0974(2) 0.2065(2) 0.0000
O14A O -0.2124(3) 0.4407(3) 0.0000
O15A O 0.05254(17) 0.15323(16) -0.11381(11)
O16A O 0.11766(18) 0.32063(18) -0.25247(15)
C1A C -0.2600(2) 0.16332(19) 0.14564(18)
C2A C -0.2701(2) 0.21413(16) 0.12779(16)
C3A C -0.24082(16) 0.2292(2) 0.09836(16)
H1A H -0.2147 0.2078 0.0896
C4A C -0.2496(2) 0.2755(3) 0.08178(11)
C5A C -0.2878(3) 0.30683(17) 0.09466(18)
H2A H -0.2939 0.3385 0.0833
C6A C -0.3172(2) 0.2919(3) 0.1241(2)
H3A H -0.3432 0.3133 0.1328
C7A C -0.3083(2) 0.2455(3) 0.14063(13)
H4A H -0.3283 0.2352 0.1607
C8A C -0.2186(3) 0.2917(3) 0.0505(2)
C9A C -0.0940(3) 0.3507(2) -0.0509(2)
C10A C -0.06257(17) 0.3684(3) -0.08222(11)
C11A C -0.0317(2) 0.33177(18) -0.09774(18)
H5A H -0.0316 0.2983 -0.0883
C12A C -0.00083(17) 0.3441(3) -0.12702(17)
C13A C -0.0010(2) 0.3930(3) -0.14075(13)
H6A H 0.0201 0.4015 -0.1608
C14A C -0.0318(3) 0.42964(18) -0.1253(2)
H7A H -0.0319 0.4631 -0.1347
C15A C -0.0626(2) 0.4173(3) -0.0960(2)
H8A H -0.0838 0.4423 -0.0854
C16A C 0.0343(3) 0.3086(3) -0.1464(2)
C17A C 0.1339(3) 0.1708(2) -0.2160(2)
C18A C 0.16478(14) 0.12895(18) -0.23303(13)
C19A C 0.17525(16) 0.0835(2) -0.21573(9)
H9A H 0.1627 0.0775 -0.1919
C20A C 0.20392(16) 0.04674(15) -0.23303(13)
C21A C 0.22224(16) 0.05547(18) -0.26783(14)
H10A H 0.2419 0.0304 -0.2797
C22A C 0.2119(2) 0.1009(2) -0.28526(10)
H11A H 0.2244 0.1069 -0.3091
C23A C 0.18312(18) 0.13763(16) -0.26783(14)
H12A H 0.1760 0.1687 -0.2797
C24A C 0.2144(3) -0.0010(3) -0.2142(2)
Cr1B Cr -0.28252(5) -0.13685(6) 0.0000
Cr2B Cr -0.20909(4) 0.07273(4) -0.15760(3)
Cr3B Cr -0.26788(5) 0.09272(5) -0.20373(3)
Cr4B Cr -0.36328(6) -0.17612(7) 0.0000
O1B O -0.15568(19) -0.28478(19) 0.17525(13)
O2B O -0.13658(17) -0.22854(16) 0.13190(10)
O3B O -0.26151(15) -0.18633(16) 0.03868(11)
O4B O -0.33727(19) -0.22295(17) 0.03858(13)
O5B O -0.30807(16) -0.08950(15) -0.03859(10)
O6B O -0.38367(17) -0.12600(19) -0.03851(13)
O7B O -0.26538(19) 0.03514(15) -0.13184(10)
O8B O -0.32203(17) 0.05518(18) -0.17495(12)
O9B O -0.15629(15) 0.11209(16) -0.18661(12)
O10B O -0.2107(2) 0.1311(2) -0.23047(12)
O11B O 0.00960(16) 0.19136(16) -0.18520(11)
O12B O 0.03042(19) 0.24640(19) -0.23032(11)
O13B O -0.2065(2) -0.0974(2) 0.0000
O14B O -0.4407(3) -0.2124(3) 0.0000
O15B O -0.15323(16) 0.05254(17) -0.11381(11)
O16B O -0.32063(18) 0.11766(18) -0.25247(15)
C1B C -0.16332(19) -0.2600(2) 0.14564(18)
C2B C -0.21413(16) -0.2701(2) 0.12779(16)
C3B C -0.2292(2) -0.24082(16) 0.09836(16)
H1B H -0.2078 -0.2147 0.0896
C4B C -0.2755(3) -0.2496(2) 0.08178(11)
C5B C -0.30683(17) -0.2878(3) 0.09466(18)
H2B H -0.3385 -0.2939 0.0833
C6B C -0.2919(3) -0.3172(2) 0.1241(2)
H3B H -0.3133 -0.3432 0.1328
C7B C -0.2455(3) -0.3083(2) 0.14063(13)
H4B H -0.2352 -0.3283 0.1607
C8B C -0.2917(3) -0.2186(3) 0.0505(2)
C9B C -0.3507(2) -0.0940(3) -0.0509(2)
C10B C -0.3684(3) -0.06257(17) -0.08222(11)
C11B C -0.33177(18) -0.0317(2) -0.09774(18)
H5B H -0.2983 -0.0316 -0.0883
C12B C -0.3441(3) -0.00083(17) -0.12702(17)
C13B C -0.3930(3) -0.0010(2) -0.14075(13)
H6B H -0.4015 0.0201 -0.1608
C14B C -0.42964(18) -0.0318(3) -0.1253(2)
H7B H -0.4631 -0.0319 -0.1347
C15B C -0.4173(3) -0.0626(2) -0.0960(2)
H8B H -0.4423 -0.0838 -0.0854
C16B C -0.3086(3) 0.0343(3) -0.1464(2)
C17B C -0.1708(2) 0.1339(3) -0.2160(2)
C18B C -0.12895(18) 0.16478(14) -0.23303(13)
C19B C -0.0835(2) 0.17525(16) -0.21573(9)
H9B H -0.0775 0.1627 -0.1919
C20B C -0.04674(15) 0.20392(16) -0.23303(13)
C21B C -0.05547(18) 0.22224(16) -0.26783(14)
H10B H -0.0304 0.2419 -0.2797
C22B C -0.1009(2) 0.2119(2) -0.28526(10)
H11B H -0.1069 0.2244 -0.3091
C23B C -0.13763(16) 0.18312(18) -0.26783(14)
H12B H -0.1687 0.1760 -0.2797
C24B C 0.0010(3) 0.2144(3) -0.2142(2)
Cr1C Cr 0.13685(6) -0.28252(5) 0.0000
Cr2C Cr -0.07273(4) -0.20909(4) -0.15760(3)
Cr3C Cr -0.09272(5) -0.26788(5) -0.20373(3)
Cr4C Cr 0.17612(7) -0.36328(6) 0.0000
O1C O 0.28478(19) -0.15568(19) 0.17525(13)
O2C O 0.22854(16) -0.13658(17) 0.13190(10)
O3C O 0.18633(16) -0.26151(15) 0.03868(11)
O4C O 0.22295(17) -0.33727(19) 0.03858(13)
O5C O 0.08950(15) -0.30807(16) -0.03859(10)
O6C O 0.12600(19) -0.38367(17) -0.03851(13)
O7C O -0.03514(15) -0.26538(19) -0.13184(10)
O8C O -0.05518(18) -0.32203(17) -0.17495(12)
O9C O -0.11209(16) -0.15629(15) -0.18661(12)
O10C O -0.1311(2) -0.2107(2) -0.23047(12)
O11C O -0.19136(16) 0.00960(16) -0.18520(11)
O12C O -0.24640(19) 0.03042(19) -0.23032(11)
O13C O 0.0974(2) -0.2065(2) 0.0000
O14C O 0.2124(3) -0.4407(3) 0.0000
O15C O -0.05254(17) -0.15323(16) -0.11381(11)
O16C O -0.11766(18) -0.32063(18) -0.25247(15)
C1C C 0.2600(2) -0.16332(19) 0.14564(18)
C2C C 0.2701(2) -0.21413(16) 0.12779(16)
C3C C 0.24082(16) -0.2292(2) 0.09836(16)
H1C H 0.2147 -0.2078 0.0896
C4C C 0.2496(2) -0.2755(3) 0.08178(11)
C5C C 0.2878(3) -0.30683(17) 0.09466(18)
H2C H 0.2939 -0.3385 0.0833
C6C C 0.3172(2) -0.2919(3) 0.1241(2)
H3C H 0.3432 -0.3133 0.1328
C7C C 0.3083(2) -0.2455(3) 0.14063(13)
H4C H 0.3283 -0.2352 0.1607
C8C C 0.2186(3) -0.2917(3) 0.0505(2)
C9C C 0.0940(3) -0.3507(2) -0.0509(2)
C10C C 0.06257(17) -0.3684(3) -0.08222(11)
C11C C 0.0317(2) -0.33177(18) -0.09774(18)
H5C H 0.0316 -0.2983 -0.0883
C12C C 0.00083(17) -0.3441(3) -0.12702(17)
C13C C 0.0010(2) -0.3930(3) -0.14075(13)
H6C H -0.0201 -0.4015 -0.1608
C14C C 0.0318(3) -0.42964(18) -0.1253(2)
H7C H 0.0319 -0.4631 -0.1347
C15C C 0.0626(2) -0.4173(3) -0.0960(2)
H8C H 0.0838 -0.4423 -0.0854
C16C C -0.0343(3) -0.3086(3) -0.1464(2)
C17C C -0.1339(3) -0.1708(2) -0.2160(2)
C18C C -0.16478(14) -0.12895(18) -0.23303(13)
C19C C -0.17525(16) -0.0835(2) -0.21573(9)
H9C H -0.1627 -0.0775 -0.1919
C20C C -0.20392(16) -0.04674(15) -0.23303(13)
C21C C -0.22224(16) -0.05547(18) -0.26783(14)
H10C H -0.2419 -0.0304 -0.2797
C22C C -0.2119(2) -0.1009(2) -0.28526(10)
H11C H -0.2244 -0.1069 -0.3091
C23C C -0.18312(18) -0.13763(16) -0.26783(14)
H12C H -0.1760 -0.1687 -0.2797
C24C C -0.2144(3) 0.0010(3) -0.2142(2)
Cr2H Cr -0.20909(4) 0.07273(4) 0.15760(3)
Cr3H Cr -0.26788(5) 0.09272(5) 0.20373(3)
O1H O -0.15568(19) -0.28478(19) -0.17525(13)
O2H O -0.13658(17) -0.22854(16) -0.13190(10)
O3H O -0.26151(15) -0.18633(16) -0.03868(11)
O4H O -0.33727(19) -0.22295(17) -0.03858(13)
O5H O -0.30807(16) -0.08950(15) 0.03859(10)
O6H O -0.38367(17) -0.12600(19) 0.03851(13)
O7H O -0.26538(19) 0.03514(15) 0.13184(10)
O8H O -0.32203(17) 0.05518(18) 0.17495(12)
O9H O -0.15629(15) 0.11209(16) 0.18661(12)
O10H O -0.2107(2) 0.1311(2) 0.23047(12)
O11H O 0.00960(16) 0.19136(16) 0.18520(11)
O12H O 0.03042(19) 0.24640(19) 0.23032(11)
O15H O -0.15323(16) 0.05254(17) 0.11381(11)
O16H O -0.32063(18) 0.11766(18) 0.25247(15)
C1H C -0.16332(19) -0.2600(2) -0.14564(18)
C2H C -0.21413(16) -0.2701(2) -0.12779(16)
C3H C -0.2292(2) -0.24082(16) -0.09836(16)
H1H H -0.2078 -0.2147 -0.0896
C4H C -0.2755(3) -0.2496(2) -0.08178(11)
C5H C -0.30683(17) -0.2878(3) -0.09466(18)
H2H H -0.3385 -0.2939 -0.0833
C6H C -0.2919(3) -0.3172(2) -0.1241(2)
H3H H -0.3133 -0.3432 -0.1328
C7H C -0.2455(3) -0.3083(2) -0.14063(13)
H4H H -0.2352 -0.3283 -0.1607
C8H C -0.2917(3) -0.2186(3) -0.0505(2)
C9H C -0.3507(2) -0.0940(3) 0.0509(2)
C10H C -0.3684(3) -0.06257(17) 0.08222(11)
C11H C -0.33177(18) -0.0317(2) 0.09774(18)
H5H H -0.2983 -0.0316 0.0883
C12H C -0.3441(3) -0.00083(17) 0.12702(17)
C13H C -0.3930(3) -0.0010(2) 0.14075(13)
H6H H -0.4015 0.0201 0.1608
C14H C -0.42964(18) -0.0318(3) 0.1253(2)
H7H H -0.4631 -0.0319 0.1347
C15H C -0.4173(3) -0.0626(2) 0.0960(2)
H8H H -0.4423 -0.0838 0.0854
C16H C -0.3086(3) 0.0343(3) 0.1464(2)
C17H C -0.1708(2) 0.1339(3) 0.2160(2)
C18H C -0.12895(18) 0.16478(14) 0.23303(13)
C19H C -0.0835(2) 0.17525(16) 0.21573(9)
H9H H -0.0775 0.1627 0.1919
C20H C -0.04674(15) 0.20392(16) 0.23303(13)
C21H C -0.05547(18) 0.22224(16) 0.26783(14)
H10H H -0.0304 0.2419 0.2797
C22H C -0.1009(2) 0.2119(2) 0.28526(10)
H11H H -0.1069 0.2244 0.3091
C23H C -0.13763(16) 0.18312(18) 0.26783(14)
H12H H -0.1687 0.1760 0.2797
C24H C 0.0010(3) 0.2144(3) 0.2142(2)
Cr2I Cr -0.07273(4) -0.20909(4) 0.15760(3)
Cr3I Cr -0.09272(5) -0.26788(5) 0.20373(3)
O1I O 0.28478(19) -0.15568(19) -0.17525(13)
O2I O 0.22854(16) -0.13658(17) -0.13190(10)
O3I O 0.18633(16) -0.26151(15) -0.03868(11)
O4I O 0.22295(17) -0.33727(19) -0.03858(13)
O5I O 0.08950(15) -0.30807(16) 0.03859(10)
O6I O 0.12600(19) -0.38367(17) 0.03851(13)
O7I O -0.03514(15) -0.26538(19) 0.13184(10)
O8I O -0.05518(18) -0.32203(17) 0.17495(12)
O9I O -0.11209(16) -0.15629(15) 0.18661(12)
O10I O -0.1311(2) -0.2107(2) 0.23047(12)
O11I O -0.19136(16) 0.00960(16) 0.18520(11)
O12I O -0.24640(19) 0.03042(19) 0.23032(11)
O15I O -0.05254(17) -0.15323(16) 0.11381(11)
O16I O -0.11766(18) -0.32063(18) 0.25247(15)
C1I C 0.2600(2) -0.16332(19) -0.14564(18)
C2I C 0.2701(2) -0.21413(16) -0.12779(16)
C3I C 0.24082(16) -0.2292(2) -0.09836(16)
H1I H 0.2147 -0.2078 -0.0896
C4I C 0.2496(2) -0.2755(3) -0.08178(11)
C5I C 0.2878(3) -0.30683(17) -0.09466(18)
H2I H 0.2939 -0.3385 -0.0833
C6I C 0.3172(2) -0.2919(3) -0.1241(2)
H3I H 0.3432 -0.3133 -0.1328
C7I C 0.3083(2) -0.2455(3) -0.14063(13)
H4I H 0.3283 -0.2352 -0.1607
C8I C 0.2186(3) -0.2917(3) -0.0505(2)
C9I C 0.0940(3) -0.3507(2) 0.0509(2)
C10I C 0.06257(17) -0.3684(3) 0.08222(11)
C11I C 0.0317(2) -0.33177(18) 0.09774(18)
H5I H 0.0316 -0.2983 0.0883
C12I C 0.00083(17) -0.3441(3) 0.12702(17)
C13I C 0.0010(2) -0.3930(3) 0.14075(13)
H6I H -0.0201 -0.4015 0.1608
C14I C 0.0318(3) -0.42964(18) 0.1253(2)
H7I H 0.0319 -0.4631 0.1347
C15I C 0.0626(2) -0.4173(3) 0.0960(2)
H8I H 0.0838 -0.4423 0.0854
C16I C -0.0343(3) -0.3086(3) 0.1464(2)
C17I C -0.1339(3) -0.1708(2) 0.2160(2)
C18I C -0.16478(14) -0.12895(18) 0.23303(13)
C19I C -0.17525(16) -0.0835(2) 0.21573(9)
H9I H -0.1627 -0.0775 0.1919
C20I C -0.20392(16) -0.04674(15) 0.23303(13)
C21I C -0.22224(16) -0.05547(18) 0.26783(14)
H10I H -0.2419 -0.0304 0.2797
C22I C -0.2119(2) -0.1009(2) 0.28526(10)
H11I H -0.2244 -0.1069 0.3091
C23I C -0.18312(18) -0.13763(16) 0.26783(14)
H12I H -0.1760 -0.1687 0.2797
C24I C -0.2144(3) 0.0010(3) 0.2142(2)
Cr2J Cr 0.20909(4) -0.07273(4) 0.15760(3)
Cr3J Cr 0.26788(5) -0.09272(5) 0.20373(3)
O1J O 0.15568(19) 0.28478(19) -0.17525(13)
O2J O 0.13658(17) 0.22854(16) -0.13190(10)
O3J O 0.26151(15) 0.18633(16) -0.03868(11)
O4J O 0.33727(19) 0.22295(17) -0.03858(13)
O5J O 0.30807(16) 0.08950(15) 0.03859(10)
O6J O 0.38367(17) 0.12600(19) 0.03851(13)
O7J O 0.26538(19) -0.03514(15) 0.13184(10)
O8J O 0.32203(17) -0.05518(18) 0.17495(12)
O9J O 0.15629(15) -0.11209(16) 0.18661(12)
O10J O 0.2107(2) -0.1311(2) 0.23047(12)
O11J O -0.00960(16) -0.19136(16) 0.18520(11)
O12J O -0.03042(19) -0.24640(19) 0.23032(11)
O15J O 0.15323(16) -0.05254(17) 0.11381(11)
O16J O 0.32063(18) -0.11766(18) 0.25247(15)
C1J C 0.16332(19) 0.2600(2) -0.14564(18)
C2J C 0.21413(16) 0.2701(2) -0.12779(16)
C3J C 0.2292(2) 0.24082(16) -0.09836(16)
H1J H 0.2078 0.2147 -0.0896
C4J C 0.2755(3) 0.2496(2) -0.08178(11)
C5J C 0.30683(17) 0.2878(3) -0.09466(18)
H2J H 0.3385 0.2939 -0.0833
C6J C 0.2919(3) 0.3172(2) -0.1241(2)
H3J H 0.3133 0.3432 -0.1328
C7J C 0.2455(3) 0.3083(2) -0.14063(13)
H4J H 0.2352 0.3283 -0.1607
C8J C 0.2917(3) 0.2186(3) -0.0505(2)
C9J C 0.3507(2) 0.0940(3) 0.0509(2)
C10J C 0.3684(3) 0.06257(17) 0.08222(11)
C11J C 0.33177(18) 0.0317(2) 0.09774(18)
H5J H 0.2983 0.0316 0.0883
C12J C 0.3441(3) 0.00083(17) 0.12702(17)
C13J C 0.3930(3) 0.0010(2) 0.14075(13)
H6J H 0.4015 -0.0201 0.1608
C14J C 0.42964(18) 0.0318(3) 0.1253(2)
H7J H 0.4631 0.0319 0.1347
C15J C 0.4173(3) 0.0626(2) 0.0960(2)
H8J H 0.4423 0.0838 0.0854
C16J C 0.3086(3) -0.0343(3) 0.1464(2)
C17J C 0.1708(2) -0.1339(3) 0.2160(2)
C18J C 0.12895(18) -0.16478(14) 0.23303(13)
C19J C 0.0835(2) -0.17525(16) 0.21573(9)
H9J H 0.0775 -0.1627 0.1919
C20J C 0.04674(15) -0.20392(16) 0.23303(13)
C21J C 0.05547(18) -0.22224(16) 0.26783(14)
H10J H 0.0304 -0.2419 0.2797
C22J C 0.1009(2) -0.2119(2) 0.28526(10)
H11J H 0.1069 -0.2244 0.3091
C23J C 0.13763(16) -0.18312(18) 0.26783(14)
H12J H 0.1687 -0.1760 0.2797
C24J C -0.0010(3) -0.2144(3) 0.2142(2)
Cr2K Cr 0.07273(4) 0.20909(4) 0.15760(3)
Cr3K Cr 0.09272(5) 0.26788(5) 0.20373(3)
O1K O -0.28478(19) 0.15568(19) -0.17525(13)
O2K O -0.22854(16) 0.13658(17) -0.13190(10)
O3K O -0.18633(16) 0.26151(15) -0.03868(11)
O4K O -0.22295(17) 0.33727(19) -0.03858(13)
O5K O -0.08950(15) 0.30807(16) 0.03859(10)
O6K O -0.12600(19) 0.38367(17) 0.03851(13)
O7K O 0.03514(15) 0.26538(19) 0.13184(10)
O8K O 0.05518(18) 0.32203(17) 0.17495(12)
O9K O 0.11209(16) 0.15629(15) 0.18661(12)
O10K O 0.1311(2) 0.2107(2) 0.23047(12)
O11K O 0.19136(16) -0.00960(16) 0.18520(11)
O12K O 0.24640(19) -0.03042(19) 0.23032(11)
O15K O 0.05254(17) 0.15323(16) 0.11381(11)
O16K O 0.11766(18) 0.32063(18) 0.25247(15)
C1K C -0.2600(2) 0.16332(19) -0.14564(18)
C2K C -0.2701(2) 0.21413(16) -0.12779(16)
C3K C -0.24082(16) 0.2292(2) -0.09836(16)
H1K H -0.2147 0.2078 -0.0896
C4K C -0.2496(2) 0.2755(3) -0.08178(11)
C5K C -0.2878(3) 0.30683(17) -0.09466(18)
H2K H -0.2939 0.3385 -0.0833
C6K C -0.3172(2) 0.2919(3) -0.1241(2)
H3K H -0.3432 0.3133 -0.1328
C7K C -0.3083(2) 0.2455(3) -0.14063(13)
H4K H -0.3283 0.2352 -0.1607
C8K C -0.2186(3) 0.2917(3) -0.0505(2)
C9K C -0.0940(3) 0.3507(2) 0.0509(2)
C10K C -0.06257(17) 0.3684(3) 0.08222(11)
C11K C -0.0317(2) 0.33177(18) 0.09774(18)
H5K H -0.0316 0.2983 0.0883
C12K C -0.00083(17) 0.3441(3) 0.12702(17)
C13K C -0.0010(2) 0.3930(3) 0.14075(13)
H6K H 0.0201 0.4015 0.1608
C14K C -0.0318(3) 0.42964(18) 0.1253(2)
H7K H -0.0319 0.4631 0.1347
C15K C -0.0626(2) 0.4173(3) 0.0960(2)
H8K H -0.0838 0.4423 0.0854
C16K C 0.0343(3) 0.3086(3) 0.1464(2)
C17K C 0.1339(3) 0.1708(2) 0.2160(2)
C18K C 0.16478(14) 0.12895(18) 0.23303(13)
C19K C 0.17525(16) 0.0835(2) 0.21573(9)
H9K H 0.1627 0.0775 0.1919
C20K C 0.20392(16) 0.04674(15) 0.23303(13)
C21K C 0.22224(16) 0.05547(18) 0.26783(14)
H10K H 0.2419 0.0304 0.2797
C22K C 0.2119(2) 0.1009(2) 0.28526(10)
H11K H 0.2244 0.1069 0.3091
C23K C 0.18312(18) 0.13763(16) 0.26783(14)
H12K H 0.1760 0.1687 0.2797
C24K C 0.2144(3) -0.0010(3) 0.2142(2)
loop_
_geom_bond_atom_site_label_1
_geom_bond_atom_site_label_2
_geom_bond_site_symmetry_1
_geom_bond_site_symmetry_2
Cr1 Cr4 1_555 1_555
Cr2 Cr3 1_555 1_555
Cr3 O8 1_555 1_555
Cr4 O4 1_555 1_555
O1 C1 1_555 1_555
O2 C1 1_555 1_555
O3 Cr1 1_555 1_555
O4 C8 1_555 1_555
O5 Cr1 1_555 1_555
O6 Cr4 1_555 1_555
O7 Cr2 1_555 1_555
O8 C16 1_555 1_555
O9 Cr2 1_555 1_555
O10 Cr3 1_555 1_555
O11 C24 1_555 1_555
O12 C24 1_555 1_555
O13 Cr1 1_555 1_555
O14 Cr4 1_555 1_555
O15 Cr2 1_555 1_555
O16 Cr3 1_555 1_555
C1 C2 1_555 1_555
C2 C3 1_555 1_555
C3 H1 1_555 1_555
C4 C3 1_555 1_555
C5 C4 1_555 1_555
H2 C5 1_555 1_555
C6 C5 1_555 1_555
H3 C6 1_555 1_555
C7 C2 1_555 1_555
H4 C7 1_555 1_555
C8 O3 1_555 1_555
C9 O5 1_555 1_555
C10 C9 1_555 1_555
C11 C10 1_555 1_555
H5 C11 1_555 1_555
C12 C11 1_555 1_555
C13 C12 1_555 1_555
H6 C13 1_555 1_555
C14 C13 1_555 1_555
H7 C14 1_555 1_555
C15 C10 1_555 1_555
H8 C15 1_555 1_555
C16 O7 1_555 1_555
C17 O9 1_555 1_555
C18 C17 1_555 1_555
C19 C18 1_555 1_555
H9 C19 1_555 1_555
C20 C19 1_555 1_555
C21 C20 1_555 1_555
H10 C21 1_555 1_555
C22 C21 1_555 1_555
H11 C22 1_555 1_555
C23 C18 1_555 1_555
H12 C23 1_555 1_555
C24 C20 1_555 1_555
Cr1A Cr4A 1_555 1_555
Cr2A Cr3A 1_555 1_555
Cr3A O8A 1_555 1_555
Cr4A O4A 1_555 1_555
O1A C1A 1_555 1_555
O2A C1A 1_555 1_555
O3A Cr1A 1_555 1_555
O4A C8A 1_555 1_555
O5A Cr1A 1_555 1_555
O6A Cr4A 1_555 1_555
O7A Cr2A 1_555 1_555
O8A C16A 1_555 1_555
O9A Cr2A 1_555 1_555
O10A Cr3A 1_555 1_555
O11A Cr2 1_555 1_555
O12A Cr3 1_555 1_555
O13A Cr1A 1_555 1_555
O14A Cr4A 1_555 1_555
O15A Cr2A 1_555 1_555
O16A Cr3A 1_555 1_555
C1A C2A 1_555 1_555
C2A C3A 1_555 1_555
C3A H1A 1_555 1_555
C4A C3A 1_555 1_555
C5A C4A 1_555 1_555
H2A C5A 1_555 1_555
C6A C5A 1_555 1_555
H3A C6A 1_555 1_555
C7A C2A 1_555 1_555
H4A C7A 1_555 1_555
C8A O3A 1_555 1_555
C9A O5A 1_555 1_555
C10A C9A 1_555 1_555
C11A C10A 1_555 1_555
H5A C11A 1_555 1_555
C12A C11A 1_555 1_555
C13A C12A 1_555 1_555
H6A C13A 1_555 1_555
C14A C13A 1_555 1_555
H7A C14A 1_555 1_555
C15A C10A 1_555 1_555
H8A C15A 1_555 1_555
C16A O7A 1_555 1_555
C17A O9A 1_555 1_555
C18A C17A 1_555 1_555
C19A C18A 1_555 1_555
H9A C19A 1_555 1_555
C20A C19A 1_555 1_555
C21A C20A 1_555 1_555
H10A C21A 1_555 1_555
C22A C21A 1_555 1_555
H11A C22A 1_555 1_555
C23A C18A 1_555 1_555
H12A C23A 1_555 1_555
C24A O11A 1_555 1_555
Cr1B Cr4B 1_555 1_555
Cr2B Cr3B 1_555 1_555
Cr3B O8B 1_555 1_555
Cr4B O4B 1_555 1_555
O1B C1B 1_555 1_555
O2B C1B 1_555 1_555
O3B Cr1B 1_555 1_555
O4B C8B 1_555 1_555
O5B Cr1B 1_555 1_555
O6B Cr4B 1_555 1_555
O7B Cr2B 1_555 1_555
O8B C16B 1_555 1_555
O9B Cr2B 1_555 1_555
O10B Cr3B 1_555 1_555
O11B Cr2A 1_555 1_555
O12B Cr3A 1_555 1_555
O13B Cr1B 1_555 1_555
O14B Cr4B 1_555 1_555
O15B Cr2B 1_555 1_555
O16B Cr3B 1_555 1_555
C1B C2B 1_555 1_555
C2B C3B 1_555 1_555
C3B H1B 1_555 1_555
C4B C3B 1_555 1_555
C5B C4B 1_555 1_555
H2B C5B 1_555 1_555
C6B C5B 1_555 1_555
H3B C6B 1_555 1_555
C7B C2B 1_555 1_555
H4B C7B 1_555 1_555
C8B O3B 1_555 1_555
C9B O5B 1_555 1_555
C10B C9B 1_555 1_555
C11B C10B 1_555 1_555
H5B C11B 1_555 1_555
C12B C11B 1_555 1_555
C13B C12B 1_555 1_555
H6B C13B 1_555 1_555
C14B C13B 1_555 1_555
H7B C14B 1_555 1_555
C15B C10B 1_555 1_555
H8B C15B 1_555 1_555
C16B O7B 1_555 1_555
C17B O9B 1_555 1_555
C18B C17B 1_555 1_555
C19B C18B 1_555 1_555
H9B C19B 1_555 1_555
C20B C19B 1_555 1_555
C21B C20B 1_555 1_555
H10B C21B 1_555 1_555
C22B C21B 1_555 1_555
H11B C22B 1_555 1_555
C23B C18B 1_555 1_555
H12B C23B 1_555 1_555
C24B O11B 1_555 1_555
Cr1C Cr4C 1_555 1_555
Cr2C O11 1_555 1_555
Cr3C O12 1_555 1_555
Cr4C O4C 1_555 1_555
O1C C1C 1_555 1_555
O2C C1C 1_555 1_555
O3C Cr1C 1_555 1_555
O4C C8C 1_555 1_555
O5C Cr1C 1_555 1_555
O6C Cr4C 1_555 1_555
O7C Cr2C 1_555 1_555
O8C Cr3C 1_555 1_555
O9C Cr2C 1_555 1_555
O10C Cr3C 1_555 1_555
O11C Cr2B 1_555 1_555
O12C Cr3B 1_555 1_555
O13C Cr1C 1_555 1_555
O14C Cr4C 1_555 1_555
O15C Cr2C 1_555 1_555
O16C Cr3C 1_555 1_555
C1C C2C 1_555 1_555
C2C C3C 1_555 1_555
C3C H1C 1_555 1_555
C4C C3C 1_555 1_555
C5C C4C 1_555 1_555
H2C C5C 1_555 1_555
C6C C5C 1_555 1_555
H3C C6C 1_555 1_555
C7C C2C 1_555 1_555
H4C C7C 1_555 1_555
C8C O3C 1_555 1_555
C9C O5C 1_555 1_555
C10C C9C 1_555 1_555
C11C C10C 1_555 1_555
H5C C11C 1_555 1_555
C12C C11C 1_555 1_555
C13C C12C 1_555 1_555
H6C C13C 1_555 1_555
C14C C13C 1_555 1_555
H7C C14C 1_555 1_555
C15C C10C 1_555 1_555
H8C C15C 1_555 1_555
C16C O7C 1_555 1_555
C17C O9C 1_555 1_555
C18C C17C 1_555 1_555
C19C C18C 1_555 1_555
H9C C19C 1_555 1_555
C20C C19C 1_555 1_555
C21C C20C 1_555 1_555
H10C C21C 1_555 1_555
C22C C21C 1_555 1_555
H11C C22C 1_555 1_555
C23C C18C 1_555 1_555
H12C C23C 1_555 1_555
C24C O11C 1_555 1_555
Cr2H O2A 1_555 1_555
Cr3H O1A 1_555 1_555
O1H Cr3C 1_555 1_555
O2H Cr2C 1_555 1_555
O3H Cr1B 1_555 1_555
O4H Cr4B 1_555 1_555
O5H Cr1B 1_555 1_555
O6H Cr4B 1_555 1_555
O7H Cr2H 1_555 1_555
O8H Cr3H 1_555 1_555
O9H Cr2H 1_555 1_555
O10H Cr3H 1_555 1_555
O11H C24H 1_555 1_555
O12H C24H 1_555 1_555
O15H Cr2H 1_555 1_555
O16H Cr3H 1_555 1_555
C1H O1H 1_555 1_555
C2H C1H 1_555 1_555
C3H C2H 1_555 1_555
H1H C3H 1_555 1_555
C4H C3H 1_555 1_555
C5H C4H 1_555 1_555
H2H C5H 1_555 1_555
C6H C5H 1_555 1_555
H3H C6H 1_555 1_555
C7H C2H 1_555 1_555
H4H C7H 1_555 1_555
C8H O3H 1_555 1_555
C9H O5H 1_555 1_555
C10H C9H 1_555 1_555
C11H C10H 1_555 1_555
H5H C11H 1_555 1_555
C12H C11H 1_555 1_555
C13H C12H 1_555 1_555
H6H C13H 1_555 1_555
C14H C13H 1_555 1_555
H7H C14H 1_555 1_555
C15H C10H 1_555 1_555
H8H C15H 1_555 1_555
C16H O7H 1_555 1_555
C17H O9H 1_555 1_555
C18H C17H 1_555 1_555
C19H C18H 1_555 1_555
H9H C19H 1_555 1_555
C20H C19H 1_555 1_555
C21H C20H 1_555 1_555
H10H C21H 1_555 1_555
C22H C21H 1_555 1_555
H11H C22H 1_555 1_555
C23H C18H 1_555 1_555
H12H C23H 1_555 1_555
C24H C20H 1_555 1_555
Cr2I O2B 1_555 1_555
Cr3I O1B 1_555 1_555
O1I Cr3 1_555 1_555
O2I Cr2 1_555 1_555
O3I Cr1C 1_555 1_555
O4I Cr4C 1_555 1_555
O5I Cr1C 1_555 1_555
O6I Cr4C 1_555 1_555
O7I Cr2I 1_555 1_555
O8I Cr3I 1_555 1_555
O9I Cr2I 1_555 1_555
O10I Cr3I 1_555 1_555
O11I Cr2H 1_555 1_555
O12I Cr3H 1_555 1_555
O15I Cr2I 1_555 1_555
O16I Cr3I 1_555 1_555
C1I O1I 1_555 1_555
C2I C1I 1_555 1_555
C3I C2I 1_555 1_555
H1I C3I 1_555 1_555
C4I C3I 1_555 1_555
C5I C4I 1_555 1_555
H2I C5I 1_555 1_555
C6I C5I 1_555 1_555
H3I C6I 1_555 1_555
C7I C2I 1_555 1_555
H4I C7I 1_555 1_555
C8I O3I 1_555 1_555
C9I O5I 1_555 1_555
C10I C9I 1_555 1_555
C11I C10I 1_555 1_555
H5I C11I 1_555 1_555
C12I C11I 1_555 1_555
C13I C12I 1_555 1_555
H6I C13I 1_555 1_555
C14I C13I 1_555 1_555
H7I C14I 1_555 1_555
C15I C10I 1_555 1_555
H8I C15I 1_555 1_555
C16I O7I 1_555 1_555
C17I O9I 1_555 1_555
C18I C17I 1_555 1_555
C19I C18I 1_555 1_555
H9I C19I 1_555 1_555
C20I C19I 1_555 1_555
C21I C20I 1_555 1_555
H10I C21I 1_555 1_555
C22I C21I 1_555 1_555
H11I C22I 1_555 1_555
C23I C18I 1_555 1_555
H12I C23I 1_555 1_555
C24I O11I 1_555 1_555
Cr2J O2C 1_555 1_555
Cr3J O1C 1_555 1_555
O1J Cr3A 1_555 1_555
O2J Cr2A 1_555 1_555
O3J Cr1 1_555 1_555
O4J Cr4 1_555 1_555
O5J Cr1 1_555 1_555
O6J Cr4 1_555 1_555
O7J Cr2J 1_555 1_555
O8J Cr3J 1_555 1_555
O9J Cr2J 1_555 1_555
O10J Cr3J 1_555 1_555
O11J Cr2I 1_555 1_555
O12J Cr3I 1_555 1_555
O15J Cr2J 1_555 1_555
O16J Cr3J 1_555 1_555
C1J O1J 1_555 1_555
C2J C1J 1_555 1_555
C3J C2J 1_555 1_555
H1J C3J 1_555 1_555
C4J C3J 1_555 1_555
C5J C4J 1_555 1_555
H2J C5J 1_555 1_555
C6J C5J 1_555 1_555
H3J C6J 1_555 1_555
C7J C2J 1_555 1_555
H4J C7J 1_555 1_555
C8J O3J 1_555 1_555
C9J O5J 1_555 1_555
C10J C9J 1_555 1_555
C11J C10J 1_555 1_555
H5J C11J 1_555 1_555
C12J C11J 1_555 1_555
C13J C12J 1_555 1_555
H6J C13J 1_555 1_555
C14J C13J 1_555 1_555
H7J C14J 1_555 1_555
C15J C10J 1_555 1_555
H8J C15J 1_555 1_555
C16J O7J 1_555 1_555
C17J O9J 1_555 1_555
C18J C17J 1_555 1_555
C19J C18J 1_555 1_555
H9J C19J 1_555 1_555
C20J C19J 1_555 1_555
C21J C20J 1_555 1_555
H10J C21J 1_555 1_555
C22J C21J 1_555 1_555
H11J C22J 1_555 1_555
C23J C18J 1_555 1_555
H12J C23J 1_555 1_555
C24J O11J 1_555 1_555
Cr2K O2 1_555 1_555
Cr3K O1 1_555 1_555
O1K Cr3B 1_555 1_555
O2K Cr2B 1_555 1_555
O3K Cr1A 1_555 1_555
O4K Cr4A 1_555 1_555
O5K Cr1A 1_555 1_555
O6K Cr4A 1_555 1_555
O7K Cr2K 1_555 1_555
O8K Cr3K 1_555 1_555
O9K Cr2K 1_555 1_555
O10K Cr3K 1_555 1_555
O11K Cr2J 1_555 1_555
O12K Cr3J 1_555 1_555
O15K Cr2K 1_555 1_555
O16K Cr3K 1_555 1_555
C1K O1K 1_555 1_555
C2K C1K 1_555 1_555
C3K C2K 1_555 1_555
H1K C3K 1_555 1_555
C4K C3K 1_555 1_555
C5K C4K 1_555 1_555
H2K C5K 1_555 1_555
C6K C5K 1_555 1_555
H3K C6K 1_555 1_555
C7K C2K 1_555 1_555
H4K C7K 1_555 1_555
C8K O3K 1_555 1_555
C9K O5K 1_555 1_555
C10K C9K 1_555 1_555
C11K C10K 1_555 1_555
H5K C11K 1_555 1_555
C12K C11K 1_555 1_555
C13K C12K 1_555 1_555
H6K C13K 1_555 1_555
C14K C13K 1_555 1_555
H7K C14K 1_555 1_555
C15K C10K 1_555 1_555
H8K C15K 1_555 1_555
C16K O7K 1_555 1_555
C17K O9K 1_555 1_555
C18K C17K 1_555 1_555
C19K C18K 1_555 1_555
H9K C19K 1_555 1_555
C20K C19K 1_555 1_555
C21K C20K 1_555 1_555
H10K C21K 1_555 1_555
C22K C21K 1_555 1_555
H11K C22K 1_555 1_555
C23K C18K 1_555 1_555
H12K C23K 1_555 1_555
C24K O11K 1_555 1_555
O6 C9 1_555 1_555
O10 C17 1_555 1_555
C4 C8 1_555 1_555
C6 C7 1_555 1_555
C12 C16 1_555 1_555
C14 C15 1_555 1_555
C22 C23 1_555 1_555
O6A C9A 1_555 1_555
O10A C17A 1_555 1_555
O12A C24A 1_555 1_555
C4A C8A 1_555 1_555
C6A C7A 1_555 1_555
C12A C16A 1_555 1_555
C14A C15A 1_555 1_555
C20A C24A 1_555 1_555
C22A C23A 1_555 1_555
O6B C9B 1_555 1_555
O10B C17B 1_555 1_555
O12B C24B 1_555 1_555
C4B C8B 1_555 1_555
C6B C7B 1_555 1_555
C12B C16B 1_555 1_555
C14B C15B 1_555 1_555
C20B C24B 1_555 1_555
C22B C23B 1_555 1_555
Cr2C Cr3C 1_555 1_555
O6C C9C 1_555 1_555
O8C C16C 1_555 1_555
O10C C17C 1_555 1_555
O12C C24C 1_555 1_555
C4C C8C 1_555 1_555
C6C C7C 1_555 1_555
C12C C16C 1_555 1_555
C14C C15C 1_555 1_555
C20C C24C 1_555 1_555
C22C C23C 1_555 1_555
Cr2H Cr3H 1_555 1_555
O2H C1H 1_555 1_555
O4H C8H 1_555 1_555
O6H C9H 1_555 1_555
O8H C16H 1_555 1_555
O10H C17H 1_555 1_555
O11H Cr2K 1_555 1_555
O12H Cr3K 1_555 1_555
C4H C8H 1_555 1_555
C6H C7H 1_555 1_555
C12H C16H 1_555 1_555
C14H C15H 1_555 1_555
C22H C23H 1_555 1_555
Cr2I Cr3I 1_555 1_555
O2I C1I 1_555 1_555
O4I C8I 1_555 1_555
O6I C9I 1_555 1_555
O8I C16I 1_555 1_555
O10I C17I 1_555 1_555
O12I C24I 1_555 1_555
C4I C8I 1_555 1_555
C6I C7I 1_555 1_555
C12I C16I 1_555 1_555
C14I C15I 1_555 1_555
C20I C24I 1_555 1_555
C22I C23I 1_555 1_555
Cr2J Cr3J 1_555 1_555
O2J C1J 1_555 1_555
O4J C8J 1_555 1_555
O6J C9J 1_555 1_555
O8J C16J 1_555 1_555
O10J C17J 1_555 1_555
O12J C24J 1_555 1_555
C4J C8J 1_555 1_555
C6J C7J 1_555 1_555
C12J C16J 1_555 1_555
C14J C15J 1_555 1_555
C20J C24J 1_555 1_555
C22J C23J 1_555 1_555
Cr2K Cr3K 1_555 1_555
O2K C1K 1_555 1_555
O4K C8K 1_555 1_555
O6K C9K 1_555 1_555
O8K C16K 1_555 1_555
O10K C17K 1_555 1_555
O12K C24K 1_555 1_555
C4K C8K 1_555 1_555
C6K C7K 1_555 1_555
C12K C16K 1_555 1_555
C14K C15K 1_555 1_555
C20K C24K 1_555 1_555
C22K C23K 1_555 1_555

#END
