
#######################################################################
#
#                 Cambridge Crystallographic Data Centre
#                                CCDC 
#
#######################################################################
#
# If this CIF has been generated from an entry in the Cambridge 
# Structural Database, then it will include bibliographic, chemical, 
# crystal, experimental, refinement or atomic coordinate data resulting 
# from the CCDC's data processing and validation procedures.
#
#######################################################################

data_LEMTON
_chemical_formula_moiety         'C168 H168 Cd6 Cl12 N24 O48 S12,8(H2 O1)'
_chemical_name_systematic        
"tetrakis((\m~3~-2,4,6-Trimethyl-1,3,5-tris(3-(2'-methylthiophenyl)-1H-pyrazol-1-yl)methyl)benzene)-dodecakis(perchlorato)-hexa-cadmium(ii) octahydrate"
_symmetry_cell_setting           cubic
_symmetry_space_group_name_H-M   'F d -3'
_symmetry_Int_Tables_number      203
_space_group_name_Hall           '-F 2uv 2vw 3'
loop_
_symmetry_equiv_pos_site_id
_symmetry_equiv_pos_as_xyz
1 x,y,z
2 1/4-x,1/4-y,z
3 1/4-x,y,1/4-z
4 x,1/4-y,1/4-z
5 z,x,y
6 z,1/4-x,1/4-y
7 1/4-z,1/4-x,y
8 1/4-z,x,1/4-y
9 y,z,x
10 1/4-y,z,1/4-x
11 y,1/4-z,1/4-x
12 1/4-y,1/4-z,x
13 x,1/2+y,1/2+z
14 z,1/2+x,1/2+y
15 y,1/2+z,1/2+x
16 1/2+x,y,1/2+z
17 1/2+z,x,1/2+y
18 1/2+y,z,1/2+x
19 1/2+x,1/2+y,z
20 1/2+z,1/2+x,y
21 1/2+y,1/2+z,x
22 1/4-x,3/4-y,1/2+z
23 1/4-x,1/2+y,3/4-z
24 x,3/4-y,3/4-z
25 z,3/4-x,3/4-y
26 1/4-z,3/4-x,1/2+y
27 1/4-z,1/2+x,3/4-y
28 1/4-y,1/2+z,3/4-x
29 y,3/4-z,3/4-x
30 1/4-y,3/4-z,1/2+x
31 3/4-x,1/4-y,1/2+z
32 3/4-x,y,3/4-z
33 1/2+x,1/4-y,3/4-z
34 1/2+z,1/4-x,3/4-y
35 3/4-z,1/4-x,1/2+y
36 3/4-z,x,3/4-y
37 3/4-y,z,3/4-x
38 1/2+y,1/4-z,3/4-x
39 3/4-y,1/4-z,1/2+x
40 3/4-x,3/4-y,z
41 3/4-x,1/2+y,1/4-z
42 1/2+x,3/4-y,1/4-z
43 1/2+z,3/4-x,1/4-y
44 3/4-z,3/4-x,y
45 3/4-z,1/2+x,1/4-y
46 3/4-y,1/2+z,1/4-x
47 1/2+y,3/4-z,1/4-x
48 3/4-y,3/4-z,x
49 -x,-y,-z
50 3/4+x,3/4+y,-z
51 3/4+x,-y,3/4+z
52 -x,3/4+y,3/4+z
53 -z,-x,-y
54 -z,3/4+x,3/4+y
55 3/4+z,3/4+x,-y
56 3/4+z,-x,3/4+y
57 -y,-z,-x
58 3/4+y,-z,3/4+x
59 -y,3/4+z,3/4+x
60 3/4+y,3/4+z,-x
61 -x,1/2-y,1/2-z
62 -z,1/2-x,1/2-y
63 -y,1/2-z,1/2-x
64 1/2-x,-y,1/2-z
65 1/2-z,-x,1/2-y
66 1/2-y,-z,1/2-x
67 1/2-x,1/2-y,-z
68 1/2-z,1/2-x,-y
69 1/2-y,1/2-z,-x
70 3/4+x,1/4+y,1/2-z
71 3/4+x,1/2-y,1/4+z
72 -x,1/4+y,1/4+z
73 -z,1/4+x,1/4+y
74 3/4+z,1/4+x,1/2-y
75 3/4+z,1/2-x,1/4+y
76 3/4+y,1/2-z,1/4+x
77 -y,1/4+z,1/4+x
78 3/4+y,1/4+z,1/2-x
79 1/4+x,3/4+y,1/2-z
80 1/4+x,-y,1/4+z
81 1/2-x,3/4+y,1/4+z
82 1/2-z,3/4+x,1/4+y
83 1/4+z,3/4+x,1/2-y
84 1/4+z,-x,1/4+y
85 1/4+y,-z,1/4+x
86 1/2-y,3/4+z,1/4+x
87 1/4+y,3/4+z,1/2-x
88 1/4+x,1/4+y,-z
89 1/4+x,1/2-y,3/4+z
90 1/2-x,1/4+y,3/4+z
91 1/2-z,1/4+x,3/4+y
92 1/4+z,1/4+x,-y
93 1/4+z,1/2-x,3/4+y
94 1/4+y,1/2-z,3/4+x
95 1/2-y,1/4+z,3/4+x
96 1/4+y,1/4+z,-x
_cell_length_a                   34.5976(9)
_cell_length_b                   34.5976(9)
_cell_length_c                   34.5976(9)
_cell_angle_alpha                90
_cell_angle_beta                 90
_cell_angle_gamma                90
_cell_volume                     41413.1
_exptl_crystal_colour            colorless
_exptl_crystal_description       block
_cell_formula_units_Z            8
loop_
_atom_site_label
_atom_site_type_symbol
_atom_site_fract_x
_atom_site_fract_y
_atom_site_fract_z
Cl2 Cl 0.45530(6) 0.79470(6) 0.95530(6)
O9 O 0.4705(3) 0.7936(3) 0.9172(2)
O10 O 0.47976(17) 0.77024(17) 0.97976(17)
O9CA O 0.4564(3) 0.8328(2) 0.9705(3)
O9GA O 0.4172(2) 0.7795(3) 0.9564(3)
O11 O 0.5764(6) 0.6736(6) 0.1736(6)
Cd1 Cd 0.6250 0.85009(2) 0.1250
N1 N 0.5660(3) 0.8141(2) 0.0599(2)
N2 N 0.5789(2) 0.84765(17) 0.0774(3)
C1 C 0.5086(3) 0.7510(4) 0.1064(3)
H1 H 0.4804 0.7528 0.1044
H2 H 0.5196 0.7771 0.1078
H3 H 0.5155 0.7366 0.1298
C2 C 0.5243(3) 0.7305(3) 0.0716(2)
C3 C 0.5575(3) 0.7435(2) 0.0534(3)
C4 C 0.5810(3) 0.7765(2) 0.0706(3)
H4 H 0.5809 0.7742 0.0992
H5 H 0.6081 0.7743 0.0617
C5 C 0.5389(3) 0.8233(3) 0.0317(3)
H6 H 0.5256 0.8054 0.0157
C6 C 0.5348(3) 0.8621(3) 0.0313(3)
H7 H 0.5180 0.8767 0.0152
C7 C 0.5605(4) 0.8765(2) 0.0596(4)
C8 C 0.5661(4) 0.9181(2) 0.0691(3)
C9 C 0.5652(3) 0.9428(3) 0.0389(4)
H8 H 0.5612 0.9337 0.0133
C10 C 0.5705(3) 0.9839(3) 0.0468(5)
H9 H 0.5695 1.0016 0.0258
C11 C 0.5766(3) 0.9972(3) 0.0818(4)
H10 H 0.5807 1.0241 0.0854
C12 C 0.5771(3) 0.9735(3) 0.1131(4)
H11 H 0.5810 0.9838 0.1382
C13 C 0.5717(3) 0.9323(3) 0.1078(3)
C14 C 0.5799(3) 0.9296(4) 0.1879(3)
H12 H 0.6039 0.9439 0.1832
H13 H 0.5830 0.9133 0.2109
H14 H 0.5587 0.9479 0.1921
Cl1 Cl 0.56463(17) 0.80632(14) 0.18862(16)
O1 O 0.5869(3) 0.8060(2) 0.1579(3)
O3 O 0.5838(6) 0.8358(5) 0.2131(7)
O4 O 0.5628(4) 0.7677(4) 0.2034(4)
O5 O 0.5259(5) 0.8212(6) 0.1753(8)
S1 S 0.56932(8) 0.90020(8) 0.14742(8)
Cd1GA Cd 0.6250 0.6250 -0.10009(2)
Cd1N Cd 0.85009(2) 0.6250 0.1250
Cd1P Cd 0.6250 0.6250 0.35009(2)
Cd1AA Cd 0.39991(2) 0.6250 0.1250
Cd1A Cd 0.6250 0.39991(2) 0.1250
N1GA N 0.5599(2) 0.6840(3) -0.0641(2)
N1IA N 0.6901(2) 0.5660(3) -0.0641(2)
N1N N 0.8141(2) 0.5599(2) 0.0660(3)
N1BA N 0.8141(2) 0.6901(2) 0.1840(3)
N1B N 0.6840(3) 0.8141(2) 0.1901(2)
N1HA N 0.6901(2) 0.6840(3) 0.3141(2)
N1P N 0.5599(2) 0.5660(3) 0.3141(2)
N1AA N 0.4359(2) 0.5599(2) 0.1840(3)
N1CA N 0.4359(2) 0.6901(2) 0.0660(3)
N1C N 0.5660(3) 0.4359(2) 0.1901(2)
N1A N 0.6840(3) 0.4359(2) 0.0599(2)
N2GA N 0.5774(3) 0.6711(2) -0.09765(17)
N2IA N 0.6726(3) 0.5789(2) -0.09765(17)
N2N N 0.84765(17) 0.5774(3) 0.0789(2)
N2BA N 0.84765(17) 0.6726(3) 0.1711(2)
N2B N 0.6711(2) 0.84765(17) 0.1726(3)
N2HA N 0.6726(3) 0.6711(2) 0.34765(17)
N2P N 0.5774(3) 0.5789(2) 0.34765(17)
N2AA N 0.40235(17) 0.5774(3) 0.1711(2)
N2CA N 0.40235(17) 0.6726(3) 0.0789(2)
N2C N 0.5789(2) 0.40235(17) 0.1726(3)
N2A N 0.6711(2) 0.40235(17) 0.0774(3)
C1CA C 0.4990(4) 0.6436(3) 0.0086(3)
C1GA C 0.6064(3) 0.7414(3) -0.0010(4)
C1IA C 0.6436(3) 0.5086(3) -0.0010(4)
C1A C 0.7414(3) 0.4990(4) 0.1064(3)
C1N C 0.7510(4) 0.6064(3) 0.0086(3)
C1BA C 0.7510(4) 0.6436(3) 0.2414(3)
C1HA C 0.6436(3) 0.7414(3) 0.2510(4)
C1B C 0.7414(3) 0.7510(4) 0.1436(3)
C1P C 0.6064(3) 0.5086(3) 0.2510(4)
C1C C 0.5086(3) 0.4990(4) 0.1436(3)
C1AA C 0.4990(4) 0.6064(3) 0.2414(3)
H1CA H 0.4972 0.6456 -0.0196
H1GA H 0.6044 0.7696 -0.0028
H1IA H 0.6456 0.4804 -0.0028
H1A H 0.7696 0.4972 0.1044
H1N H 0.7528 0.6044 -0.0196
H1BA H 0.7528 0.6456 0.2696
H1HA H 0.6456 0.7696 0.2528
H1B H 0.7696 0.7528 0.1456
H1P H 0.6044 0.4804 0.2528
H1C H 0.4804 0.4972 0.1456
H1AA H 0.4972 0.6044 0.2696
H2CA H 0.4729 0.6422 0.0196
H2GA H 0.6078 0.7304 -0.0271
H2IA H 0.6422 0.5196 -0.0271
H2A H 0.7304 0.4729 0.1078
H2N H 0.7771 0.6078 0.0196
H2BA H 0.7771 0.6422 0.2304
H2HA H 0.6422 0.7304 0.2771
H2B H 0.7304 0.7771 0.1422
H2P H 0.6078 0.5196 0.2771
H2C H 0.5196 0.4729 0.1422
H2AA H 0.4729 0.6078 0.2304
H3CA H 0.5134 0.6202 0.0155
H3GA H 0.6298 0.7345 0.0134
H3IA H 0.6202 0.5155 0.0134
H3A H 0.7345 0.5134 0.1298
H3N H 0.7366 0.6298 0.0155
H3BA H 0.7366 0.6202 0.2345
H3HA H 0.6202 0.7345 0.2366
H3B H 0.7345 0.7366 0.1202
H3P H 0.6298 0.5155 0.2366
H3C H 0.5155 0.5134 0.1202
H3AA H 0.5134 0.6298 0.2345
C2CA C 0.5195(3) 0.6784(2) 0.0243(3)
C2GA C 0.5716(2) 0.7257(3) 0.0195(3)
C2IA C 0.6784(2) 0.5243(3) 0.0195(3)
C2A C 0.7257(3) 0.5195(3) 0.0716(2)
C2N C 0.7305(3) 0.5716(2) 0.0243(3)
C2BA C 0.7305(3) 0.6784(2) 0.2257(3)
C2HA C 0.6784(2) 0.7257(3) 0.2305(3)
C2B C 0.7257(3) 0.7305(3) 0.1784(2)
C2P C 0.5716(2) 0.5243(3) 0.2305(3)
C2C C 0.5243(3) 0.5195(3) 0.1784(2)
C2AA C 0.5195(3) 0.5716(2) 0.2257(3)
C3CA C 0.5065(2) 0.6966(3) 0.0575(3)
C3GA C 0.5534(3) 0.6925(3) 0.0065(2)
C3IA C 0.6966(3) 0.5575(3) 0.0065(2)
C3A C 0.6925(3) 0.5065(2) 0.0534(3)
C3N C 0.7435(2) 0.5534(3) 0.0575(3)
C3BA C 0.7435(2) 0.6966(3) 0.1925(3)
C3HA C 0.6966(3) 0.6925(3) 0.2435(2)
C3B C 0.6925(3) 0.7435(2) 0.1966(3)
C3P C 0.5534(3) 0.5575(3) 0.2435(2)
C3C C 0.5575(3) 0.5065(2) 0.1966(3)
C3AA C 0.5065(2) 0.5534(3) 0.1925(3)
C4GA C 0.5706(3) 0.6690(3) -0.0265(2)
C4IA C 0.6794(3) 0.5810(3) -0.0265(2)
C4N C 0.7765(2) 0.5706(3) 0.0810(3)
C4BA C 0.7765(2) 0.6794(3) 0.1690(3)
C4B C 0.6690(3) 0.7765(2) 0.1794(3)
C4HA C 0.6794(3) 0.6690(3) 0.2765(2)
C4P C 0.5706(3) 0.5810(3) 0.2765(2)
C4AA C 0.4735(2) 0.5706(3) 0.1690(3)
C4CA C 0.4735(2) 0.6794(3) 0.0810(3)
C4C C 0.5810(3) 0.4735(2) 0.1794(3)
C4A C 0.6690(3) 0.4735(2) 0.0706(3)
H4B H 0.6691 0.7742 0.1508
H4CA H 0.4758 0.6508 0.0809
H4AA H 0.4758 0.5992 0.1691
H4A H 0.6691 0.4758 0.0992
H4C H 0.5809 0.4758 0.1508
H4P H 0.5992 0.5809 0.2742
H4HA H 0.6508 0.6691 0.2742
H4BA H 0.7742 0.6508 0.1691
H4N H 0.7742 0.5992 0.0809
H4IA H 0.6508 0.5809 -0.0242
H4GA H 0.5992 0.6691 -0.0242
H5B H 0.6419 0.7743 0.1883
H5CA H 0.4757 0.6883 0.1081
H5AA H 0.4757 0.5617 0.1419
H5A H 0.6419 0.4757 0.0617
H5C H 0.6081 0.4757 0.1883
H5P H 0.5617 0.6081 0.2743
H5HA H 0.6883 0.6419 0.2743
H5BA H 0.7743 0.6883 0.1419
H5N H 0.7743 0.5617 0.1081
H5IA H 0.6883 0.6081 -0.0243
H5GA H 0.5617 0.6419 -0.0243
C5B C 0.7111(3) 0.8233(3) 0.2183(3)
C5CA C 0.4267(3) 0.7183(3) 0.0389(3)
C5AA C 0.4267(3) 0.5317(3) 0.2111(3)
C5A C 0.7111(3) 0.4267(3) 0.0317(3)
C5C C 0.5389(3) 0.4267(3) 0.2183(3)
C5P C 0.5317(3) 0.5389(3) 0.3233(3)
C5HA C 0.7183(3) 0.7111(3) 0.3233(3)
C5BA C 0.8233(3) 0.7183(3) 0.2111(3)
C5N C 0.8233(3) 0.5317(3) 0.0389(3)
C5IA C 0.7183(3) 0.5389(3) -0.0733(3)
C5GA C 0.5317(3) 0.7111(3) -0.0733(3)
H6B H 0.7244 0.8054 0.2343
H6CA H 0.4446 0.7343 0.0256
H6AA H 0.4446 0.5157 0.2244
H6A H 0.7244 0.4446 0.0157
H6C H 0.5256 0.4446 0.2343
H6P H 0.5157 0.5256 0.3054
H6HA H 0.7343 0.7244 0.3054
H6BA H 0.8054 0.7343 0.2244
H6N H 0.8054 0.5157 0.0256
H6IA H 0.7343 0.5256 -0.0554
H6GA H 0.5157 0.7244 -0.0554
C6B C 0.7152(3) 0.8621(3) 0.2187(3)
C6CA C 0.3879(3) 0.7187(3) 0.0348(3)
C6AA C 0.3879(3) 0.5313(3) 0.2152(3)
C6A C 0.7152(3) 0.3879(3) 0.0313(3)
C6C C 0.5348(3) 0.3879(3) 0.2187(3)
C6P C 0.5313(3) 0.5348(3) 0.3621(3)
C6HA C 0.7187(3) 0.7152(3) 0.3621(3)
C6BA C 0.8621(3) 0.7187(3) 0.2152(3)
C6N C 0.8621(3) 0.5313(3) 0.0348(3)
C6IA C 0.7187(3) 0.5348(3) -0.1121(3)
C6GA C 0.5313(3) 0.7152(3) -0.1121(3)
H7B H 0.7320 0.8767 0.2348
H7CA H 0.3733 0.7348 0.0180
H7AA H 0.3733 0.5152 0.2320
H7A H 0.7320 0.3733 0.0152
H7C H 0.5180 0.3733 0.2348
H7P H 0.5152 0.5180 0.3767
H7HA H 0.7348 0.7320 0.3767
H7BA H 0.8767 0.7348 0.2320
H7N H 0.8767 0.5152 0.0180
H7IA H 0.7348 0.5180 -0.1267
H7GA H 0.5152 0.7320 -0.1267
C7B C 0.6895(4) 0.8765(2) 0.1904(4)
C7CA C 0.3735(2) 0.6904(4) 0.0605(4)
C7AA C 0.3735(2) 0.5596(4) 0.1895(4)
C7A C 0.6895(4) 0.3735(2) 0.0596(4)
C7C C 0.5605(4) 0.3735(2) 0.1904(4)
C7P C 0.5596(4) 0.5605(4) 0.3765(2)
C7HA C 0.6904(4) 0.6895(4) 0.3765(2)
C7BA C 0.8765(2) 0.6904(4) 0.1895(4)
C7N C 0.8765(2) 0.5596(4) 0.0605(4)
C7IA C 0.6904(4) 0.5605(4) -0.1265(2)
C7GA C 0.5596(4) 0.6895(4) -0.1265(2)
C8B C 0.6839(4) 0.9181(2) 0.1809(3)
C8CA C 0.3319(2) 0.6809(3) 0.0661(4)
C8AA C 0.3319(2) 0.5691(3) 0.1839(4)
C8A C 0.6839(4) 0.3319(2) 0.0691(3)
C8C C 0.5661(4) 0.3319(2) 0.1809(3)
C8P C 0.5691(3) 0.5661(4) 0.4181(2)
C8HA C 0.6809(3) 0.6839(4) 0.4181(2)
C8BA C 0.9181(2) 0.6809(3) 0.1839(4)
C8N C 0.9181(2) 0.5691(3) 0.0661(4)
C8IA C 0.6809(3) 0.5661(4) -0.1681(2)
C8GA C 0.5691(3) 0.6839(4) -0.1681(2)
C9B C 0.6848(3) 0.9428(3) 0.2111(4)
C9CA C 0.3072(3) 0.7111(4) 0.0652(3)
C9AA C 0.3072(3) 0.5389(4) 0.1848(3)
C9A C 0.6848(3) 0.3072(3) 0.0389(4)
C9C C 0.5652(3) 0.3072(3) 0.2111(4)
C9P C 0.5389(4) 0.5652(3) 0.4428(3)
C9HA C 0.7111(4) 0.6848(3) 0.4428(3)
C9BA C 0.9428(3) 0.7111(4) 0.1848(3)
C9N C 0.9428(3) 0.5389(4) 0.0652(3)
C9IA C 0.7111(4) 0.5652(3) -0.1928(3)
C9GA C 0.5389(4) 0.6848(3) -0.1928(3)
H8B H 0.6888 0.9337 0.2367
H8CA H 0.3163 0.7367 0.0612
H8AA H 0.3163 0.5133 0.1888
H8A H 0.6888 0.3163 0.0133
H8C H 0.5612 0.3163 0.2367
H8P H 0.5133 0.5612 0.4337
H8HA H 0.7367 0.6888 0.4337
H8BA H 0.9337 0.7367 0.1888
H8N H 0.9337 0.5133 0.0612
H8IA H 0.7367 0.5612 -0.1837
H8GA H 0.5133 0.6888 -0.1837
C10B C 0.6795(3) 0.9839(3) 0.2032(5)
C10CA C 0.2661(3) 0.7032(5) 0.0705(3)
C10AA C 0.2661(3) 0.5468(5) 0.1795(3)
C10A C 0.6795(3) 0.2661(3) 0.0468(5)
C10C C 0.5705(3) 0.2661(3) 0.2032(5)
C10P C 0.5468(5) 0.5705(3) 0.4839(3)
C10HA C 0.7032(5) 0.6795(3) 0.4839(3)
C10BA C 0.9839(3) 0.7032(5) 0.1795(3)
C10N C 0.9839(3) 0.5468(5) 0.0705(3)
C10IA C 0.7032(5) 0.5705(3) -0.2339(3)
C10GA C 0.5468(5) 0.6795(3) -0.2339(3)
H9B H 0.6805 1.0016 0.2242
H9CA H 0.2484 0.7242 0.0695
H9AA H 0.2484 0.5258 0.1805
H9A H 0.6805 0.2484 0.0258
H9C H 0.5695 0.2484 0.2242
H9P H 0.5258 0.5695 0.5016
H9HA H 0.7242 0.6805 0.5016
H9BA H 1.0016 0.7242 0.1805
H9N H 1.0016 0.5258 0.0695
H9IA H 0.7242 0.5695 -0.2516
H9GA H 0.5258 0.6805 -0.2516
C11B C 0.6734(3) 0.9972(3) 0.1682(4)
C11CA C 0.2528(3) 0.6682(4) 0.0766(3)
C11AA C 0.2528(3) 0.5818(4) 0.1734(3)
C11A C 0.6734(3) 0.2528(3) 0.0818(4)
C11C C 0.5766(3) 0.2528(3) 0.1682(4)
C11P C 0.5818(4) 0.5766(3) 0.4972(3)
C11HA C 0.6682(4) 0.6734(3) 0.4972(3)
C11BA C 0.9972(3) 0.6682(4) 0.1734(3)
C11N C 0.9972(3) 0.5818(4) 0.0766(3)
C11IA C 0.6682(4) 0.5766(3) -0.2472(3)
C11GA C 0.5818(4) 0.6734(3) -0.2472(3)
H10B H 0.6693 1.0241 0.1646
H10CA H 0.2259 0.6646 0.0807
H10AA H 0.2259 0.5854 0.1693
H10A H 0.6693 0.2259 0.0854
H10C H 0.5807 0.2259 0.1646
H10P H 0.5854 0.5807 0.5241
H10HA H 0.6646 0.6693 0.5241
H10BA H 1.0241 0.6646 0.1693
H10N H 1.0241 0.5854 0.0807
H10IA H 0.6646 0.5807 -0.2741
H10GA H 0.5854 0.6693 -0.2741
C12B C 0.6729(3) 0.9735(3) 0.1369(4)
C12CA C 0.2765(3) 0.6369(4) 0.0771(3)
C12AA C 0.2765(3) 0.6131(4) 0.1729(3)
C12A C 0.6729(3) 0.2765(3) 0.1131(4)
C12C C 0.5771(3) 0.2765(3) 0.1369(4)
C12P C 0.6131(4) 0.5771(3) 0.4735(3)
C12HA C 0.6369(4) 0.6729(3) 0.4735(3)
C12BA C 0.9735(3) 0.6369(4) 0.1729(3)
C12N C 0.9735(3) 0.6131(4) 0.0771(3)
C12IA C 0.6369(4) 0.5771(3) -0.2235(3)
C12GA C 0.6131(4) 0.6729(3) -0.2235(3)
H11B H 0.6690 0.9838 0.1118
H11CA H 0.2662 0.6118 0.0810
H11AA H 0.2662 0.6382 0.1690
H11A H 0.6690 0.2662 0.1382
H11C H 0.5810 0.2662 0.1118
H11P H 0.6382 0.5810 0.4838
H11HA H 0.6118 0.6690 0.4838
H11BA H 0.9838 0.6118 0.1690
H11N H 0.9838 0.6382 0.0810
H11IA H 0.6118 0.5810 -0.2338
H11GA H 0.6382 0.6690 -0.2338
C13B C 0.6783(3) 0.9323(3) 0.1422(3)
C13CA C 0.3177(3) 0.6422(3) 0.0717(3)
C13AA C 0.3177(3) 0.6078(3) 0.1783(3)
C13A C 0.6783(3) 0.3177(3) 0.1078(3)
C13C C 0.5717(3) 0.3177(3) 0.1422(3)
C13P C 0.6078(3) 0.5717(3) 0.4323(3)
C13HA C 0.6422(3) 0.6783(3) 0.4323(3)
C13BA C 0.9323(3) 0.6422(3) 0.1783(3)
C13N C 0.9323(3) 0.6078(3) 0.0717(3)
C13IA C 0.6422(3) 0.5717(3) -0.1823(3)
C13GA C 0.6078(3) 0.6783(3) -0.1823(3)
C14B C 0.6701(3) 0.9296(4) 0.0621(3)
C14AA C 0.3204(4) 0.6879(3) 0.1701(3)
C14CA C 0.3204(4) 0.5621(3) 0.0799(3)
C14C C 0.5799(3) 0.3204(4) 0.0621(3)
C14A C 0.6701(3) 0.3204(4) 0.1879(3)
C14HA C 0.5621(3) 0.6701(3) 0.4296(4)
C14P C 0.6879(3) 0.5799(3) 0.4296(4)
C14N C 0.9296(4) 0.6879(3) 0.0799(3)
C14BA C 0.9296(4) 0.5621(3) 0.1701(3)
C14GA C 0.6879(3) 0.6701(3) -0.1796(4)
C14IA C 0.5621(3) 0.5799(3) -0.1796(4)
H12B H 0.6461 0.9439 0.0668
H12AA H 0.3061 0.6832 0.1461
H12CA H 0.3061 0.5668 0.1039
H12C H 0.6039 0.3061 0.0668
H12A H 0.6461 0.3061 0.1832
H12HA H 0.5668 0.6461 0.4439
H12P H 0.6832 0.6039 0.4439
H12N H 0.9439 0.6832 0.1039
H12BA H 0.9439 0.5668 0.1461
H12GA H 0.6832 0.6461 -0.1939
H12IA H 0.5668 0.6039 -0.1939
H13B H 0.6670 0.9133 0.0391
H13AA H 0.3367 0.7109 0.1670
H13CA H 0.3367 0.5391 0.0830
H13C H 0.5830 0.3367 0.0391
H13A H 0.6670 0.3367 0.2109
H13HA H 0.5391 0.6670 0.4133
H13P H 0.7109 0.5830 0.4133
H13N H 0.9133 0.7109 0.0830
H13BA H 0.9133 0.5391 0.1670
H13GA H 0.7109 0.6670 -0.1633
H13IA H 0.5391 0.5830 -0.1633
H14B H 0.6913 0.9479 0.0579
H14AA H 0.3021 0.6921 0.1913
H14CA H 0.3021 0.5579 0.0587
H14C H 0.5587 0.3021 0.0579
H14A H 0.6913 0.3021 0.1921
H14HA H 0.5579 0.6913 0.4479
H14P H 0.6921 0.5587 0.4479
H14N H 0.9479 0.6921 0.0587
H14BA H 0.9479 0.5579 0.1913
H14GA H 0.6921 0.6913 -0.1979
H14IA H 0.5579 0.5587 -0.1979
Cl1B Cl 0.68537(17) 0.80632(14) 0.06138(16)
Cl1AA Cl 0.44368(14) 0.68862(16) 0.18537(17)
Cl1CA Cl 0.44368(14) 0.56138(16) 0.06463(17)
Cl1C Cl 0.56463(17) 0.44368(14) 0.06138(16)
Cl1A Cl 0.68537(17) 0.44368(14) 0.18862(16)
Cl1HA Cl 0.56138(16) 0.68537(17) 0.30632(14)
Cl1P Cl 0.68862(16) 0.56463(17) 0.30632(14)
Cl1N Cl 0.80632(14) 0.68862(16) 0.06463(17)
Cl1BA Cl 0.80632(14) 0.56138(16) 0.18537(17)
Cl1GA Cl 0.68862(16) 0.68537(17) -0.05632(14)
Cl1IA Cl 0.56138(16) 0.56463(17) -0.05632(14)
O1B O 0.6631(3) 0.8060(2) 0.0921(3)
O1AA O 0.4440(2) 0.6579(3) 0.1631(3)
O1CA O 0.4440(2) 0.5921(3) 0.0869(3)
O1C O 0.5869(3) 0.4440(2) 0.0921(3)
O1A O 0.6631(3) 0.4440(2) 0.1579(3)
O1HA O 0.5921(3) 0.6631(3) 0.3060(2)
O1P O 0.6579(3) 0.5869(3) 0.3060(2)
O1N O 0.8060(2) 0.6579(3) 0.0869(3)
O1BA O 0.8060(2) 0.5921(3) 0.1631(3)
O1GA O 0.6579(3) 0.6631(3) -0.0560(2)
O1IA O 0.5921(3) 0.5869(3) -0.0560(2)
O3B O 0.6662(6) 0.8358(5) 0.0369(7)
O3AA O 0.4142(5) 0.7131(7) 0.1662(6)
O3CA O 0.4142(5) 0.5369(7) 0.0838(6)
O3C O 0.5838(6) 0.4142(5) 0.0369(7)
O3A O 0.6662(6) 0.4142(5) 0.2131(7)
O3HA O 0.5369(7) 0.6662(6) 0.3358(5)
O3P O 0.7131(7) 0.5838(6) 0.3358(5)
O3N O 0.8358(5) 0.7131(7) 0.0838(6)
O3BA O 0.8358(5) 0.5369(7) 0.1662(6)
O3GA O 0.7131(7) 0.6662(6) -0.0858(5)
O3IA O 0.5369(7) 0.5838(6) -0.0858(5)
O4B O 0.6872(4) 0.7677(4) 0.0466(4)
O4AA O 0.4823(4) 0.7034(4) 0.1872(4)
O4CA O 0.4823(4) 0.5466(4) 0.0628(4)
O4C O 0.5628(4) 0.4823(4) 0.0466(4)
O4A O 0.6872(4) 0.4823(4) 0.2034(4)
O4HA O 0.5466(4) 0.6872(4) 0.2677(4)
O4P O 0.7034(4) 0.5628(4) 0.2677(4)
O4N O 0.7677(4) 0.7034(4) 0.0628(4)
O4BA O 0.7677(4) 0.5466(4) 0.1872(4)
O4GA O 0.7034(4) 0.6872(4) -0.0177(4)
O4IA O 0.5466(4) 0.5628(4) -0.0177(4)
O5B O 0.7241(5) 0.8212(6) 0.0747(8)
O5AA O 0.4288(6) 0.6753(8) 0.2241(5)
O5CA O 0.4288(6) 0.5747(8) 0.0259(5)
O5C O 0.5259(5) 0.4288(6) 0.0747(8)
O5A O 0.7241(5) 0.4288(6) 0.1753(8)
O5HA O 0.5747(8) 0.7241(5) 0.3212(6)
O5P O 0.6753(8) 0.5259(5) 0.3212(6)
O5N O 0.8212(6) 0.6753(8) 0.0259(5)
O5BA O 0.8212(6) 0.5747(8) 0.2241(5)
O5GA O 0.6753(8) 0.7241(5) -0.0712(6)
O5IA O 0.5747(8) 0.5259(5) -0.0712(6)
S1B S 0.68068(8) 0.90020(8) 0.10258(8)
S1CA S 0.34980(8) 0.60258(8) 0.06932(8)
S1AA S 0.34980(8) 0.64742(8) 0.18068(8)
S1A S 0.68068(8) 0.34980(8) 0.14742(8)
S1C S 0.56932(8) 0.34980(8) 0.10258(8)
S1P S 0.64742(8) 0.56932(8) 0.40020(8)
S1HA S 0.60258(8) 0.68068(8) 0.40020(8)
S1BA S 0.90020(8) 0.60258(8) 0.18068(8)
S1N S 0.90020(8) 0.64742(8) 0.06932(8)
S1IA S 0.60258(8) 0.56932(8) -0.15020(8)
S1GA S 0.64742(8) 0.68068(8) -0.15020(8)
O2? O 0.5869(3) 0.8060(2) 0.1579(3)
O6? O 0.5907(12) 0.8189(11) 0.2208(11)
O7? O 0.5431(9) 0.7754(7) 0.2095(10)
O8? O 0.5355(9) 0.8373(9) 0.1906(15)
O12? O 0.6253(5) 1.0907(7) 0.0994(7)
loop_
_geom_bond_atom_site_label_1
_geom_bond_atom_site_label_2
_geom_bond_site_symmetry_1
_geom_bond_site_symmetry_2
Cd1 N2 1_555 1_555
N1 N2 1_555 1_555
N2 C7 1_555 1_555
C1 H1 1_555 1_555
H2 C1 1_555 1_555
H3 C1 1_555 1_555
C2 C1 1_555 1_555
C3 C2 1_555 1_555
C4 N1 1_555 1_555
H4 C4 1_555 1_555
H5 C4 1_555 1_555
C5 N1 1_555 1_555
H6 C5 1_555 1_555
C6 C5 1_555 1_555
H7 C6 1_555 1_555
C7 C6 1_555 1_555
C8 C7 1_555 1_555
C9 C8 1_555 1_555
H8 C9 1_555 1_555
C10 C9 1_555 1_555
H9 C10 1_555 1_555
C11 C10 1_555 1_555
H10 C11 1_555 1_555
C12 C11 1_555 1_555
H11 C12 1_555 1_555
C13 C8 1_555 1_555
C14 H12 1_555 1_555
H13 C14 1_555 1_555
H14 C14 1_555 1_555
Cl1 O1 1_555 1_555
Cl2 O9 1_555 1_555
O1 Cd1 1_555 1_555
O3 Cl1 1_555 1_555
O4 Cl1 1_555 1_555
O5 Cl1 1_555 1_555
O10 Cl2 1_555 1_555
S1 Cd1 1_555 1_555
Cd1GA N2GA 1_555 1_555
Cd1N N2N 1_555 1_555
Cd1P N2HA 1_555 1_555
Cd1AA N2AA 1_555 1_555
Cd1A N2C 1_555 1_555
N1GA N2GA 1_555 1_555
N1IA N2IA 1_555 1_555
N1N N2N 1_555 1_555
N1BA N2BA 1_555 1_555
N1B N2B 1_555 1_555
N1HA N2HA 1_555 1_555
N1P N2P 1_555 1_555
N1AA N2AA 1_555 1_555
N1CA N2CA 1_555 1_555
N1C N2C 1_555 1_555
N1A N2A 1_555 1_555
N2GA C7GA 1_555 1_555
N2IA Cd1GA 1_555 1_555
N2N C7N 1_555 1_555
N2BA Cd1N 1_555 1_555
N2B Cd1 1_555 1_555
N2HA C7HA 1_555 1_555
N2P Cd1P 1_555 1_555
N2AA C7AA 1_555 1_555
N2CA Cd1AA 1_555 1_555
N2C C7C 1_555 1_555
N2A Cd1A 1_555 1_555
C1CA H1CA 1_555 1_555
C1GA H1GA 1_555 1_555
C1IA H1IA 1_555 1_555
C1A H1A 1_555 1_555
C1N H1N 1_555 1_555
C1BA H1BA 1_555 1_555
C1HA H1HA 1_555 1_555
C1B H1B 1_555 1_555
C1P H1P 1_555 1_555
C1C H1C 1_555 1_555
C1AA H1AA 1_555 1_555
H2CA C1CA 1_555 1_555
H2GA C1GA 1_555 1_555
H2IA C1IA 1_555 1_555
H2A C1A 1_555 1_555
H2N C1N 1_555 1_555
H2BA C1BA 1_555 1_555
H2HA C1HA 1_555 1_555
H2B C1B 1_555 1_555
H2P C1P 1_555 1_555
H2C C1C 1_555 1_555
H2AA C1AA 1_555 1_555
H3CA C1CA 1_555 1_555
H3GA C1GA 1_555 1_555
H3IA C1IA 1_555 1_555
H3A C1A 1_555 1_555
H3N C1N 1_555 1_555
H3BA C1BA 1_555 1_555
H3HA C1HA 1_555 1_555
H3B C1B 1_555 1_555
H3P C1P 1_555 1_555
H3C C1C 1_555 1_555
H3AA C1AA 1_555 1_555
C2CA C1CA 1_555 1_555
C2GA C3 1_555 1_555
C2IA C1IA 1_555 1_555
C2A C1A 1_555 1_555
C2N C1N 1_555 1_555
C2BA C1BA 1_555 1_555
C2HA C1HA 1_555 1_555
C2B C1B 1_555 1_555
C2P C1P 1_555 1_555
C2C C1C 1_555 1_555
C2AA C1AA 1_555 1_555
C3CA C2 1_555 1_555
C3GA C2CA 1_555 1_555
C3IA C2IA 1_555 1_555
C3A C2IA 1_555 1_555
C3N C2A 1_555 1_555
C3BA C2BA 1_555 1_555
C3HA C2BA 1_555 1_555
C3B C2HA 1_555 1_555
C3P C2P 1_555 1_555
C3C C2P 1_555 1_555
C3AA C2C 1_555 1_555
C4GA N1GA 1_555 1_555
C4IA N1IA 1_555 1_555
C4N N1N 1_555 1_555
C4BA N1BA 1_555 1_555
C4B N1B 1_555 1_555
C4HA N1HA 1_555 1_555
C4P N1P 1_555 1_555
C4AA N1AA 1_555 1_555
C4CA N1CA 1_555 1_555
C4C N1C 1_555 1_555
C4A N1A 1_555 1_555
H4B C4B 1_555 1_555
H4CA C4CA 1_555 1_555
H4AA C4AA 1_555 1_555
H4A C4A 1_555 1_555
H4C C4C 1_555 1_555
H4P C4P 1_555 1_555
H4HA C4HA 1_555 1_555
H4BA C4BA 1_555 1_555
H4N C4N 1_555 1_555
H4IA C4IA 1_555 1_555
H4GA C4GA 1_555 1_555
H5B C4B 1_555 1_555
H5CA C4CA 1_555 1_555
H5AA C4AA 1_555 1_555
H5A C4A 1_555 1_555
H5C C4C 1_555 1_555
H5P C4P 1_555 1_555
H5HA C4HA 1_555 1_555
H5BA C4BA 1_555 1_555
H5N C4N 1_555 1_555
H5IA C4IA 1_555 1_555
H5GA C4GA 1_555 1_555
C5B N1B 1_555 1_555
C5CA N1CA 1_555 1_555
C5AA N1AA 1_555 1_555
C5A N1A 1_555 1_555
C5C N1C 1_555 1_555
C5P N1P 1_555 1_555
C5HA N1HA 1_555 1_555
C5BA N1BA 1_555 1_555
C5N N1N 1_555 1_555
C5IA N1IA 1_555 1_555
C5GA N1GA 1_555 1_555
H6B C5B 1_555 1_555
H6CA C5CA 1_555 1_555
H6AA C5AA 1_555 1_555
H6A C5A 1_555 1_555
H6C C5C 1_555 1_555
H6P C5P 1_555 1_555
H6HA C5HA 1_555 1_555
H6BA C5BA 1_555 1_555
H6N C5N 1_555 1_555
H6IA C5IA 1_555 1_555
H6GA C5GA 1_555 1_555
C6B C5B 1_555 1_555
C6CA C5CA 1_555 1_555
C6AA C5AA 1_555 1_555
C6A C5A 1_555 1_555
C6C C5C 1_555 1_555
C6P C5P 1_555 1_555
C6HA C5HA 1_555 1_555
C6BA C5BA 1_555 1_555
C6N C5N 1_555 1_555
C6IA C5IA 1_555 1_555
C6GA C5GA 1_555 1_555
H7B C6B 1_555 1_555
H7CA C6CA 1_555 1_555
H7AA C6AA 1_555 1_555
H7A C6A 1_555 1_555
H7C C6C 1_555 1_555
H7P C6P 1_555 1_555
H7HA C6HA 1_555 1_555
H7BA C6BA 1_555 1_555
H7N C6N 1_555 1_555
H7IA C6IA 1_555 1_555
H7GA C6GA 1_555 1_555
C7B N2B 1_555 1_555
C7CA N2CA 1_555 1_555
C7AA C6AA 1_555 1_555
C7A N2A 1_555 1_555
C7C C6C 1_555 1_555
C7P N2P 1_555 1_555
C7HA C6HA 1_555 1_555
C7BA N2BA 1_555 1_555
C7N C6N 1_555 1_555
C7IA N2IA 1_555 1_555
C7GA C6GA 1_555 1_555
C8B C7B 1_555 1_555
C8CA C7CA 1_555 1_555
C8AA C7AA 1_555 1_555
C8A C7A 1_555 1_555
C8C C7C 1_555 1_555
C8P C7P 1_555 1_555
C8HA C7HA 1_555 1_555
C8BA C7BA 1_555 1_555
C8N C7N 1_555 1_555
C8IA C7IA 1_555 1_555
C8GA C7GA 1_555 1_555
C9B C8B 1_555 1_555
C9CA C8CA 1_555 1_555
C9AA C8AA 1_555 1_555
C9A C8A 1_555 1_555
C9C C8C 1_555 1_555
C9P C8P 1_555 1_555
C9HA C8HA 1_555 1_555
C9BA C8BA 1_555 1_555
C9N C8N 1_555 1_555
C9IA C8IA 1_555 1_555
C9GA C8GA 1_555 1_555
H8B C9B 1_555 1_555
H8CA C9CA 1_555 1_555
H8AA C9AA 1_555 1_555
H8A C9A 1_555 1_555
H8C C9C 1_555 1_555
H8P C9P 1_555 1_555
H8HA C9HA 1_555 1_555
H8BA C9BA 1_555 1_555
H8N C9N 1_555 1_555
H8IA C9IA 1_555 1_555
H8GA C9GA 1_555 1_555
C10B C9B 1_555 1_555
C10CA C9CA 1_555 1_555
C10AA C9AA 1_555 1_555
C10A C9A 1_555 1_555
C10C C9C 1_555 1_555
C10P C9P 1_555 1_555
C10HA C9HA 1_555 1_555
C10BA C9BA 1_555 1_555
C10N C9N 1_555 1_555
C10IA C9IA 1_555 1_555
C10GA C9GA 1_555 1_555
H9B C10B 1_555 1_555
H9CA C10CA 1_555 1_555
H9AA C10AA 1_555 1_555
H9A C10A 1_555 1_555
H9C C10C 1_555 1_555
H9P C10P 1_555 1_555
H9HA C10HA 1_555 1_555
H9BA C10BA 1_555 1_555
H9N C10N 1_555 1_555
H9IA C10IA 1_555 1_555
H9GA C10GA 1_555 1_555
C11B C10B 1_555 1_555
C11CA C10CA 1_555 1_555
C11AA C10AA 1_555 1_555
C11A C10A 1_555 1_555
C11C C10C 1_555 1_555
C11P C10P 1_555 1_555
C11HA C10HA 1_555 1_555
C11BA C10BA 1_555 1_555
C11N C10N 1_555 1_555
C11IA C10IA 1_555 1_555
C11GA C10GA 1_555 1_555
H10B C11B 1_555 1_555
H10CA C11CA 1_555 1_555
H10AA C11AA 1_555 1_555
H10A C11A 1_555 1_555
H10C C11C 1_555 1_555
H10P C11P 1_555 1_555
H10HA C11HA 1_555 1_555
H10BA C11BA 1_555 1_555
H10N C11N 1_555 1_555
H10IA C11IA 1_555 1_555
H10GA C11GA 1_555 1_555
C12B C11B 1_555 1_555
C12CA C11CA 1_555 1_555
C12AA C11AA 1_555 1_555
C12A C11A 1_555 1_555
C12C C11C 1_555 1_555
C12P C11P 1_555 1_555
C12HA C11HA 1_555 1_555
C12BA C11BA 1_555 1_555
C12N C11N 1_555 1_555
C12IA C11IA 1_555 1_555
C12GA C11GA 1_555 1_555
H11B C12B 1_555 1_555
H11CA C12CA 1_555 1_555
H11AA C12AA 1_555 1_555
H11A C12A 1_555 1_555
H11C C12C 1_555 1_555
H11P C12P 1_555 1_555
H11HA C12HA 1_555 1_555
H11BA C12BA 1_555 1_555
H11N C12N 1_555 1_555
H11IA C12IA 1_555 1_555
H11GA C12GA 1_555 1_555
C13B C8B 1_555 1_555
C13CA C8CA 1_555 1_555
C13AA C8AA 1_555 1_555
C13A C8A 1_555 1_555
C13C C8C 1_555 1_555
C13P C8P 1_555 1_555
C13HA C8HA 1_555 1_555
C13BA C8BA 1_555 1_555
C13N C8N 1_555 1_555
C13IA C8IA 1_555 1_555
C13GA C8GA 1_555 1_555
C14B H12B 1_555 1_555
C14AA H12AA 1_555 1_555
C14CA H12CA 1_555 1_555
C14C H12C 1_555 1_555
C14A H12A 1_555 1_555
C14HA H12HA 1_555 1_555
C14P H12P 1_555 1_555
C14N H12N 1_555 1_555
C14BA H12BA 1_555 1_555
C14GA H12GA 1_555 1_555
C14IA H12IA 1_555 1_555
H13B C14B 1_555 1_555
H13AA C14AA 1_555 1_555
H13CA C14CA 1_555 1_555
H13C C14C 1_555 1_555
H13A C14A 1_555 1_555
H13HA C14HA 1_555 1_555
H13P C14P 1_555 1_555
H13N C14N 1_555 1_555
H13BA C14BA 1_555 1_555
H13GA C14GA 1_555 1_555
H13IA C14IA 1_555 1_555
H14B C14B 1_555 1_555
H14AA C14AA 1_555 1_555
H14CA C14CA 1_555 1_555
H14C C14C 1_555 1_555
H14A C14A 1_555 1_555
H14HA C14HA 1_555 1_555
H14P C14P 1_555 1_555
H14N C14N 1_555 1_555
H14BA C14BA 1_555 1_555
H14GA C14GA 1_555 1_555
H14IA C14IA 1_555 1_555
Cl1B O1B 1_555 1_555
Cl1AA O1AA 1_555 1_555
Cl1CA O1CA 1_555 1_555
Cl1C O1C 1_555 1_555
Cl1A O1A 1_555 1_555
Cl1HA O1HA 1_555 1_555
Cl1P O1P 1_555 1_555
Cl1N O1N 1_555 1_555
Cl1BA O1BA 1_555 1_555
Cl1GA O1GA 1_555 1_555
Cl1IA O1IA 1_555 1_555
O1B Cd1 1_555 1_555
O1AA Cd1AA 1_555 1_555
O1CA Cd1AA 1_555 1_555
O1C Cd1A 1_555 1_555
O1A Cd1A 1_555 1_555
O1HA Cd1P 1_555 1_555
O1P Cd1P 1_555 1_555
O1N Cd1N 1_555 1_555
O1BA Cd1N 1_555 1_555
O1GA Cd1GA 1_555 1_555
O1IA Cd1GA 1_555 1_555
O3B Cl1B 1_555 1_555
O3AA Cl1AA 1_555 1_555
O3CA Cl1CA 1_555 1_555
O3C Cl1C 1_555 1_555
O3A Cl1A 1_555 1_555
O3HA Cl1HA 1_555 1_555
O3P Cl1P 1_555 1_555
O3N Cl1N 1_555 1_555
O3BA Cl1BA 1_555 1_555
O3GA Cl1GA 1_555 1_555
O3IA Cl1IA 1_555 1_555
O4B Cl1B 1_555 1_555
O4AA Cl1AA 1_555 1_555
O4CA Cl1CA 1_555 1_555
O4C Cl1C 1_555 1_555
O4A Cl1A 1_555 1_555
O4HA Cl1HA 1_555 1_555
O4P Cl1P 1_555 1_555
O4N Cl1N 1_555 1_555
O4BA Cl1BA 1_555 1_555
O4GA Cl1GA 1_555 1_555
O4IA Cl1IA 1_555 1_555
O5B Cl1B 1_555 1_555
O5AA Cl1AA 1_555 1_555
O5CA Cl1CA 1_555 1_555
O5C Cl1C 1_555 1_555
O5A Cl1A 1_555 1_555
O5HA Cl1HA 1_555 1_555
O5P Cl1P 1_555 1_555
O5N Cl1N 1_555 1_555
O5BA Cl1BA 1_555 1_555
O5GA Cl1GA 1_555 1_555
O5IA Cl1IA 1_555 1_555
O9CA Cl2 1_555 1_555
O9GA Cl2 1_555 1_555
S1B Cd1 1_555 1_555
S1CA Cd1AA 1_555 1_555
S1AA Cd1AA 1_555 1_555
S1A Cd1A 1_555 1_555
S1C Cd1A 1_555 1_555
S1P Cd1P 1_555 1_555
S1HA Cd1P 1_555 1_555
S1BA Cd1N 1_555 1_555
S1N Cd1N 1_555 1_555
S1IA Cd1GA 1_555 1_555
S1GA Cd1GA 1_555 1_555
C3 C4 1_555 1_555
C12 C13 1_555 1_555
C13 S1 1_555 1_555
C14 S1 1_555 1_555
C1GA C2GA 1_555 1_555
C2CA C3CA 1_555 1_555
C2GA C3GA 1_555 1_555
C2A C3A 1_555 1_555
C2N C3IA 1_555 1_555
C2N C3N 1_555 1_555
C2HA C3HA 1_555 1_555
C2B C3BA 1_555 1_555
C2B C3B 1_555 1_555
C2C C3C 1_555 1_555
C2AA C3P 1_555 1_555
C2AA C3AA 1_555 1_555
C3CA C4CA 1_555 1_555
C3GA C4GA 1_555 1_555
C3IA C4IA 1_555 1_555
C3A C4A 1_555 1_555
C3N C4N 1_555 1_555
C3BA C4BA 1_555 1_555
C3HA C4HA 1_555 1_555
C3B C4B 1_555 1_555
C3P C4P 1_555 1_555
C3C C4C 1_555 1_555
C3AA C4AA 1_555 1_555
C6B C7B 1_555 1_555
C6CA C7CA 1_555 1_555
C6A C7A 1_555 1_555
C6P C7P 1_555 1_555
C6BA C7BA 1_555 1_555
C6IA C7IA 1_555 1_555
C12B C13B 1_555 1_555
C12CA C13CA 1_555 1_555
C12AA C13AA 1_555 1_555
C12A C13A 1_555 1_555
C12C C13C 1_555 1_555
C12P C13P 1_555 1_555
C12HA C13HA 1_555 1_555
C12BA C13BA 1_555 1_555
C12N C13N 1_555 1_555
C12IA C13IA 1_555 1_555
C12GA C13GA 1_555 1_555
C13B S1B 1_555 1_555
C13CA S1CA 1_555 1_555
C13AA S1AA 1_555 1_555
C13A S1A 1_555 1_555
C13C S1C 1_555 1_555
C13P S1P 1_555 1_555
C13HA S1HA 1_555 1_555
C13BA S1BA 1_555 1_555
C13N S1N 1_555 1_555
C13IA S1IA 1_555 1_555
C13GA S1GA 1_555 1_555
C14B S1B 1_555 1_555
C14AA S1AA 1_555 1_555
C14CA S1CA 1_555 1_555
C14C S1C 1_555 1_555
C14A S1A 1_555 1_555
C14HA S1HA 1_555 1_555
C14P S1P 1_555 1_555
C14N S1N 1_555 1_555
C14BA S1BA 1_555 1_555
C14GA S1GA 1_555 1_555
C14IA S1IA 1_555 1_555

#END
