# generated using pymatgen
data_Cd3H84C84S6N12(Cl4O29)2
_symmetry_space_group_name_H-M   'P 1'
_cell_length_a   24.46419757
_cell_length_b   24.46419757
_cell_length_c   24.46419757
_cell_angle_alpha   60.00000000
_cell_angle_beta   60.00000000
_cell_angle_gamma   60.00000000
_symmetry_Int_Tables_number   1
_chemical_formula_structural   Cd3H84C84S6N12(Cl4O29)2
_chemical_formula_sum   'Cd12 H336 C336 S24 N48 Cl32 O232'
_cell_volume   10353.27926147
_cell_formula_units_Z   4
loop_
 _symmetry_equiv_pos_site_id
 _symmetry_equiv_pos_as_xyz
  1  'x, y, z'
loop_
 _atom_site_type_symbol
 _atom_site_label
 _atom_site_symmetry_multiplicity
 _atom_site_fract_x
 _atom_site_fract_y
 _atom_site_fract_z
 _atom_site_occupancy
  C  C1  1  0.846800  0.136000  0.651200  1.0
  C  C2  1  0.866000  0.651200  0.136000  1.0
  C  C3  1  0.651200  0.866000  0.846800  1.0
  C  C4  1  0.136000  0.846800  0.866000  1.0
  C  C5  1  0.136000  0.651200  0.846800  1.0
  C  C6  1  0.651200  0.136000  0.866000  1.0
  C  C7  1  0.866000  0.846800  0.651200  1.0
  C  C8  1  0.846800  0.866000  0.136000  1.0
  C  C9  1  0.651200  0.846800  0.136000  1.0
  C  C10  1  0.136000  0.866000  0.651200  1.0
  C  C11  1  0.846800  0.651200  0.866000  1.0
  C  C12  1  0.866000  0.136000  0.846800  1.0
  C  C13  1  0.153200  0.864000  0.348800  1.0
  C  C14  1  0.134000  0.348800  0.864000  1.0
  C  C15  1  0.348800  0.134000  0.153200  1.0
  C  C16  1  0.864000  0.153200  0.134000  1.0
  C  C17  1  0.864000  0.348800  0.153200  1.0
  C  C18  1  0.348800  0.864000  0.134000  1.0
  C  C19  1  0.134000  0.153200  0.348800  1.0
  C  C20  1  0.153200  0.134000  0.864000  1.0
  C  C21  1  0.348800  0.153200  0.864000  1.0
  C  C22  1  0.864000  0.134000  0.348800  1.0
  C  C23  1  0.153200  0.348800  0.134000  1.0
  C  C24  1  0.134000  0.864000  0.153200  1.0
  C  C25  1  0.816800  0.134600  0.722200  1.0
  C  C26  1  0.826400  0.722200  0.134600  1.0
  C  C27  1  0.722200  0.826400  0.816800  1.0
  C  C28  1  0.134600  0.816800  0.826400  1.0
  C  C29  1  0.134600  0.722200  0.816800  1.0
  C  C30  1  0.722200  0.134600  0.826400  1.0
  C  C31  1  0.826400  0.816800  0.722200  1.0
  C  C32  1  0.816800  0.826400  0.134600  1.0
  C  C33  1  0.722200  0.816800  0.134600  1.0
  C  C34  1  0.134600  0.826400  0.722200  1.0
  C  C35  1  0.816800  0.722200  0.826400  1.0
  C  C36  1  0.826400  0.134600  0.816800  1.0
  C  C37  1  0.183200  0.865400  0.277800  1.0
  C  C38  1  0.173600  0.277800  0.865400  1.0
  C  C39  1  0.277800  0.173600  0.183200  1.0
  C  C40  1  0.865400  0.183200  0.173600  1.0
  C  C41  1  0.865400  0.277800  0.183200  1.0
  C  C42  1  0.277800  0.865400  0.173600  1.0
  C  C43  1  0.173600  0.183200  0.277800  1.0
  C  C44  1  0.183200  0.173600  0.865400  1.0
  C  C45  1  0.277800  0.183200  0.865400  1.0
  C  C46  1  0.865400  0.173600  0.277800  1.0
  C  C47  1  0.183200  0.277800  0.173600  1.0
  C  C48  1  0.173600  0.865400  0.183200  1.0
  C  C49  1  0.752400  0.132600  0.760600  1.0
  C  C50  1  0.854400  0.760600  0.132600  1.0
  C  C51  1  0.760600  0.854400  0.752400  1.0
  C  C52  1  0.132600  0.752400  0.854400  1.0
  C  C53  1  0.132600  0.760600  0.752400  1.0
  C  C54  1  0.760600  0.132600  0.854400  1.0
  C  C55  1  0.854400  0.752400  0.760600  1.0
  C  C56  1  0.752400  0.854400  0.132600  1.0
  C  C57  1  0.760600  0.752400  0.132600  1.0
  C  C58  1  0.132600  0.854400  0.760600  1.0
  C  C59  1  0.752400  0.760600  0.854400  1.0
  C  C60  1  0.854400  0.132600  0.752400  1.0
  C  C61  1  0.247600  0.867400  0.239400  1.0
  C  C62  1  0.145600  0.239400  0.867400  1.0
  C  C63  1  0.239400  0.145600  0.247600  1.0
  C  C64  1  0.867400  0.247600  0.145600  1.0
  C  C65  1  0.867400  0.239400  0.247600  1.0
  C  C66  1  0.239400  0.867400  0.145600  1.0
  C  C67  1  0.145600  0.247600  0.239400  1.0
  C  C68  1  0.247600  0.145600  0.867400  1.0
  C  C69  1  0.239400  0.247600  0.867400  1.0
  C  C70  1  0.867400  0.145600  0.239400  1.0
  C  C71  1  0.247600  0.239400  0.145600  1.0
  C  C72  1  0.145600  0.867400  0.247600  1.0
  C  C73  1  0.713100  0.124900  0.733900  1.0
  C  C74  1  0.928100  0.733900  0.124900  1.0
  C  C75  1  0.733900  0.928100  0.713100  1.0
  C  C76  1  0.124900  0.713100  0.928100  1.0
  C  C77  1  0.124900  0.733900  0.713100  1.0
  C  C78  1  0.733900  0.124900  0.928100  1.0
  C  C79  1  0.928100  0.713100  0.733900  1.0
  C  C80  1  0.713100  0.928100  0.124900  1.0
  C  C81  1  0.733900  0.713100  0.124900  1.0
  C  C82  1  0.124900  0.928100  0.733900  1.0
  C  C83  1  0.713100  0.733900  0.928100  1.0
  C  C84  1  0.928100  0.124900  0.713100  1.0
  C  C85  1  0.286900  0.875100  0.266100  1.0
  C  C86  1  0.071900  0.266100  0.875100  1.0
  C  C87  1  0.266100  0.071900  0.286900  1.0
  C  C88  1  0.875100  0.286900  0.071900  1.0
  C  C89  1  0.875100  0.266100  0.286900  1.0
  C  C90  1  0.266100  0.875100  0.071900  1.0
  C  C91  1  0.071900  0.286900  0.266100  1.0
  C  C92  1  0.286900  0.071900  0.875100  1.0
  C  C93  1  0.266100  0.286900  0.875100  1.0
  C  C94  1  0.875100  0.071900  0.266100  1.0
  C  C95  1  0.286900  0.266100  0.071900  1.0
  C  C96  1  0.071900  0.875100  0.286900  1.0
  C  C97  1  0.669500  0.252700  0.683900  1.0
  C  C98  1  0.893900  0.683900  0.252700  1.0
  C  C99  1  0.683900  0.893900  0.669500  1.0
  C  C100  1  0.252700  0.669500  0.893900  1.0
  C  C101  1  0.252700  0.683900  0.669500  1.0
  C  C102  1  0.683900  0.252700  0.893900  1.0
  C  C103  1  0.893900  0.669500  0.683900  1.0
  C  C104  1  0.669500  0.893900  0.252700  1.0
  C  C105  1  0.683900  0.669500  0.252700  1.0
  C  C106  1  0.252700  0.893900  0.683900  1.0
  C  C107  1  0.669500  0.683900  0.893900  1.0
  C  C108  1  0.893900  0.252700  0.669500  1.0
  C  C109  1  0.330500  0.747300  0.316100  1.0
  C  C110  1  0.106100  0.316100  0.747300  1.0
  C  C111  1  0.316100  0.106100  0.330500  1.0
  C  C112  1  0.747300  0.330500  0.106100  1.0
  C  C113  1  0.747300  0.316100  0.330500  1.0
  C  C114  1  0.316100  0.747300  0.106100  1.0
  C  C115  1  0.106100  0.330500  0.316100  1.0
  C  C116  1  0.330500  0.106100  0.747300  1.0
  C  C117  1  0.316100  0.330500  0.747300  1.0
  C  C118  1  0.747300  0.106100  0.316100  1.0
  C  C119  1  0.330500  0.316100  0.106100  1.0
  C  C120  1  0.106100  0.747300  0.330500  1.0
  C  C121  1  0.634400  0.296000  0.641400  1.0
  C  C122  1  0.928200  0.641400  0.296000  1.0
  C  C123  1  0.641400  0.928200  0.634400  1.0
  C  C124  1  0.296000  0.634400  0.928200  1.0
  C  C125  1  0.296000  0.641400  0.634400  1.0
  C  C126  1  0.641400  0.296000  0.928200  1.0
  C  C127  1  0.928200  0.634400  0.641400  1.0
  C  C128  1  0.634400  0.928200  0.296000  1.0
  C  C129  1  0.641400  0.634400  0.296000  1.0
  C  C130  1  0.296000  0.928200  0.641400  1.0
  C  C131  1  0.634400  0.641400  0.928200  1.0
  C  C132  1  0.928200  0.296000  0.634400  1.0
  C  C133  1  0.365600  0.704000  0.358600  1.0
  C  C134  1  0.071800  0.358600  0.704000  1.0
  C  C135  1  0.358600  0.071800  0.365600  1.0
  C  C136  1  0.704000  0.365600  0.071800  1.0
  C  C137  1  0.704000  0.358600  0.365600  1.0
  C  C138  1  0.358600  0.704000  0.071800  1.0
  C  C139  1  0.071800  0.365600  0.358600  1.0
  C  C140  1  0.365600  0.071800  0.704000  1.0
  C  C141  1  0.358600  0.365600  0.704000  1.0
  C  C142  1  0.704000  0.071800  0.358600  1.0
  C  C143  1  0.365600  0.358600  0.071800  1.0
  C  C144  1  0.071800  0.704000  0.365600  1.0
  C  C145  1  0.622600  0.256400  0.624400  1.0
  C  C146  1  0.996600  0.624400  0.256400  1.0
  C  C147  1  0.624400  0.996600  0.622600  1.0
  C  C148  1  0.256400  0.622600  0.996600  1.0
  C  C149  1  0.256400  0.624400  0.622600  1.0
  C  C150  1  0.624400  0.256400  0.996600  1.0
  C  C151  1  0.996600  0.622600  0.624400  1.0
  C  C152  1  0.622600  0.996600  0.256400  1.0
  C  C153  1  0.624400  0.622600  0.256400  1.0
  C  C154  1  0.256400  0.996600  0.624400  1.0
  C  C155  1  0.622600  0.624400  0.996600  1.0
  C  C156  1  0.996600  0.256400  0.622600  1.0
  C  C157  1  0.377400  0.743600  0.375600  1.0
  C  C158  1  0.003400  0.375600  0.743600  1.0
  C  C159  1  0.375600  0.003400  0.377400  1.0
  C  C160  1  0.743600  0.377400  0.003400  1.0
  C  C161  1  0.743600  0.375600  0.377400  1.0
  C  C162  1  0.375600  0.743600  0.003400  1.0
  C  C163  1  0.003400  0.377400  0.375600  1.0
  C  C164  1  0.377400  0.003400  0.743600  1.0
  C  C165  1  0.375600  0.377400  0.743600  1.0
  C  C166  1  0.743600  0.003400  0.375600  1.0
  C  C167  1  0.377400  0.375600  0.003400  1.0
  C  C168  1  0.003400  0.743600  0.377400  1.0
  C  C169  1  0.584900  0.282900  0.578900  1.0
  C  C170  1  0.053300  0.578900  0.282900  1.0
  C  C171  1  0.578900  0.053300  0.584900  1.0
  C  C172  1  0.282900  0.584900  0.053300  1.0
  C  C173  1  0.282900  0.578900  0.584900  1.0
  C  C174  1  0.578900  0.282900  0.053300  1.0
  C  C175  1  0.053300  0.584900  0.578900  1.0
  C  C176  1  0.584900  0.053300  0.282900  1.0
  C  C177  1  0.578900  0.584900  0.282900  1.0
  C  C178  1  0.282900  0.053300  0.578900  1.0
  C  C179  1  0.584900  0.578900  0.053300  1.0
  C  C180  1  0.053300  0.282900  0.584900  1.0
  C  C181  1  0.415100  0.717100  0.421100  1.0
  C  C182  1  0.946700  0.421100  0.717100  1.0
  C  C183  1  0.421100  0.946700  0.415100  1.0
  C  C184  1  0.717100  0.415100  0.946700  1.0
  C  C185  1  0.717100  0.421100  0.415100  1.0
  C  C186  1  0.421100  0.717100  0.946700  1.0
  C  C187  1  0.946700  0.415100  0.421100  1.0
  C  C188  1  0.415100  0.946700  0.717100  1.0
  C  C189  1  0.421100  0.415100  0.717100  1.0
  C  C190  1  0.717100  0.946700  0.421100  1.0
  C  C191  1  0.415100  0.421100  0.946700  1.0
  C  C192  1  0.946700  0.717100  0.415100  1.0
  C  C193  1  0.530900  0.338700  0.583500  1.0
  C  C194  1  0.046900  0.583500  0.338700  1.0
  C  C195  1  0.583500  0.046900  0.530900  1.0
  C  C196  1  0.338700  0.530900  0.046900  1.0
  C  C197  1  0.338700  0.583500  0.530900  1.0
  C  C198  1  0.583500  0.338700  0.046900  1.0
  C  C199  1  0.046900  0.530900  0.583500  1.0
  C  C200  1  0.530900  0.046900  0.338700  1.0
  C  C201  1  0.583500  0.530900  0.338700  1.0
  C  C202  1  0.338700  0.046900  0.583500  1.0
  C  C203  1  0.530900  0.583500  0.046900  1.0
  C  C204  1  0.046900  0.338700  0.530900  1.0
  C  C205  1  0.469100  0.661300  0.416500  1.0
  C  C206  1  0.953100  0.416500  0.661300  1.0
  C  C207  1  0.416500  0.953100  0.469100  1.0
  C  C208  1  0.661300  0.469100  0.953100  1.0
  C  C209  1  0.661300  0.416500  0.469100  1.0
  C  C210  1  0.416500  0.661300  0.953100  1.0
  C  C211  1  0.953100  0.469100  0.416500  1.0
  C  C212  1  0.469100  0.953100  0.661300  1.0
  C  C213  1  0.416500  0.469100  0.661300  1.0
  C  C214  1  0.661300  0.953100  0.416500  1.0
  C  C215  1  0.469100  0.416500  0.953100  1.0
  C  C216  1  0.953100  0.661300  0.469100  1.0
  C  C217  1  0.492400  0.366600  0.539800  1.0
  C  C218  1  0.101200  0.539800  0.366600  1.0
  C  C219  1  0.539800  0.101200  0.492400  1.0
  C  C220  1  0.366600  0.492400  0.101200  1.0
  C  C221  1  0.366600  0.539800  0.492400  1.0
  C  C222  1  0.539800  0.366600  0.101200  1.0
  C  C223  1  0.101200  0.492400  0.539800  1.0
  C  C224  1  0.492400  0.101200  0.366600  1.0
  C  C225  1  0.539800  0.492400  0.366600  1.0
  C  C226  1  0.366600  0.101200  0.539800  1.0
  C  C227  1  0.492400  0.539800  0.101200  1.0
  C  C228  1  0.101200  0.366600  0.492400  1.0
  C  C229  1  0.507600  0.633400  0.460200  1.0
  C  C230  1  0.898800  0.460200  0.633400  1.0
  C  C231  1  0.460200  0.898800  0.507600  1.0
  C  C232  1  0.633400  0.507600  0.898800  1.0
  C  C233  1  0.633400  0.460200  0.507600  1.0
  C  C234  1  0.460200  0.633400  0.898800  1.0
  C  C235  1  0.898800  0.507600  0.460200  1.0
  C  C236  1  0.507600  0.898800  0.633400  1.0
  C  C237  1  0.460200  0.507600  0.633400  1.0
  C  C238  1  0.633400  0.898800  0.460200  1.0
  C  C239  1  0.507600  0.460200  0.898800  1.0
  C  C240  1  0.898800  0.633400  0.507600  1.0
  C  C241  1  0.508000  0.338800  0.497600  1.0
  C  C242  1  0.155600  0.497600  0.338800  1.0
  C  C243  1  0.497600  0.155600  0.508000  1.0
  C  C244  1  0.338800  0.508000  0.155600  1.0
  C  C245  1  0.338800  0.497600  0.508000  1.0
  C  C246  1  0.497600  0.338800  0.155600  1.0
  C  C247  1  0.155600  0.508000  0.497600  1.0
  C  C248  1  0.508000  0.155600  0.338800  1.0
  C  C249  1  0.497600  0.508000  0.338800  1.0
  C  C250  1  0.338800  0.155600  0.497600  1.0
  C  C251  1  0.508000  0.497600  0.155600  1.0
  C  C252  1  0.155600  0.338800  0.508000  1.0
  C  C253  1  0.492000  0.661200  0.502400  1.0
  C  C254  1  0.844400  0.502400  0.661200  1.0
  C  C255  1  0.502400  0.844400  0.492000  1.0
  C  C256  1  0.661200  0.492000  0.844400  1.0
  C  C257  1  0.661200  0.502400  0.492000  1.0
  C  C258  1  0.502400  0.661200  0.844400  1.0
  C  C259  1  0.844400  0.492000  0.502400  1.0
  C  C260  1  0.492000  0.844400  0.661200  1.0
  C  C261  1  0.502400  0.492000  0.661200  1.0
  C  C262  1  0.661200  0.844400  0.502400  1.0
  C  C263  1  0.492000  0.502400  0.844400  1.0
  C  C264  1  0.844400  0.661200  0.492000  1.0
  C  C265  1  0.562500  0.283300  0.490500  1.0
  C  C266  1  0.163700  0.490500  0.283300  1.0
  C  C267  1  0.490500  0.163700  0.562500  1.0
  C  C268  1  0.283300  0.562500  0.163700  1.0
  C  C269  1  0.283300  0.490500  0.562500  1.0
  C  C270  1  0.490500  0.283300  0.163700  1.0
  C  C271  1  0.163700  0.562500  0.490500  1.0
  C  C272  1  0.562500  0.163700  0.283300  1.0
  C  C273  1  0.490500  0.562500  0.283300  1.0
  C  C274  1  0.283300  0.163700  0.490500  1.0
  C  C275  1  0.562500  0.490500  0.163700  1.0
  C  C276  1  0.163700  0.283300  0.562500  1.0
  C  C277  1  0.437500  0.716700  0.509500  1.0
  C  C278  1  0.836300  0.509500  0.716700  1.0
  C  C279  1  0.509500  0.836300  0.437500  1.0
  C  C280  1  0.716700  0.437500  0.836300  1.0
  C  C281  1  0.716700  0.509500  0.437500  1.0
  C  C282  1  0.509500  0.716700  0.836300  1.0
  C  C283  1  0.836300  0.437500  0.509500  1.0
  C  C284  1  0.437500  0.836300  0.716700  1.0
  C  C285  1  0.509500  0.437500  0.716700  1.0
  C  C286  1  0.716700  0.836300  0.509500  1.0
  C  C287  1  0.437500  0.509500  0.836300  1.0
  C  C288  1  0.836300  0.716700  0.437500  1.0
  C  C289  1  0.603800  0.252800  0.531600  1.0
  C  C290  1  0.111800  0.531600  0.252800  1.0
  C  C291  1  0.531600  0.111800  0.603800  1.0
  C  C292  1  0.252800  0.603800  0.111800  1.0
  C  C293  1  0.252800  0.531600  0.603800  1.0
  C  C294  1  0.531600  0.252800  0.111800  1.0
  C  C295  1  0.111800  0.603800  0.531600  1.0
  C  C296  1  0.603800  0.111800  0.252800  1.0
  C  C297  1  0.531600  0.603800  0.252800  1.0
  C  C298  1  0.252800  0.111800  0.531600  1.0
  C  C299  1  0.603800  0.531600  0.111800  1.0
  C  C300  1  0.111800  0.252800  0.603800  1.0
  C  C301  1  0.396200  0.747200  0.468400  1.0
  C  C302  1  0.888200  0.468400  0.747200  1.0
  C  C303  1  0.468400  0.888200  0.396200  1.0
  C  C304  1  0.747200  0.396200  0.888200  1.0
  C  C305  1  0.747200  0.468400  0.396200  1.0
  C  C306  1  0.468400  0.747200  0.888200  1.0
  C  C307  1  0.888200  0.396200  0.468400  1.0
  C  C308  1  0.396200  0.888200  0.747200  1.0
  C  C309  1  0.468400  0.396200  0.747200  1.0
  C  C310  1  0.747200  0.888200  0.468400  1.0
  C  C311  1  0.396200  0.468400  0.888200  1.0
  C  C312  1  0.888200  0.747200  0.396200  1.0
  C  C313  1  0.678400  0.161800  0.462400  1.0
  C  C314  1  0.197400  0.462400  0.161800  1.0
  C  C315  1  0.462400  0.197400  0.678400  1.0
  C  C316  1  0.161800  0.678400  0.197400  1.0
  C  C317  1  0.161800  0.462400  0.678400  1.0
  C  C318  1  0.462400  0.161800  0.197400  1.0
  C  C319  1  0.197400  0.678400  0.462400  1.0
  C  C320  1  0.678400  0.197400  0.161800  1.0
  C  C321  1  0.462400  0.678400  0.161800  1.0
  C  C322  1  0.161800  0.197400  0.462400  1.0
  C  C323  1  0.678400  0.462400  0.197400  1.0
  C  C324  1  0.197400  0.161800  0.678400  1.0
  C  C325  1  0.321600  0.838200  0.537600  1.0
  C  C326  1  0.802600  0.537600  0.838200  1.0
  C  C327  1  0.537600  0.802600  0.321600  1.0
  C  C328  1  0.838200  0.321600  0.802600  1.0
  C  C329  1  0.838200  0.537600  0.321600  1.0
  C  C330  1  0.537600  0.838200  0.802600  1.0
  C  C331  1  0.802600  0.321600  0.537600  1.0
  C  C332  1  0.321600  0.802600  0.838200  1.0
  C  C333  1  0.537600  0.321600  0.838200  1.0
  C  C334  1  0.838200  0.802600  0.537600  1.0
  C  C335  1  0.321600  0.537600  0.802600  1.0
  C  C336  1  0.802600  0.838200  0.321600  1.0
  Cd  Cd337  1  0.649910  0.100090  0.649910  1.0
  Cd  Cd338  1  0.100090  0.649910  0.100090  1.0
  Cd  Cd339  1  0.100090  0.649910  0.649910  1.0
  Cd  Cd340  1  0.649910  0.100090  0.100090  1.0
  Cd  Cd341  1  0.649910  0.649910  0.100090  1.0
  Cd  Cd342  1  0.100090  0.100090  0.649910  1.0
  Cd  Cd343  1  0.350090  0.899910  0.350090  1.0
  Cd  Cd344  1  0.899910  0.350090  0.899910  1.0
  Cd  Cd345  1  0.899910  0.350090  0.350090  1.0
  Cd  Cd346  1  0.350090  0.899910  0.899910  1.0
  Cd  Cd347  1  0.350090  0.350090  0.899910  1.0
  Cd  Cd348  1  0.899910  0.899910  0.350090  1.0
  Cl  Cl349  1  0.705300  0.384100  0.705300  1
  Cl  Cl350  1  0.705300  0.705300  0.384100  1
  Cl  Cl351  1  0.705300  0.705300  0.705300  1
  Cl  Cl352  1  0.384100  0.705300  0.705300  1
  Cl  Cl353  1  0.294700  0.615900  0.294700  1
  Cl  Cl354  1  0.294700  0.294700  0.615900  1
  Cl  Cl355  1  0.294700  0.294700  0.294700  1
  Cl  Cl356  1  0.615900  0.294700  0.294700  1
  Cl  Cl357  1  0.817670  0.053070  0.569690  1.0
  Cl  Cl358  1  0.059570  0.569690  0.053070  1.0
  Cl  Cl359  1  0.569690  0.059570  0.817670  1.0
  Cl  Cl360  1  0.053070  0.817670  0.059570  1.0
  Cl  Cl361  1  0.053070  0.569690  0.817670  1.0
  Cl  Cl362  1  0.569690  0.053070  0.059570  1.0
  Cl  Cl363  1  0.059570  0.817670  0.569690  1.0
  Cl  Cl364  1  0.817670  0.059570  0.053070  1.0
  Cl  Cl365  1  0.569690  0.817670  0.053070  1.0
  Cl  Cl366  1  0.053070  0.059570  0.569690  1.0
  Cl  Cl367  1  0.817670  0.569690  0.059570  1.0
  Cl  Cl368  1  0.059570  0.053070  0.817670  1.0
  Cl  Cl369  1  0.182330  0.946930  0.430310  1.0
  Cl  Cl370  1  0.940430  0.430310  0.946930  1.0
  Cl  Cl371  1  0.430310  0.940430  0.182330  1.0
  Cl  Cl372  1  0.946930  0.182330  0.940430  1.0
  Cl  Cl373  1  0.946930  0.430310  0.182330  1.0
  Cl  Cl374  1  0.430310  0.946930  0.940430  1.0
  Cl  Cl375  1  0.940430  0.182330  0.430310  1.0
  Cl  Cl376  1  0.182330  0.940430  0.946930  1.0
  Cl  Cl377  1  0.430310  0.182330  0.946930  1.0
  Cl  Cl378  1  0.946930  0.940430  0.430310  1.0
  Cl  Cl379  1  0.182330  0.430310  0.940430  1.0
  Cl  Cl380  1  0.940430  0.946930  0.182330  1.0
  H  H381  1  0.871200  0.168000  0.623200  1.0
  H  H382  1  0.837600  0.623200  0.168000  1.0
  H  H383  1  0.623200  0.837600  0.871200  1.0
  H  H384  1  0.168000  0.871200  0.837600  1.0
  H  H385  1  0.168000  0.623200  0.871200  1.0
  H  H386  1  0.623200  0.168000  0.837600  1.0
  H  H387  1  0.837600  0.871200  0.623200  1.0
  H  H388  1  0.871200  0.837600  0.168000  1.0
  H  H389  1  0.623200  0.871200  0.168000  1.0
  H  H390  1  0.168000  0.837600  0.623200  1.0
  H  H391  1  0.871200  0.623200  0.837600  1.0
  H  H392  1  0.837600  0.168000  0.871200  1.0
  H  H393  1  0.128800  0.832000  0.376800  1.0
  H  H394  1  0.162400  0.376800  0.832000  1.0
  H  H395  1  0.376800  0.162400  0.128800  1.0
  H  H396  1  0.832000  0.128800  0.162400  1.0
  H  H397  1  0.832000  0.376800  0.128800  1.0
  H  H398  1  0.376800  0.832000  0.162400  1.0
  H  H399  1  0.162400  0.128800  0.376800  1.0
  H  H400  1  0.128800  0.162400  0.832000  1.0
  H  H401  1  0.376800  0.128800  0.832000  1.0
  H  H402  1  0.832000  0.162400  0.376800  1.0
  H  H403  1  0.128800  0.376800  0.162400  1.0
  H  H404  1  0.162400  0.832000  0.128800  1.0
  H  H405  1  0.811100  0.149700  0.634700  1.0
  H  H406  1  0.904500  0.634700  0.149700  1.0
  H  H407  1  0.634700  0.904500  0.811100  1.0
  H  H408  1  0.149700  0.811100  0.904500  1.0
  H  H409  1  0.149700  0.634700  0.811100  1.0
  H  H410  1  0.634700  0.149700  0.904500  1.0
  H  H411  1  0.904500  0.811100  0.634700  1.0
  H  H412  1  0.811100  0.904500  0.149700  1.0
  H  H413  1  0.634700  0.811100  0.149700  1.0
  H  H414  1  0.149700  0.904500  0.634700  1.0
  H  H415  1  0.811100  0.634700  0.904500  1.0
  H  H416  1  0.904500  0.149700  0.811100  1.0
  H  H417  1  0.188900  0.850300  0.365300  1.0
  H  H418  1  0.095500  0.365300  0.850300  1.0
  H  H419  1  0.365300  0.095500  0.188900  1.0
  H  H420  1  0.850300  0.188900  0.095500  1.0
  H  H421  1  0.850300  0.365300  0.188900  1.0
  H  H422  1  0.365300  0.850300  0.095500  1.0
  H  H423  1  0.095500  0.188900  0.365300  1.0
  H  H424  1  0.188900  0.095500  0.850300  1.0
  H  H425  1  0.365300  0.188900  0.850300  1.0
  H  H426  1  0.850300  0.095500  0.365300  1.0
  H  H427  1  0.188900  0.365300  0.095500  1.0
  H  H428  1  0.095500  0.850300  0.188900  1.0
  H  H429  1  0.877700  0.091300  0.649100  1.0
  H  H430  1  0.881900  0.649100  0.091300  1.0
  H  H431  1  0.649100  0.881900  0.877700  1.0
  H  H432  1  0.091300  0.877700  0.881900  1.0
  H  H433  1  0.091300  0.649100  0.877700  1.0
  H  H434  1  0.649100  0.091300  0.881900  1.0
  H  H435  1  0.881900  0.877700  0.649100  1.0
  H  H436  1  0.877700  0.881900  0.091300  1.0
  H  H437  1  0.649100  0.877700  0.091300  1.0
  H  H438  1  0.091300  0.881900  0.649100  1.0
  H  H439  1  0.877700  0.649100  0.881900  1.0
  H  H440  1  0.881900  0.091300  0.877700  1.0
  H  H441  1  0.122300  0.908700  0.350900  1.0
  H  H442  1  0.118100  0.350900  0.908700  1.0
  H  H443  1  0.350900  0.118100  0.122300  1.0
  H  H444  1  0.908700  0.122300  0.118100  1.0
  H  H445  1  0.908700  0.350900  0.122300  1.0
  H  H446  1  0.350900  0.908700  0.118100  1.0
  H  H447  1  0.118100  0.122300  0.350900  1.0
  H  H448  1  0.122300  0.118100  0.908700  1.0
  H  H449  1  0.350900  0.122300  0.908700  1.0
  H  H450  1  0.908700  0.118100  0.350900  1.0
  H  H451  1  0.122300  0.350900  0.118100  1.0
  H  H452  1  0.118100  0.908700  0.122300  1.0
  H  H453  1  0.744100  0.094100  0.707500  1.0
  H  H454  1  0.954300  0.707500  0.094100  1.0
  H  H455  1  0.707500  0.954300  0.744100  1.0
  H  H456  1  0.094100  0.744100  0.954300  1.0
  H  H457  1  0.094100  0.707500  0.744100  1.0
  H  H458  1  0.707500  0.094100  0.954300  1.0
  H  H459  1  0.954300  0.744100  0.707500  1.0
  H  H460  1  0.744100  0.954300  0.094100  1.0
  H  H461  1  0.707500  0.744100  0.094100  1.0
  H  H462  1  0.094100  0.954300  0.707500  1.0
  H  H463  1  0.744100  0.707500  0.954300  1.0
  H  H464  1  0.954300  0.094100  0.744100  1.0
  H  H465  1  0.255900  0.905900  0.292500  1.0
  H  H466  1  0.045700  0.292500  0.905900  1.0
  H  H467  1  0.292500  0.045700  0.255900  1.0
  H  H468  1  0.905900  0.255900  0.045700  1.0
  H  H469  1  0.905900  0.292500  0.255900  1.0
  H  H470  1  0.292500  0.905900  0.045700  1.0
  H  H471  1  0.045700  0.255900  0.292500  1.0
  H  H472  1  0.255900  0.045700  0.905900  1.0
  H  H473  1  0.292500  0.255900  0.905900  1.0
  H  H474  1  0.905900  0.045700  0.292500  1.0
  H  H475  1  0.255900  0.292500  0.045700  1.0
  H  H476  1  0.045700  0.905900  0.255900  1.0
  H  H477  1  0.679300  0.104500  0.772100  1.0
  H  H478  1  0.944100  0.772100  0.104500  1.0
  H  H479  1  0.772100  0.944100  0.679300  1.0
  H  H480  1  0.104500  0.679300  0.944100  1.0
  H  H481  1  0.104500  0.772100  0.679300  1.0
  H  H482  1  0.772100  0.104500  0.944100  1.0
  H  H483  1  0.944100  0.679300  0.772100  1.0
  H  H484  1  0.679300  0.944100  0.104500  1.0
  H  H485  1  0.772100  0.679300  0.104500  1.0
  H  H486  1  0.104500  0.944100  0.772100  1.0
  H  H487  1  0.679300  0.772100  0.944100  1.0
  H  H488  1  0.944100  0.104500  0.679300  1.0
  H  H489  1  0.320700  0.895500  0.227900  1.0
  H  H490  1  0.055900  0.227900  0.895500  1.0
  H  H491  1  0.227900  0.055900  0.320700  1.0
  H  H492  1  0.895500  0.320700  0.055900  1.0
  H  H493  1  0.895500  0.227900  0.320700  1.0
  H  H494  1  0.227900  0.895500  0.055900  1.0
  H  H495  1  0.055900  0.320700  0.227900  1.0
  H  H496  1  0.320700  0.055900  0.895500  1.0
  H  H497  1  0.227900  0.320700  0.895500  1.0
  H  H498  1  0.895500  0.055900  0.227900  1.0
  H  H499  1  0.320700  0.227900  0.055900  1.0
  H  H500  1  0.055900  0.895500  0.320700  1.0
  H  H501  1  0.684700  0.264100  0.704500  1.0
  H  H502  1  0.846700  0.704500  0.264100  1.0
  H  H503  1  0.704500  0.846700  0.684700  1.0
  H  H504  1  0.264100  0.684700  0.846700  1.0
  H  H505  1  0.264100  0.704500  0.684700  1.0
  H  H506  1  0.704500  0.264100  0.846700  1.0
  H  H507  1  0.846700  0.684700  0.704500  1.0
  H  H508  1  0.684700  0.846700  0.264100  1.0
  H  H509  1  0.704500  0.684700  0.264100  1.0
  H  H510  1  0.264100  0.846700  0.704500  1.0
  H  H511  1  0.684700  0.704500  0.846700  1.0
  H  H512  1  0.846700  0.264100  0.684700  1.0
  H  H513  1  0.315300  0.735900  0.295500  1.0
  H  H514  1  0.153300  0.295500  0.735900  1.0
  H  H515  1  0.295500  0.153300  0.315300  1.0
  H  H516  1  0.735900  0.315300  0.153300  1.0
  H  H517  1  0.735900  0.295500  0.315300  1.0
  H  H518  1  0.295500  0.735900  0.153300  1.0
  H  H519  1  0.153300  0.315300  0.295500  1.0
  H  H520  1  0.315300  0.153300  0.735900  1.0
  H  H521  1  0.295500  0.315300  0.735900  1.0
  H  H522  1  0.735900  0.153300  0.295500  1.0
  H  H523  1  0.315300  0.295500  0.153300  1.0
  H  H524  1  0.153300  0.735900  0.315300  1.0
  H  H525  1  0.620500  0.343500  0.626100  1.0
  H  H526  1  0.909900  0.626100  0.343500  1.0
  H  H527  1  0.626100  0.909900  0.620500  1.0
  H  H528  1  0.343500  0.620500  0.909900  1.0
  H  H529  1  0.343500  0.626100  0.620500  1.0
  H  H530  1  0.626100  0.343500  0.909900  1.0
  H  H531  1  0.909900  0.620500  0.626100  1.0
  H  H532  1  0.620500  0.909900  0.343500  1.0
  H  H533  1  0.626100  0.620500  0.343500  1.0
  H  H534  1  0.343500  0.909900  0.626100  1.0
  H  H535  1  0.620500  0.626100  0.909900  1.0
  H  H536  1  0.909900  0.343500  0.620500  1.0
  H  H537  1  0.379500  0.656500  0.373900  1.0
  H  H538  1  0.090100  0.373900  0.656500  1.0
  H  H539  1  0.373900  0.090100  0.379500  1.0
  H  H540  1  0.656500  0.379500  0.090100  1.0
  H  H541  1  0.656500  0.373900  0.379500  1.0
  H  H542  1  0.373900  0.656500  0.090100  1.0
  H  H543  1  0.090100  0.379500  0.373900  1.0
  H  H544  1  0.379500  0.090100  0.656500  1.0
  H  H545  1  0.373900  0.379500  0.656500  1.0
  H  H546  1  0.656500  0.090100  0.373900  1.0
  H  H547  1  0.379500  0.373900  0.090100  1.0
  H  H548  1  0.090100  0.656500  0.379500  1.0
  H  H549  1  0.518400  0.359200  0.614200  1.0
  H  H550  1  0.008200  0.614200  0.359200  1.0
  H  H551  1  0.614200  0.008200  0.518400  1.0
  H  H552  1  0.359200  0.518400  0.008200  1.0
  H  H553  1  0.359200  0.614200  0.518400  1.0
  H  H554  1  0.614200  0.359200  0.008200  1.0
  H  H555  1  0.008200  0.518400  0.614200  1.0
  H  H556  1  0.518400  0.008200  0.359200  1.0
  H  H557  1  0.614200  0.518400  0.359200  1.0
  H  H558  1  0.359200  0.008200  0.614200  1.0
  H  H559  1  0.518400  0.614200  0.008200  1.0
  H  H560  1  0.008200  0.359200  0.518400  1.0
  H  H561  1  0.481600  0.640800  0.385800  1.0
  H  H562  1  0.991800  0.385800  0.640800  1.0
  H  H563  1  0.385800  0.991800  0.481600  1.0
  H  H564  1  0.640800  0.481600  0.991800  1.0
  H  H565  1  0.640800  0.385800  0.481600  1.0
  H  H566  1  0.385800  0.640800  0.991800  1.0
  H  H567  1  0.991800  0.481600  0.385800  1.0
  H  H568  1  0.481600  0.991800  0.640800  1.0
  H  H569  1  0.385800  0.481600  0.640800  1.0
  H  H570  1  0.640800  0.991800  0.385800  1.0
  H  H571  1  0.481600  0.385800  0.991800  1.0
  H  H572  1  0.991800  0.640800  0.481600  1.0
  H  H573  1  0.454700  0.406300  0.542100  1.0
  H  H574  1  0.096900  0.542100  0.406300  1.0
  H  H575  1  0.542100  0.096900  0.454700  1.0
  H  H576  1  0.406300  0.454700  0.096900  1.0
  H  H577  1  0.406300  0.542100  0.454700  1.0
  H  H578  1  0.542100  0.406300  0.096900  1.0
  H  H579  1  0.096900  0.454700  0.542100  1.0
  H  H580  1  0.454700  0.096900  0.406300  1.0
  H  H581  1  0.542100  0.454700  0.406300  1.0
  H  H582  1  0.406300  0.096900  0.542100  1.0
  H  H583  1  0.454700  0.542100  0.096900  1.0
  H  H584  1  0.096900  0.406300  0.454700  1.0
  H  H585  1  0.545300  0.593700  0.457900  1.0
  H  H586  1  0.903100  0.457900  0.593700  1.0
  H  H587  1  0.457900  0.903100  0.545300  1.0
  H  H588  1  0.593700  0.545300  0.903100  1.0
  H  H589  1  0.593700  0.457900  0.545300  1.0
  H  H590  1  0.457900  0.593700  0.903100  1.0
  H  H591  1  0.903100  0.545300  0.457900  1.0
  H  H592  1  0.545300  0.903100  0.593700  1.0
  H  H593  1  0.457900  0.545300  0.593700  1.0
  H  H594  1  0.593700  0.903100  0.457900  1.0
  H  H595  1  0.545300  0.457900  0.903100  1.0
  H  H596  1  0.903100  0.593700  0.545300  1.0
  H  H597  1  0.480600  0.358000  0.471200  1.0
  H  H598  1  0.190200  0.471200  0.358000  1.0
  H  H599  1  0.471200  0.190200  0.480600  1.0
  H  H600  1  0.358000  0.480600  0.190200  1.0
  H  H601  1  0.358000  0.471200  0.480600  1.0
  H  H602  1  0.471200  0.358000  0.190200  1.0
  H  H603  1  0.190200  0.480600  0.471200  1.0
  H  H604  1  0.480600  0.190200  0.358000  1.0
  H  H605  1  0.471200  0.480600  0.358000  1.0
  H  H606  1  0.358000  0.190200  0.471200  1.0
  H  H607  1  0.480600  0.471200  0.190200  1.0
  H  H608  1  0.190200  0.358000  0.480600  1.0
  H  H609  1  0.519400  0.642000  0.528800  1.0
  H  H610  1  0.809800  0.528800  0.642000  1.0
  H  H611  1  0.528800  0.809800  0.519400  1.0
  H  H612  1  0.642000  0.519400  0.809800  1.0
  H  H613  1  0.642000  0.528800  0.519400  1.0
  H  H614  1  0.528800  0.642000  0.809800  1.0
  H  H615  1  0.809800  0.519400  0.528800  1.0
  H  H616  1  0.519400  0.809800  0.642000  1.0
  H  H617  1  0.528800  0.519400  0.642000  1.0
  H  H618  1  0.642000  0.809800  0.528800  1.0
  H  H619  1  0.519400  0.528800  0.809800  1.0
  H  H620  1  0.809800  0.642000  0.519400  1.0
  H  H621  1  0.573400  0.264600  0.459000  1.0
  H  H622  1  0.203000  0.459000  0.264600  1.0
  H  H623  1  0.459000  0.203000  0.573400  1.0
  H  H624  1  0.264600  0.573400  0.203000  1.0
  H  H625  1  0.264600  0.459000  0.573400  1.0
  H  H626  1  0.459000  0.264600  0.203000  1.0
  H  H627  1  0.203000  0.573400  0.459000  1.0
  H  H628  1  0.573400  0.203000  0.264600  1.0
  H  H629  1  0.459000  0.573400  0.264600  1.0
  H  H630  1  0.264600  0.203000  0.459000  1.0
  H  H631  1  0.573400  0.459000  0.203000  1.0
  H  H632  1  0.203000  0.264600  0.573400  1.0
  H  H633  1  0.426600  0.735400  0.541000  1.0
  H  H634  1  0.797000  0.541000  0.735400  1.0
  H  H635  1  0.541000  0.797000  0.426600  1.0
  H  H636  1  0.735400  0.426600  0.797000  1.0
  H  H637  1  0.735400  0.541000  0.426600  1.0
  H  H638  1  0.541000  0.735400  0.797000  1.0
  H  H639  1  0.797000  0.426600  0.541000  1.0
  H  H640  1  0.426600  0.797000  0.735400  1.0
  H  H641  1  0.541000  0.426600  0.735400  1.0
  H  H642  1  0.735400  0.797000  0.541000  1.0
  H  H643  1  0.426600  0.541000  0.797000  1.0
  H  H644  1  0.797000  0.735400  0.426600  1.0
  H  H645  1  0.635400  0.156800  0.476800  1.0
  H  H646  1  0.231000  0.476800  0.156800  1.0
  H  H647  1  0.476800  0.231000  0.635400  1.0
  H  H648  1  0.156800  0.635400  0.231000  1.0
  H  H649  1  0.156800  0.476800  0.635400  1.0
  H  H650  1  0.476800  0.156800  0.231000  1.0
  H  H651  1  0.231000  0.635400  0.476800  1.0
  H  H652  1  0.635400  0.231000  0.156800  1.0
  H  H653  1  0.476800  0.635400  0.156800  1.0
  H  H654  1  0.156800  0.231000  0.476800  1.0
  H  H655  1  0.635400  0.476800  0.231000  1.0
  H  H656  1  0.231000  0.156800  0.635400  1.0
  H  H657  1  0.364600  0.843200  0.523200  1.0
  H  H658  1  0.769000  0.523200  0.843200  1.0
  H  H659  1  0.523200  0.769000  0.364600  1.0
  H  H660  1  0.843200  0.364600  0.769000  1.0
  H  H661  1  0.843200  0.523200  0.364600  1.0
  H  H662  1  0.523200  0.843200  0.769000  1.0
  H  H663  1  0.769000  0.364600  0.523200  1.0
  H  H664  1  0.364600  0.769000  0.843200  1.0
  H  H665  1  0.523200  0.364600  0.843200  1.0
  H  H666  1  0.843200  0.769000  0.523200  1.0
  H  H667  1  0.364600  0.523200  0.769000  1.0
  H  H668  1  0.769000  0.843200  0.364600  1.0
  H  H669  1  0.714600  0.119400  0.458800  1.0
  H  H670  1  0.207200  0.458800  0.119400  1.0
  H  H671  1  0.458800  0.207200  0.714600  1.0
  H  H672  1  0.119400  0.714600  0.207200  1.0
  H  H673  1  0.119400  0.458800  0.714600  1.0
  H  H674  1  0.458800  0.119400  0.207200  1.0
  H  H675  1  0.207200  0.714600  0.458800  1.0
  H  H676  1  0.714600  0.207200  0.119400  1.0
  H  H677  1  0.458800  0.714600  0.119400  1.0
  H  H678  1  0.119400  0.207200  0.458800  1.0
  H  H679  1  0.714600  0.458800  0.207200  1.0
  H  H680  1  0.207200  0.119400  0.714600  1.0
  H  H681  1  0.285400  0.880600  0.541200  1.0
  H  H682  1  0.792800  0.541200  0.880600  1.0
  H  H683  1  0.541200  0.792800  0.285400  1.0
  H  H684  1  0.880600  0.285400  0.792800  1.0
  H  H685  1  0.880600  0.541200  0.285400  1.0
  H  H686  1  0.541200  0.880600  0.792800  1.0
  H  H687  1  0.792800  0.285400  0.541200  1.0
  H  H688  1  0.285400  0.792800  0.880600  1.0
  H  H689  1  0.541200  0.285400  0.880600  1.0
  H  H690  1  0.880600  0.792800  0.541200  1.0
  H  H691  1  0.285400  0.541200  0.792800  1.0
  H  H692  1  0.792800  0.880600  0.285400  1.0
  H  H693  1  0.685500  0.197100  0.418700  1.0
  H  H694  1  0.198700  0.418700  0.197100  1.0
  H  H695  1  0.418700  0.198700  0.685500  1.0
  H  H696  1  0.197100  0.685500  0.198700  1.0
  H  H697  1  0.197100  0.418700  0.685500  1.0
  H  H698  1  0.418700  0.197100  0.198700  1.0
  H  H699  1  0.198700  0.685500  0.418700  1.0
  H  H700  1  0.685500  0.198700  0.197100  1.0
  H  H701  1  0.418700  0.685500  0.197100  1.0
  H  H702  1  0.197100  0.198700  0.418700  1.0
  H  H703  1  0.685500  0.418700  0.198700  1.0
  H  H704  1  0.198700  0.197100  0.685500  1.0
  H  H705  1  0.314500  0.802900  0.581300  1.0
  H  H706  1  0.801300  0.581300  0.802900  1.0
  H  H707  1  0.581300  0.801300  0.314500  1.0
  H  H708  1  0.802900  0.314500  0.801300  1.0
  H  H709  1  0.802900  0.581300  0.314500  1.0
  H  H710  1  0.581300  0.802900  0.801300  1.0
  H  H711  1  0.801300  0.314500  0.581300  1.0
  H  H712  1  0.314500  0.801300  0.802900  1.0
  H  H713  1  0.581300  0.314500  0.802900  1.0
  H  H714  1  0.802900  0.801300  0.581300  1.0
  H  H715  1  0.314500  0.581300  0.801300  1.0
  H  H716  1  0.801300  0.802900  0.314500  1.0
  N  N717  1  0.679800  0.188200  0.692000  1.0
  N  N718  1  0.940000  0.692000  0.188200  1.0
  N  N719  1  0.692000  0.940000  0.679800  1.0
  N  N720  1  0.188200  0.679800  0.940000  1.0
  N  N721  1  0.188200  0.692000  0.679800  1.0
  N  N722  1  0.692000  0.188200  0.940000  1.0
  N  N723  1  0.940000  0.679800  0.692000  1.0
  N  N724  1  0.679800  0.940000  0.188200  1.0
  N  N725  1  0.692000  0.679800  0.188200  1.0
  N  N726  1  0.188200  0.940000  0.692000  1.0
  N  N727  1  0.679800  0.692000  0.940000  1.0
  N  N728  1  0.940000  0.188200  0.679800  1.0
  N  N729  1  0.320200  0.811800  0.308000  1.0
  N  N730  1  0.060000  0.308000  0.811800  1.0
  N  N731  1  0.308000  0.060000  0.320200  1.0
  N  N732  1  0.811800  0.320200  0.060000  1.0
  N  N733  1  0.811800  0.308000  0.320200  1.0
  N  N734  1  0.308000  0.811800  0.060000  1.0
  N  N735  1  0.060000  0.320200  0.308000  1.0
  N  N736  1  0.320200  0.060000  0.811800  1.0
  N  N737  1  0.308000  0.320200  0.811800  1.0
  N  N738  1  0.811800  0.060000  0.308000  1.0
  N  N739  1  0.320200  0.308000  0.060000  1.0
  N  N740  1  0.060000  0.811800  0.320200  1.0
  N  N741  1  0.650850  0.191350  0.653850  1.0
  N  N742  1  0.003950  0.653850  0.191350  1.0
  N  N743  1  0.653850  0.003950  0.650850  1.0
  N  N744  1  0.191350  0.650850  0.003950  1.0
  N  N745  1  0.191350  0.653850  0.650850  1.0
  N  N746  1  0.653850  0.191350  0.003950  1.0
  N  N747  1  0.003950  0.650850  0.653850  1.0
  N  N748  1  0.650850  0.003950  0.191350  1.0
  N  N749  1  0.653850  0.650850  0.191350  1.0
  N  N750  1  0.191350  0.003950  0.653850  1.0
  N  N751  1  0.650850  0.653850  0.003950  1.0
  N  N752  1  0.003950  0.191350  0.650850  1.0
  N  N753  1  0.349150  0.808650  0.346150  1.0
  N  N754  1  0.996050  0.346150  0.808650  1.0
  N  N755  1  0.346150  0.996050  0.349150  1.0
  N  N756  1  0.808650  0.349150  0.996050  1.0
  N  N757  1  0.808650  0.346150  0.349150  1.0
  N  N758  1  0.346150  0.808650  0.996050  1.0
  N  N759  1  0.996050  0.349150  0.346150  1.0
  N  N760  1  0.349150  0.996050  0.808650  1.0
  N  N761  1  0.346150  0.349150  0.808650  1.0
  N  N762  1  0.808650  0.996050  0.346150  1.0
  N  N763  1  0.349150  0.346150  0.996050  1.0
  N  N764  1  0.996050  0.808650  0.349150  1.0
  O  O765  1  0.729760  0.310720  0.729760  1
  O  O766  1  0.729760  0.729760  0.310720  1
  O  O767  1  0.729760  0.729760  0.729760  1
  O  O768  1  0.310720  0.729760  0.729760  1
  O  O769  1  0.270240  0.689280  0.270240  1
  O  O770  1  0.270240  0.270240  0.689280  1
  O  O771  1  0.270240  0.270240  0.270240  1
  O  O772  1  0.689280  0.270240  0.270240  1
  O  O773  1  0.923600  0.923600  0.729200  1
  O  O774  1  0.923600  0.729200  0.923600  1
  O  O775  1  0.729200  0.923600  0.923600  1
  O  O776  1  0.923600  0.923600  0.923600  1
  O  O777  1  0.076400  0.076400  0.270800  1
  O  O778  1  0.076400  0.270800  0.076400  1
  O  O779  1  0.270800  0.076400  0.076400  1
  O  O780  1  0.076400  0.076400  0.076400  1
  O  O781  1  0.811200  0.007400  0.551000  1
  O  O782  1  0.130400  0.551000  0.007400  1
  O  O783  1  0.551000  0.130400  0.811200  1
  O  O784  1  0.007400  0.811200  0.130400  1
  O  O785  1  0.007400  0.551000  0.811200  1
  O  O786  1  0.551000  0.007400  0.130400  1
  O  O787  1  0.130400  0.811200  0.551000  1
  O  O788  1  0.811200  0.130400  0.007400  1
  O  O789  1  0.551000  0.811200  0.007400  1
  O  O790  1  0.007400  0.130400  0.551000  1
  O  O791  1  0.811200  0.551000  0.130400  1
  O  O792  1  0.130400  0.007400  0.811200  1
  O  O793  1  0.188800  0.992600  0.449000  1
  O  O794  1  0.869600  0.449000  0.992600  1
  O  O795  1  0.449000  0.869600  0.188800  1
  O  O796  1  0.992600  0.188800  0.869600  1
  O  O797  1  0.992600  0.449000  0.188800  1
  O  O798  1  0.449000  0.992600  0.869600  1
  O  O799  1  0.869600  0.188800  0.449000  1
  O  O800  1  0.188800  0.869600  0.992600  1
  O  O801  1  0.449000  0.188800  0.992600  1
  O  O802  1  0.992600  0.869600  0.449000  1
  O  O803  1  0.188800  0.449000  0.869600  1
  O  O804  1  0.869600  0.992600  0.188800  1
  O  O805  1  0.891000  0.022800  0.558200  1
  O  O806  1  0.028000  0.558200  0.022800  1
  O  O807  1  0.558200  0.028000  0.891000  1
  O  O808  1  0.022800  0.891000  0.028000  1
  O  O809  1  0.022800  0.558200  0.891000  1
  O  O810  1  0.558200  0.022800  0.028000  1
  O  O811  1  0.028000  0.891000  0.558200  1
  O  O812  1  0.891000  0.028000  0.022800  1
  O  O813  1  0.558200  0.891000  0.022800  1
  O  O814  1  0.022800  0.028000  0.558200  1
  O  O815  1  0.891000  0.558200  0.028000  1
  O  O816  1  0.028000  0.022800  0.891000  1
  O  O817  1  0.109000  0.977200  0.441800  1
  O  O818  1  0.972000  0.441800  0.977200  1
  O  O819  1  0.441800  0.972000  0.109000  1
  O  O820  1  0.977200  0.109000  0.972000  1
  O  O821  1  0.977200  0.441800  0.109000  1
  O  O822  1  0.441800  0.977200  0.972000  1
  O  O823  1  0.972000  0.109000  0.441800  1
  O  O824  1  0.109000  0.972000  0.977200  1
  O  O825  1  0.441800  0.109000  0.977200  1
  O  O826  1  0.977200  0.972000  0.441800  1
  O  O827  1  0.109000  0.441800  0.972000  1
  O  O828  1  0.972000  0.977200  0.109000  1
  O  O829  1  0.817800  0.111200  0.507600  1
  O  O830  1  0.063400  0.507600  0.111200  1
  O  O831  1  0.507600  0.063400  0.817800  1
  O  O832  1  0.111200  0.817800  0.063400  1
  O  O833  1  0.111200  0.507600  0.817800  1
  O  O834  1  0.507600  0.111200  0.063400  1
  O  O835  1  0.063400  0.817800  0.507600  1
  O  O836  1  0.817800  0.063400  0.111200  1
  O  O837  1  0.507600  0.817800  0.111200  1
  O  O838  1  0.111200  0.063400  0.507600  1
  O  O839  1  0.817800  0.507600  0.063400  1
  O  O840  1  0.063400  0.111200  0.817800  1
  O  O841  1  0.182200  0.888800  0.492400  1
  O  O842  1  0.936600  0.492400  0.888800  1
  O  O843  1  0.492400  0.936600  0.182200  1
  O  O844  1  0.888800  0.182200  0.936600  1
  O  O845  1  0.888800  0.492400  0.182200  1
  O  O846  1  0.492400  0.888800  0.936600  1
  O  O847  1  0.936600  0.182200  0.492400  1
  O  O848  1  0.182200  0.936600  0.888800  1
  O  O849  1  0.492400  0.182200  0.888800  1
  O  O850  1  0.888800  0.936600  0.492400  1
  O  O851  1  0.182200  0.492400  0.936600  1
  O  O852  1  0.936600  0.888800  0.182200  1
  O  O853  1  0.383400  0.366000  0.435200  1
  O  O854  1  0.315400  0.435200  0.366000  1
  O  O855  1  0.435200  0.315400  0.383400  1
  O  O856  1  0.366000  0.383400  0.315400  1
  O  O857  1  0.366000  0.435200  0.383400  1
  O  O858  1  0.435200  0.366000  0.315400  1
  O  O859  1  0.315400  0.383400  0.435200  1
  O  O860  1  0.383400  0.315400  0.366000  1
  O  O861  1  0.435200  0.383400  0.366000  1
  O  O862  1  0.366000  0.315400  0.435200  1
  O  O863  1  0.383400  0.435200  0.315400  1
  O  O864  1  0.315400  0.366000  0.383400  1
  O  O865  1  0.616600  0.634000  0.564800  1
  O  O866  1  0.684600  0.564800  0.634000  1
  O  O867  1  0.564800  0.684600  0.616600  1
  O  O868  1  0.634000  0.616600  0.684600  1
  O  O869  1  0.634000  0.564800  0.616600  1
  O  O870  1  0.564800  0.634000  0.684600  1
  O  O871  1  0.684600  0.616600  0.564800  1
  O  O872  1  0.616600  0.684600  0.634000  1
  O  O873  1  0.564800  0.616600  0.634000  1
  O  O874  1  0.634000  0.684600  0.564800  1
  O  O875  1  0.616600  0.564800  0.684600  1
  O  O876  1  0.684600  0.634000  0.616600  1
  O  O877  1  0.653100  0.405900  0.759700  1.0
  O  O878  1  0.681300  0.759700  0.405900  1.0
  O  O879  1  0.759700  0.681300  0.653100  1.0
  O  O880  1  0.405900  0.653100  0.681300  1.0
  O  O881  1  0.405900  0.759700  0.653100  1.0
  O  O882  1  0.759700  0.405900  0.681300  1.0
  O  O883  1  0.681300  0.653100  0.759700  1.0
  O  O884  1  0.653100  0.681300  0.405900  1.0
  O  O885  1  0.759700  0.653100  0.405900  1.0
  O  O886  1  0.405900  0.681300  0.759700  1.0
  O  O887  1  0.653100  0.759700  0.681300  1.0
  O  O888  1  0.681300  0.405900  0.653100  1.0
  O  O889  1  0.346900  0.594100  0.240300  1.0
  O  O890  1  0.318700  0.240300  0.594100  1.0
  O  O891  1  0.240300  0.318700  0.346900  1.0
  O  O892  1  0.594100  0.346900  0.318700  1.0
  O  O893  1  0.594100  0.240300  0.346900  1.0
  O  O894  1  0.240300  0.594100  0.318700  1.0
  O  O895  1  0.318700  0.346900  0.240300  1.0
  O  O896  1  0.346900  0.318700  0.594100  1.0
  O  O897  1  0.240300  0.346900  0.594100  1.0
  O  O898  1  0.594100  0.318700  0.240300  1.0
  O  O899  1  0.346900  0.240300  0.318700  1.0
  O  O900  1  0.318700  0.594100  0.346900  1.0
  O  O901  1  0.793500  0.038900  0.534900  1.0
  O  O902  1  0.132700  0.534900  0.038900  1.0
  O  O903  1  0.534900  0.132700  0.793500  1.0
  O  O904  1  0.038900  0.793500  0.132700  1.0
  O  O905  1  0.038900  0.534900  0.793500  1.0
  O  O906  1  0.534900  0.038900  0.132700  1.0
  O  O907  1  0.132700  0.793500  0.534900  1.0
  O  O908  1  0.793500  0.132700  0.038900  1.0
  O  O909  1  0.534900  0.793500  0.038900  1.0
  O  O910  1  0.038900  0.132700  0.534900  1.0
  O  O911  1  0.793500  0.534900  0.132700  1.0
  O  O912  1  0.132700  0.038900  0.793500  1.0
  O  O913  1  0.206500  0.961100  0.465100  1.0
  O  O914  1  0.867300  0.465100  0.961100  1.0
  O  O915  1  0.465100  0.867300  0.206500  1.0
  O  O916  1  0.961100  0.206500  0.867300  1.0
  O  O917  1  0.961100  0.465100  0.206500  1.0
  O  O918  1  0.465100  0.961100  0.867300  1.0
  O  O919  1  0.867300  0.206500  0.465100  1.0
  O  O920  1  0.206500  0.867300  0.961100  1.0
  O  O921  1  0.465100  0.206500  0.961100  1.0
  O  O922  1  0.961100  0.867300  0.465100  1.0
  O  O923  1  0.206500  0.465100  0.867300  1.0
  O  O924  1  0.867300  0.961100  0.206500  1.0
  O  O925  1  0.872900  0.001500  0.591700  1.0
  O  O926  1  0.033900  0.591700  0.001500  1.0
  O  O927  1  0.591700  0.033900  0.872900  1.0
  O  O928  1  0.001500  0.872900  0.033900  1.0
  O  O929  1  0.001500  0.591700  0.872900  1.0
  O  O930  1  0.591700  0.001500  0.033900  1.0
  O  O931  1  0.033900  0.872900  0.591700  1.0
  O  O932  1  0.872900  0.033900  0.001500  1.0
  O  O933  1  0.591700  0.872900  0.001500  1.0
  O  O934  1  0.001500  0.033900  0.591700  1.0
  O  O935  1  0.872900  0.591700  0.033900  1.0
  O  O936  1  0.033900  0.001500  0.872900  1.0
  O  O937  1  0.127100  0.998500  0.408300  1.0
  O  O938  1  0.966100  0.408300  0.998500  1.0
  O  O939  1  0.408300  0.966100  0.127100  1.0
  O  O940  1  0.998500  0.127100  0.966100  1.0
  O  O941  1  0.998500  0.408300  0.127100  1.0
  O  O942  1  0.408300  0.998500  0.966100  1.0
  O  O943  1  0.966100  0.127100  0.408300  1.0
  O  O944  1  0.127100  0.966100  0.998500  1.0
  O  O945  1  0.408300  0.127100  0.998500  1.0
  O  O946  1  0.998500  0.966100  0.408300  1.0
  O  O947  1  0.127100  0.408300  0.966100  1.0
  O  O948  1  0.966100  0.998500  0.127100  1.0
  O  O949  1  0.828200  0.120000  0.529400  1.0
  O  O950  1  0.022400  0.529400  0.120000  1.0
  O  O951  1  0.529400  0.022400  0.828200  1.0
  O  O952  1  0.120000  0.828200  0.022400  1.0
  O  O953  1  0.120000  0.529400  0.828200  1.0
  O  O954  1  0.529400  0.120000  0.022400  1.0
  O  O955  1  0.022400  0.828200  0.529400  1.0
  O  O956  1  0.828200  0.022400  0.120000  1.0
  O  O957  1  0.529400  0.828200  0.120000  1.0
  O  O958  1  0.120000  0.022400  0.529400  1.0
  O  O959  1  0.828200  0.529400  0.022400  1.0
  O  O960  1  0.022400  0.120000  0.828200  1.0
  O  O961  1  0.171800  0.880000  0.470600  1.0
  O  O962  1  0.977600  0.470600  0.880000  1.0
  O  O963  1  0.470600  0.977600  0.171800  1.0
  O  O964  1  0.880000  0.171800  0.977600  1.0
  O  O965  1  0.880000  0.470600  0.171800  1.0
  O  O966  1  0.470600  0.880000  0.977600  1.0
  O  O967  1  0.977600  0.171800  0.470600  1.0
  O  O968  1  0.171800  0.977600  0.880000  1.0
  O  O969  1  0.470600  0.171800  0.880000  1.0
  O  O970  1  0.880000  0.977600  0.470600  1.0
  O  O971  1  0.171800  0.470600  0.977600  1.0
  O  O972  1  0.977600  0.880000  0.171800  1.0
  O  O973  1  0.765000  0.061200  0.623000  1.0
  O  O974  1  0.050800  0.623000  0.061200  1.0
  O  O975  1  0.623000  0.050800  0.765000  1.0
  O  O976  1  0.061200  0.765000  0.050800  1.0
  O  O977  1  0.061200  0.623000  0.765000  1.0
  O  O978  1  0.623000  0.061200  0.050800  1.0
  O  O979  1  0.050800  0.765000  0.623000  1.0
  O  O980  1  0.765000  0.050800  0.061200  1.0
  O  O981  1  0.623000  0.765000  0.061200  1.0
  O  O982  1  0.061200  0.050800  0.623000  1.0
  O  O983  1  0.765000  0.623000  0.050800  1.0
  O  O984  1  0.050800  0.061200  0.765000  1.0
  O  O985  1  0.235000  0.938800  0.377000  1.0
  O  O986  1  0.949200  0.377000  0.938800  1.0
  O  O987  1  0.377000  0.949200  0.235000  1.0
  O  O988  1  0.938800  0.235000  0.949200  1.0
  O  O989  1  0.938800  0.377000  0.235000  1.0
  O  O990  1  0.377000  0.938800  0.949200  1.0
  O  O991  1  0.949200  0.235000  0.377000  1.0
  O  O992  1  0.235000  0.949200  0.938800  1.0
  O  O993  1  0.377000  0.235000  0.938800  1.0
  O  O994  1  0.938800  0.949200  0.377000  1.0
  O  O995  1  0.235000  0.377000  0.949200  1.0
  O  O996  1  0.949200  0.938800  0.235000  1.0
  S  S997  1  0.677900  0.183460  0.521700  1.0
  S  S998  1  0.116940  0.521700  0.183460  1.0
  S  S999  1  0.521700  0.116940  0.677900  1.0
  S  S1000  1  0.183460  0.677900  0.116940  1.0
  S  S1001  1  0.183460  0.521700  0.677900  1.0
  S  S1002  1  0.521700  0.183460  0.116940  1.0
  S  S1003  1  0.116940  0.677900  0.521700  1.0
  S  S1004  1  0.677900  0.116940  0.183460  1.0
  S  S1005  1  0.521700  0.677900  0.183460  1.0
  S  S1006  1  0.183460  0.116940  0.521700  1.0
  S  S1007  1  0.677900  0.521700  0.116940  1.0
  S  S1008  1  0.116940  0.183460  0.677900  1.0
  S  S1009  1  0.322100  0.816540  0.478300  1.0
  S  S1010  1  0.883060  0.478300  0.816540  1.0
  S  S1011  1  0.478300  0.883060  0.322100  1.0
  S  S1012  1  0.816540  0.322100  0.883060  1.0
  S  S1013  1  0.816540  0.478300  0.322100  1.0
  S  S1014  1  0.478300  0.816540  0.883060  1.0
  S  S1015  1  0.883060  0.322100  0.478300  1.0
  S  S1016  1  0.322100  0.883060  0.816540  1.0
  S  S1017  1  0.478300  0.322100  0.816540  1.0
  S  S1018  1  0.816540  0.883060  0.478300  1.0
  S  S1019  1  0.322100  0.478300  0.883060  1.0
  S  S1020  1  0.883060  0.816540  0.322100  1.0
