# generated using pymatgen
data_Cd3H102C90S6N18Cl6O43
_symmetry_space_group_name_H-M   'P 1'
_cell_length_a   17.55150000
_cell_length_b   18.16660000
_cell_length_c   38.83763251
_cell_angle_alpha   103.52554278
_cell_angle_beta   91.63533814
_cell_angle_gamma   90.00000000
_symmetry_Int_Tables_number   1
_chemical_formula_structural   Cd3H102C90S6N18Cl6O43
_chemical_formula_sum   'Cd12 H408 C360 S24 N72 Cl24 O172'
_cell_volume   12034.78854667
_cell_formula_units_Z   4
loop_
 _symmetry_equiv_pos_site_id
 _symmetry_equiv_pos_as_xyz
  1  'x, y, z'
loop_
 _atom_site_type_symbol
 _atom_site_label
 _atom_site_symmetry_multiplicity
 _atom_site_fract_x
 _atom_site_fract_y
 _atom_site_fract_z
 _atom_site_occupancy
  C  C1  1  0.511700  0.742740  0.632880  1
  C  C2  1  0.988300  0.109860  0.367120  1
  C  C3  1  0.488300  0.257260  0.367120  1
  C  C4  1  0.011700  0.890140  0.632880  1
  C  C5  1  0.510300  0.818500  0.651200  1
  C  C6  1  0.989700  0.167300  0.348800  1
  C  C7  1  0.489700  0.181500  0.348800  1
  C  C8  1  0.010300  0.832700  0.651200  1
  C  C9  1  0.547600  0.842050  0.683900  1
  C  C10  1  0.952400  0.158150  0.316100  1
  C  C11  1  0.452400  0.157950  0.316100  1
  C  C12  1  0.047600  0.841850  0.683900  1
  C  C13  1  0.587000  0.789740  0.698680  1
  C  C14  1  0.913000  0.091060  0.301320  1
  C  C15  1  0.413000  0.210260  0.301320  1
  C  C16  1  0.087000  0.908940  0.698680  1
  C  C17  1  0.588900  0.714700  0.680200  1
  C  C18  1  0.911100  0.034500  0.319800  1
  C  C19  1  0.411100  0.285300  0.319800  1
  C  C20  1  0.088900  0.965500  0.680200  1
  C  C21  1  0.550800  0.690880  0.647760  1
  C  C22  1  0.949200  0.043120  0.352240  1
  C  C23  1  0.449200  0.309120  0.352240  1
  C  C24  1  0.050800  0.956880  0.647760  1
  C  C25  1  0.470700  0.713950  0.597300  1
  C  C26  1  0.029300  0.116650  0.402700  1
  C  C27  1  0.529300  0.286050  0.402700  1
  C  C28  1  0.970700  0.883350  0.597300  1
  C  C29  1  0.405500  0.822910  0.579820  1
  C  C30  1  0.094500  0.243090  0.420180  1
  C  C31  1  0.594500  0.177090  0.420180  1
  C  C32  1  0.905500  0.756910  0.579820  1
  C  C33  1  0.425800  0.875810  0.562020  1
  C  C34  1  0.074200  0.313790  0.437980  1
  C  C35  1  0.574200  0.124190  0.437980  1
  C  C36  1  0.925800  0.686210  0.562020  1
  C  C37  1  0.497100  0.853870  0.548340  1
  C  C38  1  0.002900  0.305530  0.451660  1
  C  C39  1  0.502900  0.146130  0.451660  1
  C  C40  1  0.997100  0.694470  0.548340  1
  C  C41  1  0.543200  0.893570  0.526540  1
  C  C42  1  0.956800  0.367030  0.473460  1
  C  C43  1  0.456800  0.106430  0.473460  1
  C  C44  1  0.043200  0.632970  0.526540  1
  C  C45  1  0.555900  0.970940  0.539880  1
  C  C46  1  0.944100  0.431060  0.460120  1
  C  C47  1  0.444100  0.029060  0.460120  1
  C  C48  1  0.055900  0.568940  0.539880  1
  C  C49  1  0.597000  0.013060  0.521320  1
  C  C50  1  0.903000  0.491740  0.478680  1
  C  C51  1  0.403000  0.986940  0.478680  1
  C  C52  1  0.097000  0.508260  0.521320  1
  C  C53  1  0.626300  0.978460  0.488920  1
  C  C54  1  0.873700  0.489540  0.511080  1
  C  C55  1  0.373700  0.021540  0.511080  1
  C  C56  1  0.126300  0.510460  0.488920  1
  C  C57  1  0.612900  0.901660  0.474520  1
  C  C58  1  0.887100  0.427140  0.525480  1
  C  C59  1  0.387100  0.098340  0.525480  1
  C  C60  1  0.112900  0.572860  0.474520  1
  C  C61  1  0.571600  0.859480  0.493360  1
  C  C62  1  0.928400  0.366120  0.506640  1
  C  C63  1  0.428400  0.140520  0.506640  1
  C  C64  1  0.071600  0.633880  0.493360  1
  C  C65  1  0.459900  0.745050  0.470900  1
  C  C66  1  0.040100  0.274150  0.529100  1
  C  C67  1  0.540100  0.254950  0.529100  1
  C  C68  1  0.959900  0.725850  0.470900  1
  C  C69  1  0.630000  0.815300  0.733800  1
  C  C70  1  0.870000  0.081500  0.266200  1
  C  C71  1  0.370000  0.184700  0.266200  1
  C  C72  1  0.130000  0.918500  0.733800  1
  C  C73  1  0.526700  0.762240  0.765680  1
  C  C74  1  0.973300  0.996560  0.234320  1
  C  C75  1  0.473300  0.237760  0.234320  1
  C  C76  1  0.026700  0.003440  0.765680  1
  C  C77  1  0.499300  0.780490  0.799180  1
  C  C78  1  0.000700  0.981310  0.200820  1
  C  C79  1  0.500700  0.219510  0.200820  1
  C  C80  1  0.999300  0.018690  0.799180  1
  C  C81  1  0.540900  0.844150  0.817500  1
  C  C82  1  0.959100  0.026650  0.182500  1
  C  C83  1  0.459100  0.155850  0.182500  1
  C  C84  1  0.040900  0.973350  0.817500  1
  C  C85  1  0.536000  0.881530  0.855460  1
  C  C86  1  0.964000  0.026070  0.144540  1
  C  C87  1  0.464000  0.118470  0.144540  1
  C  C88  1  0.036000  0.973930  0.855460  1
  C  C89  1  0.517900  0.835170  0.877940  1
  C  C90  1  0.982100  0.957230  0.122060  1
  C  C91  1  0.482100  0.164830  0.122060  1
  C  C92  1  0.017900  0.042770  0.877940  1
  C  C93  1  0.512800  0.862980  0.914160  1
  C  C94  1  0.987200  0.948820  0.085840  1
  C  C95  1  0.487200  0.137020  0.085840  1
  C  C96  1  0.012800  0.051180  0.914160  1
  C  C97  1  0.527900  0.939100  0.928400  1
  C  C98  1  0.972100  0.010700  0.071600  1
  C  C99  1  0.472100  0.060900  0.071600  1
  C  C100  1  0.027900  0.989300  0.928400  1
  C  C101  1  0.545600  0.986880  0.906760  1
  C  C102  1  0.954400  0.080120  0.093240  1
  C  C103  1  0.454400  0.013120  0.093240  1
  C  C104  1  0.045600  0.919880  0.906760  1
  C  C105  1  0.549000  0.959360  0.870320  1
  C  C106  1  0.951000  0.089040  0.129680  1
  C  C107  1  0.451000  0.040640  0.129680  1
  C  C108  1  0.049000  0.910960  0.870320  1
  C  C109  1  0.594800  0.108990  0.871380  1
  C  C110  1  0.905200  0.237610  0.128620  1
  C  C111  1  0.405200  0.891010  0.128620  1
  C  C112  1  0.094800  0.762390  0.871380  1
  C  C113  1  0.713200  0.882620  0.639640  1
  C  C114  1  0.786800  0.242980  0.360360  1
  C  C115  1  0.286800  0.117380  0.360360  1
  C  C116  1  0.213200  0.757020  0.639640  1
  C  C117  1  0.713100  0.957790  0.658380  1
  C  C118  1  0.786900  0.299410  0.341620  1
  C  C119  1  0.286900  0.042210  0.341620  1
  C  C120  1  0.213100  0.700590  0.658380  1
  C  C121  1  0.751300  0.979740  0.690880  1
  C  C122  1  0.748700  0.288860  0.309120  1
  C  C123  1  0.248700  0.020260  0.309120  1
  C  C124  1  0.251300  0.711140  0.690880  1
  C  C125  1  0.790100  0.926700  0.705400  1
  C  C126  1  0.709900  0.221300  0.294600  1
  C  C127  1  0.209900  0.073300  0.294600  1
  C  C128  1  0.290100  0.778700  0.705400  1
  C  C129  1  0.789100  0.851810  0.686620  1
  C  C130  1  0.710900  0.165190  0.313380  1
  C  C131  1  0.210900  0.148190  0.313380  1
  C  C132  1  0.289100  0.834810  0.686620  1
  C  C133  1  0.751200  0.829770  0.654340  1
  C  C134  1  0.748800  0.175430  0.345660  1
  C  C135  1  0.248800  0.170230  0.345660  1
  C  C136  1  0.251200  0.824570  0.654340  1
  C  C137  1  0.670000  0.859180  0.604760  1
  C  C138  1  0.830000  0.254420  0.395240  1
  C  C139  1  0.330000  0.140820  0.395240  1
  C  C140  1  0.170000  0.745580  0.604760  1
  C  C141  1  0.773300  0.911920  0.572840  1
  C  C142  1  0.726700  0.339080  0.427160  1
  C  C143  1  0.226700  0.088080  0.427160  1
  C  C144  1  0.273300  0.660920  0.572840  1
  C  C145  1  0.803200  0.892160  0.539720  1
  C  C146  1  0.696800  0.352440  0.460280  1
  C  C147  1  0.196800  0.107840  0.460280  1
  C  C148  1  0.303200  0.647560  0.539720  1
  C  C149  1  0.763100  0.827210  0.521820  1
  C  C150  1  0.736900  0.305390  0.478180  1
  C  C151  1  0.236900  0.172790  0.478180  1
  C  C152  1  0.263100  0.694610  0.521820  1
  C  C153  1  0.770100  0.788350  0.484100  1
  C  C154  1  0.729900  0.304250  0.515900  1
  C  C155  1  0.229900  0.211650  0.515900  1
  C  C156  1  0.270100  0.695750  0.484100  1
  C  C157  1  0.790500  0.833250  0.461100  1
  C  C158  1  0.709500  0.372150  0.538900  1
  C  C159  1  0.209500  0.166750  0.538900  1
  C  C160  1  0.290500  0.627850  0.461100  1
  C  C161  1  0.798000  0.804110  0.425220  1
  C  C162  1  0.702000  0.378890  0.574780  1
  C  C163  1  0.202000  0.195890  0.574780  1
  C  C164  1  0.298000  0.621110  0.425220  1
  C  C165  1  0.784200  0.728110  0.411220  1
  C  C166  1  0.715800  0.316890  0.588780  1
  C  C167  1  0.215800  0.271890  0.588780  1
  C  C168  1  0.284200  0.683110  0.411220  1
  C  C169  1  0.764200  0.681520  0.433240  1
  C  C170  1  0.735800  0.248280  0.566760  1
  C  C171  1  0.235800  0.318480  0.566760  1
  C  C172  1  0.264200  0.751720  0.433240  1
  C  C173  1  0.757900  0.710430  0.469660  1
  C  C174  1  0.742100  0.240770  0.530340  1
  C  C175  1  0.242100  0.289570  0.530340  1
  C  C176  1  0.257900  0.759230  0.469660  1
  C  C177  1  0.711500  0.560550  0.469300  1
  C  C178  1  0.788500  0.091250  0.530700  1
  C  C179  1  0.288500  0.439450  0.530700  1
  C  C180  1  0.211500  0.908750  0.469300  1
  C  C181  1  0.830400  0.954020  0.741240  1
  C  C182  1  0.669600  0.212780  0.258760  1
  C  C183  1  0.169600  0.045980  0.258760  1
  C  C184  1  0.330400  0.787220  0.741240  1
  C  C185  1  0.894300  0.842550  0.756900  1
  C  C186  1  0.605700  0.085650  0.243100  1
  C  C187  1  0.105700  0.157450  0.243100  1
  C  C188  1  0.394300  0.914350  0.756900  1
  C  C189  1  0.873800  0.789620  0.775240  1
  C  C190  1  0.626200  0.014380  0.224760  1
  C  C191  1  0.126200  0.210380  0.224760  1
  C  C192  1  0.373800  0.985620  0.775240  1
  C  C193  1  0.804400  0.814840  0.790480  1
  C  C194  1  0.695600  0.024360  0.209520  1
  C  C195  1  0.195600  0.185160  0.209520  1
  C  C196  1  0.304400  0.975640  0.790480  1
  C  C197  1  0.760300  0.776980  0.813360  1
  C  C198  1  0.739700  0.963620  0.186640  1
  C  C199  1  0.239700  0.223020  0.186640  1
  C  C200  1  0.260300  0.036380  0.813360  1
  C  C201  1  0.747800  0.699170  0.800940  1
  C  C202  1  0.752200  0.898230  0.199060  1
  C  C203  1  0.252200  0.300830  0.199060  1
  C  C204  1  0.247800  0.101770  0.800940  1
  C  C205  1  0.709000  0.658270  0.820940  1
  C  C206  1  0.791000  0.837330  0.179060  1
  C  C207  1  0.291000  0.341730  0.179060  1
  C  C208  1  0.209000  0.162670  0.820940  1
  C  C209  1  0.682700  0.693610  0.853420  1
  C  C210  1  0.817300  0.840190  0.146580  1
  C  C211  1  0.317300  0.306390  0.146580  1
  C  C212  1  0.182700  0.159810  0.853420  1
  C  C213  1  0.695300  0.769960  0.866720  1
  C  C214  1  0.804700  0.903240  0.133280  1
  C  C215  1  0.304700  0.230040  0.133280  1
  C  C216  1  0.195300  0.096760  0.866720  1
  C  C217  1  0.733800  0.812400  0.846800  1
  C  C218  1  0.766200  0.965600  0.153200  1
  C  C219  1  0.266200  0.187600  0.153200  1
  C  C220  1  0.233800  0.034400  0.846800  1
  C  C221  1  0.846600  0.926110  0.866420  1
  C  C222  1  0.653400  0.059690  0.133580  1
  C  C223  1  0.153400  0.073890  0.133580  1
  C  C224  1  0.346600  0.940310  0.866420  1
  C  C225  1  0.401500  0.561730  0.672260  1
  C  C226  1  0.098500  0.889470  0.327740  1
  C  C227  1  0.598500  0.438270  0.327740  1
  C  C228  1  0.901500  0.110530  0.672260  1
  C  C229  1  0.871600  0.497930  0.342260  1
  C  C230  1  0.628400  0.155670  0.657740  1
  C  C231  1  0.128400  0.502070  0.657740  1
  C  C232  1  0.371600  0.844330  0.342260  1
  C  C233  1  0.798200  0.259230  0.662660  1
  C  C234  1  0.701800  0.596570  0.337340  1
  C  C235  1  0.201800  0.740770  0.337340  1
  C  C236  1  0.298200  0.403430  0.662660  1
  C  C237  1  0.670800  0.504290  0.679980  1
  C  C238  1  0.829200  0.824310  0.320020  1
  C  C239  1  0.329200  0.495710  0.320020  1
  C  C240  1  0.170800  0.175690  0.679980  1
  C  C241  1  0.385900  0.042150  0.661100  1
  C  C242  1  0.114100  0.381050  0.338900  1
  C  C243  1  0.614100  0.957850  0.338900  1
  C  C244  1  0.885900  0.618950  0.661100  1
  C  C245  1  0.938000  0.338070  0.624740  1
  C  C246  1  0.562000  0.713330  0.375260  1
  C  C247  1  0.062000  0.661930  0.375260  1
  C  C248  1  0.438000  0.286670  0.624740  1
  C  C249  1  0.157900  0.587940  0.028280  1.0
  C  C250  1  0.342100  0.559660  0.971720  1.0
  C  C251  1  0.842100  0.412060  0.971720  1.0
  C  C252  1  0.657900  0.440340  0.028280  1.0
  C  C253  1  0.132600  0.514870  0.013940  1.0
  C  C254  1  0.367400  0.500930  0.986060  1.0
  C  C255  1  0.867400  0.485130  0.986060  1.0
  C  C256  1  0.632600  0.499070  0.013940  1.0
  C  C257  1  0.085900  0.499270  0.983340  1.0
  C  C258  1  0.414100  0.515930  0.016660  1.0
  C  C259  1  0.914100  0.500730  0.016660  1.0
  C  C260  1  0.585900  0.484070  0.983340  1.0
  C  C261  1  0.064700  0.556620  0.966840  1.0
  C  C262  1  0.435300  0.589780  0.033160  1.0
  C  C263  1  0.935300  0.443380  0.033160  1.0
  C  C264  1  0.564700  0.410220  0.966840  1.0
  C  C265  1  0.091500  0.629720  0.981240  1.0
  C  C266  1  0.408500  0.648480  0.018760  1.0
  C  C267  1  0.908500  0.370280  0.018760  1.0
  C  C268  1  0.591500  0.351520  0.981240  1.0
  C  C269  1  0.137600  0.645330  0.011460  1.0
  C  C270  1  0.362400  0.633870  0.988540  1.0
  C  C271  1  0.862400  0.354670  0.988540  1.0
  C  C272  1  0.637600  0.366130  0.011460  1.0
  C  C273  1  0.206400  0.609110  0.062020  1.0
  C  C274  1  0.293600  0.547090  0.937980  1.0
  C  C275  1  0.793600  0.390890  0.937980  1.0
  C  C276  1  0.706400  0.452910  0.062020  1.0
  C  C277  1  0.266500  0.494490  0.075180  1.0
  C  C278  1  0.233500  0.419310  0.924820  1.0
  C  C279  1  0.733500  0.505510  0.924820  1.0
  C  C280  1  0.766500  0.580690  0.075180  1.0
  C  C281  1  0.247700  0.442770  0.094140  1.0
  C  C282  1  0.252300  0.348630  0.905860  1.0
  C  C283  1  0.752300  0.557230  0.905860  1.0
  C  C284  1  0.747700  0.651370  0.094140  1.0
  C  C285  1  0.181200  0.470090  0.111180  1.0
  C  C286  1  0.318800  0.358910  0.888820  1.0
  C  C287  1  0.818800  0.529910  0.888820  1.0
  C  C288  1  0.681200  0.641090  0.111180  1.0
  C  C289  1  0.139300  0.431470  0.134540  1.0
  C  C290  1  0.360700  0.296930  0.865460  1.0
  C  C291  1  0.860700  0.568530  0.865460  1.0
  C  C292  1  0.639300  0.703070  0.134540  1.0
  C  C293  1  0.126300  0.354230  0.122460  1.0
  C  C294  1  0.373700  0.231770  0.877540  1.0
  C  C295  1  0.873700  0.645770  0.877540  1.0
  C  C296  1  0.626300  0.768230  0.122460  1.0
  C  C297  1  0.088400  0.313700  0.142800  1.0
  C  C298  1  0.411600  0.170900  0.857200  1.0
  C  C299  1  0.911600  0.686300  0.857200  1.0
  C  C300  1  0.588400  0.829100  0.142800  1.0
  C  C301  1  0.063900  0.349120  0.175840  1.0
  C  C302  1  0.436100  0.173280  0.824160  1.0
  C  C303  1  0.936100  0.650880  0.824160  1.0
  C  C304  1  0.563900  0.826720  0.175840  1.0
  C  C305  1  0.078600  0.425350  0.189100  1.0
  C  C306  1  0.421400  0.236250  0.810900  1.0
  C  C307  1  0.921400  0.574650  0.810900  1.0
  C  C308  1  0.578600  0.763750  0.189100  1.0
  C  C309  1  0.116300  0.467350  0.168900  1.0
  C  C310  1  0.383700  0.298450  0.831100  1.0
  C  C311  1  0.883700  0.532650  0.831100  1.0
  C  C312  1  0.616300  0.701550  0.168900  1.0
  C  C313  1  0.232600  0.577740  0.187480  1.0
  C  C314  1  0.267400  0.390260  0.812520  1.0
  C  C315  1  0.767400  0.422260  0.812520  1.0
  C  C316  1  0.732600  0.609740  0.187480  1.0
  C  C317  1  0.987600  0.460100  0.065800  1.0
  C  C318  1  0.512400  0.394300  0.934200  1.0
  C  C319  1  0.012400  0.539900  0.934200  1.0
  C  C320  1  0.487600  0.605700  0.065800  1.0
  C  C321  1  0.888200  0.426700  0.105600  1.0
  C  C322  1  0.611800  0.321100  0.894400  1.0
  C  C323  1  0.111800  0.573300  0.894400  1.0
  C  C324  1  0.388200  0.678900  0.105600  1.0
  C  C325  1  0.870000  0.453280  0.140360  1.0
  C  C326  1  0.630000  0.312920  0.859640  1.0
  C  C327  1  0.130000  0.546720  0.859640  1.0
  C  C328  1  0.370000  0.687080  0.140360  1.0
  C  C329  1  0.919300  0.514230  0.153460  1.0
  C  C330  1  0.580700  0.360770  0.846540  1.0
  C  C331  1  0.080700  0.485770  0.846540  1.0
  C  C332  1  0.419300  0.639230  0.153460  1.0
  C  C333  1  0.925400  0.557770  0.190740  1.0
  C  C334  1  0.574600  0.367030  0.809260  1.0
  C  C335  1  0.074600  0.442230  0.809260  1.0
  C  C336  1  0.425400  0.632970  0.190740  1.0
  C  C337  1  0.913000  0.517850  0.216700  1.0
  C  C338  1  0.587000  0.301150  0.783300  1.0
  C  C339  1  0.087000  0.482150  0.783300  1.0
  C  C340  1  0.413000  0.698850  0.216700  1.0
  C  C341  1  0.919200  0.552550  0.252300  1.0
  C  C342  1  0.580800  0.300250  0.747700  1.0
  C  C343  1  0.080800  0.447450  0.747700  1.0
  C  C344  1  0.419200  0.699750  0.252300  1.0
  C  C345  1  0.937900  0.628260  0.262720  1.0
  C  C346  1  0.562100  0.365540  0.737280  1.0
  C  C347  1  0.062100  0.371740  0.737280  1.0
  C  C348  1  0.437900  0.634460  0.262720  1.0
  C  C349  1  0.948800  0.670120  0.237640  1.0
  C  C350  1  0.551200  0.432480  0.762360  1.0
  C  C351  1  0.051200  0.329880  0.762360  1.0
  C  C352  1  0.448800  0.567520  0.237640  1.0
  C  C353  1  0.942900  0.635580  0.201760  1.0
  C  C354  1  0.557100  0.433820  0.798240  1.0
  C  C355  1  0.057100  0.364420  0.798240  1.0
  C  C356  1  0.442900  0.566180  0.201760  1.0
  C  C357  1  0.979600  0.781880  0.193360  1.0
  C  C358  1  0.520400  0.588520  0.806640  1.0
  C  C359  1  0.020400  0.218120  0.806640  1.0
  C  C360  1  0.479600  0.411480  0.193360  1.0
  Cd  Cd361  1  0.616677  0.713420  0.529490  1
  Cd  Cd362  1  0.883323  0.183930  0.470510  1
  Cd  Cd363  1  0.383323  0.286580  0.470510  1
  Cd  Cd364  1  0.116677  0.816070  0.529490  1
  Cd  Cd365  1  0.687240  0.956447  0.809170  1
  Cd  Cd366  1  0.812760  0.147277  0.190830  1
  Cd  Cd367  1  0.312760  0.043553  0.190830  1
  Cd  Cd368  1  0.187240  0.852723  0.809170  1
  Cd  Cd369  1  0.066400  0.613178  0.133340  1.0
  Cd  Cd370  1  0.433600  0.479838  0.866660  1.0
  Cd  Cd371  1  0.933600  0.386822  0.866660  1.0
  Cd  Cd372  1  0.566400  0.520162  0.133340  1.0
  Cl  Cl373  1  0.706540  0.616055  0.585010  1
  Cl  Cl374  1  0.793460  0.031045  0.414990  1
  Cl  Cl375  1  0.293460  0.383945  0.414990  1
  Cl  Cl376  1  0.206540  0.968955  0.585010  1
  Cl  Cl377  1  0.597640  0.056433  0.754246  1
  Cl  Cl378  1  0.902360  0.302187  0.245754  1
  Cl  Cl379  1  0.402360  0.943567  0.245754  1
  Cl  Cl380  1  0.097640  0.697813  0.754246  1
  Cl  Cl381  1  0.512590  0.520696  0.421372  1
  Cl  Cl382  1  0.987410  0.099324  0.578628  1
  Cl  Cl383  1  0.487410  0.479304  0.578628  1
  Cl  Cl384  1  0.012590  0.900676  0.421372  1
  Cl  Cl385  1  0.306020  0.569339  0.764438  1
  Cl  Cl386  1  0.193980  0.804901  0.235562  1
  Cl  Cl387  1  0.693980  0.430661  0.235562  1
  Cl  Cl388  1  0.806020  0.195099  0.764438  1
  Cl  Cl389  1  0.796570  0.152020  0.914940  1
  Cl  Cl390  1  0.703430  0.237080  0.085060  1
  Cl  Cl391  1  0.203430  0.847980  0.085060  1
  Cl  Cl392  1  0.296570  0.762920  0.914940  1
  Cl  Cl393  1  0.980670  0.712060  0.078180  1.0
  Cl  Cl394  1  0.519330  0.633880  0.921820  1.0
  Cl  Cl395  1  0.019330  0.287940  0.921820  1.0
  Cl  Cl396  1  0.480670  0.366120  0.078180  1.0
  H  H397  1  0.528300  0.580900  0.495800  1
  H  H398  1  0.971700  0.085100  0.504200  1
  H  H399  1  0.471700  0.419100  0.504200  1
  H  H400  1  0.028300  0.914900  0.495800  1
  H  H401  1  0.543600  0.572800  0.527400  1
  H  H402  1  0.956400  0.045400  0.472600  1
  H  H403  1  0.456400  0.427200  0.472600  1
  H  H404  1  0.043600  0.954600  0.527400  1
  H  H405  1  0.754700  0.078400  0.803000  1
  H  H406  1  0.745300  0.275400  0.197000  1
  H  H407  1  0.245300  0.921600  0.197000  1
  H  H408  1  0.254700  0.724600  0.803000  1
  H  H409  1  0.781000  0.080900  0.842000  1
  H  H410  1  0.719000  0.238900  0.158000  1
  H  H411  1  0.219000  0.919100  0.158000  1
  H  H412  1  0.281000  0.761100  0.842000  1
  H  H413  1  0.483600  0.854300  0.641200  1
  H  H414  1  0.016400  0.213100  0.358800  1
  H  H415  1  0.516400  0.145700  0.358800  1
  H  H416  1  0.983600  0.786900  0.641200  1
  H  H417  1  0.546300  0.893800  0.696200  1
  H  H418  1  0.953700  0.197600  0.303800  1
  H  H419  1  0.453700  0.106200  0.303800  1
  H  H420  1  0.046300  0.802400  0.696200  1
  H  H421  1  0.616700  0.679200  0.690000  1
  H  H422  1  0.883300  0.989200  0.310000  1
  H  H423  1  0.383300  0.320800  0.310000  1
  H  H424  1  0.116700  0.010800  0.690000  1
  H  H425  1  0.551600  0.639000  0.635600  1
  H  H426  1  0.948400  0.003400  0.364400  1
  H  H427  1  0.448400  0.361000  0.364400  1
  H  H428  1  0.051600  0.996600  0.635600  1
  H  H429  1  0.499600  0.671000  0.583200  1
  H  H430  1  0.000400  0.087800  0.416800  1
  H  H431  1  0.500400  0.329000  0.416800  1
  H  H432  1  0.999600  0.912200  0.583200  1
  H  H433  1  0.419700  0.694800  0.601200  1
  H  H434  1  0.080300  0.093600  0.398800  1
  H  H435  1  0.580300  0.305200  0.398800  1
  H  H436  1  0.919700  0.906400  0.601200  1
  H  H437  1  0.359600  0.822300  0.592200  1
  H  H438  1  0.140400  0.230100  0.407800  1
  H  H439  1  0.640400  0.177700  0.407800  1
  H  H440  1  0.859600  0.769900  0.592200  1
  H  H441  1  0.397300  0.918700  0.559400  1
  H  H442  1  0.102700  0.359300  0.440600  1
  H  H443  1  0.602700  0.081300  0.440600  1
  H  H444  1  0.897300  0.640700  0.559400  1
  H  H445  1  0.535800  0.995300  0.562200  1
  H  H446  1  0.964200  0.433100  0.437800  1
  H  H447  1  0.464200  0.004700  0.437800  1
  H  H448  1  0.035800  0.566900  0.562200  1
  H  H449  1  0.605200  0.065600  0.530800  1
  H  H450  1  0.894800  0.534800  0.469200  1
  H  H451  1  0.394800  0.934400  0.469200  1
  H  H452  1  0.105200  0.465200  0.530800  1
  H  H453  1  0.655500  0.007000  0.476400  1
  H  H454  1  0.844500  0.530600  0.523600  1
  H  H455  1  0.344500  0.993000  0.523600  1
  H  H456  1  0.155500  0.469400  0.476400  1
  H  H457  1  0.631900  0.878200  0.452000  1
  H  H458  1  0.868100  0.426200  0.548000  1
  H  H459  1  0.368100  0.121800  0.548000  1
  H  H460  1  0.131900  0.573800  0.452000  1
  H  H461  1  0.440300  0.756600  0.495000  1
  H  H462  1  0.059700  0.261600  0.505000  1
  H  H463  1  0.559700  0.243400  0.505000  1
  H  H464  1  0.940300  0.738400  0.495000  1
  H  H465  1  0.448700  0.692100  0.459400  1
  H  H466  1  0.051300  0.232700  0.540600  1
  H  H467  1  0.551300  0.307900  0.540600  1
  H  H468  1  0.948700  0.767300  0.459400  1
  H  H469  1  0.435600  0.778100  0.457200  1
  H  H470  1  0.064400  0.320900  0.542800  1
  H  H471  1  0.564400  0.221900  0.542800  1
  H  H472  1  0.935600  0.679100  0.457200  1
  H  H473  1  0.674500  0.782200  0.734400  1
  H  H474  1  0.825500  0.047800  0.265600  1
  H  H475  1  0.325500  0.217800  0.265600  1
  H  H476  1  0.174500  0.952200  0.734400  1
  H  H477  1  0.649100  0.867600  0.736200  1
  H  H478  1  0.850900  0.131400  0.263800  1
  H  H479  1  0.350900  0.132400  0.263800  1
  H  H480  1  0.149100  0.868600  0.736200  1
  H  H481  1  0.510300  0.720900  0.747000  1
  H  H482  1  0.989700  0.973900  0.253000  1
  H  H483  1  0.489700  0.279100  0.253000  1
  H  H484  1  0.010300  0.026100  0.747000  1
  H  H485  1  0.460000  0.755000  0.808200  1
  H  H486  1  0.040000  0.946800  0.191800  1
  H  H487  1  0.540000  0.245000  0.191800  1
  H  H488  1  0.960000  0.053200  0.808200  1
  H  H489  1  0.508700  0.782800  0.868200  1
  H  H490  1  0.991300  0.914600  0.131800  1
  H  H491  1  0.491300  0.217200  0.131800  1
  H  H492  1  0.008700  0.085400  0.868200  1
  H  H493  1  0.499200  0.830600  0.929000  1
  H  H494  1  0.000800  0.901600  0.071000  1
  H  H495  1  0.500800  0.169400  0.071000  1
  H  H496  1  0.999200  0.098400  0.929000  1
  H  H497  1  0.526200  0.958500  0.953200  1
  H  H498  1  0.973800  0.005300  0.046800  1
  H  H499  1  0.473800  0.041500  0.046800  1
  H  H500  1  0.026200  0.994700  0.953200  1
  H  H501  1  0.555400  0.039000  0.917000  1
  H  H502  1  0.944600  0.122000  0.083000  1
  H  H503  1  0.444600  0.961000  0.083000  1
  H  H504  1  0.055400  0.878000  0.917000  1
  H  H505  1  0.552100  0.131700  0.885800  1
  H  H506  1  0.947900  0.245900  0.114200  1
  H  H507  1  0.447900  0.868300  0.114200  1
  H  H508  1  0.052100  0.754100  0.885800  1
  H  H509  1  0.612600  0.144100  0.857600  1
  H  H510  1  0.887400  0.286500  0.142400  1
  H  H511  1  0.387400  0.855900  0.142400  1
  H  H512  1  0.112600  0.713500  0.857600  1
  H  H513  1  0.636500  0.098800  0.887000  1
  H  H514  1  0.863500  0.211800  0.113000  1
  H  H515  1  0.363500  0.901200  0.113000  1
  H  H516  1  0.136500  0.788200  0.887000  1
  H  H517  1  0.686500  0.994300  0.648800  1
  H  H518  1  0.813500  0.345500  0.351200  1
  H  H519  1  0.313500  0.005700  0.351200  1
  H  H520  1  0.186500  0.654500  0.648800  1
  H  H521  1  0.751200  0.031400  0.703400  1
  H  H522  1  0.748800  0.328000  0.296600  1
  H  H523  1  0.248800  0.968600  0.296600  1
  H  H524  1  0.251200  0.672000  0.703400  1
  H  H525  1  0.815200  0.814900  0.696200  1
  H  H526  1  0.684800  0.118700  0.303800  1
  H  H527  1  0.184800  0.185100  0.303800  1
  H  H528  1  0.315200  0.881300  0.696200  1
  H  H529  1  0.750900  0.778000  0.642000  1
  H  H530  1  0.749100  0.136000  0.358000  1
  H  H531  1  0.249100  0.222000  0.358000  1
  H  H532  1  0.250900  0.864000  0.642000  1
  H  H533  1  0.648900  0.807600  0.602200  1
  H  H534  1  0.851100  0.205400  0.397800  1
  H  H535  1  0.351100  0.192400  0.397800  1
  H  H536  1  0.148900  0.794600  0.602200  1
  H  H537  1  0.626900  0.894200  0.604400  1
  H  H538  1  0.873100  0.289800  0.395600  1
  H  H539  1  0.373100  0.105800  0.395600  1
  H  H540  1  0.126900  0.710200  0.604400  1
  H  H541  1  0.787600  0.954700  0.591200  1
  H  H542  1  0.712400  0.363500  0.408800  1
  H  H543  1  0.212400  0.045300  0.408800  1
  H  H544  1  0.287600  0.636500  0.591200  1
  H  H545  1  0.843000  0.917300  0.530800  1
  H  H546  1  0.657000  0.386500  0.469200  1
  H  H547  1  0.157000  0.082700  0.469200  1
  H  H548  1  0.343000  0.613500  0.530800  1
  H  H549  1  0.799500  0.885900  0.470600  1
  H  H550  1  0.700500  0.415300  0.529400  1
  H  H551  1  0.200500  0.114100  0.529400  1
  H  H552  1  0.299500  0.584700  0.470600  1
  H  H553  1  0.812500  0.836100  0.410400  1
  H  H554  1  0.687500  0.425700  0.589600  1
  H  H555  1  0.187500  0.163900  0.589600  1
  H  H556  1  0.312500  0.574300  0.410400  1
  H  H557  1  0.788400  0.707700  0.386600  1
  H  H558  1  0.711600  0.321100  0.613400  1
  H  H559  1  0.211600  0.292300  0.613400  1
  H  H560  1  0.288400  0.678900  0.386600  1
  H  H561  1  0.754600  0.629300  0.423400  1
  H  H562  1  0.745400  0.205900  0.576600  1
  H  H563  1  0.245400  0.370700  0.576600  1
  H  H564  1  0.254600  0.794100  0.423400  1
  H  H565  1  0.670700  0.570000  0.453200  1
  H  H566  1  0.829300  0.116800  0.546800  1
  H  H567  1  0.329300  0.430000  0.546800  1
  H  H568  1  0.170700  0.883200  0.453200  1
  H  H569  1  0.692600  0.526600  0.483400  1
  H  H570  1  0.807400  0.043200  0.516600  1
  H  H571  1  0.307400  0.473400  0.516600  1
  H  H572  1  0.192600  0.956800  0.483400  1
  H  H573  1  0.754800  0.537200  0.455600  1
  H  H574  1  0.745200  0.081600  0.544400  1
  H  H575  1  0.245200  0.462800  0.544400  1
  H  H576  1  0.254800  0.918400  0.455600  1
  H  H577  1  0.881400  0.973800  0.737600  1
  H  H578  1  0.618600  0.236200  0.262400  1
  H  H579  1  0.118600  0.026200  0.262400  1
  H  H580  1  0.381400  0.763800  0.737600  1
  H  H581  1  0.801100  0.996400  0.755600  1
  H  H582  1  0.698900  0.240800  0.244400  1
  H  H583  1  0.198900  0.003600  0.244400  1
  H  H584  1  0.301100  0.759200  0.755600  1
  H  H585  1  0.939200  0.842000  0.743800  1
  H  H586  1  0.560800  0.098200  0.256200  1
  H  H587  1  0.060800  0.158000  0.256200  1
  H  H588  1  0.439200  0.901800  0.743800  1
  H  H589  1  0.900900  0.745400  0.777200  1
  H  H590  1  0.599100  0.968200  0.222800  1
  H  H591  1  0.099100  0.254600  0.222800  1
  H  H592  1  0.400900  0.031800  0.777200  1
  H  H593  1  0.766200  0.673900  0.778400  1
  H  H594  1  0.733800  0.895500  0.221600  1
  H  H595  1  0.233800  0.326100  0.221600  1
  H  H596  1  0.266200  0.104500  0.778400  1
  H  H597  1  0.700500  0.605400  0.812000  1
  H  H598  1  0.799500  0.793400  0.188000  1
  H  H599  1  0.299500  0.394600  0.188000  1
  H  H600  1  0.200500  0.206600  0.812000  1
  H  H601  1  0.655600  0.665300  0.866800  1
  H  H602  1  0.844400  0.798500  0.133200  1
  H  H603  1  0.344400  0.334700  0.133200  1
  H  H604  1  0.155600  0.201500  0.866800  1
  H  H605  1  0.677800  0.794000  0.889600  1
  H  H606  1  0.822200  0.904400  0.110400  1
  H  H607  1  0.322200  0.206000  0.110400  1
  H  H608  1  0.177800  0.095600  0.889600  1
  H  H609  1  0.872200  0.892300  0.879400  1
  H  H610  1  0.627800  0.012900  0.120600  1
  H  H611  1  0.127800  0.107700  0.120600  1
  H  H612  1  0.372200  0.987100  0.879400  1
  H  H613  1  0.858800  0.978900  0.878200  1
  H  H614  1  0.641200  0.100700  0.121800  1
  H  H615  1  0.141200  0.021100  0.121800  1
  H  H616  1  0.358800  0.899300  0.878200  1
  H  H617  1  0.864200  0.915300  0.842000  1
  H  H618  1  0.635800  0.073300  0.158000  1
  H  H619  1  0.135800  0.084700  0.158000  1
  H  H620  1  0.364200  0.926700  0.842000  1
  H  H621  1  0.420000  0.569800  0.649800  1
  H  H622  1  0.080000  0.920000  0.350200  1
  H  H623  1  0.580000  0.430200  0.350200  1
  H  H624  1  0.920000  0.080000  0.649800  1
  H  H625  1  0.381100  0.609200  0.686200  1
  H  H626  1  0.118900  0.923000  0.313800  1
  H  H627  1  0.618900  0.390800  0.313800  1
  H  H628  1  0.881100  0.077000  0.686200  1
  H  H629  1  0.361300  0.523000  0.667400  1
  H  H630  1  0.138700  0.855600  0.332600  1
  H  H631  1  0.638700  0.477000  0.332600  1
  H  H632  1  0.861300  0.144400  0.667400  1
  H  H633  1  0.900900  0.538200  0.335600  1
  H  H634  1  0.599100  0.202600  0.664400  1
  H  H635  1  0.099100  0.461800  0.664400  1
  H  H636  1  0.400900  0.797400  0.335600  1
  H  H637  1  0.821400  0.493300  0.330200  1
  H  H638  1  0.678600  0.163100  0.669800  1
  H  H639  1  0.178600  0.506700  0.669800  1
  H  H640  1  0.321400  0.836900  0.330200  1
  H  H641  1  0.898800  0.449900  0.335200  1
  H  H642  1  0.601200  0.114700  0.664800  1
  H  H643  1  0.101200  0.550100  0.664800  1
  H  H644  1  0.398800  0.885300  0.335200  1
  H  H645  1  0.851300  0.254500  0.670200  1
  H  H646  1  0.648700  0.584300  0.329800  1
  H  H647  1  0.148700  0.745500  0.329800  1
  H  H648  1  0.351300  0.415700  0.670200  1
  H  H649  1  0.796600  0.270900  0.639200  1
  H  H650  1  0.703400  0.631700  0.360800  1
  H  H651  1  0.203400  0.729100  0.360800  1
  H  H652  1  0.296600  0.368300  0.639200  1
  H  H653  1  0.771000  0.211500  0.661400  1
  H  H654  1  0.729000  0.550100  0.338600  1
  H  H655  1  0.229000  0.788500  0.338600  1
  H  H656  1  0.271000  0.449900  0.661400  1
  H  H657  1  0.706500  0.467600  0.666600  1
  H  H658  1  0.793500  0.801000  0.333400  1
  H  H659  1  0.293500  0.532400  0.333400  1
  H  H660  1  0.206500  0.199000  0.666600  1
  H  H661  1  0.652600  0.538000  0.665200  1
  H  H662  1  0.847400  0.872800  0.334800  1
  H  H663  1  0.347400  0.462000  0.334800  1
  H  H664  1  0.152600  0.127200  0.665200  1
  H  H665  1  0.627400  0.477400  0.686800  1
  H  H666  1  0.872600  0.790600  0.313200  1
  H  H667  1  0.372600  0.522600  0.313200  1
  H  H668  1  0.127400  0.209400  0.686800  1
  H  H669  1  0.378200  0.095300  0.673200  1
  H  H670  1  0.121800  0.422100  0.326800  1
  H  H671  1  0.621800  0.904700  0.326800  1
  H  H672  1  0.878200  0.577900  0.673200  1
  H  H673  1  0.398700  0.012800  0.678600  1
  H  H674  1  0.101300  0.334200  0.321400  1
  H  H675  1  0.601300  0.987200  0.321400  1
  H  H676  1  0.898700  0.665800  0.678600  1
  H  H677  1  0.339000  0.021800  0.648000  1
  H  H678  1  0.161000  0.373800  0.352000  1
  H  H679  1  0.661000  0.978200  0.352000  1
  H  H680  1  0.839000  0.626200  0.648000  1
  H  H681  1  0.990900  0.346800  0.619200  1
  H  H682  1  0.509100  0.727600  0.380800  1
  H  H683  1  0.009100  0.653200  0.380800  1
  H  H684  1  0.490900  0.272400  0.619200  1
  H  H685  1  0.906300  0.328800  0.603000  1
  H  H686  1  0.593700  0.725800  0.397000  1
  H  H687  1  0.093700  0.671200  0.397000  1
  H  H688  1  0.406300  0.274200  0.603000  1
  H  H689  1  0.935600  0.294000  0.635200  1
  H  H690  1  0.564400  0.658800  0.364800  1
  H  H691  1  0.064400  0.706000  0.364800  1
  H  H692  1  0.435600  0.341200  0.635200  1
  H  H693  1  0.158700  0.732700  0.166200  1.0
  H  H694  1  0.341300  0.566500  0.833800  1.0
  H  H695  1  0.841300  0.267300  0.833800  1.0
  H  H696  1  0.658700  0.433500  0.166200  1.0
  H  H697  1  0.136700  0.745200  0.130600  1.0
  H  H698  1  0.363300  0.614600  0.869400  1.0
  H  H699  1  0.863300  0.254800  0.869400  1.0
  H  H700  1  0.636700  0.385400  0.130600  1.0
  H  H701  1  0.147000  0.475200  0.025000  1.0
  H  H702  1  0.353000  0.450200  0.975000  1.0
  H  H703  1  0.853000  0.524800  0.975000  1.0
  H  H704  1  0.647000  0.549800  0.025000  1.0
  H  H705  1  0.068400  0.449100  0.973800  1.0
  H  H706  1  0.431600  0.475300  0.026200  1.0
  H  H707  1  0.931600  0.550900  0.026200  1.0
  H  H708  1  0.568400  0.524700  0.973800  1.0
  H  H709  1  0.077900  0.669500  0.970200  1.0
  H  H710  1  0.422100  0.699300  0.029800  1.0
  H  H711  1  0.922100  0.330500  0.029800  1.0
  H  H712  1  0.577900  0.300700  0.970200  1.0
  H  H713  1  0.155700  0.695400  0.020800  1.0
  H  H714  1  0.344300  0.674600  0.979200  1.0
  H  H715  1  0.844300  0.304600  0.979200  1.0
  H  H716  1  0.655700  0.325400  0.020800  1.0
  H  H717  1  0.257900  0.623900  0.056000  1.0
  H  H718  1  0.242100  0.567900  0.944000  1.0
  H  H719  1  0.742100  0.376100  0.944000  1.0
  H  H720  1  0.757900  0.432100  0.056000  1.0
  H  H721  1  0.183800  0.653900  0.078000  1.0
  H  H722  1  0.316200  0.575900  0.922000  1.0
  H  H723  1  0.816200  0.346100  0.922000  1.0
  H  H724  1  0.683800  0.424100  0.078000  1.0
  H  H725  1  0.309200  0.492000  0.060600  1.0
  H  H726  1  0.190800  0.431400  0.939400  1.0
  H  H727  1  0.690800  0.508000  0.939400  1.0
  H  H728  1  0.809200  0.568600  0.060600  1.0
  H  H729  1  0.274300  0.397900  0.095400  1.0
  H  H730  1  0.225700  0.302500  0.904600  1.0
  H  H731  1  0.725700  0.602100  0.904600  1.0
  H  H732  1  0.774300  0.697500  0.095400  1.0
  H  H733  1  0.143700  0.328900  0.099800  1.0
  H  H734  1  0.356300  0.229100  0.900200  1.0
  H  H735  1  0.856300  0.671100  0.900200  1.0
  H  H736  1  0.643700  0.770900  0.099800  1.0
  H  H737  1  0.079200  0.261000  0.133800  1.0
  H  H738  1  0.420800  0.127200  0.866200  1.0
  H  H739  1  0.920800  0.739000  0.866200  1.0
  H  H740  1  0.579200  0.872800  0.133800  1.0
  H  H741  1  0.037000  0.321200  0.189600  1.0
  H  H742  1  0.463000  0.131600  0.810400  1.0
  H  H743  1  0.963000  0.678800  0.810400  1.0
  H  H744  1  0.537000  0.868400  0.189600  1.0
  H  H745  1  0.063000  0.449400  0.212200  1.0
  H  H746  1  0.437000  0.237200  0.787800  1.0
  H  H747  1  0.937000  0.550600  0.787800  1.0
  H  H748  1  0.563000  0.762800  0.212200  1.0
  H  H749  1  0.257900  0.544900  0.201000  1.0
  H  H750  1  0.242100  0.343900  0.799000  1.0
  H  H751  1  0.742100  0.455100  0.799000  1.0
  H  H752  1  0.757900  0.656100  0.201000  1.0
  H  H753  1  0.246300  0.630600  0.198000  1.0
  H  H754  1  0.253700  0.432600  0.802000  1.0
  H  H755  1  0.753700  0.369400  0.802000  1.0
  H  H756  1  0.746300  0.567400  0.198000  1.0
  H  H757  1  0.249000  0.564200  0.163000  1.0
  H  H758  1  0.251000  0.401200  0.837000  1.0
  H  H759  1  0.751000  0.435800  0.837000  1.0
  H  H760  1  0.749000  0.598800  0.163000  1.0
  H  H761  1  0.023700  0.417800  0.064600  1.0
  H  H762  1  0.476300  0.353200  0.935400  1.0
  H  H763  1  0.976300  0.582200  0.935400  1.0
  H  H764  1  0.523700  0.646800  0.064600  1.0
  H  H765  1  0.017600  0.506600  0.066400  1.0
  H  H766  1  0.482400  0.440200  0.933600  1.0
  H  H767  1  0.982400  0.493400  0.933600  1.0
  H  H768  1  0.517600  0.559800  0.066400  1.0
  H  H769  1  0.865000  0.384700  0.089400  1.0
  H  H770  1  0.635000  0.295300  0.910600  1.0
  H  H771  1  0.135000  0.615300  0.910600  1.0
  H  H772  1  0.365000  0.704700  0.089400  1.0
  H  H773  1  0.831900  0.434300  0.153000  1.0
  H  H774  1  0.668100  0.281300  0.847000  1.0
  H  H775  1  0.168100  0.565700  0.847000  1.0
  H  H776  1  0.331900  0.718700  0.153000  1.0
  H  H777  1  0.900100  0.465600  0.209800  1.0
  H  H778  1  0.599900  0.255800  0.790200  1.0
  H  H779  1  0.099900  0.534400  0.790200  1.0
  H  H780  1  0.400100  0.744200  0.209800  1.0
  H  H781  1  0.910500  0.524300  0.269600  1.0
  H  H782  1  0.589500  0.254700  0.730400  1.0
  H  H783  1  0.089500  0.475700  0.730400  1.0
  H  H784  1  0.410500  0.745300  0.269600  1.0
  H  H785  1  0.943300  0.652000  0.287200  1.0
  H  H786  1  0.556700  0.364800  0.712800  1.0
  H  H787  1  0.056700  0.348000  0.712800  1.0
  H  H788  1  0.443300  0.635200  0.287200  1.0
  H  H789  1  0.960500  0.722600  0.245000  1.0
  H  H790  1  0.539500  0.477600  0.755000  1.0
  H  H791  1  0.039500  0.277400  0.755000  1.0
  H  H792  1  0.460500  0.522400  0.245000  1.0
  H  H793  1  0.939300  0.804200  0.209400  1.0
  H  H794  1  0.560700  0.594800  0.790600  1.0
  H  H795  1  0.060700  0.195800  0.790600  1.0
  H  H796  1  0.439300  0.405200  0.209400  1.0
  H  H797  1  0.989200  0.814100  0.177000  1.0
  H  H798  1  0.510800  0.637100  0.823000  1.0
  H  H799  1  0.010800  0.185900  0.823000  1.0
  H  H800  1  0.489200  0.362900  0.177000  1.0
  H  H801  1  0.026300  0.777700  0.207200  1.0
  H  H802  1  0.473700  0.570500  0.792800  1.0
  H  H803  1  0.973700  0.222300  0.792800  1.0
  H  H804  1  0.526300  0.429500  0.207200  1.0
  N  N805  1  0.519900  0.789570  0.557540  1
  N  N806  1  0.980100  0.232030  0.442460  1
  N  N807  1  0.480100  0.210430  0.442460  1
  N  N808  1  0.019900  0.767970  0.557540  1
  N  N809  1  0.461800  0.771760  0.576920  1
  N  N810  1  0.038200  0.194840  0.423080  1
  N  N811  1  0.538200  0.228240  0.423080  1
  N  N812  1  0.961800  0.805160  0.576920  1
  N  N813  1  0.580900  0.813000  0.763800  1
  N  N814  1  0.919100  0.049200  0.236200  1
  N  N815  1  0.419100  0.187000  0.236200  1
  N  N816  1  0.080900  0.950800  0.763800  1
  N  N817  1  0.591100  0.864090  0.795380  1
  N  N818  1  0.908900  0.068710  0.204620  1
  N  N819  1  0.408900  0.135910  0.204620  1
  N  N820  1  0.091100  0.931290  0.795380  1
  N  N821  1  0.712100  0.807680  0.543560  1
  N  N822  1  0.787900  0.264120  0.456440  1
  N  N823  1  0.287900  0.192320  0.456440  1
  N  N824  1  0.212100  0.735880  0.543560  1
  N  N825  1  0.720000  0.860070  0.574740  1
  N  N826  1  0.780000  0.285330  0.425260  1
  N  N827  1  0.280000  0.139930  0.425260  1
  N  N828  1  0.220000  0.714670  0.574740  1
  N  N829  1  0.839400  0.895270  0.760940  1
  N  N830  1  0.660600  0.134330  0.239060  1
  N  N831  1  0.160600  0.104730  0.239060  1
  N  N832  1  0.339400  0.865670  0.760940  1
  N  N833  1  0.783500  0.879170  0.781340  1
  N  N834  1  0.716500  0.097830  0.218660  1
  N  N835  1  0.216500  0.120830  0.218660  1
  N  N836  1  0.283500  0.902170  0.781340  1
  N  N837  1  0.465100  0.536440  0.692280  1
  N  N838  1  0.034900  0.844160  0.307720  1
  N  N839  1  0.534900  0.463560  0.307720  1
  N  N840  1  0.965100  0.155840  0.692280  1
  N  N841  1  0.862400  0.516870  0.380940  1
  N  N842  1  0.637600  0.135930  0.619060  1
  N  N843  1  0.137600  0.483130  0.619060  1
  N  N844  1  0.362400  0.864070  0.380940  1
  N  N845  1  0.768300  0.308920  0.683440  1
  N  N846  1  0.731700  0.625480  0.316560  1
  N  N847  1  0.231700  0.691080  0.316560  1
  N  N848  1  0.268300  0.374520  0.683440  1
  N  N849  1  0.709800  0.549460  0.712120  1
  N  N850  1  0.790200  0.837340  0.287880  1
  N  N851  1  0.290200  0.450540  0.287880  1
  N  N852  1  0.209800  0.162660  0.712120  1
  N  N853  1  0.448700  0.036990  0.636180  1
  N  N854  1  0.051300  0.400810  0.363820  1
  N  N855  1  0.551300  0.963010  0.363820  1
  N  N856  1  0.948700  0.599190  0.636180  1
  N  N857  1  0.909700  0.405690  0.650380  1
  N  N858  1  0.590300  0.755310  0.349620  1
  N  N859  1  0.090300  0.594310  0.349620  1
  N  N860  1  0.409700  0.244690  0.650380  1
  N  N861  1  0.214200  0.549230  0.080860  1.0
  N  N862  1  0.285800  0.468370  0.919140  1.0
  N  N863  1  0.785800  0.450770  0.919140  1.0
  N  N864  1  0.714200  0.531630  0.080860  1.0
  N  N865  1  0.159400  0.534530  0.102860  1.0
  N  N866  1  0.340600  0.431670  0.897140  1.0
  N  N867  1  0.840600  0.465470  0.897140  1.0
  N  N868  1  0.659400  0.568330  0.102860  1.0
  N  N869  1  0.944400  0.470440  0.098480  1.0
  N  N870  1  0.555600  0.371960  0.901520  1.0
  N  N871  1  0.055600  0.529560  0.901520  1.0
  N  N872  1  0.444400  0.628040  0.098480  1.0
  N  N873  1  0.965600  0.524980  0.127760  1.0
  N  N874  1  0.534400  0.397220  0.872240  1.0
  N  N875  1  0.034400  0.475020  0.872240  1.0
  N  N876  1  0.465600  0.602780  0.127760  1.0
  O  O877  1  0.641100  0.662480  0.578960  1
  O  O878  1  0.858900  0.083520  0.421040  1
  O  O879  1  0.358900  0.337520  0.421040  1
  O  O880  1  0.141100  0.916480  0.578960  1
  O  O881  1  0.714800  0.556200  0.554200  1
  O  O882  1  0.785200  0.002000  0.445800  1
  O  O883  1  0.285200  0.443800  0.445800  1
  O  O884  1  0.214800  0.998000  0.554200  1
  O  O885  1  0.772500  0.663470  0.590940  1
  O  O886  1  0.727500  0.072530  0.409060  1
  O  O887  1  0.227500  0.336530  0.409060  1
  O  O888  1  0.272500  0.927470  0.590940  1
  O  O889  1  0.692500  0.587210  0.615220  1
  O  O890  1  0.807500  0.971990  0.384780  1
  O  O891  1  0.307500  0.412790  0.384780  1
  O  O892  1  0.192500  0.028010  0.615220  1
  O  O893  1  0.660500  0.006520  0.759240  1
  O  O894  1  0.839500  0.247280  0.240760  1
  O  O895  1  0.339500  0.993480  0.240760  1
  O  O896  1  0.160500  0.752720  0.759240  1
  O  O897  1  0.592400  0.114490  0.785980  1
  O  O898  1  0.907600  0.328510  0.214020  1
  O  O899  1  0.407600  0.885510  0.214020  1
  O  O900  1  0.092400  0.671490  0.785980  1
  O  O901  1  0.614000  0.087550  0.724900  1
  O  O902  1  0.886000  0.362650  0.275100  1
  O  O903  1  0.386000  0.912450  0.275100  1
  O  O904  1  0.114000  0.637350  0.724900  1
  O  O905  1  0.529200  0.013470  0.747940  1
  O  O906  1  0.970800  0.265530  0.252060  1
  O  O907  1  0.470800  0.986530  0.252060  1
  O  O908  1  0.029200  0.734470  0.747940  1
  O  O909  1  0.538400  0.607880  0.516380  1
  O  O910  1  0.961600  0.091500  0.483620  1
  O  O911  1  0.461600  0.392120  0.483620  1
  O  O912  1  0.038400  0.908500  0.516380  1
  O  O913  1  0.764500  0.061100  0.821200  1
  O  O914  1  0.735500  0.239900  0.178800  1
  O  O915  1  0.235500  0.938900  0.178800  1
  O  O916  1  0.264500  0.760100  0.821200  1
  O  O917  1  0.463600  0.507660  0.390720  1
  O  O918  1  0.036400  0.116940  0.609280  1
  O  O919  1  0.536400  0.492340  0.609280  1
  O  O920  1  0.963600  0.883060  0.390720  1
  O  O921  1  0.468200  0.520720  0.452640  1
  O  O922  1  0.031800  0.068080  0.547360  1
  O  O923  1  0.531800  0.479280  0.547360  1
  O  O924  1  0.968200  0.931920  0.452640  1
  O  O925  1  0.549500  0.593440  0.426680  1
  O  O926  1  0.950500  0.166760  0.573320  1
  O  O927  1  0.450500  0.406560  0.573320  1
  O  O928  1  0.049500  0.833240  0.426680  1
  O  O929  1  0.569100  0.462130  0.417860  1
  O  O930  1  0.930900  0.044270  0.582140  1
  O  O931  1  0.430900  0.537870  0.582140  1
  O  O932  1  0.069100  0.955730  0.417860  1
  O  O933  1  0.352800  0.512940  0.774680  1
  O  O934  1  0.147200  0.738260  0.225320  1
  O  O935  1  0.647200  0.487060  0.225320  1
  O  O936  1  0.852800  0.261740  0.774680  1
  O  O937  1  0.354300  0.628130  0.758060  1
  O  O938  1  0.145700  0.870070  0.241940  1
  O  O939  1  0.645700  0.371870  0.241940  1
  O  O940  1  0.854300  0.129930  0.758060  1
  O  O941  1  0.257500  0.601030  0.793860  1
  O  O942  1  0.242500  0.807170  0.206140  1
  O  O943  1  0.742500  0.398970  0.206140  1
  O  O944  1  0.757500  0.192830  0.793860  1
  O  O945  1  0.261800  0.536310  0.733820  1
  O  O946  1  0.238200  0.802490  0.266180  1
  O  O947  1  0.738200  0.463690  0.266180  1
  O  O948  1  0.761800  0.197510  0.733820  1
  O  O949  1  0.772100  0.081230  0.906060  1
  O  O950  1  0.727900  0.175170  0.093940  1
  O  O951  1  0.227900  0.918770  0.093940  1
  O  O952  1  0.272100  0.824830  0.906060  1
  O  O953  1  0.845900  0.142300  0.879200  1
  O  O954  1  0.654100  0.263100  0.120800  1
  O  O955  1  0.154100  0.857700  0.120800  1
  O  O956  1  0.345900  0.736900  0.879200  1
  O  O957  1  0.752800  0.207870  0.911340  1
  O  O958  1  0.747200  0.296530  0.088660  1
  O  O959  1  0.247200  0.792130  0.088660  1
  O  O960  1  0.252800  0.703470  0.911340  1
  O  O961  1  0.859200  0.170790  0.937580  1
  O  O962  1  0.640800  0.233210  0.062420  1
  O  O963  1  0.140800  0.829210  0.062420  1
  O  O964  1  0.359200  0.766790  0.937580  1
  O  O965  1  0.474500  0.467890  0.687380  1
  O  O966  1  0.025500  0.780510  0.312620  1
  O  O967  1  0.525500  0.532110  0.312620  1
  O  O968  1  0.974500  0.219490  0.687380  1
  O  O969  1  0.507700  0.583480  0.711760  1
  O  O970  1  0.992300  0.871720  0.288240  1
  O  O971  1  0.492300  0.416520  0.288240  1
  O  O972  1  0.007700  0.128280  0.711760  1
  O  O973  1  0.813600  0.483290  0.392980  1
  O  O974  1  0.686400  0.090310  0.607020  1
  O  O975  1  0.186400  0.516710  0.607020  1
  O  O976  1  0.313600  0.909690  0.392980  1
  O  O977  1  0.903700  0.565150  0.399300  1
  O  O978  1  0.596300  0.165850  0.600700  1
  O  O979  1  0.096300  0.434850  0.600700  1
  O  O980  1  0.403700  0.834150  0.399300  1
  O  O981  1  0.815800  0.354810  0.715220  1
  O  O982  1  0.684200  0.639590  0.284780  1
  O  O983  1  0.184200  0.645190  0.284780  1
  O  O984  1  0.315800  0.360410  0.715220  1
  O  O985  1  0.701500  0.327230  0.681060  1
  O  O986  1  0.798500  0.646170  0.318940  1
  O  O987  1  0.298500  0.672770  0.318940  1
  O  O988  1  0.201500  0.353830  0.681060  1
  O  O989  1  0.716300  0.523150  0.737900  1
  O  O990  1  0.783700  0.785250  0.262100  1
  O  O991  1  0.283700  0.476850  0.262100  1
  O  O992  1  0.216300  0.214750  0.737900  1
  O  O993  1  0.737200  0.611720  0.710440  1
  O  O994  1  0.762800  0.901280  0.289560  1
  O  O995  1  0.262800  0.388280  0.289560  1
  O  O996  1  0.237200  0.098720  0.710440  1
  O  O997  1  0.441400  0.072220  0.612640  1
  O  O998  1  0.058600  0.459580  0.387360  1
  O  O999  1  0.558600  0.927780  0.387360  1
  O  O1000  1  0.941400  0.540420  0.612640  1
  O  O1001  1  0.505100  0.999080  0.638960  1
  O  O1002  1  0.994900  0.360120  0.361040  1
  O  O1003  1  0.494900  0.000920  0.361040  1
  O  O1004  1  0.005100  0.639880  0.638960  1
  O  O1005  1  0.956000  0.439410  0.672820  1
  O  O1006  1  0.544000  0.766590  0.327180  1
  O  O1007  1  0.044000  0.560590  0.327180  1
  O  O1008  1  0.456000  0.233410  0.672820  1
  O  O1009  1  0.840900  0.424240  0.649280  1
  O  O1010  1  0.659100  0.774960  0.350720  1
  O  O1011  1  0.159100  0.575760  0.350720  1
  O  O1012  1  0.340900  0.225040  0.649280  1
  O  O1013  1  0.753300  0.080960  0.913720  1
  O  O1014  1  0.746700  0.167240  0.086280  1
  O  O1015  1  0.246700  0.919040  0.086280  1
  O  O1016  1  0.253300  0.832760  0.913720  1
  O  O1017  1  0.834700  0.153440  0.888280  1
  O  O1018  1  0.665300  0.265160  0.111720  1
  O  O1019  1  0.165300  0.846560  0.111720  1
  O  O1020  1  0.334700  0.734840  0.888280  1
  O  O1021  1  0.738700  0.210200  0.928400  1
  O  O1022  1  0.761300  0.281800  0.071600  1
  O  O1023  1  0.261300  0.789800  0.071600  1
  O  O1024  1  0.238700  0.718200  0.928400  1
  O  O1025  1  0.845000  0.155570  0.947740  1
  O  O1026  1  0.655000  0.207830  0.052260  1
  O  O1027  1  0.155000  0.844430  0.052260  1
  O  O1028  1  0.345000  0.792170  0.947740  1
  O  O1029  1  0.034300  0.653030  0.082060  1.0
  O  O1030  1  0.465700  0.570970  0.917940  1.0
  O  O1031  1  0.965700  0.346970  0.917940  1.0
  O  O1032  1  0.534300  0.429030  0.082060  1.0
  O  O1033  1  0.996800  0.736180  0.046960  1.0
  O  O1034  1  0.503200  0.689220  0.953040  1.0
  O  O1035  1  0.003200  0.263820  0.953040  1.0
  O  O1036  1  0.496800  0.310780  0.046960  1.0
  O  O1037  1  0.988100  0.772390  0.109180  1.0
  O  O1038  1  0.511900  0.663210  0.890820  1.0
  O  O1039  1  0.011900  0.227610  0.890820  1.0
  O  O1040  1  0.488100  0.336790  0.109180  1.0
  O  O1041  1  0.905700  0.682390  0.074980  1.0
  O  O1042  1  0.594300  0.607410  0.925020  1.0
  O  O1043  1  0.094300  0.317610  0.925020  1.0
  O  O1044  1  0.405700  0.392590  0.074980  1.0
  O  O1045  1  0.147100  0.715940  0.144280  1.0
  O  O1046  1  0.352900  0.571660  0.855720  1.0
  O  O1047  1  0.852900  0.284060  0.855720  1.0
  O  O1048  1  0.647100  0.428340  0.144280  1.0
  S  S1049  1  0.562380  0.760516  0.473152  1
  S  S1050  1  0.937620  0.287364  0.526848  1
  S  S1051  1  0.437620  0.239484  0.526848  1
  S  S1052  1  0.062380  0.712636  0.473152  1
  S  S1053  1  0.563870  0.021494  0.841728  1
  S  S1054  1  0.936130  0.179766  0.158272  1
  S  S1055  1  0.436130  0.978506  0.158272  1
  S  S1056  1  0.063870  0.820234  0.841728  1
  S  S1057  1  0.741480  0.649319  0.498498  1
  S  S1058  1  0.758520  0.150821  0.501502  1
  S  S1059  1  0.258520  0.350681  0.501502  1
  S  S1060  1  0.241480  0.849179  0.498498  1
  S  S1061  1  0.744070  0.911314  0.865968  1
  S  S1062  1  0.755930  0.045346  0.134032  1
  S  S1063  1  0.255930  0.088686  0.134032  1
  S  S1064  1  0.244070  0.954654  0.865968  1
  S  S1065  1  0.130090  0.565842  0.188364  1.0
  S  S1066  1  0.369910  0.377478  0.811636  1.0
  S  S1067  1  0.869910  0.434158  0.811636  1.0
  S  S1068  1  0.630090  0.622522  0.188364  1.0
  S  S1069  1  0.949930  0.688755  0.168610  1.0
  S  S1070  1  0.550070  0.520145  0.831390  1.0
  S  S1071  1  0.050070  0.311245  0.831390  1.0
  S  S1072  1  0.449930  0.479855  0.168610  1.0
