
#######################################################################
#
#                 Cambridge Crystallographic Data Centre
#                                CCDC 
#
#######################################################################
#
# If this CIF has been generated from an entry in the Cambridge 
# Structural Database, then it will include bibliographic, chemical, 
# crystal, experimental, refinement or atomic coordinate data resulting 
# from the CCDC's data processing and validation procedures.
#
#######################################################################

data_LIGMUK
_chemical_formula_moiety         'C72 H70 Cd2 N10 O2 S4 4+,4(Cl1 O4 1-)'
_chemical_name_systematic        
"bis(\m~2~-3,3'-bis(3-(2-(methylthio)phenyl)pyrazolylmethyl)biphenyl)-diaqua-bis(acetonitrile)-di-cadmium(ii) tetraperchlorate"
_symmetry_cell_setting           triclinic
_symmetry_space_group_name_H-M   'P -1'
_symmetry_Int_Tables_number      2
_space_group_name_Hall           '-P 1'
loop_
_symmetry_equiv_pos_site_id
_symmetry_equiv_pos_as_xyz
1 x,y,z
2 -x,-y,-z
_cell_length_a                   11.874(3)
_cell_length_b                   12.599(3)
_cell_length_c                   14.684(4)
_cell_angle_alpha                74.058(2)
_cell_angle_beta                 89.679(2)
_cell_angle_gamma                63.440(2)
_cell_volume                     1871.71
_exptl_crystal_colour            colorless
_exptl_crystal_description       rod
_cell_formula_units_Z            1
loop_
_atom_site_label
_atom_site_type_symbol
_atom_site_fract_x
_atom_site_fract_y
_atom_site_fract_z
Cd1 Cd 0.20763(3) 0.63176(3) 0.77370(3)
S1 S 0.20278(13) 0.51877(13) 0.95182(9)
S2 S 0.11368(11) 0.87931(12) 0.76505(9)
N1 N 0.0174(4) 0.6178(4) 0.7677(3)
N2 N -0.0392(3) 0.5987(4) 0.6985(3)
N3 N 0.2207(4) 0.7235(4) 0.5425(3)
N4 N 0.1591(4) 0.7562(4) 0.6162(3)
N5 N 0.3339(4) 0.4371(4) 0.7601(4)
C1 C 0.2064(4) 0.4065(5) 0.5727(3)
H1 H 0.2251 0.4704 0.5367
C2 C 0.2816(4) 0.2848(5) 0.5730(3)
C3 C 0.2537(5) 0.1921(5) 0.6271(4)
H2 H 0.3054 0.1078 0.6293
C4 C 0.1514(5) 0.2221(5) 0.6775(4)
H3 H 0.1323 0.1583 0.7134
C5 C 0.0764(5) 0.3432(5) 0.6768(4)
H4 H 0.0063 0.3626 0.7120
C6 C 0.1036(4) 0.4366(4) 0.6244(3)
C7 C 0.0209(4) 0.5728(4) 0.6143(3)
H5 H 0.0735 0.6164 0.5989
H6 H -0.0467 0.6085 0.5595
C8 C -0.1566(4) 0.6135(5) 0.7153(4)
H7 H -0.2133 0.6042 0.6765
C9 C -0.1786(4) 0.6441(5) 0.7982(4)
H8 H -0.2529 0.6604 0.8285
C10 C -0.0691(4) 0.6465(4) 0.8292(3)
C11 C -0.0531(5) 0.6840(5) 0.9136(4)
C12 C -0.1627(6) 0.7724(6) 0.9358(4)
H9 H -0.2412 0.8053 0.8965
C13 C -0.1605(8) 0.8133(6) 1.0132(5)
H10 H -0.2363 0.8749 1.0260
C14 C -0.0479(9) 0.7645(7) 1.0720(5)
H11 H -0.0463 0.7921 1.1258
C15 C 0.0618(8) 0.6763(7) 1.0533(4)
H12 H 0.1389 0.6427 1.0944
C16 C 0.0609(6) 0.6354(5) 0.9738(4)
C17 C 0.3268(7) 0.5229(8) 1.0192(4)
H13 H 0.3173 0.6078 0.9998
H14 H 0.4100 0.4658 1.0068
H15 H 0.3206 0.4976 1.0876
C18 C 0.3888(4) 0.2549(4) 0.5152(3)
C19 C 0.4676(4) 0.3119(4) 0.5097(3)
H16 H 0.4551 0.3673 0.5459
C20 C 0.5637(4) 0.2886(4) 0.4522(3)
C21 C 0.5837(4) 0.2063(5) 0.4000(4)
H17 H 0.6504 0.1884 0.3615
C22 C 0.5052(4) 0.1507(4) 0.4045(4)
H18 H 0.5172 0.0959 0.3678
C23 C 0.4098(4) 0.1742(5) 0.4618(3)
H19 H 0.3577 0.1343 0.4648
C24 C 0.3587(4) 0.6423(4) 0.5553(4)
H20 H 0.3841 0.5788 0.6189
H21 H 0.3785 0.5982 0.5064
C25 C 0.1443(5) 0.7857(5) 0.4587(3)
H22 H 0.1672 0.7794 0.3976
C26 C 0.0261(4) 0.8605(5) 0.4782(4)
H23 H -0.0489 0.9144 0.4337
C27 C 0.0392(4) 0.8408(4) 0.5772(3)
C28 C -0.0616(4) 0.8987(4) 0.6315(3)
C29 C -0.1864(4) 0.9398(5) 0.5931(4)
H24 H -0.2006 0.9237 0.5358
C30 C -0.2900(5) 1.0027(5) 0.6347(4)
H25 H -0.3736 1.0273 0.6074
C31 C -0.2705(5) 1.0296(5) 0.7166(4)
H26 H -0.3411 1.0747 0.7452
C32 C -0.1477(5) 0.9907(5) 0.7570(4)
H27 H -0.1350 1.0090 0.8136
C33 C -0.0435(4) 0.9256(4) 0.7162(3)
C34 C 0.0931(6) 0.9253(6) 0.8721(4)
H28 H 0.0472 0.8870 0.9129
H29 H 0.1765 0.8977 0.9067
H30 H 0.0443 1.0162 0.8551
C35 C 0.3806(8) 0.3340(9) 0.8017(6)
C36 C 0.4386(9) 0.2022(7) 0.8460(7)
H31 H 0.4281 0.1621 0.8005
H32 H 0.3981 0.1834 0.9023
H33 H 0.5293 0.1708 0.8656
O1 O 0.4023(3) 0.6199(4) 0.8109(3)
Cd1A Cd 0.79237(3) 0.36824(3) 0.22630(3)
S1A S 0.79722(13) 0.48123(13) 0.04818(9)
S2A S 0.88632(11) 0.12069(12) 0.23495(9)
N1A N 0.9826(4) 0.3822(4) 0.2323(3)
N2A N 1.0392(3) 0.4013(4) 0.3015(3)
N3A N 0.7793(4) 0.2765(4) 0.4575(3)
N4A N 0.8409(4) 0.2438(4) 0.3838(3)
N5A N 0.6661(4) 0.5629(4) 0.2399(4)
C1A C 0.7936(4) 0.5935(5) 0.4273(3)
H1A H 0.7749 0.5296 0.4633
C2A C 0.7184(4) 0.7152(5) 0.4270(3)
C3A C 0.7463(5) 0.8079(5) 0.3729(4)
H2A H 0.6946 0.8922 0.3707
C4A C 0.8486(5) 0.7779(5) 0.3225(4)
H3A H 0.8677 0.8417 0.2866
C5A C 0.9236(5) 0.6568(5) 0.3232(4)
H4A H 0.9937 0.6374 0.2880
C6A C 0.8964(4) 0.5634(4) 0.3756(3)
C7A C 0.9791(4) 0.4272(4) 0.3857(3)
H5A H 0.9265 0.3836 0.4011
H6A H 1.0467 0.3915 0.4405
C8A C 1.1566(4) 0.3865(5) 0.2847(4)
H7A H 1.2133 0.3958 0.3235
C9A C 1.1786(4) 0.3559(5) 0.2018(4)
H8A H 1.2529 0.3396 0.1715
C10A C 1.0691(4) 0.3535(4) 0.1708(3)
C11A C 1.0531(5) 0.3160(5) 0.0864(4)
C12A C 1.1627(6) 0.2276(6) 0.0642(4)
H9A H 1.2412 0.1947 0.1035
C13A C 1.1605(8) 0.1867(6) -0.0132(5)
H10A H 1.2363 0.1251 -0.0260
C14A C 1.0479(9) 0.2355(7) -0.0720(5)
H11A H 1.0463 0.2079 -0.1258
C15A C 0.9382(8) 0.3237(7) -0.0533(4)
H12A H 0.8611 0.3573 -0.0944
C16A C 0.9391(6) 0.3646(5) 0.0262(4)
C17A C 0.6732(7) 0.4771(8) -0.0192(4)
H13A H 0.6827 0.3922 0.0002
H14A H 0.5900 0.5342 -0.0068
H15A H 0.6794 0.5024 -0.0876
C18A C 0.6112(4) 0.7451(4) 0.4848(3)
C19A C 0.5324(4) 0.6881(4) 0.4903(3)
H16A H 0.5449 0.6327 0.4541
C20A C 0.4363(4) 0.7114(4) 0.5478(3)
C21A C 0.4163(4) 0.7937(5) 0.6000(4)
H17A H 0.3496 0.8116 0.6385
C22A C 0.4948(4) 0.8493(4) 0.5955(4)
H18A H 0.4828 0.9041 0.6322
C23A C 0.5902(4) 0.8258(5) 0.5382(3)
H19A H 0.6423 0.8657 0.5352
C24A C 0.6413(4) 0.3577(4) 0.4447(4)
H20A H 0.6159 0.4212 0.3811
H21A H 0.6215 0.4018 0.4936
C25A C 0.8557(5) 0.2143(5) 0.5413(3)
H22A H 0.8328 0.2206 0.6024
C26A C 0.9739(4) 0.1395(5) 0.5218(4)
H23A H 1.0489 0.0856 0.5663
C27A C 0.9608(4) 0.1592(4) 0.4228(3)
C28A C 1.0616(4) 0.1013(4) 0.3685(3)
C29A C 1.1864(4) 0.0602(5) 0.4069(4)
H24A H 1.2006 0.0763 0.4642
C30A C 1.2900(5) -0.0027(5) 0.3653(4)
H25A H 1.3736 -0.0273 0.3926
C31A C 1.2705(5) -0.0296(5) 0.2834(4)
H26A H 1.3411 -0.0747 0.2548
C32A C 1.1477(5) 0.0093(5) 0.2430(4)
H27A H 1.1350 -0.0090 0.1864
C33A C 1.0435(4) 0.0744(4) 0.2838(3)
C34A C 0.9069(6) 0.0747(6) 0.1279(4)
H28A H 0.9528 0.1130 0.0871
H29A H 0.8235 0.1023 0.0933
H30A H 0.9557 -0.0162 0.1449
C35A C 0.6194(8) 0.6660(9) 0.1983(6)
C36A C 0.5614(9) 0.7978(7) 0.1540(7)
H31A H 0.5719 0.8379 0.1995
H32A H 0.6019 0.8166 0.0977
H33A H 0.4707 0.8292 0.1344
O1A O 0.5977(3) 0.3801(4) 0.1891(3)
Cl1 Cl 0.6852(3) 0.3603(4) 0.7473(3)
O2 O 0.6793(8) 0.2824(8) 0.8354(5)
O3 O 0.6088(5) 0.3606(5) 0.6739(3)
O4 O 0.6358(4) 0.4850(5) 0.7543(4)
O5 O 0.8128(5) 0.3046(8) 0.7442(7)
Cl2 Cl 0.45448(13) 0.87742(14) 0.86680(12)
O6 O 0.3835(5) 0.8490(6) 0.8075(4)
O7 O 0.3744(6) 0.9536(7) 0.9152(6)
O8 O 0.5172(5) 0.9391(6) 0.8034(4)
O9 O 0.5516(6) 0.7653(6) 0.9283(5)
Cl3? Cl 0.6949(5) 0.3911(6) 0.7144(5)
O10? O 0.7466(13) 0.4384(13) 0.6346(9)
loop_
_geom_bond_atom_site_label_1
_geom_bond_atom_site_label_2
_geom_bond_site_symmetry_1
_geom_bond_site_symmetry_2
Cd1 S1 1_555 1_555
S1 C16 1_555 1_555
S2 Cd1 1_555 1_555
N1 Cd1 1_555 1_555
N2 N1 1_555 1_555
N3 N4 1_555 1_555
N4 Cd1 1_555 1_555
N5 Cd1 1_555 1_555
C1 H1 1_555 1_555
C2 C1 1_555 1_555
C3 C2 1_555 1_555
H2 C3 1_555 1_555
C4 C3 1_555 1_555
H3 C4 1_555 1_555
C5 C4 1_555 1_555
H4 C5 1_555 1_555
C6 C1 1_555 1_555
C7 N2 1_555 1_555
H5 C7 1_555 1_555
H6 C7 1_555 1_555
C8 N2 1_555 1_555
H7 C8 1_555 1_555
C9 C8 1_555 1_555
H8 C9 1_555 1_555
C10 N1 1_555 1_555
C11 C10 1_555 1_555
C12 C11 1_555 1_555
H9 C12 1_555 1_555
C13 C12 1_555 1_555
H10 C13 1_555 1_555
C14 C13 1_555 1_555
H11 C14 1_555 1_555
C15 C14 1_555 1_555
H12 C15 1_555 1_555
C16 C11 1_555 1_555
C17 S1 1_555 1_555
H13 C17 1_555 1_555
H14 C17 1_555 1_555
H15 C17 1_555 1_555
C18 C2 1_555 1_555
C19 C18 1_555 1_555
H16 C19 1_555 1_555
C20 C19 1_555 1_555
C21 C20 1_555 1_555
H17 C21 1_555 1_555
C22 C21 1_555 1_555
H18 C22 1_555 1_555
C23 C18 1_555 1_555
H19 C23 1_555 1_555
C24 N3 1_555 1_555
H20 C24 1_555 1_555
H21 C24 1_555 1_555
C25 N3 1_555 1_555
H22 C25 1_555 1_555
C26 C25 1_555 1_555
H23 C26 1_555 1_555
C27 N4 1_555 1_555
C28 C27 1_555 1_555
C29 C28 1_555 1_555
H24 C29 1_555 1_555
C30 C29 1_555 1_555
H25 C30 1_555 1_555
C31 C30 1_555 1_555
H26 C31 1_555 1_555
C32 C31 1_555 1_555
H27 C32 1_555 1_555
C33 S2 1_555 1_555
C34 S2 1_555 1_555
H28 C34 1_555 1_555
H29 C34 1_555 1_555
H30 C34 1_555 1_555
C35 N5 1_555 1_555
C36 C35 1_555 1_555
H31 C36 1_555 1_555
H32 C36 1_555 1_555
H33 C36 1_555 1_555
O1 Cd1 1_555 1_555
Cl1 O2 1_555 1_555
O3 Cl1 1_555 1_555
O4 Cl1 1_555 1_555
O5 Cl1 1_555 1_555
Cl2 O6 1_555 1_555
O7 Cl2 1_555 1_555
O8 Cl2 1_555 1_555
O9 Cl2 1_555 1_555
Cd1A S1A 1_555 1_555
S1A C16A 1_555 1_555
S2A Cd1A 1_555 1_555
N1A Cd1A 1_555 1_555
N2A N1A 1_555 1_555
N3A N4A 1_555 1_555
N4A Cd1A 1_555 1_555
N5A Cd1A 1_555 1_555
C1A H1A 1_555 1_555
C2A C1A 1_555 1_555
C3A C2A 1_555 1_555
H2A C3A 1_555 1_555
C4A C3A 1_555 1_555
H3A C4A 1_555 1_555
C5A C4A 1_555 1_555
H4A C5A 1_555 1_555
C6A C1A 1_555 1_555
C7A N2A 1_555 1_555
H5A C7A 1_555 1_555
H6A C7A 1_555 1_555
C8A N2A 1_555 1_555
H7A C8A 1_555 1_555
C9A C8A 1_555 1_555
H8A C9A 1_555 1_555
C10A N1A 1_555 1_555
C11A C10A 1_555 1_555
C12A C11A 1_555 1_555
H9A C12A 1_555 1_555
C13A C12A 1_555 1_555
H10A C13A 1_555 1_555
C14A C13A 1_555 1_555
H11A C14A 1_555 1_555
C15A C14A 1_555 1_555
H12A C15A 1_555 1_555
C16A C11A 1_555 1_555
C17A S1A 1_555 1_555
H13A C17A 1_555 1_555
H14A C17A 1_555 1_555
H15A C17A 1_555 1_555
C18A C2A 1_555 1_555
C19A C18A 1_555 1_555
H16A C19A 1_555 1_555
C20A C24 1_555 1_555
C21A C20A 1_555 1_555
H17A C21A 1_555 1_555
C22A C21A 1_555 1_555
H18A C22A 1_555 1_555
C23A C18A 1_555 1_555
H19A C23A 1_555 1_555
C24A C20 1_555 1_555
H20A C24A 1_555 1_555
H21A C24A 1_555 1_555
C25A N3A 1_555 1_555
H22A C25A 1_555 1_555
C26A C25A 1_555 1_555
H23A C26A 1_555 1_555
C27A N4A 1_555 1_555
C28A C27A 1_555 1_555
C29A C28A 1_555 1_555
H24A C29A 1_555 1_555
C30A C29A 1_555 1_555
H25A C30A 1_555 1_555
C31A C30A 1_555 1_555
H26A C31A 1_555 1_555
C32A C31A 1_555 1_555
H27A C32A 1_555 1_555
C33A S2A 1_555 1_555
C34A S2A 1_555 1_555
H28A C34A 1_555 1_555
H29A C34A 1_555 1_555
H30A C34A 1_555 1_555
C35A N5A 1_555 1_555
C36A C35A 1_555 1_555
H31A C36A 1_555 1_555
H32A C36A 1_555 1_555
H33A C36A 1_555 1_555
O1A Cd1A 1_555 1_555
C5 C6 1_555 1_555
C6 C7 1_555 1_555
C9 C10 1_555 1_555
C15 C16 1_555 1_555
C22 C23 1_555 1_555
C26 C27 1_555 1_555
C28 C33 1_555 1_555
C32 C33 1_555 1_555
N3A C24A 1_555 1_555
C5A C6A 1_555 1_555
C6A C7A 1_555 1_555
C9A C10A 1_555 1_555
C15A C16A 1_555 1_555
C19A C20A 1_555 1_555
C22A C23A 1_555 1_555
C26A C27A 1_555 1_555
C28A C33A 1_555 1_555
C32A C33A 1_555 1_555

#END
