
#######################################################################
#
#                 Cambridge Crystallographic Data Centre
#                                CCDC 
#
#######################################################################
#
# If this CIF has been generated from an entry in the Cambridge 
# Structural Database, then it will include bibliographic, chemical, 
# crystal, experimental, refinement or atomic coordinate data resulting 
# from the CCDC's data processing and validation procedures.
#
#######################################################################

data_LIGMIY
_chemical_formula_moiety         
'C56 H56 Cd2 Cl2 N8 O10 S4 2+,2(Cl1 O4 1-),4(C1 H3 N1 O2)'
_chemical_name_systematic        
'bis(\m~2~-1,4-bis(3-(2-(methylthio)phenyl)pyrazolylmethyl)benzene)-diaqua-bis(perchlorato)-di-cadmium(ii) diperchlorate nitromethane solvate'
_symmetry_cell_setting           monoclinic
_symmetry_space_group_name_H-M   'C 2/c'
_symmetry_Int_Tables_number      15
_space_group_name_Hall           '-C 2yn'
loop_
_symmetry_equiv_pos_site_id
_symmetry_equiv_pos_as_xyz
1 x,y,z
2 1/2+x,1/2+y,z
3 -x,y,1/2-z
4 1/2-x,1/2+y,1/2-z
5 -x,-y,-z
6 1/2-x,1/2-y,-z
7 x,-y,1/2+z
8 1/2+x,1/2-y,1/2+z
_cell_length_a                   75.521(4)
_cell_length_b                   18.1666(9)
_cell_length_c                   17.5515(9)
_cell_angle_alpha                90
_cell_angle_beta                 91.682(2)
_cell_angle_gamma                90
_cell_volume                     24069.6
_exptl_crystal_colour            colorless
_exptl_crystal_description       block
_cell_formula_units_Z            12
loop_
_atom_site_label
_atom_site_type_symbol
_atom_site_fract_x
_atom_site_fract_y
_atom_site_fract_z
Cd1 Cd 0.235255(4) 1.051325(18) 0.383323(18)
Cd2 Cd 0.095415(5) 0.948138(19) 0.31276(2)
S1 S 0.263424(15) 0.97606(6) 0.43762(7)
S2 S 0.079136(17) 0.89937(7) 0.43613(8)
S3 S 0.250751(16) 1.09993(6) 0.25852(6)
S4 S 0.067016(18) 1.02167(8) 0.25593(9)
Cl1 Cl 0.207495(15) 1.17645(6) 0.29346(6)
Cl2 Cl 0.122877(17) 0.82069(7) 0.40236(7)
O1 O 0.21052(5) 1.1270(2) 0.3589(2)
O2 O 0.22290(5) 1.2209(2) 0.2852(2)
O3 O 0.20453(5) 1.1320(2) 0.2275(2)
O4 O 0.19239(5) 1.2204(2) 0.3075(2)
O5 O 0.12038(5) 0.8731(2) 0.3395(2)
O6 O 0.10701(5) 0.7785(2) 0.4076(3)
O7 O 0.13755(5) 0.7749(2) 0.3860(2)
O8 O 0.12603(6) 0.8605(3) 0.4708(2)
O13 O 0.24181(5) 1.15031(19) 0.4616(2)
H1 H 0.2521 1.1670 0.4717
H2 H 0.2363 1.1909 0.4564
O14 O 0.08940(6) 0.8495(2) 0.2355(2)
H3 H 0.0985 0.8231 0.2453
H4 H 0.0790 0.8401 0.2190
N1 N 0.22123(5) 0.9892(2) 0.4801(2)
N2 N 0.21154(5) 1.0167(2) 0.5382(2)
N3 N 0.11810(5) 1.0689(2) 0.4191(2)
N4 N 0.10231(5) 1.0336(2) 0.4089(2)
N5 N 0.22822(5) 0.9641(2) 0.2879(2)
N6 N 0.21263(5) 0.9273(2) 0.2800(2)
N7 N 0.11953(6) 0.9852(2) 0.1606(2)
N8 N 0.10933(5) 1.0115(2) 0.2165(2)
C1 C 0.18356(6) 1.0737(3) 0.4883(3)
C2 C 0.17440(7) 1.0071(3) 0.4897(3)
H7 H 0.1794 0.9663 0.5164
C3 C 0.15805(7) 0.9999(3) 0.4524(3)
H8 H 0.1519 0.9543 0.4537
C4 C 0.15066(6) 1.0596(3) 0.4130(3)
C5 C 0.15990(7) 1.1254(3) 0.4111(3)
H9 H 0.1550 1.1658 0.3833
C6 C 0.17612(6) 1.1330(3) 0.4492(3)
H10 H 0.1822 1.1788 0.4484
C7 C 0.20135(6) 1.0847(3) 0.5293(3)
H11 H 0.2084 1.1206 0.5004
H12 H 0.1994 1.1058 0.5803
C8 C 0.21009(7) 0.9670(3) 0.5945(3)
H13 H 0.2039 0.9738 0.6404
C9 C 0.21899(7) 0.9052(3) 0.5742(3)
H14 H 0.2203 0.8610 0.6027
C10 C 0.22583(6) 0.9203(3) 0.5029(3)
C11 C 0.23673(6) 0.8697(3) 0.4568(3)
C12 C 0.23006(7) 0.7990(3) 0.4441(3)
H15 H 0.2189 0.7858 0.4642
C13 C 0.23934(7) 0.7476(3) 0.4030(3)
H16 H 0.2346 0.6998 0.3948
C14 C 0.25554(7) 0.7660(3) 0.3737(3)
H17 H 0.2618 0.7312 0.3445
C15 C 0.26274(7) 0.8356(3) 0.3871(3)
H18 H 0.2740 0.8478 0.3681
C16 C 0.25332(6) 0.8872(3) 0.4284(2)
C17 C 0.26455(7) 0.9904(3) 0.5401(3)
H19 H 0.2525 0.9909 0.5597
H20 H 0.2703 1.0376 0.5513
H21 H 0.2714 0.9505 0.5644
C18 C 0.13310(7) 1.0516(3) 0.3700(3)
H22 H 0.1328 1.0850 0.3255
H23 H 0.1319 1.0005 0.3509
C19 C 0.11716(7) 1.1206(3) 0.4733(3)
H24 H 0.1265 1.1526 0.4897
C20 C 0.10041(7) 1.1191(3) 0.5007(3)
H25 H 0.0959 1.1491 0.5400
C21 C 0.09125(6) 1.0646(3) 0.4591(3)
C22 C 0.07227(7) 1.0462(3) 0.4640(3)
C23 C 0.06103(7) 1.1038(3) 0.4821(3)
H26 H 0.0659 1.1513 0.4913
C24 C 0.04292(8) 1.0941(4) 0.4872(4)
H27 H 0.0355 1.1339 0.5008
C25 C 0.03580(8) 1.0251(4) 0.4721(5)
H28 H 0.0234 1.0181 0.4738
C26 C 0.04662(8) 0.9665(4) 0.4544(5)
H29 H 0.0415 0.9195 0.4446
C27 C 0.06484(7) 0.9758(3) 0.4510(3)
C28 C 0.06431(8) 0.8267(3) 0.4052(4)
H30 H 0.0571 0.8112 0.4479
H31 H 0.0712 0.7847 0.3874
H32 H 0.0565 0.8447 0.3635
C29 C 0.18018(6) 0.9372(3) 0.2868(3)
C30 C 0.17081(7) 0.8714(3) 0.2869(3)
H33 H 0.1756 0.8301 0.3135
C31 C 0.15456(7) 0.8657(3) 0.2487(3)
H34 H 0.1483 0.8203 0.2488
C32 C 0.14730(6) 0.9260(3) 0.2099(3)
C33 C 0.15669(7) 0.9915(3) 0.2109(3)
H35 H 0.1519 1.0332 0.1848
C34 C 0.17283(7) 0.9974(3) 0.2488(3)
H36 H 0.1790 1.0430 0.2491
C35 C 0.19762(6) 0.9432(3) 0.3300(3)
H37 H 0.1989 0.9935 0.3511
H38 H 0.1978 0.9080 0.3731
C36 C 0.21358(7) 0.8745(3) 0.2267(3)
H39 H 0.2044 0.8409 0.2124
C37 C 0.23014(7) 0.8777(3) 0.1968(3)
H40 H 0.2346 0.8481 0.1570
C38 C 0.23909(6) 0.9337(3) 0.2369(3)
C39 C 0.25795(6) 0.9537(3) 0.2299(2)
C40 C 0.26945(7) 0.8973(3) 0.2095(3)
H41 H 0.2647 0.8494 0.2005
C41 C 0.28739(7) 0.9085(3) 0.2020(3)
H42 H 0.2948 0.8691 0.1875
C42 C 0.29439(7) 0.9775(3) 0.2158(3)
H43 H 0.3067 0.9856 0.2116
C43 C 0.28338(7) 1.0351(3) 0.2358(3)
H44 H 0.2883 1.0824 0.2454
C44 C 0.26517(6) 1.0244(3) 0.2421(3)
C45 C 0.26535(7) 1.1741(3) 0.2885(3)
H45 H 0.2734 1.1566 0.3293
H46 H 0.2583 1.2151 0.3074
H47 H 0.2722 1.1906 0.2452
C46 C 0.12938(7) 0.9166(3) 0.1696(3)
H48 H 0.1312 0.8950 0.1186
H49 H 0.1222 0.8814 0.1989
C47 C 0.12155(8) 1.0359(3) 0.1057(3)
H50 H 0.1281 1.0299 0.0608
C48 C 0.11238(8) 1.0980(3) 0.1262(3)
H51 H 0.1114 1.1432 0.0991
C49 C 0.10476(7) 1.0804(3) 0.1956(3)
C50 C 0.09332(7) 1.1297(3) 0.2397(3)
C51 C 0.09953(8) 1.2013(3) 0.2522(3)
H52 H 0.1108 1.2153 0.2338
C52 C 0.08953(9) 1.2522(3) 0.2910(3)
H53 H 0.0940 1.3006 0.2995
C53 C 0.07329(9) 1.2331(3) 0.3173(3)
H54 H 0.0666 1.2681 0.3444
C54 C 0.06664(8) 1.1634(3) 0.3047(3)
H55 H 0.0552 1.1508 0.3222
C55 C 0.07660(7) 1.1110(3) 0.2662(3)
C56 C 0.06679(9) 1.0071(4) 0.1534(4)
H56 H 0.0603 1.0474 0.1278
H57 H 0.0609 0.9602 0.1412
H58 H 0.0790 1.0057 0.1358
Cd3 Cd 0.933330(5) 0.453492(19) 0.93360(2)
S5 S 0.905818(17) 0.52834(8) 0.86991(7)
S6 S 0.915695(17) 0.39555(7) 1.05007(7)
Cl3 Cl 0.960910(18) 0.32703(8) 1.01933(8)
O9 O 0.95897(5) 0.3880(2) 0.9657(2)
O10 O 0.97652(7) 0.2873(3) 1.0032(3)
O11 O 0.94541(6) 0.2822(3) 1.0119(3)
O12 O 0.96251(9) 0.3551(3) 1.0943(3)
O15 O 0.92786(6) 0.3562(2) 0.8529(2)
H5 H 0.9169 0.3504 0.8413
H6 H 0.9347 0.3201 0.8633
N9 N 0.95957(6) 0.4912(3) 0.7858(2)
N10 N 0.94857(5) 0.5169(2) 0.8406(2)
N11 N 0.95076(5) 0.5788(2) 1.0556(2)
N12 N 0.93612(5) 0.5389(2) 1.0344(2)
C57 C 0.98586(6) 0.4262(3) 0.8421(3)
C58 C 0.99303(7) 0.4921(3) 0.8674(3)
H59 H 0.9875 0.5373 0.8530
C59 C 1.00833(6) 0.4924(3) 0.9141(3)
H60 H 1.0131 0.5378 0.9316
C60 C 1.01658(6) 0.4268(3) 0.9353(3)
C61 C 1.00938(7) 0.3609(3) 0.9085(3)
H61 H 1.0149 0.3156 0.9221
C62 C 0.99427(7) 0.3604(3) 0.8624(3)
H62 H 0.9896 0.3150 0.8443
C63 C 0.96899(7) 0.4219(3) 0.7936(3)
H63 H 0.9720 0.4041 0.7421
H64 H 0.9610 0.3851 0.8162
C64 C 0.96241(8) 0.5431(4) 0.7335(3)
H65 H 0.9697 0.5383 0.6908
C65 C 0.95293(8) 0.6043(4) 0.7523(3)
H66 H 0.9523 0.6498 0.7257
C66 C 0.94441(7) 0.5855(3) 0.8188(3)
C67 C 0.93273(7) 0.6358(3) 0.8607(3)
C68 C 0.93877(8) 0.7070(3) 0.8737(3)
H67 H 0.9501 0.7210 0.8563
C69 C 0.92860(10) 0.7577(3) 0.9116(4)
H68 H 0.9331 0.8059 0.9208
C70 C 0.91208(9) 0.7388(3) 0.9361(3)
H69 H 0.9052 0.7736 0.9630
C71 C 0.90545(8) 0.6692(3) 0.9214(3)
H70 H 0.8939 0.6567 0.9370
C72 C 0.91555(7) 0.6171(3) 0.8837(3)
C73 C 0.90626(8) 0.5160(3) 0.7674(3)
H71 H 0.8995 0.5556 0.7421
H72 H 0.9010 0.4684 0.7537
H73 H 0.9185 0.5173 0.7510
C74 C 0.96710(7) 0.5728(3) 1.0124(3)
H74 H 0.9677 0.6145 0.9763
H75 H 0.9668 0.5266 0.9824
C75 C 0.94720(7) 0.6261(3) 1.1118(3)
H76 H 0.9553 0.6600 1.1350
C76 C 0.92982(7) 0.6169(3) 1.1300(3)
H77 H 0.9235 0.6422 1.1681
C77 C 0.92327(7) 0.5625(3) 1.0807(3)
C78 C 0.90463(6) 0.5376(3) 1.0746(3)
C79 C 0.89165(7) 0.5905(3) 1.0870(3)
H78 H 0.8951 0.6393 1.0999
C80 C 0.87385(7) 0.5736(3) 1.0808(3)
H79 H 0.8652 0.6105 1.0895
C81 C 0.86864(8) 0.5031(3) 1.0621(3)
H80 H 0.8564 0.4916 1.0567
C82 C 0.88118(7) 0.4487(3) 1.0512(3)
H81 H 0.8775 0.3999 1.0395
C83 C 0.89912(7) 0.4653(3) 1.0571(3)
C84 C 0.90332(8) 0.3148(3) 1.0204(3)
H82 H 0.8953 0.3005 1.0607
H83 H 0.9115 0.2744 1.0108
H84 H 0.8964 0.3259 0.9737
Cd3D Cd 1.066670(5) 0.546508(19) 1.06640(2)
S5D S 1.094182(17) 0.47166(8) 1.13009(7)
S6D S 1.084305(17) 0.60445(7) 0.94993(7)
Cl3D Cl 1.039090(18) 0.67297(8) 0.98067(8)
O9D O 1.04103(5) 0.6120(2) 1.0343(2)
O10D O 1.02348(7) 0.7127(3) 0.9968(3)
O11D O 1.05459(6) 0.7178(3) 0.9881(3)
O12D O 1.03749(9) 0.6449(3) 0.9057(3)
O15D O 1.07214(6) 0.6438(2) 1.1471(2)
H5D H 1.0831 0.6496 1.1587
H6D H 1.0653 0.6799 1.1367
N9D N 1.04043(6) 0.5088(3) 1.2142(2)
N10D N 1.05143(5) 0.4831(2) 1.1594(2)
N11D N 1.04924(5) 0.4212(2) 0.9444(2)
N12D N 1.06388(5) 0.4611(2) 0.9656(2)
C57D C 1.01414(6) 0.5738(3) 1.1579(3)
C58D C 1.00697(7) 0.5079(3) 1.1326(3)
H59D H 1.0125 0.4627 1.1470
C59D C 0.99167(6) 0.5076(3) 1.0859(3)
H60D H 0.9869 0.4622 1.0684
C60D C 0.98342(6) 0.5732(3) 1.0647(3)
C61D C 0.99062(7) 0.6391(3) 1.0915(3)
H61D H 0.9851 0.6844 1.0779
C62D C 1.00573(7) 0.6396(3) 1.1376(3)
H62D H 1.0104 0.6850 1.1557
C63D C 1.03101(7) 0.5781(3) 1.2064(3)
H63D H 1.0280 0.5959 1.2579
H64D H 1.0390 0.6149 1.1838
C64D C 1.03759(8) 0.4569(4) 1.2665(3)
H65D H 1.0303 0.4617 1.3092
C65D C 1.04707(8) 0.3957(4) 1.2477(3)
H66D H 1.0477 0.3502 1.2743
C66D C 1.05559(7) 0.4145(3) 1.1812(3)
C67D C 1.06727(7) 0.3642(3) 1.1393(3)
C68D C 1.06123(8) 0.2930(3) 1.1263(3)
H67D H 1.0499 0.2790 1.1437
C69D C 1.07140(10) 0.2423(3) 1.0884(4)
H68D H 1.0669 0.1941 1.0792
C70D C 1.08792(9) 0.2612(3) 1.0639(3)
H69D H 1.0948 0.2264 1.0370
C71D C 1.09455(8) 0.3308(3) 1.0786(3)
H70D H 1.1061 0.3433 1.0630
C72D C 1.08445(7) 0.3829(3) 1.1163(3)
C73D C 1.09374(8) 0.4840(3) 1.2326(3)
H71D H 1.1005 0.4444 1.2579
H72D H 1.0990 0.5316 1.2463
H73D H 1.0815 0.4827 1.2490
C74D C 1.03290(7) 0.4272(3) 0.9876(3)
H74D H 1.0323 0.3855 1.0237
H75D H 1.0332 0.4734 1.0176
C75D C 1.05280(7) 0.3739(3) 0.8882(3)
H76D H 1.0447 0.3400 0.8650
C76D C 1.07018(7) 0.3831(3) 0.8700(3)
H77D H 1.0765 0.3578 0.8319
C77D C 1.07673(7) 0.4375(3) 0.9193(3)
C78D C 1.09537(6) 0.4624(3) 0.9254(3)
C79D C 1.10835(7) 0.4095(3) 0.9130(3)
H78D H 1.1049 0.3607 0.9001
C80D C 1.12615(7) 0.4264(3) 0.9192(3)
H79D H 1.1348 0.3895 0.9105
C81D C 1.13136(8) 0.4969(3) 0.9379(3)
H80D H 1.1436 0.5084 0.9433
C82D C 1.11882(7) 0.5513(3) 0.9488(3)
H81D H 1.1225 0.6001 0.9605
C83D C 1.10088(7) 0.5347(3) 0.9429(3)
C84D C 1.09668(8) 0.6852(3) 0.9796(3)
H82D H 1.1047 0.6995 0.9393
H83D H 1.0885 0.7256 0.9892
H84D H 1.1036 0.6741 1.0263
Cl4 Cl 0.289314(16) 0.18999(7) 0.48741(7)
O16 O 0.30464(5) 0.1877(2) 0.5364(2)
O17 O 0.27368(5) 0.2056(2) 0.5318(2)
O18 O 0.28666(6) 0.1199(2) 0.4505(2)
O19 O 0.29107(5) 0.2468(2) 0.4309(2)
Cl5 Cl 0.117781(18) 0.31288(7) 0.69398(8)
O20 O 0.11266(6) 0.3744(2) 0.6472(3)
O21 O 0.12097(6) 0.2509(2) 0.6457(3)
O22 O 0.10307(8) 0.2959(3) 0.7425(3)
O23 O 0.13309(7) 0.3306(3) 0.7382(3)
Cl6 Cl 0.04253(4) 0.80545(13) 0.20343(16)
O24 O 0.04697(16) 0.8718(5) 0.2279(7)
O25 O 0.06040(17) 0.7973(8) 0.1541(8)
O26 O 0.04433(19) 0.7478(6) 0.2472(6)
O27 O 0.03121(19) 0.7980(8) 0.1408(7)
C85 C 0.16387(9) 0.2744(4) 0.5985(4)
H85 H 0.1751 0.2551 0.5800
H86 H 0.1569 0.2339 0.6189
H87 H 0.1663 0.3107 0.6387
N13 N 0.15386(7) 0.3097(3) 0.5349(3)
O32 O 0.15631(7) 0.3758(3) 0.5255(3)
O33 O 0.14412(6) 0.2724(3) 0.4923(3)
C86 C 0.32887(8) 0.1732(4) 0.1284(4)
H88 H 0.3322 0.1296 0.0991
H89 H 0.3349 0.1718 0.1786
H90 H 0.3324 0.2177 0.1012
N14 N 0.30953(7) 0.1736(3) 0.1376(3)
O34 O 0.30351(6) 0.2132(3) 0.1864(3)
O35 O 0.30035(6) 0.1345(3) 0.0963(3)
C87 C 0.16867(7) 0.5721(3) 0.2018(4)
H91 H 0.1649 0.5806 0.1487
H92 H 0.1804 0.5487 0.2034
H93 H 0.1693 0.6192 0.2290
N15 N 0.15828(8) 0.5328(3) 0.2317(4)
O36 O 0.14239(11) 0.5028(6) 0.1842(7)
O37 O 0.15947(7) 0.5133(3) 0.2985(3)
C88 C 0.16001(9) 0.3357(4) 0.3292(4)
H94 H 0.1667 0.3657 0.2935
H95 H 0.1674 0.2946 0.3474
H96 H 0.1566 0.3660 0.3726
N16 N 0.14394(8) 0.3066(3) 0.2902(4)
O38 O 0.13105(8) 0.3458(3) 0.2837(5)
O39 O 0.14478(8) 0.2435(3) 0.2628(4)
C89 C 0.16945(12) 0.7884(5) 0.6141(5)
H97 H 0.1634 0.7413 0.6218
H98 H 0.1607 0.8265 0.6013
H99 H 0.1760 0.8022 0.6610
N17 N 0.18191(9) 0.7811(4) 0.5513(4)
O40 O 0.19368(9) 0.7341(3) 0.5586(4)
O41 O 0.18052(9) 0.8204(4) 0.4949(4)
N18 N 0.17481(8) 0.4195(4) 0.0903(4)
C90 C 0.18763(10) 0.4743(5) 0.0620(5)
H100 H 0.1904 0.4628 0.0091
H101 H 0.1985 0.4727 0.0937
H102 H 0.1824 0.5236 0.0644
O42 O 0.16359(7) 0.3970(3) 0.0440(3)
O43 O 0.17536(9) 0.4004(3) 0.1591(3)
O28? O 0.04314(17) 0.8759(5) 0.2467(7)
O29? O 0.05586(16) 0.7907(7) 0.1653(7)
O30? O 0.0358(2) 0.7540(6) 0.2613(7)
O31? O 0.02613(16) 0.8183(8) 0.1550(7)
loop_
_geom_bond_atom_site_label_1
_geom_bond_atom_site_label_2
_geom_bond_site_symmetry_1
_geom_bond_site_symmetry_2
Cd1 S1 1_555 1_555
Cd2 S2 1_555 1_555
Cd3 S5 1_555 1_555
S1 C16 1_555 1_555
S2 C27 1_555 1_555
S3 Cd1 1_555 1_555
S4 Cd2 1_555 1_555
S5 C72 1_555 1_555
S6 Cd3 1_555 1_555
Cl1 O1 1_555 1_555
Cl2 O5 1_555 1_555
Cl3 O9 1_555 1_555
O1 Cd1 1_555 1_555
O2 Cl1 1_555 1_555
O3 Cl1 1_555 1_555
O4 Cl1 1_555 1_555
O5 Cd2 1_555 1_555
O6 Cl2 1_555 1_555
O7 Cl2 1_555 1_555
O8 Cl2 1_555 1_555
O9 Cd3 1_555 1_555
O10 Cl3 1_555 1_555
O11 Cl3 1_555 1_555
O12 Cl3 1_555 1_555
O13 Cd1 1_555 1_555
H1 O13 1_555 1_555
H2 O13 1_555 1_555
O14 Cd2 1_555 1_555
H3 O14 1_555 1_555
H4 O14 1_555 1_555
O15 Cd3 1_555 1_555
H5 O15 1_555 1_555
H6 O15 1_555 1_555
N1 Cd1 1_555 1_555
N2 N1 1_555 1_555
N3 N4 1_555 1_555
N4 Cd2 1_555 1_555
N5 Cd1 1_555 1_555
N6 N5 1_555 1_555
N7 N8 1_555 1_555
N8 Cd2 1_555 1_555
N9 N10 1_555 1_555
N10 Cd3 1_555 1_555
N11 N12 1_555 1_555
N12 Cd3 1_555 1_555
C1 C2 1_555 1_555
C2 H7 1_555 1_555
C3 C2 1_555 1_555
H8 C3 1_555 1_555
C4 C3 1_555 1_555
C5 C4 1_555 1_555
H9 C5 1_555 1_555
C6 C1 1_555 1_555
H10 C6 1_555 1_555
C7 N2 1_555 1_555
H11 C7 1_555 1_555
H12 C7 1_555 1_555
C8 N2 1_555 1_555
H13 C8 1_555 1_555
C9 C8 1_555 1_555
H14 C9 1_555 1_555
C10 N1 1_555 1_555
C11 C10 1_555 1_555
C12 C11 1_555 1_555
H15 C12 1_555 1_555
C13 C12 1_555 1_555
H16 C13 1_555 1_555
C14 C13 1_555 1_555
H17 C14 1_555 1_555
C15 C14 1_555 1_555
H18 C15 1_555 1_555
C16 C11 1_555 1_555
C17 S1 1_555 1_555
H19 C17 1_555 1_555
H20 C17 1_555 1_555
H21 C17 1_555 1_555
C18 N3 1_555 1_555
H22 C18 1_555 1_555
H23 C18 1_555 1_555
C19 N3 1_555 1_555
H24 C19 1_555 1_555
C20 C19 1_555 1_555
H25 C20 1_555 1_555
C21 N4 1_555 1_555
C22 C21 1_555 1_555
C23 C22 1_555 1_555
H26 C23 1_555 1_555
C24 C23 1_555 1_555
H27 C24 1_555 1_555
C25 C24 1_555 1_555
H28 C25 1_555 1_555
C26 C25 1_555 1_555
H29 C26 1_555 1_555
C27 C22 1_555 1_555
C28 S2 1_555 1_555
H30 C28 1_555 1_555
H31 C28 1_555 1_555
H32 C28 1_555 1_555
C29 C30 1_555 1_555
C30 H33 1_555 1_555
C31 C30 1_555 1_555
H34 C31 1_555 1_555
C32 C31 1_555 1_555
C33 C32 1_555 1_555
H35 C33 1_555 1_555
C34 C29 1_555 1_555
H36 C34 1_555 1_555
C35 N6 1_555 1_555
H37 C35 1_555 1_555
H38 C35 1_555 1_555
C36 N6 1_555 1_555
H39 C36 1_555 1_555
C37 C36 1_555 1_555
H40 C37 1_555 1_555
C38 N5 1_555 1_555
C39 C38 1_555 1_555
C40 C39 1_555 1_555
H41 C40 1_555 1_555
C41 C40 1_555 1_555
H42 C41 1_555 1_555
C42 C41 1_555 1_555
H43 C42 1_555 1_555
C43 C42 1_555 1_555
H44 C43 1_555 1_555
C44 S3 1_555 1_555
C45 S3 1_555 1_555
H45 C45 1_555 1_555
H46 C45 1_555 1_555
H47 C45 1_555 1_555
C46 N7 1_555 1_555
H48 C46 1_555 1_555
H49 C46 1_555 1_555
C47 N7 1_555 1_555
H50 C47 1_555 1_555
C48 C47 1_555 1_555
H51 C48 1_555 1_555
C49 N8 1_555 1_555
C50 C49 1_555 1_555
C51 C50 1_555 1_555
H52 C51 1_555 1_555
C52 C51 1_555 1_555
H53 C52 1_555 1_555
C53 C52 1_555 1_555
H54 C53 1_555 1_555
C54 C53 1_555 1_555
H55 C54 1_555 1_555
C55 S4 1_555 1_555
C56 S4 1_555 1_555
H56 C56 1_555 1_555
H57 C56 1_555 1_555
H58 C56 1_555 1_555
C57 C58 1_555 1_555
C58 H59 1_555 1_555
C59 C58 1_555 1_555
H60 C59 1_555 1_555
C60 C59 1_555 1_555
C61 C60 1_555 1_555
H61 C61 1_555 1_555
C62 C57 1_555 1_555
H62 C62 1_555 1_555
C63 N9 1_555 1_555
H63 C63 1_555 1_555
H64 C63 1_555 1_555
C64 N9 1_555 1_555
H65 C64 1_555 1_555
C65 C64 1_555 1_555
H66 C65 1_555 1_555
C66 N10 1_555 1_555
C67 C66 1_555 1_555
C68 C67 1_555 1_555
H67 C68 1_555 1_555
C69 C68 1_555 1_555
H68 C69 1_555 1_555
C70 C69 1_555 1_555
H69 C70 1_555 1_555
C71 C70 1_555 1_555
H70 C71 1_555 1_555
C72 C67 1_555 1_555
C73 S5 1_555 1_555
H71 C73 1_555 1_555
H72 C73 1_555 1_555
H73 C73 1_555 1_555
C74 N11 1_555 1_555
H74 C74 1_555 1_555
H75 C74 1_555 1_555
C75 N11 1_555 1_555
H76 C75 1_555 1_555
C76 C75 1_555 1_555
H77 C76 1_555 1_555
C77 N12 1_555 1_555
C78 C77 1_555 1_555
C79 C78 1_555 1_555
H78 C79 1_555 1_555
C80 C79 1_555 1_555
H79 C80 1_555 1_555
C81 C80 1_555 1_555
H80 C81 1_555 1_555
C82 C81 1_555 1_555
H81 C82 1_555 1_555
C83 S6 1_555 1_555
C84 S6 1_555 1_555
H82 C84 1_555 1_555
H83 C84 1_555 1_555
H84 C84 1_555 1_555
Cl4 O16 1_555 1_555
O17 Cl4 1_555 1_555
O18 Cl4 1_555 1_555
O19 Cl4 1_555 1_555
Cl5 O20 1_555 1_555
O21 Cl5 1_555 1_555
O22 Cl5 1_555 1_555
O23 Cl5 1_555 1_555
Cl6 O24 1_555 1_555
O25 Cl6 1_555 1_555
O26 Cl6 1_555 1_555
O27 Cl6 1_555 1_555
C85 H85 1_555 1_555
H86 C85 1_555 1_555
H87 C85 1_555 1_555
N13 C85 1_555 1_555
O32 N13 1_555 1_555
O33 N13 1_555 1_555
C86 H88 1_555 1_555
H89 C86 1_555 1_555
H90 C86 1_555 1_555
N14 C86 1_555 1_555
O34 N14 1_555 1_555
O35 N14 1_555 1_555
C87 H91 1_555 1_555
H92 C87 1_555 1_555
H93 C87 1_555 1_555
N15 C87 1_555 1_555
O36 N15 1_555 1_555
O37 N15 1_555 1_555
C88 H94 1_555 1_555
H95 C88 1_555 1_555
H96 C88 1_555 1_555
N16 C88 1_555 1_555
O38 N16 1_555 1_555
O39 N16 1_555 1_555
C89 H97 1_555 1_555
H98 C89 1_555 1_555
H99 C89 1_555 1_555
N17 C89 1_555 1_555
O40 N17 1_555 1_555
O41 N17 1_555 1_555
N18 C90 1_555 1_555
C90 H100 1_555 1_555
H101 C90 1_555 1_555
H102 C90 1_555 1_555
O42 N18 1_555 1_555
O43 N18 1_555 1_555
Cd3D S5D 1_555 1_555
S5D C72D 1_555 1_555
S6D Cd3D 1_555 1_555
Cl3D O9D 1_555 1_555
O9D Cd3D 1_555 1_555
O10D Cl3D 1_555 1_555
O11D Cl3D 1_555 1_555
O12D Cl3D 1_555 1_555
O15D Cd3D 1_555 1_555
H5D O15D 1_555 1_555
H6D O15D 1_555 1_555
N9D N10D 1_555 1_555
N10D Cd3D 1_555 1_555
N11D N12D 1_555 1_555
N12D Cd3D 1_555 1_555
C57D C58D 1_555 1_555
C58D H59D 1_555 1_555
C59D C58D 1_555 1_555
H60D C59D 1_555 1_555
C60D C74 1_555 1_555
C61D C60D 1_555 1_555
H61D C61D 1_555 1_555
C62D C57D 1_555 1_555
H62D C62D 1_555 1_555
C63D N9D 1_555 1_555
H63D C63D 1_555 1_555
H64D C63D 1_555 1_555
C64D N9D 1_555 1_555
H65D C64D 1_555 1_555
C65D C64D 1_555 1_555
H66D C65D 1_555 1_555
C66D N10D 1_555 1_555
C67D C66D 1_555 1_555
C68D C67D 1_555 1_555
H67D C68D 1_555 1_555
C69D C68D 1_555 1_555
H68D C69D 1_555 1_555
C70D C69D 1_555 1_555
H69D C70D 1_555 1_555
C71D C70D 1_555 1_555
H70D C71D 1_555 1_555
C72D C67D 1_555 1_555
C73D S5D 1_555 1_555
H71D C73D 1_555 1_555
H72D C73D 1_555 1_555
H73D C73D 1_555 1_555
C74D C60 1_555 1_555
H74D C74D 1_555 1_555
H75D C74D 1_555 1_555
C75D N11D 1_555 1_555
H76D C75D 1_555 1_555
C76D C75D 1_555 1_555
H77D C76D 1_555 1_555
C77D N12D 1_555 1_555
C78D C77D 1_555 1_555
C79D C78D 1_555 1_555
H78D C79D 1_555 1_555
C80D C79D 1_555 1_555
H79D C80D 1_555 1_555
C81D C80D 1_555 1_555
H80D C81D 1_555 1_555
C82D C81D 1_555 1_555
H81D C82D 1_555 1_555
C83D S6D 1_555 1_555
C84D S6D 1_555 1_555
H82D C84D 1_555 1_555
H83D C84D 1_555 1_555
H84D C84D 1_555 1_555
C1 C7 1_555 1_555
C4 C18 1_555 1_555
C5 C6 1_555 1_555
C9 C10 1_555 1_555
C15 C16 1_555 1_555
C20 C21 1_555 1_555
C26 C27 1_555 1_555
C29 C35 1_555 1_555
C32 C46 1_555 1_555
C33 C34 1_555 1_555
C37 C38 1_555 1_555
C39 C44 1_555 1_555
C43 C44 1_555 1_555
C48 C49 1_555 1_555
C50 C55 1_555 1_555
C54 C55 1_555 1_555
C57 C63 1_555 1_555
C61 C62 1_555 1_555
C65 C66 1_555 1_555
C71 C72 1_555 1_555
C76 C77 1_555 1_555
C78 C83 1_555 1_555
C82 C83 1_555 1_555
N11D C74D 1_555 1_555
C57D C63D 1_555 1_555
C59D C60D 1_555 1_555
C61D C62D 1_555 1_555
C65D C66D 1_555 1_555
C71D C72D 1_555 1_555
C76D C77D 1_555 1_555
C78D C83D 1_555 1_555
C82D C83D 1_555 1_555

#END
