
#######################################################################
#
#                 Cambridge Crystallographic Data Centre
#                                CCDC 
#
#######################################################################
#
# If this CIF has been generated from an entry in the Cambridge 
# Structural Database, then it will include bibliographic, chemical, 
# crystal, experimental, refinement or atomic coordinate data resulting 
# from the CCDC's data processing and validation procedures.
#
#######################################################################

data_LIQQUX
_chemical_formula_moiety         
'C48 H64 N16 Pt4 8+,3(C4 H16 Br2 N4 Pt1 2+),14(N1 O3 1-),12(H2 O1)'
_chemical_name_systematic        
"tetrakis((\m~2~-4,4'-Bipyridine)-(ethylene-1,2-diamine)-platinum(ii)) tris(dibromo-bis(ethylene-1,2-diamine)-platinum(iv)) tetradecanitrate dodecahydrate"
_symmetry_cell_setting           monoclinic
_symmetry_space_group_name_H-M   'P 21/c'
_symmetry_Int_Tables_number      14
_space_group_name_Hall           '-P 2ybc'
loop_
_symmetry_equiv_pos_site_id
_symmetry_equiv_pos_as_xyz
1 x,y,z
2 x,1/2-y,1/2+z
3 -x,-y,-z
4 -x,1/2+y,1/2-z
_cell_length_a                   20.648(4)
_cell_length_b                   16.205(3)
_cell_length_c                   19.397(3)
_cell_angle_alpha                90
_cell_angle_beta                 111.031(11)
_cell_angle_gamma                90
_cell_volume                     6057.91
_exptl_crystal_colour            yellow
_chemical_melting_point          '224-227 deg.C(dec)'
_cell_formula_units_Z            2
loop_
_atom_site_label
_atom_site_type_symbol
_atom_site_fract_x
_atom_site_fract_y
_atom_site_fract_z
Pt1 Pt 0.293300(10) 0.762727(12) 0.422944(11)
N1 N 0.29147(19) 1.1594(2) 0.7528(2)
C1 C 0.2813(3) 1.0823(3) 0.7641(3)
H1 H 0.2728 1.0690 0.8067
C2 C 0.2823(3) 1.0189(3) 0.7173(3)
H2 H 0.2709 0.9654 0.7263
C3 C 0.3001(3) 1.0357(3) 0.6577(3)
C4 C 0.3131(3) 1.1162(3) 0.6460(3)
H3 H 0.3242 1.1306 0.6052
C5 C 0.3094(3) 1.1746(3) 0.6942(3)
H4 H 0.3200 1.2287 0.6861
N2 N -0.1789(2) 0.7563(2) 0.2252(2)
C6 C -0.1402(3) 0.7961(4) 0.1940(3)
H5 H -0.1632 0.8246 0.1504
C7 C -0.0712(3) 0.7983(4) 0.2200(3)
H6 H -0.0480 0.8280 0.1949
C8 C -0.0347(3) 0.7576(3) 0.2824(3)
C9 C -0.0738(3) 0.7151(4) 0.3173(3)
H7 H -0.0523 0.6865 0.3612
C10 C -0.1441(3) 0.7171(4) 0.2847(3)
H8 H -0.1693 0.6873 0.3075
N3 N 0.1875(2) 0.7617(2) 0.3776(2)
C11 C 0.1539(3) 0.7846(4) 0.3089(3)
H9 H 0.1797 0.8022 0.2810
C12 C 0.0835(3) 0.7838(4) 0.2764(3)
H10 H 0.0620 0.8011 0.2278
C13 C 0.0446(3) 0.7569(3) 0.3170(3)
C14 C 0.0786(3) 0.7311(4) 0.3877(3)
H11 H 0.0540 0.7116 0.4161
C15 C 0.1498(3) 0.7344(4) 0.4161(3)
H12 H 0.1727 0.7169 0.4644
N4 N 0.29165(19) 0.8490(2) 0.4992(2)
C16 C 0.3173(3) 0.8312(3) 0.5704(3)
H13 H 0.3324 0.7777 0.5851
C17 C 0.3223(3) 0.8903(3) 0.6237(3)
H14 H 0.3422 0.8772 0.6736
C18 C 0.2976(2) 0.9684(3) 0.6019(3)
C19 C 0.2687(3) 0.9846(3) 0.5274(3)
H15 H 0.2494 1.0359 0.5103
C20 C 0.2693(3) 0.9228(3) 0.4789(3)
H16 H 0.2526 0.9349 0.4286
Pt2 Pt -0.283010(10) 0.751330(12) 0.178730(11)
N11 N 0.3994(2) 0.7600(3) 0.4620(2)
H41 H 0.4157 0.8087 0.4528
H42 H 0.4155 0.7523 0.5113
N12 N -0.3864(2) 0.7406(3) 0.1275(2)
H43 H -0.4050 0.7907 0.1123
H44 H -0.4053 0.7207 0.1594
N13 N -0.2809(2) 0.6620(3) 0.1047(2)
H45 H -0.2537 0.6199 0.1287
H46 H -0.2632 0.6830 0.0723
N14 N 0.3039(2) 0.6768(3) 0.3509(2)
H47 H 0.2897 0.6274 0.3615
H48 H 0.2762 0.6905 0.3047
C27 C -0.3495(3) 0.6330(4) 0.0664(4)
H49 H -0.3556 0.5817 0.0892
H50 H -0.3540 0.6205 0.0160
C28 C 0.3744(3) 0.6695(5) 0.3535(3)
H51 H 0.3808 0.7048 0.3160
H52 H 0.3832 0.6130 0.3429
C29 C -0.4022(4) 0.6857(5) 0.0644(4)
H53 H -0.4144 0.7188 0.0200
H54 H -0.4426 0.6530 0.0611
C30 C 0.4241(3) 0.6933(4) 0.4267(4)
H55 H 0.4671 0.7105 0.4215
H56 H 0.4341 0.6454 0.4588
N1B N -0.29147(19) 0.8406(2) 0.2472(2)
C1B C -0.2813(3) 0.9177(3) 0.2359(3)
H1B H -0.2728 0.9310 0.1933
C2B C -0.2823(3) 0.9811(3) 0.2827(3)
H2B H -0.2709 1.0346 0.2737
C3B C -0.3001(3) 0.9643(3) 0.3423(3)
C4B C -0.3131(3) 0.8838(3) 0.3540(3)
H3B H -0.3242 0.8694 0.3948
C5B C -0.3094(3) 0.8254(3) 0.3058(3)
H4B H -0.3200 0.7713 0.3139
C18B C -0.2976(2) 1.0316(3) 0.3981(3)
C17B C -0.3223(3) 1.1097(3) 0.3763(3)
C16B C -0.3173(3) 1.1688(3) 0.4296(3)
N4B N -0.29165(19) 1.1510(2) 0.5008(2)
Pt1B Pt -0.293300(10) 1.237273(12) 0.577056(11)
N3B N -0.1875(2) 1.2383(2) 0.6224(2)
C11B C -0.1539(3) 1.2154(4) 0.6911(3)
H9B H -0.1797 1.1978 0.7190
C12B C -0.0835(3) 1.2162(4) 0.7236(3)
H10B H -0.0620 1.1989 0.7722
C13B C -0.0446(3) 1.2431(3) 0.6830(3)
C8B C 0.0347(3) 1.2424(3) 0.7176(3)
C7B C 0.0712(3) 1.2017(4) 0.7800(3)
C6B C 0.1402(3) 1.2039(4) 0.8060(3)
N2B N 0.1789(2) 1.2437(2) 0.7748(2)
C10B C 0.1441(3) 1.2829(4) 0.7153(3)
C9B C 0.0738(3) 1.2849(4) 0.6827(3)
H7B H 0.0523 1.3135 0.6388
H8B H 0.1693 1.3127 0.6925
Pt2B Pt 0.283010(10) 1.248670(12) 0.821270(11)
N12B N 0.3864(2) 1.2594(3) 0.8725(2)
H43B H 0.4050 1.2093 0.8877
H44B H 0.4053 1.2793 0.8406
C29B C 0.4022(4) 1.3143(5) 0.9356(4)
C27B C 0.3495(3) 1.3670(4) 0.9336(4)
N13B N 0.2809(2) 1.3380(3) 0.8953(2)
H45B H 0.2537 1.3801 0.8713
H46B H 0.2632 1.3170 0.9277
H49B H 0.3556 1.4183 0.9108
H50B H 0.3540 1.3795 0.9840
H53B H 0.4144 1.2812 0.9800
H54B H 0.4426 1.3470 0.9389
H5B H 0.1632 1.1754 0.8496
H6B H 0.0480 1.1720 0.8051
C14B C -0.0786(3) 1.2689(4) 0.6123(3)
H11B H -0.0540 1.2884 0.5839
C15B C -0.1498(3) 1.2656(4) 0.5839(3)
H12B H -0.1727 1.2831 0.5356
N11B N -0.3994(2) 1.2400(3) 0.5380(2)
H41B H -0.4157 1.1913 0.5472
H42B H -0.4155 1.2477 0.4887
C30B C -0.4241(3) 1.3067(4) 0.5733(4)
C28B C -0.3744(3) 1.3305(5) 0.6465(3)
N14B N -0.3039(2) 1.3232(3) 0.6491(2)
H47B H -0.2897 1.3726 0.6385
H48B H -0.2762 1.3095 0.6953
H51B H -0.3808 1.2952 0.6840
H52B H -0.3832 1.3870 0.6571
H55B H -0.4671 1.2895 0.5785
H56B H -0.4341 1.3546 0.5412
C20B C -0.2693(3) 1.0772(3) 0.5211(3)
C19B C -0.2687(3) 1.0154(3) 0.4726(3)
H15B H -0.2494 0.9641 0.4897
H16B H -0.2526 1.0651 0.5714
H13B H -0.3324 1.2223 0.4149
H14B H -0.3422 1.1228 0.3264
Pt3 Pt 0.0000 1.0000 0.5000
N5 N -0.0556(3) 1.0478(3) 0.3983(3)
H17 H -0.0788 1.0935 0.4020
H18 H -0.0281 1.0594 0.3726
C21 C -0.1048(5) 0.9771(6) 0.3636(5)
H19 H -0.1513 0.9977 0.3542
H20 H -0.1015 0.9673 0.3156
C22 C -0.1019(5) 0.9164(4) 0.3895(4)
H21 H -0.0851 0.8786 0.3610
H22 H -0.1494 0.9004 0.3810
N6 N -0.0654(2) 0.8995(3) 0.4612(3)
H23 H -0.0407 0.8528 0.4654
H24 H -0.0940 0.8936 0.4866
Br1 Br 0.08369(4) 0.94142(5) 0.45213(5)
N5B N 0.0556(3) 0.9522(3) 0.6017(3)
H17B H 0.0788 0.9065 0.5980
H18B H 0.0281 0.9406 0.6274
C21B C 0.1048(5) 1.0229(6) 0.6364(5)
H19B H 0.1513 1.0023 0.6458
H20B H 0.1015 1.0327 0.6844
C22B C 0.1019(5) 1.0836(4) 0.6105(4)
H21B H 0.0851 1.1214 0.6390
H22B H 0.1494 1.0996 0.6190
N6B N 0.0654(2) 1.1005(3) 0.5388(3)
Br1B Br -0.08369(4) 1.05858(5) 0.54787(5)
H23B H 0.0407 1.1472 0.5346
H24B H 0.0940 1.1064 0.5134
Pt4 Pt 0.308121(13) 1.503230(13) 0.622344(13)
N7 N 0.3779(2) 1.5548(4) 0.6883(3)
H25 H 0.3721 1.6087 0.6767
H26 H 0.3717 1.5491 0.7317
C23 C 0.4455(6) 1.5382(7) 0.7021(5)
H27 H 0.4690 1.5873 0.6945
H28 H 0.4680 1.5201 0.7528
C24 C 0.4481(5) 1.4759(6) 0.6533(7)
H29 H 0.4737 1.4300 0.6828
H30 H 0.4753 1.4965 0.6253
N8 N 0.3833(3) 1.4429(4) 0.6004(3)
H31 H 0.3802 1.3882 0.6067
H32 H 0.3805 1.4525 0.5537
N9 N 0.2290(3) 1.4417(3) 0.5454(3)
H33 H 0.2247 1.4584 0.4997
H34 H 0.2373 1.3871 0.5489
C25 C 0.1647(4) 1.4601(4) 0.5594(4)
H35 H 0.1245 1.4467 0.5162
H36 H 0.1630 1.4273 0.6006
C26 C 0.1642(4) 1.5442(4) 0.5758(4)
H37 H 0.1239 1.5570 0.5885
H38 H 0.1619 1.5771 0.5332
N10 N 0.2296(2) 1.5639(3) 0.6399(3)
H39 H 0.2258 1.5471 0.6825
H40 H 0.2376 1.6186 0.6426
Br2 Br 0.30451(4) 1.60877(4) 0.53206(4)
Br3 Br 0.30865(4) 1.39927(4) 0.71373(4)
N15 N 0.4953(3) 0.9302(3) 0.3936(8)
O1 O 0.4612(3) 0.9902(4) 0.3859(6)
O2 O 0.5005(5) 0.8575(3) 0.3978(6)
O3 O 0.5571(2) 0.9617(5) 0.4104(5)
N16 N 0.2031(2) 0.7265(2) 0.1549(2)
O4 O 0.1710(3) 0.7576(3) 0.0955(2)
O5 O 0.1872(3) 0.6605(2) 0.1756(3)
O6 O 0.2536(2) 0.7650(2) 0.1966(2)
N17 N 0.19445(19) 1.2735(2) 1.0150(2)
O7 O 0.1778(2) 1.3410(2) 0.9875(2)
O8 O 0.24019(19) 1.2330(2) 1.0049(2)
O9 O 0.1653(2) 1.2435(3) 1.0557(2)
N18 N 0.1720(2) 0.9829(3) 0.8619(3)
O10 O 0.1241(3) 0.9814(6) 0.8819(4)
O11 O 0.2225(3) 1.0301(4) 0.8970(3)
O12 O 0.1768(3) 0.9363(4) 0.8149(3)
N20 N 0.1702(2) 1.0055(3) 0.2821(2)
O16 O 0.1556(3) 1.0537(3) 0.3222(3)
O17 O 0.2282(2) 0.9749(4) 0.2971(3)
O18 O 0.1286(4) 0.9927(5) 0.2208(3)
N21 N 0.4150(3) 1.0716(3) 0.9376(2)
O19 O 0.4032(4) 1.1222(3) 0.9743(3)
O20 O 0.4313(3) 1.0845(5) 0.8836(3)
O21 O 0.4001(6) 1.0088(3) 0.9563(5)
N22 N 0.4769(2) 0.7639(5) 0.6836(2)
O22 O 0.4635(4) 0.7293(5) 0.6243(2)
O23 O 0.4391(3) 0.7489(5) 0.7224(3)
O24 O 0.5314(3) 0.7955(5) 0.7254(5)
O25 O 0.5659(3) 0.7631(4) 0.8618(3)
O26 O 0.4465(5) 0.5702(6) 1.0084(9)
O27 O 0.3545(5) 0.5895(5) 0.8325(4)
O28 O 0.0030(4) 1.0754(6) 0.2941(4)
O29 O -0.0183(3) 1.2384(4) 0.4681(3)
O30 O 0.0067(4) 1.3779(6) 0.4222(5)
loop_
_geom_bond_atom_site_label_1
_geom_bond_atom_site_label_2
_geom_bond_site_symmetry_1
_geom_bond_site_symmetry_2
Pt1 N3 1_555 1_555
N1 C1 1_555 1_555
C1 H1 1_555 1_555
C2 C1 1_555 1_555
H2 C2 1_555 1_555
C3 C2 1_555 1_555
C4 C3 1_555 1_555
H3 C4 1_555 1_555
C5 N1 1_555 1_555
H4 C5 1_555 1_555
N2 C6 1_555 1_555
C6 H5 1_555 1_555
C7 C6 1_555 1_555
H6 C7 1_555 1_555
C8 C7 1_555 1_555
C9 C8 1_555 1_555
H7 C9 1_555 1_555
C10 N2 1_555 1_555
H8 C10 1_555 1_555
N3 C11 1_555 1_555
C11 H9 1_555 1_555
C12 C11 1_555 1_555
H10 C12 1_555 1_555
C13 C8 1_555 1_555
C14 C13 1_555 1_555
H11 C14 1_555 1_555
C15 N3 1_555 1_555
H12 C15 1_555 1_555
N4 Pt1 1_555 1_555
C16 N4 1_555 1_555
H13 C16 1_555 1_555
C17 C16 1_555 1_555
H14 C17 1_555 1_555
C18 C3 1_555 1_555
C19 C18 1_555 1_555
H15 C19 1_555 1_555
C20 N4 1_555 1_555
H16 C20 1_555 1_555
Pt2 N2 1_555 1_555
Pt3 N5 1_555 1_555
N5 H17 1_555 1_555
H18 N5 1_555 1_555
C21 N5 1_555 1_555
H19 C21 1_555 1_555
H20 C21 1_555 1_555
C22 C21 1_555 1_555
H21 C22 1_555 1_555
H22 C22 1_555 1_555
N6 Pt3 1_555 1_555
H23 N6 1_555 1_555
H24 N6 1_555 1_555
Br1 Pt3 1_555 1_555
Pt4 N7 1_555 1_555
N7 H25 1_555 1_555
H26 N7 1_555 1_555
C23 N7 1_555 1_555
H27 C23 1_555 1_555
H28 C23 1_555 1_555
C24 C23 1_555 1_555
H29 C24 1_555 1_555
H30 C24 1_555 1_555
N8 Pt4 1_555 1_555
H31 N8 1_555 1_555
H32 N8 1_555 1_555
N9 Pt4 1_555 1_555
H33 N9 1_555 1_555
H34 N9 1_555 1_555
C25 N9 1_555 1_555
H35 C25 1_555 1_555
H36 C25 1_555 1_555
C26 C25 1_555 1_555
H37 C26 1_555 1_555
H38 C26 1_555 1_555
N10 Pt4 1_555 1_555
H39 N10 1_555 1_555
H40 N10 1_555 1_555
Br2 Pt4 1_555 1_555
Br3 Pt4 1_555 1_555
N11 Pt1 1_555 1_555
H41 N11 1_555 1_555
H42 N11 1_555 1_555
N12 Pt2 1_555 1_555
H43 N12 1_555 1_555
H44 N12 1_555 1_555
N13 Pt2 1_555 1_555
H45 N13 1_555 1_555
H46 N13 1_555 1_555
N14 Pt1 1_555 1_555
H47 N14 1_555 1_555
H48 N14 1_555 1_555
C27 N13 1_555 1_555
H49 C27 1_555 1_555
H50 C27 1_555 1_555
C28 N14 1_555 1_555
H51 C28 1_555 1_555
H52 C28 1_555 1_555
C29 N12 1_555 1_555
H53 C29 1_555 1_555
H54 C29 1_555 1_555
C30 N11 1_555 1_555
H55 C30 1_555 1_555
H56 C30 1_555 1_555
N15 O1 1_555 1_555
O2 N15 1_555 1_555
O3 N15 1_555 1_555
N16 O4 1_555 1_555
O5 N16 1_555 1_555
O6 N16 1_555 1_555
N17 O7 1_555 1_555
O8 N17 1_555 1_555
O9 N17 1_555 1_555
N18 O10 1_555 1_555
O11 N18 1_555 1_555
O12 N18 1_555 1_555
N20 O16 1_555 1_555
O17 N20 1_555 1_555
O18 N20 1_555 1_555
N21 O19 1_555 1_555
O20 N21 1_555 1_555
O21 N21 1_555 1_555
N22 O22 1_555 1_555
O23 N22 1_555 1_555
O24 N22 1_555 1_555
N1B Pt2 1_555 1_555
C1B N1B 1_555 1_555
H1B C1B 1_555 1_555
C2B C1B 1_555 1_555
H2B C2B 1_555 1_555
C3B C2B 1_555 1_555
C4B C3B 1_555 1_555
H3B C4B 1_555 1_555
C5B N1B 1_555 1_555
H4B C5B 1_555 1_555
C18B C3B 1_555 1_555
C17B C18B 1_555 1_555
C16B C17B 1_555 1_555
N4B C16B 1_555 1_555
Pt1B N4B 1_555 1_555
N3B Pt1B 1_555 1_555
C11B N3B 1_555 1_555
H9B C11B 1_555 1_555
C12B C11B 1_555 1_555
H10B C12B 1_555 1_555
C13B C12B 1_555 1_555
C8B C13B 1_555 1_555
C7B C8B 1_555 1_555
C6B C7B 1_555 1_555
N2B C6B 1_555 1_555
C10B N2B 1_555 1_555
C9B C8B 1_555 1_555
H7B C9B 1_555 1_555
H8B C10B 1_555 1_555
Pt2B N1 1_555 1_555
N12B Pt2B 1_555 1_555
H43B N12B 1_555 1_555
H44B N12B 1_555 1_555
C29B N12B 1_555 1_555
C27B C29B 1_555 1_555
N13B Pt2B 1_555 1_555
H45B N13B 1_555 1_555
H46B N13B 1_555 1_555
H49B C27B 1_555 1_555
H50B C27B 1_555 1_555
H53B C29B 1_555 1_555
H54B C29B 1_555 1_555
H5B C6B 1_555 1_555
H6B C7B 1_555 1_555
C14B C13B 1_555 1_555
H11B C14B 1_555 1_555
C15B N3B 1_555 1_555
H12B C15B 1_555 1_555
N11B Pt1B 1_555 1_555
H41B N11B 1_555 1_555
H42B N11B 1_555 1_555
C30B N11B 1_555 1_555
C28B C30B 1_555 1_555
N14B Pt1B 1_555 1_555
H47B N14B 1_555 1_555
H48B N14B 1_555 1_555
H51B C28B 1_555 1_555
H52B C28B 1_555 1_555
H55B C30B 1_555 1_555
H56B C30B 1_555 1_555
C20B N4B 1_555 1_555
C19B C18B 1_555 1_555
H15B C19B 1_555 1_555
H16B C20B 1_555 1_555
H13B C16B 1_555 1_555
H14B C17B 1_555 1_555
N5B Pt3 1_555 1_555
H17B N5B 1_555 1_555
H18B N5B 1_555 1_555
C21B N5B 1_555 1_555
H19B C21B 1_555 1_555
H20B C21B 1_555 1_555
C22B C21B 1_555 1_555
H21B C22B 1_555 1_555
H22B C22B 1_555 1_555
N6B Pt3 1_555 1_555
Br1B Pt3 1_555 1_555
H23B N6B 1_555 1_555
H24B N6B 1_555 1_555
C4 C5 1_555 1_555
C9 C10 1_555 1_555
C12 C13 1_555 1_555
C14 C15 1_555 1_555
C17 C18 1_555 1_555
C19 C20 1_555 1_555
C22 N6 1_555 1_555
C24 N8 1_555 1_555
C26 N10 1_555 1_555
C27 C29 1_555 1_555
C28 C30 1_555 1_555
C4B C5B 1_555 1_555
N2B Pt2B 1_555 1_555
C10B C9B 1_555 1_555
C27B N13B 1_555 1_555
C14B C15B 1_555 1_555
C28B N14B 1_555 1_555
C20B C19B 1_555 1_555
C22B N6B 1_555 1_555

#END
