# generated using pymatgen
data_Fe4H240C204S15N24(O5F4)9
_symmetry_space_group_name_H-M   'P 1'
_cell_length_a   23.32270000
_cell_length_b   23.32270000
_cell_length_c   25.78150000
_cell_angle_alpha   90.00000000
_cell_angle_beta   90.00000000
_cell_angle_gamma   120.00000000
_symmetry_Int_Tables_number   1
_chemical_formula_structural   Fe4H240C204S15N24(O5F4)9
_chemical_formula_sum   'Fe8 H480 C408 S30 N48 O90 F72'
_cell_volume   12144.97052713
_cell_formula_units_Z   2
loop_
 _symmetry_equiv_pos_site_id
 _symmetry_equiv_pos_as_xyz
  1  'x, y, z'
loop_
 _atom_site_type_symbol
 _atom_site_label
 _atom_site_symmetry_multiplicity
 _atom_site_fract_x
 _atom_site_fract_y
 _atom_site_fract_z
 _atom_site_occupancy
  Fe  Fe1  1  0.333333  0.666667  0.048190  1
  Fe  Fe2  1  0.666667  0.333333  0.951810  1
  Fe  Fe3  1  0.647760  0.801950  0.698010  1.0
  Fe  Fe4  1  0.154190  0.352240  0.698010  1.0
  Fe  Fe5  1  0.198050  0.845810  0.698010  1.0
  Fe  Fe6  1  0.845810  0.198050  0.301990  1.0
  Fe  Fe7  1  0.352240  0.154190  0.301990  1.0
  Fe  Fe8  1  0.801950  0.647760  0.301990  1.0
  H  H9  1  0.385000  0.823900  0.098000  1.0
  H  H10  1  0.438900  0.615000  0.098000  1.0
  H  H11  1  0.176100  0.561100  0.098000  1.0
  H  H12  1  0.561100  0.176100  0.902000  1.0
  H  H13  1  0.615000  0.438900  0.902000  1.0
  H  H14  1  0.823900  0.385000  0.902000  1.0
  H  H15  1  0.527300  0.889500  0.102000  1.0
  H  H16  1  0.362200  0.472700  0.102000  1.0
  H  H17  1  0.110500  0.637800  0.102000  1.0
  H  H18  1  0.637800  0.110500  0.898000  1.0
  H  H19  1  0.472700  0.362200  0.898000  1.0
  H  H20  1  0.889500  0.527300  0.898000  1.0
  H  H21  1  0.485000  0.848100  0.052700  1.0
  H  H22  1  0.363100  0.515000  0.052700  1.0
  H  H23  1  0.151900  0.636900  0.052700  1.0
  H  H24  1  0.636900  0.151900  0.947300  1.0
  H  H25  1  0.515000  0.363100  0.947300  1.0
  H  H26  1  0.848100  0.485000  0.947300  1.0
  H  H27  1  0.521300  0.962000  0.039900  1.0
  H  H28  1  0.440700  0.478700  0.039900  1.0
  H  H29  1  0.038000  0.559300  0.039900  1.0
  H  H30  1  0.559300  0.038000  0.960100  1.0
  H  H31  1  0.478700  0.440700  0.960100  1.0
  H  H32  1  0.962000  0.521300  0.960100  1.0
  H  H33  1  0.442100  0.921200  0.042900  1.0
  H  H34  1  0.479100  0.557900  0.042900  1.0
  H  H35  1  0.078800  0.520900  0.042900  1.0
  H  H36  1  0.520900  0.078800  0.957100  1.0
  H  H37  1  0.557900  0.479100  0.957100  1.0
  H  H38  1  0.921200  0.442100  0.957100  1.0
  H  H39  1  0.527300  0.995300  0.127600  1.0
  H  H40  1  0.468000  0.472700  0.127600  1.0
  H  H41  1  0.004700  0.532000  0.127600  1.0
  H  H42  1  0.532000  0.004700  0.872400  1.0
  H  H43  1  0.472700  0.468000  0.872400  1.0
  H  H44  1  0.995300  0.527300  0.872400  1.0
  H  H45  1  0.482700  0.017300  0.095200  1.0
  H  H46  1  0.534600  0.517300  0.095200  1.0
  H  H47  1  0.982700  0.465400  0.095200  1.0
  H  H48  1  0.465400  0.982700  0.904800  1.0
  H  H49  1  0.517300  0.534600  0.904800  1.0
  H  H50  1  0.017300  0.482700  0.904800  1.0
  H  H51  1  0.385300  0.923700  0.125800  1.0
  H  H52  1  0.538400  0.614700  0.125800  1.0
  H  H53  1  0.076300  0.461600  0.125800  1.0
  H  H54  1  0.461600  0.076300  0.874200  1.0
  H  H55  1  0.614700  0.538400  0.874200  1.0
  H  H56  1  0.923700  0.385300  0.874200  1.0
  H  H57  1  0.429100  0.966200  0.174200  1.0
  H  H58  1  0.537100  0.570900  0.174200  1.0
  H  H59  1  0.033800  0.462900  0.174200  1.0
  H  H60  1  0.462900  0.033800  0.825800  1.0
  H  H61  1  0.570900  0.537100  0.825800  1.0
  H  H62  1  0.966200  0.429100  0.825800  1.0
  H  H63  1  0.472700  0.891300  0.183500  1.0
  H  H64  1  0.418600  0.527300  0.183500  1.0
  H  H65  1  0.108700  0.581400  0.183500  1.0
  H  H66  1  0.581400  0.108700  0.816500  1.0
  H  H67  1  0.527300  0.418600  0.816500  1.0
  H  H68  1  0.891300  0.472700  0.816500  1.0
  H  H69  1  0.393500  0.850900  0.189100  1.0
  H  H70  1  0.457400  0.606500  0.189100  1.0
  H  H71  1  0.149100  0.542600  0.189100  1.0
  H  H72  1  0.542600  0.149100  0.810900  1.0
  H  H73  1  0.606500  0.457400  0.810900  1.0
  H  H74  1  0.850900  0.393500  0.810900  1.0
  H  H75  1  0.375500  0.742300  0.154600  1.0
  H  H76  1  0.366800  0.624500  0.154600  1.0
  H  H77  1  0.257700  0.633200  0.154600  1.0
  H  H78  1  0.633200  0.257700  0.845400  1.0
  H  H79  1  0.624500  0.366800  0.845400  1.0
  H  H80  1  0.742300  0.375500  0.845400  1.0
  H  H81  1  0.470200  0.729700  0.177500  1.0
  H  H82  1  0.259500  0.529800  0.177500  1.0
  H  H83  1  0.270300  0.740500  0.177500  1.0
  H  H84  1  0.740500  0.270300  0.822500  1.0
  H  H85  1  0.529800  0.259500  0.822500  1.0
  H  H86  1  0.729700  0.470200  0.822500  1.0
  H  H87  1  0.467700  0.788500  0.207400  1.0
  H  H88  1  0.320800  0.532300  0.207400  1.0
  H  H89  1  0.211500  0.679200  0.207400  1.0
  H  H90  1  0.679200  0.211500  0.792600  1.0
  H  H91  1  0.532300  0.320800  0.792600  1.0
  H  H92  1  0.788500  0.467700  0.792600  1.0
  H  H93  1  0.517100  0.804700  0.159500  1.0
  H  H94  1  0.287600  0.482900  0.159500  1.0
  H  H95  1  0.195300  0.712400  0.159500  1.0
  H  H96  1  0.712400  0.195300  0.840500  1.0
  H  H97  1  0.482900  0.287600  0.840500  1.0
  H  H98  1  0.804700  0.517100  0.840500  1.0
  H  H99  1  0.509500  0.764400  0.085000  1.0
  H  H100  1  0.254900  0.490500  0.085000  1.0
  H  H101  1  0.235600  0.745100  0.085000  1.0
  H  H102  1  0.745100  0.235600  0.915000  1.0
  H  H103  1  0.490500  0.254900  0.915000  1.0
  H  H104  1  0.764400  0.509500  0.915000  1.0
  H  H105  1  0.562000  0.730500  0.010200  1.0
  H  H106  1  0.168500  0.438000  0.010200  1.0
  H  H107  1  0.269500  0.831500  0.010200  1.0
  H  H108  1  0.831500  0.269500  0.989800  1.0
  H  H109  1  0.438000  0.168500  0.989800  1.0
  H  H110  1  0.730500  0.562000  0.989800  1.0
  H  H111  1  0.544200  0.668300  0.934700  1.0
  H  H112  1  0.124100  0.455800  0.934700  1.0
  H  H113  1  0.331700  0.875900  0.934700  1.0
  H  H114  1  0.875900  0.331700  0.065300  1.0
  H  H115  1  0.455800  0.124100  0.065300  1.0
  H  H116  1  0.668300  0.544200  0.065300  1.0
  H  H117  1  0.346600  0.595600  0.948200  1.0
  H  H118  1  0.249000  0.653400  0.948200  1.0
  H  H119  1  0.404400  0.751000  0.948200  1.0
  H  H120  1  0.751000  0.404400  0.051800  1.0
  H  H121  1  0.653400  0.249000  0.051800  1.0
  H  H122  1  0.595600  0.346600  0.051800  1.0
  H  H123  1  0.340000  0.512500  0.906000  1.0
  H  H124  1  0.172500  0.660000  0.906000  1.0
  H  H125  1  0.487500  0.827500  0.906000  1.0
  H  H126  1  0.827500  0.487500  0.094000  1.0
  H  H127  1  0.660000  0.172500  0.094000  1.0
  H  H128  1  0.512500  0.340000  0.094000  1.0
  H  H129  1  0.394500  0.496100  0.760600  1.0
  H  H130  1  0.101600  0.605500  0.760600  1.0
  H  H131  1  0.503900  0.898400  0.760600  1.0
  H  H132  1  0.898400  0.503900  0.239400  1.0
  H  H133  1  0.605500  0.101600  0.239400  1.0
  H  H134  1  0.496100  0.394500  0.239400  1.0
  H  H135  1  0.517400  0.651600  0.849500  1.0
  H  H136  1  0.134200  0.482600  0.849500  1.0
  H  H137  1  0.348400  0.865800  0.849500  1.0
  H  H138  1  0.865800  0.348400  0.150500  1.0
  H  H139  1  0.482600  0.134200  0.150500  1.0
  H  H140  1  0.651600  0.517400  0.150500  1.0
  H  H141  1  0.550700  0.701500  0.778500  1.0
  H  H142  1  0.150800  0.449300  0.778500  1.0
  H  H143  1  0.298500  0.849200  0.778500  1.0
  H  H144  1  0.849200  0.298500  0.221500  1.0
  H  H145  1  0.449300  0.150800  0.221500  1.0
  H  H146  1  0.701500  0.550700  0.221500  1.0
  H  H147  1  0.482600  0.523300  0.712400  1.0
  H  H148  1  0.040700  0.517400  0.712400  1.0
  H  H149  1  0.476700  0.959300  0.712400  1.0
  H  H150  1  0.959300  0.476700  0.287600  1.0
  H  H151  1  0.517400  0.040700  0.287600  1.0
  H  H152  1  0.523300  0.482600  0.287600  1.0
  H  H153  1  0.549600  0.573200  0.640400  1.0
  H  H154  1  0.023600  0.450400  0.640400  1.0
  H  H155  1  0.426800  0.976400  0.640400  1.0
  H  H156  1  0.976400  0.426800  0.359600  1.0
  H  H157  1  0.450400  0.023600  0.359600  1.0
  H  H158  1  0.573200  0.549600  0.359600  1.0
  H  H159  1  0.638900  0.685600  0.597500  1.0
  H  H160  1  0.046700  0.361100  0.597500  1.0
  H  H161  1  0.314400  0.953300  0.597500  1.0
  H  H162  1  0.953300  0.314400  0.402500  1.0
  H  H163  1  0.361100  0.046700  0.402500  1.0
  H  H164  1  0.685600  0.638900  0.402500  1.0
  H  H165  1  0.755000  0.852000  0.612000  1.0
  H  H166  1  0.097000  0.245000  0.612000  1.0
  H  H167  1  0.148000  0.903000  0.612000  1.0
  H  H168  1  0.903000  0.148000  0.388000  1.0
  H  H169  1  0.245000  0.097000  0.388000  1.0
  H  H170  1  0.852000  0.755000  0.388000  1.0
  H  H171  1  0.671700  0.860300  0.571200  1.0
  H  H172  1  0.188600  0.328300  0.571200  1.0
  H  H173  1  0.139700  0.811400  0.571200  1.0
  H  H174  1  0.811400  0.139700  0.428800  1.0
  H  H175  1  0.328300  0.188600  0.428800  1.0
  H  H176  1  0.860300  0.671700  0.428800  1.0
  H  H177  1  0.758200  0.856400  0.494900  1.0
  H  H178  1  0.098200  0.241800  0.494900  1.0
  H  H179  1  0.143600  0.901800  0.494900  1.0
  H  H180  1  0.901800  0.143600  0.505100  1.0
  H  H181  1  0.241800  0.098200  0.505100  1.0
  H  H182  1  0.856400  0.758200  0.505100  1.0
  H  H183  1  0.778700  0.916700  0.534200  1.0
  H  H184  1  0.138000  0.221300  0.534200  1.0
  H  H185  1  0.083300  0.862000  0.534200  1.0
  H  H186  1  0.862000  0.083300  0.465800  1.0
  H  H187  1  0.221300  0.138000  0.465800  1.0
  H  H188  1  0.916700  0.778700  0.465800  1.0
  H  H189  1  0.697000  0.936900  0.497000  1.0
  H  H190  1  0.239900  0.303000  0.497000  1.0
  H  H191  1  0.063100  0.760100  0.497000  1.0
  H  H192  1  0.760100  0.063100  0.503000  1.0
  H  H193  1  0.303000  0.239900  0.503000  1.0
  H  H194  1  0.936900  0.697000  0.503000  1.0
  H  H195  1  0.748500  0.942000  0.453500  1.0
  H  H196  1  0.193500  0.251500  0.453500  1.0
  H  H197  1  0.058000  0.806500  0.453500  1.0
  H  H198  1  0.806500  0.058000  0.546500  1.0
  H  H199  1  0.251500  0.193500  0.546500  1.0
  H  H200  1  0.942000  0.748500  0.546500  1.0
  H  H201  1  0.674200  0.832400  0.426700  1.0
  H  H202  1  0.158200  0.325800  0.426700  1.0
  H  H203  1  0.167600  0.841800  0.426700  1.0
  H  H204  1  0.841800  0.167600  0.573300  1.0
  H  H205  1  0.325800  0.158200  0.573300  1.0
  H  H206  1  0.832400  0.674200  0.573300  1.0
  H  H207  1  0.639000  0.876200  0.422500  1.0
  H  H208  1  0.237200  0.361000  0.422500  1.0
  H  H209  1  0.123800  0.762800  0.422500  1.0
  H  H210  1  0.762800  0.123800  0.577500  1.0
  H  H211  1  0.361000  0.237200  0.577500  1.0
  H  H212  1  0.876200  0.639000  0.577500  1.0
  H  H213  1  0.567200  0.773400  0.463600  1.0
  H  H214  1  0.206200  0.432800  0.463600  1.0
  H  H215  1  0.226600  0.793800  0.463600  1.0
  H  H216  1  0.793800  0.226600  0.536400  1.0
  H  H217  1  0.432800  0.206200  0.536400  1.0
  H  H218  1  0.773400  0.567200  0.536400  1.0
  H  H219  1  0.584700  0.833500  0.502600  1.0
  H  H220  1  0.248800  0.415300  0.502600  1.0
  H  H221  1  0.166500  0.751200  0.502600  1.0
  H  H222  1  0.751200  0.166500  0.497400  1.0
  H  H223  1  0.415300  0.248800  0.497400  1.0
  H  H224  1  0.833500  0.584700  0.497400  1.0
  H  H225  1  0.598100  0.750400  0.547600  1.0
  H  H226  1  0.152300  0.401900  0.547600  1.0
  H  H227  1  0.249600  0.847700  0.547600  1.0
  H  H228  1  0.847700  0.249600  0.452400  1.0
  H  H229  1  0.401900  0.152300  0.452400  1.0
  H  H230  1  0.750400  0.598100  0.452400  1.0
  H  H231  1  0.648900  0.753900  0.504100  1.0
  H  H232  1  0.105000  0.351100  0.504100  1.0
  H  H233  1  0.246100  0.895000  0.504100  1.0
  H  H234  1  0.895000  0.246100  0.495900  1.0
  H  H235  1  0.351100  0.105000  0.495900  1.0
  H  H236  1  0.753900  0.648900  0.495900  1.0
  H  H237  1  0.776700  0.796100  0.540200  1.0
  H  H238  1  0.019400  0.223300  0.540200  1.0
  H  H239  1  0.203900  0.980600  0.540200  1.0
  H  H240  1  0.980600  0.203900  0.459800  1.0
  H  H241  1  0.223300  0.019400  0.459800  1.0
  H  H242  1  0.796100  0.776700  0.459800  1.0
  H  H243  1  0.721100  0.728900  0.566300  1.0
  H  H244  1  0.007800  0.278900  0.566300  1.0
  H  H245  1  0.271100  0.992200  0.566300  1.0
  H  H246  1  0.992200  0.271100  0.433700  1.0
  H  H247  1  0.278900  0.007800  0.433700  1.0
  H  H248  1  0.728900  0.721100  0.433700  1.0
  H  H249  1  0.786700  0.777800  0.598000  1.0
  H  H250  1  0.991100  0.213300  0.598000  1.0
  H  H251  1  0.222200  0.008900  0.598000  1.0
  H  H252  1  0.008900  0.222200  0.402000  1.0
  H  H253  1  0.213300  0.991100  0.402000  1.0
  H  H254  1  0.777800  0.786700  0.402000  1.0
  H  H255  1  0.290700  0.453600  0.747000  1.0
  H  H256  1  0.162900  0.709300  0.747000  1.0
  H  H257  1  0.546400  0.837100  0.747000  1.0
  H  H258  1  0.837100  0.546400  0.253000  1.0
  H  H259  1  0.709300  0.162900  0.253000  1.0
  H  H260  1  0.453600  0.290700  0.253000  1.0
  H  H261  1  0.267600  0.405900  0.899700  1.0
  H  H262  1  0.138300  0.732400  0.899700  1.0
  H  H263  1  0.594100  0.861700  0.899700  1.0
  H  H264  1  0.861700  0.594100  0.100300  1.0
  H  H265  1  0.732400  0.138300  0.100300  1.0
  H  H266  1  0.405900  0.267600  0.100300  1.0
  H  H267  1  0.158900  0.321700  0.883900  1.0
  H  H268  1  0.162800  0.841100  0.883900  1.0
  H  H269  1  0.678300  0.837200  0.883900  1.0
  H  H270  1  0.837200  0.678300  0.116100  1.0
  H  H271  1  0.841100  0.162800  0.116100  1.0
  H  H272  1  0.321700  0.158900  0.116100  1.0
  H  H273  1  0.068200  0.254600  0.813700  1.0
  H  H274  1  0.186400  0.931800  0.813700  1.0
  H  H275  1  0.745400  0.813600  0.813700  1.0
  H  H276  1  0.813600  0.745400  0.186300  1.0
  H  H277  1  0.931800  0.186400  0.186300  1.0
  H  H278  1  0.254600  0.068200  0.186300  1.0
  H  H279  1  0.025800  0.214800  0.687000  1.0
  H  H280  1  0.189000  0.974200  0.687000  1.0
  H  H281  1  0.785200  0.811000  0.687000  1.0
  H  H282  1  0.811000  0.785200  0.313000  1.0
  H  H283  1  0.974200  0.189000  0.313000  1.0
  H  H284  1  0.214800  0.025800  0.313000  1.0
  H  H285  1  0.985300  0.286100  0.693400  1.0
  H  H286  1  0.300800  0.014700  0.693400  1.0
  H  H287  1  0.713900  0.699200  0.693400  1.0
  H  H288  1  0.699200  0.713900  0.306600  1.0
  H  H289  1  0.014700  0.300800  0.306600  1.0
  H  H290  1  0.286100  0.985300  0.306600  1.0
  H  H291  1  0.911700  0.177300  0.662600  1.0
  H  H292  1  0.265600  0.088300  0.662600  1.0
  H  H293  1  0.822700  0.734400  0.662600  1.0
  H  H294  1  0.734400  0.822700  0.337400  1.0
  H  H295  1  0.088300  0.265600  0.337400  1.0
  H  H296  1  0.177300  0.911700  0.337400  1.0
  H  H297  1  0.882300  0.154400  0.719900  1.0
  H  H298  1  0.272100  0.117700  0.719900  1.0
  H  H299  1  0.845600  0.727900  0.719900  1.0
  H  H300  1  0.727900  0.845600  0.280100  1.0
  H  H301  1  0.117700  0.272100  0.280100  1.0
  H  H302  1  0.154400  0.882300  0.280100  1.0
  H  H303  1  0.871800  0.253000  0.659400  1.0
  H  H304  1  0.381200  0.128200  0.659400  1.0
  H  H305  1  0.747000  0.618800  0.659400  1.0
  H  H306  1  0.618800  0.747000  0.340600  1.0
  H  H307  1  0.128200  0.381200  0.340600  1.0
  H  H308  1  0.253000  0.871800  0.340600  1.0
  H  H309  1  0.811000  0.181100  0.672900  1.0
  H  H310  1  0.370100  0.189000  0.672900  1.0
  H  H311  1  0.818900  0.629900  0.672900  1.0
  H  H312  1  0.629900  0.818900  0.327100  1.0
  H  H313  1  0.189000  0.370100  0.327100  1.0
  H  H314  1  0.181100  0.811000  0.327100  1.0
  H  H315  1  0.813100  0.264500  0.727200  1.0
  H  H316  1  0.451400  0.186900  0.727200  1.0
  H  H317  1  0.735500  0.548600  0.727200  1.0
  H  H318  1  0.548600  0.735500  0.272800  1.0
  H  H319  1  0.186900  0.451400  0.272800  1.0
  H  H320  1  0.264500  0.813100  0.272800  1.0
  H  H321  1  0.816100  0.207800  0.759800  1.0
  H  H322  1  0.391700  0.183900  0.759800  1.0
  H  H323  1  0.792200  0.608300  0.759800  1.0
  H  H324  1  0.608300  0.792200  0.240200  1.0
  H  H325  1  0.183900  0.391700  0.240200  1.0
  H  H326  1  0.207800  0.816100  0.240200  1.0
  H  H327  1  0.891200  0.305900  0.795700  1.0
  H  H328  1  0.414700  0.108800  0.795700  1.0
  H  H329  1  0.694100  0.585300  0.795700  1.0
  H  H330  1  0.585300  0.694100  0.204300  1.0
  H  H331  1  0.108800  0.414700  0.204300  1.0
  H  H332  1  0.305900  0.891200  0.204300  1.0
  H  H333  1  0.922400  0.336900  0.740400  1.0
  H  H334  1  0.414500  0.077600  0.740400  1.0
  H  H335  1  0.663100  0.585500  0.740400  1.0
  H  H336  1  0.585500  0.663100  0.259600  1.0
  H  H337  1  0.077600  0.414500  0.259600  1.0
  H  H338  1  0.336900  0.922400  0.259600  1.0
  H  H339  1  0.936200  0.238900  0.794500  1.0
  H  H340  1  0.302700  0.063800  0.794500  1.0
  H  H341  1  0.761100  0.697300  0.794500  1.0
  H  H342  1  0.697300  0.761100  0.205500  1.0
  H  H343  1  0.063800  0.302700  0.205500  1.0
  H  H344  1  0.238900  0.936200  0.205500  1.0
  H  H345  1  0.994100  0.312100  0.781100  1.0
  H  H346  1  0.318000  0.005900  0.781100  1.0
  H  H347  1  0.687900  0.682000  0.781100  1.0
  H  H348  1  0.682000  0.687900  0.218900  1.0
  H  H349  1  0.005900  0.318000  0.218900  1.0
  H  H350  1  0.312100  0.994100  0.218900  1.0
  H  H351  1  0.033700  0.157800  0.763200  1.0
  H  H352  1  0.124100  0.966300  0.763200  1.0
  H  H353  1  0.842200  0.875900  0.763200  1.0
  H  H354  1  0.875900  0.842200  0.236800  1.0
  H  H355  1  0.966300  0.124100  0.236800  1.0
  H  H356  1  0.157800  0.033700  0.236800  1.0
  H  H357  1  0.962500  0.125200  0.736100  1.0
  H  H358  1  0.162700  0.037500  0.736100  1.0
  H  H359  1  0.874800  0.837300  0.736100  1.0
  H  H360  1  0.837300  0.874800  0.263900  1.0
  H  H361  1  0.037500  0.162700  0.263900  1.0
  H  H362  1  0.125200  0.962500  0.263900  1.0
  H  H363  1  0.976400  0.167800  0.788000  1.0
  H  H364  1  0.191400  0.023600  0.788000  1.0
  H  H365  1  0.832200  0.808600  0.788000  1.0
  H  H366  1  0.808600  0.832200  0.212000  1.0
  H  H367  1  0.023600  0.191400  0.212000  1.0
  H  H368  1  0.167800  0.976400  0.212000  1.0
  H  H369  1  0.732800  0.936100  0.773000  1.0
  H  H370  1  0.203300  0.267200  0.773000  1.0
  H  H371  1  0.063900  0.796700  0.773000  1.0
  H  H372  1  0.796700  0.063900  0.227000  1.0
  H  H373  1  0.267200  0.203300  0.227000  1.0
  H  H374  1  0.936100  0.732800  0.227000  1.0
  H  H375  1  0.862800  0.046000  0.756600  1.0
  H  H376  1  0.183200  0.137200  0.756600  1.0
  H  H377  1  0.954000  0.816800  0.756600  1.0
  H  H378  1  0.816800  0.954000  0.243400  1.0
  H  H379  1  0.137200  0.183200  0.243400  1.0
  H  H380  1  0.046000  0.862800  0.243400  1.0
  H  H381  1  0.845700  0.976500  0.782300  1.0
  H  H382  1  0.130800  0.154300  0.782300  1.0
  H  H383  1  0.023500  0.869200  0.782300  1.0
  H  H384  1  0.869200  0.023500  0.217700  1.0
  H  H385  1  0.154300  0.130800  0.217700  1.0
  H  H386  1  0.976500  0.845700  0.217700  1.0
  H  H387  1  0.797500  0.995900  0.855000  1.0
  H  H388  1  0.198400  0.202500  0.855000  1.0
  H  H389  1  0.004100  0.801600  0.855000  1.0
  H  H390  1  0.801600  0.004100  0.145000  1.0
  H  H391  1  0.202500  0.198400  0.145000  1.0
  H  H392  1  0.995900  0.797500  0.145000  1.0
  H  H393  1  0.867700  0.061000  0.847200  1.0
  H  H394  1  0.193300  0.132300  0.847200  1.0
  H  H395  1  0.939000  0.806700  0.847200  1.0
  H  H396  1  0.806700  0.939000  0.152800  1.0
  H  H397  1  0.132300  0.193300  0.152800  1.0
  H  H398  1  0.061000  0.867700  0.152800  1.0
  H  H399  1  0.783800  0.084800  0.868400  1.0
  H  H400  1  0.301000  0.216200  0.868400  1.0
  H  H401  1  0.915200  0.699000  0.868400  1.0
  H  H402  1  0.699000  0.915200  0.131600  1.0
  H  H403  1  0.216200  0.301000  0.131600  1.0
  H  H404  1  0.084800  0.783800  0.131600  1.0
  H  H405  1  0.819600  0.118100  0.814700  1.0
  H  H406  1  0.298500  0.180400  0.814700  1.0
  H  H407  1  0.881900  0.701500  0.814700  1.0
  H  H408  1  0.701500  0.881900  0.185300  1.0
  H  H409  1  0.180400  0.298500  0.185300  1.0
  H  H410  1  0.118100  0.819600  0.185300  1.0
  H  H411  1  0.707400  0.071500  0.802400  1.0
  H  H412  1  0.364100  0.292600  0.802400  1.0
  H  H413  1  0.928500  0.635900  0.802400  1.0
  H  H414  1  0.635900  0.928500  0.197600  1.0
  H  H415  1  0.292600  0.364100  0.197600  1.0
  H  H416  1  0.071500  0.707400  0.197600  1.0
  H  H417  1  0.693900  0.002200  0.825600  1.0
  H  H418  1  0.308300  0.306100  0.825600  1.0
  H  H419  1  0.997800  0.691700  0.825600  1.0
  H  H420  1  0.691700  0.997800  0.174400  1.0
  H  H421  1  0.306100  0.308300  0.174400  1.0
  H  H422  1  0.002200  0.693900  0.174400  1.0
  H  H423  1  0.688700  0.995200  0.734300  1.0
  H  H424  1  0.306500  0.311300  0.734300  1.0
  H  H425  1  0.004800  0.693500  0.734300  1.0
  H  H426  1  0.693500  0.004800  0.265700  1.0
  H  H427  1  0.311300  0.306500  0.265700  1.0
  H  H428  1  0.995200  0.688700  0.265700  1.0
  H  H429  1  0.760900  0.058800  0.729600  1.0
  H  H430  1  0.297900  0.239100  0.729600  1.0
  H  H431  1  0.941200  0.702100  0.729600  1.0
  H  H432  1  0.702100  0.941200  0.270400  1.0
  H  H433  1  0.239100  0.297900  0.270400  1.0
  H  H434  1  0.058800  0.760900  0.270400  1.0
  H  H435  1  0.791900  0.922500  0.701900  1.0
  H  H436  1  0.130600  0.208100  0.701900  1.0
  H  H437  1  0.077500  0.869400  0.701900  1.0
  H  H438  1  0.869400  0.077500  0.298100  1.0
  H  H439  1  0.208100  0.130600  0.298100  1.0
  H  H440  1  0.922500  0.791900  0.298100  1.0
  H  H441  1  0.823200  0.983000  0.630600  1.0
  H  H442  1  0.159800  0.176800  0.630600  1.0
  H  H443  1  0.017000  0.840200  0.630600  1.0
  H  H444  1  0.840200  0.017000  0.369400  1.0
  H  H445  1  0.176800  0.159800  0.369400  1.0
  H  H446  1  0.983000  0.823200  0.369400  1.0
  H  H447  1  0.842500  0.038300  0.674400  1.0
  H  H448  1  0.195800  0.157500  0.674400  1.0
  H  H449  1  0.961700  0.804200  0.674400  1.0
  H  H450  1  0.804200  0.961700  0.325600  1.0
  H  H451  1  0.157500  0.195800  0.325600  1.0
  H  H452  1  0.038300  0.842500  0.325600  1.0
  H  H453  1  0.776400  0.013800  0.641000  1.0
  H  H454  1  0.237400  0.223600  0.641000  1.0
  H  H455  1  0.986200  0.762600  0.641000  1.0
  H  H456  1  0.762600  0.986200  0.359000  1.0
  H  H457  1  0.223600  0.237400  0.359000  1.0
  H  H458  1  0.013800  0.776400  0.359000  1.0
  H  H459  1  0.684400  0.964400  0.644900  1.0
  H  H460  1  0.280000  0.315600  0.644900  1.0
  H  H461  1  0.035600  0.720000  0.644900  1.0
  H  H462  1  0.720000  0.035600  0.355100  1.0
  H  H463  1  0.315600  0.280000  0.355100  1.0
  H  H464  1  0.964400  0.684400  0.355100  1.0
  H  H465  1  0.570300  0.928600  0.600200  1.0
  H  H466  1  0.358300  0.429700  0.600200  1.0
  H  H467  1  0.071400  0.641700  0.600200  1.0
  H  H468  1  0.641700  0.071400  0.399800  1.0
  H  H469  1  0.429700  0.358300  0.399800  1.0
  H  H470  1  0.928600  0.570300  0.399800  1.0
  H  H471  1  0.460500  0.845500  0.590300  1.0
  H  H472  1  0.385000  0.539500  0.590300  1.0
  H  H473  1  0.154500  0.615000  0.590300  1.0
  H  H474  1  0.615000  0.154500  0.409700  1.0
  H  H475  1  0.539500  0.385000  0.409700  1.0
  H  H476  1  0.845500  0.460500  0.409700  1.0
  H  H477  1  0.499200  0.717000  0.664000  1.0
  H  H478  1  0.217800  0.500800  0.664000  1.0
  H  H479  1  0.283000  0.782200  0.664000  1.0
  H  H480  1  0.782200  0.283000  0.336000  1.0
  H  H481  1  0.500800  0.217800  0.336000  1.0
  H  H482  1  0.717000  0.499200  0.336000  1.0
  H  H483  1  0.418500  0.642800  0.619400  1.0
  H  H484  1  0.224300  0.581500  0.619400  1.0
  H  H485  1  0.357200  0.775700  0.619400  1.0
  H  H486  1  0.775700  0.357200  0.380600  1.0
  H  H487  1  0.581500  0.224300  0.380600  1.0
  H  H488  1  0.642800  0.418500  0.380600  1.0
  C  C489  1  0.635950  0.130030  0.679170  1
  C  C490  1  0.494080  0.364050  0.679170  1
  C  C491  1  0.869970  0.505920  0.679170  1
  C  C492  1  0.505920  0.869970  0.320830  1
  C  C493  1  0.364050  0.494080  0.320830  1
  C  C494  1  0.130030  0.635950  0.320830  1
  C  C495  1  0.646370  0.071720  0.694910  1
  C  C496  1  0.425350  0.353630  0.694910  1
  C  C497  1  0.928280  0.574650  0.694910  1
  C  C498  1  0.574650  0.928280  0.305090  1
  C  C499  1  0.353630  0.425350  0.305090  1
  C  C500  1  0.071720  0.646370  0.305090  1
  C  C501  1  0.341190  0.689390  0.791260  1
  C  C502  1  0.348200  0.658810  0.791260  1
  C  C503  1  0.310610  0.651800  0.791260  1
  C  C504  1  0.651800  0.310610  0.208740  1
  C  C505  1  0.658810  0.348200  0.208740  1
  C  C506  1  0.689390  0.341190  0.208740  1
  C  C507  1  0.672820  0.963320  0.015790  1
  C  C508  1  0.290500  0.327180  0.015790  1
  C  C509  1  0.036680  0.709500  0.015790  1
  C  C510  1  0.709500  0.036680  0.984210  1
  C  C511  1  0.327180  0.290500  0.984210  1
  C  C512  1  0.963320  0.672820  0.984210  1
  C  C513  1  0.425800  0.833900  0.117900  1.0
  C  C514  1  0.408100  0.574200  0.117900  1.0
  C  C515  1  0.166100  0.591900  0.117900  1.0
  C  C516  1  0.591900  0.166100  0.882100  1.0
  C  C517  1  0.574200  0.408100  0.882100  1.0
  C  C518  1  0.833900  0.425800  0.882100  1.0
  C  C519  1  0.485800  0.875200  0.082500  1.0
  C  C520  1  0.389400  0.514200  0.082500  1.0
  C  C521  1  0.124800  0.610600  0.082500  1.0
  C  C522  1  0.610600  0.124800  0.917500  1.0
  C  C523  1  0.514200  0.389400  0.917500  1.0
  C  C524  1  0.875200  0.485800  0.917500  1.0
  C  C525  1  0.483200  0.935700  0.063100  1.0
  C  C526  1  0.452500  0.516800  0.063100  1.0
  C  C527  1  0.064300  0.547500  0.063100  1.0
  C  C528  1  0.547500  0.064300  0.936900  1.0
  C  C529  1  0.516800  0.452500  0.936900  1.0
  C  C530  1  0.935700  0.483200  0.936900  1.0
  C  C531  1  0.485200  0.978800  0.108400  1.0
  C  C532  1  0.493600  0.514800  0.108400  1.0
  C  C533  1  0.021200  0.506400  0.108400  1.0
  C  C534  1  0.506400  0.021200  0.891600  1.0
  C  C535  1  0.514800  0.493600  0.891600  1.0
  C  C536  1  0.978800  0.485200  0.891600  1.0
  C  C537  1  0.427500  0.938500  0.144500  1.0
  C  C538  1  0.511000  0.572500  0.144500  1.0
  C  C539  1  0.061500  0.489000  0.144500  1.0
  C  C540  1  0.489000  0.061500  0.855500  1.0
  C  C541  1  0.572500  0.511000  0.855500  1.0
  C  C542  1  0.938500  0.427500  0.855500  1.0
  C  C543  1  0.430600  0.876800  0.164800  1.0
  C  C544  1  0.446200  0.569400  0.164800  1.0
  C  C545  1  0.123200  0.553800  0.164800  1.0
  C  C546  1  0.553800  0.123200  0.835200  1.0
  C  C547  1  0.569400  0.446200  0.835200  1.0
  C  C548  1  0.876800  0.430600  0.835200  1.0
  C  C549  1  0.418600  0.766900  0.135700  1.0
  C  C550  1  0.348300  0.581400  0.135700  1.0
  C  C551  1  0.233100  0.651700  0.135700  1.0
  C  C552  1  0.651700  0.233100  0.864300  1.0
  C  C553  1  0.581400  0.348300  0.864300  1.0
  C  C554  1  0.766900  0.418600  0.864300  1.0
  C  C555  1  0.473500  0.773000  0.173500  1.0
  C  C556  1  0.299500  0.526500  0.173500  1.0
  C  C557  1  0.227000  0.700500  0.173500  1.0
  C  C558  1  0.700500  0.227000  0.826500  1.0
  C  C559  1  0.526500  0.299500  0.826500  1.0
  C  C560  1  0.773000  0.473500  0.826500  1.0
  C  C561  1  0.468300  0.735200  0.069100  1.0
  C  C562  1  0.266900  0.531700  0.069100  1.0
  C  C563  1  0.264800  0.733100  0.069100  1.0
  C  C564  1  0.733100  0.264800  0.930900  1.0
  C  C565  1  0.531700  0.266900  0.930900  1.0
  C  C566  1  0.735200  0.468300  0.930900  1.0
  C  C567  1  0.464890  0.700050  0.024100  1.0
  C  C568  1  0.235160  0.535110  0.024100  1.0
  C  C569  1  0.299950  0.764840  0.024100  1.0
  C  C570  1  0.764840  0.299950  0.975900  1.0
  C  C571  1  0.535110  0.235160  0.975900  1.0
  C  C572  1  0.700050  0.464890  0.975900  1.0
  C  C573  1  0.518290  0.703150  0.997630  1.0
  C  C574  1  0.184860  0.481710  0.997630  1.0
  C  C575  1  0.296850  0.815140  0.997630  1.0
  C  C576  1  0.815140  0.296850  0.002370  1.0
  C  C577  1  0.481710  0.184860  0.002370  1.0
  C  C578  1  0.703150  0.518290  0.002370  1.0
  C  C579  1  0.507700  0.666140  0.952740  1.0
  C  C580  1  0.158440  0.492300  0.952740  1.0
  C  C581  1  0.333860  0.841560  0.952740  1.0
  C  C582  1  0.841560  0.333860  0.047260  1.0
  C  C583  1  0.492300  0.158440  0.047260  1.0
  C  C584  1  0.666140  0.507700  0.047260  1.0
  C  C585  1  0.443700  0.626040  0.934320  1.0
  C  C586  1  0.182340  0.556300  0.934320  1.0
  C  C587  1  0.373960  0.817660  0.934320  1.0
  C  C588  1  0.817660  0.373960  0.065680  1.0
  C  C589  1  0.556300  0.182340  0.065680  1.0
  C  C590  1  0.626040  0.443700  0.065680  1.0
  C  C591  1  0.390300  0.622940  0.960790  1.0
  C  C592  1  0.232640  0.609700  0.960790  1.0
  C  C593  1  0.377060  0.767360  0.960790  1.0
  C  C594  1  0.767360  0.377060  0.039210  1.0
  C  C595  1  0.609700  0.232640  0.039210  1.0
  C  C596  1  0.622940  0.390300  0.039210  1.0
  C  C597  1  0.431000  0.588500  0.885560  1.0
  C  C598  1  0.157500  0.569000  0.885560  1.0
  C  C599  1  0.411500  0.842500  0.885560  1.0
  C  C600  1  0.842500  0.411500  0.114440  1.0
  C  C601  1  0.569000  0.157500  0.114440  1.0
  C  C602  1  0.588500  0.431000  0.114440  1.0
  C  C603  1  0.371300  0.529300  0.878500  1.0
  C  C604  1  0.158000  0.628700  0.878500  1.0
  C  C605  1  0.470700  0.842000  0.878500  1.0
  C  C606  1  0.842000  0.470700  0.121500  1.0
  C  C607  1  0.628700  0.158000  0.121500  1.0
  C  C608  1  0.529300  0.371300  0.121500  1.0
  C  C609  1  0.356900  0.494800  0.832380  1.0
  C  C610  1  0.137900  0.643100  0.832380  1.0
  C  C611  1  0.505200  0.862100  0.832380  1.0
  C  C612  1  0.862100  0.505200  0.167620  1.0
  C  C613  1  0.643100  0.137900  0.167620  1.0
  C  C614  1  0.494800  0.356900  0.167620  1.0
  C  C615  1  0.403700  0.520000  0.792220  1.0
  C  C616  1  0.116300  0.596300  0.792220  1.0
  C  C617  1  0.480000  0.883700  0.792220  1.0
  C  C618  1  0.883700  0.480000  0.207780  1.0
  C  C619  1  0.596300  0.116300  0.207780  1.0
  C  C620  1  0.520000  0.403700  0.207780  1.0
  C  C621  1  0.463100  0.579000  0.797440  1.0
  C  C622  1  0.115900  0.536900  0.797440  1.0
  C  C623  1  0.421000  0.884100  0.797440  1.0
  C  C624  1  0.884100  0.421000  0.202560  1.0
  C  C625  1  0.536900  0.115900  0.202560  1.0
  C  C626  1  0.579000  0.463100  0.202560  1.0
  C  C627  1  0.476300  0.612000  0.844810  1.0
  C  C628  1  0.135700  0.523700  0.844810  1.0
  C  C629  1  0.388000  0.864300  0.844810  1.0
  C  C630  1  0.864300  0.388000  0.155190  1.0
  C  C631  1  0.523700  0.135700  0.155190  1.0
  C  C632  1  0.612000  0.476300  0.155190  1.0
  C  C633  1  0.550000  0.675300  0.750020  1.0
  C  C634  1  0.125300  0.450000  0.750020  1.0
  C  C635  1  0.324700  0.874700  0.750020  1.0
  C  C636  1  0.874700  0.324700  0.249980  1.0
  C  C637  1  0.450000  0.125300  0.249980  1.0
  C  C638  1  0.675300  0.550000  0.249980  1.0
  C  C639  1  0.508700  0.608100  0.753100  1.0
  C  C640  1  0.099400  0.491300  0.753100  1.0
  C  C641  1  0.391900  0.900600  0.753100  1.0
  C  C642  1  0.900600  0.391900  0.246900  1.0
  C  C643  1  0.491300  0.099400  0.246900  1.0
  C  C644  1  0.608100  0.508700  0.246900  1.0
  C  C645  1  0.509800  0.570100  0.711300  1.0
  C  C646  1  0.060300  0.490200  0.711300  1.0
  C  C647  1  0.429900  0.939700  0.711300  1.0
  C  C648  1  0.939700  0.429900  0.288700  1.0
  C  C649  1  0.490200  0.060300  0.288700  1.0
  C  C650  1  0.570100  0.509800  0.288700  1.0
  C  C651  1  0.549300  0.599000  0.668700  1.0
  C  C652  1  0.049700  0.450700  0.668700  1.0
  C  C653  1  0.401000  0.950300  0.668700  1.0
  C  C654  1  0.950300  0.401000  0.331300  1.0
  C  C655  1  0.450700  0.049700  0.331300  1.0
  C  C656  1  0.599000  0.549300  0.331300  1.0
  C  C657  1  0.589900  0.669100  0.668700  1.0
  C  C658  1  0.079200  0.410100  0.668700  1.0
  C  C659  1  0.330900  0.920800  0.668700  1.0
  C  C660  1  0.920800  0.330900  0.331300  1.0
  C  C661  1  0.410100  0.079200  0.331300  1.0
  C  C662  1  0.669100  0.589900  0.331300  1.0
  C  C663  1  0.634700  0.706400  0.627800  1.0
  C  C664  1  0.071700  0.365300  0.627800  1.0
  C  C665  1  0.293600  0.928300  0.627800  1.0
  C  C666  1  0.928300  0.293600  0.372200  1.0
  C  C667  1  0.365300  0.071700  0.372200  1.0
  C  C668  1  0.706400  0.634700  0.372200  1.0
  C  C669  1  0.720300  0.811500  0.593800  1.0
  C  C670  1  0.091200  0.279700  0.593800  1.0
  C  C671  1  0.188500  0.908800  0.593800  1.0
  C  C672  1  0.908800  0.188500  0.406200  1.0
  C  C673  1  0.279700  0.091200  0.406200  1.0
  C  C674  1  0.811500  0.720300  0.406200  1.0
  C  C675  1  0.689400  0.834500  0.553000  1.0
  C  C676  1  0.145100  0.310600  0.553000  1.0
  C  C677  1  0.165500  0.854900  0.553000  1.0
  C  C678  1  0.854900  0.165500  0.447000  1.0
  C  C679  1  0.310600  0.145100  0.447000  1.0
  C  C680  1  0.834500  0.689400  0.447000  1.0
  C  C681  1  0.741200  0.881000  0.514800  1.0
  C  C682  1  0.139800  0.258800  0.514800  1.0
  C  C683  1  0.119000  0.860200  0.514800  1.0
  C  C684  1  0.860200  0.119000  0.485200  1.0
  C  C685  1  0.258800  0.139800  0.485200  1.0
  C  C686  1  0.881000  0.741200  0.485200  1.0
  C  C687  1  0.713400  0.911500  0.477500  1.0
  C  C688  1  0.198100  0.286600  0.477500  1.0
  C  C689  1  0.088500  0.801900  0.477500  1.0
  C  C690  1  0.801900  0.088500  0.522500  1.0
  C  C691  1  0.286600  0.198100  0.522500  1.0
  C  C692  1  0.911500  0.713400  0.522500  1.0
  C  C693  1  0.657400  0.856900  0.447000  1.0
  C  C694  1  0.199500  0.342600  0.447000  1.0
  C  C695  1  0.143100  0.800500  0.447000  1.0
  C  C696  1  0.800500  0.143100  0.553000  1.0
  C  C697  1  0.342600  0.199500  0.553000  1.0
  C  C698  1  0.856900  0.657400  0.553000  1.0
  C  C699  1  0.603300  0.809600  0.483600  1.0
  C  C700  1  0.206300  0.396700  0.483600  1.0
  C  C701  1  0.190400  0.793700  0.483600  1.0
  C  C702  1  0.793700  0.190400  0.516400  1.0
  C  C703  1  0.396700  0.206300  0.516400  1.0
  C  C704  1  0.809600  0.603300  0.516400  1.0
  C  C705  1  0.633000  0.780200  0.523100  1.0
  C  C706  1  0.147200  0.367000  0.523100  1.0
  C  C707  1  0.219800  0.852800  0.523100  1.0
  C  C708  1  0.852800  0.219800  0.476900  1.0
  C  C709  1  0.367000  0.147200  0.476900  1.0
  C  C710  1  0.780200  0.633000  0.476900  1.0
  C  C711  1  0.754200  0.775400  0.572700  1.0
  C  C712  1  0.021200  0.245800  0.572700  1.0
  C  C713  1  0.224600  0.978800  0.572700  1.0
  C  C714  1  0.978800  0.224600  0.427300  1.0
  C  C715  1  0.245800  0.021200  0.427300  1.0
  C  C716  1  0.775400  0.754200  0.427300  1.0
  C  C717  1  0.263910  0.426770  0.774740  1.0
  C  C718  1  0.162860  0.736090  0.774740  1.0
  C  C719  1  0.573230  0.837140  0.774740  1.0
  C  C720  1  0.837140  0.573230  0.225260  1.0
  C  C721  1  0.736090  0.162860  0.225260  1.0
  C  C722  1  0.426770  0.263910  0.225260  1.0
  C  C723  1  0.289370  0.437680  0.824800  1.0
  C  C724  1  0.148310  0.710630  0.824800  1.0
  C  C725  1  0.562320  0.851690  0.824800  1.0
  C  C726  1  0.851690  0.562320  0.175200  1.0
  C  C727  1  0.710630  0.148310  0.175200  1.0
  C  C728  1  0.437680  0.289370  0.175200  1.0
  C  C729  1  0.250240  0.398530  0.865470  1.0
  C  C730  1  0.148290  0.749760  0.865470  1.0
  C  C731  1  0.601470  0.851710  0.865470  1.0
  C  C732  1  0.851710  0.601470  0.134530  1.0
  C  C733  1  0.749760  0.148290  0.134530  1.0
  C  C734  1  0.398530  0.250240  0.134530  1.0
  C  C735  1  0.185650  0.348450  0.856070  1.0
  C  C736  1  0.162800  0.814350  0.856070  1.0
  C  C737  1  0.651550  0.837200  0.856070  1.0
  C  C738  1  0.837200  0.651550  0.143930  1.0
  C  C739  1  0.814350  0.162800  0.143930  1.0
  C  C740  1  0.348450  0.185650  0.143930  1.0
  C  C741  1  0.160190  0.337590  0.806010  1.0
  C  C742  1  0.177400  0.839810  0.806010  1.0
  C  C743  1  0.662410  0.822600  0.806010  1.0
  C  C744  1  0.822600  0.662410  0.193990  1.0
  C  C745  1  0.839810  0.177400  0.193990  1.0
  C  C746  1  0.337590  0.160190  0.193990  1.0
  C  C747  1  0.098500  0.286100  0.789700  1.0
  C  C748  1  0.187600  0.901500  0.789700  1.0
  C  C749  1  0.713900  0.812400  0.789700  1.0
  C  C750  1  0.812400  0.713900  0.210300  1.0
  C  C751  1  0.901500  0.187600  0.210300  1.0
  C  C752  1  0.286100  0.098500  0.210300  1.0
  C  C753  1  0.018700  0.226000  0.723000  1.0
  C  C754  1  0.207300  0.981300  0.723000  1.0
  C  C755  1  0.774000  0.792700  0.723000  1.0
  C  C756  1  0.792700  0.774000  0.277000  1.0
  C  C757  1  0.981300  0.207300  0.277000  1.0
  C  C758  1  0.226000  0.018700  0.277000  1.0
  C  C759  1  0.967500  0.248900  0.719000  1.0
  C  C760  1  0.281400  0.032500  0.719000  1.0
  C  C761  1  0.751100  0.718600  0.719000  1.0
  C  C762  1  0.718600  0.751100  0.281000  1.0
  C  C763  1  0.032500  0.281400  0.281000  1.0
  C  C764  1  0.248900  0.967500  0.281000  1.0
  C  C765  1  0.902300  0.192500  0.695700  1.0
  C  C766  1  0.290200  0.097700  0.695700  1.0
  C  C767  1  0.807500  0.709800  0.695700  1.0
  C  C768  1  0.709800  0.807500  0.304300  1.0
  C  C769  1  0.097700  0.290200  0.304300  1.0
  C  C770  1  0.192500  0.902300  0.304300  1.0
  C  C771  1  0.853400  0.217800  0.686100  1.0
  C  C772  1  0.364400  0.146600  0.686100  1.0
  C  C773  1  0.782200  0.635600  0.686100  1.0
  C  C774  1  0.635600  0.782200  0.313900  1.0
  C  C775  1  0.146600  0.364400  0.313900  1.0
  C  C776  1  0.217800  0.853400  0.313900  1.0
  C  C777  1  0.841100  0.244900  0.735300  1.0
  C  C778  1  0.403800  0.158900  0.735300  1.0
  C  C779  1  0.755100  0.596200  0.735300  1.0
  C  C780  1  0.596200  0.755100  0.264700  1.0
  C  C781  1  0.158900  0.403800  0.264700  1.0
  C  C782  1  0.244900  0.841100  0.264700  1.0
  C  C783  1  0.902600  0.295700  0.761200  1.0
  C  C784  1  0.393100  0.097400  0.761200  1.0
  C  C785  1  0.704300  0.606900  0.761200  1.0
  C  C786  1  0.606900  0.704300  0.238800  1.0
  C  C787  1  0.097400  0.393100  0.238800  1.0
  C  C788  1  0.295700  0.902600  0.238800  1.0
  C  C789  1  0.952500  0.274200  0.767900  1.0
  C  C790  1  0.321700  0.047500  0.767900  1.0
  C  C791  1  0.725800  0.678300  0.767900  1.0
  C  C792  1  0.678300  0.725800  0.232100  1.0
  C  C793  1  0.047500  0.321700  0.232100  1.0
  C  C794  1  0.274200  0.952500  0.232100  1.0
  C  C795  1  0.995800  0.163600  0.755400  1.0
  C  C796  1  0.167800  0.004200  0.755400  1.0
  C  C797  1  0.836400  0.832200  0.755400  1.0
  C  C798  1  0.832200  0.836400  0.244600  1.0
  C  C799  1  0.004200  0.167800  0.244600  1.0
  C  C800  1  0.163600  0.995800  0.244600  1.0
  C  C801  1  0.762600  0.975400  0.751300  1.0
  C  C802  1  0.212800  0.237400  0.751300  1.0
  C  C803  1  0.024600  0.787200  0.751300  1.0
  C  C804  1  0.787200  0.024600  0.248700  1.0
  C  C805  1  0.237400  0.212800  0.248700  1.0
  C  C806  1  0.975400  0.762600  0.248700  1.0
  C  C807  1  0.830100  0.008700  0.778000  1.0
  C  C808  1  0.178600  0.169900  0.778000  1.0
  C  C809  1  0.991300  0.821400  0.778000  1.0
  C  C810  1  0.821400  0.991300  0.222000  1.0
  C  C811  1  0.169900  0.178600  0.222000  1.0
  C  C812  1  0.008700  0.830100  0.222000  1.0
  C  C813  1  0.823000  0.034500  0.832000  1.0
  C  C814  1  0.211500  0.177000  0.832000  1.0
  C  C815  1  0.965500  0.788500  0.832000  1.0
  C  C816  1  0.788500  0.965500  0.168000  1.0
  C  C817  1  0.177000  0.211500  0.168000  1.0
  C  C818  1  0.034500  0.823000  0.168000  1.0
  C  C819  1  0.790400  0.075300  0.832100  1.0
  C  C820  1  0.284900  0.209600  0.832100  1.0
  C  C821  1  0.924700  0.715100  0.832100  1.0
  C  C822  1  0.715100  0.924700  0.167900  1.0
  C  C823  1  0.209600  0.284900  0.167900  1.0
  C  C824  1  0.075300  0.790400  0.167900  1.0
  C  C825  1  0.725500  0.041300  0.805100  1.0
  C  C826  1  0.315800  0.274500  0.805100  1.0
  C  C827  1  0.958700  0.684200  0.805100  1.0
  C  C828  1  0.684200  0.958700  0.194900  1.0
  C  C829  1  0.274500  0.315800  0.194900  1.0
  C  C830  1  0.041300  0.725500  0.194900  1.0
  C  C831  1  0.732800  0.019100  0.750900  1.0
  C  C832  1  0.286300  0.267200  0.750900  1.0
  C  C833  1  0.980900  0.713700  0.750900  1.0
  C  C834  1  0.713700  0.980900  0.249100  1.0
  C  C835  1  0.267200  0.286300  0.249100  1.0
  C  C836  1  0.019100  0.732800  0.249100  1.0
  C  C837  1  0.767600  0.947200  0.696500  1.0
  C  C838  1  0.179600  0.232400  0.696500  1.0
  C  C839  1  0.052800  0.820400  0.696500  1.0
  C  C840  1  0.820400  0.052800  0.303500  1.0
  C  C841  1  0.232400  0.179600  0.303500  1.0
  C  C842  1  0.947200  0.767600  0.303500  1.0
  C  C843  1  0.805700  0.000100  0.657200  1.0
  C  C844  1  0.194400  0.194300  0.657200  1.0
  C  C845  1  0.999900  0.805600  0.657200  1.0
  C  C846  1  0.805600  0.999900  0.342800  1.0
  C  C847  1  0.194300  0.194400  0.342800  1.0
  C  C848  1  0.000100  0.805700  0.342800  1.0
  C  C849  1  0.665100  0.919300  0.654600  1.0
  C  C850  1  0.254200  0.334900  0.654600  1.0
  C  C851  1  0.080700  0.745800  0.654600  1.0
  C  C852  1  0.745800  0.080700  0.345400  1.0
  C  C853  1  0.334900  0.254200  0.345400  1.0
  C  C854  1  0.919300  0.665100  0.345400  1.0
  C  C855  1  0.596300  0.871300  0.641800  1.0
  C  C856  1  0.275000  0.403700  0.641800  1.0
  C  C857  1  0.128700  0.725000  0.641800  1.0
  C  C858  1  0.725000  0.128700  0.358200  1.0
  C  C859  1  0.403700  0.275000  0.358200  1.0
  C  C860  1  0.871300  0.596300  0.358200  1.0
  C  C861  1  0.555000  0.885600  0.614200  1.0
  C  C862  1  0.330600  0.445000  0.614200  1.0
  C  C863  1  0.114400  0.669400  0.614200  1.0
  C  C864  1  0.669400  0.114400  0.385800  1.0
  C  C865  1  0.445000  0.330600  0.385800  1.0
  C  C866  1  0.885600  0.555000  0.385800  1.0
  C  C867  1  0.490900  0.836100  0.607500  1.0
  C  C868  1  0.345200  0.509100  0.607500  1.0
  C  C869  1  0.163900  0.654800  0.607500  1.0
  C  C870  1  0.654800  0.163900  0.392500  1.0
  C  C871  1  0.509100  0.345200  0.392500  1.0
  C  C872  1  0.836100  0.490900  0.392500  1.0
  C  C873  1  0.469800  0.772800  0.625200  1.0
  C  C874  1  0.303000  0.530200  0.625200  1.0
  C  C875  1  0.227200  0.697000  0.625200  1.0
  C  C876  1  0.697000  0.227200  0.374800  1.0
  C  C877  1  0.530200  0.303000  0.374800  1.0
  C  C878  1  0.772800  0.469800  0.374800  1.0
  C  C879  1  0.513900  0.760400  0.651500  1.0
  C  C880  1  0.246500  0.486100  0.651500  1.0
  C  C881  1  0.239600  0.753500  0.651500  1.0
  C  C882  1  0.753500  0.239600  0.348500  1.0
  C  C883  1  0.486100  0.246500  0.348500  1.0
  C  C884  1  0.760400  0.513900  0.348500  1.0
  C  C885  1  0.399200  0.717800  0.620300  1.0
  C  C886  1  0.318600  0.600800  0.620300  1.0
  C  C887  1  0.282200  0.681400  0.620300  1.0
  C  C888  1  0.681400  0.282200  0.379700  1.0
  C  C889  1  0.600800  0.318600  0.379700  1.0
  C  C890  1  0.717800  0.399200  0.379700  1.0
  C  C891  1  0.383600  0.652600  0.619900  1.0
  C  C892  1  0.269000  0.616400  0.619900  1.0
  C  C893  1  0.347400  0.731000  0.619900  1.0
  C  C894  1  0.731000  0.347400  0.380100  1.0
  C  C895  1  0.616400  0.269000  0.380100  1.0
  C  C896  1  0.652600  0.383600  0.380100  1.0
  S  S897  1  0.604880  0.044880  0.654720  1
  S  S898  1  0.440000  0.395120  0.654720  1
  S  S899  1  0.955120  0.560000  0.654720  1
  S  S900  1  0.560000  0.955120  0.345280  1
  S  S901  1  0.395120  0.440000  0.345280  1
  S  S902  1  0.044880  0.604880  0.345280  1
  S  S903  1  0.617990  0.076450  0.628810  1
  S  S904  1  0.458460  0.382010  0.628810  1
  S  S905  1  0.923550  0.541540  0.628810  1
  S  S906  1  0.541540  0.923550  0.371190  1
  S  S907  1  0.382010  0.458460  0.371190  1
  S  S908  1  0.076450  0.617990  0.371190  1
  S  S909  1  0.670200  0.886400  0.018800  1
  S  S910  1  0.216200  0.329800  0.018800  1
  S  S911  1  0.113600  0.783800  0.018800  1
  S  S912  1  0.783800  0.113600  0.981200  1
  S  S913  1  0.329800  0.216200  0.981200  1
  S  S914  1  0.886400  0.670200  0.981200  1
  S  S915  1  0.299060  0.603090  0.767130  1
  S  S916  1  0.304030  0.700940  0.767130  1
  S  S917  1  0.396910  0.695970  0.767130  1
  S  S918  1  0.695970  0.396910  0.232870  1
  S  S919  1  0.700940  0.304030  0.232870  1
  S  S920  1  0.603090  0.299060  0.232870  1
  S  S921  1  0.627180  0.871870  0.011360  1
  S  S922  1  0.244690  0.372820  0.011360  1
  S  S923  1  0.128130  0.755310  0.011360  1
  S  S924  1  0.755310  0.128130  0.988640  1
  S  S925  1  0.372820  0.244690  0.988640  1
  S  S926  1  0.871870  0.627180  0.988640  1
  N  N927  1  0.413500  0.726700  0.088270  1.0
  N  N928  1  0.313200  0.586500  0.088270  1.0
  N  N929  1  0.273300  0.686800  0.088270  1.0
  N  N930  1  0.686800  0.273300  0.911730  1.0
  N  N931  1  0.586500  0.313200  0.911730  1.0
  N  N932  1  0.726700  0.413500  0.911730  1.0
  N  N933  1  0.589600  0.706500  0.709200  1.0
  N  N934  1  0.116900  0.410400  0.709200  1.0
  N  N935  1  0.293500  0.883100  0.709200  1.0
  N  N936  1  0.883100  0.293500  0.290800  1.0
  N  N937  1  0.410400  0.116900  0.290800  1.0
  N  N938  1  0.706500  0.589600  0.290800  1.0
  N  N939  1  0.668800  0.769400  0.634120  1.0
  N  N940  1  0.100600  0.331200  0.634120  1.0
  N  N941  1  0.230600  0.899400  0.634120  1.0
  N  N942  1  0.899400  0.230600  0.365880  1.0
  N  N943  1  0.331200  0.100600  0.365880  1.0
  N  N944  1  0.769400  0.668800  0.365880  1.0
  N  N945  1  0.084000  0.282600  0.740960  1.0
  N  N946  1  0.198600  0.916000  0.740960  1.0
  N  N947  1  0.717400  0.801400  0.740960  1.0
  N  N948  1  0.801400  0.717400  0.259040  1.0
  N  N949  1  0.916000  0.198600  0.259040  1.0
  N  N950  1  0.282600  0.084000  0.259040  1.0
  N  N951  1  0.578600  0.808700  0.660220  1.0
  N  N952  1  0.230100  0.421400  0.660220  1.0
  N  N953  1  0.191300  0.769900  0.660220  1.0
  N  N954  1  0.769900  0.191300  0.339780  1.0
  N  N955  1  0.421400  0.230100  0.339780  1.0
  N  N956  1  0.808700  0.578600  0.339780  1.0
  N  N957  1  0.698600  0.897700  0.679690  1.0
  N  N958  1  0.199100  0.301400  0.679690  1.0
  N  N959  1  0.102300  0.800900  0.679690  1.0
  N  N960  1  0.800900  0.102300  0.320310  1.0
  N  N961  1  0.301400  0.199100  0.320310  1.0
  N  N962  1  0.897700  0.698600  0.320310  1.0
  N  N963  1  0.400890  0.659950  0.005680  1.0
  N  N964  1  0.259060  0.599110  0.005680  1.0
  N  N965  1  0.340050  0.740940  0.005680  1.0
  N  N966  1  0.740940  0.340050  0.994320  1.0
  N  N967  1  0.599110  0.259060  0.994320  1.0
  N  N968  1  0.659950  0.400890  0.994320  1.0
  N  N969  1  0.199320  0.376730  0.765340  1.0
  N  N970  1  0.177410  0.800680  0.765340  1.0
  N  N971  1  0.623270  0.822590  0.765340  1.0
  N  N972  1  0.822590  0.623270  0.234660  1.0
  N  N973  1  0.800680  0.177410  0.234660  1.0
  N  N974  1  0.376730  0.199320  0.234660  1.0
  O  O975  1  0.550780  0.035040  0.621510  1
  O  O976  1  0.484260  0.449220  0.621510  1
  O  O977  1  0.964960  0.515740  0.621510  1
  O  O978  1  0.515740  0.964960  0.378490  1
  O  O979  1  0.449220  0.484260  0.378490  1
  O  O980  1  0.035040  0.550780  0.378490  1
  O  O981  1  0.586070  0.006350  0.701950  1
  O  O982  1  0.420280  0.413930  0.701950  1
  O  O983  1  0.993650  0.579720  0.701950  1
  O  O984  1  0.579720  0.993650  0.298050  1
  O  O985  1  0.413930  0.420280  0.298050  1
  O  O986  1  0.006350  0.586070  0.298050  1
  O  O987  1  0.662180  0.050480  0.628430  1
  O  O988  1  0.388300  0.337820  0.628430  1
  O  O989  1  0.949520  0.611700  0.628430  1
  O  O990  1  0.611700  0.949520  0.371570  1
  O  O991  1  0.337820  0.388300  0.371570  1
  O  O992  1  0.050480  0.662180  0.371570  1
  O  O993  1  0.679220  0.121800  0.603060  1
  O  O994  1  0.442580  0.320780  0.603060  1
  O  O995  1  0.878200  0.557420  0.603060  1
  O  O996  1  0.557420  0.878200  0.396940  1
  O  O997  1  0.320780  0.442580  0.396940  1
  O  O998  1  0.121800  0.679220  0.396940  1
  O  O999  1  0.573460  0.101470  0.638550  1
  O  O1000  1  0.528010  0.426540  0.638550  1
  O  O1001  1  0.898530  0.471990  0.638550  1
  O  O1002  1  0.471990  0.898530  0.361450  1
  O  O1003  1  0.426540  0.528010  0.361450  1
  O  O1004  1  0.101470  0.573460  0.361450  1
  O  O1005  1  0.587030  0.008450  0.611600  1
  O  O1006  1  0.421420  0.412970  0.611600  1
  O  O1007  1  0.991550  0.578580  0.611600  1
  O  O1008  1  0.578580  0.991550  0.388400  1
  O  O1009  1  0.412970  0.421420  0.388400  1
  O  O1010  1  0.008450  0.587030  0.388400  1
  O  O1011  1  0.253760  0.603460  0.729040  1
  O  O1012  1  0.349700  0.746240  0.729040  1
  O  O1013  1  0.396540  0.650300  0.729040  1
  O  O1014  1  0.650300  0.396540  0.270960  1
  O  O1015  1  0.746240  0.349700  0.270960  1
  O  O1016  1  0.603460  0.253760  0.270960  1
  O  O1017  1  0.268800  0.565400  0.813640  1
  O  O1018  1  0.296600  0.731200  0.813640  1
  O  O1019  1  0.434600  0.703400  0.813640  1
  O  O1020  1  0.703400  0.434600  0.186360  1
  O  O1021  1  0.731200  0.296600  0.186360  1
  O  O1022  1  0.565400  0.268800  0.186360  1
  O  O1023  1  0.748100  0.891800  0.028800  1
  O  O1024  1  0.143700  0.251900  0.028800  1
  O  O1025  1  0.108200  0.856300  0.028800  1
  O  O1026  1  0.856300  0.108200  0.971200  1
  O  O1027  1  0.251900  0.143700  0.971200  1
  O  O1028  1  0.891800  0.748100  0.971200  1
  O  O1029  1  0.639500  0.849900  0.050600  1
  O  O1030  1  0.210400  0.360500  0.050600  1
  O  O1031  1  0.150100  0.789600  0.050600  1
  O  O1032  1  0.789600  0.150100  0.949400  1
  O  O1033  1  0.360500  0.210400  0.949400  1
  O  O1034  1  0.849900  0.639500  0.949400  1
  O  O1035  1  0.677300  0.894300  0.971800  1
  O  O1036  1  0.217000  0.322700  0.971800  1
  O  O1037  1  0.105700  0.783000  0.971800  1
  O  O1038  1  0.783000  0.105700  0.028200  1
  O  O1039  1  0.322700  0.217000  0.028200  1
  O  O1040  1  0.894300  0.677300  0.028200  1
  O  O1041  1  0.353440  0.597050  0.746570  1
  O  O1042  1  0.243610  0.646560  0.746570  1
  O  O1043  1  0.402950  0.756390  0.746570  1
  O  O1044  1  0.756390  0.402950  0.253430  1
  O  O1045  1  0.646560  0.243610  0.253430  1
  O  O1046  1  0.597050  0.353440  0.253430  1
  O  O1047  1  0.565380  0.858250  0.987850  1
  O  O1048  1  0.292870  0.434620  0.987850  1
  O  O1049  1  0.141750  0.707130  0.987850  1
  O  O1050  1  0.707130  0.141750  0.012150  1
  O  O1051  1  0.434620  0.292870  0.012150  1
  O  O1052  1  0.858250  0.565380  0.012150  1
  O  O1053  1  0.623060  0.852260  0.065020  1
  O  O1054  1  0.229200  0.376940  0.065020  1
  O  O1055  1  0.147740  0.770800  0.065020  1
  O  O1056  1  0.770800  0.147740  0.934980  1
  O  O1057  1  0.376940  0.229200  0.934980  1
  O  O1058  1  0.852260  0.623060  0.934980  1
  O  O1059  1  0.670160  0.859060  0.978990  1
  O  O1060  1  0.188900  0.329840  0.978990  1
  O  O1061  1  0.140940  0.811100  0.978990  1
  O  O1062  1  0.811100  0.140940  0.021010  1
  O  O1063  1  0.329840  0.188900  0.021010  1
  O  O1064  1  0.859060  0.670160  0.021010  1
  F  F1065  1  0.687360  0.149090  0.711380  1
  F  F1066  1  0.461730  0.312640  0.711380  1
  F  F1067  1  0.850910  0.538270  0.711380  1
  F  F1068  1  0.538270  0.850910  0.288620  1
  F  F1069  1  0.312640  0.461730  0.288620  1
  F  F1070  1  0.149090  0.687360  0.288620  1
  F  F1071  1  0.656300  0.174330  0.640590  1
  F  F1072  1  0.518030  0.343700  0.640590  1
  F  F1073  1  0.825670  0.481970  0.640590  1
  F  F1074  1  0.481970  0.825670  0.359410  1
  F  F1075  1  0.343700  0.518030  0.359410  1
  F  F1076  1  0.174330  0.656300  0.359410  1
  F  F1077  1  0.589320  0.135500  0.705290  1
  F  F1078  1  0.546180  0.410680  0.705290  1
  F  F1079  1  0.864500  0.453820  0.705290  1
  F  F1080  1  0.453820  0.864500  0.294710  1
  F  F1081  1  0.410680  0.546180  0.294710  1
  F  F1082  1  0.135500  0.589320  0.294710  1
  F  F1083  1  0.595940  0.031230  0.725620  1
  F  F1084  1  0.435290  0.404060  0.725620  1
  F  F1085  1  0.968770  0.564710  0.725620  1
  F  F1086  1  0.564710  0.968770  0.274380  1
  F  F1087  1  0.404060  0.435290  0.274380  1
  F  F1088  1  0.031230  0.595940  0.274380  1
  F  F1089  1  0.689010  0.049120  0.694400  1
  F  F1090  1  0.360110  0.310990  0.694400  1
  F  F1091  1  0.950880  0.639890  0.694400  1
  F  F1092  1  0.639890  0.950880  0.305600  1
  F  F1093  1  0.310990  0.360110  0.305600  1
  F  F1094  1  0.049120  0.689010  0.305600  1
  F  F1095  1  0.677070  0.130980  0.718110  1
  F  F1096  1  0.453910  0.322930  0.718110  1
  F  F1097  1  0.869020  0.546090  0.718110  1
  F  F1098  1  0.546090  0.869020  0.281890  1
  F  F1099  1  0.322930  0.453910  0.281890  1
  F  F1100  1  0.130980  0.677070  0.281890  1
  F  F1101  1  0.732770  0.986470  0.037020  1
  F  F1102  1  0.253700  0.267230  0.037020  1
  F  F1103  1  0.013530  0.746300  0.037020  1
  F  F1104  1  0.746300  0.013530  0.962980  1
  F  F1105  1  0.267230  0.253700  0.962980  1
  F  F1106  1  0.986470  0.732770  0.962980  1
  F  F1107  1  0.386200  0.699640  0.827720  1
  F  F1108  1  0.313440  0.613800  0.827720  1
  F  F1109  1  0.300360  0.686560  0.827720  1
  F  F1110  1  0.686560  0.300360  0.172280  1
  F  F1111  1  0.613800  0.313440  0.172280  1
  F  F1112  1  0.699640  0.386200  0.172280  1
  F  F1113  1  0.373000  0.733110  0.753260  1
  F  F1114  1  0.360110  0.627000  0.753260  1
  F  F1115  1  0.266890  0.639890  0.753260  1
  F  F1116  1  0.639890  0.266890  0.246740  1
  F  F1117  1  0.627000  0.360110  0.246740  1
  F  F1118  1  0.733110  0.373000  0.246740  1
  F  F1119  1  0.298470  0.705230  0.812300  1
  F  F1120  1  0.406760  0.701530  0.812300  1
  F  F1121  1  0.294770  0.593240  0.812300  1
  F  F1122  1  0.593240  0.294770  0.187700  1
  F  F1123  1  0.701530  0.406760  0.187700  1
  F  F1124  1  0.705230  0.298470  0.187700  1
  F  F1125  1  0.682000  0.991800  0.969100  1
  F  F1126  1  0.309800  0.318000  0.969100  1
  F  F1127  1  0.008200  0.690200  0.969100  1
  F  F1128  1  0.690200  0.008200  0.030900  1
  F  F1129  1  0.318000  0.309800  0.030900  1
  F  F1130  1  0.991800  0.682000  0.030900  1
  F  F1131  1  0.640550  0.985750  0.044810  1
  F  F1132  1  0.345200  0.359450  0.044810  1
  F  F1133  1  0.014250  0.654800  0.044810  1
  F  F1134  1  0.654800  0.014250  0.955190  1
  F  F1135  1  0.359450  0.345200  0.955190  1
  F  F1136  1  0.985750  0.640550  0.955190  1
