
#######################################################################
#
#                 Cambridge Crystallographic Data Centre
#                                CCDC 
#
#######################################################################
#
# If this CIF has been generated from an entry in the Cambridge 
# Structural Database, then it will include bibliographic, chemical, 
# crystal, experimental, refinement or atomic coordinate data resulting 
# from the CCDC's data processing and validation procedures.
#
#######################################################################

data_LIWNEM
_chemical_formula_moiety         'C192 H240 Fe4 N24 8+,8(C1 F3 O3 S1 1-)'
_chemical_name_systematic        
"tetrakis(\m~3~-N,N',N''-(Benzene-1,3,5-triyltris(pyridine-5,2-diylmethylylidene))tris(1-cyclohexylethanamine))-tetra-iron(ii) octakis(trifluoromethanesulfonate) unknown solvate"
_symmetry_cell_setting           trigonal
_symmetry_space_group_name_H-M   'P 3 2 1'
_symmetry_Int_Tables_number      150
_space_group_name_Hall           'P 3 2"'
loop_
_symmetry_equiv_pos_site_id
_symmetry_equiv_pos_as_xyz
1 x,y,z
2 -y,x-y,z
3 -x+y,-x,z
4 y,x,-z
5 -x,-x+y,-z
6 x-y,-y,-z
_cell_length_a                   23.3227(3)
_cell_length_b                   23.3227(3)
_cell_length_c                   25.7815(4)
_cell_angle_alpha                90
_cell_angle_beta                 90
_cell_angle_gamma                120
_cell_volume                     12145
_exptl_crystal_colour            purple
_exptl_crystal_description       Block
_cell_formula_units_Z            2
loop_
_atom_site_label
_atom_site_type_symbol
_atom_site_fract_x
_atom_site_fract_y
_atom_site_fract_z
Fe1 Fe 0.6667 0.3333 0.95181(5)
Fe2 Fe 0.35224(4) 0.15419(4) 1.30199(3)
N1 N 0.5865(2) 0.3132(2) 0.91173(15)
N2 N 0.4104(2) 0.1169(2) 1.29080(16)
N3 N 0.3312(3) 0.1006(3) 1.36588(19)
N4 N 0.9160(2) 0.1986(2) 1.25904(19)
N5 N 0.4214(2) 0.2301(2) 1.33978(17)
N6 N 0.3014(2) 0.1991(2) 1.32031(19)
C1 C 0.5742(3) 0.4081(3) 0.8821(2)
H1 H 0.6150 0.4389 0.9020
C2 C 0.5142(4) 0.3894(4) 0.9175(3)
H2 H 0.4727 0.3622 0.8980
H3 H 0.5150 0.3631 0.9473
C3 C 0.5168(6) 0.4525(5) 0.9369(3)
H4 H 0.4787 0.4407 0.9601
H5 H 0.5579 0.4791 0.9571
C4 C 0.5148(6) 0.4936(6) 0.8916(4)
H6 H 0.4727 0.4680 0.8724
H7 H 0.5173 0.5346 0.9048
C5 C 0.5725(6) 0.5110(5) 0.8555(4)
H8 H 0.6147 0.5384 0.8742
H9 H 0.5709 0.5371 0.8258
C6 C 0.5694(4) 0.4462(4) 0.8352(3)
H10 H 0.5273 0.4186 0.8165
H11 H 0.6065 0.4574 0.8109
C7 C 0.5814(3) 0.3483(3) 0.8643(2)
H12 H 0.6245 0.3668 0.8454
C8 C 0.5265(4) 0.2995(4) 0.8265(3)
H13 H 0.5298 0.2595 0.8225
H14 H 0.5323 0.3208 0.7926
H15 H 0.4829 0.2876 0.8405
C9 C 0.5317(2) 0.2669(3) 0.93090(19)
H16 H 0.4905 0.2549 0.9150
N7 N 0.59911(11) 0.25906(12) 0.99432(9)
C10 C 0.53511(13) 0.23516(15) 0.97590(10)
C11 C 0.48171(10) 0.18486(17) 1.00237(12)
H17 H 0.4380 0.1685 0.9898
C12 C 0.49230(11) 0.15844(15) 1.04726(12)
H18 H 0.4558 0.1241 1.0653
C13 C 0.55630(13) 0.18234(14) 1.06568(9)
C14 C 0.60970(10) 0.23264(13) 1.03921(10)
H19 H 0.6534 0.2490 1.0518
C15 C 0.5690(2) 0.1575(2) 1.11444(17)
C16 C 0.6287(2) 0.1580(2) 1.12150(19)
H20 H 0.6600 0.1725 1.0940
C17 C 0.6431(2) 0.1379(2) 1.16762(19)
C18 C 0.5963(2) 0.1163(2) 1.20778(19)
H21 H 0.6055 0.1016 1.2394
C19 C 0.5369(2) 0.1159(2) 1.20256(19)
C20 C 0.5237(2) 0.1357(2) 1.15519(19)
H22 H 0.4826 0.1342 1.1505
C21 C 0.4500(2) 0.1253(2) 1.24998(19)
H23 H 0.4493 0.1508 1.2215
C22 C 0.4913(3) 0.0994(2) 1.2469(2)
C23 C 0.4902(3) 0.0603(3) 1.2887(2)
H24 H 0.5174 0.0407 1.2876
C24 C 0.4507(3) 0.0497(3) 1.3313(2)
H25 H 0.4504 0.0236 1.3596
C25 C 0.4101(3) 0.0792(3) 1.3313(2)
C26 C 0.3653(3) 0.0717(3) 1.3722(2)
H26 H 0.3611 0.0467 1.4025
C27 C 0.2797(4) 0.0912(4) 1.4062(3)
H27 H 0.2450 0.0970 1.3880
C28 C 0.3106(4) 0.1451(4) 1.4470(3)
H28 H 0.3283 0.1886 1.4288
C29 C 0.2588(6) 0.1398(5) 1.4852(3)
H29 H 0.2418 0.0982 1.5051
H30 H 0.2213 0.1380 1.4658
C30 C 0.2866(7) 0.1981(6) 1.5225(4)
H31 H 0.3030 0.2399 1.5030
H32 H 0.2515 0.1935 1.5465
C31 C 0.3426(8) 0.1995(5) 1.5530(4)
H33 H 0.3258 0.1582 1.5733
H34 H 0.3610 0.2372 1.5775
C32 C 0.3967(7) 0.2063(6) 1.5164(4)
H35 H 0.4328 0.2062 1.5364
H36 H 0.4153 0.2488 1.4974
C33 C 0.3670(5) 0.1472(4) 1.4769(3)
H37 H 0.4019 0.1523 1.4524
H38 H 0.3511 0.1050 1.4959
C34 C 0.2458(5) 0.0212(4) 1.4273(3)
H39 H 0.2233 0.0194 1.4598
H40 H 0.2789 0.0078 1.4337
H41 H 0.2133 -0.0089 1.4020
N8 N 0.80068(13) 0.17741(15) 1.23466(9)
C35 C 0.73609(12) 0.16286(16) 1.22526(9)
H42 H 0.7093 0.1629 1.2530
C36 C 0.71063(11) 0.14831(18) 1.17520(11)
C37 C 0.74976(15) 0.14829(19) 1.13453(9)
H43 H 0.7324 0.1383 1.1003
C38 C 0.81435(15) 0.1628(2) 1.14393(10)
H44 H 0.8411 0.1628 1.1161
C39 C 0.83981(11) 0.17740(18) 1.19399(11)
C40 C 0.9015(3) 0.1876(3) 1.2103(2)
H45 H 0.9318 0.1864 1.1863
C41 C 0.9813(3) 0.2073(3) 1.2770(3)
H46 H 0.9742 0.1890 1.3130
C42 C 1.0325(3) 0.2814(3) 1.2810(3)
H47 H 1.0147 0.3008 1.3066
C43 C 1.0977(3) 0.2902(4) 1.3043(3)
H48 H 1.0883 0.2656 1.3374
H49 H 1.1177 0.2721 1.2801
C44 C 1.1466(4) 0.3644(4) 1.3139(3)
H50 H 1.1282 0.3812 1.3406
H51 H 1.1890 0.3701 1.3271
C45 C 1.1589(4) 0.4038(5) 1.2647(4)
H52 H 1.1869 0.4514 1.2728
H53 H 1.1839 0.3917 1.2402
C46 C 1.0974(4) 0.3931(4) 1.2388(4)
H54 H 1.1088 0.4147 1.2043
H55 H 1.0776 0.4145 1.2596
C47 C 1.0475(3) 0.3217(4) 1.2321(3)
H56 H 1.0638 0.3027 1.2055
H57 H 1.0059 0.3180 1.2189
C48 C 1.0042(4) 0.1678(4) 1.2446(4)
H58 H 0.9663 0.1241 1.2368
H59 H 1.0375 0.1627 1.2639
H60 H 1.0236 0.1914 1.2120
C49 C 0.2374(4) 0.2128(4) 1.2487(3)
H61 H 0.2672 0.2033 1.2270
C50 C 0.1699(5) 0.1786(6) 1.2220(4)
H62 H 0.1372 0.1832 1.2434
H63 H 0.1543 0.1308 1.2177
C51 C 0.1770(7) 0.2115(7) 1.1680(4)
H64 H 0.2025 0.1984 1.1450
H65 H 0.1323 0.1933 1.1528
C52 C 0.2096(6) 0.2849(7) 1.1679(5)
H66 H 0.2162 0.3010 1.1316
H67 H 0.1804 0.2985 1.1853
C53 C 0.2745(5) 0.3158(6) 1.1949(4)
H68 H 0.2926 0.3641 1.1976
H69 H 0.3061 0.3083 1.1744
C54 C 0.2672(4) 0.2863(4) 1.2491(3)
H70 H 0.3113 0.3065 1.2657
H71 H 0.2391 0.2979 1.2704
C55 C 0.2324(3) 0.1796(4) 1.3035(3)
H72 H 0.2081 0.1306 1.2981
C56 C 0.1943(3) 0.1944(4) 1.3428(3)
H73 H 0.1768 0.1598 1.3694
H74 H 0.1575 0.1958 1.3256
H75 H 0.2236 0.2374 1.3590
C57 C 0.3349(3) 0.2542(3) 1.3454(2)
H76 H 0.3156 0.2800 1.3551
C58 C 0.4037(3) 0.2750(3) 1.3582(2)
C59 C 0.4450(4) 0.3306(3) 1.3858(3)
H77 H 0.4297 0.3583 1.3998
C60 C 0.5091(3) 0.3452(3) 1.3925(3)
H78 H 0.5395 0.3850 1.4097
C61 C 0.5302(3) 0.3030(3) 1.3748(2)
C62 C 0.4861(3) 0.2465(3) 1.3485(2)
H79 H 0.5008 0.2178 1.3360
C63 C 0.6008(3) 0.3186(3) 1.3797(2)
C64 C 0.6164(3) 0.2690(3) 1.3801(2)
H80 H 0.5815 0.2243 1.3806
N5A N 0.7699(2) 0.1913(3) 1.33978(17)
N6A N 0.8009(2) 0.1023(3) 1.32031(19)
C49A C 0.7872(4) 0.0246(6) 1.2487(3)
H61A H 0.7967 0.0639 1.2270
C50A C 0.8214(6) -0.0087(8) 1.2220(4)
H62A H 0.8168 -0.0460 1.2434
H63A H 0.8692 0.0235 1.2177
C51A C 0.7885(7) -0.0345(10) 1.1680(4)
H64A H 0.8016 0.0041 1.1450
H65A H 0.8067 -0.0610 1.1528
C52A C 0.7151(7) -0.0753(9) 1.1679(5)
H66A H 0.6990 -0.0848 1.1316
H67A H 0.7015 -0.1181 1.1853
C53A C 0.6842(6) -0.0413(8) 1.1949(4)
H68A H 0.6359 -0.0715 1.1976
H69A H 0.6917 -0.0022 1.1744
C54A C 0.7137(4) -0.0191(6) 1.2491(3)
H70A H 0.6935 0.0048 1.2657
H71A H 0.7021 -0.0588 1.2704
C55A C 0.8204(4) 0.0528(5) 1.3035(3)
H72A H 0.8694 0.0775 1.2981
C56A C 0.8056(4) -0.0001(5) 1.3428(3)
H73A H 0.8402 0.0170 1.3694
H74A H 0.8042 -0.0383 1.3256
H75A H 0.7626 -0.0138 1.3590
C57A C 0.7458(3) 0.0807(4) 1.3454(2)
H76A H 0.7200 0.0356 1.3551
C58A C 0.7250(3) 0.1287(4) 1.3582(2)
C59A C 0.6694(3) 0.1144(5) 1.3858(3)
H77A H 0.6417 0.0714 1.3998
C60A C 0.6548(3) 0.1639(4) 1.3925(3)
H78A H 0.6150 0.1545 1.4097
C61A C 0.6970(3) 0.2272(4) 1.3748(2)
C62A C 0.7535(3) 0.2396(4) 1.3485(2)
H79A H 0.7822 0.2830 1.3360
C63A C 0.6814(3) 0.2822(4) 1.3797(2)
C64A C 0.7310(3) 0.3474(4) 1.3801(2)
H80A H 0.7757 0.3572 1.3806
N5B N 0.8087(3) 0.5786(2) 1.33978(17)
N6B N 0.8977(3) 0.6986(2) 1.32031(19)
C49B C 0.9754(6) 0.7626(4) 1.2487(3)
H61B H 0.9361 0.7328 1.2270
C50B C 1.0087(8) 0.8301(5) 1.2220(4)
H62B H 1.0460 0.8628 1.2434
H63B H 0.9765 0.8457 1.2177
C51B C 1.0345(10) 0.8230(7) 1.1680(4)
H64B H 0.9959 0.7975 1.1450
H65B H 1.0610 0.8677 1.1528
C52B C 1.0753(9) 0.7904(6) 1.1679(5)
H66B H 1.0848 0.7838 1.1316
H67B H 1.1181 0.8196 1.1853
C53B C 1.0413(8) 0.7255(5) 1.1949(4)
H68B H 1.0715 0.7074 1.1976
H69B H 1.0022 0.6939 1.1744
C54B C 1.0191(6) 0.7328(4) 1.2491(3)
H70B H 0.9952 0.6887 1.2657
H71B H 1.0588 0.7609 1.2704
C55B C 0.9472(5) 0.7676(3) 1.3035(3)
H72B H 0.9225 0.7919 1.2981
C56B C 1.0001(5) 0.8057(3) 1.3428(3)
H73B H 0.9830 0.8232 1.3694
H74B H 1.0383 0.8425 1.3256
H75B H 1.0138 0.7764 1.3590
C57B C 0.9193(4) 0.6651(3) 1.3454(2)
H76B H 0.9644 0.6844 1.3551
C58B C 0.8713(4) 0.5963(3) 1.3582(2)
C59B C 0.8856(5) 0.5550(4) 1.3858(3)
H77B H 0.9286 0.5703 1.3998
C60B C 0.8361(4) 0.4909(3) 1.3925(3)
H78B H 0.8455 0.4605 1.4097
C61B C 0.7728(4) 0.4698(3) 1.3748(2)
C62B C 0.7604(4) 0.5139(3) 1.3485(2)
H79B H 0.7170 0.4992 1.3360
C63B C 0.7178(4) 0.3992(3) 1.3797(2)
C64B C 0.6526(4) 0.3836(3) 1.3801(2)
H80B H 0.6428 0.4185 1.3806
Fe2A Fe 0.84581(4) 0.19805(6) 1.30199(3)
N1A N 0.6868(2) 0.2733(3) 0.91173(15)
N2A N 0.8831(2) 0.2935(3) 1.29080(16)
N3A N 0.8994(3) 0.2306(4) 1.36588(19)
N4A N 0.8014(2) 0.7174(3) 1.25904(19)
C1A C 0.5919(3) 0.1661(4) 0.8821(2)
H1A H 0.5611 0.1761 0.9020
C2A C 0.6106(4) 0.1248(6) 0.9175(3)
H2A H 0.6378 0.1105 0.8980
H3A H 0.6369 0.1519 0.9473
C3A C 0.5475(5) 0.0643(8) 0.9369(3)
H4A H 0.5593 0.0380 0.9601
H5A H 0.5209 0.0788 0.9571
C4A C 0.5064(6) 0.0212(8) 0.8916(4)
H6A H 0.5320 0.0047 0.8724
H7A H 0.4654 -0.0173 0.9048
C5A C 0.4890(5) 0.0615(8) 0.8555(4)
H8A H 0.4616 0.0763 0.8742
H9A H 0.4629 0.0338 0.8258
C6A C 0.5538(4) 0.1232(6) 0.8352(3)
H10A H 0.5814 0.1087 0.8165
H11A H 0.5426 0.1491 0.8109
C7A C 0.6517(3) 0.2331(4) 0.8643(2)
H12A H 0.6332 0.2577 0.8454
C8A C 0.7005(4) 0.2270(6) 0.8265(3)
H13A H 0.7405 0.2703 0.8225
H14A H 0.6792 0.2115 0.7926
H15A H 0.7124 0.1953 0.8405
C9A C 0.7331(3) 0.2648(4) 0.93090(19)
H16A H 0.7451 0.2356 0.9150
N7A N 0.74094(12) 0.34005(16) 0.99432(9)
C10A C 0.76484(15) 0.29995(20) 0.97590(10)
C11A C 0.81514(17) 0.29685(20) 1.00237(12)
H17A H 0.8315 0.2695 0.9898
C12A C 0.84156(15) 0.33386(19) 1.04726(12)
H18A H 0.8759 0.3317 1.0653
C13A C 0.81766(14) 0.37396(19) 1.06568(9)
C14A C 0.76736(13) 0.37706(16) 1.03921(10)
H19A H 0.7510 0.4044 1.0518
C15A C 0.8425(2) 0.4115(3) 1.11444(17)
C16A C 0.8420(2) 0.4707(3) 1.12150(19)
H20A H 0.8275 0.4875 1.0940
C17A C 0.8621(2) 0.5052(3) 1.16762(19)
C18A C 0.8837(2) 0.4800(3) 1.20778(19)
H21A H 0.8984 0.5039 1.2394
C19A C 0.8841(2) 0.4210(3) 1.20256(19)
C20A C 0.8643(2) 0.3880(3) 1.15519(19)
H22A H 0.8658 0.3484 1.1505
C21A C 0.8747(2) 0.3247(3) 1.24998(19)
H23A H 0.8492 0.2985 1.2215
C22A C 0.9006(2) 0.3919(4) 1.2469(2)
C23A C 0.9397(3) 0.4299(4) 1.2887(2)
H24A H 0.9593 0.4767 1.2876
C24A C 0.9503(3) 0.4010(4) 1.3313(2)
H25A H 0.9764 0.4268 1.3596
C25A C 0.9208(3) 0.3309(4) 1.3313(2)
C26A C 0.9283(3) 0.2936(4) 1.3722(2)
H26A H 0.9533 0.3144 1.4025
C27A C 0.9088(4) 0.1885(6) 1.4062(3)
H27A H 0.9030 0.1480 1.3880
C28A C 0.8549(4) 0.1655(6) 1.4470(3)
H28A H 0.8114 0.1397 1.4288
C29A C 0.8602(5) 0.1190(8) 1.4852(3)
H29A H 0.9018 0.1436 1.5051
H30A H 0.8620 0.0833 1.4658
C30A C 0.8019(6) 0.0885(9) 1.5225(4)
H31A H 0.7601 0.0631 1.5030
H32A H 0.8065 0.0580 1.5465
C31A C 0.8005(5) 0.1431(9) 1.5530(4)
H33A H 0.8418 0.1676 1.5733
H34A H 0.7628 0.1238 1.5775
C32A C 0.7937(6) 0.1904(9) 1.5164(4)
H35A H 0.7938 0.2266 1.5364
H36A H 0.7512 0.1665 1.4974
C33A C 0.8528(4) 0.2198(6) 1.4769(3)
H37A H 0.8477 0.2496 1.4524
H38A H 0.8950 0.2461 1.4959
C34A C 0.9788(4) 0.2246(6) 1.4273(3)
H39A H 0.9806 0.2039 1.4598
H40A H 0.9922 0.2711 1.4337
H41A H 1.0089 0.2222 1.4020
N8A N 0.82259(15) 0.62327(20) 1.23466(9)
C35A C 0.83714(16) 0.57323(20) 1.22526(9)
H42A H 0.8371 0.5464 1.2530
C36A C 0.85169(18) 0.56232(21) 1.17520(11)
C37A C 0.85171(19) 0.60147(24) 1.13453(9)
H43A H 0.8617 0.5941 1.1003
C38A C 0.8372(2) 0.65155(25) 1.14393(10)
H44A H 0.8372 0.6783 1.1161
C39A C 0.82260(18) 0.66241(21) 1.19399(11)
C40A C 0.8124(3) 0.7139(4) 1.2103(2)
H45A H 0.8136 0.7454 1.1863
C41A C 0.7927(3) 0.7740(4) 1.2770(3)
H46A H 0.8110 0.7852 1.3130
C42A C 0.7186(3) 0.7511(4) 1.2810(3)
H47A H 0.6992 0.7139 1.3066
C43A C 0.7098(4) 0.8075(5) 1.3043(3)
H48A H 0.7344 0.8227 1.3374
H49A H 0.7279 0.8456 1.2801
C44A C 0.6356(4) 0.7822(6) 1.3139(3)
H50A H 0.6188 0.7470 1.3406
H51A H 0.6299 0.8189 1.3271
C45A C 0.5962(5) 0.7551(6) 1.2647(4)
H52A H 0.5486 0.7355 1.2728
H53A H 0.6083 0.7922 1.2402
C46A C 0.6069(4) 0.7043(6) 1.2388(4)
H54A H 0.5853 0.6941 1.2043
H55A H 0.5855 0.6631 1.2596
C47A C 0.6783(4) 0.7258(5) 1.2321(3)
H56A H 0.6973 0.7611 1.2055
H57A H 0.6820 0.6879 1.2189
C48A C 0.8322(4) 0.8364(6) 1.2446(4)
H58A H 0.8759 0.8422 1.2368
H59A H 0.8373 0.8748 1.2639
H60A H 0.8086 0.8322 1.2120
Fe2B Fe 0.80195(6) 0.64776(4) 1.30199(3)
N1B N 0.7267(3) 0.4135(2) 0.91173(15)
N2B N 0.7065(3) 0.5896(2) 1.29080(16)
N3B N 0.7694(4) 0.6688(3) 1.36588(19)
N4B N 0.2826(3) 0.0840(2) 1.25904(19)
C1B C 0.8339(4) 0.4258(3) 0.8821(2)
H1B H 0.8239 0.3850 0.9020
C2B C 0.8752(6) 0.4858(4) 0.9175(3)
H2B H 0.8895 0.5273 0.8980
H3B H 0.8481 0.4850 0.9473
C3B C 0.9357(8) 0.4832(6) 0.9369(3)
H4B H 0.9620 0.5213 0.9601
H5B H 0.9212 0.4421 0.9571
C4B C 0.9788(8) 0.4852(6) 0.8916(4)
H6B H 0.9953 0.5273 0.8724
H7B H 1.0173 0.4827 0.9048
C5B C 0.9385(8) 0.4275(6) 0.8555(4)
H8B H 0.9237 0.3853 0.8742
H9B H 0.9662 0.4291 0.8258
C6B C 0.8768(6) 0.4306(4) 0.8352(3)
H10B H 0.8913 0.4727 0.8165
H11B H 0.8509 0.3935 0.8109
C7B C 0.7669(4) 0.4186(3) 0.8643(2)
H12B H 0.7423 0.3755 0.8454
C8B C 0.7730(6) 0.4735(4) 0.8265(3)
H13B H 0.7297 0.4702 0.8225
H14B H 0.7885 0.4677 0.7926
H15B H 0.8047 0.5171 0.8405
C9B C 0.7352(4) 0.4683(2) 0.93090(19)
H16B H 0.7644 0.5095 0.9150
N7B N 0.65995(16) 0.40089(11) 0.99432(9)
C10B C 0.70005(20) 0.46489(13) 0.97590(10)
C11B C 0.70315(20) 0.51829(10) 1.00237(12)
H17B H 0.7305 0.5620 0.9898
C12B C 0.66614(19) 0.50770(11) 1.04726(12)
H18B H 0.6683 0.5442 1.0653
C13B C 0.62604(19) 0.44370(13) 1.06568(9)
C14B C 0.62294(16) 0.39030(10) 1.03921(10)
H19B H 0.5956 0.3466 1.0518
C15B C 0.5885(3) 0.4310(2) 1.11444(17)
C16B C 0.5293(3) 0.3713(2) 1.12150(19)
H20B H 0.5125 0.3400 1.0940
C17B C 0.4948(3) 0.3569(2) 1.16762(19)
C18B C 0.5200(3) 0.4037(2) 1.20778(19)
H21B H 0.4961 0.3945 1.2394
C19B C 0.5790(3) 0.4631(2) 1.20256(19)
C20B C 0.6120(3) 0.4763(2) 1.15519(19)
H22B H 0.6516 0.5174 1.1505
C21B C 0.6753(3) 0.5500(2) 1.24998(19)
H23B H 0.7015 0.5507 1.2215
C22B C 0.6081(4) 0.5087(3) 1.2469(2)
C23B C 0.5701(4) 0.5098(3) 1.2887(2)
H24B H 0.5233 0.4826 1.2876
C24B C 0.5990(4) 0.5493(3) 1.3313(2)
H25B H 0.5732 0.5496 1.3596
C25B C 0.6691(4) 0.5899(3) 1.3313(2)
C26B C 0.7064(4) 0.6347(3) 1.3722(2)
H26B H 0.6856 0.6389 1.4025
C27B C 0.8115(6) 0.7203(4) 1.4062(3)
H27B H 0.8520 0.7550 1.3880
C28B C 0.8345(6) 0.6894(4) 1.4470(3)
H28B H 0.8603 0.6717 1.4288
C29B C 0.8810(8) 0.7412(6) 1.4852(3)
H29B H 0.8564 0.7582 1.5051
H30B H 0.9167 0.7787 1.4658
C30B C 0.9115(9) 0.7134(7) 1.5225(4)
H31B H 0.9369 0.6970 1.5030
H32B H 0.9420 0.7485 1.5465
C31B C 0.8569(9) 0.6574(8) 1.5530(4)
H33B H 0.8324 0.6742 1.5733
H34B H 0.8762 0.6390 1.5775
C32B C 0.8096(9) 0.6033(7) 1.5164(4)
H35B H 0.7734 0.5672 1.5364
H36B H 0.8335 0.5847 1.4974
C33B C 0.7802(6) 0.6330(5) 1.4769(3)
H37B H 0.7504 0.5981 1.4524
H38B H 0.7539 0.6489 1.4959
C34B C 0.7754(6) 0.7542(5) 1.4273(3)
H39B H 0.7961 0.7767 1.4598
H40B H 0.7289 0.7211 1.4337
H41B H 0.7778 0.7867 1.4020
N8B N 0.37673(20) 0.19932(13) 1.23466(9)
C35B C 0.42677(20) 0.26391(12) 1.22526(9)
H42B H 0.4536 0.2907 1.2530
C36B C 0.43768(21) 0.28937(11) 1.17520(11)
C37B C 0.39853(24) 0.25024(15) 1.13453(9)
H43B H 0.4059 0.2676 1.1003
C38B C 0.34845(25) 0.18565(15) 1.14393(10)
H44B H 0.3217 0.1589 1.1161
C39B C 0.33759(21) 0.16019(11) 1.19399(11)
C40B C 0.2861(4) 0.0985(3) 1.2103(2)
H45B H 0.2546 0.0682 1.1863
C41B C 0.2260(4) 0.0187(3) 1.2770(3)
H46B H 0.2148 0.0258 1.3130
C42B C 0.2489(4) -0.0325(3) 1.2810(3)
H47B H 0.2861 -0.0147 1.3066
C43B C 0.1925(5) -0.0977(3) 1.3043(3)
H48B H 0.1773 -0.0883 1.3374
H49B H 0.1544 -0.1177 1.2801
C44B C 0.2178(6) -0.1466(4) 1.3139(3)
H50B H 0.2530 -0.1282 1.3406
H51B H 0.1811 -0.1890 1.3271
C45B C 0.2449(6) -0.1589(4) 1.2647(4)
H52B H 0.2645 -0.1869 1.2728
H53B H 0.2078 -0.1839 1.2402
C46B C 0.2957(6) -0.0974(4) 1.2388(4)
H54B H 0.3059 -0.1088 1.2043
H55B H 0.3369 -0.0776 1.2596
C47B C 0.2742(5) -0.0475(3) 1.2321(3)
H56B H 0.2389 -0.0638 1.2055
H57B H 0.3121 -0.0059 1.2189
C48B C 0.1636(6) -0.0042(4) 1.2446(4)
H58B H 0.1578 0.0337 1.2368
H59B H 0.1252 -0.0375 1.2639
H60B H 0.1678 -0.0236 1.2120
S1 S 0.39512(13) 0.44000(14) 0.34528(8)
O1 O 0.44922(12) 0.48426(14) 0.37849(9)
O2 O 0.41393(15) 0.42028(16) 0.29805(8)
O3 O 0.33782(12) 0.38830(13) 0.37157(8)
C65 C 0.36405(14) 0.49408(14) 0.32083(9)
F1 F 0.31264(14) 0.46173(15) 0.28862(9)
F2 F 0.34370(16) 0.51803(15) 0.35941(9)
F3 F 0.41068(15) 0.54618(14) 0.29471(9)
loop_
_geom_bond_atom_site_label_1
_geom_bond_atom_site_label_2
_geom_bond_site_symmetry_1
_geom_bond_site_symmetry_2
Fe1 N1 1_555 1_555
Fe2 N2 1_555 1_555
N1 C7 1_555 1_555
N2 C21 1_555 1_555
N3 Fe2 1_555 1_555
N4 C40 1_555 1_555
N5 Fe2 1_555 1_555
N6 Fe2 1_555 1_555
C1 H1 1_555 1_555
C2 C1 1_555 1_555
H2 C2 1_555 1_555
H3 C2 1_555 1_555
C3 C2 1_555 1_555
H4 C3 1_555 1_555
H5 C3 1_555 1_555
C4 C3 1_555 1_555
H6 C4 1_555 1_555
H7 C4 1_555 1_555
C5 C4 1_555 1_555
H8 C5 1_555 1_555
H9 C5 1_555 1_555
C6 C1 1_555 1_555
H10 C6 1_555 1_555
H11 C6 1_555 1_555
C7 C1 1_555 1_555
H12 C7 1_555 1_555
C8 C7 1_555 1_555
H13 C8 1_555 1_555
H14 C8 1_555 1_555
H15 C8 1_555 1_555
C9 N1 1_555 1_555
H16 C9 1_555 1_555
N7 Fe1 1_555 1_555
C10 C9 1_555 1_555
C11 C10 1_555 1_555
H17 C11 1_555 1_555
C12 C11 1_555 1_555
H18 C12 1_555 1_555
C13 C12 1_555 1_555
C14 N7 1_555 1_555
H19 C14 1_555 1_555
C15 C13 1_555 1_555
C16 C15 1_555 1_555
H20 C16 1_555 1_555
C17 C16 1_555 1_555
C18 C17 1_555 1_555
H21 C18 1_555 1_555
C19 C18 1_555 1_555
C20 C15 1_555 1_555
H22 C20 1_555 1_555
C21 H23 1_555 1_555
C22 C19 1_555 1_555
C23 C22 1_555 1_555
H24 C23 1_555 1_555
C24 C23 1_555 1_555
H25 C24 1_555 1_555
C25 N2 1_555 1_555
C26 N3 1_555 1_555
H26 C26 1_555 1_555
C27 N3 1_555 1_555
H27 C27 1_555 1_555
C28 C27 1_555 1_555
H28 C28 1_555 1_555
C29 C28 1_555 1_555
H29 C29 1_555 1_555
H30 C29 1_555 1_555
C30 C29 1_555 1_555
H31 C30 1_555 1_555
H32 C30 1_555 1_555
C31 C30 1_555 1_555
H33 C31 1_555 1_555
H34 C31 1_555 1_555
C32 C31 1_555 1_555
H35 C32 1_555 1_555
H36 C32 1_555 1_555
C33 C28 1_555 1_555
H37 C33 1_555 1_555
H38 C33 1_555 1_555
C34 C27 1_555 1_555
H39 C34 1_555 1_555
H40 C34 1_555 1_555
H41 C34 1_555 1_555
N8 C35 1_555 1_555
C35 H42 1_555 1_555
C36 C17 1_555 1_555
C37 C36 1_555 1_555
H43 C37 1_555 1_555
C38 C37 1_555 1_555
H44 C38 1_555 1_555
C39 N8 1_555 1_555
C40 C39 1_555 1_555
H45 C40 1_555 1_555
C41 N4 1_555 1_555
H46 C41 1_555 1_555
C42 C41 1_555 1_555
H47 C42 1_555 1_555
C43 C42 1_555 1_555
H48 C43 1_555 1_555
H49 C43 1_555 1_555
C44 C43 1_555 1_555
H50 C44 1_555 1_555
H51 C44 1_555 1_555
C45 C44 1_555 1_555
H52 C45 1_555 1_555
H53 C45 1_555 1_555
C46 C45 1_555 1_555
H54 C46 1_555 1_555
H55 C46 1_555 1_555
C47 C42 1_555 1_555
H56 C47 1_555 1_555
H57 C47 1_555 1_555
C48 C41 1_555 1_555
H58 C48 1_555 1_555
H59 C48 1_555 1_555
H60 C48 1_555 1_555
C49 H61 1_555 1_555
C50 C49 1_555 1_555
H62 C50 1_555 1_555
H63 C50 1_555 1_555
C51 C50 1_555 1_555
H64 C51 1_555 1_555
H65 C51 1_555 1_555
C52 C51 1_555 1_555
H66 C52 1_555 1_555
H67 C52 1_555 1_555
C53 C52 1_555 1_555
H68 C53 1_555 1_555
H69 C53 1_555 1_555
C54 C49 1_555 1_555
H70 C54 1_555 1_555
H71 C54 1_555 1_555
C55 N6 1_555 1_555
H72 C55 1_555 1_555
C56 C55 1_555 1_555
H73 C56 1_555 1_555
H74 C56 1_555 1_555
H75 C56 1_555 1_555
C57 N6 1_555 1_555
H76 C57 1_555 1_555
C58 N5 1_555 1_555
C59 C58 1_555 1_555
H77 C59 1_555 1_555
C60 C59 1_555 1_555
H78 C60 1_555 1_555
C61 C60 1_555 1_555
C62 N5 1_555 1_555
H79 C62 1_555 1_555
C63 C61 1_555 1_555
C64 C63 1_555 1_555
H80 C64 1_555 1_555
S1 O1 1_555 1_555
O2 S1 1_555 1_555
O3 S1 1_555 1_555
C65 S1 1_555 1_555
F1 C65 1_555 1_555
F2 C65 1_555 1_555
F3 C65 1_555 1_555
N5A C58A 1_555 1_555
N6A C55A 1_555 1_555
C49A H61A 1_555 1_555
C50A C49A 1_555 1_555
H62A C50A 1_555 1_555
H63A C50A 1_555 1_555
C51A C50A 1_555 1_555
H64A C51A 1_555 1_555
H65A C51A 1_555 1_555
C52A C51A 1_555 1_555
H66A C52A 1_555 1_555
H67A C52A 1_555 1_555
C53A C52A 1_555 1_555
H68A C53A 1_555 1_555
H69A C53A 1_555 1_555
C54A C49A 1_555 1_555
H70A C54A 1_555 1_555
H71A C54A 1_555 1_555
C55A C49A 1_555 1_555
H72A C55A 1_555 1_555
C56A C55A 1_555 1_555
H73A C56A 1_555 1_555
H74A C56A 1_555 1_555
H75A C56A 1_555 1_555
C57A N6A 1_555 1_555
H76A C57A 1_555 1_555
C58A C57A 1_555 1_555
C59A C58A 1_555 1_555
H77A C59A 1_555 1_555
C60A C59A 1_555 1_555
H78A C60A 1_555 1_555
C61A C60A 1_555 1_555
C62A N5A 1_555 1_555
H79A C62A 1_555 1_555
C63A C64 1_555 1_555
C64A C63A 1_555 1_555
H80A C64A 1_555 1_555
N5B C58B 1_555 1_555
N6B C55B 1_555 1_555
C49B H61B 1_555 1_555
C50B C49B 1_555 1_555
H62B C50B 1_555 1_555
H63B C50B 1_555 1_555
C51B C50B 1_555 1_555
H64B C51B 1_555 1_555
H65B C51B 1_555 1_555
C52B C51B 1_555 1_555
H66B C52B 1_555 1_555
H67B C52B 1_555 1_555
C53B C52B 1_555 1_555
H68B C53B 1_555 1_555
H69B C53B 1_555 1_555
C54B C49B 1_555 1_555
H70B C54B 1_555 1_555
H71B C54B 1_555 1_555
C55B C49B 1_555 1_555
H72B C55B 1_555 1_555
C56B C55B 1_555 1_555
H73B C56B 1_555 1_555
H74B C56B 1_555 1_555
H75B C56B 1_555 1_555
C57B N6B 1_555 1_555
H76B C57B 1_555 1_555
C58B C57B 1_555 1_555
C59B C58B 1_555 1_555
H77B C59B 1_555 1_555
C60B C59B 1_555 1_555
H78B C60B 1_555 1_555
C61B C60B 1_555 1_555
C62B N5B 1_555 1_555
H79B C62B 1_555 1_555
C63B C64A 1_555 1_555
C64B C63 1_555 1_555
H80B C64B 1_555 1_555
Fe2A N4 1_555 1_555
N1A Fe1 1_555 1_555
N2A Fe2A 1_555 1_555
N3A Fe2A 1_555 1_555
N4A C40A 1_555 1_555
C1A H1A 1_555 1_555
C2A C1A 1_555 1_555
H2A C2A 1_555 1_555
H3A C2A 1_555 1_555
C3A C2A 1_555 1_555
H4A C3A 1_555 1_555
H5A C3A 1_555 1_555
C4A C3A 1_555 1_555
H6A C4A 1_555 1_555
H7A C4A 1_555 1_555
C5A C4A 1_555 1_555
H8A C5A 1_555 1_555
H9A C5A 1_555 1_555
C6A C1A 1_555 1_555
H10A C6A 1_555 1_555
H11A C6A 1_555 1_555
C7A N1A 1_555 1_555
H12A C7A 1_555 1_555
C8A C7A 1_555 1_555
H13A C8A 1_555 1_555
H14A C8A 1_555 1_555
H15A C8A 1_555 1_555
C9A N1A 1_555 1_555
H16A C9A 1_555 1_555
N7A Fe1 1_555 1_555
C10A C9A 1_555 1_555
C11A C10A 1_555 1_555
H17A C11A 1_555 1_555
C12A C11A 1_555 1_555
H18A C12A 1_555 1_555
C13A C12A 1_555 1_555
C14A N7A 1_555 1_555
H19A C14A 1_555 1_555
C15A C13A 1_555 1_555
C16A C15A 1_555 1_555
H20A C16A 1_555 1_555
C17A C16A 1_555 1_555
C18A C17A 1_555 1_555
H21A C18A 1_555 1_555
C19A C18A 1_555 1_555
C20A C15A 1_555 1_555
H22A C20A 1_555 1_555
C21A N2A 1_555 1_555
H23A C21A 1_555 1_555
C22A C19A 1_555 1_555
C23A C22A 1_555 1_555
H24A C23A 1_555 1_555
C24A C23A 1_555 1_555
H25A C24A 1_555 1_555
C25A N2A 1_555 1_555
C26A N3A 1_555 1_555
H26A C26A 1_555 1_555
C27A N3A 1_555 1_555
H27A C27A 1_555 1_555
C28A C27A 1_555 1_555
H28A C28A 1_555 1_555
C29A C28A 1_555 1_555
H29A C29A 1_555 1_555
H30A C29A 1_555 1_555
C30A C29A 1_555 1_555
H31A C30A 1_555 1_555
H32A C30A 1_555 1_555
C31A C30A 1_555 1_555
H33A C31A 1_555 1_555
H34A C31A 1_555 1_555
C32A C31A 1_555 1_555
H35A C32A 1_555 1_555
H36A C32A 1_555 1_555
C33A C28A 1_555 1_555
H37A C33A 1_555 1_555
H38A C33A 1_555 1_555
C34A C27A 1_555 1_555
H39A C34A 1_555 1_555
H40A C34A 1_555 1_555
H41A C34A 1_555 1_555
N8A C35A 1_555 1_555
C35A H42A 1_555 1_555
C36A C17A 1_555 1_555
C37A C36A 1_555 1_555
H43A C37A 1_555 1_555
C38A C37A 1_555 1_555
H44A C38A 1_555 1_555
C39A N8A 1_555 1_555
C40A C39A 1_555 1_555
H45A C40A 1_555 1_555
C41A N4A 1_555 1_555
H46A C41A 1_555 1_555
C42A C41A 1_555 1_555
H47A C42A 1_555 1_555
C43A C42A 1_555 1_555
H48A C43A 1_555 1_555
H49A C43A 1_555 1_555
C44A C43A 1_555 1_555
H50A C44A 1_555 1_555
H51A C44A 1_555 1_555
C45A C44A 1_555 1_555
H52A C45A 1_555 1_555
H53A C45A 1_555 1_555
C46A C45A 1_555 1_555
H54A C46A 1_555 1_555
H55A C46A 1_555 1_555
C47A C42A 1_555 1_555
H56A C47A 1_555 1_555
H57A C47A 1_555 1_555
C48A C41A 1_555 1_555
H58A C48A 1_555 1_555
H59A C48A 1_555 1_555
H60A C48A 1_555 1_555
Fe2B N5B 1_555 1_555
N1B Fe1 1_555 1_555
N2B Fe2B 1_555 1_555
N3B Fe2B 1_555 1_555
N4B Fe2 1_555 1_555
C1B H1B 1_555 1_555
C2B C1B 1_555 1_555
H2B C2B 1_555 1_555
H3B C2B 1_555 1_555
C3B C2B 1_555 1_555
H4B C3B 1_555 1_555
H5B C3B 1_555 1_555
C4B C3B 1_555 1_555
H6B C4B 1_555 1_555
H7B C4B 1_555 1_555
C5B C4B 1_555 1_555
H8B C5B 1_555 1_555
H9B C5B 1_555 1_555
C6B C1B 1_555 1_555
H10B C6B 1_555 1_555
H11B C6B 1_555 1_555
C7B N1B 1_555 1_555
H12B C7B 1_555 1_555
C8B C7B 1_555 1_555
H13B C8B 1_555 1_555
H14B C8B 1_555 1_555
H15B C8B 1_555 1_555
C9B N1B 1_555 1_555
H16B C9B 1_555 1_555
N7B Fe1 1_555 1_555
C10B C9B 1_555 1_555
C11B C10B 1_555 1_555
H17B C11B 1_555 1_555
C12B C11B 1_555 1_555
H18B C12B 1_555 1_555
C13B C12B 1_555 1_555
C14B N7B 1_555 1_555
H19B C14B 1_555 1_555
C15B C13B 1_555 1_555
C16B C15B 1_555 1_555
H20B C16B 1_555 1_555
C17B C16B 1_555 1_555
C18B C17B 1_555 1_555
H21B C18B 1_555 1_555
C19B C18B 1_555 1_555
C20B C15B 1_555 1_555
H22B C20B 1_555 1_555
C21B N2B 1_555 1_555
H23B C21B 1_555 1_555
C22B C19B 1_555 1_555
C23B C22B 1_555 1_555
H24B C23B 1_555 1_555
C24B C23B 1_555 1_555
H25B C24B 1_555 1_555
C25B N2B 1_555 1_555
C26B N3B 1_555 1_555
H26B C26B 1_555 1_555
C27B N3B 1_555 1_555
H27B C27B 1_555 1_555
C28B C27B 1_555 1_555
H28B C28B 1_555 1_555
C29B C28B 1_555 1_555
H29B C29B 1_555 1_555
H30B C29B 1_555 1_555
C30B C29B 1_555 1_555
H31B C30B 1_555 1_555
H32B C30B 1_555 1_555
C31B C30B 1_555 1_555
H33B C31B 1_555 1_555
H34B C31B 1_555 1_555
C32B C31B 1_555 1_555
H35B C32B 1_555 1_555
H36B C32B 1_555 1_555
C33B C28B 1_555 1_555
H37B C33B 1_555 1_555
H38B C33B 1_555 1_555
C34B C27B 1_555 1_555
H39B C34B 1_555 1_555
H40B C34B 1_555 1_555
H41B C34B 1_555 1_555
N8B Fe2 1_555 1_555
C35B N8B 1_555 1_555
H42B C35B 1_555 1_555
C36B C17B 1_555 1_555
C37B C36B 1_555 1_555
H43B C37B 1_555 1_555
C38B C37B 1_555 1_555
H44B C38B 1_555 1_555
C39B N8B 1_555 1_555
C40B N4B 1_555 1_555
H45B C40B 1_555 1_555
C41B N4B 1_555 1_555
H46B C41B 1_555 1_555
C42B C41B 1_555 1_555
H47B C42B 1_555 1_555
C43B C42B 1_555 1_555
H48B C43B 1_555 1_555
H49B C43B 1_555 1_555
C44B C43B 1_555 1_555
H50B C44B 1_555 1_555
H51B C44B 1_555 1_555
C45B C44B 1_555 1_555
H52B C45B 1_555 1_555
H53B C45B 1_555 1_555
C46B C45B 1_555 1_555
H54B C46B 1_555 1_555
H55B C46B 1_555 1_555
C47B C42B 1_555 1_555
H56B C47B 1_555 1_555
H57B C47B 1_555 1_555
C48B C41B 1_555 1_555
H58B C48B 1_555 1_555
H59B C48B 1_555 1_555
H60B C48B 1_555 1_555
C5 C6 1_555 1_555
N7 C10 1_555 1_555
C13 C14 1_555 1_555
C19 C20 1_555 1_555
C21 C22 1_555 1_555
C24 C25 1_555 1_555
C25 C26 1_555 1_555
C32 C33 1_555 1_555
N8 Fe2A 1_555 1_555
C35 C36 1_555 1_555
C38 C39 1_555 1_555
C46 C47 1_555 1_555
C49 C55 1_555 1_555
C53 C54 1_555 1_555
C57 C58 1_555 1_555
C61 C62 1_555 1_555
N5A Fe2A 1_555 1_555
N6A Fe2A 1_555 1_555
C53A C54A 1_555 1_555
C61A C62A 1_555 1_555
C61A C63A 1_555 1_555
N6B Fe2B 1_555 1_555
C53B C54B 1_555 1_555
C61B C62B 1_555 1_555
C61B C63B 1_555 1_555
C63B C64B 1_555 1_555
N4A Fe2B 1_555 1_555
C1A C7A 1_555 1_555
C5A C6A 1_555 1_555
N7A C10A 1_555 1_555
C13A C14A 1_555 1_555
C19A C20A 1_555 1_555
C21A C22A 1_555 1_555
C24A C25A 1_555 1_555
C25A C26A 1_555 1_555
C32A C33A 1_555 1_555
N8A Fe2B 1_555 1_555
C35A C36A 1_555 1_555
C38A C39A 1_555 1_555
C46A C47A 1_555 1_555
C1B C7B 1_555 1_555
C5B C6B 1_555 1_555
N7B C10B 1_555 1_555
C13B C14B 1_555 1_555
C19B C20B 1_555 1_555
C21B C22B 1_555 1_555
C24B C25B 1_555 1_555
C25B C26B 1_555 1_555
C32B C33B 1_555 1_555
C35B C36B 1_555 1_555
C38B C39B 1_555 1_555
C39B C40B 1_555 1_555
C46B C47B 1_555 1_555

#END
