
#######################################################################
#
#                 Cambridge Crystallographic Data Centre
#                                CCDC 
#
#######################################################################
#
# If this CIF has been generated from an entry in the Cambridge 
# Structural Database, then it will include bibliographic, chemical, 
# crystal, experimental, refinement or atomic coordinate data resulting 
# from the CCDC's data processing and validation procedures.
#
#######################################################################

data_LOJKIE
_chemical_formula_moiety         
'C168 H144 Cl12 N48 Ni6 S24,24(C3 H7 N1 O1),13(H2 O1)'
_chemical_name_systematic        
'hexakis((\m~3~-2,4,6-tris((4-Pyridyl)sulfanylmethyl)-1,3,5-triazine)-dichloro-nickel(ii)) dimethylformamide tridecahydrate clathrate'
_symmetry_cell_setting           cubic
_symmetry_space_group_name_H-M   'P n -3 n'
_symmetry_Int_Tables_number      222
_space_group_name_Hall           '-P 4a 2bc 3'
loop_
_symmetry_equiv_pos_site_id
_symmetry_equiv_pos_as_xyz
1 x,y,z
2 z,x,y
3 y,z,x
4 y,x,1/2-z
5 y,1/2-x,z
6 1/2-y,x,z
7 x,z,1/2-y
8 1/2-x,z,y
9 x,1/2-z,y
10 z,y,1/2-x
11 z,1/2-y,x
12 1/2-z,y,x
13 1/2+x,1/2+y,-z
14 1/2+x,-y,1/2+z
15 -x,1/2+y,1/2+z
16 -z,1/2+x,1/2+y
17 1/2+z,1/2+x,-y
18 1/2+z,-x,1/2+y
19 1/2+y,-z,1/2+x
20 -y,1/2+z,1/2+x
21 1/2+y,1/2+z,-x
22 1/2+y,1/2+x,1/2+z
23 1/2+x,1/2+z,1/2+y
24 1/2+z,1/2+y,1/2+x
25 -x,-y,-z
26 -z,-x,-y
27 -y,-z,-x
28 -y,-x,1/2+z
29 -y,1/2+x,-z
30 1/2+y,-x,-z
31 -x,-z,1/2+y
32 1/2+x,-z,-y
33 -x,1/2+z,-y
34 -z,-y,1/2+x
35 -z,1/2+y,-x
36 1/2+z,-y,-x
37 1/2-x,1/2-y,z
38 1/2-x,y,1/2-z
39 x,1/2-y,1/2-z
40 z,1/2-x,1/2-y
41 1/2-z,1/2-x,y
42 1/2-z,x,1/2-y
43 1/2-y,z,1/2-x
44 y,1/2-z,1/2-x
45 1/2-y,1/2-z,x
46 1/2-y,1/2-x,1/2-z
47 1/2-x,1/2-z,1/2-y
48 1/2-z,1/2-y,1/2-x
_cell_length_a                   24.7269(14)
_cell_length_b                   24.7269(14)
_cell_length_c                   24.7269(14)
_cell_angle_alpha                90
_cell_angle_beta                 90
_cell_angle_gamma                90
_cell_volume                     15118.5
_exptl_crystal_colour            'light green'
_exptl_crystal_description       cubic
_cell_formula_units_Z            2
_exptl_crystal_recrystallization_method 'diethyl ether'
loop_
_atom_site_label
_atom_site_type_symbol
_atom_site_fract_x
_atom_site_fract_y
_atom_site_fract_z
N4 N 0.2500 0.5887(10) 0.9113(10)
C9 C 0.2801(14) 0.5996(11) 0.8651(16)
C10 C 0.2182(12) 0.539(4) 0.881(4)
C9TA C 0.2199(14) 0.6349(16) 0.9004(11)
C10TA C 0.2818(12) 0.619(4) 0.961(4)
O1 O 0.2500 0.3301(10) 0.7500
O2 O 0.2500 0.2500 0.2500
Ni1 Ni 0.2500 0.2500 0.56923(7)
S1 S 0.14044(8) 0.51913(8) 0.49819(10)
Cl1 Cl 0.2500 0.2500 0.4720(2)
Cl2 Cl 0.2500 0.2500 0.6622(3)
C1 C 0.0829(3) 0.4839(3) 0.4780(4)
N1 N 0.0591(3) 0.5056(2) 0.4334(3)
N2 N 0.2192(2) 0.3295(2) 0.5695(2)
C2 C 0.2386(3) 0.3670(3) 0.5356(3)
H1 H 0.2676 0.3579 0.5134
C3 C 0.2179(3) 0.4180(3) 0.5320(3)
H2 H 0.2321 0.4422 0.5069
C4 C 0.1763(2) 0.4339(3) 0.5649(3)
C5 C 0.1560(3) 0.3958(3) 0.5999(3)
H3 H 0.1268 0.4040 0.6222
C6 C 0.1791(3) 0.3458(3) 0.6016(3)
H4 H 0.1660 0.3213 0.6269
C7 C 0.1533(3) 0.4909(3) 0.5635(3)
H5 H 0.1782 0.5146 0.5823
H6 H 0.1197 0.4910 0.5836
C1PA C 0.0161(3) 0.4780(4) 0.4171(3)
S1PA S -0.01913(8) 0.49819(10) 0.35956(8)
C7PA C 0.0091(3) 0.5635(3) 0.3467(3)
C4PA C 0.0661(3) 0.5649(3) 0.3237(2)
C3PA C 0.0820(3) 0.5320(3) 0.2821(3)
C2PA C 0.1330(3) 0.5356(3) 0.2614(3)
N2PA N 0.1705(2) 0.5695(2) 0.2808(2)
Ni1PA Ni 0.2500 0.56923(7) 0.2500
Cl1PA Cl 0.2500 0.4720(2) 0.2500
Cl2PA Cl 0.2500 0.6622(3) 0.2500
N2F N 0.2192(2) 0.5695(2) 0.1705(2)
C2F C 0.2386(3) 0.5356(3) 0.1330(3)
H1F H 0.2676 0.5134 0.1421
C3F C 0.2179(3) 0.5320(3) 0.0820(3)
H2F H 0.2321 0.5069 0.0578
C4F C 0.1763(2) 0.5649(3) 0.0661(3)
C5F C 0.1560(3) 0.5999(3) 0.1042(3)
H3F H 0.1268 0.6222 0.0960
C6F C 0.1791(3) 0.6016(3) 0.1542(3)
H4F H 0.1660 0.6269 0.1787
C7F C 0.1533(3) 0.5635(3) 0.0091(3)
S1F S 0.14044(8) 0.49819(10) -0.01913(8)
C1F C 0.0829(3) 0.4780(4) 0.0161(3)
N1F N 0.0591(3) 0.4334(3) -0.0056(2)
C1SA C 0.0161(3) 0.4171(3) 0.0220(4)
S1SA S -0.01913(8) 0.35956(8) 0.00181(10)
C7SA C 0.0091(3) 0.3467(3) -0.0635(3)
C4SA C 0.0661(3) 0.3237(2) -0.0649(3)
C3SA C 0.0820(3) 0.2821(3) -0.0320(3)
C2SA C 0.1330(3) 0.2614(3) -0.0356(3)
N2SA N 0.1705(2) 0.2808(2) -0.0695(2)
Ni1SA Ni 0.2500 0.2500 -0.06923(7)
Cl1SA Cl 0.2500 0.2500 0.0280(2)
Cl2SA Cl 0.2500 0.2500 -0.1622(3)
N2LA N 0.2192(2) 0.1705(2) -0.0695(2)
C2LA C 0.2386(3) 0.1330(3) -0.0356(3)
H1LA H 0.2676 0.1421 -0.0134
C3LA C 0.2179(3) 0.0820(3) -0.0320(3)
H2LA H 0.2321 0.0578 -0.0069
C4LA C 0.1763(2) 0.0661(3) -0.0649(3)
C5LA C 0.1560(3) 0.1042(3) -0.0999(3)
H3LA H 0.1268 0.0960 -0.1222
C6LA C 0.1791(3) 0.1542(3) -0.1016(3)
H4LA H 0.1660 0.1787 -0.1269
C7LA C 0.1533(3) 0.0091(3) -0.0635(3)
S1LA S 0.14044(8) -0.01913(8) 0.00181(10)
C1LA C 0.0829(3) 0.0161(3) 0.0220(4)
N1LA N 0.0591(3) -0.0056(2) 0.0666(3)
C1RA C 0.0161(3) 0.0220(4) 0.0829(3)
S1RA S -0.01913(8) 0.00181(10) 0.14044(8)
C7RA C 0.0091(3) -0.0635(3) 0.1533(3)
C4RA C 0.0661(3) -0.0649(3) 0.1763(2)
C3RA C 0.0820(3) -0.0320(3) 0.2179(3)
C2RA C 0.1330(3) -0.0356(3) 0.2386(3)
N2RA N 0.1705(2) -0.0695(2) 0.2192(2)
Ni1RA Ni 0.2500 -0.06923(7) 0.2500
Cl1RA Cl 0.2500 0.0280(2) 0.2500
Cl2RA Cl 0.2500 -0.1622(3) 0.2500
N2H N 0.2192(2) -0.0695(2) 0.3295(2)
C2H C 0.2386(3) -0.0356(3) 0.3670(3)
H1H H 0.2676 -0.0134 0.3579
C3H C 0.2179(3) -0.0320(3) 0.4180(3)
H2H H 0.2321 -0.0069 0.4422
C4H C 0.1763(2) -0.0649(3) 0.4339(3)
C5H C 0.1560(3) -0.0999(3) 0.3958(3)
H3H H 0.1268 -0.1222 0.4040
C6H C 0.1791(3) -0.1016(3) 0.3458(3)
H4H H 0.1660 -0.1269 0.3213
C7H C 0.1533(3) -0.0635(3) 0.4909(3)
S1H S 0.14044(8) 0.00181(10) 0.51913(8)
C1H C 0.0829(3) 0.0220(4) 0.4839(3)
N1H N 0.0591(3) 0.0666(3) 0.5056(2)
C1E C 0.0161(3) 0.0829(3) 0.4780(4)
S1E S -0.01913(8) 0.14044(8) 0.49819(10)
C7E C 0.0091(3) 0.1533(3) 0.5635(3)
C4E C 0.0661(3) 0.1763(2) 0.5649(3)
C3E C 0.0820(3) 0.2179(3) 0.5320(3)
C2E C 0.1330(3) 0.2386(3) 0.5356(3)
N2E N 0.1705(2) 0.2192(2) 0.5695(2)
N2D N 0.3295(2) 0.2808(2) 0.5695(2)
C2D C 0.3670(3) 0.2614(3) 0.5356(3)
H1D H 0.3579 0.2324 0.5134
C3D C 0.4180(3) 0.2821(3) 0.5320(3)
H2D H 0.4422 0.2679 0.5069
C4D C 0.4339(3) 0.3237(2) 0.5649(3)
C5D C 0.3958(3) 0.3440(3) 0.5999(3)
H3D H 0.4040 0.3732 0.6222
C6D C 0.3458(3) 0.3209(3) 0.6016(3)
H4D H 0.3213 0.3340 0.6269
C7D C 0.4909(3) 0.3467(3) 0.5635(3)
S1D S 0.51913(8) 0.35956(8) 0.49819(10)
C1D C 0.4839(3) 0.4171(3) 0.4780(4)
N1D N 0.5056(2) 0.4409(3) 0.4334(3)
C1I C 0.4780(4) 0.4839(3) 0.4171(3)
S1I S 0.49819(10) 0.51913(8) 0.35956(8)
C7I C 0.5635(3) 0.4909(3) 0.3467(3)
C4I C 0.5649(3) 0.4339(3) 0.3237(2)
C3I C 0.5320(3) 0.4180(3) 0.2821(3)
C2I C 0.5356(3) 0.3670(3) 0.2614(3)
N2I N 0.5695(2) 0.3295(2) 0.2808(2)
Ni1I Ni 0.56923(7) 0.2500 0.2500
Cl1I Cl 0.4720(2) 0.2500 0.2500
Cl2I Cl 0.6622(3) 0.2500 0.2500
N2MA N 0.5695(2) 0.2808(2) 0.1705(2)
C2MA C 0.5356(3) 0.2614(3) 0.1330(3)
H1MA H 0.5134 0.2324 0.1421
C3MA C 0.5320(3) 0.2821(3) 0.0820(3)
H2MA H 0.5069 0.2679 0.0578
C4MA C 0.5649(3) 0.3237(2) 0.0661(3)
C5MA C 0.5999(3) 0.3440(3) 0.1042(3)
H3MA H 0.6222 0.3732 0.0960
C6MA C 0.6016(3) 0.3209(3) 0.1542(3)
H4MA H 0.6269 0.3340 0.1787
C7MA C 0.5635(3) 0.3467(3) 0.0091(3)
S1MA S 0.49819(10) 0.35956(8) -0.01913(8)
C1MA C 0.4780(4) 0.4171(3) 0.0161(3)
N1MA N 0.4334(3) 0.4409(3) -0.0056(2)
C1KA C 0.4171(3) 0.4839(3) 0.0220(4)
S1KA S 0.35956(8) 0.51913(8) 0.00181(10)
C7KA C 0.3467(3) 0.4909(3) -0.0635(3)
C4KA C 0.3237(2) 0.4339(3) -0.0649(3)
C3KA C 0.2821(3) 0.4180(3) -0.0320(3)
C2KA C 0.2614(3) 0.3670(3) -0.0356(3)
N2KA N 0.2808(2) 0.3295(2) -0.0695(2)
N2C N 0.3295(2) 0.2192(2) -0.0695(2)
C2C C 0.3670(3) 0.2386(3) -0.0356(3)
H1C H 0.3579 0.2676 -0.0134
C3C C 0.4180(3) 0.2179(3) -0.0320(3)
H2C H 0.4422 0.2321 -0.0069
C4C C 0.4339(3) 0.1763(2) -0.0649(3)
C5C C 0.3958(3) 0.1560(3) -0.0999(3)
H3C H 0.4040 0.1268 -0.1222
C6C C 0.3458(3) 0.1791(3) -0.1016(3)
H4C H 0.3213 0.1660 -0.1269
C7C C 0.4909(3) 0.1533(3) -0.0635(3)
S1C S 0.51913(8) 0.14044(8) 0.00181(10)
C1C C 0.4839(3) 0.0829(3) 0.0220(4)
N1C N 0.5056(2) 0.0591(3) 0.0666(3)
C1J C 0.4780(4) 0.0161(3) 0.0829(3)
S1J S 0.49819(10) -0.01913(8) 0.14044(8)
C7J C 0.5635(3) 0.0091(3) 0.1533(3)
C4J C 0.5649(3) 0.0661(3) 0.1763(2)
C3J C 0.5320(3) 0.0820(3) 0.2179(3)
C2J C 0.5356(3) 0.1330(3) 0.2386(3)
N2J N 0.5695(2) 0.1705(2) 0.2192(2)
N2A N 0.5695(2) 0.2192(2) 0.3295(2)
C2A C 0.5356(3) 0.2386(3) 0.3670(3)
H1A H 0.5134 0.2676 0.3579
C3A C 0.5320(3) 0.2179(3) 0.4180(3)
H2A H 0.5069 0.2321 0.4422
C4A C 0.5649(3) 0.1763(2) 0.4339(3)
C5A C 0.5999(3) 0.1560(3) 0.3958(3)
H3A H 0.6222 0.1268 0.4040
C6A C 0.6016(3) 0.1791(3) 0.3458(3)
H4A H 0.6269 0.1660 0.3213
C7A C 0.5635(3) 0.1533(3) 0.4909(3)
S1A S 0.49819(10) 0.14044(8) 0.51913(8)
C1A C 0.4780(4) 0.0829(3) 0.4839(3)
N1A N 0.4334(3) 0.0591(3) 0.5056(2)
C1JA C 0.4171(3) 0.0161(3) 0.4780(4)
S1JA S 0.35956(8) -0.01913(8) 0.49819(10)
C7JA C 0.3467(3) 0.0091(3) 0.5635(3)
C4JA C 0.3237(2) 0.0661(3) 0.5649(3)
C3JA C 0.2821(3) 0.0820(3) 0.5320(3)
C2JA C 0.2614(3) 0.1330(3) 0.5356(3)
N2JA N 0.2808(2) 0.1705(2) 0.5695(2)
C6JA C 0.3209(3) 0.1542(3) 0.6016(3)
C5JA C 0.3440(3) 0.1042(3) 0.5999(3)
H3JA H 0.3732 0.0960 0.6222
H4JA H 0.3340 0.1787 0.6269
H1JA H 0.2324 0.1421 0.5134
H2JA H 0.2679 0.0578 0.5069
H5JA H 0.3218 -0.0146 0.5823
H6JA H 0.3803 0.0090 0.5836
N1JA N 0.4409(3) -0.0056(2) 0.4334(3)
C1QA C 0.4839(3) 0.0220(4) 0.4171(3)
S1QA S 0.51913(8) 0.00181(10) 0.35956(8)
C7QA C 0.4909(3) -0.0635(3) 0.3467(3)
C4QA C 0.4339(3) -0.0649(3) 0.3237(2)
C3QA C 0.4180(3) -0.0320(3) 0.2821(3)
C2QA C 0.3670(3) -0.0356(3) 0.2614(3)
N2QA N 0.3295(2) -0.0695(2) 0.2808(2)
N2TA N 0.2808(2) -0.0695(2) 0.1705(2)
C2TA C 0.2614(3) -0.0356(3) 0.1330(3)
H1TA H 0.2324 -0.0134 0.1421
C3TA C 0.2821(3) -0.0320(3) 0.0820(3)
H2TA H 0.2679 -0.0069 0.0578
C4TA C 0.3237(2) -0.0649(3) 0.0661(3)
C5TA C 0.3440(3) -0.0999(3) 0.1042(3)
H3TA H 0.3732 -0.1222 0.0960
C6TA C 0.3209(3) -0.1016(3) 0.1542(3)
H4TA H 0.3340 -0.1269 0.1787
C7TA C 0.3467(3) -0.0635(3) 0.0091(3)
S1TA S 0.35956(8) 0.00181(10) -0.01913(8)
C1TA C 0.4171(3) 0.0220(4) 0.0161(3)
N1TA N 0.4409(3) 0.0666(3) -0.0056(2)
N1J N 0.4334(3) -0.0056(2) 0.0591(3)
H5TA H 0.3218 -0.0823 -0.0146
H6TA H 0.3803 -0.0836 0.0090
C6QA C 0.3458(3) -0.1016(3) 0.3209(3)
C5QA C 0.3958(3) -0.0999(3) 0.3440(3)
H3QA H 0.4040 -0.1222 0.3732
H4QA H 0.3213 -0.1269 0.3340
H1QA H 0.3579 -0.0134 0.2324
H2QA H 0.4422 -0.0069 0.2679
H5QA H 0.5146 -0.0823 0.3218
H6QA H 0.4910 -0.0836 0.3803
N1QA N 0.5056(2) 0.0666(3) 0.4409(3)
H5A H 0.5823 0.1782 0.5146
H6A H 0.5836 0.1197 0.4910
C6J C 0.6016(3) 0.1542(3) 0.1791(3)
C5J C 0.5999(3) 0.1042(3) 0.1560(3)
H3J H 0.6222 0.0960 0.1268
H4J H 0.6269 0.1787 0.1660
H1J H 0.5134 0.1421 0.2676
H2J H 0.5069 0.0578 0.2321
H5J H 0.5823 -0.0146 0.1782
H6J H 0.5836 0.0090 0.1197
H5C H 0.5146 0.1782 -0.0823
H6C H 0.4910 0.1197 -0.0836
C6KA C 0.3209(3) 0.3458(3) -0.1016(3)
C5KA C 0.3440(3) 0.3958(3) -0.0999(3)
H3KA H 0.3732 0.4040 -0.1222
H4KA H 0.3340 0.3213 -0.1269
H1KA H 0.2324 0.3579 -0.0134
H2KA H 0.2679 0.4422 -0.0069
H5KA H 0.3218 0.5146 -0.0823
H6KA H 0.3803 0.4910 -0.0836
N1KA N 0.4409(3) 0.5056(2) 0.0666(3)
C1B C 0.4839(3) 0.4780(4) 0.0829(3)
S1B S 0.51913(8) 0.49819(10) 0.14044(8)
C7B C 0.4909(3) 0.5635(3) 0.1533(3)
C4B C 0.4339(3) 0.5649(3) 0.1763(2)
C3B C 0.4180(3) 0.5320(3) 0.2179(3)
C2B C 0.3670(3) 0.5356(3) 0.2386(3)
N2B N 0.3295(2) 0.5695(2) 0.2192(2)
N2G N 0.2808(2) 0.5695(2) 0.3295(2)
C2G C 0.2614(3) 0.5356(3) 0.3670(3)
H1G H 0.2324 0.5134 0.3579
C3G C 0.2821(3) 0.5320(3) 0.4180(3)
H2G H 0.2679 0.5069 0.4422
C4G C 0.3237(2) 0.5649(3) 0.4339(3)
C5G C 0.3440(3) 0.5999(3) 0.3958(3)
H3G H 0.3732 0.6222 0.4040
C6G C 0.3209(3) 0.6016(3) 0.3458(3)
H4G H 0.3340 0.6269 0.3213
C7G C 0.3467(3) 0.5635(3) 0.4909(3)
S1G S 0.35956(8) 0.49819(10) 0.51913(8)
C1G C 0.4171(3) 0.4780(4) 0.4839(3)
N1G N 0.4409(3) 0.4334(3) 0.5056(2)
N1I N 0.4334(3) 0.5056(2) 0.4409(3)
H5G H 0.3218 0.5823 0.5146
H6G H 0.3803 0.5836 0.4910
C6B C 0.3458(3) 0.6016(3) 0.1791(3)
C5B C 0.3958(3) 0.5999(3) 0.1560(3)
H3B H 0.4040 0.6222 0.1268
H4B H 0.3213 0.6269 0.1660
H1B H 0.3579 0.5134 0.2676
H2B H 0.4422 0.5069 0.2321
H5B H 0.5146 0.5823 0.1782
H6B H 0.4910 0.5836 0.1197
N1B N 0.5056(2) 0.4334(3) 0.0591(3)
H5MA H 0.5823 0.3218 -0.0146
H6MA H 0.5836 0.3803 0.0090
C6I C 0.6016(3) 0.3458(3) 0.3209(3)
C5I C 0.5999(3) 0.3958(3) 0.3440(3)
H3I H 0.6222 0.4040 0.3732
H4I H 0.6269 0.3213 0.3340
H1I H 0.5134 0.3579 0.2324
H2I H 0.5069 0.4422 0.2679
H5I H 0.5823 0.5146 0.3218
H6I H 0.5836 0.4910 0.3803
H5D H 0.5146 0.3218 0.5823
H6D H 0.4910 0.3803 0.5836
C6E C 0.1542(3) 0.1791(3) 0.6016(3)
C5E C 0.1042(3) 0.1560(3) 0.5999(3)
H3E H 0.0960 0.1268 0.6222
H4E H 0.1787 0.1660 0.6269
H1E H 0.1421 0.2676 0.5134
H2E H 0.0578 0.2321 0.5069
H5E H -0.0146 0.1782 0.5823
H6E H 0.0090 0.1197 0.5836
N1E N -0.0056(2) 0.0591(3) 0.4334(3)
C1UA C 0.0220(4) 0.0161(3) 0.4171(3)
S1UA S 0.00181(10) -0.01913(8) 0.35956(8)
C7UA C -0.0635(3) 0.0091(3) 0.3467(3)
C4UA C -0.0649(3) 0.0661(3) 0.3237(2)
C3UA C -0.0320(3) 0.0820(3) 0.2821(3)
C2UA C -0.0356(3) 0.1330(3) 0.2614(3)
N2UA N -0.0695(2) 0.1705(2) 0.2808(2)
Ni1UA Ni -0.06923(7) 0.2500 0.2500
Cl1UA Cl 0.0280(2) 0.2500 0.2500
Cl2UA Cl -0.1622(3) 0.2500 0.2500
N2OA N -0.0695(2) 0.2192(2) 0.1705(2)
C2OA C -0.0356(3) 0.2386(3) 0.1330(3)
H1OA H -0.0134 0.2676 0.1421
C3OA C -0.0320(3) 0.2179(3) 0.0820(3)
H2OA H -0.0069 0.2321 0.0578
C4OA C -0.0649(3) 0.1763(2) 0.0661(3)
C5OA C -0.0999(3) 0.1560(3) 0.1042(3)
H3OA H -0.1222 0.1268 0.0960
C6OA C -0.1016(3) 0.1791(3) 0.1542(3)
H4OA H -0.1269 0.1660 0.1787
C7OA C -0.0635(3) 0.1533(3) 0.0091(3)
S1OA S 0.00181(10) 0.14044(8) -0.01913(8)
C1OA C 0.0220(4) 0.0829(3) 0.0161(3)
N1OA N 0.0666(3) 0.0591(3) -0.0056(2)
N1RA N -0.0056(2) 0.0666(3) 0.0591(3)
H5OA H -0.0823 0.1782 -0.0146
H6OA H -0.0836 0.1197 0.0090
N2NA N -0.0695(2) 0.2808(2) 0.3295(2)
C2NA C -0.0356(3) 0.2614(3) 0.3670(3)
H1NA H -0.0134 0.2324 0.3579
C3NA C -0.0320(3) 0.2821(3) 0.4180(3)
H2NA H -0.0069 0.2679 0.4422
C4NA C -0.0649(3) 0.3237(2) 0.4339(3)
C5NA C -0.0999(3) 0.3440(3) 0.3958(3)
H3NA H -0.1222 0.3732 0.4040
C6NA C -0.1016(3) 0.3209(3) 0.3458(3)
H4NA H -0.1269 0.3340 0.3213
C7NA C -0.0635(3) 0.3467(3) 0.4909(3)
S1NA S 0.00181(10) 0.35956(8) 0.51913(8)
C1NA C 0.0220(4) 0.4171(3) 0.4839(3)
N1NA N 0.0666(3) 0.4409(3) 0.5056(2)
N1PA N -0.0056(2) 0.4334(3) 0.4409(3)
H5NA H -0.0823 0.3218 0.5146
H6NA H -0.0836 0.3803 0.4910
N2K N -0.0695(2) 0.3295(2) 0.2192(2)
C2K C -0.0356(3) 0.3670(3) 0.2386(3)
H1K H -0.0134 0.3579 0.2676
C3K C -0.0320(3) 0.4180(3) 0.2179(3)
H2K H -0.0069 0.4422 0.2321
C4K C -0.0649(3) 0.4339(3) 0.1763(2)
C5K C -0.0999(3) 0.3958(3) 0.1560(3)
H3K H -0.1222 0.4040 0.1268
C6K C -0.1016(3) 0.3458(3) 0.1791(3)
H4K H -0.1269 0.3213 0.1660
C7K C -0.0635(3) 0.4909(3) 0.1533(3)
S1K S 0.00181(10) 0.51913(8) 0.14044(8)
C1K C 0.0220(4) 0.4839(3) 0.0829(3)
N1K N 0.0666(3) 0.5056(2) 0.0591(3)
N1SA N -0.0056(2) 0.4409(3) 0.0666(3)
H5K H -0.0823 0.5146 0.1782
H6K H -0.0836 0.4910 0.1197
C6UA C -0.1016(3) 0.1542(3) 0.3209(3)
C5UA C -0.0999(3) 0.1042(3) 0.3440(3)
H3UA H -0.1222 0.0960 0.3732
H4UA H -0.1269 0.1787 0.3340
H1UA H -0.0134 0.1421 0.2324
H2UA H -0.0069 0.0578 0.2679
H5UA H -0.0823 -0.0146 0.3218
H6UA H -0.0836 0.0090 0.3803
N1UA N 0.0666(3) -0.0056(2) 0.4409(3)
H5H H 0.1782 -0.0823 0.5146
H6H H 0.1197 -0.0836 0.4910
C6RA C 0.1542(3) -0.1016(3) 0.1791(3)
C5RA C 0.1042(3) -0.0999(3) 0.1560(3)
H3RA H 0.0960 -0.1222 0.1268
H4RA H 0.1787 -0.1269 0.1660
H1RA H 0.1421 -0.0134 0.2676
H2RA H 0.0578 -0.0069 0.2321
H5RA H -0.0146 -0.0823 0.1782
H6RA H 0.0090 -0.0836 0.1197
H5LA H 0.1782 -0.0146 -0.0823
H6LA H 0.1197 0.0090 -0.0836
C6SA C 0.1542(3) 0.3209(3) -0.1016(3)
C5SA C 0.1042(3) 0.3440(3) -0.0999(3)
H3SA H 0.0960 0.3732 -0.1222
H4SA H 0.1787 0.3340 -0.1269
H1SA H 0.1421 0.2324 -0.0134
H2SA H 0.0578 0.2679 -0.0069
H5SA H -0.0146 0.3218 -0.0823
H6SA H 0.0090 0.3803 -0.0836
H5F H 0.1782 0.5823 -0.0146
H6F H 0.1197 0.5836 0.0090
C6PA C 0.1542(3) 0.6016(3) 0.3209(3)
C5PA C 0.1042(3) 0.5999(3) 0.3440(3)
H3PA H 0.0960 0.6222 0.3732
H4PA H 0.1787 0.6269 0.3340
H1PA H 0.1421 0.5134 0.2324
H2PA H 0.0578 0.5069 0.2679
H5PA H -0.0146 0.5823 0.3218
H6PA H 0.0090 0.5836 0.3803
loop_
_geom_bond_atom_site_label_1
_geom_bond_atom_site_label_2
_geom_bond_site_symmetry_1
_geom_bond_site_symmetry_2
Ni1 Cl1 1_555 1_555
S1 C1 1_555 1_555
Cl2 Ni1 1_555 1_555
C1 N1 1_555 1_555
N1 C1PA 1_555 1_555
N2 Ni1 1_555 1_555
C2 N2 1_555 1_555
H1 C2 1_555 1_555
C3 C2 1_555 1_555
H2 C3 1_555 1_555
C4 C3 1_555 1_555
C5 C4 1_555 1_555
H3 C5 1_555 1_555
C6 N2 1_555 1_555
H4 C6 1_555 1_555
C7 S1 1_555 1_555
H5 C7 1_555 1_555
H6 C7 1_555 1_555
N4 C9 1_555 1_555
C10 N4 1_555 1_555
C1PA S1PA 1_555 1_555
S1PA C7PA 1_555 1_555
C7PA C4PA 1_555 1_555
C4PA C3PA 1_555 1_555
C3PA C2PA 1_555 1_555
C2PA N2PA 1_555 1_555
N2PA Ni1PA 1_555 1_555
Ni1PA Cl1PA 1_555 1_555
Cl2PA Ni1PA 1_555 1_555
N2F Ni1PA 1_555 1_555
C2F N2F 1_555 1_555
H1F C2F 1_555 1_555
C3F C2F 1_555 1_555
H2F C3F 1_555 1_555
C4F C3F 1_555 1_555
C5F C4F 1_555 1_555
H3F C5F 1_555 1_555
C6F N2F 1_555 1_555
H4F C6F 1_555 1_555
C7F C4F 1_555 1_555
S1F C7F 1_555 1_555
C1F S1F 1_555 1_555
N1F C1F 1_555 1_555
C1SA N1F 1_555 1_555
S1SA C1SA 1_555 1_555
C7SA S1SA 1_555 1_555
C4SA C7SA 1_555 1_555
C3SA C4SA 1_555 1_555
C2SA C3SA 1_555 1_555
N2SA C2SA 1_555 1_555
Ni1SA N2SA 1_555 1_555
Cl1SA Ni1SA 1_555 1_555
Cl2SA Ni1SA 1_555 1_555
N2LA Ni1SA 1_555 1_555
C2LA N2LA 1_555 1_555
H1LA C2LA 1_555 1_555
C3LA C2LA 1_555 1_555
H2LA C3LA 1_555 1_555
C4LA C3LA 1_555 1_555
C5LA C4LA 1_555 1_555
H3LA C5LA 1_555 1_555
C6LA N2LA 1_555 1_555
H4LA C6LA 1_555 1_555
C7LA C4LA 1_555 1_555
S1LA C7LA 1_555 1_555
C1LA S1LA 1_555 1_555
N1LA C1LA 1_555 1_555
C1RA N1LA 1_555 1_555
S1RA C1RA 1_555 1_555
C7RA S1RA 1_555 1_555
C4RA C7RA 1_555 1_555
C3RA C4RA 1_555 1_555
C2RA C3RA 1_555 1_555
N2RA C2RA 1_555 1_555
Ni1RA N2RA 1_555 1_555
Cl1RA Ni1RA 1_555 1_555
Cl2RA Ni1RA 1_555 1_555
N2H Ni1RA 1_555 1_555
C2H N2H 1_555 1_555
H1H C2H 1_555 1_555
C3H C2H 1_555 1_555
H2H C3H 1_555 1_555
C4H C3H 1_555 1_555
C5H C4H 1_555 1_555
H3H C5H 1_555 1_555
C6H N2H 1_555 1_555
H4H C6H 1_555 1_555
C7H C4H 1_555 1_555
S1H C7H 1_555 1_555
C1H S1H 1_555 1_555
N1H C1H 1_555 1_555
C1E N1H 1_555 1_555
S1E C1E 1_555 1_555
C7E S1E 1_555 1_555
C4E C7E 1_555 1_555
C3E C4E 1_555 1_555
C2E C3E 1_555 1_555
N2E Ni1 1_555 1_555
N2D Ni1 1_555 1_555
C2D N2D 1_555 1_555
H1D C2D 1_555 1_555
C3D C2D 1_555 1_555
H2D C3D 1_555 1_555
C4D C3D 1_555 1_555
C5D C4D 1_555 1_555
H3D C5D 1_555 1_555
C6D N2D 1_555 1_555
H4D C6D 1_555 1_555
C7D C4D 1_555 1_555
S1D C7D 1_555 1_555
C1D S1D 1_555 1_555
N1D C1D 1_555 1_555
C1I N1D 1_555 1_555
S1I C1I 1_555 1_555
C7I S1I 1_555 1_555
C4I C7I 1_555 1_555
C3I C4I 1_555 1_555
C2I C3I 1_555 1_555
N2I C2I 1_555 1_555
Ni1I N2I 1_555 1_555
Cl1I Ni1I 1_555 1_555
Cl2I Ni1I 1_555 1_555
N2MA Ni1I 1_555 1_555
C2MA N2MA 1_555 1_555
H1MA C2MA 1_555 1_555
C3MA C2MA 1_555 1_555
H2MA C3MA 1_555 1_555
C4MA C3MA 1_555 1_555
C5MA C4MA 1_555 1_555
H3MA C5MA 1_555 1_555
C6MA N2MA 1_555 1_555
H4MA C6MA 1_555 1_555
C7MA C4MA 1_555 1_555
S1MA C7MA 1_555 1_555
C1MA S1MA 1_555 1_555
N1MA C1MA 1_555 1_555
C1KA N1MA 1_555 1_555
S1KA C1KA 1_555 1_555
C7KA S1KA 1_555 1_555
C4KA C7KA 1_555 1_555
C3KA C4KA 1_555 1_555
C2KA C3KA 1_555 1_555
N2KA Ni1SA 1_555 1_555
N2C Ni1SA 1_555 1_555
C2C N2C 1_555 1_555
H1C C2C 1_555 1_555
C3C C2C 1_555 1_555
H2C C3C 1_555 1_555
C4C C3C 1_555 1_555
C5C C4C 1_555 1_555
H3C C5C 1_555 1_555
C6C N2C 1_555 1_555
H4C C6C 1_555 1_555
C7C C4C 1_555 1_555
S1C C7C 1_555 1_555
C1C S1C 1_555 1_555
N1C C1C 1_555 1_555
C1J N1C 1_555 1_555
S1J C1J 1_555 1_555
C7J S1J 1_555 1_555
C4J C7J 1_555 1_555
C3J C4J 1_555 1_555
C2J C3J 1_555 1_555
N2J Ni1I 1_555 1_555
N2A Ni1I 1_555 1_555
C2A N2A 1_555 1_555
H1A C2A 1_555 1_555
C3A C2A 1_555 1_555
H2A C3A 1_555 1_555
C4A C3A 1_555 1_555
C5A C4A 1_555 1_555
H3A C5A 1_555 1_555
C6A N2A 1_555 1_555
H4A C6A 1_555 1_555
C7A C4A 1_555 1_555
S1A C7A 1_555 1_555
C1A S1A 1_555 1_555
N1A C1A 1_555 1_555
C1JA N1A 1_555 1_555
S1JA C1JA 1_555 1_555
C7JA S1JA 1_555 1_555
C4JA C7JA 1_555 1_555
C3JA C4JA 1_555 1_555
C2JA C3JA 1_555 1_555
N2JA Ni1 1_555 1_555
C6JA N2JA 1_555 1_555
C5JA C4JA 1_555 1_555
H3JA C5JA 1_555 1_555
H4JA C6JA 1_555 1_555
H1JA C2JA 1_555 1_555
H2JA C3JA 1_555 1_555
H5JA C7JA 1_555 1_555
H6JA C7JA 1_555 1_555
N1JA C1JA 1_555 1_555
C1QA N1JA 1_555 1_555
S1QA C1QA 1_555 1_555
C7QA S1QA 1_555 1_555
C4QA C7QA 1_555 1_555
C3QA C4QA 1_555 1_555
C2QA C3QA 1_555 1_555
N2QA Ni1RA 1_555 1_555
N2TA Ni1RA 1_555 1_555
C2TA N2TA 1_555 1_555
H1TA C2TA 1_555 1_555
C3TA C2TA 1_555 1_555
H2TA C3TA 1_555 1_555
C4TA C3TA 1_555 1_555
C5TA C4TA 1_555 1_555
H3TA C5TA 1_555 1_555
C6TA N2TA 1_555 1_555
H4TA C6TA 1_555 1_555
C7TA C4TA 1_555 1_555
S1TA C7TA 1_555 1_555
C1TA S1TA 1_555 1_555
N1TA C1C 1_555 1_555
N1J C1J 1_555 1_555
H5TA C7TA 1_555 1_555
H6TA C7TA 1_555 1_555
C6QA N2QA 1_555 1_555
C5QA C4QA 1_555 1_555
H3QA C5QA 1_555 1_555
H4QA C6QA 1_555 1_555
H1QA C2QA 1_555 1_555
H2QA C3QA 1_555 1_555
H5QA C7QA 1_555 1_555
H6QA C7QA 1_555 1_555
N1QA C1A 1_555 1_555
H5A C7A 1_555 1_555
H6A C7A 1_555 1_555
C6J N2J 1_555 1_555
C5J C4J 1_555 1_555
H3J C5J 1_555 1_555
H4J C6J 1_555 1_555
H1J C2J 1_555 1_555
H2J C3J 1_555 1_555
H5J C7J 1_555 1_555
H6J C7J 1_555 1_555
H5C C7C 1_555 1_555
H6C C7C 1_555 1_555
C6KA N2KA 1_555 1_555
C5KA C4KA 1_555 1_555
H3KA C5KA 1_555 1_555
H4KA C6KA 1_555 1_555
H1KA C2KA 1_555 1_555
H2KA C3KA 1_555 1_555
H5KA C7KA 1_555 1_555
H6KA C7KA 1_555 1_555
N1KA C1KA 1_555 1_555
C1B N1KA 1_555 1_555
S1B C1B 1_555 1_555
C7B S1B 1_555 1_555
C4B C7B 1_555 1_555
C3B C4B 1_555 1_555
C2B C3B 1_555 1_555
N2B Ni1PA 1_555 1_555
N2G Ni1PA 1_555 1_555
C2G N2G 1_555 1_555
H1G C2G 1_555 1_555
C3G C2G 1_555 1_555
H2G C3G 1_555 1_555
C4G C3G 1_555 1_555
C5G C4G 1_555 1_555
H3G C5G 1_555 1_555
C6G N2G 1_555 1_555
H4G C6G 1_555 1_555
C7G C4G 1_555 1_555
S1G C7G 1_555 1_555
C1G S1G 1_555 1_555
N1G C1D 1_555 1_555
N1I C1I 1_555 1_555
H5G C7G 1_555 1_555
H6G C7G 1_555 1_555
C6B N2B 1_555 1_555
C5B C4B 1_555 1_555
H3B C5B 1_555 1_555
H4B C6B 1_555 1_555
H1B C2B 1_555 1_555
H2B C3B 1_555 1_555
H5B C7B 1_555 1_555
H6B C7B 1_555 1_555
N1B C1MA 1_555 1_555
H5MA C7MA 1_555 1_555
H6MA C7MA 1_555 1_555
C6I N2I 1_555 1_555
C5I C4I 1_555 1_555
H3I C5I 1_555 1_555
H4I C6I 1_555 1_555
H1I C2I 1_555 1_555
H2I C3I 1_555 1_555
H5I C7I 1_555 1_555
H6I C7I 1_555 1_555
H5D C7D 1_555 1_555
H6D C7D 1_555 1_555
C6E N2E 1_555 1_555
C5E C4E 1_555 1_555
H3E C5E 1_555 1_555
H4E C6E 1_555 1_555
H1E C2E 1_555 1_555
H2E C3E 1_555 1_555
H5E C7E 1_555 1_555
H6E C7E 1_555 1_555
N1E C1E 1_555 1_555
C1UA N1E 1_555 1_555
S1UA C1UA 1_555 1_555
C7UA S1UA 1_555 1_555
C4UA C7UA 1_555 1_555
C3UA C4UA 1_555 1_555
C2UA C3UA 1_555 1_555
N2UA C2UA 1_555 1_555
Ni1UA N2UA 1_555 1_555
Cl1UA Ni1UA 1_555 1_555
Cl2UA Ni1UA 1_555 1_555
N2OA Ni1UA 1_555 1_555
C2OA N2OA 1_555 1_555
H1OA C2OA 1_555 1_555
C3OA C2OA 1_555 1_555
H2OA C3OA 1_555 1_555
C4OA C3OA 1_555 1_555
C5OA C4OA 1_555 1_555
H3OA C5OA 1_555 1_555
C6OA N2OA 1_555 1_555
H4OA C6OA 1_555 1_555
C7OA C4OA 1_555 1_555
S1OA C7OA 1_555 1_555
C1OA S1OA 1_555 1_555
N1OA C1LA 1_555 1_555
N1RA C1RA 1_555 1_555
H5OA C7OA 1_555 1_555
H6OA C7OA 1_555 1_555
N2NA Ni1UA 1_555 1_555
C2NA N2NA 1_555 1_555
H1NA C2NA 1_555 1_555
C3NA C2NA 1_555 1_555
H2NA C3NA 1_555 1_555
C4NA C3NA 1_555 1_555
C5NA C4NA 1_555 1_555
H3NA C5NA 1_555 1_555
C6NA N2NA 1_555 1_555
H4NA C6NA 1_555 1_555
C7NA C4NA 1_555 1_555
S1NA C7NA 1_555 1_555
C1NA S1NA 1_555 1_555
N1NA C1 1_555 1_555
N1PA C1PA 1_555 1_555
H5NA C7NA 1_555 1_555
H6NA C7NA 1_555 1_555
N2K Ni1UA 1_555 1_555
C2K N2K 1_555 1_555
H1K C2K 1_555 1_555
C3K C2K 1_555 1_555
H2K C3K 1_555 1_555
C4K C3K 1_555 1_555
C5K C4K 1_555 1_555
H3K C5K 1_555 1_555
C6K N2K 1_555 1_555
H4K C6K 1_555 1_555
C7K C4K 1_555 1_555
S1K C7K 1_555 1_555
C1K S1K 1_555 1_555
N1K C1F 1_555 1_555
N1SA C1SA 1_555 1_555
H5K C7K 1_555 1_555
H6K C7K 1_555 1_555
C6UA N2UA 1_555 1_555
C5UA C4UA 1_555 1_555
H3UA C5UA 1_555 1_555
H4UA C6UA 1_555 1_555
H1UA C2UA 1_555 1_555
H2UA C3UA 1_555 1_555
H5UA C7UA 1_555 1_555
H6UA C7UA 1_555 1_555
N1UA C1H 1_555 1_555
H5H C7H 1_555 1_555
H6H C7H 1_555 1_555
C6RA N2RA 1_555 1_555
C5RA C4RA 1_555 1_555
H3RA C5RA 1_555 1_555
H4RA C6RA 1_555 1_555
H1RA C2RA 1_555 1_555
H2RA C3RA 1_555 1_555
H5RA C7RA 1_555 1_555
H6RA C7RA 1_555 1_555
H5LA C7LA 1_555 1_555
H6LA C7LA 1_555 1_555
C6SA N2SA 1_555 1_555
C5SA C4SA 1_555 1_555
H3SA C5SA 1_555 1_555
H4SA C6SA 1_555 1_555
H1SA C2SA 1_555 1_555
H2SA C3SA 1_555 1_555
H5SA C7SA 1_555 1_555
H6SA C7SA 1_555 1_555
H5F C7F 1_555 1_555
H6F C7F 1_555 1_555
C6PA N2PA 1_555 1_555
C5PA C4PA 1_555 1_555
H3PA C5PA 1_555 1_555
H4PA C6PA 1_555 1_555
H1PA C2PA 1_555 1_555
H2PA C3PA 1_555 1_555
H5PA C7PA 1_555 1_555
H6PA C7PA 1_555 1_555
C9TA N4 1_555 1_555
C10TA N4 1_555 1_555
C4 C7 1_555 1_555
C5 C6 1_555 1_555
C5F C6F 1_555 1_555
C5LA C6LA 1_555 1_555
C5H C6H 1_555 1_555
C2E N2E 1_555 1_555
C5D C6D 1_555 1_555
C5MA C6MA 1_555 1_555
C2KA N2KA 1_555 1_555
C5C C6C 1_555 1_555
C2J N2J 1_555 1_555
C5A C6A 1_555 1_555
C2JA N2JA 1_555 1_555
C6JA C5JA 1_555 1_555
C1QA N1QA 1_555 1_555
C2QA N2QA 1_555 1_555
C5TA C6TA 1_555 1_555
C1TA N1TA 1_555 1_555
C1TA N1J 1_555 1_555
C6QA C5QA 1_555 1_555
C6J C5J 1_555 1_555
C6KA C5KA 1_555 1_555
C1B N1B 1_555 1_555
C2B N2B 1_555 1_555
C5G C6G 1_555 1_555
C1G N1G 1_555 1_555
C1G N1I 1_555 1_555
C6B C5B 1_555 1_555
C6I C5I 1_555 1_555
C6E C5E 1_555 1_555
C1UA N1UA 1_555 1_555
C5OA C6OA 1_555 1_555
C1OA N1OA 1_555 1_555
C1OA N1RA 1_555 1_555
C5NA C6NA 1_555 1_555
C1NA N1NA 1_555 1_555
C1NA N1PA 1_555 1_555
C5K C6K 1_555 1_555
C1K N1K 1_555 1_555
C1K N1SA 1_555 1_555
C6UA C5UA 1_555 1_555
C6RA C5RA 1_555 1_555
C6SA C5SA 1_555 1_555
C6PA C5PA 1_555 1_555

#END
