# generated using pymatgen
data_Ni6H144C240S24N68Cl12O13
_symmetry_space_group_name_H-M   'P 1'
_cell_length_a   24.72690000
_cell_length_b   24.72690000
_cell_length_c   24.72690000
_cell_angle_alpha   90.00000000
_cell_angle_beta   90.00000000
_cell_angle_gamma   90.00000000
_symmetry_Int_Tables_number   1
_chemical_formula_structural   Ni6H144C240S24N68Cl12O13
_chemical_formula_sum   'Ni12 H288 C480 S48 N136 Cl24 O26'
_cell_volume   15118.51090197
_cell_formula_units_Z   2
loop_
 _symmetry_equiv_pos_site_id
 _symmetry_equiv_pos_as_xyz
  1  'x, y, z'
loop_
 _atom_site_type_symbol
 _atom_site_label
 _atom_site_symmetry_multiplicity
 _atom_site_fract_x
 _atom_site_fract_y
 _atom_site_fract_z
 _atom_site_occupancy
  Ni  Ni1  1  0.250000  0.250000  0.569230  1.0
  Ni  Ni2  1  0.569230  0.250000  0.250000  1.0
  Ni  Ni3  1  0.250000  0.569230  0.250000  1.0
  Ni  Ni4  1  0.250000  0.250000  0.930770  1.0
  Ni  Ni5  1  0.250000  0.930770  0.250000  1.0
  Ni  Ni6  1  0.930770  0.250000  0.250000  1.0
  Ni  Ni7  1  0.750000  0.750000  0.430770  1.0
  Ni  Ni8  1  0.750000  0.750000  0.069230  1.0
  Ni  Ni9  1  0.430770  0.750000  0.750000  1.0
  Ni  Ni10  1  0.069230  0.750000  0.750000  1.0
  Ni  Ni11  1  0.750000  0.430770  0.750000  1.0
  Ni  Ni12  1  0.750000  0.069230  0.750000  1.0
  H  H13  1  0.267600  0.357900  0.513400  1.0
  H  H14  1  0.513400  0.267600  0.357900  1.0
  H  H15  1  0.357900  0.513400  0.267600  1.0
  H  H16  1  0.357900  0.267600  0.986600  1.0
  H  H17  1  0.357900  0.232400  0.513400  1.0
  H  H18  1  0.142100  0.267600  0.513400  1.0
  H  H19  1  0.267600  0.513400  0.142100  1.0
  H  H20  1  0.232400  0.513400  0.357900  1.0
  H  H21  1  0.267600  0.986600  0.357900  1.0
  H  H22  1  0.513400  0.357900  0.232400  1.0
  H  H23  1  0.513400  0.142100  0.267600  1.0
  H  H24  1  0.986600  0.357900  0.267600  1.0
  H  H25  1  0.767600  0.857900  0.486600  1.0
  H  H26  1  0.767600  0.642100  0.013400  1.0
  H  H27  1  0.732400  0.857900  0.013400  1.0
  H  H28  1  0.486600  0.767600  0.857900  1.0
  H  H29  1  0.013400  0.767600  0.642100  1.0
  H  H30  1  0.013400  0.732400  0.857900  1.0
  H  H31  1  0.857900  0.486600  0.767600  1.0
  H  H32  1  0.642100  0.013400  0.767600  1.0
  H  H33  1  0.857900  0.013400  0.732400  1.0
  H  H34  1  0.857900  0.767600  0.013400  1.0
  H  H35  1  0.767600  0.013400  0.857900  1.0
  H  H36  1  0.013400  0.857900  0.767600  1.0
  H  H37  1  0.732400  0.642100  0.486600  1.0
  H  H38  1  0.486600  0.732400  0.642100  1.0
  H  H39  1  0.642100  0.486600  0.732400  1.0
  H  H40  1  0.642100  0.732400  0.013400  1.0
  H  H41  1  0.642100  0.767600  0.486600  1.0
  H  H42  1  0.857900  0.732400  0.486600  1.0
  H  H43  1  0.732400  0.486600  0.857900  1.0
  H  H44  1  0.767600  0.486600  0.642100  1.0
  H  H45  1  0.732400  0.013400  0.642100  1.0
  H  H46  1  0.486600  0.642100  0.767600  1.0
  H  H47  1  0.486600  0.857900  0.732400  1.0
  H  H48  1  0.013400  0.642100  0.732400  1.0
  H  H49  1  0.232400  0.142100  0.513400  1.0
  H  H50  1  0.232400  0.357900  0.986600  1.0
  H  H51  1  0.267600  0.142100  0.986600  1.0
  H  H52  1  0.513400  0.232400  0.142100  1.0
  H  H53  1  0.986600  0.232400  0.357900  1.0
  H  H54  1  0.986600  0.267600  0.142100  1.0
  H  H55  1  0.142100  0.513400  0.232400  1.0
  H  H56  1  0.357900  0.986600  0.232400  1.0
  H  H57  1  0.142100  0.986600  0.267600  1.0
  H  H58  1  0.142100  0.232400  0.986600  1.0
  H  H59  1  0.232400  0.986600  0.142100  1.0
  H  H60  1  0.986600  0.142100  0.232400  1.0
  H  H61  1  0.232100  0.442200  0.506900  1.0
  H  H62  1  0.506900  0.232100  0.442200  1.0
  H  H63  1  0.442200  0.506900  0.232100  1.0
  H  H64  1  0.442200  0.232100  0.993100  1.0
  H  H65  1  0.442200  0.267900  0.506900  1.0
  H  H66  1  0.057800  0.232100  0.506900  1.0
  H  H67  1  0.232100  0.506900  0.057800  1.0
  H  H68  1  0.267900  0.506900  0.442200  1.0
  H  H69  1  0.232100  0.993100  0.442200  1.0
  H  H70  1  0.506900  0.442200  0.267900  1.0
  H  H71  1  0.506900  0.057800  0.232100  1.0
  H  H72  1  0.993100  0.442200  0.232100  1.0
  H  H73  1  0.732100  0.942200  0.493100  1.0
  H  H74  1  0.732100  0.557800  0.006900  1.0
  H  H75  1  0.767900  0.942200  0.006900  1.0
  H  H76  1  0.493100  0.732100  0.942200  1.0
  H  H77  1  0.006900  0.732100  0.557800  1.0
  H  H78  1  0.006900  0.767900  0.942200  1.0
  H  H79  1  0.942200  0.493100  0.732100  1.0
  H  H80  1  0.557800  0.006900  0.732100  1.0
  H  H81  1  0.942200  0.006900  0.767900  1.0
  H  H82  1  0.942200  0.732100  0.006900  1.0
  H  H83  1  0.732100  0.006900  0.942200  1.0
  H  H84  1  0.006900  0.942200  0.732100  1.0
  H  H85  1  0.767900  0.557800  0.493100  1.0
  H  H86  1  0.493100  0.767900  0.557800  1.0
  H  H87  1  0.557800  0.493100  0.767900  1.0
  H  H88  1  0.557800  0.767900  0.006900  1.0
  H  H89  1  0.557800  0.732100  0.493100  1.0
  H  H90  1  0.942200  0.767900  0.493100  1.0
  H  H91  1  0.767900  0.493100  0.942200  1.0
  H  H92  1  0.732100  0.493100  0.557800  1.0
  H  H93  1  0.767900  0.006900  0.557800  1.0
  H  H94  1  0.493100  0.557800  0.732100  1.0
  H  H95  1  0.493100  0.942200  0.767900  1.0
  H  H96  1  0.006900  0.557800  0.767900  1.0
  H  H97  1  0.267900  0.057800  0.506900  1.0
  H  H98  1  0.267900  0.442200  0.993100  1.0
  H  H99  1  0.232100  0.057800  0.993100  1.0
  H  H100  1  0.506900  0.267900  0.057800  1.0
  H  H101  1  0.993100  0.267900  0.442200  1.0
  H  H102  1  0.993100  0.232100  0.057800  1.0
  H  H103  1  0.057800  0.506900  0.267900  1.0
  H  H104  1  0.442200  0.993100  0.267900  1.0
  H  H105  1  0.057800  0.993100  0.232100  1.0
  H  H106  1  0.057800  0.267900  0.993100  1.0
  H  H107  1  0.267900  0.993100  0.057800  1.0
  H  H108  1  0.993100  0.057800  0.267900  1.0
  H  H109  1  0.126800  0.404000  0.622200  1.0
  H  H110  1  0.622200  0.126800  0.404000  1.0
  H  H111  1  0.404000  0.622200  0.126800  1.0
  H  H112  1  0.404000  0.126800  0.877800  1.0
  H  H113  1  0.404000  0.373200  0.622200  1.0
  H  H114  1  0.096000  0.126800  0.622200  1.0
  H  H115  1  0.126800  0.622200  0.096000  1.0
  H  H116  1  0.373200  0.622200  0.404000  1.0
  H  H117  1  0.126800  0.877800  0.404000  1.0
  H  H118  1  0.622200  0.404000  0.373200  1.0
  H  H119  1  0.622200  0.096000  0.126800  1.0
  H  H120  1  0.877800  0.404000  0.126800  1.0
  H  H121  1  0.626800  0.904000  0.377800  1.0
  H  H122  1  0.626800  0.596000  0.122200  1.0
  H  H123  1  0.873200  0.904000  0.122200  1.0
  H  H124  1  0.377800  0.626800  0.904000  1.0
  H  H125  1  0.122200  0.626800  0.596000  1.0
  H  H126  1  0.122200  0.873200  0.904000  1.0
  H  H127  1  0.904000  0.377800  0.626800  1.0
  H  H128  1  0.596000  0.122200  0.626800  1.0
  H  H129  1  0.904000  0.122200  0.873200  1.0
  H  H130  1  0.904000  0.626800  0.122200  1.0
  H  H131  1  0.626800  0.122200  0.904000  1.0
  H  H132  1  0.122200  0.904000  0.626800  1.0
  H  H133  1  0.873200  0.596000  0.377800  1.0
  H  H134  1  0.377800  0.873200  0.596000  1.0
  H  H135  1  0.596000  0.377800  0.873200  1.0
  H  H136  1  0.596000  0.873200  0.122200  1.0
  H  H137  1  0.596000  0.626800  0.377800  1.0
  H  H138  1  0.904000  0.873200  0.377800  1.0
  H  H139  1  0.873200  0.377800  0.904000  1.0
  H  H140  1  0.626800  0.377800  0.596000  1.0
  H  H141  1  0.873200  0.122200  0.596000  1.0
  H  H142  1  0.377800  0.596000  0.626800  1.0
  H  H143  1  0.377800  0.904000  0.873200  1.0
  H  H144  1  0.122200  0.596000  0.873200  1.0
  H  H145  1  0.373200  0.096000  0.622200  1.0
  H  H146  1  0.373200  0.404000  0.877800  1.0
  H  H147  1  0.126800  0.096000  0.877800  1.0
  H  H148  1  0.622200  0.373200  0.096000  1.0
  H  H149  1  0.877800  0.373200  0.404000  1.0
  H  H150  1  0.877800  0.126800  0.096000  1.0
  H  H151  1  0.096000  0.622200  0.373200  1.0
  H  H152  1  0.404000  0.877800  0.373200  1.0
  H  H153  1  0.096000  0.877800  0.126800  1.0
  H  H154  1  0.096000  0.373200  0.877800  1.0
  H  H155  1  0.373200  0.877800  0.096000  1.0
  H  H156  1  0.877800  0.096000  0.373200  1.0
  H  H157  1  0.166000  0.321300  0.626900  1.0
  H  H158  1  0.626900  0.166000  0.321300  1.0
  H  H159  1  0.321300  0.626900  0.166000  1.0
  H  H160  1  0.321300  0.166000  0.873100  1.0
  H  H161  1  0.321300  0.334000  0.626900  1.0
  H  H162  1  0.178700  0.166000  0.626900  1.0
  H  H163  1  0.166000  0.626900  0.178700  1.0
  H  H164  1  0.334000  0.626900  0.321300  1.0
  H  H165  1  0.166000  0.873100  0.321300  1.0
  H  H166  1  0.626900  0.321300  0.334000  1.0
  H  H167  1  0.626900  0.178700  0.166000  1.0
  H  H168  1  0.873100  0.321300  0.166000  1.0
  H  H169  1  0.666000  0.821300  0.373100  1.0
  H  H170  1  0.666000  0.678700  0.126900  1.0
  H  H171  1  0.834000  0.821300  0.126900  1.0
  H  H172  1  0.373100  0.666000  0.821300  1.0
  H  H173  1  0.126900  0.666000  0.678700  1.0
  H  H174  1  0.126900  0.834000  0.821300  1.0
  H  H175  1  0.821300  0.373100  0.666000  1.0
  H  H176  1  0.678700  0.126900  0.666000  1.0
  H  H177  1  0.821300  0.126900  0.834000  1.0
  H  H178  1  0.821300  0.666000  0.126900  1.0
  H  H179  1  0.666000  0.126900  0.821300  1.0
  H  H180  1  0.126900  0.821300  0.666000  1.0
  H  H181  1  0.834000  0.678700  0.373100  1.0
  H  H182  1  0.373100  0.834000  0.678700  1.0
  H  H183  1  0.678700  0.373100  0.834000  1.0
  H  H184  1  0.678700  0.834000  0.126900  1.0
  H  H185  1  0.678700  0.666000  0.373100  1.0
  H  H186  1  0.821300  0.834000  0.373100  1.0
  H  H187  1  0.834000  0.373100  0.821300  1.0
  H  H188  1  0.666000  0.373100  0.678700  1.0
  H  H189  1  0.834000  0.126900  0.678700  1.0
  H  H190  1  0.373100  0.678700  0.666000  1.0
  H  H191  1  0.373100  0.821300  0.834000  1.0
  H  H192  1  0.126900  0.678700  0.834000  1.0
  H  H193  1  0.334000  0.178700  0.626900  1.0
  H  H194  1  0.334000  0.321300  0.873100  1.0
  H  H195  1  0.166000  0.178700  0.873100  1.0
  H  H196  1  0.626900  0.334000  0.178700  1.0
  H  H197  1  0.873100  0.334000  0.321300  1.0
  H  H198  1  0.873100  0.166000  0.178700  1.0
  H  H199  1  0.178700  0.626900  0.334000  1.0
  H  H200  1  0.321300  0.873100  0.334000  1.0
  H  H201  1  0.178700  0.873100  0.166000  1.0
  H  H202  1  0.178700  0.334000  0.873100  1.0
  H  H203  1  0.334000  0.873100  0.178700  1.0
  H  H204  1  0.873100  0.178700  0.334000  1.0
  H  H205  1  0.178200  0.514600  0.582300  1.0
  H  H206  1  0.582300  0.178200  0.514600  1.0
  H  H207  1  0.514600  0.582300  0.178200  1.0
  H  H208  1  0.514600  0.178200  0.917700  1.0
  H  H209  1  0.514600  0.321800  0.582300  1.0
  H  H210  1  0.985400  0.178200  0.582300  1.0
  H  H211  1  0.178200  0.582300  0.985400  1.0
  H  H212  1  0.321800  0.582300  0.514600  1.0
  H  H213  1  0.178200  0.917700  0.514600  1.0
  H  H214  1  0.582300  0.514600  0.321800  1.0
  H  H215  1  0.582300  0.985400  0.178200  1.0
  H  H216  1  0.917700  0.514600  0.178200  1.0
  H  H217  1  0.678200  0.014600  0.417700  1.0
  H  H218  1  0.678200  0.485400  0.082300  1.0
  H  H219  1  0.821800  0.014600  0.082300  1.0
  H  H220  1  0.417700  0.678200  0.014600  1.0
  H  H221  1  0.082300  0.678200  0.485400  1.0
  H  H222  1  0.082300  0.821800  0.014600  1.0
  H  H223  1  0.014600  0.417700  0.678200  1.0
  H  H224  1  0.485400  0.082300  0.678200  1.0
  H  H225  1  0.014600  0.082300  0.821800  1.0
  H  H226  1  0.014600  0.678200  0.082300  1.0
  H  H227  1  0.678200  0.082300  0.014600  1.0
  H  H228  1  0.082300  0.014600  0.678200  1.0
  H  H229  1  0.821800  0.485400  0.417700  1.0
  H  H230  1  0.417700  0.821800  0.485400  1.0
  H  H231  1  0.485400  0.417700  0.821800  1.0
  H  H232  1  0.485400  0.821800  0.082300  1.0
  H  H233  1  0.485400  0.678200  0.417700  1.0
  H  H234  1  0.014600  0.821800  0.417700  1.0
  H  H235  1  0.821800  0.417700  0.014600  1.0
  H  H236  1  0.678200  0.417700  0.485400  1.0
  H  H237  1  0.821800  0.082300  0.485400  1.0
  H  H238  1  0.417700  0.485400  0.678200  1.0
  H  H239  1  0.417700  0.014600  0.821800  1.0
  H  H240  1  0.082300  0.485400  0.821800  1.0
  H  H241  1  0.321800  0.985400  0.582300  1.0
  H  H242  1  0.321800  0.514600  0.917700  1.0
  H  H243  1  0.178200  0.985400  0.917700  1.0
  H  H244  1  0.582300  0.321800  0.985400  1.0
  H  H245  1  0.917700  0.321800  0.514600  1.0
  H  H246  1  0.917700  0.178200  0.985400  1.0
  H  H247  1  0.985400  0.582300  0.321800  1.0
  H  H248  1  0.514600  0.917700  0.321800  1.0
  H  H249  1  0.985400  0.917700  0.178200  1.0
  H  H250  1  0.985400  0.321800  0.917700  1.0
  H  H251  1  0.321800  0.917700  0.985400  1.0
  H  H252  1  0.917700  0.985400  0.321800  1.0
  H  H253  1  0.119700  0.491000  0.583600  1.0
  H  H254  1  0.583600  0.119700  0.491000  1.0
  H  H255  1  0.491000  0.583600  0.119700  1.0
  H  H256  1  0.491000  0.119700  0.916400  1.0
  H  H257  1  0.491000  0.380300  0.583600  1.0
  H  H258  1  0.009000  0.119700  0.583600  1.0
  H  H259  1  0.119700  0.583600  0.009000  1.0
  H  H260  1  0.380300  0.583600  0.491000  1.0
  H  H261  1  0.119700  0.916400  0.491000  1.0
  H  H262  1  0.583600  0.491000  0.380300  1.0
  H  H263  1  0.583600  0.009000  0.119700  1.0
  H  H264  1  0.916400  0.491000  0.119700  1.0
  H  H265  1  0.619700  0.991000  0.416400  1.0
  H  H266  1  0.619700  0.509000  0.083600  1.0
  H  H267  1  0.880300  0.991000  0.083600  1.0
  H  H268  1  0.416400  0.619700  0.991000  1.0
  H  H269  1  0.083600  0.619700  0.509000  1.0
  H  H270  1  0.083600  0.880300  0.991000  1.0
  H  H271  1  0.991000  0.416400  0.619700  1.0
  H  H272  1  0.509000  0.083600  0.619700  1.0
  H  H273  1  0.991000  0.083600  0.880300  1.0
  H  H274  1  0.991000  0.619700  0.083600  1.0
  H  H275  1  0.619700  0.083600  0.991000  1.0
  H  H276  1  0.083600  0.991000  0.619700  1.0
  H  H277  1  0.880300  0.509000  0.416400  1.0
  H  H278  1  0.416400  0.880300  0.509000  1.0
  H  H279  1  0.509000  0.416400  0.880300  1.0
  H  H280  1  0.509000  0.880300  0.083600  1.0
  H  H281  1  0.509000  0.619700  0.416400  1.0
  H  H282  1  0.991000  0.880300  0.416400  1.0
  H  H283  1  0.880300  0.416400  0.991000  1.0
  H  H284  1  0.619700  0.416400  0.509000  1.0
  H  H285  1  0.880300  0.083600  0.509000  1.0
  H  H286  1  0.416400  0.509000  0.619700  1.0
  H  H287  1  0.416400  0.991000  0.880300  1.0
  H  H288  1  0.083600  0.509000  0.880300  1.0
  H  H289  1  0.380300  0.009000  0.583600  1.0
  H  H290  1  0.380300  0.491000  0.916400  1.0
  H  H291  1  0.119700  0.009000  0.916400  1.0
  H  H292  1  0.583600  0.380300  0.009000  1.0
  H  H293  1  0.916400  0.380300  0.491000  1.0
  H  H294  1  0.916400  0.119700  0.009000  1.0
  H  H295  1  0.009000  0.583600  0.380300  1.0
  H  H296  1  0.491000  0.916400  0.380300  1.0
  H  H297  1  0.009000  0.916400  0.119700  1.0
  H  H298  1  0.009000  0.380300  0.916400  1.0
  H  H299  1  0.380300  0.916400  0.009000  1.0
  H  H300  1  0.916400  0.009000  0.380300  1.0
  C  C301  1  0.138500  0.327300  0.414700  1
  C  C302  1  0.414700  0.138500  0.327300  1
  C  C303  1  0.327300  0.414700  0.138500  1
  C  C304  1  0.327300  0.138500  0.085300  1
  C  C305  1  0.327300  0.361500  0.414700  1
  C  C306  1  0.172700  0.138500  0.414700  1
  C  C307  1  0.138500  0.414700  0.172700  1
  C  C308  1  0.361500  0.414700  0.327300  1
  C  C309  1  0.138500  0.085300  0.327300  1
  C  C310  1  0.414700  0.327300  0.361500  1
  C  C311  1  0.414700  0.172700  0.138500  1
  C  C312  1  0.085300  0.327300  0.138500  1
  C  C313  1  0.638500  0.827300  0.585300  1
  C  C314  1  0.638500  0.672700  0.914700  1
  C  C315  1  0.861500  0.827300  0.914700  1
  C  C316  1  0.585300  0.638500  0.827300  1
  C  C317  1  0.914700  0.638500  0.672700  1
  C  C318  1  0.914700  0.861500  0.827300  1
  C  C319  1  0.827300  0.585300  0.638500  1
  C  C320  1  0.672700  0.914700  0.638500  1
  C  C321  1  0.827300  0.914700  0.861500  1
  C  C322  1  0.827300  0.638500  0.914700  1
  C  C323  1  0.638500  0.914700  0.827300  1
  C  C324  1  0.914700  0.827300  0.638500  1
  C  C325  1  0.861500  0.672700  0.585300  1
  C  C326  1  0.585300  0.861500  0.672700  1
  C  C327  1  0.672700  0.585300  0.861500  1
  C  C328  1  0.672700  0.861500  0.914700  1
  C  C329  1  0.672700  0.638500  0.585300  1
  C  C330  1  0.827300  0.861500  0.585300  1
  C  C331  1  0.861500  0.585300  0.827300  1
  C  C332  1  0.638500  0.585300  0.672700  1
  C  C333  1  0.861500  0.914700  0.672700  1
  C  C334  1  0.585300  0.672700  0.638500  1
  C  C335  1  0.585300  0.827300  0.861500  1
  C  C336  1  0.914700  0.672700  0.861500  1
  C  C337  1  0.361500  0.172700  0.414700  1
  C  C338  1  0.361500  0.327300  0.085300  1
  C  C339  1  0.138500  0.172700  0.085300  1
  C  C340  1  0.414700  0.361500  0.172700  1
  C  C341  1  0.085300  0.361500  0.327300  1
  C  C342  1  0.085300  0.138500  0.172700  1
  C  C343  1  0.172700  0.414700  0.361500  1
  C  C344  1  0.327300  0.085300  0.361500  1
  C  C345  1  0.172700  0.085300  0.138500  1
  C  C346  1  0.172700  0.361500  0.085300  1
  C  C347  1  0.361500  0.085300  0.172700  1
  C  C348  1  0.085300  0.172700  0.361500  1
  C  C349  1  0.280100  0.599600  0.865100  1.0
  C  C350  1  0.865100  0.280100  0.599600  1.0
  C  C351  1  0.599600  0.865100  0.280100  1.0
  C  C352  1  0.599600  0.280100  0.634900  1.0
  C  C353  1  0.599600  0.219900  0.865100  1.0
  C  C354  1  0.900400  0.280100  0.865100  1.0
  C  C355  1  0.280100  0.865100  0.900400  1.0
  C  C356  1  0.219900  0.865100  0.599600  1.0
  C  C357  1  0.280100  0.634900  0.599600  1.0
  C  C358  1  0.865100  0.599600  0.219900  1.0
  C  C359  1  0.865100  0.900400  0.280100  1.0
  C  C360  1  0.634900  0.599600  0.280100  1.0
  C  C361  1  0.780100  0.099600  0.134900  1.0
  C  C362  1  0.780100  0.400400  0.365100  1.0
  C  C363  1  0.719900  0.099600  0.365100  1.0
  C  C364  1  0.134900  0.780100  0.099600  1.0
  C  C365  1  0.365100  0.780100  0.400400  1.0
  C  C366  1  0.365100  0.719900  0.099600  1.0
  C  C367  1  0.099600  0.134900  0.780100  1.0
  C  C368  1  0.400400  0.365100  0.780100  1.0
  C  C369  1  0.099600  0.365100  0.719900  1.0
  C  C370  1  0.099600  0.780100  0.365100  1.0
  C  C371  1  0.780100  0.365100  0.099600  1.0
  C  C372  1  0.365100  0.099600  0.780100  1.0
  C  C373  1  0.719900  0.400400  0.134900  1.0
  C  C374  1  0.134900  0.719900  0.400400  1.0
  C  C375  1  0.400400  0.134900  0.719900  1.0
  C  C376  1  0.400400  0.719900  0.365100  1.0
  C  C377  1  0.400400  0.780100  0.134900  1.0
  C  C378  1  0.099600  0.719900  0.134900  1.0
  C  C379  1  0.719900  0.134900  0.099600  1.0
  C  C380  1  0.780100  0.134900  0.400400  1.0
  C  C381  1  0.719900  0.365100  0.400400  1.0
  C  C382  1  0.134900  0.400400  0.780100  1.0
  C  C383  1  0.134900  0.099600  0.719900  1.0
  C  C384  1  0.365100  0.400400  0.719900  1.0
  C  C385  1  0.219900  0.900400  0.865100  1.0
  C  C386  1  0.219900  0.599600  0.634900  1.0
  C  C387  1  0.280100  0.900400  0.634900  1.0
  C  C388  1  0.865100  0.219900  0.900400  1.0
  C  C389  1  0.634900  0.219900  0.599600  1.0
  C  C390  1  0.634900  0.280100  0.900400  1.0
  C  C391  1  0.900400  0.865100  0.219900  1.0
  C  C392  1  0.599600  0.634900  0.219900  1.0
  C  C393  1  0.900400  0.634900  0.280100  1.0
  C  C394  1  0.900400  0.219900  0.634900  1.0
  C  C395  1  0.219900  0.634900  0.900400  1.0
  C  C396  1  0.634900  0.900400  0.219900  1.0
  C  C397  1  0.218200  0.539000  0.881000  1.0
  C  C398  1  0.881000  0.218200  0.539000  1.0
  C  C399  1  0.539000  0.881000  0.218200  1.0
  C  C400  1  0.539000  0.218200  0.619000  1.0
  C  C401  1  0.539000  0.281800  0.881000  1.0
  C  C402  1  0.961000  0.218200  0.881000  1.0
  C  C403  1  0.218200  0.881000  0.961000  1.0
  C  C404  1  0.281800  0.881000  0.539000  1.0
  C  C405  1  0.218200  0.619000  0.539000  1.0
  C  C406  1  0.881000  0.539000  0.281800  1.0
  C  C407  1  0.881000  0.961000  0.218200  1.0
  C  C408  1  0.619000  0.539000  0.218200  1.0
  C  C409  1  0.718200  0.039000  0.119000  1.0
  C  C410  1  0.718200  0.461000  0.381000  1.0
  C  C411  1  0.781800  0.039000  0.381000  1.0
  C  C412  1  0.119000  0.718200  0.039000  1.0
  C  C413  1  0.381000  0.718200  0.461000  1.0
  C  C414  1  0.381000  0.781800  0.039000  1.0
  C  C415  1  0.039000  0.119000  0.718200  1.0
  C  C416  1  0.461000  0.381000  0.718200  1.0
  C  C417  1  0.039000  0.381000  0.781800  1.0
  C  C418  1  0.039000  0.718200  0.381000  1.0
  C  C419  1  0.718200  0.381000  0.039000  1.0
  C  C420  1  0.381000  0.039000  0.718200  1.0
  C  C421  1  0.781800  0.461000  0.119000  1.0
  C  C422  1  0.119000  0.781800  0.461000  1.0
  C  C423  1  0.461000  0.119000  0.781800  1.0
  C  C424  1  0.461000  0.781800  0.381000  1.0
  C  C425  1  0.461000  0.718200  0.119000  1.0
  C  C426  1  0.039000  0.781800  0.119000  1.0
  C  C427  1  0.781800  0.119000  0.039000  1.0
  C  C428  1  0.718200  0.119000  0.461000  1.0
  C  C429  1  0.781800  0.381000  0.461000  1.0
  C  C430  1  0.119000  0.461000  0.718200  1.0
  C  C431  1  0.119000  0.039000  0.781800  1.0
  C  C432  1  0.381000  0.461000  0.781800  1.0
  C  C433  1  0.281800  0.961000  0.881000  1.0
  C  C434  1  0.281800  0.539000  0.619000  1.0
  C  C435  1  0.218200  0.961000  0.619000  1.0
  C  C436  1  0.881000  0.281800  0.961000  1.0
  C  C437  1  0.619000  0.281800  0.539000  1.0
  C  C438  1  0.619000  0.218200  0.961000  1.0
  C  C439  1  0.961000  0.881000  0.281800  1.0
  C  C440  1  0.539000  0.619000  0.281800  1.0
  C  C441  1  0.961000  0.619000  0.218200  1.0
  C  C442  1  0.961000  0.281800  0.619000  1.0
  C  C443  1  0.281800  0.619000  0.961000  1.0
  C  C444  1  0.619000  0.961000  0.281800  1.0
  C  C445  1  0.082900  0.483900  0.478000  1.0
  C  C446  1  0.478000  0.082900  0.483900  1.0
  C  C447  1  0.483900  0.478000  0.082900  1.0
  C  C448  1  0.483900  0.082900  0.022000  1.0
  C  C449  1  0.483900  0.417100  0.478000  1.0
  C  C450  1  0.016100  0.082900  0.478000  1.0
  C  C451  1  0.082900  0.478000  0.016100  1.0
  C  C452  1  0.417100  0.478000  0.483900  1.0
  C  C453  1  0.082900  0.022000  0.483900  1.0
  C  C454  1  0.478000  0.483900  0.417100  1.0
  C  C455  1  0.478000  0.016100  0.082900  1.0
  C  C456  1  0.022000  0.483900  0.082900  1.0
  C  C457  1  0.582900  0.983900  0.522000  1.0
  C  C458  1  0.582900  0.516100  0.978000  1.0
  C  C459  1  0.917100  0.983900  0.978000  1.0
  C  C460  1  0.522000  0.582900  0.983900  1.0
  C  C461  1  0.978000  0.582900  0.516100  1.0
  C  C462  1  0.978000  0.917100  0.983900  1.0
  C  C463  1  0.983900  0.522000  0.582900  1.0
  C  C464  1  0.516100  0.978000  0.582900  1.0
  C  C465  1  0.983900  0.978000  0.917100  1.0
  C  C466  1  0.983900  0.582900  0.978000  1.0
  C  C467  1  0.582900  0.978000  0.983900  1.0
  C  C468  1  0.978000  0.983900  0.582900  1.0
  C  C469  1  0.917100  0.516100  0.522000  1.0
  C  C470  1  0.522000  0.917100  0.516100  1.0
  C  C471  1  0.516100  0.522000  0.917100  1.0
  C  C472  1  0.516100  0.917100  0.978000  1.0
  C  C473  1  0.516100  0.582900  0.522000  1.0
  C  C474  1  0.983900  0.917100  0.522000  1.0
  C  C475  1  0.917100  0.522000  0.983900  1.0
  C  C476  1  0.582900  0.522000  0.516100  1.0
  C  C477  1  0.917100  0.978000  0.516100  1.0
  C  C478  1  0.522000  0.516100  0.582900  1.0
  C  C479  1  0.522000  0.983900  0.917100  1.0
  C  C480  1  0.978000  0.516100  0.917100  1.0
  C  C481  1  0.417100  0.016100  0.478000  1.0
  C  C482  1  0.417100  0.483900  0.022000  1.0
  C  C483  1  0.082900  0.016100  0.022000  1.0
  C  C484  1  0.478000  0.417100  0.016100  1.0
  C  C485  1  0.022000  0.417100  0.483900  1.0
  C  C486  1  0.022000  0.082900  0.016100  1.0
  C  C487  1  0.016100  0.478000  0.417100  1.0
  C  C488  1  0.483900  0.022000  0.417100  1.0
  C  C489  1  0.016100  0.022000  0.082900  1.0
  C  C490  1  0.016100  0.417100  0.022000  1.0
  C  C491  1  0.417100  0.022000  0.016100  1.0
  C  C492  1  0.022000  0.016100  0.417100  1.0
  C  C493  1  0.238600  0.367000  0.535600  1.0
  C  C494  1  0.535600  0.238600  0.367000  1.0
  C  C495  1  0.367000  0.535600  0.238600  1.0
  C  C496  1  0.367000  0.238600  0.964400  1.0
  C  C497  1  0.367000  0.261400  0.535600  1.0
  C  C498  1  0.133000  0.238600  0.535600  1.0
  C  C499  1  0.238600  0.535600  0.133000  1.0
  C  C500  1  0.261400  0.535600  0.367000  1.0
  C  C501  1  0.238600  0.964400  0.367000  1.0
  C  C502  1  0.535600  0.367000  0.261400  1.0
  C  C503  1  0.535600  0.133000  0.238600  1.0
  C  C504  1  0.964400  0.367000  0.238600  1.0
  C  C505  1  0.738600  0.867000  0.464400  1.0
  C  C506  1  0.738600  0.633000  0.035600  1.0
  C  C507  1  0.761400  0.867000  0.035600  1.0
  C  C508  1  0.464400  0.738600  0.867000  1.0
  C  C509  1  0.035600  0.738600  0.633000  1.0
  C  C510  1  0.035600  0.761400  0.867000  1.0
  C  C511  1  0.867000  0.464400  0.738600  1.0
  C  C512  1  0.633000  0.035600  0.738600  1.0
  C  C513  1  0.867000  0.035600  0.761400  1.0
  C  C514  1  0.867000  0.738600  0.035600  1.0
  C  C515  1  0.738600  0.035600  0.867000  1.0
  C  C516  1  0.035600  0.867000  0.738600  1.0
  C  C517  1  0.761400  0.633000  0.464400  1.0
  C  C518  1  0.464400  0.761400  0.633000  1.0
  C  C519  1  0.633000  0.464400  0.761400  1.0
  C  C520  1  0.633000  0.761400  0.035600  1.0
  C  C521  1  0.633000  0.738600  0.464400  1.0
  C  C522  1  0.867000  0.761400  0.464400  1.0
  C  C523  1  0.761400  0.464400  0.867000  1.0
  C  C524  1  0.738600  0.464400  0.633000  1.0
  C  C525  1  0.761400  0.035600  0.633000  1.0
  C  C526  1  0.464400  0.633000  0.738600  1.0
  C  C527  1  0.464400  0.867000  0.761400  1.0
  C  C528  1  0.035600  0.633000  0.761400  1.0
  C  C529  1  0.261400  0.133000  0.535600  1.0
  C  C530  1  0.261400  0.367000  0.964400  1.0
  C  C531  1  0.238600  0.133000  0.964400  1.0
  C  C532  1  0.535600  0.261400  0.133000  1.0
  C  C533  1  0.964400  0.261400  0.367000  1.0
  C  C534  1  0.964400  0.238600  0.133000  1.0
  C  C535  1  0.133000  0.535600  0.261400  1.0
  C  C536  1  0.367000  0.964400  0.261400  1.0
  C  C537  1  0.133000  0.964400  0.238600  1.0
  C  C538  1  0.133000  0.261400  0.964400  1.0
  C  C539  1  0.261400  0.964400  0.133000  1.0
  C  C540  1  0.964400  0.133000  0.261400  1.0
  C  C541  1  0.217900  0.418000  0.532000  1.0
  C  C542  1  0.532000  0.217900  0.418000  1.0
  C  C543  1  0.418000  0.532000  0.217900  1.0
  C  C544  1  0.418000  0.217900  0.968000  1.0
  C  C545  1  0.418000  0.282100  0.532000  1.0
  C  C546  1  0.082000  0.217900  0.532000  1.0
  C  C547  1  0.217900  0.532000  0.082000  1.0
  C  C548  1  0.282100  0.532000  0.418000  1.0
  C  C549  1  0.217900  0.968000  0.418000  1.0
  C  C550  1  0.532000  0.418000  0.282100  1.0
  C  C551  1  0.532000  0.082000  0.217900  1.0
  C  C552  1  0.968000  0.418000  0.217900  1.0
  C  C553  1  0.717900  0.918000  0.468000  1.0
  C  C554  1  0.717900  0.582000  0.032000  1.0
  C  C555  1  0.782100  0.918000  0.032000  1.0
  C  C556  1  0.468000  0.717900  0.918000  1.0
  C  C557  1  0.032000  0.717900  0.582000  1.0
  C  C558  1  0.032000  0.782100  0.918000  1.0
  C  C559  1  0.918000  0.468000  0.717900  1.0
  C  C560  1  0.582000  0.032000  0.717900  1.0
  C  C561  1  0.918000  0.032000  0.782100  1.0
  C  C562  1  0.918000  0.717900  0.032000  1.0
  C  C563  1  0.717900  0.032000  0.918000  1.0
  C  C564  1  0.032000  0.918000  0.717900  1.0
  C  C565  1  0.782100  0.582000  0.468000  1.0
  C  C566  1  0.468000  0.782100  0.582000  1.0
  C  C567  1  0.582000  0.468000  0.782100  1.0
  C  C568  1  0.582000  0.782100  0.032000  1.0
  C  C569  1  0.582000  0.717900  0.468000  1.0
  C  C570  1  0.918000  0.782100  0.468000  1.0
  C  C571  1  0.782100  0.468000  0.918000  1.0
  C  C572  1  0.717900  0.468000  0.582000  1.0
  C  C573  1  0.782100  0.032000  0.582000  1.0
  C  C574  1  0.468000  0.582000  0.717900  1.0
  C  C575  1  0.468000  0.918000  0.782100  1.0
  C  C576  1  0.032000  0.582000  0.782100  1.0
  C  C577  1  0.282100  0.082000  0.532000  1.0
  C  C578  1  0.282100  0.418000  0.968000  1.0
  C  C579  1  0.217900  0.082000  0.968000  1.0
  C  C580  1  0.532000  0.282100  0.082000  1.0
  C  C581  1  0.968000  0.282100  0.418000  1.0
  C  C582  1  0.968000  0.217900  0.082000  1.0
  C  C583  1  0.082000  0.532000  0.282100  1.0
  C  C584  1  0.418000  0.968000  0.282100  1.0
  C  C585  1  0.082000  0.968000  0.217900  1.0
  C  C586  1  0.082000  0.282100  0.968000  1.0
  C  C587  1  0.282100  0.968000  0.082000  1.0
  C  C588  1  0.968000  0.082000  0.282100  1.0
  C  C589  1  0.176300  0.433900  0.564900  1.0
  C  C590  1  0.564900  0.176300  0.433900  1.0
  C  C591  1  0.433900  0.564900  0.176300  1.0
  C  C592  1  0.433900  0.176300  0.935100  1.0
  C  C593  1  0.433900  0.323700  0.564900  1.0
  C  C594  1  0.066100  0.176300  0.564900  1.0
  C  C595  1  0.176300  0.564900  0.066100  1.0
  C  C596  1  0.323700  0.564900  0.433900  1.0
  C  C597  1  0.176300  0.935100  0.433900  1.0
  C  C598  1  0.564900  0.433900  0.323700  1.0
  C  C599  1  0.564900  0.066100  0.176300  1.0
  C  C600  1  0.935100  0.433900  0.176300  1.0
  C  C601  1  0.676300  0.933900  0.435100  1.0
  C  C602  1  0.676300  0.566100  0.064900  1.0
  C  C603  1  0.823700  0.933900  0.064900  1.0
  C  C604  1  0.435100  0.676300  0.933900  1.0
  C  C605  1  0.064900  0.676300  0.566100  1.0
  C  C606  1  0.064900  0.823700  0.933900  1.0
  C  C607  1  0.933900  0.435100  0.676300  1.0
  C  C608  1  0.566100  0.064900  0.676300  1.0
  C  C609  1  0.933900  0.064900  0.823700  1.0
  C  C610  1  0.933900  0.676300  0.064900  1.0
  C  C611  1  0.676300  0.064900  0.933900  1.0
  C  C612  1  0.064900  0.933900  0.676300  1.0
  C  C613  1  0.823700  0.566100  0.435100  1.0
  C  C614  1  0.435100  0.823700  0.566100  1.0
  C  C615  1  0.566100  0.435100  0.823700  1.0
  C  C616  1  0.566100  0.823700  0.064900  1.0
  C  C617  1  0.566100  0.676300  0.435100  1.0
  C  C618  1  0.933900  0.823700  0.435100  1.0
  C  C619  1  0.823700  0.435100  0.933900  1.0
  C  C620  1  0.676300  0.435100  0.566100  1.0
  C  C621  1  0.823700  0.064900  0.566100  1.0
  C  C622  1  0.435100  0.566100  0.676300  1.0
  C  C623  1  0.435100  0.933900  0.823700  1.0
  C  C624  1  0.064900  0.566100  0.823700  1.0
  C  C625  1  0.323700  0.066100  0.564900  1.0
  C  C626  1  0.323700  0.433900  0.935100  1.0
  C  C627  1  0.176300  0.066100  0.935100  1.0
  C  C628  1  0.564900  0.323700  0.066100  1.0
  C  C629  1  0.935100  0.323700  0.433900  1.0
  C  C630  1  0.935100  0.176300  0.066100  1.0
  C  C631  1  0.066100  0.564900  0.323700  1.0
  C  C632  1  0.433900  0.935100  0.323700  1.0
  C  C633  1  0.066100  0.935100  0.176300  1.0
  C  C634  1  0.066100  0.323700  0.935100  1.0
  C  C635  1  0.323700  0.935100  0.066100  1.0
  C  C636  1  0.935100  0.066100  0.323700  1.0
  C  C637  1  0.156000  0.395800  0.599900  1.0
  C  C638  1  0.599900  0.156000  0.395800  1.0
  C  C639  1  0.395800  0.599900  0.156000  1.0
  C  C640  1  0.395800  0.156000  0.900100  1.0
  C  C641  1  0.395800  0.344000  0.599900  1.0
  C  C642  1  0.104200  0.156000  0.599900  1.0
  C  C643  1  0.156000  0.599900  0.104200  1.0
  C  C644  1  0.344000  0.599900  0.395800  1.0
  C  C645  1  0.156000  0.900100  0.395800  1.0
  C  C646  1  0.599900  0.395800  0.344000  1.0
  C  C647  1  0.599900  0.104200  0.156000  1.0
  C  C648  1  0.900100  0.395800  0.156000  1.0
  C  C649  1  0.656000  0.895800  0.400100  1.0
  C  C650  1  0.656000  0.604200  0.099900  1.0
  C  C651  1  0.844000  0.895800  0.099900  1.0
  C  C652  1  0.400100  0.656000  0.895800  1.0
  C  C653  1  0.099900  0.656000  0.604200  1.0
  C  C654  1  0.099900  0.844000  0.895800  1.0
  C  C655  1  0.895800  0.400100  0.656000  1.0
  C  C656  1  0.604200  0.099900  0.656000  1.0
  C  C657  1  0.895800  0.099900  0.844000  1.0
  C  C658  1  0.895800  0.656000  0.099900  1.0
  C  C659  1  0.656000  0.099900  0.895800  1.0
  C  C660  1  0.099900  0.895800  0.656000  1.0
  C  C661  1  0.844000  0.604200  0.400100  1.0
  C  C662  1  0.400100  0.844000  0.604200  1.0
  C  C663  1  0.604200  0.400100  0.844000  1.0
  C  C664  1  0.604200  0.844000  0.099900  1.0
  C  C665  1  0.604200  0.656000  0.400100  1.0
  C  C666  1  0.895800  0.844000  0.400100  1.0
  C  C667  1  0.844000  0.400100  0.895800  1.0
  C  C668  1  0.656000  0.400100  0.604200  1.0
  C  C669  1  0.844000  0.099900  0.604200  1.0
  C  C670  1  0.400100  0.604200  0.656000  1.0
  C  C671  1  0.400100  0.895800  0.844000  1.0
  C  C672  1  0.099900  0.604200  0.844000  1.0
  C  C673  1  0.344000  0.104200  0.599900  1.0
  C  C674  1  0.344000  0.395800  0.900100  1.0
  C  C675  1  0.156000  0.104200  0.900100  1.0
  C  C676  1  0.599900  0.344000  0.104200  1.0
  C  C677  1  0.900100  0.344000  0.395800  1.0
  C  C678  1  0.900100  0.156000  0.104200  1.0
  C  C679  1  0.104200  0.599900  0.344000  1.0
  C  C680  1  0.395800  0.900100  0.344000  1.0
  C  C681  1  0.104200  0.900100  0.156000  1.0
  C  C682  1  0.104200  0.344000  0.900100  1.0
  C  C683  1  0.344000  0.900100  0.104200  1.0
  C  C684  1  0.900100  0.104200  0.344000  1.0
  C  C685  1  0.179100  0.345800  0.601600  1.0
  C  C686  1  0.601600  0.179100  0.345800  1.0
  C  C687  1  0.345800  0.601600  0.179100  1.0
  C  C688  1  0.345800  0.179100  0.898400  1.0
  C  C689  1  0.345800  0.320900  0.601600  1.0
  C  C690  1  0.154200  0.179100  0.601600  1.0
  C  C691  1  0.179100  0.601600  0.154200  1.0
  C  C692  1  0.320900  0.601600  0.345800  1.0
  C  C693  1  0.179100  0.898400  0.345800  1.0
  C  C694  1  0.601600  0.345800  0.320900  1.0
  C  C695  1  0.601600  0.154200  0.179100  1.0
  C  C696  1  0.898400  0.345800  0.179100  1.0
  C  C697  1  0.679100  0.845800  0.398400  1.0
  C  C698  1  0.679100  0.654200  0.101600  1.0
  C  C699  1  0.820900  0.845800  0.101600  1.0
  C  C700  1  0.398400  0.679100  0.845800  1.0
  C  C701  1  0.101600  0.679100  0.654200  1.0
  C  C702  1  0.101600  0.820900  0.845800  1.0
  C  C703  1  0.845800  0.398400  0.679100  1.0
  C  C704  1  0.654200  0.101600  0.679100  1.0
  C  C705  1  0.845800  0.101600  0.820900  1.0
  C  C706  1  0.845800  0.679100  0.101600  1.0
  C  C707  1  0.679100  0.101600  0.845800  1.0
  C  C708  1  0.101600  0.845800  0.679100  1.0
  C  C709  1  0.820900  0.654200  0.398400  1.0
  C  C710  1  0.398400  0.820900  0.654200  1.0
  C  C711  1  0.654200  0.398400  0.820900  1.0
  C  C712  1  0.654200  0.820900  0.101600  1.0
  C  C713  1  0.654200  0.679100  0.398400  1.0
  C  C714  1  0.845800  0.820900  0.398400  1.0
  C  C715  1  0.820900  0.398400  0.845800  1.0
  C  C716  1  0.679100  0.398400  0.654200  1.0
  C  C717  1  0.820900  0.101600  0.654200  1.0
  C  C718  1  0.398400  0.654200  0.679100  1.0
  C  C719  1  0.398400  0.845800  0.820900  1.0
  C  C720  1  0.101600  0.654200  0.820900  1.0
  C  C721  1  0.320900  0.154200  0.601600  1.0
  C  C722  1  0.320900  0.345800  0.898400  1.0
  C  C723  1  0.179100  0.154200  0.898400  1.0
  C  C724  1  0.601600  0.320900  0.154200  1.0
  C  C725  1  0.898400  0.320900  0.345800  1.0
  C  C726  1  0.898400  0.179100  0.154200  1.0
  C  C727  1  0.154200  0.601600  0.320900  1.0
  C  C728  1  0.345800  0.898400  0.320900  1.0
  C  C729  1  0.154200  0.898400  0.179100  1.0
  C  C730  1  0.154200  0.320900  0.898400  1.0
  C  C731  1  0.320900  0.898400  0.154200  1.0
  C  C732  1  0.898400  0.154200  0.320900  1.0
  C  C733  1  0.153300  0.490900  0.563500  1.0
  C  C734  1  0.563500  0.153300  0.490900  1.0
  C  C735  1  0.490900  0.563500  0.153300  1.0
  C  C736  1  0.490900  0.153300  0.936500  1.0
  C  C737  1  0.490900  0.346700  0.563500  1.0
  C  C738  1  0.009100  0.153300  0.563500  1.0
  C  C739  1  0.153300  0.563500  0.009100  1.0
  C  C740  1  0.346700  0.563500  0.490900  1.0
  C  C741  1  0.153300  0.936500  0.490900  1.0
  C  C742  1  0.563500  0.490900  0.346700  1.0
  C  C743  1  0.563500  0.009100  0.153300  1.0
  C  C744  1  0.936500  0.490900  0.153300  1.0
  C  C745  1  0.653300  0.990900  0.436500  1.0
  C  C746  1  0.653300  0.509100  0.063500  1.0
  C  C747  1  0.846700  0.990900  0.063500  1.0
  C  C748  1  0.436500  0.653300  0.990900  1.0
  C  C749  1  0.063500  0.653300  0.509100  1.0
  C  C750  1  0.063500  0.846700  0.990900  1.0
  C  C751  1  0.990900  0.436500  0.653300  1.0
  C  C752  1  0.509100  0.063500  0.653300  1.0
  C  C753  1  0.990900  0.063500  0.846700  1.0
  C  C754  1  0.990900  0.653300  0.063500  1.0
  C  C755  1  0.653300  0.063500  0.990900  1.0
  C  C756  1  0.063500  0.990900  0.653300  1.0
  C  C757  1  0.846700  0.509100  0.436500  1.0
  C  C758  1  0.436500  0.846700  0.509100  1.0
  C  C759  1  0.509100  0.436500  0.846700  1.0
  C  C760  1  0.509100  0.846700  0.063500  1.0
  C  C761  1  0.509100  0.653300  0.436500  1.0
  C  C762  1  0.990900  0.846700  0.436500  1.0
  C  C763  1  0.846700  0.436500  0.990900  1.0
  C  C764  1  0.653300  0.436500  0.509100  1.0
  C  C765  1  0.846700  0.063500  0.509100  1.0
  C  C766  1  0.436500  0.509100  0.653300  1.0
  C  C767  1  0.436500  0.990900  0.846700  1.0
  C  C768  1  0.063500  0.509100  0.846700  1.0
  C  C769  1  0.346700  0.009100  0.563500  1.0
  C  C770  1  0.346700  0.490900  0.936500  1.0
  C  C771  1  0.153300  0.009100  0.936500  1.0
  C  C772  1  0.563500  0.346700  0.009100  1.0
  C  C773  1  0.936500  0.346700  0.490900  1.0
  C  C774  1  0.936500  0.153300  0.009100  1.0
  C  C775  1  0.009100  0.563500  0.346700  1.0
  C  C776  1  0.490900  0.936500  0.346700  1.0
  C  C777  1  0.009100  0.936500  0.153300  1.0
  C  C778  1  0.009100  0.346700  0.936500  1.0
  C  C779  1  0.346700  0.936500  0.009100  1.0
  C  C780  1  0.936500  0.009100  0.346700  1.0
  S  S781  1  0.140440  0.519130  0.498190  1.0
  S  S782  1  0.498190  0.140440  0.519130  1.0
  S  S783  1  0.519130  0.498190  0.140440  1.0
  S  S784  1  0.519130  0.140440  0.001810  1.0
  S  S785  1  0.519130  0.359560  0.498190  1.0
  S  S786  1  0.980870  0.140440  0.498190  1.0
  S  S787  1  0.140440  0.498190  0.980870  1.0
  S  S788  1  0.359560  0.498190  0.519130  1.0
  S  S789  1  0.140440  0.001810  0.519130  1.0
  S  S790  1  0.498190  0.519130  0.359560  1.0
  S  S791  1  0.498190  0.980870  0.140440  1.0
  S  S792  1  0.001810  0.519130  0.140440  1.0
  S  S793  1  0.640440  0.019130  0.501810  1.0
  S  S794  1  0.640440  0.480870  0.998190  1.0
  S  S795  1  0.859560  0.019130  0.998190  1.0
  S  S796  1  0.501810  0.640440  0.019130  1.0
  S  S797  1  0.998190  0.640440  0.480870  1.0
  S  S798  1  0.998190  0.859560  0.019130  1.0
  S  S799  1  0.019130  0.501810  0.640440  1.0
  S  S800  1  0.480870  0.998190  0.640440  1.0
  S  S801  1  0.019130  0.998190  0.859560  1.0
  S  S802  1  0.019130  0.640440  0.998190  1.0
  S  S803  1  0.640440  0.998190  0.019130  1.0
  S  S804  1  0.998190  0.019130  0.640440  1.0
  S  S805  1  0.859560  0.480870  0.501810  1.0
  S  S806  1  0.501810  0.859560  0.480870  1.0
  S  S807  1  0.480870  0.501810  0.859560  1.0
  S  S808  1  0.480870  0.859560  0.998190  1.0
  S  S809  1  0.480870  0.640440  0.501810  1.0
  S  S810  1  0.019130  0.859560  0.501810  1.0
  S  S811  1  0.859560  0.501810  0.019130  1.0
  S  S812  1  0.640440  0.501810  0.480870  1.0
  S  S813  1  0.859560  0.998190  0.480870  1.0
  S  S814  1  0.501810  0.480870  0.640440  1.0
  S  S815  1  0.501810  0.019130  0.859560  1.0
  S  S816  1  0.998190  0.480870  0.859560  1.0
  S  S817  1  0.359560  0.980870  0.498190  1.0
  S  S818  1  0.359560  0.519130  0.001810  1.0
  S  S819  1  0.140440  0.980870  0.001810  1.0
  S  S820  1  0.498190  0.359560  0.980870  1.0
  S  S821  1  0.001810  0.359560  0.519130  1.0
  S  S822  1  0.001810  0.140440  0.980870  1.0
  S  S823  1  0.980870  0.498190  0.359560  1.0
  S  S824  1  0.519130  0.001810  0.359560  1.0
  S  S825  1  0.980870  0.001810  0.140440  1.0
  S  S826  1  0.980870  0.359560  0.001810  1.0
  S  S827  1  0.359560  0.001810  0.980870  1.0
  S  S828  1  0.001810  0.980870  0.359560  1.0
  N  N829  1  0.250000  0.588700  0.911300  1
  N  N830  1  0.911300  0.250000  0.588700  1
  N  N831  1  0.588700  0.911300  0.250000  1
  N  N832  1  0.588700  0.250000  0.588700  1
  N  N833  1  0.588700  0.250000  0.911300  1
  N  N834  1  0.911300  0.250000  0.911300  1
  N  N835  1  0.250000  0.911300  0.911300  1
  N  N836  1  0.250000  0.911300  0.588700  1
  N  N837  1  0.250000  0.588700  0.588700  1
  N  N838  1  0.911300  0.588700  0.250000  1
  N  N839  1  0.911300  0.911300  0.250000  1
  N  N840  1  0.588700  0.588700  0.250000  1
  N  N841  1  0.750000  0.088700  0.088700  1
  N  N842  1  0.750000  0.411300  0.411300  1
  N  N843  1  0.750000  0.088700  0.411300  1
  N  N844  1  0.088700  0.750000  0.088700  1
  N  N845  1  0.411300  0.750000  0.411300  1
  N  N846  1  0.411300  0.750000  0.088700  1
  N  N847  1  0.088700  0.088700  0.750000  1
  N  N848  1  0.411300  0.411300  0.750000  1
  N  N849  1  0.088700  0.411300  0.750000  1
  N  N850  1  0.088700  0.750000  0.411300  1
  N  N851  1  0.750000  0.411300  0.088700  1
  N  N852  1  0.411300  0.088700  0.750000  1
  N  N853  1  0.133300  0.366700  0.366700  1
  N  N854  1  0.366700  0.133300  0.366700  1
  N  N855  1  0.366700  0.366700  0.133300  1
  N  N856  1  0.366700  0.133300  0.133300  1
  N  N857  1  0.366700  0.366700  0.366700  1
  N  N858  1  0.133300  0.133300  0.366700  1
  N  N859  1  0.133300  0.366700  0.133300  1
  N  N860  1  0.633300  0.866700  0.633300  1
  N  N861  1  0.633300  0.633300  0.866700  1
  N  N862  1  0.866700  0.866700  0.866700  1
  N  N863  1  0.866700  0.633300  0.633300  1
  N  N864  1  0.866700  0.633300  0.866700  1
  N  N865  1  0.633300  0.866700  0.866700  1
  N  N866  1  0.866700  0.866700  0.633300  1
  N  N867  1  0.633300  0.633300  0.633300  1
  N  N868  1  0.133300  0.133300  0.133300  1
  N  N869  1  0.059100  0.505600  0.433400  1.0
  N  N870  1  0.433400  0.059100  0.505600  1.0
  N  N871  1  0.505600  0.433400  0.059100  1.0
  N  N872  1  0.505600  0.059100  0.066600  1.0
  N  N873  1  0.505600  0.440900  0.433400  1.0
  N  N874  1  0.994400  0.059100  0.433400  1.0
  N  N875  1  0.059100  0.433400  0.994400  1.0
  N  N876  1  0.440900  0.433400  0.505600  1.0
  N  N877  1  0.059100  0.066600  0.505600  1.0
  N  N878  1  0.433400  0.505600  0.440900  1.0
  N  N879  1  0.433400  0.994400  0.059100  1.0
  N  N880  1  0.066600  0.505600  0.059100  1.0
  N  N881  1  0.559100  0.005600  0.566600  1.0
  N  N882  1  0.559100  0.494400  0.933400  1.0
  N  N883  1  0.940900  0.005600  0.933400  1.0
  N  N884  1  0.566600  0.559100  0.005600  1.0
  N  N885  1  0.933400  0.559100  0.494400  1.0
  N  N886  1  0.933400  0.940900  0.005600  1.0
  N  N887  1  0.005600  0.566600  0.559100  1.0
  N  N888  1  0.494400  0.933400  0.559100  1.0
  N  N889  1  0.005600  0.933400  0.940900  1.0
  N  N890  1  0.005600  0.559100  0.933400  1.0
  N  N891  1  0.559100  0.933400  0.005600  1.0
  N  N892  1  0.933400  0.005600  0.559100  1.0
  N  N893  1  0.940900  0.494400  0.566600  1.0
  N  N894  1  0.566600  0.940900  0.494400  1.0
  N  N895  1  0.494400  0.566600  0.940900  1.0
  N  N896  1  0.494400  0.940900  0.933400  1.0
  N  N897  1  0.494400  0.559100  0.566600  1.0
  N  N898  1  0.005600  0.940900  0.566600  1.0
  N  N899  1  0.940900  0.566600  0.005600  1.0
  N  N900  1  0.559100  0.566600  0.494400  1.0
  N  N901  1  0.940900  0.933400  0.494400  1.0
  N  N902  1  0.566600  0.494400  0.559100  1.0
  N  N903  1  0.566600  0.005600  0.940900  1.0
  N  N904  1  0.933400  0.494400  0.940900  1.0
  N  N905  1  0.440900  0.994400  0.433400  1.0
  N  N906  1  0.440900  0.505600  0.066600  1.0
  N  N907  1  0.059100  0.994400  0.066600  1.0
  N  N908  1  0.433400  0.440900  0.994400  1.0
  N  N909  1  0.066600  0.440900  0.505600  1.0
  N  N910  1  0.066600  0.059100  0.994400  1.0
  N  N911  1  0.994400  0.433400  0.440900  1.0
  N  N912  1  0.505600  0.066600  0.440900  1.0
  N  N913  1  0.994400  0.066600  0.059100  1.0
  N  N914  1  0.994400  0.440900  0.066600  1.0
  N  N915  1  0.440900  0.066600  0.994400  1.0
  N  N916  1  0.066600  0.994400  0.440900  1.0
  N  N917  1  0.219200  0.329500  0.569500  1.0
  N  N918  1  0.569500  0.219200  0.329500  1.0
  N  N919  1  0.329500  0.569500  0.219200  1.0
  N  N920  1  0.329500  0.219200  0.930500  1.0
  N  N921  1  0.329500  0.280800  0.569500  1.0
  N  N922  1  0.170500  0.219200  0.569500  1.0
  N  N923  1  0.219200  0.569500  0.170500  1.0
  N  N924  1  0.280800  0.569500  0.329500  1.0
  N  N925  1  0.219200  0.930500  0.329500  1.0
  N  N926  1  0.569500  0.329500  0.280800  1.0
  N  N927  1  0.569500  0.170500  0.219200  1.0
  N  N928  1  0.930500  0.329500  0.219200  1.0
  N  N929  1  0.719200  0.829500  0.430500  1.0
  N  N930  1  0.719200  0.670500  0.069500  1.0
  N  N931  1  0.780800  0.829500  0.069500  1.0
  N  N932  1  0.430500  0.719200  0.829500  1.0
  N  N933  1  0.069500  0.719200  0.670500  1.0
  N  N934  1  0.069500  0.780800  0.829500  1.0
  N  N935  1  0.829500  0.430500  0.719200  1.0
  N  N936  1  0.670500  0.069500  0.719200  1.0
  N  N937  1  0.829500  0.069500  0.780800  1.0
  N  N938  1  0.829500  0.719200  0.069500  1.0
  N  N939  1  0.719200  0.069500  0.829500  1.0
  N  N940  1  0.069500  0.829500  0.719200  1.0
  N  N941  1  0.780800  0.670500  0.430500  1.0
  N  N942  1  0.430500  0.780800  0.670500  1.0
  N  N943  1  0.670500  0.430500  0.780800  1.0
  N  N944  1  0.670500  0.780800  0.069500  1.0
  N  N945  1  0.670500  0.719200  0.430500  1.0
  N  N946  1  0.829500  0.780800  0.430500  1.0
  N  N947  1  0.780800  0.430500  0.829500  1.0
  N  N948  1  0.719200  0.430500  0.670500  1.0
  N  N949  1  0.780800  0.069500  0.670500  1.0
  N  N950  1  0.430500  0.670500  0.719200  1.0
  N  N951  1  0.430500  0.829500  0.780800  1.0
  N  N952  1  0.069500  0.670500  0.780800  1.0
  N  N953  1  0.280800  0.170500  0.569500  1.0
  N  N954  1  0.280800  0.329500  0.930500  1.0
  N  N955  1  0.219200  0.170500  0.930500  1.0
  N  N956  1  0.569500  0.280800  0.170500  1.0
  N  N957  1  0.930500  0.280800  0.329500  1.0
  N  N958  1  0.930500  0.219200  0.170500  1.0
  N  N959  1  0.170500  0.569500  0.280800  1.0
  N  N960  1  0.329500  0.930500  0.280800  1.0
  N  N961  1  0.170500  0.930500  0.219200  1.0
  N  N962  1  0.170500  0.280800  0.930500  1.0
  N  N963  1  0.280800  0.930500  0.170500  1.0
  N  N964  1  0.930500  0.170500  0.280800  1.0
  Cl  Cl965  1  0.250000  0.250000  0.472000  1.0
  Cl  Cl966  1  0.472000  0.250000  0.250000  1.0
  Cl  Cl967  1  0.250000  0.472000  0.250000  1.0
  Cl  Cl968  1  0.250000  0.250000  0.028000  1.0
  Cl  Cl969  1  0.250000  0.028000  0.250000  1.0
  Cl  Cl970  1  0.028000  0.250000  0.250000  1.0
  Cl  Cl971  1  0.750000  0.750000  0.528000  1.0
  Cl  Cl972  1  0.750000  0.750000  0.972000  1.0
  Cl  Cl973  1  0.528000  0.750000  0.750000  1.0
  Cl  Cl974  1  0.972000  0.750000  0.750000  1.0
  Cl  Cl975  1  0.750000  0.528000  0.750000  1.0
  Cl  Cl976  1  0.750000  0.972000  0.750000  1.0
  Cl  Cl977  1  0.250000  0.250000  0.662200  1.0
  Cl  Cl978  1  0.662200  0.250000  0.250000  1.0
  Cl  Cl979  1  0.250000  0.662200  0.250000  1.0
  Cl  Cl980  1  0.250000  0.250000  0.837800  1.0
  Cl  Cl981  1  0.250000  0.837800  0.250000  1.0
  Cl  Cl982  1  0.837800  0.250000  0.250000  1.0
  Cl  Cl983  1  0.750000  0.750000  0.337800  1.0
  Cl  Cl984  1  0.750000  0.750000  0.162200  1.0
  Cl  Cl985  1  0.337800  0.750000  0.750000  1.0
  Cl  Cl986  1  0.162200  0.750000  0.750000  1.0
  Cl  Cl987  1  0.750000  0.337800  0.750000  1.0
  Cl  Cl988  1  0.750000  0.162200  0.750000  1.0
  O  O989  1  0.250000  0.330100  0.750000  1
  O  O990  1  0.750000  0.250000  0.330100  1
  O  O991  1  0.330100  0.750000  0.250000  1
  O  O992  1  0.330100  0.250000  0.750000  1
  O  O993  1  0.169900  0.250000  0.750000  1
  O  O994  1  0.250000  0.750000  0.169900  1
  O  O995  1  0.250000  0.750000  0.330100  1
  O  O996  1  0.750000  0.330100  0.250000  1
  O  O997  1  0.750000  0.169900  0.250000  1
  O  O998  1  0.750000  0.830100  0.250000  1
  O  O999  1  0.750000  0.669900  0.250000  1
  O  O1000  1  0.250000  0.750000  0.830100  1
  O  O1001  1  0.250000  0.750000  0.669900  1
  O  O1002  1  0.830100  0.250000  0.750000  1
  O  O1003  1  0.669900  0.250000  0.750000  1
  O  O1004  1  0.830100  0.750000  0.250000  1
  O  O1005  1  0.750000  0.250000  0.830100  1
  O  O1006  1  0.250000  0.830100  0.750000  1
  O  O1007  1  0.669900  0.750000  0.250000  1
  O  O1008  1  0.750000  0.250000  0.669900  1
  O  O1009  1  0.250000  0.669900  0.750000  1
  O  O1010  1  0.250000  0.169900  0.750000  1
  O  O1011  1  0.750000  0.250000  0.169900  1
  O  O1012  1  0.169900  0.750000  0.250000  1
  O  O1013  1  0.250000  0.250000  0.250000  1
  O  O1014  1  0.750000  0.750000  0.750000  1
