
#######################################################################
#
#                 Cambridge Crystallographic Data Centre
#                                CCDC 
#
#######################################################################
#
# If this CIF has been generated from an entry in the Cambridge 
# Structural Database, then it will include bibliographic, chemical, 
# crystal, experimental, refinement or atomic coordinate data resulting 
# from the CCDC's data processing and validation procedures.
#
#######################################################################

data_LOVKAK
_chemical_formula_moiety         
'C126 H78 Cl2 Mn8 N42 2+,3(C2 H4 Cl2),2(Cl1 1-),8(H2 O1)'
_chemical_name_systematic        
'hexakis(\m-5-(pyridin-2-yl)-3-(6-[5-(pyridin-2-yl)pyrazolato-3-yl]pyridin-2-yl)pyrazolato)-bis(\m-chloro)-octa-manganese dichloride 1,2-dichloroethane octahydrate'
_symmetry_cell_setting           monoclinic
_symmetry_space_group_name_H-M   'P 2/n'
_symmetry_Int_Tables_number      13
_space_group_name_Hall           '-P 2yac'
loop_
_symmetry_equiv_pos_site_id
_symmetry_equiv_pos_as_xyz
1 x,y,z
2 1/2-x,y,1/2-z
3 -x,-y,-z
4 1/2+x,-y,1/2+z
_cell_length_a                   21.806(4)
_cell_length_b                   13.968(3)
_cell_length_c                   25.921(5)
_cell_angle_alpha                90
_cell_angle_beta                 93.126(3)
_cell_angle_gamma                90
_cell_volume                     7883.43
_exptl_crystal_colour            'pale yellow'
_exptl_crystal_description       Plate
_cell_formula_units_Z            2
loop_
_atom_site_label
_atom_site_type_symbol
_atom_site_fract_x
_atom_site_fract_y
_atom_site_fract_z
Mn1 Mn 0.33127(5) 0.41204(8) 0.70362(4)
Mn2 Mn 0.34741(6) 0.10491(9) 0.71384(4)
Mn3 Mn 0.18707(5) 0.23922(8) 0.63660(4)
Mn4 Mn 0.36296(5) 0.24398(8) 0.55886(4)
Cl1 Cl 0.28421(8) 0.25003(11) 0.69178(7)
N1 N 0.4621(3) 0.1923(4) 0.5426(3)
N2 N 0.4226(2) 0.2980(4) 0.6225(2)
N3 N 0.4137(2) 0.3554(4) 0.6631(2)
N4 N 0.4172(3) 0.4709(4) 0.7440(2)
N5 N 0.3112(2) 0.4654(4) 0.7861(2)
N6 N 0.2599(3) 0.4748(4) 0.8123(2)
N7 N 0.1644(3) 0.5289(4) 0.8657(2)
N8 N 0.3324(3) 0.1586(5) 0.4831(2)
N9 N 0.3314(2) 0.1040(4) 0.5837(2)
N10 N 0.3323(3) 0.0588(4) 0.6295(2)
N11 N 0.3287(3) -0.0534(4) 0.7115(2)
N12 N 0.3169(3) 0.0494(4) 0.7949(2)
N13 N 0.3190(3) 0.0904(4) 0.8422(2)
N14 N 0.3308(3) 0.1408(4) 0.9422(2)
N15 N 0.3823(3) 0.3713(4) 0.5007(2)
N16 N 0.2826(3) 0.3381(4) 0.5554(2)
N17 N 0.2285(2) 0.3339(4) 0.5776(2)
N18 N 0.1157(2) 0.3460(4) 0.6083(2)
N19 N 0.1077(3) 0.2508(4) 0.6942(2)
N20 N 0.0938(3) 0.1949(5) 0.7354(2)
N21 N 0.0454(3) 0.0835(4) 0.8064(2)
C1 C 0.4790(4) 0.1373(6) 0.5046(3)
H1 H 0.4485 0.1060 0.4831
C2 C 0.5427(4) 0.1238(7) 0.4951(4)
H2 H 0.5544 0.0819 0.4685
C3 C 0.5853(4) 0.1709(6) 0.5241(3)
H3 H 0.6273 0.1659 0.5165
C4 C 0.5683(3) 0.2281(6) 0.5660(4)
H4 H 0.5979 0.2594 0.5883
C5 C 0.5047(3) 0.2358(5) 0.5727(3)
C6 C 0.4835(3) 0.2939(5) 0.6150(3)
C7 C 0.5153(3) 0.3491(5) 0.6521(3)
H5 H 0.5585 0.3581 0.6565
C8 C 0.4701(3) 0.3881(6) 0.6814(3)
C9 C 0.4727(3) 0.4561(6) 0.7247(3)
C10 C 0.5254(4) 0.4982(8) 0.7442(3)
H6 H 0.5639 0.4837 0.7305
C11 C 0.5212(4) 0.5638(8) 0.7852(4)
H7 H 0.5562 0.5993 0.7976
C12 C 0.4650(4) 0.5756(7) 0.8070(3)
H8 H 0.4616 0.6166 0.8360
C13 C 0.4140(3) 0.5274(5) 0.7864(3)
C14 C 0.3534(3) 0.5278(5) 0.8067(3)
C15 C 0.3289(4) 0.5792(5) 0.8469(3)
H9 H 0.3480 0.6275 0.8680
C16 C 0.2692(3) 0.5424(5) 0.8484(3)
C17 C 0.2180(4) 0.5653(5) 0.8808(3)
C18 C 0.2269(4) 0.6237(5) 0.9249(3)
H10 H 0.2660 0.6492 0.9354
C19 C 0.1741(4) 0.6421(6) 0.9525(3)
H11 H 0.1778 0.6807 0.9827
C20 C 0.1185(4) 0.6061(7) 0.9372(4)
H12 H 0.0829 0.6194 0.9555
C21 C 0.1160(4) 0.5488(6) 0.8934(3)
H13 H 0.0775 0.5220 0.8824
C22 C 0.3295(4) 0.1904(7) 0.4340(3)
H14 H 0.3401 0.2551 0.4275
C23 C 0.3116(5) 0.1313(7) 0.3923(3)
H15 H 0.3103 0.1551 0.3579
C24 C 0.2952(4) 0.0354(8) 0.4025(3)
H16 H 0.2818 -0.0060 0.3750
C25 C 0.2991(4) 0.0028(6) 0.4528(3)
H17 H 0.2895 -0.0620 0.4602
C26 C 0.3174(3) 0.0659(6) 0.4929(3)
C27 C 0.3203(3) 0.0375(5) 0.5470(3)
C28 C 0.3158(3) -0.0530(5) 0.5685(3)
H18 H 0.3088 -0.1121 0.5511
C29 C 0.3240(3) -0.0371(5) 0.6218(3)
C30 C 0.3257(4) -0.0988(5) 0.6659(3)
C31 C 0.3258(5) -0.2008(6) 0.6638(4)
H19 H 0.3260 -0.2331 0.6316
C32 C 0.3256(6) -0.2509(6) 0.7086(4)
H20 H 0.3236 -0.3188 0.7072
C33 C 0.3281(5) -0.2064(6) 0.7562(3)
H21 H 0.3292 -0.2419 0.7875
C34 C 0.3288(4) -0.1048(5) 0.7559(3)
C35 C 0.3276(4) -0.0450(5) 0.8024(3)
C36 C 0.3344(4) -0.0671(5) 0.8540(3)
H22 H 0.3414 -0.1282 0.8693
C37 C 0.3286(3) 0.0195(5) 0.8783(3)
C38 C 0.3331(3) 0.0480(5) 0.9331(3)
C39 C 0.3410(3) -0.0194(6) 0.9725(3)
H23 H 0.3421 -0.0858 0.9646
C40 C 0.3470(4) 0.0111(6) 1.0226(3)
H24 H 0.3538 -0.0336 1.0500
C41 C 0.3431(4) 0.1060(6) 1.0327(3)
H25 H 0.3462 0.1287 1.0673
C42 C 0.3344(4) 0.1698(6) 0.9915(3)
H26 H 0.3310 0.2362 0.9987
C43 C 0.4339(4) 0.3933(7) 0.4773(4)
H27 H 0.4705 0.3602 0.4877
C44 C 0.4364(4) 0.4606(7) 0.4393(4)
H28 H 0.4743 0.4760 0.4248
C45 C 0.3818(4) 0.5067(7) 0.4220(4)
H29 H 0.3811 0.5498 0.3936
C46 C 0.3295(4) 0.4877(6) 0.4473(3)
H30 H 0.2924 0.5208 0.4381
C47 C 0.3313(3) 0.4199(5) 0.4863(3)
C48 C 0.2772(3) 0.3999(5) 0.5159(3)
C49 C 0.2189(3) 0.4379(5) 0.5118(3)
H31 H 0.2025 0.4828 0.4871
C50 C 0.1896(3) 0.3951(5) 0.5522(2)
C51 C 0.1273(3) 0.4028(5) 0.5682(3)
C52 C 0.0834(3) 0.4637(6) 0.5465(3)
H32 H 0.0925 0.5033 0.5181
C53 C 0.0249(4) 0.4667(7) 0.5667(3)
H33 H -0.0060 0.5087 0.5528
C54 C 0.0137(3) 0.4062(6) 0.6076(3)
H34 H -0.0258 0.4049 0.6213
C55 C 0.0598(3) 0.3479(5) 0.6287(3)
C56 C 0.0562(3) 0.2861(5) 0.6740(3)
C57 C 0.0067(3) 0.2531(5) 0.7003(3)
H35 H -0.0356 0.2666 0.6931
C58 C 0.0325(3) 0.1967(5) 0.7391(3)
C59 C 0.0050(3) 0.1383(5) 0.7787(3)
C60 C -0.0560(3) 0.1411(6) 0.7879(3)
H36 H -0.0831 0.1830 0.7690
C61 C -0.0771(4) 0.0820(7) 0.8252(3)
H37 H -0.1198 0.0793 0.8307
C62 C -0.0371(4) 0.0272(6) 0.8542(3)
H38 H -0.0505 -0.0108 0.8818
C63 C 0.0222(4) 0.0288(6) 0.8424(3)
H39 H 0.0497 -0.0125 0.8614
Mn1A Mn 0.16873(5) 0.41204(8) 0.79638(4)
Mn2A Mn 0.15259(6) 0.10491(9) 0.78616(4)
Mn3A Mn 0.31293(5) 0.23922(8) 0.86340(4)
Mn4A Mn 0.13704(5) 0.24398(8) 0.94114(4)
Cl1A Cl 0.21579(8) 0.25003(11) 0.80822(7)
N1A N 0.0379(3) 0.1923(4) 0.9574(3)
N2A N 0.0774(2) 0.2980(4) 0.8775(2)
N3A N 0.0863(2) 0.3554(4) 0.8369(2)
N4A N 0.0828(3) 0.4709(4) 0.7560(2)
N5A N 0.1888(2) 0.4654(4) 0.7139(2)
N6A N 0.2401(3) 0.4748(4) 0.6877(2)
N7A N 0.3356(3) 0.5289(4) 0.6343(2)
N8A N 0.1676(3) 0.1586(5) 1.0169(2)
N9A N 0.1686(2) 0.1040(4) 0.9163(2)
N10A N 0.1677(3) 0.0588(4) 0.8705(2)
N11A N 0.1713(3) -0.0534(4) 0.7885(2)
N12A N 0.1831(3) 0.0494(4) 0.7051(2)
N13A N 0.1810(3) 0.0904(4) 0.6578(2)
N14A N 0.1692(3) 0.1408(4) 0.5578(2)
N15A N 0.1177(3) 0.3713(4) 0.9993(2)
N16A N 0.2174(3) 0.3381(4) 0.9446(2)
N17A N 0.2715(2) 0.3339(4) 0.9224(2)
N18A N 0.3843(2) 0.3460(4) 0.8917(2)
N19A N 0.3923(3) 0.2508(4) 0.8058(2)
N20A N 0.4062(3) 0.1949(5) 0.7646(2)
N21A N 0.4546(3) 0.0835(4) 0.6936(2)
C1A C 0.0210(4) 0.1373(6) 0.9954(3)
H1A H 0.0515 0.1060 1.0169
C2A C -0.0427(4) 0.1238(7) 1.0049(4)
H2A H -0.0544 0.0819 1.0315
C3A C -0.0853(4) 0.1709(6) 0.9759(3)
H3A H -0.1273 0.1659 0.9835
C4A C -0.0683(3) 0.2281(6) 0.9340(4)
H4A H -0.0979 0.2594 0.9117
C5A C -0.0047(3) 0.2358(5) 0.9273(3)
C6A C 0.0165(3) 0.2939(5) 0.8850(3)
C7A C -0.0153(3) 0.3491(5) 0.8479(3)
H5A H -0.0585 0.3581 0.8435
C8A C 0.0299(3) 0.3881(6) 0.8186(3)
C9A C 0.0273(3) 0.4561(6) 0.7753(3)
C10A C -0.0254(4) 0.4982(8) 0.7558(3)
H6A H -0.0639 0.4837 0.7695
C11A C -0.0212(4) 0.5638(8) 0.7148(4)
H7A H -0.0562 0.5993 0.7024
C12A C 0.0350(4) 0.5756(7) 0.6930(3)
H8A H 0.0384 0.6166 0.6640
C13A C 0.0860(3) 0.5274(5) 0.7136(3)
C14A C 0.1466(3) 0.5278(5) 0.6933(3)
C15A C 0.1711(4) 0.5792(5) 0.6531(3)
H9A H 0.1520 0.6275 0.6320
C16A C 0.2308(3) 0.5424(5) 0.6516(3)
C17A C 0.2820(4) 0.5653(5) 0.6192(3)
C18A C 0.2731(4) 0.6237(5) 0.5751(3)
H10A H 0.2340 0.6492 0.5646
C19A C 0.3259(4) 0.6421(6) 0.5475(3)
H11A H 0.3222 0.6807 0.5173
C20A C 0.3815(4) 0.6061(7) 0.5628(4)
H12A H 0.4171 0.6194 0.5445
C21A C 0.3840(4) 0.5488(6) 0.6066(3)
H13A H 0.4225 0.5220 0.6176
C22A C 0.1705(4) 0.1904(7) 1.0660(3)
H14A H 0.1599 0.2551 1.0725
C23A C 0.1884(5) 0.1313(7) 1.1077(3)
H15A H 0.1897 0.1551 1.1421
C24A C 0.2048(4) 0.0354(8) 1.0975(3)
H16A H 0.2182 -0.0060 1.1250
C25A C 0.2009(4) 0.0028(6) 1.0472(3)
H17A H 0.2105 -0.0620 1.0398
C26A C 0.1826(3) 0.0659(6) 1.0071(3)
C27A C 0.1797(3) 0.0375(5) 0.9530(3)
C28A C 0.1842(3) -0.0530(5) 0.9315(3)
H18A H 0.1912 -0.1121 0.9489
C29A C 0.1760(3) -0.0371(5) 0.8782(3)
C30A C 0.1743(4) -0.0988(5) 0.8341(3)
C31A C 0.1742(5) -0.2008(6) 0.8362(4)
H19A H 0.1740 -0.2331 0.8684
C32A C 0.1744(6) -0.2509(6) 0.7914(4)
H20A H 0.1764 -0.3188 0.7928
C33A C 0.1719(5) -0.2064(6) 0.7438(3)
H21A H 0.1708 -0.2419 0.7125
C34A C 0.1712(4) -0.1048(5) 0.7441(3)
C35A C 0.1724(4) -0.0450(5) 0.6976(3)
C36A C 0.1656(4) -0.0671(5) 0.6460(3)
H22A H 0.1586 -0.1282 0.6307
C37A C 0.1714(3) 0.0195(5) 0.6217(3)
C38A C 0.1669(3) 0.0480(5) 0.5669(3)
C39A C 0.1590(3) -0.0194(6) 0.5275(3)
H23A H 0.1579 -0.0858 0.5354
C40A C 0.1530(4) 0.0111(6) 0.4774(3)
H24A H 0.1462 -0.0336 0.4500
C41A C 0.1569(4) 0.1060(6) 0.4673(3)
H25A H 0.1538 0.1287 0.4327
C42A C 0.1656(4) 0.1698(6) 0.5085(3)
H26A H 0.1690 0.2362 0.5013
C43A C 0.0661(4) 0.3933(7) 1.0227(4)
H27A H 0.0295 0.3602 1.0123
C44A C 0.0636(4) 0.4606(7) 1.0607(4)
H28A H 0.0257 0.4760 1.0752
C45A C 0.1182(4) 0.5067(7) 1.0780(4)
H29A H 0.1189 0.5498 1.1064
C46A C 0.1705(4) 0.4877(6) 1.0527(3)
H30A H 0.2076 0.5208 1.0619
C47A C 0.1687(3) 0.4199(5) 1.0137(3)
C48A C 0.2228(3) 0.3999(5) 0.9841(3)
C49A C 0.2811(3) 0.4379(5) 0.9882(3)
H31A H 0.2975 0.4828 1.0129
C50A C 0.3104(3) 0.3951(5) 0.9478(2)
C51A C 0.3727(3) 0.4028(5) 0.9318(3)
C52A C 0.4166(3) 0.4637(6) 0.9535(3)
H32A H 0.4075 0.5033 0.9819
C53A C 0.4751(4) 0.4667(7) 0.9333(3)
H33A H 0.5060 0.5087 0.9472
C54A C 0.4863(3) 0.4062(6) 0.8924(3)
H34A H 0.5258 0.4049 0.8787
C55A C 0.4402(3) 0.3479(5) 0.8713(3)
C56A C 0.4438(3) 0.2861(5) 0.8260(3)
C57A C 0.4933(3) 0.2531(5) 0.7997(3)
H35A H 0.5356 0.2666 0.8069
C58A C 0.4675(3) 0.1967(5) 0.7609(3)
C59A C 0.4950(3) 0.1383(5) 0.7213(3)
C60A C 0.5560(3) 0.1411(6) 0.7121(3)
H36A H 0.5831 0.1830 0.7310
C61A C 0.5771(4) 0.0820(7) 0.6748(3)
H37A H 0.6198 0.0793 0.6693
C62A C 0.5371(4) 0.0272(6) 0.6458(3)
H38A H 0.5505 -0.0108 0.6182
C63A C 0.4778(4) 0.0288(6) 0.6576(3)
H39A H 0.4503 -0.0125 0.6386
Cl2 Cl 0.79253(16) 0.2684(2) 0.60875(13)
Cl3 Cl 0.5060(2) 0.2279(3) 0.38073(14)
Cl4 Cl 0.3835(3) 0.3240(5) 0.3181(2)
C64 C 0.5012(8) 0.2461(12) 0.3118(7)
H40 H 0.5169 0.3104 0.3034
H41 H 0.5262 0.1976 0.2947
C65 C 0.4331(8) 0.2369(12) 0.2926(6)
H42 H 0.4183 0.1725 0.3018
H43 H 0.4304 0.2418 0.2545
O1 O 0.8473(2) 0.4254(3) 0.60052(18)
O2 O 0.7693(3) 0.2227(4) 0.5248(2)
O3 O 0.6949(3) 0.2831(5) 0.6474(3)
O4 O 0.8523(3) 0.1487(4) 0.6498(2)
Cl5 Cl 0.5155(5) 0.1593(7) 0.1919(5)
Cl6 Cl 0.5080(5) 0.0203(9) 0.0850(4)
C66 C 0.4683(18) 0.0550(18) 0.1818(13)
H44 H 0.4625 0.0261 0.2161
H45 H 0.4274 0.0768 0.1681
C67 C 0.489(2) -0.023(2) 0.1468(10)
H46 H 0.4557 -0.0714 0.1422
H47 H 0.5252 -0.0557 0.1635
loop_
_geom_bond_atom_site_label_1
_geom_bond_atom_site_label_2
_geom_bond_site_symmetry_1
_geom_bond_site_symmetry_2
Mn1 Cl1 1_555 1_555
Mn2 Cl1 1_555 1_555
Mn3 Cl1 1_555 1_555
Mn4 N1 1_555 1_555
N1 C1 1_555 1_555
N2 Mn4 1_555 1_555
N3 Mn1 1_555 1_555
N4 Mn1 1_555 1_555
N5 Mn1 1_555 1_555
N6 N5 1_555 1_555
N7 C17 1_555 1_555
N8 Mn4 1_555 1_555
N9 Mn4 1_555 1_555
N10 Mn2 1_555 1_555
N11 Mn2 1_555 1_555
N12 Mn2 1_555 1_555
N13 N12 1_555 1_555
N14 C38 1_555 1_555
N15 Mn4 1_555 1_555
N16 Mn4 1_555 1_555
N17 Mn3 1_555 1_555
N18 Mn3 1_555 1_555
N19 Mn3 1_555 1_555
N20 N19 1_555 1_555
N21 C59 1_555 1_555
C1 H1 1_555 1_555
C2 C1 1_555 1_555
H2 C2 1_555 1_555
C3 C2 1_555 1_555
H3 C3 1_555 1_555
C4 C3 1_555 1_555
H4 C4 1_555 1_555
C5 N1 1_555 1_555
C6 N2 1_555 1_555
C7 C6 1_555 1_555
H5 C7 1_555 1_555
C8 N3 1_555 1_555
C9 N4 1_555 1_555
C10 C9 1_555 1_555
H6 C10 1_555 1_555
C11 C10 1_555 1_555
H7 C11 1_555 1_555
C12 C11 1_555 1_555
H8 C12 1_555 1_555
C13 N4 1_555 1_555
C14 N5 1_555 1_555
C15 C14 1_555 1_555
H9 C15 1_555 1_555
C16 N6 1_555 1_555
C17 C16 1_555 1_555
C18 C17 1_555 1_555
H10 C18 1_555 1_555
C19 C18 1_555 1_555
H11 C19 1_555 1_555
C20 C19 1_555 1_555
H12 C20 1_555 1_555
C21 N7 1_555 1_555
H13 C21 1_555 1_555
C22 N8 1_555 1_555
H14 C22 1_555 1_555
C23 C22 1_555 1_555
H15 C23 1_555 1_555
C24 C23 1_555 1_555
H16 C24 1_555 1_555
C25 C24 1_555 1_555
H17 C25 1_555 1_555
C26 N8 1_555 1_555
C27 N9 1_555 1_555
C28 C27 1_555 1_555
H18 C28 1_555 1_555
C29 N10 1_555 1_555
C30 N11 1_555 1_555
C31 C30 1_555 1_555
H19 C31 1_555 1_555
C32 C31 1_555 1_555
H20 C32 1_555 1_555
C33 C32 1_555 1_555
H21 C33 1_555 1_555
C34 N11 1_555 1_555
C35 N12 1_555 1_555
C36 C35 1_555 1_555
H22 C36 1_555 1_555
C37 N13 1_555 1_555
C38 C37 1_555 1_555
C39 C38 1_555 1_555
H23 C39 1_555 1_555
C40 C39 1_555 1_555
H24 C40 1_555 1_555
C41 C40 1_555 1_555
H25 C41 1_555 1_555
C42 N14 1_555 1_555
H26 C42 1_555 1_555
C43 N15 1_555 1_555
H27 C43 1_555 1_555
C44 C43 1_555 1_555
H28 C44 1_555 1_555
C45 C44 1_555 1_555
H29 C45 1_555 1_555
C46 C45 1_555 1_555
H30 C46 1_555 1_555
C47 N15 1_555 1_555
C48 N16 1_555 1_555
C49 C48 1_555 1_555
H31 C49 1_555 1_555
C50 N17 1_555 1_555
C51 N18 1_555 1_555
C52 C51 1_555 1_555
H32 C52 1_555 1_555
C53 C52 1_555 1_555
H33 C53 1_555 1_555
C54 C53 1_555 1_555
H34 C54 1_555 1_555
C55 N18 1_555 1_555
C56 N19 1_555 1_555
C57 C56 1_555 1_555
H35 C57 1_555 1_555
C58 N20 1_555 1_555
C59 C58 1_555 1_555
C60 C59 1_555 1_555
H36 C60 1_555 1_555
C61 C60 1_555 1_555
H37 C61 1_555 1_555
C62 C61 1_555 1_555
H38 C62 1_555 1_555
C63 N21 1_555 1_555
H39 C63 1_555 1_555
Cl3 C64 1_555 1_555
Cl4 C65 1_555 1_555
C64 H40 1_555 1_555
H41 C64 1_555 1_555
C65 C64 1_555 1_555
H42 C65 1_555 1_555
H43 C65 1_555 1_555
Cl5 C66 1_555 1_555
Cl6 C67 1_555 1_555
C66 H44 1_555 1_555
H45 C66 1_555 1_555
C67 C66 1_555 1_555
H46 C67 1_555 1_555
H47 C67 1_555 1_555
Mn1A N6 1_555 1_555
Mn2A N20 1_555 1_555
Mn3A N13 1_555 1_555
Mn4A N1A 1_555 1_555
Cl1A Mn1A 1_555 1_555
N1A C1A 1_555 1_555
N2A Mn4A 1_555 1_555
N3A Mn1A 1_555 1_555
N4A Mn1A 1_555 1_555
N5A Mn1A 1_555 1_555
N6A Mn1 1_555 1_555
N7A Mn1 1_555 1_555
N8A Mn4A 1_555 1_555
N9A Mn4A 1_555 1_555
N10A Mn2A 1_555 1_555
N11A Mn2A 1_555 1_555
N12A Mn2A 1_555 1_555
N13A Mn3 1_555 1_555
N14A Mn3 1_555 1_555
N15A Mn4A 1_555 1_555
N16A Mn4A 1_555 1_555
N17A Mn3A 1_555 1_555
N18A Mn3A 1_555 1_555
N19A Mn3A 1_555 1_555
N20A Mn2 1_555 1_555
N21A Mn2 1_555 1_555
C1A H1A 1_555 1_555
C2A C1A 1_555 1_555
H2A C2A 1_555 1_555
C3A C2A 1_555 1_555
H3A C3A 1_555 1_555
C4A C3A 1_555 1_555
H4A C4A 1_555 1_555
C5A N1A 1_555 1_555
C6A N2A 1_555 1_555
C7A C6A 1_555 1_555
H5A C7A 1_555 1_555
C8A N3A 1_555 1_555
C9A N4A 1_555 1_555
C10A C9A 1_555 1_555
H6A C10A 1_555 1_555
C11A C10A 1_555 1_555
H7A C11A 1_555 1_555
C12A C11A 1_555 1_555
H8A C12A 1_555 1_555
C13A N4A 1_555 1_555
C14A N5A 1_555 1_555
C15A C14A 1_555 1_555
H9A C15A 1_555 1_555
C16A N6A 1_555 1_555
C17A N7A 1_555 1_555
C18A C17A 1_555 1_555
H10A C18A 1_555 1_555
C19A C18A 1_555 1_555
H11A C19A 1_555 1_555
C20A C19A 1_555 1_555
H12A C20A 1_555 1_555
C21A N7A 1_555 1_555
H13A C21A 1_555 1_555
C22A N8A 1_555 1_555
H14A C22A 1_555 1_555
C23A C22A 1_555 1_555
H15A C23A 1_555 1_555
C24A C23A 1_555 1_555
H16A C24A 1_555 1_555
C25A C24A 1_555 1_555
H17A C25A 1_555 1_555
C26A N8A 1_555 1_555
C27A N9A 1_555 1_555
C28A C27A 1_555 1_555
H18A C28A 1_555 1_555
C29A N10A 1_555 1_555
C30A N11A 1_555 1_555
C31A C30A 1_555 1_555
H19A C31A 1_555 1_555
C32A C31A 1_555 1_555
H20A C32A 1_555 1_555
C33A C32A 1_555 1_555
H21A C33A 1_555 1_555
C34A N11A 1_555 1_555
C35A N12A 1_555 1_555
C36A C35A 1_555 1_555
H22A C36A 1_555 1_555
C37A N13A 1_555 1_555
C38A N14A 1_555 1_555
C39A C38A 1_555 1_555
H23A C39A 1_555 1_555
C40A C39A 1_555 1_555
H24A C40A 1_555 1_555
C41A C40A 1_555 1_555
H25A C41A 1_555 1_555
C42A N14A 1_555 1_555
H26A C42A 1_555 1_555
C43A N15A 1_555 1_555
H27A C43A 1_555 1_555
C44A C43A 1_555 1_555
H28A C44A 1_555 1_555
C45A C44A 1_555 1_555
H29A C45A 1_555 1_555
C46A C45A 1_555 1_555
H30A C46A 1_555 1_555
C47A N15A 1_555 1_555
C48A N16A 1_555 1_555
C49A C48A 1_555 1_555
H31A C49A 1_555 1_555
C50A N17A 1_555 1_555
C51A N18A 1_555 1_555
C52A C51A 1_555 1_555
H32A C52A 1_555 1_555
C53A C52A 1_555 1_555
H33A C53A 1_555 1_555
C54A C53A 1_555 1_555
H34A C54A 1_555 1_555
C55A N18A 1_555 1_555
C56A N19A 1_555 1_555
C57A C56A 1_555 1_555
H35A C57A 1_555 1_555
C58A N20A 1_555 1_555
C59A N21A 1_555 1_555
C60A C59A 1_555 1_555
H36A C60A 1_555 1_555
C61A C60A 1_555 1_555
H37A C61A 1_555 1_555
C62A C61A 1_555 1_555
H38A C62A 1_555 1_555
C63A N21A 1_555 1_555
H39A C63A 1_555 1_555
N2 N3 1_555 1_555
N7 Mn1A 1_555 1_555
N9 N10 1_555 1_555
N14 Mn3A 1_555 1_555
N16 N17 1_555 1_555
N21 Mn2A 1_555 1_555
C4 C5 1_555 1_555
C5 C6 1_555 1_555
C7 C8 1_555 1_555
C8 C9 1_555 1_555
C12 C13 1_555 1_555
C13 C14 1_555 1_555
C15 C16 1_555 1_555
C20 C21 1_555 1_555
C25 C26 1_555 1_555
C26 C27 1_555 1_555
C28 C29 1_555 1_555
C29 C30 1_555 1_555
C33 C34 1_555 1_555
C34 C35 1_555 1_555
C36 C37 1_555 1_555
C41 C42 1_555 1_555
C46 C47 1_555 1_555
C47 C48 1_555 1_555
C49 C50 1_555 1_555
C50 C51 1_555 1_555
C54 C55 1_555 1_555
C55 C56 1_555 1_555
C57 C58 1_555 1_555
C62 C63 1_555 1_555
Mn2A Cl1A 1_555 1_555
Mn3A Cl1A 1_555 1_555
N2A N3A 1_555 1_555
N5A N6A 1_555 1_555
N9A N10A 1_555 1_555
N12A N13A 1_555 1_555
N16A N17A 1_555 1_555
N19A N20A 1_555 1_555
C4A C5A 1_555 1_555
C5A C6A 1_555 1_555
C7A C8A 1_555 1_555
C8A C9A 1_555 1_555
C12A C13A 1_555 1_555
C13A C14A 1_555 1_555
C15A C16A 1_555 1_555
C16A C17A 1_555 1_555
C20A C21A 1_555 1_555
C25A C26A 1_555 1_555
C26A C27A 1_555 1_555
C28A C29A 1_555 1_555
C29A C30A 1_555 1_555
C33A C34A 1_555 1_555
C34A C35A 1_555 1_555
C36A C37A 1_555 1_555
C37A C38A 1_555 1_555
C41A C42A 1_555 1_555
C46A C47A 1_555 1_555
C47A C48A 1_555 1_555
C49A C50A 1_555 1_555
C50A C51A 1_555 1_555
C54A C55A 1_555 1_555
C55A C56A 1_555 1_555
C57A C58A 1_555 1_555
C58A C59A 1_555 1_555
C62A C63A 1_555 1_555

#END
