
#######################################################################
#
#                 Cambridge Crystallographic Data Centre
#                                CCDC 
#
#######################################################################
#
# If this CIF has been generated from an entry in the Cambridge 
# Structural Database, then it will include bibliographic, chemical, 
# crystal, experimental, refinement or atomic coordinate data resulting 
# from the CCDC's data processing and validation procedures.
#
#######################################################################

data_LOWJAK
_chemical_formula_moiety         
'C76 H60 N12 O16 Pd3 6+,H1 Cl1,Cl1 1-,5(F6 P1 1-),C3 H7 N1 O1,6(C7 H8)'
_chemical_name_systematic        
'tetrakis(\m~3~-bis((Pyridin-3-yl)methyl) pyridine-3,5-dicarboxylate)-tri-palladium (chloride hydrochloride) clathrate pentakis(hexafluorophosphate) N,N-dimethylformamide toluene solvate'
_symmetry_cell_setting           triclinic
_symmetry_space_group_name_H-M   'P -1'
_symmetry_Int_Tables_number      2
_space_group_name_Hall           '-P 1'
loop_
_symmetry_equiv_pos_site_id
_symmetry_equiv_pos_as_xyz
1 x,y,z
2 -x,-y,-z
_cell_length_a                   11.8310(6)
_cell_length_b                   12.1905(6)
_cell_length_c                   21.7293(10)
_cell_angle_alpha                88.860(3)
_cell_angle_beta                 87.603(2)
_cell_angle_gamma                73.869(3)
_cell_volume                     3007.79
_exptl_crystal_colour            yellow
_exptl_crystal_description       plate
_cell_formula_units_Z            1
_exptl_crystal_recrystallization_method N,N-dimethylformamide/toluene
loop_
_atom_site_label
_atom_site_type_symbol
_atom_site_fract_x
_atom_site_fract_y
_atom_site_fract_z
P1 P 0.2418(3) 0.6853(2) 0.45006(10)
F1 F 0.3143(11) 0.7465(11) 0.4115(6)
F2 F 0.1530(11) 0.6968(9) 0.3997(6)
F3 F 0.3149(6) 0.5655(6) 0.4231(3)
F4 F 0.1756(11) 0.6069(12) 0.4868(6)
F5 F 0.3082(11) 0.6825(8) 0.5063(4)
F6 F 0.1543(13) 0.7997(10) 0.4732(7)
P2 P 0.4136(4) 0.1363(4) 0.3427(2)
F7 F 0.2746(8) 0.1449(10) 0.3424(6)
F8 F 0.4170(14) 0.0811(18) 0.4120(7)
F9 F 0.4456(12) 0.0160(12) 0.3072(7)
F10 F 0.4024(10) 0.2146(8) 0.2753(4)
F11 F 0.3821(11) 0.2514(9) 0.3730(5)
F12 F 0.5442(10) 0.1180(17) 0.3491(7)
P3 P 0.5000 0.5000 0.0000
F13 F 0.4820(6) 0.5655(8) 0.0628(4)
F14 F 0.3737(6) 0.4753(6) 0.0171(5)
F15 F 0.4540(9) 0.6076(9) -0.0398(7)
F13A F 0.5180(6) 0.4345(8) -0.0628(4)
F14A F 0.6263(6) 0.5247(6) -0.0171(5)
F15A F 0.5460(9) 0.3924(9) 0.0398(7)
Cl1 Cl 0.94991(7) 0.35957(7) 0.13731(4)
Pd1 Pd 1.0000 0.5000 0.0000
Pd2 Pd 1.10413(3) 0.77621(3) -0.27155(2)
O1 O 0.7292(3) 0.8892(3) -0.10939(15)
O2 O 0.5516(2) 0.9376(3) -0.06192(14)
O3 O 0.5257(4) 0.7966(4) 0.15412(19)
O4 O 0.6353(3) 0.6201(3) 0.17380(16)
O5 O 1.2461(3) 0.8163(3) -0.04150(17)
O6 O 1.3224(5) 0.8509(4) 0.0458(2)
O7 O 1.2734(5) 0.6367(5) 0.2326(2)
O8 O 1.1563(5) 0.5215(5) 0.23298(19)
N1 N 0.9521(4) 0.9020(4) -0.25759(19)
N2 N 0.8452(3) 0.6266(3) 0.01708(16)
N3 N 1.1948(4) 0.8656(4) -0.2270(2)
N4 N 1.0950(3) 0.5862(3) 0.04841(17)
N5 N 0.7442(4) 0.3464(4) 0.29111(19)
N6 N 0.9825(4) 0.3116(4) 0.32043(19)
C1 C 0.8763(4) 0.8972(4) -0.2114(2)
H1 H 0.8956 0.8369 -0.1834
C2 C 0.7700(5) 0.9792(4) -0.2039(2)
C3 C 0.7428(7) 1.0698(6) -0.2452(3)
H2 H 0.6726 1.1274 -0.2406
C4 C 0.8213(9) 1.0732(7) -0.2930(4)
H3 H 0.8042 1.1328 -0.3216
C5 C 0.9237(8) 0.9893(6) -0.2982(3)
H4 H 0.9762 0.9920 -0.3309
C6 C 0.6780(4) 0.9722(4) -0.1568(2)
H5 H 0.6442 1.0465 -0.1384
H6 H 0.6155 0.9495 -0.1761
C7 C 0.6519(4) 0.8807(4) -0.06418(19)
C8 C 0.7022(4) 0.7927(4) -0.0167(2)
C9 C 0.8070(4) 0.7091(4) -0.0253(2)
H7 H 0.8524 0.7098 -0.0613
C10 C 0.7810(4) 0.6248(4) 0.0699(2)
H8 H 0.8066 0.5666 0.0987
C11 C 0.6771(4) 0.7094(4) 0.0810(2)
C12 C 0.6355(4) 0.7937(4) 0.0371(2)
H9 H 0.5645 0.8495 0.0438
C13 C 0.6038(4) 0.7140(5) 0.1391(2)
C14 C 0.5626(6) 0.6284(6) 0.2300(3)
H10 H 0.4816 0.6366 0.2200
H11 H 0.5650 0.6951 0.2530
C15 C 1.2155(5) 0.8494(5) -0.1669(3)
H12 H 1.1839 0.7980 -0.1449
C16 C 1.2819(5) 0.9061(5) -0.1365(3)
C17 C 1.3275(6) 0.9842(5) -0.1695(3)
H13 H 1.3709 1.0253 -0.1500
C18 C 1.3075(7) 0.9997(6) -0.2309(4)
H14 H 1.3393 1.0499 -0.2539
C19 C 1.2401(6) 0.9410(5) -0.2588(3)
H15 H 1.2254 0.9534 -0.3004
C20 C 1.3088(8) 0.8916(7) -0.0705(3)
H16 H 1.3929 0.8594 -0.0662
H17 H 1.2853 0.9653 -0.0504
C21 C 1.2653(5) 0.8013(5) 0.0183(3)
C22 C 1.2099(5) 0.7166(4) 0.0485(2)
C23 C 1.1429(4) 0.6611(4) 0.0184(2)
H18 H 1.1303 0.6752 -0.0234
C24 C 1.1135(4) 0.5648(5) 0.1084(2)
H19 H 1.0797 0.5132 0.1288
C25 C 1.2098(7) 0.5934(6) 0.2060(3)
C26 C 1.1815(5) 0.6174(5) 0.1408(2)
C27 C 0.6074(5) 0.5230(5) 0.2683(2)
C28 C 0.5404(6) 0.5113(6) 0.3210(3)
H20 H 0.4705 0.5667 0.3308
C29 C 0.5783(7) 0.4180(6) 0.3582(3)
H21 H 0.5357 0.4099 0.3941
C30 C 0.6799(7) 0.3365(6) 0.3420(3)
H22 H 0.7050 0.2723 0.3671
C31 C 1.0478(6) 0.3723(5) 0.2929(3)
H23 H 1.0503 0.3772 0.2501
C32 C 1.1118(8) 0.4280(7) 0.3256(3)
C33 C 1.1027(8) 0.4246(7) 0.3894(3)
H24 H 1.1413 0.4649 0.4129
C34 C 1.0356(7) 0.3605(7) 0.4174(3)
H25 H 1.0301 0.3549 0.4601
C35 C 0.9776(7) 0.3056(6) 0.3817(3)
H26 H 0.9327 0.2620 0.4008
C36 C 1.1914(12) 0.4913(11) 0.2963(3)
H27 H 1.1862 0.5600 0.3193
H28 H 1.2723 0.4440 0.2962
C37 C 0.7083(4) 0.4387(4) 0.2546(2)
H29 H 0.7529 0.4454 0.2192
C38 C 1.2306(6) 0.6947(5) 0.1105(3)
H30 H 1.2766 0.7314 0.1313
Pd2A Pd 0.89587(3) 0.22379(3) 0.27155(2)
O1A O 1.2708(3) 0.1108(3) 0.10939(15)
O2A O 1.4484(2) 0.0624(3) 0.06192(14)
O3A O 1.4743(4) 0.2034(4) -0.15412(19)
O4A O 1.3647(3) 0.3799(3) -0.17380(16)
O5A O 0.7539(3) 0.1837(3) 0.04150(17)
O6A O 0.6776(5) 0.1491(4) -0.0458(2)
O7A O 0.7266(5) 0.3633(5) -0.2326(2)
O8A O 0.8437(5) 0.4785(5) -0.23298(19)
N1A N 1.0479(4) 0.0980(4) 0.25759(19)
N2A N 1.1548(3) 0.3734(3) -0.01708(16)
N3A N 0.8052(4) 0.1344(4) 0.2270(2)
N4A N 0.9050(3) 0.4138(3) -0.04841(17)
N5A N 1.2558(4) 0.6536(4) -0.29111(19)
N6A N 1.0175(4) 0.6884(4) -0.32043(19)
C1A C 1.1237(4) 0.1028(4) 0.2114(2)
H1A H 1.1044 0.1631 0.1834
C2A C 1.2300(5) 0.0208(4) 0.2039(2)
C3A C 1.2572(7) -0.0698(6) 0.2452(3)
H2A H 1.3274 -0.1274 0.2406
C4A C 1.1787(9) -0.0732(7) 0.2930(4)
H3A H 1.1958 -0.1328 0.3216
C5A C 1.0763(8) 0.0107(6) 0.2982(3)
H4A H 1.0238 0.0080 0.3309
C6A C 1.3220(4) 0.0278(4) 0.1568(2)
H5A H 1.3558 -0.0465 0.1384
H6A H 1.3845 0.0505 0.1761
C7A C 1.3481(4) 0.1193(4) 0.06418(19)
C8A C 1.2978(4) 0.2073(4) 0.0167(2)
C9A C 1.1930(4) 0.2909(4) 0.0253(2)
H7A H 1.1476 0.2902 0.0613
C10A C 1.2190(4) 0.3752(4) -0.0699(2)
H8A H 1.1934 0.4334 -0.0987
C11A C 1.3229(4) 0.2906(4) -0.0810(2)
C12A C 1.3645(4) 0.2063(4) -0.0371(2)
H9A H 1.4355 0.1505 -0.0438
C13A C 1.3962(4) 0.2860(5) -0.1391(2)
C14A C 1.4374(6) 0.3716(6) -0.2300(3)
H10A H 1.5184 0.3634 -0.2200
H11A H 1.4350 0.3049 -0.2530
C15A C 0.7845(5) 0.1506(5) 0.1669(3)
H12A H 0.8161 0.2020 0.1449
C16A C 0.7181(5) 0.0939(5) 0.1365(3)
C17A C 0.6725(6) 0.0158(5) 0.1695(3)
H13A H 0.6291 -0.0253 0.1500
C18A C 0.6925(7) 0.0003(6) 0.2309(4)
H14A H 0.6607 -0.0499 0.2539
C19A C 0.7599(6) 0.0590(5) 0.2588(3)
H15A H 0.7746 0.0466 0.3004
C20A C 0.6912(8) 0.1084(7) 0.0705(3)
H16A H 0.6071 0.1406 0.0662
H17A H 0.7147 0.0347 0.0504
C21A C 0.7347(5) 0.1987(5) -0.0183(3)
C22A C 0.7901(5) 0.2834(4) -0.0485(2)
C23A C 0.8571(4) 0.3389(4) -0.0184(2)
H18A H 0.8697 0.3248 0.0234
C24A C 0.8865(4) 0.4352(5) -0.1084(2)
H19A H 0.9203 0.4868 -0.1288
C25A C 0.7902(7) 0.4066(6) -0.2060(3)
C26A C 0.8185(5) 0.3826(5) -0.1408(2)
C27A C 1.3926(5) 0.4770(5) -0.2683(2)
C28A C 1.4596(6) 0.4887(6) -0.3210(3)
H20A H 1.5295 0.4333 -0.3308
C29A C 1.4217(7) 0.5820(6) -0.3582(3)
H21A H 1.4643 0.5901 -0.3941
C30A C 1.3201(7) 0.6635(6) -0.3420(3)
H22A H 1.2950 0.7277 -0.3671
C31A C 0.9522(6) 0.6277(5) -0.2929(3)
H23A H 0.9497 0.6228 -0.2501
C32A C 0.8882(8) 0.5720(7) -0.3256(3)
C33A C 0.8973(8) 0.5754(7) -0.3894(3)
H24A H 0.8587 0.5351 -0.4129
C34A C 0.9644(7) 0.6395(7) -0.4174(3)
H25A H 0.9699 0.6451 -0.4601
C35A C 1.0224(7) 0.6944(6) -0.3817(3)
H26A H 1.0673 0.7380 -0.4008
C36A C 0.8086(12) 0.5087(11) -0.2963(3)
H27A H 0.8138 0.4400 -0.3193
H28A H 0.7277 0.5560 -0.2962
C37A C 1.2917(4) 0.5613(4) -0.2546(2)
H29A H 1.2471 0.5546 -0.2192
C38A C 0.7694(6) 0.3053(5) -0.1105(3)
H30A H 0.7234 0.2686 -0.1313
loop_
_geom_bond_atom_site_label_1
_geom_bond_atom_site_label_2
_geom_bond_site_symmetry_1
_geom_bond_site_symmetry_2
Pd1 N2 1_555 1_555
Pd2 N1 1_555 1_555
O1 C6 1_555 1_555
O2 C7 1_555 1_555
O3 C13 1_555 1_555
O4 C13 1_555 1_555
O5 C20 1_555 1_555
O6 C21 1_555 1_555
O7 C25 1_555 1_555
O8 C25 1_555 1_555
N1 C1 1_555 1_555
N2 C9 1_555 1_555
N3 Pd2 1_555 1_555
N4 Pd1 1_555 1_555
N5 C30 1_555 1_555
N6 C31 1_555 1_555
C1 H1 1_555 1_555
C2 C1 1_555 1_555
C3 C2 1_555 1_555
H2 C3 1_555 1_555
C4 C3 1_555 1_555
H3 C4 1_555 1_555
C5 N1 1_555 1_555
H4 C5 1_555 1_555
C6 C2 1_555 1_555
H5 C6 1_555 1_555
H6 C6 1_555 1_555
C7 O1 1_555 1_555
C8 C7 1_555 1_555
C9 C8 1_555 1_555
H7 C9 1_555 1_555
C10 N2 1_555 1_555
H8 C10 1_555 1_555
C11 C10 1_555 1_555
C12 C8 1_555 1_555
H9 C12 1_555 1_555
C13 C11 1_555 1_555
C14 O4 1_555 1_555
H10 C14 1_555 1_555
H11 C14 1_555 1_555
C15 N3 1_555 1_555
H12 C15 1_555 1_555
C16 C15 1_555 1_555
C17 C16 1_555 1_555
H13 C17 1_555 1_555
C18 C17 1_555 1_555
H14 C18 1_555 1_555
C19 N3 1_555 1_555
H15 C19 1_555 1_555
C20 C16 1_555 1_555
H16 C20 1_555 1_555
H17 C20 1_555 1_555
C21 O5 1_555 1_555
C22 C21 1_555 1_555
C23 N4 1_555 1_555
H18 C23 1_555 1_555
C24 N4 1_555 1_555
H19 C24 1_555 1_555
C25 C26 1_555 1_555
C26 C24 1_555 1_555
C27 C14 1_555 1_555
C28 C27 1_555 1_555
H20 C28 1_555 1_555
C29 C28 1_555 1_555
H21 C29 1_555 1_555
C30 C29 1_555 1_555
H22 C30 1_555 1_555
C31 H23 1_555 1_555
C32 C31 1_555 1_555
C33 C32 1_555 1_555
H24 C33 1_555 1_555
C34 C33 1_555 1_555
H25 C34 1_555 1_555
C35 N6 1_555 1_555
H26 C35 1_555 1_555
C36 O8 1_555 1_555
H27 C36 1_555 1_555
H28 C36 1_555 1_555
C37 N5 1_555 1_555
H29 C37 1_555 1_555
C38 C22 1_555 1_555
H30 C38 1_555 1_555
P1 F1 1_555 1_555
F2 P1 1_555 1_555
F3 P1 1_555 1_555
F4 P1 1_555 1_555
F5 P1 1_555 1_555
F6 P1 1_555 1_555
P2 F7 1_555 1_555
F8 P2 1_555 1_555
F9 P2 1_555 1_555
F10 P2 1_555 1_555
F11 P2 1_555 1_555
F12 P2 1_555 1_555
P3 F13 1_555 1_555
F14 P3 1_555 1_555
F15 P3 1_555 1_555
Pd2A N5 1_555 1_555
O1A C6A 1_555 1_555
O2A C7A 1_555 1_555
O3A C13A 1_555 1_555
O4A C13A 1_555 1_555
O5A C20A 1_555 1_555
O6A C21A 1_555 1_555
O7A C25A 1_555 1_555
O8A C25A 1_555 1_555
N1A Pd2A 1_555 1_555
N2A Pd1 1_555 1_555
N3A Pd2A 1_555 1_555
N4A Pd1 1_555 1_555
N5A Pd2 1_555 1_555
N6A Pd2 1_555 1_555
C1A N1A 1_555 1_555
H1A C1A 1_555 1_555
C2A C1A 1_555 1_555
C3A C2A 1_555 1_555
H2A C3A 1_555 1_555
C4A C3A 1_555 1_555
H3A C4A 1_555 1_555
C5A N1A 1_555 1_555
H4A C5A 1_555 1_555
C6A C2A 1_555 1_555
H5A C6A 1_555 1_555
H6A C6A 1_555 1_555
C7A O1A 1_555 1_555
C8A C7A 1_555 1_555
C9A N2A 1_555 1_555
H7A C9A 1_555 1_555
C10A N2A 1_555 1_555
H8A C10A 1_555 1_555
C11A C10A 1_555 1_555
C12A C8A 1_555 1_555
H9A C12A 1_555 1_555
C13A C11A 1_555 1_555
C14A O4A 1_555 1_555
H10A C14A 1_555 1_555
H11A C14A 1_555 1_555
C15A N3A 1_555 1_555
H12A C15A 1_555 1_555
C16A C15A 1_555 1_555
C17A C16A 1_555 1_555
H13A C17A 1_555 1_555
C18A C17A 1_555 1_555
H14A C18A 1_555 1_555
C19A N3A 1_555 1_555
H15A C19A 1_555 1_555
C20A C16A 1_555 1_555
H16A C20A 1_555 1_555
H17A C20A 1_555 1_555
C21A O5A 1_555 1_555
C22A C21A 1_555 1_555
C23A N4A 1_555 1_555
H18A C23A 1_555 1_555
C24A N4A 1_555 1_555
H19A C24A 1_555 1_555
C25A C26A 1_555 1_555
C26A C24A 1_555 1_555
C27A C14A 1_555 1_555
C28A C27A 1_555 1_555
H20A C28A 1_555 1_555
C29A C28A 1_555 1_555
H21A C29A 1_555 1_555
C30A N5A 1_555 1_555
H22A C30A 1_555 1_555
C31A N6A 1_555 1_555
H23A C31A 1_555 1_555
C32A C31A 1_555 1_555
C33A C32A 1_555 1_555
H24A C33A 1_555 1_555
C34A C33A 1_555 1_555
H25A C34A 1_555 1_555
C35A N6A 1_555 1_555
H26A C35A 1_555 1_555
C36A O8A 1_555 1_555
H27A C36A 1_555 1_555
H28A C36A 1_555 1_555
C37A N5A 1_555 1_555
H29A C37A 1_555 1_555
C38A C22A 1_555 1_555
H30A C38A 1_555 1_555
F13A P3 1_555 1_555
F14A P3 1_555 1_555
F15A P3 1_555 1_555
N6 Pd2A 1_555 1_555
C4 C5 1_555 1_555
C11 C12 1_555 1_555
C18 C19 1_555 1_555
C22 C23 1_555 1_555
C26 C38 1_555 1_555
C27 C37 1_555 1_555
C32 C36 1_555 1_555
C34 C35 1_555 1_555
C4A C5A 1_555 1_555
C8A C9A 1_555 1_555
C11A C12A 1_555 1_555
C18A C19A 1_555 1_555
C22A C23A 1_555 1_555
C26A C38A 1_555 1_555
C27A C37A 1_555 1_555
C29A C30A 1_555 1_555
C32A C36A 1_555 1_555
C34A C35A 1_555 1_555

#END
