# generated using pymatgen
data_H367Pd12C317(N31O37)3
_symmetry_space_group_name_H-M   'P 1'
_cell_length_a   23.37900000
_cell_length_b   27.15000000
_cell_length_c   43.64900000
_cell_angle_alpha   107.71700000
_cell_angle_beta   92.38300000
_cell_angle_gamma   103.95000000
_symmetry_Int_Tables_number   1
_chemical_formula_structural   H367Pd12C317(N31O37)3
_chemical_formula_sum   'H734 Pd24 C634 N186 O222'
_cell_volume   25414.58248469
_cell_formula_units_Z   2
loop_
 _symmetry_equiv_pos_site_id
 _symmetry_equiv_pos_as_xyz
  1  'x, y, z'
loop_
 _atom_site_type_symbol
 _atom_site_label
 _atom_site_symmetry_multiplicity
 _atom_site_fract_x
 _atom_site_fract_y
 _atom_site_fract_z
 _atom_site_occupancy
  H  H1  1  0.216100  0.107500  0.372500  1
  H  H2  1  0.783900  0.892500  0.627500  1
  H  H3  1  0.210100  0.085300  0.313200  1
  H  H4  1  0.789900  0.914700  0.686800  1
  H  H5  1  0.390700  0.123300  0.323500  1
  H  H6  1  0.609300  0.876700  0.676500  1
  H  H7  1  0.389000  0.144800  0.380600  1
  H  H8  1  0.611000  0.855200  0.619400  1
  H  H9  1  0.049800  0.996300  0.211300  1
  H  H10  1  0.950200  0.003700  0.788700  1
  H  H11  1  0.137000  0.040200  0.243300  1
  H  H12  1  0.863000  0.959800  0.756700  1
  H  H13  1  0.221900  0.008900  0.163800  1
  H  H14  1  0.778100  0.991100  0.836200  1
  H  H15  1  0.132200  0.972100  0.133200  1
  H  H16  1  0.867800  0.027900  0.866800  1
  H  H17  1  0.545000  0.101700  0.237600  1
  H  H18  1  0.455000  0.898300  0.762400  1
  H  H19  1  0.459700  0.110800  0.261700  1
  H  H20  1  0.540300  0.889200  0.738300  1
  H  H21  1  0.368000  0.052100  0.172800  1
  H  H22  1  0.632000  0.947900  0.827200  1
  H  H23  1  0.456200  0.049400  0.152000  1
  H  H24  1  0.543800  0.950600  0.848000  1
  H  H25  1  0.473800  0.674200  0.358100  1
  H  H26  1  0.526200  0.325800  0.641900  1
  H  H27  1  0.455500  0.632600  0.302900  1
  H  H28  1  0.544500  0.367400  0.697100  1
  H  H29  1  0.278300  0.623400  0.309100  1
  H  H30  1  0.721700  0.376600  0.690900  1
  H  H31  1  0.304400  0.669000  0.364900  1
  H  H32  1  0.695600  0.331000  0.635100  1
  H  H33  1  0.565700  0.643700  0.195900  1
  H  H34  1  0.434300  0.356300  0.804100  1
  H  H35  1  0.493300  0.635700  0.227900  1
  H  H36  1  0.506700  0.364300  0.772100  1
  H  H37  1  0.374300  0.551300  0.148800  1
  H  H38  1  0.625700  0.448700  0.851200  1
  H  H39  1  0.452900  0.560900  0.117800  1
  H  H40  1  0.547100  0.439100  0.882200  1
  H  H41  1  0.135700  0.514700  0.137600  1
  H  H42  1  0.864300  0.485300  0.862400  1
  H  H43  1  0.234900  0.541900  0.159300  1
  H  H44  1  0.765100  0.458100  0.840700  1
  H  H45  1  0.175300  0.557400  0.247100  1
  H  H46  1  0.824700  0.442600  0.752900  1
  H  H47  1  0.082000  0.542600  0.223200  1
  H  H48  1  0.918000  0.457400  0.776800  1
  H  H49  1  0.219300  0.203000  0.419900  1
  H  H50  1  0.780700  0.797000  0.580100  1
  H  H51  1  0.204400  0.284700  0.414000  1
  H  H52  1  0.795600  0.715300  0.586000  1
  H  H53  1  0.391400  0.336300  0.435400  1
  H  H54  1  0.608600  0.663700  0.564600  1
  H  H55  1  0.386900  0.249200  0.433600  1
  H  H56  1  0.613100  0.750800  0.566400  1
  H  H57  1  0.292300  0.633900  0.417200  1
  H  H58  1  0.707700  0.366100  0.582800  1
  H  H59  1  0.260800  0.541000  0.414900  1
  H  H60  1  0.739200  0.459000  0.585100  1
  H  H61  1  0.428300  0.536500  0.425900  1
  H  H62  1  0.571700  0.463500  0.574100  1
  H  H63  1  0.460600  0.622000  0.418700  1
  H  H64  1  0.539400  0.378000  0.581300  1
  H  H65  1  0.061300  0.012100  0.103300  1
  H  H66  1  0.938700  0.987900  0.896700  1
  H  H67  1  0.058800  0.096600  0.096400  1
  H  H68  1  0.941200  0.903400  0.903600  1
  H  H69  1  0.956200  0.119000  0.167900  1
  H  H70  1  0.043800  0.881000  0.832100  1
  H  H71  1  0.956900  0.032800  0.171100  1
  H  H72  1  0.043100  0.967200  0.828900  1
  H  H73  1  0.047400  0.420800  0.108800  1
  H  H74  1  0.952600  0.579200  0.891200  1
  H  H75  1  0.051300  0.333400  0.100300  1
  H  H76  1  0.948700  0.666600  0.899700  1
  H  H77  1  0.987300  0.345200  0.186300  1
  H  H78  1  0.012700  0.654800  0.813700  1
  H  H79  1  0.980400  0.430500  0.191600  1
  H  H80  1  0.019600  0.569500  0.808400  1
  H  H81  1  0.618200  0.178300  0.217400  1
  H  H82  1  0.381800  0.821700  0.782600  1
  H  H83  1  0.628600  0.268400  0.219300  1
  H  H84  1  0.371400  0.731600  0.780700  1
  H  H85  1  0.555800  0.212500  0.127900  1
  H  H86  1  0.444200  0.787500  0.872100  1
  H  H87  1  0.554700  0.125000  0.127600  1
  H  H88  1  0.445300  0.875000  0.872400  1
  H  H89  1  0.639500  0.577700  0.180000  1
  H  H90  1  0.360500  0.422300  0.820000  1
  H  H91  1  0.643300  0.501600  0.196900  1
  H  H92  1  0.356700  0.498400  0.803100  1
  H  H93  1  0.538400  0.405900  0.114500  1
  H  H94  1  0.461600  0.594100  0.885500  1
  H  H95  1  0.536000  0.479800  0.099000  1
  H  H96  1  0.464000  0.520200  0.901000  1
  H  H97  1  0.282700  0.408200  0.496300  1
  H  H98  1  0.717300  0.591800  0.503700  1
  H  H99  1  0.190200  0.559400  0.483800  1
  H  H100  1  0.809800  0.440600  0.516200  1
  H  H101  1  0.136300  0.509500  0.483100  1
  H  H102  1  0.863700  0.490500  0.516900  1
  H  H103  1  0.173200  0.470100  0.429500  1
  H  H104  1  0.826800  0.529900  0.570500  1
  H  H105  1  0.177700  0.346300  0.499700  1
  H  H106  1  0.822300  0.653700  0.500300  1
  H  H107  1  0.223800  0.384100  0.529400  1
  H  H108  1  0.776200  0.615900  0.470600  1
  H  H109  1  0.097100  0.513200  0.429500  1
  H  H110  1  0.902900  0.486800  0.570500  1
  H  H111  1  0.093400  0.563200  0.460500  1
  H  H112  1  0.906600  0.436800  0.539500  1
  H  H113  1  0.188300  0.559900  0.429300  1
  H  H114  1  0.811700  0.440100  0.570700  1
  H  H115  1  0.707900  0.455000  0.228300  1
  H  H116  1  0.292100  0.545000  0.771700  1
  H  H117  1  0.715200  0.294300  0.151900  1
  H  H118  1  0.284800  0.705700  0.848100  1
  H  H119  1  0.817900  0.493900  0.235800  1
  H  H120  1  0.182100  0.506100  0.764200  1
  H  H121  1  0.806600  0.512500  0.204900  1
  H  H122  1  0.193400  0.487500  0.795100  1
  H  H123  1  0.745400  0.542500  0.260400  1
  H  H124  1  0.254600  0.457500  0.739600  1
  H  H125  1  0.809000  0.580100  0.258600  1
  H  H126  1  0.191000  0.419900  0.741400  1
  H  H127  1  0.786300  0.259900  0.170900  1
  H  H128  1  0.213700  0.740100  0.829100  1
  H  H129  1  0.785200  0.298900  0.206600  1
  H  H130  1  0.214800  0.701100  0.793400  1
  H  H131  1  0.838800  0.374100  0.190800  1
  H  H132  1  0.161200  0.625900  0.809200  1
  H  H133  1  0.876800  0.332600  0.191200  1
  H  H134  1  0.123200  0.667400  0.808800  1
  H  H135  1  0.852900  0.299600  0.135700  1
  H  H136  1  0.147100  0.700400  0.864300  1
  H  H137  1  0.737700  0.600700  0.238800  1
  H  H138  1  0.262300  0.399300  0.761200  1
  H  H139  1  0.900600  0.120400  0.081000  1
  H  H140  1  0.099400  0.879600  0.919000  1
  H  H141  1  0.898000  0.026500  0.049500  1
  H  H142  1  0.102000  0.973500  0.950500  1
  H  H143  1  0.928300  0.054500  0.023900  1
  H  H144  1  0.071700  0.945500  0.976100  1
  H  H145  1  0.807200  0.039700  0.021000  1
  H  H146  1  0.192800  0.960300  0.979000  1
  H  H147  1  0.827200  0.096900  0.051200  1
  H  H148  1  0.172800  0.903100  0.948800  1
  H  H149  1  0.884300  0.314300  0.080300  1
  H  H150  1  0.115700  0.685700  0.919700  1
  H  H151  1  0.906000  0.283700  0.048100  1
  H  H152  1  0.094000  0.716300  0.951900  1
  H  H153  1  0.792100  0.274400  0.063400  1
  H  H154  1  0.207900  0.725600  0.936600  1
  H  H155  1  0.817300  0.271900  0.029400  1
  H  H156  1  0.182700  0.728100  0.970600  1
  H  H157  1  0.826800  0.192900  0.025800  1
  H  H158  1  0.173200  0.807100  0.974200  1
  H  H159  1  0.903600  0.120200  0.027500  1
  H  H160  1  0.096400  0.879800  0.972500  1
  H  H161  1  0.904800  0.252300  0.102100  1
  H  H162  1  0.095200  0.747700  0.897900  1
  H  H163  1  0.304100  0.040600  0.468000  1
  H  H164  1  0.695900  0.959400  0.532000  1
  H  H165  1  0.258800  0.077400  0.469400  1
  H  H166  1  0.741200  0.922600  0.530600  1
  H  H167  1  0.355200  0.129600  0.508500  1
  H  H168  1  0.644800  0.870400  0.491500  1
  H  H169  1  0.388000  0.129100  0.476000  1
  H  H170  1  0.612000  0.870900  0.524000  1
  H  H171  1  0.364700  0.062300  0.398400  1
  H  H172  1  0.635300  0.937700  0.601600  1
  H  H173  1  0.358700  0.022700  0.419400  1
  H  H174  1  0.641300  0.977300  0.580600  1
  H  H175  1  0.393600  0.084700  0.435500  1
  H  H176  1  0.606400  0.915300  0.564500  1
  H  H177  1  0.216100  0.047900  0.416300  1
  H  H178  1  0.783900  0.952100  0.583700  1
  H  H179  1  0.244700  0.998400  0.410800  1
  H  H180  1  0.755300  0.001600  0.589200  1
  H  H181  1  0.252900  0.032400  0.386400  1
  H  H182  1  0.747100  0.967600  0.613600  1
  H  H183  1  0.394400  0.208100  0.486300  1
  H  H184  1  0.605600  0.791900  0.513700  1
  H  H185  1  0.355900  0.219200  0.515900  1
  H  H186  1  0.644100  0.780800  0.484100  1
  H  H187  1  0.342500  0.236900  0.485100  1
  H  H188  1  0.657500  0.763100  0.514900  1
  H  H189  1  0.227600  0.143500  0.486100  1
  H  H190  1  0.772400  0.856500  0.513900  1
  H  H191  1  0.254000  0.201600  0.482800  1
  H  H192  1  0.746000  0.798400  0.517200  1
  H  H193  1  0.273100  0.189500  0.514900  1
  H  H194  1  0.726900  0.810500  0.485100  1
  H  H195  1  0.915800  0.841400  0.145000  1
  H  H196  1  0.084200  0.158600  0.855000  1
  H  H197  1  0.942500  0.796700  0.121700  1
  H  H198  1  0.057500  0.203300  0.878300  1
  H  H199  1  0.950200  0.841900  0.083000  1
  H  H200  1  0.049800  0.158100  0.917000  1
  H  H201  1  0.882700  0.826900  0.090500  1
  H  H202  1  0.117300  0.173100  0.909500  1
  H  H203  1  0.037400  0.848300  0.102300  1
  H  H204  1  0.962600  0.151700  0.897700  1
  H  H205  1  0.043900  0.812400  0.124700  1
  H  H206  1  0.956100  0.187600  0.875300  1
  H  H207  1  0.084300  0.872800  0.134400  1
  H  H208  1  0.915700  0.127200  0.865600  1
  H  H209  1  0.050200  0.890000  0.185000  1
  H  H210  1  0.949800  0.110000  0.815000  1
  H  H211  1  0.004600  0.831900  0.175900  1
  H  H212  1  0.995400  0.168100  0.824100  1
  H  H213  1  0.980900  0.884400  0.187000  1
  H  H214  1  0.019100  0.115600  0.813000  1
  H  H215  1  0.878100  0.954600  0.134900  1
  H  H216  1  0.121900  0.045400  0.865100  1
  H  H217  1  0.876100  0.904400  0.147200  1
  H  H218  1  0.123900  0.095600  0.852800  1
  H  H219  1  0.838600  0.896100  0.113600  1
  H  H220  1  0.161400  0.103900  0.886400  1
  H  H221  1  0.955200  0.914200  0.069100  1
  H  H222  1  0.044800  0.085800  0.930900  1
  H  H223  1  0.922600  0.959000  0.086400  1
  H  H224  1  0.077400  0.041000  0.913600  1
  H  H225  1  0.884300  0.899000  0.067100  1
  H  H226  1  0.115700  0.101000  0.932900  1
  H  H227  1  0.655800  0.985600  0.182400  1
  H  H228  1  0.344200  0.014400  0.817600  1
  H  H229  1  0.623800  0.945500  0.147900  1
  H  H230  1  0.376200  0.054500  0.852100  1
  H  H231  1  0.664600  0.995000  0.123600  1
  H  H232  1  0.335400  0.005000  0.876400  1
  H  H233  1  0.711500  0.020000  0.155600  1
  H  H234  1  0.288500  0.980000  0.844400  1
  H  H235  1  0.661200  0.112100  0.123100  1
  H  H236  1  0.338800  0.887900  0.876900  1
  H  H237  1  0.632800  0.049500  0.104600  1
  H  H238  1  0.367200  0.950500  0.895400  1
  H  H239  1  0.703200  0.072600  0.113600  1
  H  H240  1  0.296800  0.927400  0.886400  1
  H  H241  1  0.699700  0.146000  0.170400  1
  H  H242  1  0.300300  0.854000  0.829600  1
  H  H243  1  0.746000  0.110300  0.162700  1
  H  H244  1  0.254000  0.889700  0.837300  1
  H  H245  1  0.710800  0.112700  0.193600  1
  H  H246  1  0.289200  0.887300  0.806400  1
  H  H247  1  0.615400  0.016600  0.217800  1
  H  H248  1  0.384600  0.983400  0.782200  1
  H  H249  1  0.580200  0.954400  0.204200  1
  H  H250  1  0.419800  0.045600  0.795800  1
  H  H251  1  0.544300  0.999000  0.214000  1
  H  H252  1  0.455700  0.001000  0.786000  1
  H  H253  1  0.491100  0.966300  0.154100  1
  H  H254  1  0.508900  0.033700  0.845900  1
  H  H255  1  0.525300  0.920300  0.145700  1
  H  H256  1  0.474700  0.079700  0.854300  1
  H  H257  1  0.533500  0.962200  0.126100  1
  H  H258  1  0.466500  0.037800  0.873900  1
  H  H259  1  0.438700  0.858900  0.438500  1
  H  H260  1  0.561300  0.141100  0.561500  1
  H  H261  1  0.492700  0.835900  0.447300  1
  H  H262  1  0.507300  0.164100  0.552700  1
  H  H263  1  0.429300  0.829800  0.488700  1
  H  H264  1  0.570700  0.170200  0.511300  1
  H  H265  1  0.371000  0.805300  0.462500  1
  H  H266  1  0.629000  0.194700  0.537500  1
  H  H267  1  0.367000  0.770200  0.376500  1
  H  H268  1  0.633000  0.229800  0.623500  1
  H  H269  1  0.398700  0.831700  0.396500  1
  H  H270  1  0.601300  0.168300  0.603500  1
  H  H271  1  0.349200  0.797100  0.411500  1
  H  H272  1  0.650800  0.202900  0.588500  1
  H  H273  1  0.467400  0.764200  0.372900  1
  H  H274  1  0.532600  0.235800  0.627100  1
  H  H275  1  0.512800  0.796300  0.405300  1
  H  H276  1  0.487200  0.203700  0.594700  1
  H  H277  1  0.474200  0.826700  0.390300  1
  H  H278  1  0.525800  0.173300  0.609700  1
  H  H279  1  0.360500  0.697600  0.476400  1
  H  H280  1  0.639500  0.302400  0.523600  1
  H  H281  1  0.331600  0.739800  0.467300  1
  H  H282  1  0.668400  0.260200  0.532700  1
  H  H283  1  0.373400  0.757600  0.500900  1
  H  H284  1  0.626600  0.242400  0.499100  1
  H  H285  1  0.458600  0.701400  0.474200  1
  H  H286  1  0.541400  0.298600  0.525800  1
  H  H287  1  0.463100  0.755200  0.503500  1
  H  H288  1  0.536900  0.244800  0.496500  1
  H  H289  1  0.503700  0.756600  0.475000  1
  H  H290  1  0.496300  0.243400  0.525000  1
  H  H291  1  0.938100  0.593300  0.172400  1
  H  H292  1  0.061900  0.406700  0.827600  1
  H  H293  1  0.958300  0.622700  0.146200  1
  H  H294  1  0.041700  0.377300  0.853800  1
  H  H295  1  0.952400  0.543700  0.108000  1
  H  H296  1  0.047600  0.456300  0.892000  1
  H  H297  1  0.890500  0.540900  0.122300  1
  H  H298  1  0.109500  0.459100  0.877700  1
  H  H299  1  0.919400  0.417100  0.104200  1
  H  H300  1  0.080600  0.582900  0.895800  1
  H  H301  1  0.954600  0.461200  0.089500  1
  H  H302  1  0.045400  0.538800  0.910500  1
  H  H303  1  0.884900  0.452800  0.091500  1
  H  H304  1  0.115100  0.547200  0.908500  1
  H  H305  1  0.894200  0.504500  0.176000  1
  H  H306  1  0.105800  0.495500  0.824000  1
  H  H307  1  0.889000  0.442400  0.158100  1
  H  H308  1  0.111000  0.557600  0.841900  1
  H  H309  1  0.847600  0.471800  0.144200  1
  H  H310  1  0.152400  0.528200  0.855800  1
  H  H311  1  0.088700  0.623900  0.193900  1
  H  H312  1  0.911300  0.376100  0.806100  1
  H  H313  1  0.024900  0.616800  0.206600  1
  H  H314  1  0.975100  0.383200  0.793400  1
  H  H315  1  0.047900  0.661800  0.190000  1
  H  H316  1  0.952100  0.338200  0.810000  1
  H  H317  1  0.049500  0.581800  0.117200  1
  H  H318  1  0.950500  0.418200  0.882800  1
  H  H319  1  0.102300  0.605200  0.146500  1
  H  H320  1  0.897700  0.394800  0.853500  1
  H  H321  1  0.062800  0.642700  0.140300  1
  H  H322  1  0.937200  0.357300  0.859700  1
  H  H323  1  0.595800  0.656000  0.072400  1
  H  H324  1  0.404200  0.344000  0.927600  1
  H  H325  1  0.638500  0.710700  0.096000  1
  H  H326  1  0.361500  0.289300  0.904000  1
  H  H327  1  0.699200  0.674500  0.108200  1
  H  H328  1  0.300800  0.325500  0.891800  1
  H  H329  1  0.678400  0.643100  0.070600  1
  H  H330  1  0.321600  0.356900  0.929400  1
  H  H331  1  0.581800  0.716900  0.163200  1
  H  H332  1  0.418200  0.283100  0.836800  1
  H  H333  1  0.610000  0.749600  0.140000  1
  H  H334  1  0.390000  0.250400  0.860000  1
  H  H335  1  0.647300  0.716800  0.153800  1
  H  H336  1  0.352700  0.283200  0.846200  1
  H  H337  1  0.506100  0.645500  0.088600  1
  H  H338  1  0.493900  0.354500  0.911400  1
  H  H339  1  0.528500  0.709300  0.104500  1
  H  H340  1  0.471500  0.290700  0.895500  1
  H  H341  1  0.499400  0.673400  0.125800  1
  H  H342  1  0.500600  0.326600  0.874200  1
  H  H343  1  0.627400  0.523000  0.074000  1
  H  H344  1  0.372600  0.477000  0.926000  1
  H  H345  1  0.670500  0.558100  0.056400  1
  H  H346  1  0.329500  0.441900  0.943600  1
  H  H347  1  0.602300  0.558800  0.056500  1
  H  H348  1  0.397700  0.441200  0.943500  1
  H  H349  1  0.703300  0.570200  0.121000  1
  H  H350  1  0.296700  0.429800  0.879000  1
  H  H351  1  0.717600  0.634200  0.135300  1
  H  H352  1  0.282400  0.365800  0.864700  1
  H  H353  1  0.738800  0.606500  0.101500  1
  H  H354  1  0.261200  0.393500  0.898500  1
  H  H355  1  0.291100  0.421700  0.154900  1
  H  H356  1  0.708900  0.578300  0.845100  1
  H  H357  1  0.374500  0.427900  0.132800  1
  H  H358  1  0.625500  0.572100  0.867200  1
  H  H359  1  0.459500  0.446500  0.166900  1
  H  H360  1  0.540500  0.553500  0.833100  1
  H  H361  1  0.461300  0.483800  0.224600  1
  H  H362  1  0.538700  0.516200  0.775400  1
  H  H363  1  0.466700  0.501200  0.271100  1
  H  H364  1  0.533300  0.498800  0.728900  1
  H  H365  1  0.466500  0.526000  0.327300  1
  H  H366  1  0.533500  0.474000  0.672700  1
  H  H367  1  0.377600  0.516600  0.347600  1
  H  H368  1  0.622400  0.483400  0.652400  1
  H  H369  1  0.289100  0.485800  0.317700  1
  H  H370  1  0.710900  0.514200  0.682300  1
  H  H371  1  0.208300  0.464500  0.289400  1
  H  H372  1  0.791700  0.535500  0.710600  1
  H  H373  1  0.118100  0.422700  0.252500  1
  H  H374  1  0.881900  0.577300  0.747500  1
  H  H375  1  0.121400  0.397600  0.199500  1
  H  H376  1  0.878600  0.602400  0.800500  1
  H  H377  1  0.210100  0.406000  0.178300  1
  H  H378  1  0.789900  0.594000  0.821700  1
  H  H379  1  0.246300  0.667400  0.169800  1
  H  H380  1  0.753700  0.332600  0.830200  1
  H  H381  1  0.291000  0.649900  0.121600  1
  H  H382  1  0.709000  0.350100  0.878400  1
  H  H383  1  0.401200  0.680300  0.127100  1
  H  H384  1  0.598800  0.319700  0.872900  1
  H  H385  1  0.452400  0.719100  0.177500  1
  H  H386  1  0.547600  0.280900  0.822500  1
  H  H387  1  0.495800  0.750000  0.222300  1
  H  H388  1  0.504200  0.250000  0.777700  1
  H  H389  1  0.552500  0.779300  0.273200  1
  H  H390  1  0.447500  0.220700  0.726800  1
  H  H391  1  0.501000  0.784700  0.318900  1
  H  H392  1  0.499000  0.215300  0.681100  1
  H  H393  1  0.402200  0.768100  0.315500  1
  H  H394  1  0.597800  0.231900  0.684500  1
  H  H395  1  0.313800  0.747300  0.309500  1
  H  H396  1  0.686200  0.252700  0.690500  1
  H  H397  1  0.215600  0.715700  0.301400  1
  H  H398  1  0.784400  0.284300  0.698600  1
  H  H399  1  0.156100  0.687900  0.256900  1
  H  H400  1  0.843900  0.312100  0.743100  1
  H  H401  1  0.206600  0.673200  0.210100  1
  H  H402  1  0.793400  0.326800  0.789900  1
  H  H403  1  0.353900  0.174200  0.169300  1
  H  H404  1  0.646100  0.825800  0.830700  1
  H  H405  1  0.454000  0.208200  0.182900  1
  H  H406  1  0.546000  0.791800  0.817100  1
  H  H407  1  0.501600  0.229400  0.232600  1
  H  H408  1  0.498400  0.770600  0.767400  1
  H  H409  1  0.448600  0.244300  0.278100  1
  H  H410  1  0.551400  0.755700  0.721900  1
  H  H411  1  0.398900  0.252300  0.310800  1
  H  H412  1  0.601100  0.747700  0.689200  1
  H  H413  1  0.343400  0.254600  0.356200  1
  H  H414  1  0.656600  0.745400  0.643800  1
  H  H415  1  0.238000  0.237800  0.344200  1
  H  H416  1  0.762000  0.762200  0.655800  1
  H  H417  1  0.191700  0.202400  0.294700  1
  H  H418  1  0.808300  0.797600  0.705300  1
  H  H419  1  0.150900  0.167000  0.247400  1
  H  H420  1  0.849100  0.833000  0.752600  1
  H  H421  1  0.105900  0.140100  0.194600  1
  H  H422  1  0.894100  0.859900  0.805400  1
  H  H423  1  0.160400  0.130200  0.154100  1
  H  H424  1  0.839600  0.869800  0.845900  1
  H  H425  1  0.262400  0.157700  0.162900  1
  H  H426  1  0.737600  0.842300  0.837100  1
  H  H427  1  0.880200  0.190300  0.759900  1
  H  H428  1  0.119800  0.809700  0.240100  1
  H  H429  1  0.794200  0.195000  0.781900  1
  H  H430  1  0.205800  0.805000  0.218100  1
  H  H431  1  0.704100  0.133600  0.692300  1
  H  H432  1  0.295900  0.866400  0.307700  1
  H  H433  1  0.793700  0.132300  0.673900  1
  H  H434  1  0.206300  0.867700  0.326100  1
  H  H435  1  0.721000  0.214200  0.899700  1
  H  H436  1  0.279000  0.785800  0.100300  1
  H  H437  1  0.720700  0.196100  0.845500  1
  H  H438  1  0.279300  0.803900  0.154500  1
  H  H439  1  0.545600  0.164500  0.834900  1
  H  H440  1  0.454400  0.835500  0.165100  1
  H  H441  1  0.549200  0.188100  0.891400  1
  H  H442  1  0.450800  0.811900  0.108600  1
  H  H443  1  0.467200  0.054100  0.651300  1
  H  H444  1  0.532800  0.945900  0.348700  1
  H  H445  1  0.561100  0.095200  0.682700  1
  H  H446  1  0.438900  0.904800  0.317300  1
  H  H447  1  0.468400  0.116700  0.761200  1
  H  H448  1  0.531600  0.883300  0.238800  1
  H  H449  1  0.383600  0.075000  0.727100  1
  H  H450  1  0.616400  0.925000  0.272900  1
  H  H451  1  0.954500  0.735500  0.777900  1
  H  H452  1  0.045500  0.264500  0.222100  1
  H  H453  1  0.857700  0.711100  0.787900  1
  H  H454  1  0.142300  0.288900  0.212100  1
  H  H455  1  0.801800  0.676200  0.695000  1
  H  H456  1  0.198200  0.323800  0.305000  1
  H  H457  1  0.897000  0.704500  0.684400  1
  H  H458  1  0.103000  0.295500  0.315600  1
  H  H459  1  0.738900  0.759700  0.894000  1
  H  H460  1  0.261100  0.240300  0.106000  1
  H  H461  1  0.761500  0.732800  0.842100  1
  H  H462  1  0.238500  0.267200  0.157900  1
  H  H463  1  0.587600  0.669500  0.811700  1
  H  H464  1  0.412400  0.330500  0.188300  1
  H  H465  1  0.569600  0.697400  0.866100  1
  H  H466  1  0.430400  0.302600  0.133900  1
  H  H467  1  0.570000  0.589900  0.629700  1
  H  H468  1  0.430000  0.410100  0.370300  1
  H  H469  1  0.654300  0.611200  0.668400  1
  H  H470  1  0.345700  0.388800  0.331600  1
  H  H471  1  0.544200  0.641100  0.737900  1
  H  H472  1  0.455800  0.358900  0.262100  1
  H  H473  1  0.465400  0.619700  0.697200  1
  H  H474  1  0.534600  0.380300  0.302800  1
  H  H475  1  0.975500  0.260500  0.732400  1
  H  H476  1  0.024500  0.739500  0.267600  1
  H  H477  1  0.973300  0.350000  0.733400  1
  H  H478  1  0.026700  0.650000  0.266600  1
  H  H479  1  0.881700  0.280600  0.641500  1
  H  H480  1  0.118300  0.719400  0.358500  1
  H  H481  1  0.874500  0.196400  0.648900  1
  H  H482  1  0.125500  0.803600  0.351100  1
  H  H483  1  0.045800  0.660200  0.753800  1
  H  H484  1  0.954200  0.339800  0.246200  1
  H  H485  1  0.020200  0.568300  0.744100  1
  H  H486  1  0.979800  0.431700  0.255900  1
  H  H487  1  0.938100  0.542800  0.652900  1
  H  H488  1  0.061900  0.457200  0.347100  1
  H  H489  1  0.976200  0.641400  0.667200  1
  H  H490  1  0.023800  0.358600  0.332800  1
  H  H491  1  0.568800  0.298800  0.949700  1
  H  H492  1  0.431200  0.701200  0.050300  1
  H  H493  1  0.583700  0.386100  0.943900  1
  H  H494  1  0.416300  0.613900  0.056100  1
  H  H495  1  0.756500  0.402800  0.953900  1
  H  H496  1  0.243500  0.597200  0.046100  1
  H  H497  1  0.735300  0.311200  0.951200  1
  H  H498  1  0.264700  0.688800  0.048800  1
  H  H499  1  0.565400  0.658400  0.929700  1
  H  H500  1  0.434600  0.341600  0.070300  1
  H  H501  1  0.582200  0.577000  0.930500  1
  H  H502  1  0.417800  0.423000  0.069500  1
  H  H503  1  0.757900  0.648200  0.951800  1
  H  H504  1  0.242100  0.351800  0.048200  1
  H  H505  1  0.738200  0.730700  0.947900  1
  H  H506  1  0.261800  0.269300  0.052100  1
  H  H507  1  0.384300  0.097800  0.616100  1
  H  H508  1  0.615700  0.902200  0.383900  1
  H  H509  1  0.398900  0.192000  0.620000  1
  H  H510  1  0.601100  0.808000  0.380000  1
  H  H511  1  0.323100  0.214800  0.702500  1
  H  H512  1  0.676900  0.785200  0.297500  1
  H  H513  1  0.311200  0.125000  0.699000  1
  H  H514  1  0.688800  0.875000  0.301000  1
  H  H515  1  0.458200  0.475500  0.600300  1
  H  H516  1  0.541800  0.524500  0.399700  1
  H  H517  1  0.439600  0.395200  0.611100  1
  H  H518  1  0.560400  0.604800  0.388900  1
  H  H519  1  0.356700  0.458700  0.685100  1
  H  H520  1  0.643300  0.541300  0.314900  1
  H  H521  1  0.372000  0.534700  0.668400  1
  H  H522  1  0.628000  0.465300  0.331600  1
  H  H523  1  0.075500  0.498100  0.659100  1
  H  H524  1  0.924500  0.501900  0.340900  1
  H  H525  1  0.907300  0.358400  0.608500  1
  H  H526  1  0.092700  0.641600  0.391500  1
  H  H527  1  0.061200  0.505000  0.596100  1
  H  H528  1  0.938800  0.495000  0.403900  1
  H  H529  1  0.120000  0.493500  0.609600  1
  H  H530  1  0.880000  0.506500  0.390400  1
  H  H531  1  0.960300  0.293100  0.562800  1
  H  H532  1  0.039700  0.706900  0.437200  1
  H  H533  1  0.893800  0.297300  0.557200  1
  H  H534  1  0.106200  0.702700  0.442800  1
  H  H535  1  0.830400  0.496600  0.972300  1
  H  H536  1  0.169600  0.503400  0.027700  1
  H  H537  1  0.824700  0.599300  0.976000  1
  H  H538  1  0.175300  0.400700  0.024000  1
  H  H539  1  0.830500  0.680300  0.035600  1
  H  H540  1  0.169500  0.319700  0.964400  1
  H  H541  1  0.879600  0.684800  0.011700  1
  H  H542  1  0.120400  0.315200  0.988300  1
  H  H543  1  0.279400  0.300600  0.716800  1
  H  H544  1  0.720600  0.699400  0.283200  1
  H  H545  1  0.159600  0.242900  0.698300  1
  H  H546  1  0.840400  0.757100  0.301700  1
  H  H547  1  0.182400  0.293500  0.730600  1
  H  H548  1  0.817600  0.706500  0.269400  1
  H  H549  1  0.258000  0.340700  0.617400  1
  H  H550  1  0.742000  0.659300  0.382600  1
  H  H551  1  0.191200  0.400300  0.660700  1
  H  H552  1  0.808800  0.599700  0.339300  1
  H  H553  1  0.161600  0.363500  0.624800  1
  H  H554  1  0.838400  0.636500  0.375200  1
  H  H555  1  0.997600  0.085300  0.710500  1
  H  H556  1  0.002400  0.914700  0.289500  1
  H  H557  1  0.967100  0.024700  0.687100  1
  H  H558  1  0.032900  0.975300  0.312900  1
  H  H559  1  0.019100  0.070500  0.653300  1
  H  H560  1  0.980900  0.929500  0.346700  1
  H  H561  1  0.949600  0.062800  0.643600  1
  H  H562  1  0.050400  0.937200  0.356400  1
  H  H563  1  0.047300  0.173400  0.713800  1
  H  H564  1  0.952700  0.826600  0.286200  1
  H  H565  1  0.040500  0.215900  0.696300  1
  H  H566  1  0.959500  0.784100  0.303700  1
  H  H567  1  0.079700  0.175100  0.682400  1
  H  H568  1  0.920300  0.824900  0.317600  1
  H  H569  1  0.954700  0.126800  0.626700  1
  H  H570  1  0.045300  0.873200  0.373300  1
  H  H571  1  0.025100  0.151800  0.631300  1
  H  H572  1  0.974900  0.848200  0.368700  1
  H  H573  1  0.982700  0.189400  0.645500  1
  H  H574  1  0.017300  0.810600  0.354500  1
  H  H575  1  0.576500  0.136800  0.983300  1
  H  H576  1  0.423500  0.863200  0.016700  1
  H  H577  1  0.629900  0.109900  0.985900  1
  H  H578  1  0.370100  0.890100  0.014100  1
  H  H579  1  0.696200  0.192400  0.001300  1
  H  H580  1  0.303800  0.807600  0.998700  1
  H  H581  1  0.647500  0.189500  0.025900  1
  H  H582  1  0.352500  0.810500  0.974100  1
  H  H583  1  0.543200  0.113900  0.929700  1
  H  H584  1  0.456800  0.886100  0.070300  1
  H  H585  1  0.575200  0.066500  0.923200  1
  H  H586  1  0.424800  0.933500  0.076800  1
  H  H587  1  0.586100  0.105900  0.901900  1
  H  H588  1  0.413900  0.894100  0.098100  1
  H  H589  1  0.693400  0.127200  0.917900  1
  H  H590  1  0.306600  0.872800  0.082100  1
  H  H591  1  0.686900  0.092800  0.942100  1
  H  H592  1  0.313100  0.907200  0.057900  1
  H  H593  1  0.720400  0.155500  0.955200  1
  H  H594  1  0.279600  0.844500  0.044800  1
  H  H595  1  0.548700  0.210500  0.993800  1
  H  H596  1  0.451300  0.789500  0.006200  1
  H  H597  1  0.571900  0.274600  0.005800  1
  H  H598  1  0.428100  0.725400  0.994200  1
  H  H599  1  0.578500  0.242500  0.030400  1
  H  H600  1  0.421500  0.757500  0.969600  1
  H  H601  1  0.721800  0.280400  0.012000  1
  H  H602  1  0.278200  0.719600  0.988000  1
  H  H603  1  0.680200  0.291000  0.040200  1
  H  H604  1  0.319800  0.709000  0.959800  1
  H  H605  1  0.676800  0.316400  0.011700  1
  H  H606  1  0.323200  0.683600  0.988300  1
  H  H607  1  0.269100  0.880800  0.630700  1
  H  H608  1  0.730900  0.119200  0.369300  1
  H  H609  1  0.246600  0.926200  0.656100  1
  H  H610  1  0.753400  0.073800  0.343900  1
  H  H611  1  0.212000  0.916700  0.606500  1
  H  H612  1  0.788000  0.083300  0.393500  1
  H  H613  1  0.277600  0.925600  0.595900  1
  H  H614  1  0.722400  0.074400  0.404100  1
  H  H615  1  0.421300  0.955800  0.649800  1
  H  H616  1  0.578700  0.044200  0.350200  1
  H  H617  1  0.379000  0.932500  0.616000  1
  H  H618  1  0.621000  0.067500  0.384000  1
  H  H619  1  0.381600  0.894900  0.637700  1
  H  H620  1  0.618400  0.105100  0.362300  1
  H  H621  1  0.390500  0.965800  0.695400  1
  H  H622  1  0.609500  0.034200  0.304600  1
  H  H623  1  0.341700  0.909300  0.686500  1
  H  H624  1  0.658300  0.090700  0.313500  1
  H  H625  1  0.322900  0.964000  0.701100  1
  H  H626  1  0.677100  0.036000  0.298900  1
  H  H627  1  0.263900  0.050600  0.606200  1
  H  H628  1  0.736100  0.949400  0.393800  1
  H  H629  1  0.220800  0.993700  0.585000  1
  H  H630  1  0.779200  0.006300  0.415000  1
  H  H631  1  0.291300  0.004100  0.585500  1
  H  H632  1  0.708700  0.995900  0.414500  1
  H  H633  1  0.219800  0.050000  0.648600  1
  H  H634  1  0.780200  0.950000  0.351400  1
  H  H635  1  0.221100  0.006700  0.666400  1
  H  H636  1  0.778900  0.993300  0.333600  1
  H  H637  1  0.175800  0.990900  0.634300  1
  H  H638  1  0.824200  0.009100  0.365700  1
  H  H639  1  0.105800  0.871600  0.729200  1
  H  H640  1  0.894200  0.128400  0.270800  1
  H  H641  1  0.110700  0.837300  0.752700  1
  H  H642  1  0.889300  0.162700  0.247300  1
  H  H643  1  0.164600  0.820500  0.713900  1
  H  H644  1  0.835400  0.179500  0.286100  1
  H  H645  1  0.108000  0.804500  0.687400  1
  H  H646  1  0.892000  0.195500  0.312600  1
  H  H647  1  0.026600  0.834100  0.775600  1
  H  H648  1  0.973400  0.165900  0.224400  1
  H  H649  1  0.964000  0.824300  0.755200  1
  H  H650  1  0.036000  0.175700  0.244800  1
  H  H651  1  0.014700  0.878900  0.761300  1
  H  H652  1  0.985300  0.121100  0.238700  1
  H  H653  1  0.961700  0.808500  0.695700  1
  H  H654  1  0.038300  0.191500  0.304300  1
  H  H655  1  0.020500  0.804500  0.678800  1
  H  H656  1  0.979500  0.195500  0.321200  1
  H  H657  1  0.014700  0.861400  0.701300  1
  H  H658  1  0.985300  0.138600  0.298700  1
  H  H659  1  0.138800  0.710500  0.736600  1
  H  H660  1  0.861200  0.289500  0.263400  1
  H  H661  1  0.144300  0.771700  0.757000  1
  H  H662  1  0.855700  0.228300  0.243000  1
  H  H663  1  0.189300  0.757400  0.731100  1
  H  H664  1  0.810700  0.242600  0.268900  1
  H  H665  1  0.102200  0.674500  0.682100  1
  H  H666  1  0.897800  0.325500  0.317900  1
  H  H667  1  0.154200  0.718600  0.675100  1
  H  H668  1  0.845800  0.281400  0.324900  1
  H  H669  1  0.086600  0.710800  0.661900  1
  H  H670  1  0.913400  0.289200  0.338100  1
  H  H671  1  0.641600  0.906100  0.957600  1
  H  H672  1  0.358400  0.093900  0.042400  1
  H  H673  1  0.572500  0.874900  0.950000  1
  H  H674  1  0.427500  0.125100  0.050000  1
  H  H675  1  0.582100  0.855900  0.989700  1
  H  H676  1  0.417900  0.144100  0.010300  1
  H  H677  1  0.651900  0.879500  0.994000  1
  H  H678  1  0.348100  0.120500  0.006000  1
  H  H679  1  0.577700  0.795600  0.878100  1
  H  H680  1  0.422300  0.204400  0.121900  1
  H  H681  1  0.565400  0.852300  0.896000  1
  H  H682  1  0.434600  0.147700  0.104000  1
  H  H683  1  0.537400  0.801500  0.907100  1
  H  H684  1  0.462600  0.198500  0.092900  1
  H  H685  1  0.688500  0.837400  0.890500  1
  H  H686  1  0.311500  0.162600  0.109500  1
  H  H687  1  0.714500  0.871400  0.927500  1
  H  H688  1  0.285500  0.128600  0.072500  1
  H  H689  1  0.675200  0.894100  0.907000  1
  H  H690  1  0.324800  0.105900  0.093000  1
  H  H691  1  0.539000  0.766100  0.969400  1
  H  H692  1  0.461000  0.233900  0.030600  1
  H  H693  1  0.563600  0.795100  0.007000  1
  H  H694  1  0.436400  0.204900  0.993000  1
  H  H695  1  0.576000  0.739000  0.987900  1
  H  H696  1  0.424000  0.261000  0.012100  1
  H  H697  1  0.710000  0.834200  0.992200  1
  H  H698  1  0.290000  0.165800  0.007800  1
  H  H699  1  0.684400  0.780100  0.000400  1
  H  H700  1  0.315600  0.219900  0.999600  1
  H  H701  1  0.669700  0.834300  0.021000  1
  H  H702  1  0.330300  0.165700  0.979000  1
  H  H703  1  0.409000  0.683900  0.591600  1
  H  H704  1  0.591000  0.316100  0.408400  1
  H  H705  1  0.438100  0.638400  0.571400  1
  H  H706  1  0.561900  0.361600  0.428600  1
  H  H707  1  0.346000  0.598900  0.563000  1
  H  H708  1  0.654000  0.401100  0.437000  1
  H  H709  1  0.335100  0.628100  0.599000  1
  H  H710  1  0.664900  0.371900  0.401000  1
  H  H711  1  0.526800  0.648700  0.595700  1
  H  H712  1  0.473200  0.351300  0.404300  1
  H  H713  1  0.545500  0.678700  0.633800  1
  H  H714  1  0.454500  0.321300  0.366200  1
  H  H715  1  0.524800  0.709700  0.611400  1
  H  H716  1  0.475200  0.290300  0.388600  1
  H  H717  1  0.475400  0.698600  0.666100  1
  H  H718  1  0.524600  0.301400  0.333900  1
  H  H719  1  0.407600  0.687900  0.652000  1
  H  H720  1  0.592400  0.312100  0.348000  1
  H  H721  1  0.458900  0.730300  0.643000  1
  H  H722  1  0.541100  0.269700  0.357000  1
  H  H723  1  0.365200  0.488700  0.569400  1
  H  H724  1  0.634800  0.511300  0.430600  1
  H  H725  1  0.400200  0.533100  0.554900  1
  H  H726  1  0.599800  0.466900  0.445100  1
  H  H727  1  0.329100  0.515100  0.549800  1
  H  H728  1  0.670900  0.484900  0.450200  1
  H  H729  1  0.315400  0.512500  0.613300  1
  H  H730  1  0.684600  0.487500  0.386700  1
  H  H731  1  0.277500  0.537200  0.593400  1
  H  H732  1  0.722500  0.462800  0.406600  1
  H  H733  1  0.311500  0.573000  0.628700  1
  H  H734  1  0.688500  0.427000  0.371300  1
  Pd  Pd735  1  0.304930  0.147170  0.428770  1
  Pd  Pd736  1  0.695070  0.852830  0.571230  1
  Pd  Pd737  1  0.003350  0.942990  0.140090  1
  Pd  Pd738  1  0.996650  0.057010  0.859910  1
  Pd  Pd739  1  0.585020  0.070640  0.172280  1
  Pd  Pd740  1  0.414980  0.929360  0.827720  1
  Pd  Pd741  1  0.406050  0.710170  0.414860  1
  Pd  Pd742  1  0.593950  0.289830  0.585140  1
  Pd  Pd743  1  0.017800  0.512020  0.157170  1
  Pd  Pd744  1  0.982200  0.487980  0.842830  1
  Pd  Pd745  1  0.583850  0.601770  0.126790  1
  Pd  Pd746  1  0.416150  0.398230  0.873210  1
  Pd  Pd747  1  0.917010  0.150810  0.693690  1
  Pd  Pd748  1  0.082990  0.849190  0.306310  1
  Pd  Pd749  1  0.637960  0.221290  0.949290  1
  Pd  Pd750  1  0.362040  0.778710  0.050710  1
  Pd  Pd751  1  0.340650  0.029220  0.656500  1
  Pd  Pd752  1  0.659350  0.970780  0.343500  1
  Pd  Pd753  1  0.019250  0.735070  0.719200  1
  Pd  Pd754  1  0.980750  0.264930  0.280800  1
  Pd  Pd755  1  0.637200  0.766710  0.930580  1
  Pd  Pd756  1  0.362800  0.233290  0.069420  1
  Pd  Pd757  1  0.438820  0.583880  0.626830  1
  Pd  Pd758  1  0.561180  0.416120  0.373170  1
  C  C759  1  0.251700  0.111100  0.362600  1
  C  C760  1  0.748300  0.888900  0.637400  1
  C  C761  1  0.247300  0.097700  0.326400  1
  C  C762  1  0.752700  0.902300  0.673600  1
  C  C763  1  0.302800  0.104600  0.312900  1
  C  C764  1  0.697200  0.895400  0.687100  1
  C  C765  1  0.353900  0.120200  0.332200  1
  C  C766  1  0.646100  0.879800  0.667800  1
  C  C767  1  0.352200  0.132500  0.367000  1
  C  C768  1  0.647800  0.867500  0.633000  1
  C  C769  1  0.085400  0.999900  0.201500  1
  C  C770  1  0.914600  0.000100  0.798500  1
  C  C771  1  0.137100  0.025300  0.220600  1
  C  C772  1  0.862900  0.974700  0.779400  1
  C  C773  1  0.191000  0.030500  0.207900  1
  C  C774  1  0.809000  0.969500  0.792100  1
  C  C775  1  0.186800  0.007900  0.174000  1
  C  C776  1  0.813200  0.992100  0.826000  1
  C  C777  1  0.133500  0.984900  0.156100  1
  C  C778  1  0.866500  0.015100  0.843900  1
  C  C779  1  0.508500  0.091900  0.224100  1
  C  C780  1  0.491500  0.908100  0.775900  1
  C  C781  1  0.457500  0.096300  0.238800  1
  C  C782  1  0.542500  0.903700  0.761200  1
  C  C783  1  0.406200  0.079900  0.220400  1
  C  C784  1  0.593800  0.920100  0.779600  1
  C  C785  1  0.404200  0.062500  0.186700  1
  C  C786  1  0.595800  0.937500  0.813300  1
  C  C787  1  0.457100  0.061300  0.174900  1
  C  C788  1  0.542900  0.938700  0.825100  1
  C  C789  1  0.300600  0.089500  0.278100  1
  C  C790  1  0.699400  0.910500  0.721900  1
  C  C791  1  0.246000  0.054000  0.228600  1
  C  C792  1  0.754000  0.946000  0.771400  1
  C  C793  1  0.345900  0.078400  0.234500  1
  C  C794  1  0.654100  0.921600  0.765500  1
  C  C795  1  0.433800  0.663700  0.348200  1
  C  C796  1  0.566200  0.336300  0.651800  1
  C  C797  1  0.423600  0.639200  0.314900  1
  C  C798  1  0.576400  0.360800  0.685100  1
  C  C799  1  0.364000  0.623900  0.298600  1
  C  C800  1  0.636000  0.376100  0.701400  1
  C  C801  1  0.318600  0.634000  0.318300  1
  C  C802  1  0.681400  0.366000  0.681700  1
  C  C803  1  0.334700  0.660200  0.352100  1
  C  C804  1  0.665300  0.339800  0.647900  1
  C  C805  1  0.526400  0.624200  0.186200  1
  C  C806  1  0.473600  0.375800  0.813800  1
  C  C807  1  0.483400  0.618900  0.205100  1
  C  C808  1  0.516600  0.381100  0.794900  1
  C  C809  1  0.426300  0.590800  0.193500  1
  C  C810  1  0.573700  0.409200  0.806500  1
  C  C811  1  0.413600  0.569500  0.159000  1
  C  C812  1  0.586400  0.430500  0.841000  1
  C  C813  1  0.460600  0.576100  0.140700  1
  C  C814  1  0.539400  0.423900  0.859300  1
  C  C815  1  0.145500  0.527100  0.160500  1
  C  C816  1  0.854500  0.472900  0.839500  1
  C  C817  1  0.204400  0.540600  0.173000  1
  C  C818  1  0.795600  0.459400  0.827000  1
  C  C819  1  0.217700  0.552200  0.206000  1
  C  C820  1  0.782300  0.447800  0.794000  1
  C  C821  1  0.168700  0.551200  0.224400  1
  C  C822  1  0.831300  0.448800  0.775600  1
  C  C823  1  0.113600  0.541600  0.210200  1
  C  C824  1  0.886400  0.458400  0.789800  1
  C  C825  1  0.348200  0.603100  0.264000  1
  C  C826  1  0.651800  0.396900  0.736000  1
  C  C827  1  0.378800  0.587800  0.214300  1
  C  C828  1  0.621200  0.412200  0.785700  1
  C  C829  1  0.281500  0.568200  0.220600  1
  C  C830  1  0.718500  0.431800  0.779400  1
  C  C831  1  0.254100  0.231300  0.422400  1
  C  C832  1  0.745900  0.768700  0.577600  1
  C  C833  1  0.242300  0.280100  0.419000  1
  C  C834  1  0.757700  0.719900  0.581000  1
  C  C835  1  0.299500  0.320800  0.424700  1
  C  C836  1  0.700500  0.679200  0.575300  1
  C  C837  1  0.354500  0.309900  0.431200  1
  C  C838  1  0.645500  0.690100  0.568800  1
  C  C839  1  0.350100  0.257500  0.431100  1
  C  C840  1  0.649900  0.742500  0.568900  1
  C  C841  1  0.320100  0.613700  0.417800  1
  C  C842  1  0.679900  0.386300  0.582200  1
  C  C843  1  0.302000  0.558200  0.417600  1
  C  C844  1  0.698000  0.441800  0.582400  1
  C  C845  1  0.339600  0.530800  0.420900  1
  C  C846  1  0.660400  0.469200  0.579100  1
  C  C847  1  0.400000  0.555000  0.422700  1
  C  C848  1  0.600000  0.445000  0.577300  1
  C  C849  1  0.419800  0.607200  0.419900  1
  C  C850  1  0.580200  0.392800  0.580100  1
  C  C851  1  0.304000  0.377100  0.422500  1
  C  C852  1  0.696000  0.622900  0.577500  1
  C  C853  1  0.271600  0.407900  0.440100  1
  C  C854  1  0.728400  0.592100  0.559900  1
  C  C855  1  0.274000  0.454600  0.439100  1
  C  C856  1  0.726000  0.545400  0.560900  1
  C  C857  1  0.323000  0.475000  0.419400  1
  C  C858  1  0.677000  0.525000  0.580600  1
  C  C859  1  0.038800  0.033600  0.116000  1
  C  C860  1  0.961200  0.966400  0.884000  1
  C  C861  1  0.039800  0.085200  0.112800  1
  C  C862  1  0.960200  0.914800  0.887200  1
  C  C863  1  0.012000  0.117200  0.134600  1
  C  C864  1  0.988000  0.882800  0.865400  1
  C  C865  1  0.978900  0.098300  0.154700  1
  C  C866  1  0.021100  0.901700  0.845300  1
  C  C867  1  0.978200  0.045900  0.155900  1
  C  C868  1  0.021800  0.954100  0.844100  1
  C  C869  1  0.034100  0.404200  0.124400  1
  C  C870  1  0.965900  0.595800  0.875600  1
  C  C871  1  0.037300  0.352800  0.119200  1
  C  C872  1  0.962700  0.647200  0.880800  1
  C  C873  1  0.019300  0.330900  0.142600  1
  C  C874  1  0.980700  0.669100  0.857400  1
  C  C875  1  0.998900  0.360500  0.169900  1
  C  C876  1  0.001100  0.639500  0.830100  1
  C  C877  1  0.995400  0.411100  0.173200  1
  C  C878  1  0.004600  0.588900  0.826800  1
  C  C879  1  0.015600  0.172700  0.133100  1
  C  C880  1  0.984400  0.827300  0.866900  1
  C  C881  1  0.997500  0.182300  0.103300  1
  C  C882  1  0.002500  0.817700  0.896700  1
  C  C883  1  0.990200  0.231800  0.104900  1
  C  C884  1  0.009800  0.768200  0.895100  1
  C  C885  1  0.015600  0.272700  0.136900  1
  C  C886  1  0.984400  0.727300  0.863100  1
  C  C887  1  0.607400  0.185400  0.198200  1
  C  C888  1  0.392600  0.814600  0.801800  1
  C  C889  1  0.612200  0.239600  0.199900  1
  C  C890  1  0.387800  0.760400  0.800100  1
  C  C891  1  0.593500  0.248700  0.174000  1
  C  C892  1  0.406500  0.751300  0.826000  1
  C  C893  1  0.570900  0.207000  0.146800  1
  C  C894  1  0.429100  0.793000  0.853200  1
  C  C895  1  0.570000  0.154600  0.146800  1
  C  C896  1  0.430000  0.845400  0.853200  1
  C  C897  1  0.619700  0.542300  0.166600  1
  C  C898  1  0.380300  0.457700  0.833400  1
  C  C899  1  0.622100  0.497200  0.176800  1
  C  C900  1  0.377900  0.502800  0.823200  1
  C  C901  1  0.591800  0.446500  0.155500  1
  C  C902  1  0.408200  0.553500  0.844500  1
  C  C903  1  0.560200  0.440700  0.128000  1
  C  C904  1  0.439800  0.559300  0.872000  1
  C  C905  1  0.558600  0.484700  0.118800  1
  C  C906  1  0.441400  0.515300  0.881200  1
  C  C907  1  0.597300  0.305100  0.173400  1
  C  C908  1  0.402700  0.694900  0.826600  1
  C  C909  1  0.648000  0.345200  0.182300  1
  C  C910  1  0.352000  0.654800  0.817700  1
  C  C911  1  0.648200  0.392600  0.178700  1
  C  C912  1  0.351800  0.607400  0.821300  1
  C  C913  1  0.595900  0.396900  0.164900  1
  C  C914  1  0.404100  0.603100  0.835100  1
  C  C915  1  0.238000  0.491100  0.460200  1
  C  C916  1  0.762000  0.508900  0.539800  1
  C  C917  1  0.225700  0.389300  0.462700  1
  C  C918  1  0.774300  0.610700  0.537300  1
  C  C919  1  0.160000  0.527300  0.469400  1
  C  C920  1  0.840000  0.472700  0.530600  1
  C  C921  1  0.219900  0.354800  0.508600  1
  C  C922  1  0.780100  0.645200  0.491400  1
  C  C923  1  0.216000  0.308000  0.522000  1
  C  C924  1  0.784000  0.692000  0.478000  1
  C  C925  1  0.120000  0.544000  0.448100  1
  C  C926  1  0.880000  0.456000  0.551900  1
  C  C927  1  0.708200  0.432700  0.183600  1
  C  C928  1  0.291800  0.567300  0.816400  1
  C  C929  1  0.706400  0.335100  0.195200  1
  C  C930  1  0.293600  0.664900  0.804800  1
  C  C931  1  0.789200  0.504900  0.223800  1
  C  C932  1  0.210800  0.495100  0.776200  1
  C  C933  1  0.772900  0.553300  0.245500  1
  C  C934  1  0.227100  0.446700  0.754500  1
  C  C935  1  0.785300  0.296700  0.183500  1
  C  C936  1  0.214700  0.703300  0.816500  1
  C  C937  1  0.841800  0.337200  0.180000  1
  C  C938  1  0.158200  0.662800  0.820000  1
  C  C939  1  0.978000  0.134900  0.072500  1
  C  C940  1  0.022000  0.865100  0.927500  1
  C  C941  1  0.954000  0.246000  0.080000  1
  C  C942  1  0.046000  0.754000  0.920000  1
  C  C943  1  0.904000  0.058100  0.042000  1
  C  C944  1  0.096000  0.941900  0.958000  1
  C  C945  1  0.840000  0.071000  0.033300  1
  C  C946  1  0.160000  0.929000  0.966700  1
  C  C947  1  0.882000  0.278000  0.065300  1
  C  C948  1  0.118000  0.722000  0.934700  1
  C  C949  1  0.819000  0.260000  0.048600  1
  C  C950  1  0.181000  0.740000  0.951400  1
  C  C951  1  0.298600  0.073400  0.464200  1
  C  C952  1  0.701400  0.926600  0.535800  1
  C  C953  1  0.349600  0.125200  0.485100  1
  C  C954  1  0.650400  0.874800  0.514900  1
  C  C955  1  0.360000  0.059300  0.420000  1
  C  C956  1  0.640000  0.940700  0.580000  1
  C  C957  1  0.250000  0.034300  0.409000  1
  C  C958  1  0.750000  0.965700  0.591000  1
  C  C959  1  0.355000  0.209700  0.492300  1
  C  C960  1  0.645000  0.790300  0.507700  1
  C  C961  1  0.263000  0.174000  0.491300  1
  C  C962  1  0.737000  0.826000  0.508700  1
  C  C963  1  0.943400  0.835100  0.128500  1
  C  C964  1  0.056600  0.164900  0.871500  1
  C  C965  1  0.923500  0.848900  0.099900  1
  C  C966  1  0.076500  0.151100  0.900100  1
  C  C967  1  0.045100  0.848700  0.124700  1
  C  C968  1  0.954900  0.151300  0.875300  1
  C  C969  1  0.010000  0.868400  0.175100  1
  C  C970  1  0.990000  0.131600  0.824900  1
  C  C971  1  0.875600  0.916200  0.128100  1
  C  C972  1  0.124400  0.083800  0.871900  1
  C  C973  1  0.921500  0.920900  0.080800  1
  C  C974  1  0.078500  0.079100  0.919200  1
  C  C975  1  0.632400  0.983200  0.162200  1
  C  C976  1  0.367600  0.016800  0.837800  1
  C  C977  1  0.669800  0.014900  0.147100  1
  C  C978  1  0.330200  0.985100  0.852900  1
  C  C979  1  0.664700  0.075900  0.120800  1
  C  C980  1  0.335300  0.924100  0.879200  1
  C  C981  1  0.708200  0.112700  0.171100  1
  C  C982  1  0.291800  0.887300  0.828900  1
  C  C983  1  0.579500  0.990500  0.204600  1
  C  C984  1  0.420500  0.009500  0.795400  1
  C  C985  1  0.527800  0.957600  0.147300  1
  C  C986  1  0.472200  0.042400  0.852700  1
  C  C987  1  0.449300  0.827300  0.441400  1
  C  C988  1  0.550700  0.172700  0.558600  1
  C  C989  1  0.413200  0.806000  0.466400  1
  C  C990  1  0.586800  0.194000  0.533600  1
  C  C991  1  0.381900  0.796000  0.398200  1
  C  C992  1  0.618100  0.204000  0.601800  1
  C  C993  1  0.474300  0.792800  0.393800  1
  C  C994  1  0.525700  0.207200  0.606200  1
  C  C995  1  0.366700  0.735300  0.478000  1
  C  C996  1  0.633300  0.264700  0.522000  1
  C  C997  1  0.464800  0.740300  0.480200  1
  C  C998  1  0.535200  0.259700  0.519800  1
  C  C999  1  0.959200  0.591300  0.153000  1
  C  C1000  1  0.040800  0.408700  0.847000  1
  C  C1001  1  0.932600  0.542500  0.127500  1
  C  C1002  1  0.067400  0.457500  0.872500  1
  C  C1003  1  0.922500  0.452700  0.102300  1
  C  C1004  1  0.077500  0.547300  0.897700  1
  C  C1005  1  0.887000  0.476200  0.154900  1
  C  C1006  1  0.113000  0.523800  0.845100  1
  C  C1007  1  0.047800  0.625600  0.189800  1
  C  C1008  1  0.952200  0.374400  0.810200  1
  C  C1009  1  0.062300  0.606100  0.139400  1
  C  C1010  1  0.937700  0.393900  0.860600  1
  C  C1011  1  0.621000  0.672500  0.093600  1
  C  C1012  1  0.379000  0.327500  0.906400  1
  C  C1013  1  0.665300  0.649300  0.092400  1
  C  C1014  1  0.334700  0.350700  0.907600  1
  C  C1015  1  0.607500  0.717200  0.146000  1
  C  C1016  1  0.392500  0.282800  0.854000  1
  C  C1017  1  0.524400  0.675100  0.108500  1
  C  C1018  1  0.475600  0.324900  0.891500  1
  C  C1019  1  0.636900  0.556700  0.069000  1
  C  C1020  1  0.363100  0.443300  0.931000  1
  C  C1021  1  0.707300  0.603100  0.115400  1
  C  C1022  1  0.292700  0.396900  0.884600  1
  C  C1023  1  0.327100  0.432200  0.169000  1
  C  C1024  1  0.672900  0.567800  0.831000  1
  C  C1025  1  0.374500  0.435100  0.155500  1
  C  C1026  1  0.625500  0.564900  0.844500  1
  C  C1027  1  0.423300  0.448900  0.175600  1
  C  C1028  1  0.576700  0.551100  0.824400  1
  C  C1029  1  0.424300  0.468100  0.211100  1
  C  C1030  1  0.575700  0.531900  0.788900  1
  C  C1031  1  0.374700  0.463600  0.224500  1
  C  C1032  1  0.625300  0.536400  0.775500  1
  C  C1033  1  0.376400  0.478700  0.260100  1
  C  C1034  1  0.623600  0.521300  0.739900  1
  C  C1035  1  0.430200  0.498000  0.280200  1
  C  C1036  1  0.569800  0.502000  0.719800  1
  C  C1037  1  0.430300  0.512500  0.313100  1
  C  C1038  1  0.569700  0.487500  0.686900  1
  C  C1039  1  0.376900  0.506900  0.324700  1
  C  C1040  1  0.623100  0.493100  0.675300  1
  C  C1041  1  0.324000  0.489300  0.307300  1
  C  C1042  1  0.676000  0.510700  0.692700  1
  C  C1043  1  0.319300  0.475800  0.273500  1
  C  C1044  1  0.680700  0.524200  0.726500  1
  C  C1045  1  0.263100  0.453600  0.251600  1
  C  C1046  1  0.736900  0.546400  0.748400  1
  C  C1047  1  0.208500  0.451200  0.266600  1
  C  C1048  1  0.791500  0.548800  0.733400  1
  C  C1049  1  0.155500  0.427500  0.244500  1
  C  C1050  1  0.844500  0.572500  0.755500  1
  C  C1051  1  0.157400  0.412400  0.213900  1
  C  C1052  1  0.842600  0.587600  0.786100  1
  C  C1053  1  0.211500  0.417400  0.201200  1
  C  C1054  1  0.788500  0.582600  0.798800  1
  C  C1055  1  0.265000  0.436900  0.218500  1
  C  C1056  1  0.735000  0.563100  0.781500  1
  C  C1057  1  0.321100  0.443200  0.204600  1
  C  C1058  1  0.678900  0.556800  0.795400  1
  C  C1059  1  0.288400  0.676500  0.171100  1
  C  C1060  1  0.711600  0.323500  0.828900  1
  C  C1061  1  0.314200  0.666900  0.142200  1
  C  C1062  1  0.685800  0.333100  0.857800  1
  C  C1063  1  0.380700  0.684800  0.145700  1
  C  C1064  1  0.619300  0.315200  0.854300  1
  C  C1065  1  0.410300  0.707000  0.175100  1
  C  C1066  1  0.589700  0.293000  0.824900  1
  C  C1067  1  0.379400  0.713700  0.204700  1
  C  C1068  1  0.620600  0.286300  0.795300  1
  C  C1069  1  0.414000  0.735400  0.236800  1
  C  C1070  1  0.586000  0.264600  0.763200  1
  C  C1071  1  0.476000  0.751500  0.241000  1
  C  C1072  1  0.524000  0.248500  0.759000  1
  C  C1073  1  0.510300  0.769700  0.271100  1
  C  C1074  1  0.489700  0.230300  0.728900  1
  C  C1075  1  0.478700  0.773100  0.298100  1
  C  C1076  1  0.521300  0.226900  0.701900  1
  C  C1077  1  0.421300  0.761500  0.296500  1
  C  C1078  1  0.578700  0.238500  0.703500  1
  C  C1079  1  0.386100  0.737000  0.263300  1
  C  C1080  1  0.613900  0.263000  0.736700  1
  C  C1081  1  0.323000  0.723300  0.260400  1
  C  C1082  1  0.677000  0.276700  0.739600  1
  C  C1083  1  0.293300  0.731100  0.288100  1
  C  C1084  1  0.706700  0.268900  0.711900  1
  C  C1085  1  0.234000  0.713800  0.282200  1
  C  C1086  1  0.766000  0.286200  0.717800  1
  C  C1087  1  0.198100  0.696100  0.257600  1
  C  C1088  1  0.801900  0.303900  0.742400  1
  C  C1089  1  0.230100  0.690100  0.230700  1
  C  C1090  1  0.769900  0.309900  0.769300  1
  C  C1091  1  0.288700  0.704900  0.229800  1
  C  C1092  1  0.711300  0.295100  0.770200  1
  C  C1093  1  0.320900  0.698100  0.200700  1
  C  C1094  1  0.679100  0.301900  0.799300  1
  C  C1095  1  0.371200  0.189200  0.191300  1
  C  C1096  1  0.628800  0.810800  0.808700  1
  C  C1097  1  0.430300  0.206900  0.199900  1
  C  C1098  1  0.569700  0.793100  0.800100  1
  C  C1099  1  0.459700  0.222900  0.229700  1
  C  C1100  1  0.540300  0.777100  0.770300  1
  C  C1101  1  0.428300  0.229900  0.256700  1
  C  C1102  1  0.571700  0.770100  0.743300  1
  C  C1103  1  0.366700  0.215000  0.251200  1
  C  C1104  1  0.633300  0.785000  0.748800  1
  C  C1105  1  0.329200  0.218900  0.277000  1
  C  C1106  1  0.670800  0.781100  0.723000  1
  C  C1107  1  0.356800  0.239900  0.307400  1
  C  C1108  1  0.643200  0.760100  0.692600  1
  C  C1109  1  0.324700  0.244200  0.334700  1
  C  C1110  1  0.675300  0.755800  0.665300  1
  C  C1111  1  0.261200  0.231300  0.326800  1
  C  C1112  1  0.738800  0.768700  0.673200  1
  C  C1113  1  0.233900  0.211700  0.298000  1
  C  C1114  1  0.766100  0.788300  0.702000  1
  C  C1115  1  0.266300  0.203600  0.270400  1
  C  C1116  1  0.733700  0.796400  0.729600  1
  C  C1117  1  0.239600  0.182400  0.238200  1
  C  C1118  1  0.760400  0.817600  0.761800  1
  C  C1119  1  0.174900  0.165900  0.230300  1
  C  C1120  1  0.825100  0.834100  0.769700  1
  C  C1121  1  0.147900  0.148700  0.199000  1
  C  C1122  1  0.852100  0.851300  0.801000  1
  C  C1123  1  0.179600  0.144400  0.175800  1
  C  C1124  1  0.820400  0.855600  0.824200  1
  C  C1125  1  0.240500  0.159500  0.180800  1
  C  C1126  1  0.759500  0.840500  0.819200  1
  C  C1127  1  0.271300  0.178100  0.213000  1
  C  C1128  1  0.728700  0.821900  0.787000  1
  C  C1129  1  0.336000  0.194400  0.217700  1
  C  C1130  1  0.664000  0.805600  0.782300  1
  C  C1131  1  0.843700  0.177900  0.746000  1
  C  C1132  1  0.156300  0.822100  0.254000  1
  C  C1133  1  0.792800  0.180300  0.759100  1
  C  C1134  1  0.207200  0.819700  0.240900  1
  C  C1135  1  0.740300  0.162500  0.740600  1
  C  C1136  1  0.259700  0.837500  0.259400  1
  C  C1137  1  0.739600  0.144700  0.706800  1
  C  C1138  1  0.260400  0.855300  0.293200  1
  C  C1139  1  0.793100  0.144400  0.696700  1
  C  C1140  1  0.206900  0.855600  0.303300  1
  C  C1141  1  0.684000  0.204800  0.886600  1
  C  C1142  1  0.316000  0.795200  0.113400  1
  C  C1143  1  0.684300  0.194800  0.854500  1
  C  C1144  1  0.315700  0.805200  0.145500  1
  C  C1145  1  0.634900  0.183400  0.835700  1
  C  C1146  1  0.365100  0.816600  0.164300  1
  C  C1147  1  0.582500  0.176900  0.848400  1
  C  C1148  1  0.417500  0.823100  0.151600  1
  C  C1149  1  0.585100  0.189200  0.881900  1
  C  C1150  1  0.414900  0.810800  0.118100  1
  C  C1151  1  0.468300  0.067000  0.674200  1
  C  C1152  1  0.531700  0.933000  0.325800  1
  C  C1153  1  0.525300  0.091700  0.692300  1
  C  C1154  1  0.474700  0.908300  0.307700  1
  C  C1155  1  0.523600  0.111800  0.728000  1
  C  C1156  1  0.476400  0.888200  0.272000  1
  C  C1157  1  0.470700  0.104200  0.738600  1
  C  C1158  1  0.529300  0.895800  0.261400  1
  C  C1159  1  0.420000  0.079300  0.718000  1
  C  C1160  1  0.580000  0.920700  0.282000  1
  C  C1161  1  0.678500  0.157700  0.754100  1
  C  C1162  1  0.321500  0.842300  0.245900  1
  C  C1163  1  0.629300  0.167100  0.797400  1
  C  C1164  1  0.370700  0.832900  0.202600  1
  C  C1165  1  0.583100  0.135000  0.749700  1
  C  C1166  1  0.416900  0.865000  0.250300  1
  C  C1167  1  0.922600  0.724400  0.760900  1
  C  C1168  1  0.077400  0.275600  0.239100  1
  C  C1169  1  0.865300  0.709500  0.766500  1
  C  C1170  1  0.134700  0.290500  0.233500  1
  C  C1171  1  0.818800  0.692800  0.743500  1
  C  C1172  1  0.181200  0.307200  0.256500  1
  C  C1173  1  0.833100  0.689900  0.712400  1
  C  C1174  1  0.166900  0.310100  0.287600  1
  C  C1175  1  0.889200  0.705700  0.705800  1
  C  C1176  1  0.110800  0.294300  0.294200  1
  C  C1177  1  0.707400  0.741500  0.876900  1
  C  C1178  1  0.292600  0.258500  0.123100  1
  C  C1179  1  0.721200  0.725300  0.846200  1
  C  C1180  1  0.278800  0.274700  0.153800  1
  C  C1181  1  0.676900  0.698400  0.821400  1
  C  C1182  1  0.323100  0.301600  0.178600  1
  C  C1183  1  0.619700  0.688200  0.828500  1
  C  C1184  1  0.380300  0.311800  0.171500  1
  C  C1185  1  0.609200  0.705700  0.861000  1
  C  C1186  1  0.390800  0.294300  0.139000  1
  C  C1187  1  0.564600  0.601600  0.652000  1
  C  C1188  1  0.435400  0.398400  0.348000  1
  C  C1189  1  0.616700  0.614500  0.674900  1
  C  C1190  1  0.383300  0.385500  0.325100  1
  C  C1191  1  0.607000  0.632800  0.708400  1
  C  C1192  1  0.393000  0.367200  0.291600  1
  C  C1193  1  0.551300  0.632300  0.715900  1
  C  C1194  1  0.448700  0.367700  0.284100  1
  C  C1195  1  0.503900  0.618800  0.691400  1
  C  C1196  1  0.496100  0.381200  0.308600  1
  C  C1197  1  0.756000  0.680500  0.750400  1
  C  C1198  1  0.244000  0.319500  0.249600  1
  C  C1199  1  0.689500  0.683800  0.787000  1
  C  C1200  1  0.310500  0.316200  0.213000  1
  C  C1201  1  0.657700  0.651500  0.732500  1
  C  C1202  1  0.342300  0.348500  0.267500  1
  C  C1203  1  0.955700  0.265400  0.714500  1
  C  C1204  1  0.044300  0.734600  0.285500  1
  C  C1205  1  0.957000  0.320200  0.714400  1
  C  C1206  1  0.043000  0.679800  0.285600  1
  C  C1207  1  0.934800  0.328700  0.687000  1
  C  C1208  1  0.065200  0.671300  0.313000  1
  C  C1209  1  0.900800  0.278600  0.660600  1
  C  C1210  1  0.099200  0.721400  0.339400  1
  C  C1211  1  0.898100  0.228200  0.664700  1
  C  C1212  1  0.101900  0.771800  0.335300  1
  C  C1213  1  0.024400  0.636500  0.733600  1
  C  C1214  1  0.975600  0.363500  0.266400  1
  C  C1215  1  0.010000  0.582100  0.727700  1
  C  C1216  1  0.990000  0.417900  0.272300  1
  C  C1217  1  0.979000  0.544700  0.696100  1
  C  C1218  1  0.021000  0.455300  0.303900  1
  C  C1219  1  0.961200  0.564700  0.672900  1
  C  C1220  1  0.038800  0.435300  0.327100  1
  C  C1221  1  0.982400  0.625000  0.682900  1
  C  C1222  1  0.017600  0.375000  0.317100  1
  C  C1223  1  0.941400  0.384300  0.686200  1
  C  C1224  1  0.058600  0.615700  0.313800  1
  C  C1225  1  0.961500  0.399100  0.659000  1
  C  C1226  1  0.038500  0.600900  0.341000  1
  C  C1227  1  0.973500  0.451400  0.662600  1
  C  C1228  1  0.026500  0.548600  0.337400  1
  C  C1229  1  0.964600  0.486000  0.690100  1
  C  C1230  1  0.035400  0.514000  0.309900  1
  C  C1231  1  0.607900  0.319100  0.949300  1
  C  C1232  1  0.392100  0.680900  0.050700  1
  C  C1233  1  0.616500  0.372300  0.946600  1
  C  C1234  1  0.383500  0.627700  0.053400  1
  C  C1235  1  0.671500  0.400600  0.948100  1
  C  C1236  1  0.328500  0.599400  0.051900  1
  C  C1237  1  0.716800  0.381600  0.951500  1
  C  C1238  1  0.283200  0.618400  0.048500  1
  C  C1239  1  0.703300  0.327200  0.951300  1
  C  C1240  1  0.296700  0.672800  0.048700  1
  C  C1241  1  0.604700  0.656200  0.933800  1
  C  C1242  1  0.395300  0.343800  0.066200  1
  C  C1243  1  0.614300  0.608300  0.935100  1
  C  C1244  1  0.385700  0.391700  0.064900  1
  C  C1245  1  0.671200  0.607200  0.943200  1
  C  C1246  1  0.328800  0.392800  0.056800  1
  C  C1247  1  0.718500  0.650100  0.947400  1
  C  C1248  1  0.281500  0.349900  0.052600  1
  C  C1249  1  0.706600  0.699500  0.944900  1
  C  C1250  1  0.293400  0.300500  0.055100  1
  C  C1251  1  0.682400  0.458100  0.948400  1
  C  C1252  1  0.317600  0.541900  0.051600  1
  C  C1253  1  0.720600  0.500600  0.969000  1
  C  C1254  1  0.279400  0.499400  0.031000  1
  C  C1255  1  0.721400  0.551900  0.968900  1
  C  C1256  1  0.278600  0.448100  0.031100  1
  C  C1257  1  0.681600  0.556500  0.945400  1
  C  C1258  1  0.318400  0.443500  0.054600  1
  C  C1259  1  0.371900  0.121800  0.633600  1
  C  C1260  1  0.628100  0.878200  0.366400  1
  C  C1261  1  0.379800  0.178100  0.635600  1
  C  C1262  1  0.620200  0.821900  0.364400  1
  C  C1263  1  0.358200  0.209500  0.660800  1
  C  C1264  1  0.641800  0.790500  0.339200  1
  C  C1265  1  0.335000  0.191200  0.684500  1
  C  C1266  1  0.665000  0.808800  0.315500  1
  C  C1267  1  0.328400  0.137700  0.682600  1
  C  C1268  1  0.671600  0.862300  0.317400  1
  C  C1269  1  0.436100  0.471700  0.617600  1
  C  C1270  1  0.563900  0.528300  0.382400  1
  C  C1271  1  0.425000  0.423500  0.623900  1
  C  C1272  1  0.575000  0.576500  0.376100  1
  C  C1273  1  0.392500  0.416400  0.648800  1
  C  C1274  1  0.607500  0.583600  0.351200  1
  C  C1275  1  0.376000  0.459500  0.666500  1
  C  C1276  1  0.624000  0.540500  0.333500  1
  C  C1277  1  0.387600  0.506000  0.657000  1
  C  C1278  1  0.612400  0.494000  0.343000  1
  C  C1279  1  0.365400  0.268200  0.660600  1
  C  C1280  1  0.634600  0.731800  0.339400  1
  C  C1281  1  0.316700  0.292100  0.666900  1
  C  C1282  1  0.683300  0.707900  0.333100  1
  C  C1283  1  0.321700  0.345700  0.663700  1
  C  C1284  1  0.678300  0.654300  0.336300  1
  C  C1285  1  0.380500  0.365300  0.654600  1
  C  C1286  1  0.619500  0.634700  0.345400  1
  C  C1287  1  0.999800  0.470000  0.635200  1
  C  C1288  1  0.000200  0.530000  0.364800  1
  C  C1289  1  0.088700  0.512200  0.615800  1
  C  C1290  1  0.911300  0.487800  0.384200  1
  C  C1291  1  0.971700  0.355300  0.629300  1
  C  C1292  1  0.028300  0.644700  0.370700  1
  C  C1293  1  0.922500  0.291800  0.572300  1
  C  C1294  1  0.077500  0.708200  0.427700  1
  C  C1295  1  0.119000  0.577200  0.632600  1
  C  C1296  1  0.881000  0.422800  0.367400  1
  C  C1297  1  0.763100  0.496300  0.996100  1
  C  C1298  1  0.236900  0.503700  0.003900  1
  C  C1299  1  0.858000  0.501300  0.023800  1
  C  C1300  1  0.142000  0.498700  0.976200  1
  C  C1301  1  0.758000  0.605500  0.996800  1
  C  C1302  1  0.242000  0.394500  0.003200  1
  C  C1303  1  0.855000  0.659900  0.021300  1
  C  C1304  1  0.145000  0.340100  0.978700  1
  C  C1305  1  0.899000  0.644000  0.044600  1
  C  C1306  1  0.101000  0.356000  0.955400  1
  C  C1307  1  0.256000  0.264000  0.674400  1
  C  C1308  1  0.744000  0.736000  0.325600  1
  C  C1309  1  0.260900  0.358000  0.658700  1
  C  C1310  1  0.739100  0.642000  0.341300  1
  C  C1311  1  0.192200  0.261200  0.716400  1
  C  C1312  1  0.807800  0.738800  0.283600  1
  C  C1313  1  0.196000  0.222000  0.736400  1
  C  C1314  1  0.804000  0.778000  0.263600  1
  C  C1315  1  0.199000  0.388100  0.637800  1
  C  C1316  1  0.801000  0.611900  0.362200  1
  C  C1317  1  0.968400  0.063000  0.691200  1
  C  C1318  1  0.031600  0.937000  0.308800  1
  C  C1319  1  0.983000  0.080300  0.661300  1
  C  C1320  1  0.017000  0.919700  0.338700  1
  C  C1321  1  0.861700  0.035000  0.667300  1
  C  C1322  1  0.138300  0.965000  0.332700  1
  C  C1323  1  0.896200  0.069300  0.729500  1
  C  C1324  1  0.103800  0.930700  0.270500  1
  C  C1325  1  0.044100  0.179500  0.692900  1
  C  C1326  1  0.955900  0.820500  0.307100  1
  C  C1327  1  0.988500  0.153500  0.641300  1
  C  C1328  1  0.011500  0.846500  0.358700  1
  C  C1329  1  0.619300  0.140400  0.981400  1
  C  C1330  1  0.380700  0.859600  0.018600  1
  C  C1331  1  0.653600  0.189300  0.003600  1
  C  C1332  1  0.346400  0.810700  0.996400  1
  C  C1333  1  0.579500  0.103400  0.923500  1
  C  C1334  1  0.420500  0.896600  0.076500  1
  C  C1335  1  0.687700  0.128000  0.940100  1
  C  C1336  1  0.312300  0.872000  0.059900  1
  C  C1337  1  0.579400  0.241700  0.007800  1
  C  C1338  1  0.420600  0.758300  0.992200  1
  C  C1339  1  0.682600  0.285200  0.017000  1
  C  C1340  1  0.317400  0.714800  0.983000  1
  C  C1341  1  0.273200  0.919800  0.639100  1
  C  C1342  1  0.726800  0.080200  0.360900  1
  C  C1343  1  0.254400  0.935500  0.614200  1
  C  C1344  1  0.745600  0.064500  0.385800  1
  C  C1345  1  0.383200  0.931600  0.638200  1
  C  C1346  1  0.616800  0.068400  0.361800  1
  C  C1347  1  0.349000  0.946700  0.687000  1
  C  C1348  1  0.651000  0.053300  0.313000  1
  C  C1349  1  0.259300  0.011800  0.598400  1
  C  C1350  1  0.740700  0.988200  0.401600  1
  C  C1351  1  0.215600  0.011900  0.645300  1
  C  C1352  1  0.784400  0.988100  0.354700  1
  C  C1353  1  0.095300  0.834900  0.730700  1
  C  C1354  1  0.904700  0.165100  0.269300  1
  C  C1355  1  0.121100  0.804900  0.709400  1
  C  C1356  1  0.878900  0.195100  0.290600  1
  C  C1357  1  0.006900  0.840300  0.757300  1
  C  C1358  1  0.993100  0.159700  0.242700  1
  C  C1359  1  0.004900  0.822900  0.698200  1
  C  C1360  1  0.995100  0.177100  0.301800  1
  C  C1361  1  0.148400  0.747300  0.735900  1
  C  C1362  1  0.851600  0.252700  0.264100  1
  C  C1363  1  0.113000  0.710200  0.679700  1
  C  C1364  1  0.887000  0.289800  0.320300  1
  C  C1365  1  0.613000  0.870500  0.952900  1
  C  C1366  1  0.387000  0.129500  0.047100  1
  C  C1367  1  0.618000  0.852700  0.978800  1
  C  C1368  1  0.382000  0.147300  0.021200  1
  C  C1369  1  0.572000  0.819600  0.898900  1
  C  C1370  1  0.428000  0.180400  0.101100  1
  C  C1371  1  0.680700  0.861700  0.910700  1
  C  C1372  1  0.319300  0.138300  0.089300  1
  C  C1373  1  0.571800  0.773100  0.986100  1
  C  C1374  1  0.428200  0.226900  0.013900  1
  C  C1375  1  0.676200  0.813300  0.999400  1
  C  C1376  1  0.323800  0.186700  0.000600  1
  C  C1377  1  0.416700  0.649100  0.590400  1
  C  C1378  1  0.583300  0.350900  0.409600  1
  C  C1379  1  0.362700  0.610700  0.586000  1
  C  C1380  1  0.637300  0.389300  0.414000  1
  C  C1381  1  0.518600  0.674900  0.614900  1
  C  C1382  1  0.481400  0.325100  0.385100  1
  C  C1383  1  0.448900  0.696100  0.647400  1
  C  C1384  1  0.551100  0.303900  0.352600  1
  C  C1385  1  0.364700  0.521700  0.564800  1
  C  C1386  1  0.635300  0.478300  0.435200  1
  C  C1387  1  0.313200  0.545100  0.608500  1
  C  C1388  1  0.686800  0.454900  0.391500  1
  C  C1389  1  0.897000  0.232000  0.576100  1
  C  C1390  1  0.103000  0.768000  0.423900  1
  C  C1391  1  0.218000  0.441300  0.625200  1
  C  C1392  1  0.782000  0.558700  0.374800  1
  N  N1393  1  0.302800  0.127600  0.381100  1
  N  N1394  1  0.697200  0.872400  0.618900  1
  N  N1395  1  0.081700  0.979100  0.169000  1
  N  N1396  1  0.918300  0.020900  0.831000  1
  N  N1397  1  0.509300  0.074900  0.192200  1
  N  N1398  1  0.490700  0.925100  0.807800  1
  N  N1399  1  0.247700  0.070400  0.260000  1
  N  N1400  1  0.752300  0.929600  0.740000  1
  N  N1401  1  0.295800  0.058200  0.214000  1
  N  N1402  1  0.704200  0.941800  0.786000  1
  N  N1403  1  0.351200  0.093700  0.266900  1
  N  N1404  1  0.648800  0.906300  0.733100  1
  N  N1405  1  0.392900  0.674000  0.367700  1
  N  N1406  1  0.607100  0.326000  0.632300  1
  N  N1407  1  0.515300  0.602500  0.153900  1
  N  N1408  1  0.484700  0.397500  0.846100  1
  N  N1409  1  0.102000  0.530700  0.178800  1
  N  N1410  1  0.898000  0.469300  0.821200  1
  N  N1411  1  0.392800  0.604800  0.246100  1
  N  N1412  1  0.607200  0.395200  0.753900  1
  N  N1413  1  0.322400  0.568800  0.199600  1
  N  N1414  1  0.677600  0.431200  0.800400  1
  N  N1415  1  0.292500  0.583600  0.252300  1
  N  N1416  1  0.707500  0.416400  0.747700  1
  N  N1417  1  0.303900  0.219200  0.428200  1
  N  N1418  1  0.696100  0.780800  0.571800  1
  N  N1419  1  0.380800  0.634800  0.418900  1
  N  N1420  1  0.619200  0.365200  0.581100  1
  N  N1421  1  0.343700  0.393800  0.406500  1
  N  N1422  1  0.656300  0.606200  0.593500  1
  N  N1423  1  0.353500  0.442100  0.404400  1
  N  N1424  1  0.646500  0.557900  0.595600  1
  N  N1425  1  0.006200  0.016500  0.136700  1
  N  N1426  1  0.993800  0.983500  0.863300  1
  N  N1427  1  0.012900  0.433600  0.150800  1
  N  N1428  1  0.987100  0.566400  0.849200  1
  N  N1429  1  0.033600  0.212600  0.160700  1
  N  N1430  1  0.966400  0.787400  0.839300  1
  N  N1431  1  0.034800  0.261800  0.162800  1
  N  N1432  1  0.965200  0.738200  0.837200  1
  N  N1433  1  0.589500  0.146500  0.172300  1
  N  N1434  1  0.410500  0.853500  0.827700  1
  N  N1435  1  0.588100  0.533600  0.137200  1
  N  N1436  1  0.411900  0.466400  0.862800  1
  N  N1437  1  0.545200  0.311800  0.161100  1
  N  N1438  1  0.454800  0.688200  0.838900  1
  N  N1439  1  0.547900  0.359900  0.158400  1
  N  N1440  1  0.452100  0.640100  0.841600  1
  N  N1441  1  0.246600  0.387300  0.488700  1
  N  N1442  1  0.753400  0.612700  0.511300  1
  N  N1443  1  0.189600  0.491100  0.449100  1
  N  N1444  1  0.810400  0.508900  0.550900  1
  N  N1445  1  0.729200  0.461000  0.213000  1
  N  N1446  1  0.270800  0.539000  0.787000  1
  N  N1447  1  0.730600  0.306600  0.172400  1
  N  N1448  1  0.269400  0.693400  0.827600  1
  N  N1449  1  0.925400  0.108300  0.067900  1
  N  N1450  1  0.074600  0.891700  0.932100  1
  N  N1451  1  0.918000  0.256200  0.084300  1
  N  N1452  1  0.082000  0.743800  0.915700  1
  N  N1453  1  0.306100  0.071300  0.429700  1
  N  N1454  1  0.693900  0.928700  0.570300  1
  N  N1455  1  0.312000  0.156900  0.476600  1
  N  N1456  1  0.688000  0.843100  0.523400  1
  N  N1457  1  0.002000  0.866700  0.142500  1
  N  N1458  1  0.998000  0.133300  0.857500  1
  N  N1459  1  0.925300  0.906500  0.111300  1
  N  N1460  1  0.074700  0.093500  0.888700  1
  N  N1461  1  0.577500  0.992800  0.170700  1
  N  N1462  1  0.422500  0.007200  0.829300  1
  N  N1463  1  0.660500  0.066600  0.151200  1
  N  N1464  1  0.339500  0.933400  0.848800  1
  N  N1465  1  0.427600  0.779700  0.413100  1
  N  N1466  1  0.572400  0.220300  0.586900  1
  N  N1467  1  0.418400  0.751700  0.462200  1
  N  N1468  1  0.581600  0.248300  0.537800  1
  N  N1469  1  0.022500  0.589600  0.160200  1
  N  N1470  1  0.977500  0.410400  0.839800  1
  N  N1471  1  0.934800  0.491700  0.133700  1
  N  N1472  1  0.065200  0.508300  0.866300  1
  N  N1473  1  0.583000  0.670700  0.118200  1
  N  N1474  1  0.417000  0.329300  0.881800  1
  N  N1475  1  0.652100  0.601100  0.098700  1
  N  N1476  1  0.347900  0.398900  0.901300  1
  N  N1477  1  0.558000  0.295500  0.086000  1
  N  N1478  1  0.442000  0.704500  0.914000  1
  N  N1479  1  0.471500  0.516800  0.043000  1
  N  N1480  1  0.528500  0.483200  0.957000  1
  N  N1481  1  0.940500  0.529000  0.241500  1
  N  N1482  1  0.059500  0.471000  0.758500  1
  N  N1483  1  0.904600  0.224500  0.183300  1
  N  N1484  1  0.095400  0.775500  0.816700  1
  N  N1485  1  0.619800  0.334000  0.283700  1
  N  N1486  1  0.380200  0.666000  0.716300  1
  N  N1487  1  0.471200  0.459000  0.452900  1
  N  N1488  1  0.528800  0.541000  0.547100  1
  N  N1489  1  0.410200  0.278600  0.577200  1
  N  N1490  1  0.589800  0.721400  0.422800  1
  N  N1491  1  0.419200  0.156400  0.821800  1
  N  N1492  1  0.580800  0.843600  0.178200  1
  N  N1493  1  0.312500  0.982000  0.310800  1
  N  N1494  1  0.687500  0.018000  0.689200  1
  N  N1495  1  0.844000  0.158700  0.714400  1
  N  N1496  1  0.156000  0.841300  0.285600  1
  N  N1497  1  0.635800  0.202300  0.901000  1
  N  N1498  1  0.364200  0.797700  0.099000  1
  N  N1499  1  0.417500  0.060000  0.685400  1
  N  N1500  1  0.582500  0.940000  0.314600  1
  N  N1501  1  0.684300  0.175500  0.787600  1
  N  N1502  1  0.315700  0.824500  0.212400  1
  N  N1503  1  0.578000  0.147600  0.780700  1
  N  N1504  1  0.422000  0.852400  0.219300  1
  N  N1505  1  0.630700  0.139000  0.734800  1
  N  N1506  1  0.369300  0.861000  0.265200  1
  N  N1507  1  0.933000  0.722900  0.729900  1
  N  N1508  1  0.067000  0.277100  0.270100  1
  N  N1509  1  0.652100  0.733100  0.884300  1
  N  N1510  1  0.347900  0.266900  0.115700  1
  N  N1511  1  0.512000  0.603900  0.658000  1
  N  N1512  1  0.488000  0.396100  0.342000  1
  N  N1513  1  0.748600  0.692600  0.782100  1
  N  N1514  1  0.251400  0.307400  0.217900  1
  N  N1515  1  0.642500  0.661800  0.764000  1
  N  N1516  1  0.357500  0.338200  0.236000  1
  N  N1517  1  0.713300  0.661100  0.725200  1
  N  N1518  1  0.286700  0.338900  0.274800  1
  N  N1519  1  0.927500  0.224200  0.690300  1
  N  N1520  1  0.072500  0.775800  0.309700  1
  N  N1521  1  0.008200  0.656000  0.711100  1
  N  N1522  1  0.991800  0.344000  0.288900  1
  N  N1523  1  0.934500  0.417900  0.712700  1
  N  N1524  1  0.065500  0.582100  0.287300  1
  N  N1525  1  0.944700  0.470700  0.715800  1
  N  N1526  1  0.055300  0.529300  0.284200  1
  N  N1527  1  0.650800  0.298600  0.951200  1
  N  N1528  1  0.349200  0.701400  0.048800  1
  N  N1529  1  0.650800  0.699400  0.938300  1
  N  N1530  1  0.349200  0.300600  0.061700  1
  N  N1531  1  0.644700  0.460900  0.925100  1
  N  N1532  1  0.355300  0.539100  0.074900  1
  N  N1533  1  0.644200  0.510600  0.924300  1
  N  N1534  1  0.355800  0.489400  0.075700  1
  N  N1535  1  0.346200  0.104500  0.657800  1
  N  N1536  1  0.653800  0.895500  0.342200  1
  N  N1537  1  0.417700  0.511300  0.634200  1
  N  N1538  1  0.582300  0.488700  0.365800  1
  N  N1539  1  0.415700  0.289600  0.654400  1
  N  N1540  1  0.584300  0.710400  0.345600  1
  N  N1541  1  0.423100  0.338100  0.651500  1
  N  N1542  1  0.576900  0.661900  0.348500  1
  N  N1543  1  0.055800  0.493200  0.640400  1
  N  N1544  1  0.944200  0.506800  0.359600  1
  N  N1545  1  0.933800  0.339800  0.606300  1
  N  N1546  1  0.066200  0.660200  0.393700  1
  N  N1547  1  0.817000  0.497600  0.990900  1
  N  N1548  1  0.183000  0.502400  0.009100  1
  N  N1549  1  0.811700  0.616400  0.993700  1
  N  N1550  1  0.188300  0.383600  0.006300  1
  N  N1551  1  0.248900  0.278300  0.702900  1
  N  N1552  1  0.751100  0.721700  0.297100  1
  N  N1553  1  0.245700  0.357200  0.635500  1
  N  N1554  1  0.754300  0.642800  0.364500  1
  N  N1555  1  0.907400  0.072400  0.695500  1
  N  N1556  1  0.092600  0.927600  0.304500  1
  N  N1557  1  0.993400  0.142000  0.672900  1
  N  N1558  1  0.006600  0.858000  0.327100  1
  N  N1559  1  0.631600  0.140400  0.947700  1
  N  N1560  1  0.368400  0.859600  0.052300  1
  N  N1561  1  0.637200  0.237900  0.998200  1
  N  N1562  1  0.362800  0.762100  0.001800  1
  N  N1563  1  0.336400  0.948000  0.654300  1
  N  N1564  1  0.663600  0.052000  0.345700  1
  N  N1565  1  0.261900  0.993500  0.624900  1
  N  N1566  1  0.738100  0.006500  0.375100  1
  N  N1567  1  0.031100  0.814500  0.726100  1
  N  N1568  1  0.968900  0.185500  0.273900  1
  N  N1569  1  0.106900  0.750700  0.710300  1
  N  N1570  1  0.893100  0.249300  0.289700  1
  N  N1571  1  0.624200  0.833500  0.922000  1
  N  N1572  1  0.375800  0.166500  0.078000  1
  N  N1573  1  0.625600  0.800900  0.977700  1
  N  N1574  1  0.374400  0.199100  0.022300  1
  N  N1575  1  0.455600  0.656100  0.620800  1
  N  N1576  1  0.544400  0.343900  0.379200  1
  N  N1577  1  0.363900  0.563200  0.594500  1
  N  N1578  1  0.636100  0.436800  0.405500  1
  O  O1579  1  0.270200  0.524600  0.486200  1
  O  O1580  1  0.729800  0.475400  0.513800  1
  O  O1581  1  0.171700  0.367800  0.447300  1
  O  O1582  1  0.828300  0.632200  0.552700  1
  O  O1583  1  0.165000  0.577000  0.438800  1
  O  O1584  1  0.835000  0.423000  0.561200  1
  O  O1585  1  0.732300  0.438800  0.159300  1
  O  O1586  1  0.267700  0.561200  0.840700  1
  O  O1587  1  0.720600  0.354400  0.225200  1
  O  O1588  1  0.279400  0.645600  0.774800  1
  O  O1589  1  0.851700  0.331200  0.145300  1
  O  O1590  1  0.148300  0.668800  0.854700  1
  O  O1591  1  0.747400  0.573800  0.227100  1
  O  O1592  1  0.252600  0.426200  0.772900  1
  O  O1593  1  0.014500  0.129300  0.055700  1
  O  O1594  1  0.985500  0.870700  0.944300  1
  O  O1595  1  0.988200  0.240700  0.061000  1
  O  O1596  1  0.011800  0.759300  0.939000  1
  O  O1597  1  0.804800  0.204500  0.039400  1
  O  O1598  1  0.195200  0.795500  0.960600  1
  O  O1599  1  0.878000  0.093200  0.015200  1
  O  O1600  1  0.122000  0.906800  0.984800  1
  O  O1601  1  0.602600  0.329200  0.092400  1
  O  O1602  1  0.397400  0.670800  0.907600  1
  O  O1603  1  0.546500  0.243700  0.083500  1
  O  O1604  1  0.453500  0.756300  0.916500  1
  O  O1605  1  0.504400  0.298000  0.082100  1
  O  O1606  1  0.495600  0.702000  0.917900  1
  O  O1607  1  0.433100  0.495600  0.017000  1
  O  O1608  1  0.566900  0.504400  0.983000  1
  O  O1609  1  0.491700  0.566600  0.055800  1
  O  O1610  1  0.508300  0.433400  0.944200  1
  O  O1611  1  0.488600  0.485600  0.053700  1
  O  O1612  1  0.511400  0.514400  0.946300  1
  O  O1613  1  0.926500  0.552200  0.268000  1
  O  O1614  1  0.073500  0.447800  0.732000  1
  O  O1615  1  0.929500  0.479900  0.232000  1
  O  O1616  1  0.070500  0.520100  0.768000  1
  O  O1617  1  0.967800  0.549900  0.221500  1
  O  O1618  1  0.032200  0.450100  0.778500  1
  O  O1619  1  0.930500  0.260400  0.205500  1
  O  O1620  1  0.069500  0.739600  0.794500  1
  O  O1621  1  0.888700  0.180600  0.190400  1
  O  O1622  1  0.111300  0.819400  0.809600  1
  O  O1623  1  0.890000  0.225200  0.156400  1
  O  O1624  1  0.110000  0.774800  0.843600  1
  O  O1625  1  0.637700  0.370100  0.309800  1
  O  O1626  1  0.362300  0.629900  0.690200  1
  O  O1627  1  0.612800  0.280800  0.279900  1
  O  O1628  1  0.387200  0.719200  0.720100  1
  O  O1629  1  0.594500  0.343200  0.257200  1
  O  O1630  1  0.405500  0.656800  0.742800  1
  O  O1631  1  0.435200  0.477200  0.470500  1
  O  O1632  1  0.564800  0.522800  0.529500  1
  O  O1633  1  0.477000  0.414300  0.450800  1
  O  O1634  1  0.523000  0.585700  0.549200  1
  O  O1635  1  0.490700  0.478800  0.433000  1
  O  O1636  1  0.509300  0.521200  0.567000  1
  O  O1637  1  0.377200  0.304800  0.566400  1
  O  O1638  1  0.622800  0.695200  0.433600  1
  O  O1639  1  0.390600  0.231400  0.575700  1
  O  O1640  1  0.609400  0.768600  0.424300  1
  O  O1641  1  0.463200  0.298600  0.580500  1
  O  O1642  1  0.536800  0.701400  0.419500  1
  O  O1643  1  0.453500  0.192600  0.811400  1
  O  O1644  1  0.546500  0.807400  0.188600  1
  O  O1645  1  0.426500  0.159600  0.850800  1
  O  O1646  1  0.573500  0.840400  0.149200  1
  O  O1647  1  0.372400  0.131200  0.804200  1
  O  O1648  1  0.627600  0.868800  0.195800  1
  O  O1649  1  0.366900  0.993400  0.303400  1
  O  O1650  1  0.633100  0.006600  0.696600  1
  O  O1651  1  0.302000  0.984900  0.338900  1
  O  O1652  1  0.698000  0.015100  0.661100  1
  O  O1653  1  0.273100  0.976000  0.289800  1
  O  O1654  1  0.726900  0.024000  0.710200  1
  O  O1655  1  0.682800  0.271000  0.105800  1
  O  O1656  1  0.317200  0.729000  0.894200  1
  O  O1657  1  0.243500  0.941900  0.228400  1
  O  O1658  1  0.756500  0.058100  0.771600  1
  O  O1659  1  0.480700  0.199700  0.934700  1
  O  O1660  1  0.519300  0.800300  0.065300  1
  O  O1661  1  0.577800  0.019800  0.747700  1
  O  O1662  1  0.422200  0.980200  0.252300  1
  O  O1663  1  0.126100  0.517800  0.702500  1
  O  O1664  1  0.873900  0.482200  0.297500  1
  O  O1665  1  0.506700  0.029300  0.092200  1
  O  O1666  1  0.493300  0.970700  0.907800  1
  O  O1667  1  0.656100  0.448300  0.264400  1
  O  O1668  1  0.343900  0.551700  0.735600  1
  O  O1669  1  0.841100  0.120500  0.814800  1
  O  O1670  1  0.158900  0.879500  0.185200  1
  O  O1671  1  0.651000  0.687500  0.019200  1
  O  O1672  1  0.349000  0.312500  0.980800  1
  O  O1673  1  0.824600  0.373300  0.268600  1
  O  O1674  1  0.175400  0.626700  0.731400  1
  O  O1675  1  0.266300  0.103900  0.836800  1
  O  O1676  1  0.733700  0.896100  0.163200  1
  O  O1677  1  0.420500  0.021700  0.588400  1
  O  O1678  1  0.579500  0.978300  0.411600  1
  O  O1679  1  0.789300  0.121700  0.871200  1
  O  O1680  1  0.210700  0.878300  0.128800  1
  O  O1681  1  0.459000  0.189300  0.437600  1
  O  O1682  1  0.541000  0.810700  0.562400  1
  O  O1683  1  0.670800  0.122500  0.249600  1
  O  O1684  1  0.329200  0.877500  0.750400  1
  O  O1685  1  0.705300  0.866300  0.097700  1
  O  O1686  1  0.294700  0.133700  0.902300  1
  O  O1687  1  0.733400  0.771100  0.062800  1
  O  O1688  1  0.266600  0.228900  0.937200  1
  O  O1689  1  0.830700  0.036400  0.122400  1
  O  O1690  1  0.169300  0.963600  0.877600  1
  O  O1691  1  0.482200  0.960100  0.711000  1
  O  O1692  1  0.517800  0.039900  0.289000  1
  O  O1693  1  0.291200  0.672700  0.531800  1
  O  O1694  1  0.708800  0.327300  0.468200  1
  O  O1695  1  0.402000  0.087900  0.549300  1
  O  O1696  1  0.598000  0.912100  0.450700  1
  O  O1697  1  0.899400  0.236400  0.826900  1
  O  O1698  1  0.100600  0.763600  0.173100  1
  O  O1699  1  0.364400  0.419100  0.504400  1
  O  O1700  1  0.635600  0.580900  0.495600  1
  O  O1701  1  0.804300  0.751600  0.109700  1
  O  O1702  1  0.195700  0.248400  0.890300  1
  O  O1703  1  0.365400  0.610700  0.504300  1
  O  O1704  1  0.634600  0.389300  0.495700  1
  O  O1705  1  0.834500  0.128800  0.109800  1
  O  O1706  1  0.165500  0.871200  0.890200  1
  O  O1707  1  0.076500  0.992000  0.687300  1
  O  O1708  1  0.923500  0.008000  0.312700  1
  O  O1709  1  0.995000  0.212600  0.768800  1
  O  O1710  1  0.005000  0.787400  0.231200  1
  O  O1711  1  0.649000  0.065100  0.851000  1
  O  O1712  1  0.351000  0.934900  0.149000  1
  O  O1713  1  0.077200  0.925500  0.071400  1
  O  O1714  1  0.922800  0.074500  0.928600  1
  O  O1715  1  0.566600  0.581000  0.263400  1
  O  O1716  1  0.433400  0.419000  0.736600  1
  O  O1717  1  0.927400  0.777200  0.212100  1
  O  O1718  1  0.072600  0.222800  0.787900  1
  O  O1719  1  0.539500  0.956300  0.655000  1
  O  O1720  1  0.460500  0.043700  0.345000  1
  O  O1721  1  0.662000  0.167800  0.084400  1
  O  O1722  1  0.338000  0.832200  0.915600  1
  O  O1723  1  0.759400  0.945200  0.071100  1
  O  O1724  1  0.240600  0.054800  0.928900  1
  O  O1725  1  0.271900  0.059800  0.729300  1
  O  O1726  1  0.728100  0.940200  0.270700  1
  O  O1727  1  0.789900  0.251800  0.964600  1
  O  O1728  1  0.210100  0.748200  0.035400  1
  O  O1729  1  0.092000  0.091000  0.308200  1
  O  O1730  1  0.908000  0.909000  0.691800  1
  O  O1731  1  0.438800  0.060100  0.942100  1
  O  O1732  1  0.561200  0.939900  0.057900  1
  O  O1733  1  0.629400  0.080200  0.635300  1
  O  O1734  1  0.370600  0.919800  0.364700  1
  O  O1735  1  0.576400  0.500800  0.249700  1
  O  O1736  1  0.423600  0.499200  0.750300  1
  O  O1737  1  0.116000  0.126900  0.776600  1
  O  O1738  1  0.884000  0.873100  0.223400  1
  O  O1739  1  0.142200  0.326500  0.887000  1
  O  O1740  1  0.857800  0.673500  0.113000  1
  O  O1741  1  0.775000  0.359000  0.110500  1
  O  O1742  1  0.225000  0.641000  0.889500  1
  O  O1743  1  0.065900  0.024100  0.789500  1
  O  O1744  1  0.934100  0.975900  0.210500  1
  O  O1745  1  0.193500  0.393300  0.107000  1
  O  O1746  1  0.806500  0.606700  0.893000  1
  O  O1747  1  0.770500  0.371500  0.321500  1
  O  O1748  1  0.229500  0.628500  0.678500  1
  O  O1749  1  0.528400  0.405500  0.506800  1
  O  O1750  1  0.471600  0.594500  0.493200  1
  O  O1751  1  0.787300  0.376900  0.432300  1
  O  O1752  1  0.212700  0.623100  0.567700  1
  O  O1753  1  0.185700  0.201200  0.972900  1
  O  O1754  1  0.814300  0.798800  0.027100  1
  O  O1755  1  0.063300  0.480900  0.076000  1
  O  O1756  1  0.936700  0.519100  0.924000  1
  O  O1757  1  0.212900  0.176600  0.827500  1
  O  O1758  1  0.787100  0.823400  0.172500  1
  O  O1759  1  0.763600  0.494000  0.314800  1
  O  O1760  1  0.236400  0.506000  0.685200  1
  O  O1761  1  0.822000  0.010200  0.194600  1
  O  O1762  1  0.178000  0.989800  0.805400  1
  O  O1763  1  0.342200  0.284300  0.778400  1
  O  O1764  1  0.657800  0.715700  0.221600  1
  O  O1765  1  0.783400  0.391600  0.056800  1
  O  O1766  1  0.216600  0.608400  0.943200  1
  O  O1767  1  0.839100  0.100200  0.611800  1
  O  O1768  1  0.160900  0.899800  0.388200  1
  O  O1769  1  0.742700  0.283000  0.587000  1
  O  O1770  1  0.257300  0.717000  0.413000  1
  O  O1771  1  0.636000  0.208000  0.370300  1
  O  O1772  1  0.364000  0.792000  0.629700  1
  O  O1773  1  0.313000  0.014000  0.111300  1
  O  O1774  1  0.687000  0.986000  0.888700  1
  O  O1775  1  0.350600  0.184500  0.762800  1
  O  O1776  1  0.649400  0.815500  0.237200  1
  O  O1777  1  0.157800  0.088600  0.714500  1
  O  O1778  1  0.842200  0.911400  0.285500  1
  O  O1779  1  0.512000  0.155000  0.359700  1
  O  O1780  1  0.488000  0.845000  0.640300  1
  O  O1781  1  0.458600  0.065300  0.494900  1
  O  O1782  1  0.541400  0.934700  0.505100  1
  O  O1783  1  0.855800  0.078400  0.313000  1
  O  O1784  1  0.144200  0.921600  0.687000  1
  O  O1785  1  0.202200  0.177200  0.055800  1
  O  O1786  1  0.797800  0.822800  0.944200  1
  O  O1787  1  0.968200  0.458700  0.610600  1
  O  O1788  1  0.031800  0.541300  0.389400  1
  O  O1789  1  0.017400  0.342800  0.630100  1
  O  O1790  1  0.982600  0.657200  0.369900  1
  O  O1791  1  0.736500  0.491700  0.023100  1
  O  O1792  1  0.263500  0.508300  0.976900  1
  O  O1793  1  0.726800  0.622000  0.016500  1
  O  O1794  1  0.273200  0.378000  0.983500  1
  O  O1795  1  0.261400  0.377900  0.684100  1
  O  O1796  1  0.738600  0.622100  0.315900  1
  O  O1797  1  0.227700  0.229400  0.648800  1
  O  O1798  1  0.772300  0.770600  0.351200  1
  O  O1799  1  0.413200  0.147700  0.923800  1
  O  O1800  1  0.586800  0.852300  0.076200  1
