
#######################################################################
#
#                 Cambridge Crystallographic Data Centre
#                                CCDC 
#
#######################################################################
#
# If this CIF has been generated from an entry in the Cambridge 
# Structural Database, then it will include bibliographic, chemical, 
# crystal, experimental, refinement or atomic coordinate data resulting 
# from the CCDC's data processing and validation procedures.
#
#######################################################################

data_LOXQEW
_chemical_formula_moiety         
'C132 H180 N42 O12 Pd6 12+,1.5(C18 H12),12(N1 O3 1-),30(H2 O1)'
_chemical_name_systematic        
"tris(\m-N,N'-bis(2-hydroxyethyl)-3,6-di(pyridin-4-yl)pyridazine-4,5-dicarboxamide)-bis(\m-2,4,6-tri(pyridin-4-yl)-1,3,5-triazine)-hexakis(N,N,N',N'-tetramethylethane-1,2-diamine)-hexa-palladium dodecanitrate sesquikis(triphenylene) triacontahydrate"
_symmetry_cell_setting           triclinic
_symmetry_space_group_name_H-M   'P -1'
_symmetry_Int_Tables_number      2
_space_group_name_Hall           '-P 1'
loop_
_symmetry_equiv_pos_site_id
_symmetry_equiv_pos_as_xyz
1 x,y,z
2 -x,-y,-z
_cell_length_a                   23.379(3)
_cell_length_b                   27.150(3)
_cell_length_c                   43.649(5)
_cell_angle_alpha                107.7170(10)
_cell_angle_beta                 92.383(2)
_cell_angle_gamma                103.950(2)
_cell_volume                     25414.6
_exptl_crystal_colour            yellow
_exptl_crystal_description       needle
_cell_formula_units_Z            4
loop_
_atom_site_label
_atom_site_type_symbol
_atom_site_fract_x
_atom_site_fract_y
_atom_site_fract_z
Pd7 Pd 0.30493(13) 0.14717(11) 0.42877(6)
Pd8 Pd 0.00335(10) -0.05701(9) 0.14009(6)
Pd9 Pd 0.58502(9) 0.07064(8) 0.17228(5)
Pd10 Pd 0.40605(11) 0.71017(10) 0.41486(5)
Pd11 Pd 0.01780(9) 0.51202(8) 0.15717(5)
Pd12 Pd 0.58385(8) 0.60177(8) 0.12679(5)
N43 N 0.3028(10) 0.1276(8) 0.3811(5)
N44 N 0.0817(8) -0.0209(7) 0.1690(4)
N45 N 0.5093(8) 0.0749(7) 0.1922(5)
N46 N 0.2477(8) 0.0704(7) 0.2600(4)
N47 N 0.2958(8) 0.0582(7) 0.2140(4)
N48 N 0.3512(8) 0.0937(7) 0.2669(4)
C132 C 0.2517(14) 0.1111(11) 0.3626(7)
H155 H 0.2161 0.1075 0.3725
C133 C 0.2473(12) 0.0977(11) 0.3264(7)
H156 H 0.2101 0.0853 0.3132
C134 C 0.3028(11) 0.1046(9) 0.3129(6)
C135 C 0.3539(12) 0.1202(9) 0.3322(6)
H157 H 0.3907 0.1233 0.3235
C136 C 0.3522(14) 0.1325(12) 0.3670(7)
H158 H 0.3890 0.1448 0.3806
C137 C 0.0854(11) -0.0001(9) 0.2015(6)
H159 H 0.0498 -0.0037 0.2113
C138 C 0.1371(11) 0.0253(10) 0.2206(6)
H160 H 0.1370 0.0402 0.2433
C139 C 0.1910(10) 0.0305(9) 0.2079(5)
C140 C 0.1868(10) 0.0079(9) 0.1740(5)
H161 H 0.2219 0.0089 0.1638
C141 C 0.1335(11) -0.0151(10) 0.1561(6)
H162 H 0.1322 -0.0279 0.1332
C142 C 0.5085(11) 0.0919(9) 0.2241(6)
H163 H 0.5450 0.1017 0.2376
C143 C 0.4575(9) 0.0963(8) 0.2388(5)
H164 H 0.4597 0.1108 0.2617
C144 C 0.4062(9) 0.0799(8) 0.2204(5)
C145 C 0.4042(10) 0.0625(8) 0.1867(5)
H165 H 0.3680 0.0521 0.1728
C146 C 0.4571(9) 0.0613(8) 0.1749(5)
H166 H 0.4562 0.0494 0.1520
C147 C 0.3006(10) 0.0895(9) 0.2781(5)
C148 C 0.2460(9) 0.0540(8) 0.2286(5)
C149 C 0.3459(10) 0.0784(8) 0.2345(5)
N49 N 0.3929(9) 0.6740(8) 0.3677(5)
N50 N 0.5153(8) 0.6025(7) 0.1539(4)
N51 N 0.1020(8) 0.5307(7) 0.1788(4)
N52 N 0.3928(8) 0.6048(7) 0.2461(4)
N53 N 0.3224(8) 0.5688(7) 0.1996(4)
N54 N 0.2925(8) 0.5836(7) 0.2523(4)
C150 C 0.4338(11) 0.6637(9) 0.3482(6)
H167 H 0.4738 0.6742 0.3581
C151 C 0.4236(10) 0.6392(8) 0.3149(5)
H168 H 0.4555 0.6326 0.3029
C152 C 0.3640(10) 0.6239(9) 0.2986(5)
C153 C 0.3186(11) 0.6340(10) 0.3183(6)
H169 H 0.2783 0.6234 0.3091
C154 C 0.3347(13) 0.6602(11) 0.3521(7)
H170 H 0.3044 0.6690 0.3649
C155 C 0.5264(10) 0.6242(9) 0.1862(5)
H171 H 0.5657 0.6437 0.1959
C156 C 0.4834(10) 0.6189(9) 0.2051(6)
H172 H 0.4933 0.6357 0.2279
C157 C 0.4263(10) 0.5908(9) 0.1935(5)
C158 C 0.4136(10) 0.5695(8) 0.1590(5)
H173 H 0.3743 0.5513 0.1488
C159 C 0.4606(10) 0.5761(9) 0.1407(6)
H174 H 0.4529 0.5609 0.1178
C160 C 0.1455(10) 0.5271(8) 0.1605(6)
H175 H 0.1357 0.5147 0.1376
C161 C 0.2044(11) 0.5406(9) 0.1730(6)
H176 H 0.2349 0.5419 0.1593
C162 C 0.2177(10) 0.5522(9) 0.2060(5)
C163 C 0.1687(11) 0.5512(10) 0.2244(6)
H177 H 0.1753 0.5574 0.2471
C164 C 0.1136(10) 0.5416(9) 0.2102(6)
H178 H 0.0820 0.5426 0.2232
C165 C 0.3482(10) 0.6031(9) 0.2640(5)
C166 C 0.3788(10) 0.5878(9) 0.2143(6)
C167 C 0.2815(10) 0.5682(9) 0.2206(6)
N55 N 0.3039(11) 0.2192(10) 0.4282(5)
N56 N 0.3808(10) 0.6348(9) 0.4189(5)
N57 N 0.3437(11) 0.3938(10) 0.4065(6)
N58 N 0.3535(10) 0.4421(10) 0.4044(5)
C168 C 0.2541(14) 0.2313(12) 0.4224(7)
H179 H 0.2193 0.2030 0.4199
C169 C 0.2423(14) 0.2801(12) 0.4190(7)
H180 H 0.2044 0.2847 0.4140
C170 C 0.2995(14) 0.3208(12) 0.4247(7)
C171 C 0.3545(14) 0.3099(12) 0.4312(7)
H181 H 0.3914 0.3363 0.4354
C172 C 0.3501(15) 0.2575(13) 0.4311(7)
H182 H 0.3869 0.2492 0.4336
C173 C 0.3201(15) 0.6137(13) 0.4178(7)
H183 H 0.2923 0.6339 0.4172
C174 C 0.3020(13) 0.5582(11) 0.4176(6)
H184 H 0.2608 0.5410 0.4149
C175 C 0.3396(13) 0.5308(12) 0.4209(7)
C176 C 0.4000(13) 0.5550(12) 0.4227(7)
H185 H 0.4283 0.5365 0.4259
C177 C 0.4198(14) 0.6072(12) 0.4199(7)
H186 H 0.4606 0.6220 0.4187
C178 C 0.3040(13) 0.3771(12) 0.4225(7)
C179 C 0.2716(13) 0.4079(12) 0.4401(7)
C180 C 0.2740(15) 0.4546(14) 0.4391(8)
C181 C 0.3230(15) 0.4750(14) 0.4194(8)
N59 N 0.0062(8) 0.0165(8) 0.1367(5)
N60 N 0.0129(8) 0.4336(7) 0.1508(5)
N61 N 0.0336(10) 0.2126(9) 0.1607(5)
N62 N 0.0348(9) 0.2618(9) 0.1628(5)
C182 C 0.0388(11) 0.0336(10) 0.1160(6)
H187 H 0.0613 0.0121 0.1033
C183 C 0.0398(13) 0.0852(12) 0.1128(7)
H188 H 0.0588 0.0966 0.0964
C184 C 0.0120(10) 0.1172(9) 0.1346(6)
C185 C -0.0211(12) 0.0983(11) 0.1547(6)
H189 H -0.0438 0.1190 0.1679
C186 C -0.0218(13) 0.0459(12) 0.1559(7)
H190 H -0.0431 0.0328 0.1711
C187 C 0.0341(10) 0.4042(10) 0.1244(6)
H191 H 0.0474 0.4208 0.1088
C188 C 0.0373(12) 0.3528(12) 0.1192(7)
H192 H 0.0513 0.3334 0.1003
C189 C 0.0193(12) 0.3309(11) 0.1426(7)
C190 C -0.0011(11) 0.3605(10) 0.1699(6)
H193 H -0.0127 0.3452 0.1863
C191 C -0.0046(11) 0.4111(10) 0.1732(6)
H194 H -0.0196 0.4305 0.1916
C192 C 0.0156(11) 0.1727(11) 0.1331(7)
C193 C -0.0025(11) 0.1823(11) 0.1033(6)
C194 C -0.0098(13) 0.2318(12) 0.1049(7)
C195 C 0.0156(11) 0.2727(10) 0.1369(6)
N63 N 0.5895(7) 0.1465(7) 0.1723(4)
N64 N 0.5881(8) 0.5336(7) 0.1372(4)
N65 N 0.5452(8) 0.3118(7) 0.1611(4)
N66 N 0.5479(8) 0.3599(8) 0.1584(4)
C196 C 0.6074(10) 0.1854(9) 0.1982(6)
H195 H 0.6182 0.1783 0.2174
C197 C 0.6122(10) 0.2396(10) 0.1999(6)
H196 H 0.6286 0.2684 0.2193
C198 C 0.5935(9) 0.2487(8) 0.1740(5)
C199 C 0.5709(10) 0.2070(10) 0.1468(6)
H197 H 0.5558 0.2125 0.1279
C200 C 0.5700(9) 0.1546(9) 0.1468(6)
H198 H 0.5547 0.1250 0.1276
C201 C 0.6197(10) 0.5423(9) 0.1666(5)
H199 H 0.6395 0.5777 0.1800
C202 C 0.6221(11) 0.4972(10) 0.1768(6)
H200 H 0.6433 0.5016 0.1969
C203 C 0.5918(10) 0.4465(10) 0.1555(6)
C204 C 0.5602(11) 0.4407(10) 0.1280(6)
H201 H 0.5384 0.4059 0.1145
C205 C 0.5586(10) 0.4847(9) 0.1188(6)
H202 H 0.5360 0.4798 0.0990
C206 C 0.5973(10) 0.3051(9) 0.1734(5)
C207 C 0.6480(10) 0.3452(9) 0.1823(5)
C208 C 0.6482(9) 0.3926(8) 0.1787(5)
C209 C 0.5959(10) 0.3969(9) 0.1649(5)
O7 O 0.2702(12) 0.5246(11) 0.4862(7)
N67 N 0.2466(14) 0.3873(12) 0.4887(8)
H203 H 0.2827 0.4082 0.4963
C210 C 0.238(2) 0.4911(17) 0.4602(11)
C211 C 0.2257(19) 0.3893(16) 0.4627(11)
C212 C 0.160(2) 0.5273(19) 0.4694(11)
H204 H 0.1902 0.5594 0.4838
H205 H 0.1363 0.5095 0.4831
N68 N 0.1896(18) 0.4911(15) 0.4491(9)
H206 H 0.1732 0.4701 0.4295
O8 O 0.1717(12) 0.3678(10) 0.4473(6)
C213 C 0.2199(19) 0.3548(17) 0.5086(10)
H207 H 0.1777 0.3463 0.4997
H208 H 0.2238 0.3841 0.5294
C214 C 0.216(2) 0.308(2) 0.5220(13)
C215 C 0.120(2) 0.544(2) 0.4481(13)
H209 H 0.0971 0.5132 0.4295
H210 H 0.0934 0.5632 0.4605
O9 O 0.165(2) 0.577(2) 0.4388(12)
H211 H 0.1883 0.5599 0.4293
N69 N 0.7292(9) 0.4610(8) 0.2130(5)
H212 H 0.7079 0.4550 0.2283
N70 N 0.7306(8) 0.3066(7) 0.1724(5)
H213 H 0.7152 0.2943 0.1519
C216 C 0.7082(11) 0.4327(10) 0.1836(6)
C217 C 0.7064(11) 0.3351(10) 0.1952(7)
C218 C 0.7892(13) 0.5049(11) 0.2238(7)
H214 H 0.8179 0.4939 0.2358
H215 H 0.8066 0.5125 0.2049
C219 C 0.7729(16) 0.5533(12) 0.2455(8)
H216 H 0.7454 0.5425 0.2604
H217 H 0.8090 0.5801 0.2586
C220 C 0.7853(12) 0.2967(12) 0.1835(7)
H218 H 0.7863 0.2599 0.1709
H219 H 0.7852 0.2989 0.2066
C221 C 0.8418(14) 0.3372(13) 0.1800(7)
H220 H 0.8388 0.3741 0.1908
H221 H 0.8768 0.3326 0.1912
O10 O 0.7323(8) 0.4388(7) 0.1593(4)
O11 O 0.7206(8) 0.3544(7) 0.2252(5)
O12 O 0.8517(11) 0.3312(10) 0.1453(6)
H222 H 0.8529 0.2996 0.1357
O13 O 0.7474(11) 0.5738(10) 0.2271(6)
H223 H 0.7377 0.6007 0.2388
N71 N -0.0746(18) 0.1083(16) 0.0679(9)
H224 H -0.0994 0.1204 0.0810
C222 C -0.022(2) 0.1349(19) 0.0725(11)
C223 C -0.046(3) 0.246(3) 0.0800(14)
C224 C -0.096(2) 0.0581(18) 0.0420(12)
H225 H -0.1020 0.0265 0.0495
H226 H -0.0717 0.0545 0.0239
C225 C -0.160(2) 0.071(2) 0.0333(14)
H227 H -0.1928 0.0397 0.0210
H228 H -0.1728 0.0969 0.0512
C226 C -0.118(2) 0.278(2) 0.0653(13)
H229 H -0.1157 0.3143 0.0803
H230 H -0.0940 0.2837 0.0481
C227 C -0.181(2) 0.2600(16) 0.0486(13)
H231 H -0.2079 0.2744 0.0634
H232 H -0.1827 0.2719 0.0294
O14 O 0.0145(11) 0.1293(10) 0.0557(6)
O15 O -0.0118(17) 0.2407(15) 0.0610(9)
O16 O -0.1952(15) 0.2045(15) 0.0394(9)
H233 H -0.1732 0.1929 0.0258
O17 O -0.122(2) 0.0932(19) 0.0152(11)
H234 H -0.0964 0.1202 0.0275
N72 N -0.082(2) 0.2562(19) 0.0843(11)
H235 H -0.0952 0.2523 0.1021
N73 N 0.3061(15) 0.0713(13) 0.4297(8)
N74 N 0.3120(15) 0.1569(16) 0.4766(9)
N75 N 0.0020(10) -0.1333(9) 0.1425(6)
N76 N -0.0747(10) -0.0935(10) 0.1113(6)
N77 N 0.5775(9) -0.0072(8) 0.1707(5)
N78 N 0.6605(10) 0.0666(9) 0.1512(5)
N79 N 0.4276(12) 0.7797(11) 0.4131(7)
N80 N 0.4184(15) 0.7517(12) 0.4622(8)
N81 N 0.0225(12) 0.5896(10) 0.1602(6)
N82 N -0.0652(11) 0.4917(10) 0.1337(6)
N83 N 0.5830(9) 0.6707(7) 0.1182(5)
N84 N 0.6521(9) 0.6011(8) 0.0987(5)
C228 C 0.2986(17) 0.0734(15) 0.4642(10)
H236 H 0.3041 0.0406 0.4680
H237 H 0.2588 0.0774 0.4694
C229 C 0.3496(18) 0.1252(13) 0.4851(11)
H238 H 0.3552 0.1296 0.5085
H239 H 0.3880 0.1291 0.4760
C230 C 0.3600(17) 0.0593(15) 0.4200(9)
H240 H 0.3647 0.0623 0.3984
H241 H 0.3587 0.0227 0.4194
H242 H 0.3936 0.0847 0.4355
C231 C 0.250(2) 0.0343(18) 0.4090(11)
H243 H 0.2161 0.0479 0.4163
H244 H 0.2447 -0.0016 0.4108
H245 H 0.2529 0.0324 0.3864
C232 C 0.355(2) 0.2097(13) 0.4923(15)
H246 H 0.3944 0.2081 0.4863
H247 H 0.3559 0.2192 0.5159
H248 H 0.3425 0.2369 0.4851
C233 C 0.263(2) 0.174(2) 0.4913(12)
H249 H 0.2276 0.1435 0.4861
H250 H 0.2540 0.2016 0.4828
H251 H 0.2731 0.1895 0.5149
C234 C -0.0566(13) -0.1649(12) 0.1285(7)
H252 H -0.0842 -0.1586 0.1450
H253 H -0.0575 -0.2033 0.1217
C235 C -0.0765(15) -0.1511(13) 0.0999(8)
H254 H -0.0498 -0.1581 0.0830
H255 H -0.1173 -0.1731 0.0905
C236 C 0.0451(12) -0.1513(11) 0.1247(7)
H256 H 0.0374 -0.1517 0.1023
H257 H 0.0439 -0.1876 0.1247
H258 H 0.0843 -0.1272 0.1344
C237 C 0.0100(14) -0.1316(13) 0.1751(8)
H259 H 0.0502 -0.1100 0.1850
H260 H 0.0046 -0.1681 0.1759
H261 H -0.0191 -0.1156 0.1870
C238 C -0.1244(14) -0.0838(15) 0.1281(8)
H262 H -0.1219 -0.0454 0.1349
H263 H -0.1239 -0.0956 0.1472
H264 H -0.1614 -0.1039 0.1136
C239 C -0.0785(18) -0.0791(16) 0.0808(10)
H265 H -0.0448 -0.0858 0.0691
H266 H -0.0774 -0.0410 0.0864
H267 H -0.1157 -0.1010 0.0671
C240 C 0.6324(12) -0.0168(11) 0.1622(7)
H268 H 0.6558 -0.0144 0.1824
H269 H 0.6238 -0.0545 0.1479
C241 C 0.6698(14) 0.0149(12) 0.1471(8)
H270 H 0.6646 -0.0050 0.1236
H271 H 0.7115 0.0200 0.1556
C242 C 0.6647(14) 0.0759(12) 0.1208(7)
H272 H 0.6612 0.1121 0.1231
H273 H 0.6328 0.0495 0.1046
H274 H 0.7032 0.0726 0.1136
C243 C 0.7082(18) 0.1127(16) 0.1711(11)
H275 H 0.6997 0.1460 0.1704
H276 H 0.7460 0.1103 0.1627
H277 H 0.7108 0.1127 0.1936
C244 C 0.5795(15) -0.0095(14) 0.2046(8)
H278 H 0.6154 0.0166 0.2178
H279 H 0.5802 -0.0456 0.2042
H280 H 0.5443 -0.0010 0.2140
C245 C 0.5278(13) -0.0424(12) 0.1473(7)
H281 H 0.4911 -0.0337 0.1541
H282 H 0.5253 -0.0797 0.1457
H283 H 0.5335 -0.0378 0.1261
C246 C 0.4493(16) 0.8273(13) 0.4414(7)
H284 H 0.4387 0.8589 0.4385
H285 H 0.4927 0.8359 0.4473
C247 C 0.4132(17) 0.8060(12) 0.4664(9)
H286 H 0.4293 0.8298 0.4887
H287 H 0.3710 0.8053 0.4625
C248 C 0.3819(15) 0.7960(15) 0.3982(9)
H288 H 0.3670 0.7702 0.3765
H289 H 0.3987 0.8317 0.3965
H290 H 0.3492 0.7971 0.4115
C249 C 0.4743(15) 0.7928(16) 0.3938(9)
H291 H 0.4674 0.7642 0.3729
H292 H 0.5128 0.7963 0.4053
H293 H 0.4742 0.8267 0.3903
C250 C 0.3667(15) 0.7353(12) 0.4780(8)
H294 H 0.3605 0.6976 0.4764
H295 H 0.3316 0.7398 0.4673
H296 H 0.3734 0.7576 0.5009
C251 C 0.4648(17) 0.7403(17) 0.4802(10)
H297 H 0.4586 0.7014 0.4742
H298 H 0.4631 0.7552 0.5035
H299 H 0.5037 0.7566 0.4750
C252 C -0.0408(13) 0.5913(12) 0.1530(7)
H300 H -0.0619 0.5933 0.1724
H301 H -0.0417 0.6227 0.1462
C253 C -0.0674(14) 0.5425(10) 0.1275(7)
H302 H -0.0476 0.5437 0.1080
H303 H -0.1095 0.5409 0.1223
C254 C -0.0775(15) 0.4527(14) 0.1023(8)
H304 H -0.0806 0.4171 0.1042
H305 H -0.0454 0.4612 0.0895
H306 H -0.1151 0.4528 0.0915
C255 C -0.1130(14) 0.4762(13) 0.1549(8)
H307 H -0.1058 0.5045 0.1760
H308 H -0.1110 0.4424 0.1581
H309 H -0.1524 0.4718 0.1442
C256 C 0.0478(16) 0.6256(15) 0.1898(9)
H310 H 0.0887 0.6239 0.1939
H311 H 0.0249 0.6168 0.2066
H312 H 0.0479 0.6618 0.1900
C257 C 0.0623(17) 0.6061(16) 0.1394(9)
H313 H 0.0495 0.5818 0.1172
H314 H 0.1023 0.6052 0.1465
H315 H 0.0628 0.6427 0.1403
C258 C 0.6210(16) 0.6725(14) 0.0936(8)
H316 H 0.5958 0.6560 0.0724
H317 H 0.6385 0.7107 0.0960
C259 C 0.6653(15) 0.6493(14) 0.0924(8)
H318 H 0.6992 0.6745 0.1082
H319 H 0.6784 0.6431 0.0706
C260 C 0.6075(14) 0.7172(11) 0.1460(7)
H320 H 0.5818 0.7169 0.1632
H321 H 0.6100 0.7496 0.1400
H322 H 0.6473 0.7168 0.1538
C261 C 0.5244(14) 0.6751(13) 0.1085(8)
H323 H 0.5061 0.6455 0.0886
H324 H 0.5285 0.7093 0.1045
H325 H 0.4994 0.6734 0.1258
C262 C 0.6369(15) 0.5567(11) 0.0690(7)
H326 H 0.6274 0.5230 0.0740
H327 H 0.6705 0.5581 0.0564
H328 H 0.6023 0.5588 0.0565
C263 C 0.7073(17) 0.6031(16) 0.1154(10)
H329 H 0.7033 0.5702 0.1210
H330 H 0.7176 0.6342 0.1353
H331 H 0.7388 0.6065 0.1015
C264 C 0.3271(15) 0.4322(12) 0.1690(8)
H332 H 0.2911 0.4217 0.1549
C265 C 0.3745(13) 0.4351(11) 0.1555(8)
H333 H 0.3745 0.4279 0.1328
C266 C 0.4233(17) 0.4489(13) 0.1756(9)
H334 H 0.4595 0.4465 0.1669
C267 C 0.4243(12) 0.4681(10) 0.2111(7)
H335 H 0.4613 0.4838 0.2246
C268 C 0.3747(11) 0.4636(9) 0.2245(6)
C269 C 0.3764(12) 0.4787(10) 0.2601(6)
C270 C 0.4302(12) 0.4980(10) 0.2802(6)
H336 H 0.4667 0.5012 0.2711
C271 C 0.4303(14) 0.5125(12) 0.3131(8)
H337 H 0.4665 0.5260 0.3273
C272 C 0.3769(14) 0.5069(12) 0.3247(8)
H338 H 0.3776 0.5166 0.3476
C273 C 0.3240(13) 0.4893(10) 0.3073(7)
H339 H 0.2891 0.4858 0.3177
C274 C 0.3193(11) 0.4758(10) 0.2735(6)
C275 C 0.2631(12) 0.4536(11) 0.2516(7)
C276 C 0.2085(14) 0.4512(12) 0.2666(8)
H340 H 0.2083 0.4645 0.2894
C277 C 0.1555(15) 0.4275(12) 0.2445(8)
H341 H 0.1181 0.4227 0.2525
C278 C 0.1574(16) 0.4124(13) 0.2139(9)
H342 H 0.1214 0.3976 0.1995
C279 C 0.2115(15) 0.4174(13) 0.2012(9)
H343 H 0.2101 0.4060 0.1783
C280 C 0.2650(11) 0.4369(10) 0.2185(6)
C281 C 0.3211(12) 0.4432(11) 0.2046(7)
C282 C 0.2884(14) 0.6765(12) 0.1711(7)
H344 H 0.2463 0.6674 0.1698
C283 C 0.3142(14) 0.6669(12) 0.1422(8)
H345 H 0.2910 0.6499 0.1216
C284 C 0.3807(13) 0.6848(11) 0.1457(8)
H346 H 0.4012 0.6803 0.1271
C285 C 0.4103(14) 0.7070(12) 0.1751(7)
H347 H 0.4524 0.7191 0.1775
C286 C 0.3794(13) 0.7137(11) 0.2047(7)
C287 C 0.4140(12) 0.7354(10) 0.2368(6)
C288 C 0.4760(13) 0.7515(11) 0.2410(7)
H348 H 0.4958 0.7500 0.2223
C289 C 0.5103(14) 0.7697(12) 0.2711(7)
H349 H 0.5525 0.7793 0.2732
C290 C 0.4787(13) 0.7731(11) 0.2981(7)
H350 H 0.5010 0.7847 0.3189
C291 C 0.4213(13) 0.7615(11) 0.2965(7)
H351 H 0.4022 0.7681 0.3155
C292 C 0.3861(12) 0.7370(11) 0.2633(7)
C293 C 0.3230(12) 0.7233(11) 0.2604(7)
C294 C 0.2933(12) 0.7311(10) 0.2881(7)
H352 H 0.3138 0.7473 0.3095
C295 C 0.2340(16) 0.7138(13) 0.2822(9)
H353 H 0.2156 0.7157 0.3014
C296 C 0.1981(15) 0.6961(12) 0.2576(8)
H354 H 0.1561 0.6879 0.2569
C297 C 0.2301(14) 0.6901(12) 0.2307(7)
H355 H 0.2066 0.6732 0.2101
C298 C 0.2887(13) 0.7049(11) 0.2298(7)
C299 C 0.3209(12) 0.6981(10) 0.2007(7)
C300 C 0.3712(12) 0.1892(10) 0.1913(7)
H356 H 0.3539 0.1742 0.1693
C301 C 0.4303(13) 0.2069(11) 0.1999(7)
H357 H 0.4540 0.2082 0.1829
C302 C 0.4597(14) 0.2229(12) 0.2297(7)
H358 H 0.5016 0.2294 0.2326
C303 C 0.4283(12) 0.2299(10) 0.2567(7)
H359 H 0.4486 0.2443 0.2781
C304 C 0.3667(11) 0.2150(10) 0.2512(6)
C305 C 0.3292(10) 0.2189(9) 0.2770(6)
C306 C 0.3568(12) 0.2399(10) 0.3074(6)
H360 H 0.3989 0.2523 0.3108
C307 C 0.3247(14) 0.2442(12) 0.3347(8)
H361 H 0.3434 0.2546 0.3562
C308 C 0.2612(13) 0.2313(11) 0.3268(7)
H362 H 0.2380 0.2378 0.3442
C309 C 0.2339(13) 0.2117(11) 0.2980(7)
H363 H 0.1917 0.2024 0.2947
C310 C 0.2663(10) 0.2036(9) 0.2704(6)
C311 C 0.2396(11) 0.1824(10) 0.2382(6)
C312 C 0.1749(13) 0.1659(11) 0.2303(7)
H364 H 0.1509 0.1670 0.2474
C313 C 0.1479(13) 0.1487(11) 0.1990(7)
H365 H 0.1059 0.1401 0.1946
C314 C 0.1796(13) 0.1444(11) 0.1758(8)
H366 H 0.1604 0.1302 0.1541
C315 C 0.2405(12) 0.1595(10) 0.1808(7)
H367 H 0.2624 0.1577 0.1629
C316 C 0.2713(12) 0.1781(10) 0.2130(7)
C317 C 0.3360(13) 0.1944(11) 0.2177(7)
N85 N 0.5580(12) 0.2955(11) 0.0860(6)
O18 O 0.6026(10) 0.3292(9) 0.0924(5)
O19 O 0.5465(10) 0.2437(10) 0.0835(5)
O20 O 0.5044(12) 0.2980(10) 0.0821(6)
N86 N 0.4715(12) 0.5168(11) 0.0430(7)
O21 O 0.4331(10) 0.4956(9) 0.0170(5)
O22 O 0.4917(13) 0.5666(10) 0.0558(7)
O23 O 0.4886(10) 0.4856(9) 0.0537(5)
N87 N 0.9405(12) 0.5290(13) 0.2415(8)
O24 O 0.9265(9) 0.5522(9) 0.2680(6)
O25 O 0.9295(9) 0.4799(9) 0.2320(5)
O26 O 0.9678(12) 0.5499(11) 0.2215(7)
N88 N 0.9046(14) 0.2245(14) 0.1833(9)
O27 O 0.9305(11) 0.2604(11) 0.2055(7)
O28 O 0.8887(14) 0.1806(14) 0.1904(8)
O29 O 0.8900(11) 0.2252(10) 0.1564(7)
N89 N 0.6198(15) 0.3340(16) 0.2837(10)
O30 O 0.6377(12) 0.3701(12) 0.3098(7)
O31 O 0.6128(16) 0.2808(16) 0.2799(9)
O32 O 0.5945(13) 0.3432(11) 0.2572(7)
N90 N 0.4712(15) 0.4590(14) 0.4529(8)
O33 O 0.4352(10) 0.4772(9) 0.4705(6)
O34 O 0.4770(11) 0.4143(12) 0.4508(6)
O35 O 0.4907(13) 0.4788(12) 0.4330(7)
N91 N 0.4102(11) 0.2786(10) 0.5772(6)
O36 O 0.3772(14) 0.3048(13) 0.5664(9)
O37 O 0.3906(10) 0.2314(9) 0.5757(6)
O38 O 0.4632(11) 0.2986(10) 0.5805(6)
N92 N 0.4192(15) 0.1564(14) 0.8218(8)
O39 O 0.4535(13) 0.1926(12) 0.8114(7)
O40 O 0.4265(11) 0.1596(11) 0.8508(6)
O41 O 0.3724(13) 0.1312(13) 0.8042(7)
N93 N 0.3125(16) 0.982(2) 0.3108(9)
O42 O 0.3669(15) 0.9934(19) 0.3034(10)
O43 O 0.3020(15) 0.9849(15) 0.3389(8)
O44 O 0.2731(15) 0.9760(16) 0.2898(8)
O45 O 0.6828(8) 0.2710(8) 0.1058(5)
O46 O 0.2435(11) 0.9419(10) 0.2284(6)
O47 O 0.4807(12) 0.1997(11) 0.9347(7)
O48 O 0.5778(11) 0.0198(10) 0.7477(6)
O49 O 0.1261(9) 0.5178(9) 0.7025(5)
O50 O 0.5067(10) 0.0293(9) 0.0922(6)
O51 O 0.6561(12) 0.4483(11) 0.2644(6)
O52 O 0.8411(13) 0.1205(12) 0.8148(7)
O53 O 0.6510(10) 0.6875(9) 0.0192(6)
O54 O 0.8246(12) 0.3733(11) 0.2686(6)
O55 O 0.2663(11) 0.1039(10) 0.8368(6)
O56 O 0.4205(15) 0.0217(13) 0.5884(8)
O57 O 0.7893(12) 0.1217(11) 0.8712(7)
O58 O 0.4590(13) 0.1893(12) 0.4376(7)
O59 O 0.6708(15) 0.1225(14) 0.2496(8)
O60 O 0.7053(11) 0.8663(10) 0.0977(6)
O61 O 0.7334(14) 0.7711(13) 0.0628(8)
O62 O 0.8307(15) 0.0364(13) 0.1224(8)
O63 O 0.4822(18) 0.9601(16) 0.7110(10)
O64 O 0.2912(12) 0.6727(11) 0.5318(6)
O65 O 0.4020(15) 0.0879(14) 0.5493(8)
O66 O 0.8994(14) 0.2364(13) 0.8269(8)
O67 O 0.3644(12) 0.4191(11) 0.5044(7)
O68 O 0.8043(12) 0.7516(11) 0.1097(7)
O69 O 0.3654(15) 0.6107(14) 0.5043(8)
O70 O 0.8345(12) 0.1288(11) 0.1098(7)
O71 O 0.0765(13) 0.9920(12) 0.6873(7)
O72 O -0.0050(15) 0.2126(13) 0.7688(8)
O73 O 0.6490(19) 0.0651(17) 0.8510(10)
O74 O 0.0772(14) 0.9255(13) 0.0714(8)
O75 O 0.5666(16) 0.5810(15) 0.2634(9)
O76 O 0.9274(16) 0.7772(14) 0.2121(8)
O77 O 0.5395(17) 0.9563(16) 0.6550(9)
O78 O 0.6620(14) 0.1678(13) 0.0844(8)
O79 O 0.7594(13) 0.9452(12) 0.0711(7)
O80 O 0.2719(14) 0.0598(13) 0.7293(8)
O81 O 0.7899(14) 0.2518(13) 0.9646(8)
O82 O 0.092(2) 0.0910(19) 0.3082(11)
O83 O 0.4388(18) 0.0601(16) 0.9421(10)
O84 O 0.6294(19) 0.0802(18) 0.6353(11)
O85 O 0.5764(19) 0.5008(17) 0.2497(10)
O86 O 0.116(2) 0.1269(18) 0.7766(11)
O87 O 0.1422(14) 0.3265(13) 0.8870(8)
O88 O 0.7750(15) 0.3590(14) 0.1105(8)
O89 O 0.0659(13) 0.0241(12) 0.7895(7)
O90 O 0.1935(19) 0.3933(17) 0.1070(10)
O91 O 0.7705(14) 0.3715(13) 0.3215(8)
O92 O 0.5284(15) 0.4055(14) 0.5068(8)
O93 O 0.7873(16) 0.3769(14) 0.4323(9)
O94 O 0.1857(14) 0.2012(13) 0.9729(7)
O95 O 0.0633(14) 0.4809(13) 0.0760(8)
O96 O 0.2129(19) 0.1766(17) 0.8275(10)
O97 O 0.7636(18) 0.4940(16) 0.3148(10)
O98 O 0.822(2) 0.0102(19) 0.1946(11)
O99 O 0.3422(17) 0.2843(15) 0.7784(9)
O100 O 0.7834(15) 0.3916(13) 0.0568(8)
O101 O 0.8391(19) 0.1002(17) 0.6118(10)
O102 O 0.7427(18) 0.2830(16) 0.5870(10)
O103 O 0.636(3) 0.208(2) 0.3703(15)
O104 O 0.313(2) 0.014(2) 0.1113(13)
O105 O 0.3506(16) 0.1845(14) 0.7628(9)
O106 O 0.1578(19) 0.0886(17) 0.7145(10)
O107 O 0.512(3) 0.155(3) 0.3597(18)
O108 O 0.4586(18) 0.0653(16) 0.4949(10)
O109 O 0.8558(16) 0.0784(15) 0.3130(9)
O110 O 0.2022(17) 0.1772(15) 0.0558(9)
Pd1 Pd 0.91701(11) 0.15081(9) 0.69369(6)
Pd2 Pd 0.63796(9) 0.22129(8) 0.94929(5)
Pd3 Pd 0.34065(11) 0.02922(9) 0.65650(6)
Pd4 Pd 1.01925(10) 0.73507(9) 0.71920(6)
Pd5 Pd 0.63720(9) 0.76671(7) 0.93058(4)
Pd6 Pd 0.43882(9) 0.58388(8) 0.62683(5)
N1 N 0.8440(9) 0.1587(8) 0.7144(5)
N2 N 0.6358(8) 0.2023(7) 0.9010(4)
N3 N 0.4175(9) 0.0600(8) 0.6854(5)
N4 N 0.6843(8) 0.1755(7) 0.7876(5)
N5 N 0.5780(8) 0.1476(7) 0.7807(4)
N6 N 0.6307(8) 0.1390(7) 0.7348(4)
C1 C 0.8437(11) 0.1779(9) 0.7460(6)
H1 H 0.8802 0.1903 0.7599
C2 C 0.7928(11) 0.1803(9) 0.7591(6)
H2 H 0.7942 0.1950 0.7819
C3 C 0.7403(11) 0.1625(10) 0.7406(6)
C4 C 0.7396(11) 0.1447(10) 0.7068(6)
H3 H 0.7041 0.1336 0.6923
C5 C 0.7931(11) 0.1444(9) 0.6967(6)
H4 H 0.7937 0.1323 0.6739
C6 C 0.6840(11) 0.2048(9) 0.8866(6)
H5 H 0.7210 0.2142 0.8997
C7 C 0.6843(11) 0.1948(9) 0.8545(6)
H6 H 0.7207 0.1961 0.8455
C8 C 0.6349(11) 0.1834(9) 0.8357(6)
C9 C 0.5825(11) 0.1769(9) 0.8484(6)
H7 H 0.5456 0.1645 0.8349
C10 C 0.5851(11) 0.1892(9) 0.8819(6)
H8 H 0.5492 0.1881 0.8914
C11 C 0.4683(11) 0.0670(10) 0.6742(6)
H9 H 0.4672 0.0541 0.6513
C12 C 0.5253(12) 0.0917(10) 0.6923(6)
H10 H 0.5611 0.0952 0.6827
C13 C 0.5236(10) 0.1118(9) 0.7280(6)
C14 C 0.4707(10) 0.1042(9) 0.7386(6)
H11 H 0.4684 0.1167 0.7612
C15 C 0.4200(13) 0.0793(11) 0.7180(7)
H12 H 0.3836 0.0750 0.7271
C16 C 0.6785(10) 0.1577(9) 0.7541(5)
C17 C 0.6293(10) 0.1671(9) 0.7974(5)
C18 C 0.5831(10) 0.1350(9) 0.7497(6)
N7 N 0.9330(9) 0.7229(8) 0.7299(5)
N8 N 0.6521(8) 0.7331(7) 0.8843(4)
N9 N 0.5120(8) 0.6039(7) 0.6580(4)
N10 N 0.7486(8) 0.6926(7) 0.7821(5)
N11 N 0.6425(8) 0.6618(7) 0.7640(4)
N12 N 0.7133(8) 0.6611(7) 0.7252(4)
C19 C 0.9226(11) 0.7244(9) 0.7609(6)
H13 H 0.9545 0.7355 0.7779
C20 C 0.8653(11) 0.7095(9) 0.7665(6)
H14 H 0.8577 0.7111 0.7879
C21 C 0.8188(12) 0.6928(10) 0.7435(6)
C22 C 0.8331(12) 0.6899(10) 0.7124(6)
H15 H 0.8018 0.6762 0.6950
C23 C 0.8892(11) 0.7057(9) 0.7058(6)
H16 H 0.8970 0.7045 0.6844
C24 C 0.7074(10) 0.7415(9) 0.8769(5)
H17 H 0.7389 0.7597 0.8940
C25 C 0.7212(11) 0.7253(9) 0.8462(6)
H18 H 0.7615 0.7328 0.8421
C26 C 0.6769(9) 0.6984(8) 0.8214(5)
C27 C 0.6197(10) 0.6882(9) 0.8285(5)
H19 H 0.5876 0.6695 0.8117
C28 C 0.6092(11) 0.7057(9) 0.8610(5)
H20 H 0.5696 0.6974 0.8661
C29 C 0.5646(11) 0.6016(9) 0.6520(6)
H21 H 0.5700 0.5899 0.6297
C30 C 0.6167(11) 0.6145(9) 0.6749(6)
H22 H 0.6543 0.6112 0.6684
C31 C 0.6070(11) 0.6328(9) 0.7084(6)
C32 C 0.5513(10) 0.6323(8) 0.7159(6)
H23 H 0.5442 0.6411 0.7379
C33 C 0.5039(12) 0.6188(10) 0.6914(6)
H24 H 0.4654 0.6197 0.6972
C34 C 0.7560(10) 0.6805(9) 0.7504(5)
C35 C 0.6895(11) 0.6838(9) 0.7870(6)
C36 C 0.6577(11) 0.6515(9) 0.7325(6)
N13 N 0.9275(9) 0.2242(8) 0.6903(5)
N14 N 1.0082(9) 0.6560(8) 0.7111(5)
N15 N 0.9345(9) 0.4179(9) 0.7127(5)
N16 N 0.9447(9) 0.4707(9) 0.7158(5)
C37 C 0.9557(12) 0.2654(11) 0.7145(7)
H25 H 0.9755 0.2605 0.7324
C38 C 0.9570(12) 0.3202(12) 0.7144(7)
H26 H 0.9733 0.3500 0.7334
C39 C 0.9348(13) 0.3287(12) 0.6870(7)
C40 C 0.9008(12) 0.2786(11) 0.6606(7)
H27 H 0.8817 0.2806 0.6415
C41 C 0.8981(11) 0.2282(11) 0.6647(6)
H28 H 0.8745 0.1964 0.6489
C42 C 1.0244(11) 0.6365(11) 0.7336(6)
H29 H 1.0458 0.6602 0.7538
C43 C 1.0100(12) 0.5821(11) 0.7277(7)
H30 H 1.0202 0.5683 0.7441
C44 C 0.9790(12) 0.5447(11) 0.6961(7)
C45 C 0.9612(11) 0.5647(10) 0.6729(6)
H31 H 0.9381 0.5428 0.6529
C46 C 0.9824(12) 0.6250(11) 0.6829(7)
H32 H 0.9762 0.6414 0.6672
C47 C 0.9414(13) 0.3843(12) 0.6862(7)
C48 C 0.9615(11) 0.3991(10) 0.6590(6)
C49 C 0.9735(10) 0.4514(10) 0.6626(6)
C50 C 0.9646(11) 0.4860(11) 0.6901(6)
N17 N 0.6508(8) 0.2986(7) 0.9512(4)
N18 N 0.6508(8) 0.6994(7) 0.9383(4)
N19 N 0.6447(10) 0.4609(9) 0.9251(5)
N20 N 0.6442(10) 0.5106(10) 0.9243(6)
C51 C 0.6079(12) 0.3191(10) 0.9493(6)
H33 H 0.5688 0.2988 0.9497
C52 C 0.6165(12) 0.3723(10) 0.9466(6)
H34 H 0.5837 0.3861 0.9439
C53 C 0.6715(12) 0.4006(10) 0.9481(6)
C54 C 0.7168(11) 0.3816(10) 0.9515(6)
H35 H 0.7565 0.4028 0.9539
C55 C 0.7033(11) 0.3272(10) 0.9513(5)
H36 H 0.7353 0.3112 0.9512
C56 C 0.6047(12) 0.6562(10) 0.9338(6)
H37 H 0.5654 0.6584 0.9297
C57 C 0.6143(12) 0.6083(10) 0.9351(6)
H38 H 0.5822 0.5770 0.9305
C58 C 0.6712(11) 0.6072(10) 0.9432(6)
C59 C 0.7185(12) 0.6501(10) 0.9474(6)
H39 H 0.7579 0.6482 0.9518
C60 C 0.7066(11) 0.6995(9) 0.9449(5)
H40 H 0.7382 0.7307 0.9479
C61 C 0.6824(12) 0.4581(11) 0.9484(6)
C62 C 0.7206(11) 0.5006(10) 0.9690(6)
C63 C 0.7214(10) 0.5519(9) 0.9689(6)
C64 C 0.6816(12) 0.5565(11) 0.9454(7)
N21 N 0.3462(8) 0.1045(7) 0.6578(5)
N22 N 0.4177(8) 0.5113(8) 0.6342(5)
N23 N 0.4157(9) 0.2896(8) 0.6544(5)
N24 N 0.4231(9) 0.3381(9) 0.6515(5)
C65 C 0.3719(12) 0.1218(11) 0.6336(7)
H41 H 0.3843 0.0978 0.6161
C66 C 0.3798(12) 0.1781(11) 0.6356(7)
H42 H 0.3989 0.1920 0.6200
C67 C 0.3582(11) 0.2095(10) 0.6608(6)
C68 C 0.3350(11) 0.1912(11) 0.6845(6)
H43 H 0.3231 0.2148 0.7025
C69 C 0.3284(11) 0.1377(11) 0.6826(7)
H44 H 0.3112 0.1250 0.6990
C70 C 0.4361(11) 0.4717(10) 0.6176(6)
H45 H 0.4582 0.4755 0.6003
C71 C 0.4250(11) 0.4235(11) 0.6239(6)
H46 H 0.4396 0.3952 0.6111
C72 C 0.3925(11) 0.4164(10) 0.6488(6)
C73 C 0.3760(11) 0.4595(10) 0.6665(6)
H47 H 0.3567 0.4587 0.6851
C74 C 0.3876(11) 0.5060(11) 0.6570(6)
H48 H 0.3720 0.5347 0.6684
C75 C 0.3654(12) 0.2682(11) 0.6606(6)
C76 C 0.3167(13) 0.2921(12) 0.6669(7)
C77 C 0.3217(15) 0.3457(13) 0.6637(8)
C78 C 0.3805(11) 0.3653(10) 0.6546(6)
N25 N 1.0558(12) 0.4932(10) 0.6404(6)
H49 H 1.0755 0.4981 0.6591
N26 N 0.9338(13) 0.3398(11) 0.6063(7)
H50 H 0.9073 0.3584 0.6085
C79 C 0.9998(15) 0.4700(12) 0.6352(8)
C80 C 1.0887(17) 0.5122(14) 0.6158(9)
H51 H 1.0612 0.5050 0.5961
H52 H 1.1200 0.4935 0.6096
C81 C 0.9717(17) 0.3553(14) 0.6293(9)
C82 C 0.9225(19) 0.2918(13) 0.5723(8)
H53 H 0.9603 0.2931 0.5628
H54 H 0.8938 0.2973 0.5572
C83 C 1.119(2) 0.5772(15) 0.6326(12)
O1 O 0.9682(10) 0.4587(9) 0.6106(6)
O2 O 1.0174(10) 0.3428(9) 0.6301(5)
N27 N 0.8170(11) 0.4976(9) 0.9909(6)
H55 H 0.8304 0.4966 0.9723
N28 N 0.8117(12) 0.6164(10) 0.9937(6)
H56 H 0.8247 0.5993 0.9760
C84 C 0.7631(14) 0.4963(12) 0.9961(8)
C85 C 0.858(2) 0.5013(18) 1.0238(11)
C86 C 0.7580(15) 0.6055(12) 0.9968(8)
C87 C 0.855(2) 0.6599(19) 1.0213(12)
H57 H 0.8305 0.6803 1.0356
H58 H 0.8796 0.6848 1.0117
C88 C 0.899(2) 0.644(2) 1.0446(13)
O3 O 0.7365(10) 0.4917(9) 1.0231(6)
O4 O 0.7268(9) 0.6220(8) 1.0165(5)
N29 N 0.2489(16) 0.2783(14) 0.7029(10)
H59 H 0.2794 0.3006 0.7168
O5 O 0.2614(15) 0.3779(14) 0.6841(9)
C89 C 0.256(2) 0.2640(19) 0.6744(13)
C90 C 0.2609(19) 0.358(2) 0.6587(15)
C91 C 0.1922(18) 0.2612(19) 0.7164(11)
H60 H 0.1596 0.2429 0.6983
H61 H 0.1824 0.2935 0.7306
C92 C 0.196(2) 0.222(2) 0.7364(12)
O6 O 0.2277(13) 0.2294(12) 0.6488(8)
N30 N 0.2457(18) 0.3572(17) 0.6355(11)
H62 H 0.2580 0.3407 0.6174
C93 C 0.199(2) 0.3881(18) 0.6378(12)
H63 H 0.1912 0.4003 0.6607
H64 H 0.1616 0.3635 0.6248
N31 N 0.9074(12) 0.0724(10) 0.6955(6)
N32 N 0.9934(13) 0.1420(12) 0.6729(7)
N33 N 0.6316(10) 0.1404(10) 0.9477(6)
N34 N 0.6372(9) 0.2379(8) 0.9982(5)
N35 N 0.3364(13) -0.0520(11) 0.6543(7)
N36 N 0.2619(13) -0.0065(11) 0.6249(7)
N37 N 1.0311(11) 0.8145(10) 0.7261(6)
N38 N 1.1069(12) 0.7507(11) 0.7103(7)
N39 N 0.6242(10) 0.8335(9) 0.9220(5)
N40 N 0.6256(11) 0.8009(10) 0.9777(6)
N41 N 0.4556(9) 0.6561(8) 0.6208(5)
N42 N 0.3639(9) 0.5632(8) 0.5945(5)
C94 C 0.9684(15) 0.0630(14) 0.6912(8)
H65 H 0.9976 0.0853 0.7105
H66 H 0.9671 0.0247 0.6871
C95 C 0.9830(17) 0.0803(15) 0.6613(9)
H67 H 1.0191 0.0705 0.6533
H68 H 0.9496 0.0628 0.6436
C96 C 0.8617(17) 0.0350(15) 0.6673(9)
C97 C 0.8962(19) 0.0693(17) 0.7295(11)
C98 C 1.0441(17) 0.1795(15) 0.6929(9)
H69 H 1.0473 0.1734 0.7138
H70 H 1.0405 0.2159 0.6963
H71 H 1.0797 0.1751 0.6824
C99 C 0.9885(16) 0.1535(15) 0.6413(9)
H72 H 0.9547 0.1268 0.6267
H73 H 1.0251 0.1518 0.6313
H74 H 0.9827 0.1894 0.6455
C100 C 0.6193(17) 0.1404(16) 0.9814(9)
H75 H 0.5765 0.1368 0.9833
H76 H 0.6299 0.1099 0.9859
C101 C 0.6536(17) 0.1893(15) 1.0036(9)
H77 H 0.6962 0.1924 1.0013
H78 H 0.6475 0.1895 1.0259
C102 C 0.5795(13) 0.1034(12) 0.9235(7)
H79 H 0.5432 0.1139 0.9297
H80 H 0.5752 0.0665 0.9232
H81 H 0.5861 0.1059 0.9019
C103 C 0.6877(12) 0.1280(13) 0.9401(8)
H82 H 0.6934 0.1272 0.9179
H83 H 0.6869 0.0928 0.9421
H84 H 0.7204 0.1555 0.9552
C104 C 0.5794(14) 0.2417(18) 1.0078(11)
H85 H 0.5487 0.2105 0.9938
H86 H 0.5719 0.2746 1.0058
H87 H 0.5785 0.2425 1.0304
C105 C 0.6826(12) 0.2852(10) 1.0170(7)
H88 H 0.7218 0.2804 1.0120
H89 H 0.6802 0.2910 1.0402
H90 H 0.6768 0.3164 1.0117
C106 C 0.2732(19) -0.0802(17) 0.6391(10)
H91 H 0.2691 -0.1192 0.6307
H92 H 0.2466 -0.0738 0.6561
C107 C 0.2544(17) -0.0645(12) 0.6142(9)
H93 H 0.2120 -0.0833 0.6065
H94 H 0.2776 -0.0744 0.5959
C108 C 0.3832(14) -0.0684(12) 0.6382(7)
H95 H 0.4213 -0.0442 0.6498
H96 H 0.3790 -0.0675 0.6160
H97 H 0.3816 -0.1051 0.6377
C109 C 0.349(2) -0.0533(18) 0.6870(11)
H98 H 0.3905 -0.0342 0.6954
H99 H 0.3417 -0.0907 0.6865
H100 H 0.3229 -0.0360 0.7011
C110 C 0.2593(16) 0.0118(14) 0.5984(9)
H101 H 0.2639 0.0506 0.6062
H102 H 0.2208 -0.0063 0.5850
H103 H 0.2913 0.0041 0.5855
C111 C 0.2156(18) 0.0119(16) 0.6453(10)
H104 H 0.2198 0.0500 0.6486
H105 H 0.2211 0.0067 0.6664
H106 H 0.1758 -0.0091 0.6343
C112 C 1.0953(17) 0.8349(15) 0.7307(9)
H107 H 1.1058 0.8716 0.7292
H108 H 1.1107 0.8373 0.7527
C113 C 1.1211(18) 0.8049(16) 0.7094(10)
H109 H 1.1646 0.8205 0.7139
H110 H 1.1080 0.8045 0.6874
C114 C 1.0069(15) 0.8403(13) 0.7573(8)
H111 H 1.0266 0.8341 0.7756
H112 H 0.9640 0.8243 0.7552
H113 H 1.0147 0.8789 0.7613
C115 C 1.0049(16) 0.8229(15) 0.6982(8)
H114 H 0.9617 0.8085 0.6957
H115 H 1.0205 0.8045 0.6788
H116 H 1.0147 0.8614 0.7013
C116 C 1.1484(13) 0.7473(12) 0.7359(7)
H117 H 1.1388 0.7105 0.7366
H118 H 1.1443 0.7717 0.7570
H119 H 1.1893 0.7574 0.7311
C117 C 1.1130(17) 0.7102(16) 0.6797(9)
H120 H 1.1022 0.6745 0.6821
H121 H 1.1542 0.7186 0.6751
H122 H 1.0866 0.7108 0.6619
C118 C 0.6130(14) 0.8705(12) 0.9529(7)
H123 H 0.6416 0.9061 0.9576
H124 H 0.5725 0.8749 0.9500
C119 C 0.6180(16) 0.8527(14) 0.9788(8)
H125 H 0.5821 0.8559 0.9897
H126 H 0.6519 0.8795 0.9940
C120 C 0.5720(12) 0.8196(11) 0.8989(7)
H127 H 0.5777 0.7956 0.8781
H128 H 0.5654 0.8523 0.8960
H129 H 0.5374 0.8015 0.9071
C121 C 0.6807(14) 0.8617(13) 0.9107(8)
H130 H 0.6885 0.8374 0.8905
H131 H 0.7145 0.8714 0.9275
H132 H 0.6752 0.8941 0.9070
C122 C 0.5718(14) 0.7731(14) 0.9861(9)
H133 H 0.5390 0.7661 0.9694
H134 H 0.5636 0.7951 1.0070
H135 H 0.5760 0.7390 0.9879
C123 C 0.6762(12) 0.8133(11) 0.9994(7)
H136 H 0.7100 0.8342 0.9922
H137 H 0.6844 0.7801 1.0004
H138 H 0.6697 0.8343 1.0210
C124 C 0.4167(14) 0.6491(13) 0.5904(8)
H139 H 0.4090 0.6839 0.5916
H140 H 0.4381 0.6384 0.5714
C125 C 0.3627(15) 0.6107(14) 0.5860(9)
H141 H 0.3460 0.5989 0.5630
H142 H 0.3351 0.6281 0.5990
C126 C 0.5186(14) 0.6749(13) 0.6149(8)
H143 H 0.5268 0.6487 0.5957
H144 H 0.5455 0.6787 0.6338
H145 H 0.5248 0.7097 0.6114
C127 C 0.4489(15) 0.6961(13) 0.6474(8)
H146 H 0.4754 0.6986 0.6661
H147 H 0.4076 0.6879 0.6520
H148 H 0.4589 0.7303 0.6430
C128 C 0.3647(13) 0.5217(10) 0.5648(6)
H149 H 0.3652 0.4887 0.5694
H150 H 0.4002 0.5331 0.5549
H151 H 0.3291 0.5151 0.5498
C129 C 0.3132(15) 0.5451(14) 0.6085(8)
H152 H 0.3154 0.5125 0.6133
H153 H 0.2775 0.5372 0.5934
H154 H 0.3115 0.5730 0.6287
C130 C 0.897(2) 0.2320(16) 0.5761(12)
C131 C 0.218(2) 0.4413(18) 0.6252(12)
loop_
_geom_bond_atom_site_label_1
_geom_bond_atom_site_label_2
_geom_bond_site_symmetry_1
_geom_bond_site_symmetry_2
Pd1 N1 1_555 1_555
Pd2 N2 1_555 1_555
Pd3 N3 1_555 1_555
Pd4 N7 1_555 1_555
Pd5 N8 1_555 1_555
Pd6 N9 1_555 1_555
N1 C1 1_555 1_555
N2 C6 1_555 1_555
N3 C11 1_555 1_555
N4 C16 1_555 1_555
N5 C17 1_555 1_555
N6 C16 1_555 1_555
C1 H1 1_555 1_555
C2 C1 1_555 1_555
H2 C2 1_555 1_555
C3 C2 1_555 1_555
C4 C3 1_555 1_555
H3 C4 1_555 1_555
C5 N1 1_555 1_555
H4 C5 1_555 1_555
C6 H5 1_555 1_555
C7 C6 1_555 1_555
H6 C7 1_555 1_555
C8 C7 1_555 1_555
C9 C8 1_555 1_555
H7 C9 1_555 1_555
C10 N2 1_555 1_555
H8 C10 1_555 1_555
C11 H9 1_555 1_555
C12 C11 1_555 1_555
H10 C12 1_555 1_555
C13 C12 1_555 1_555
C14 C13 1_555 1_555
H11 C14 1_555 1_555
C15 N3 1_555 1_555
H12 C15 1_555 1_555
C16 C3 1_555 1_555
C17 N4 1_555 1_555
C18 N5 1_555 1_555
N7 C19 1_555 1_555
N8 C24 1_555 1_555
N9 C29 1_555 1_555
N10 C34 1_555 1_555
N11 C35 1_555 1_555
N12 C34 1_555 1_555
C19 H13 1_555 1_555
C20 C19 1_555 1_555
H14 C20 1_555 1_555
C21 C20 1_555 1_555
C22 C21 1_555 1_555
H15 C22 1_555 1_555
C23 N7 1_555 1_555
H16 C23 1_555 1_555
C24 H17 1_555 1_555
C25 C24 1_555 1_555
H18 C25 1_555 1_555
C26 C25 1_555 1_555
C27 C26 1_555 1_555
H19 C27 1_555 1_555
C28 N8 1_555 1_555
H20 C28 1_555 1_555
C29 H21 1_555 1_555
C30 C29 1_555 1_555
H22 C30 1_555 1_555
C31 C30 1_555 1_555
C32 C31 1_555 1_555
H23 C32 1_555 1_555
C33 N9 1_555 1_555
H24 C33 1_555 1_555
C34 C21 1_555 1_555
C35 N10 1_555 1_555
C36 N11 1_555 1_555
N13 Pd1 1_555 1_555
N14 Pd4 1_555 1_555
N15 N16 1_555 1_555
N16 C50 1_555 1_555
C37 N13 1_555 1_555
H25 C37 1_555 1_555
C38 C37 1_555 1_555
H26 C38 1_555 1_555
C39 C38 1_555 1_555
C40 C39 1_555 1_555
H27 C40 1_555 1_555
C41 N13 1_555 1_555
H28 C41 1_555 1_555
C42 N14 1_555 1_555
H29 C42 1_555 1_555
C43 C42 1_555 1_555
H30 C43 1_555 1_555
C44 C43 1_555 1_555
C45 C44 1_555 1_555
H31 C45 1_555 1_555
C46 N14 1_555 1_555
H32 C46 1_555 1_555
C47 N15 1_555 1_555
C48 C47 1_555 1_555
C49 C48 1_555 1_555
C50 C44 1_555 1_555
N17 Pd2 1_555 1_555
N18 Pd5 1_555 1_555
N19 N20 1_555 1_555
N20 C64 1_555 1_555
C51 N17 1_555 1_555
H33 C51 1_555 1_555
C52 C51 1_555 1_555
H34 C52 1_555 1_555
C53 C52 1_555 1_555
C54 C53 1_555 1_555
H35 C54 1_555 1_555
C55 N17 1_555 1_555
H36 C55 1_555 1_555
C56 N18 1_555 1_555
H37 C56 1_555 1_555
C57 C56 1_555 1_555
H38 C57 1_555 1_555
C58 C57 1_555 1_555
C59 C58 1_555 1_555
H39 C59 1_555 1_555
C60 N18 1_555 1_555
H40 C60 1_555 1_555
C61 N19 1_555 1_555
C62 C61 1_555 1_555
C63 C62 1_555 1_555
C64 C58 1_555 1_555
N21 Pd3 1_555 1_555
N22 Pd6 1_555 1_555
N23 N24 1_555 1_555
N24 C78 1_555 1_555
C65 N21 1_555 1_555
H41 C65 1_555 1_555
C66 C65 1_555 1_555
H42 C66 1_555 1_555
C67 C66 1_555 1_555
C68 C67 1_555 1_555
H43 C68 1_555 1_555
C69 N21 1_555 1_555
H44 C69 1_555 1_555
C70 N22 1_555 1_555
H45 C70 1_555 1_555
C71 C70 1_555 1_555
H46 C71 1_555 1_555
C72 C71 1_555 1_555
C73 C72 1_555 1_555
H47 C73 1_555 1_555
C74 N22 1_555 1_555
H48 C74 1_555 1_555
C75 N23 1_555 1_555
C76 C75 1_555 1_555
C77 C76 1_555 1_555
C78 C72 1_555 1_555
N25 H49 1_555 1_555
N26 H50 1_555 1_555
C79 C49 1_555 1_555
C80 N25 1_555 1_555
H51 C80 1_555 1_555
H52 C80 1_555 1_555
C81 C48 1_555 1_555
C82 N26 1_555 1_555
H53 C82 1_555 1_555
H54 C82 1_555 1_555
C83 C80 1_555 1_555
O1 C79 1_555 1_555
O2 C81 1_555 1_555
N27 H55 1_555 1_555
N28 H56 1_555 1_555
C84 C62 1_555 1_555
C85 N27 1_555 1_555
C86 C63 1_555 1_555
C87 N28 1_555 1_555
H57 C87 1_555 1_555
H58 C87 1_555 1_555
C88 C87 1_555 1_555
O3 C84 1_555 1_555
O4 C86 1_555 1_555
N29 H59 1_555 1_555
O5 C90 1_555 1_555
C89 C76 1_555 1_555
C90 C77 1_555 1_555
C91 N29 1_555 1_555
H60 C91 1_555 1_555
H61 C91 1_555 1_555
C92 C91 1_555 1_555
O6 C89 1_555 1_555
N30 C90 1_555 1_555
H62 N30 1_555 1_555
C93 N30 1_555 1_555
H63 C93 1_555 1_555
H64 C93 1_555 1_555
N31 Pd1 1_555 1_555
N32 Pd1 1_555 1_555
N33 Pd2 1_555 1_555
N34 Pd2 1_555 1_555
N35 Pd3 1_555 1_555
N36 Pd3 1_555 1_555
N37 Pd4 1_555 1_555
N38 Pd4 1_555 1_555
N39 Pd5 1_555 1_555
N40 Pd5 1_555 1_555
N41 Pd6 1_555 1_555
N42 Pd6 1_555 1_555
C94 N31 1_555 1_555
H65 C94 1_555 1_555
H66 C94 1_555 1_555
C95 N32 1_555 1_555
H67 C95 1_555 1_555
H68 C95 1_555 1_555
C96 N31 1_555 1_555
C97 N31 1_555 1_555
C98 N32 1_555 1_555
H69 C98 1_555 1_555
H70 C98 1_555 1_555
H71 C98 1_555 1_555
C99 N32 1_555 1_555
H72 C99 1_555 1_555
H73 C99 1_555 1_555
H74 C99 1_555 1_555
C100 N33 1_555 1_555
H75 C100 1_555 1_555
H76 C100 1_555 1_555
C101 N34 1_555 1_555
H77 C101 1_555 1_555
H78 C101 1_555 1_555
C102 N33 1_555 1_555
H79 C102 1_555 1_555
H80 C102 1_555 1_555
H81 C102 1_555 1_555
C103 N33 1_555 1_555
H82 C103 1_555 1_555
H83 C103 1_555 1_555
H84 C103 1_555 1_555
C104 N34 1_555 1_555
H85 C104 1_555 1_555
H86 C104 1_555 1_555
H87 C104 1_555 1_555
C105 N34 1_555 1_555
H88 C105 1_555 1_555
H89 C105 1_555 1_555
H90 C105 1_555 1_555
C106 N35 1_555 1_555
H91 C106 1_555 1_555
H92 C106 1_555 1_555
C107 N36 1_555 1_555
H93 C107 1_555 1_555
H94 C107 1_555 1_555
C108 N35 1_555 1_555
H95 C108 1_555 1_555
H96 C108 1_555 1_555
H97 C108 1_555 1_555
C109 N35 1_555 1_555
H98 C109 1_555 1_555
H99 C109 1_555 1_555
H100 C109 1_555 1_555
C110 N36 1_555 1_555
H101 C110 1_555 1_555
H102 C110 1_555 1_555
H103 C110 1_555 1_555
C111 N36 1_555 1_555
H104 C111 1_555 1_555
H105 C111 1_555 1_555
H106 C111 1_555 1_555
C112 N37 1_555 1_555
H107 C112 1_555 1_555
H108 C112 1_555 1_555
C113 N38 1_555 1_555
H109 C113 1_555 1_555
H110 C113 1_555 1_555
C114 N37 1_555 1_555
H111 C114 1_555 1_555
H112 C114 1_555 1_555
H113 C114 1_555 1_555
C115 N37 1_555 1_555
H114 C115 1_555 1_555
H115 C115 1_555 1_555
H116 C115 1_555 1_555
C116 N38 1_555 1_555
H117 C116 1_555 1_555
H118 C116 1_555 1_555
H119 C116 1_555 1_555
C117 N38 1_555 1_555
H120 C117 1_555 1_555
H121 C117 1_555 1_555
H122 C117 1_555 1_555
C118 N39 1_555 1_555
H123 C118 1_555 1_555
H124 C118 1_555 1_555
C119 N40 1_555 1_555
H125 C119 1_555 1_555
H126 C119 1_555 1_555
C120 N39 1_555 1_555
H127 C120 1_555 1_555
H128 C120 1_555 1_555
H129 C120 1_555 1_555
C121 N39 1_555 1_555
H130 C121 1_555 1_555
H131 C121 1_555 1_555
H132 C121 1_555 1_555
C122 N40 1_555 1_555
H133 C122 1_555 1_555
H134 C122 1_555 1_555
H135 C122 1_555 1_555
C123 N40 1_555 1_555
H136 C123 1_555 1_555
H137 C123 1_555 1_555
H138 C123 1_555 1_555
C124 N41 1_555 1_555
H139 C124 1_555 1_555
H140 C124 1_555 1_555
C125 N42 1_555 1_555
H141 C125 1_555 1_555
H142 C125 1_555 1_555
C126 N41 1_555 1_555
H143 C126 1_555 1_555
H144 C126 1_555 1_555
H145 C126 1_555 1_555
C127 N41 1_555 1_555
H146 C127 1_555 1_555
H147 C127 1_555 1_555
H148 C127 1_555 1_555
C128 N42 1_555 1_555
H149 C128 1_555 1_555
H150 C128 1_555 1_555
H151 C128 1_555 1_555
C129 N42 1_555 1_555
H152 C129 1_555 1_555
H153 C129 1_555 1_555
H154 C129 1_555 1_555
C130 C82 1_555 1_555
C131 C93 1_555 1_555
Pd7 N43 1_555 1_555
Pd8 N44 1_555 1_555
Pd9 N45 1_555 1_555
Pd10 N49 1_555 1_555
Pd11 N51 1_555 1_555
Pd12 N50 1_555 1_555
N43 C132 1_555 1_555
N44 C137 1_555 1_555
N45 C142 1_555 1_555
N46 C147 1_555 1_555
N47 C148 1_555 1_555
N48 C147 1_555 1_555
C132 H155 1_555 1_555
C133 C132 1_555 1_555
H156 C133 1_555 1_555
C134 C133 1_555 1_555
C135 C134 1_555 1_555
H157 C135 1_555 1_555
C136 N43 1_555 1_555
H158 C136 1_555 1_555
C137 H159 1_555 1_555
C138 C137 1_555 1_555
H160 C138 1_555 1_555
C139 C138 1_555 1_555
C140 C139 1_555 1_555
H161 C140 1_555 1_555
C141 N44 1_555 1_555
H162 C141 1_555 1_555
C142 H163 1_555 1_555
C143 C142 1_555 1_555
H164 C143 1_555 1_555
C144 C143 1_555 1_555
C145 C144 1_555 1_555
H165 C145 1_555 1_555
C146 N45 1_555 1_555
H166 C146 1_555 1_555
C147 C134 1_555 1_555
C148 N46 1_555 1_555
C149 N47 1_555 1_555
N49 C150 1_555 1_555
N50 C155 1_555 1_555
N51 C160 1_555 1_555
N52 C165 1_555 1_555
N53 C166 1_555 1_555
N54 C165 1_555 1_555
C150 H167 1_555 1_555
C151 C150 1_555 1_555
H168 C151 1_555 1_555
C152 C151 1_555 1_555
C153 C152 1_555 1_555
H169 C153 1_555 1_555
C154 N49 1_555 1_555
H170 C154 1_555 1_555
C155 H171 1_555 1_555
C156 C155 1_555 1_555
H172 C156 1_555 1_555
C157 C156 1_555 1_555
C158 C157 1_555 1_555
H173 C158 1_555 1_555
C159 N50 1_555 1_555
H174 C159 1_555 1_555
C160 H175 1_555 1_555
C161 C160 1_555 1_555
H176 C161 1_555 1_555
C162 C161 1_555 1_555
C163 C162 1_555 1_555
H177 C163 1_555 1_555
C164 N51 1_555 1_555
H178 C164 1_555 1_555
C165 C152 1_555 1_555
C166 N52 1_555 1_555
C167 N53 1_555 1_555
N55 Pd7 1_555 1_555
N56 Pd10 1_555 1_555
N57 N58 1_555 1_555
N58 C181 1_555 1_555
C168 N55 1_555 1_555
H179 C168 1_555 1_555
C169 C168 1_555 1_555
H180 C169 1_555 1_555
C170 C169 1_555 1_555
C171 C170 1_555 1_555
H181 C171 1_555 1_555
C172 N55 1_555 1_555
H182 C172 1_555 1_555
C173 N56 1_555 1_555
H183 C173 1_555 1_555
C174 C173 1_555 1_555
H184 C174 1_555 1_555
C175 C174 1_555 1_555
C176 C175 1_555 1_555
H185 C176 1_555 1_555
C177 N56 1_555 1_555
H186 C177 1_555 1_555
C178 N57 1_555 1_555
C179 C178 1_555 1_555
C180 C179 1_555 1_555
C181 C175 1_555 1_555
N59 Pd8 1_555 1_555
N60 Pd11 1_555 1_555
N61 N62 1_555 1_555
N62 C195 1_555 1_555
C182 N59 1_555 1_555
H187 C182 1_555 1_555
C183 C182 1_555 1_555
H188 C183 1_555 1_555
C184 C183 1_555 1_555
C185 C184 1_555 1_555
H189 C185 1_555 1_555
C186 N59 1_555 1_555
H190 C186 1_555 1_555
C187 N60 1_555 1_555
H191 C187 1_555 1_555
C188 C187 1_555 1_555
H192 C188 1_555 1_555
C189 C188 1_555 1_555
C190 C189 1_555 1_555
H193 C190 1_555 1_555
C191 N60 1_555 1_555
H194 C191 1_555 1_555
C192 N61 1_555 1_555
C193 C192 1_555 1_555
C194 C193 1_555 1_555
C195 C189 1_555 1_555
N63 Pd9 1_555 1_555
N64 Pd12 1_555 1_555
N65 N66 1_555 1_555
N66 C209 1_555 1_555
C196 N63 1_555 1_555
H195 C196 1_555 1_555
C197 C196 1_555 1_555
H196 C197 1_555 1_555
C198 C197 1_555 1_555
C199 C198 1_555 1_555
H197 C199 1_555 1_555
C200 N63 1_555 1_555
H198 C200 1_555 1_555
C201 N64 1_555 1_555
H199 C201 1_555 1_555
C202 C201 1_555 1_555
H200 C202 1_555 1_555
C203 C202 1_555 1_555
C204 C203 1_555 1_555
H201 C204 1_555 1_555
C205 N64 1_555 1_555
H202 C205 1_555 1_555
C206 N65 1_555 1_555
C207 C206 1_555 1_555
C208 C207 1_555 1_555
C209 C203 1_555 1_555
O7 C210 1_555 1_555
N67 H203 1_555 1_555
C210 C180 1_555 1_555
C211 C179 1_555 1_555
C212 H204 1_555 1_555
H205 C212 1_555 1_555
N68 C210 1_555 1_555
H206 N68 1_555 1_555
O8 C211 1_555 1_555
C213 N67 1_555 1_555
H207 C213 1_555 1_555
H208 C213 1_555 1_555
C214 C213 1_555 1_555
C215 C212 1_555 1_555
H209 C215 1_555 1_555
H210 C215 1_555 1_555
O9 C215 1_555 1_555
H211 O9 1_555 1_555
N69 H212 1_555 1_555
N70 H213 1_555 1_555
C216 C208 1_555 1_555
C217 C207 1_555 1_555
C218 N69 1_555 1_555
H214 C218 1_555 1_555
H215 C218 1_555 1_555
C219 C218 1_555 1_555
H216 C219 1_555 1_555
H217 C219 1_555 1_555
C220 N70 1_555 1_555
H218 C220 1_555 1_555
H219 C220 1_555 1_555
C221 C220 1_555 1_555
H220 C221 1_555 1_555
H221 C221 1_555 1_555
O10 C216 1_555 1_555
O11 C217 1_555 1_555
O12 C221 1_555 1_555
H222 O12 1_555 1_555
O13 C219 1_555 1_555
H223 O13 1_555 1_555
N71 H224 1_555 1_555
C222 C193 1_555 1_555
C223 C194 1_555 1_555
C224 N71 1_555 1_555
H225 C224 1_555 1_555
H226 C224 1_555 1_555
C225 C224 1_555 1_555
H227 C225 1_555 1_555
H228 C225 1_555 1_555
C226 H229 1_555 1_555
H230 C226 1_555 1_555
C227 C226 1_555 1_555
H231 C227 1_555 1_555
H232 C227 1_555 1_555
O14 C222 1_555 1_555
O15 C223 1_555 1_555
O16 C227 1_555 1_555
H233 O16 1_555 1_555
O17 C225 1_555 1_555
H234 O17 1_555 1_555
N72 C223 1_555 1_555
H235 N72 1_555 1_555
N73 Pd7 1_555 1_555
N74 Pd7 1_555 1_555
N75 Pd8 1_555 1_555
N76 Pd8 1_555 1_555
N77 Pd9 1_555 1_555
N78 Pd9 1_555 1_555
N79 Pd10 1_555 1_555
N80 Pd10 1_555 1_555
N81 Pd11 1_555 1_555
N82 Pd11 1_555 1_555
N83 Pd12 1_555 1_555
N84 Pd12 1_555 1_555
C228 N73 1_555 1_555
H236 C228 1_555 1_555
H237 C228 1_555 1_555
C229 N74 1_555 1_555
H238 C229 1_555 1_555
H239 C229 1_555 1_555
C230 N73 1_555 1_555
H240 C230 1_555 1_555
H241 C230 1_555 1_555
H242 C230 1_555 1_555
C231 N73 1_555 1_555
H243 C231 1_555 1_555
H244 C231 1_555 1_555
H245 C231 1_555 1_555
C232 N74 1_555 1_555
H246 C232 1_555 1_555
H247 C232 1_555 1_555
H248 C232 1_555 1_555
C233 N74 1_555 1_555
H249 C233 1_555 1_555
H250 C233 1_555 1_555
H251 C233 1_555 1_555
C234 N75 1_555 1_555
H252 C234 1_555 1_555
H253 C234 1_555 1_555
C235 N76 1_555 1_555
H254 C235 1_555 1_555
H255 C235 1_555 1_555
C236 N75 1_555 1_555
H256 C236 1_555 1_555
H257 C236 1_555 1_555
H258 C236 1_555 1_555
C237 N75 1_555 1_555
H259 C237 1_555 1_555
H260 C237 1_555 1_555
H261 C237 1_555 1_555
C238 N76 1_555 1_555
H262 C238 1_555 1_555
H263 C238 1_555 1_555
H264 C238 1_555 1_555
C239 N76 1_555 1_555
H265 C239 1_555 1_555
H266 C239 1_555 1_555
H267 C239 1_555 1_555
C240 N77 1_555 1_555
H268 C240 1_555 1_555
H269 C240 1_555 1_555
C241 N78 1_555 1_555
H270 C241 1_555 1_555
H271 C241 1_555 1_555
C242 N78 1_555 1_555
H272 C242 1_555 1_555
H273 C242 1_555 1_555
H274 C242 1_555 1_555
C243 N78 1_555 1_555
H275 C243 1_555 1_555
H276 C243 1_555 1_555
H277 C243 1_555 1_555
C244 N77 1_555 1_555
H278 C244 1_555 1_555
H279 C244 1_555 1_555
H280 C244 1_555 1_555
C245 N77 1_555 1_555
H281 C245 1_555 1_555
H282 C245 1_555 1_555
H283 C245 1_555 1_555
C246 N79 1_555 1_555
H284 C246 1_555 1_555
H285 C246 1_555 1_555
C247 N80 1_555 1_555
H286 C247 1_555 1_555
H287 C247 1_555 1_555
C248 N79 1_555 1_555
H288 C248 1_555 1_555
H289 C248 1_555 1_555
H290 C248 1_555 1_555
C249 N79 1_555 1_555
H291 C249 1_555 1_555
H292 C249 1_555 1_555
H293 C249 1_555 1_555
C250 N80 1_555 1_555
H294 C250 1_555 1_555
H295 C250 1_555 1_555
H296 C250 1_555 1_555
C251 N80 1_555 1_555
H297 C251 1_555 1_555
H298 C251 1_555 1_555
H299 C251 1_555 1_555
C252 N81 1_555 1_555
H300 C252 1_555 1_555
H301 C252 1_555 1_555
C253 N82 1_555 1_555
H302 C253 1_555 1_555
H303 C253 1_555 1_555
C254 N82 1_555 1_555
H304 C254 1_555 1_555
H305 C254 1_555 1_555
H306 C254 1_555 1_555
C255 N82 1_555 1_555
H307 C255 1_555 1_555
H308 C255 1_555 1_555
H309 C255 1_555 1_555
C256 N81 1_555 1_555
H310 C256 1_555 1_555
H311 C256 1_555 1_555
H312 C256 1_555 1_555
C257 N81 1_555 1_555
H313 C257 1_555 1_555
H314 C257 1_555 1_555
H315 C257 1_555 1_555
C258 N83 1_555 1_555
H316 C258 1_555 1_555
H317 C258 1_555 1_555
C259 N84 1_555 1_555
H318 C259 1_555 1_555
H319 C259 1_555 1_555
C260 N83 1_555 1_555
H320 C260 1_555 1_555
H321 C260 1_555 1_555
H322 C260 1_555 1_555
C261 N83 1_555 1_555
H323 C261 1_555 1_555
H324 C261 1_555 1_555
H325 C261 1_555 1_555
C262 N84 1_555 1_555
H326 C262 1_555 1_555
H327 C262 1_555 1_555
H328 C262 1_555 1_555
C263 N84 1_555 1_555
H329 C263 1_555 1_555
H330 C263 1_555 1_555
H331 C263 1_555 1_555
C264 H332 1_555 1_555
C265 C264 1_555 1_555
H333 C265 1_555 1_555
C266 C265 1_555 1_555
H334 C266 1_555 1_555
C267 C266 1_555 1_555
H335 C267 1_555 1_555
C268 C267 1_555 1_555
C269 C268 1_555 1_555
C270 C269 1_555 1_555
H336 C270 1_555 1_555
C271 C270 1_555 1_555
H337 C271 1_555 1_555
C272 C271 1_555 1_555
H338 C272 1_555 1_555
C273 C272 1_555 1_555
H339 C273 1_555 1_555
C274 C269 1_555 1_555
C275 C274 1_555 1_555
C276 C275 1_555 1_555
H340 C276 1_555 1_555
C277 C276 1_555 1_555
H341 C277 1_555 1_555
C278 C277 1_555 1_555
H342 C278 1_555 1_555
C279 C278 1_555 1_555
H343 C279 1_555 1_555
C280 C275 1_555 1_555
C281 C264 1_555 1_555
C282 H344 1_555 1_555
C283 C282 1_555 1_555
H345 C283 1_555 1_555
C284 C283 1_555 1_555
H346 C284 1_555 1_555
C285 C284 1_555 1_555
H347 C285 1_555 1_555
C286 C285 1_555 1_555
C287 C286 1_555 1_555
C288 C287 1_555 1_555
H348 C288 1_555 1_555
C289 C288 1_555 1_555
H349 C289 1_555 1_555
C290 C289 1_555 1_555
H350 C290 1_555 1_555
C291 C290 1_555 1_555
H351 C291 1_555 1_555
C292 C287 1_555 1_555
C293 C292 1_555 1_555
C294 C293 1_555 1_555
H352 C294 1_555 1_555
C295 C294 1_555 1_555
H353 C295 1_555 1_555
C296 C295 1_555 1_555
H354 C296 1_555 1_555
C297 C296 1_555 1_555
H355 C297 1_555 1_555
C298 C293 1_555 1_555
C299 C282 1_555 1_555
C300 H356 1_555 1_555
C301 C300 1_555 1_555
H357 C301 1_555 1_555
C302 C301 1_555 1_555
H358 C302 1_555 1_555
C303 C302 1_555 1_555
H359 C303 1_555 1_555
C304 C303 1_555 1_555
C305 C304 1_555 1_555
C306 C305 1_555 1_555
H360 C306 1_555 1_555
C307 C306 1_555 1_555
H361 C307 1_555 1_555
C308 C307 1_555 1_555
H362 C308 1_555 1_555
C309 C308 1_555 1_555
H363 C309 1_555 1_555
C310 C305 1_555 1_555
C311 C310 1_555 1_555
C312 C311 1_555 1_555
H364 C312 1_555 1_555
C313 C312 1_555 1_555
H365 C313 1_555 1_555
C314 C313 1_555 1_555
H366 C314 1_555 1_555
C315 C314 1_555 1_555
H367 C315 1_555 1_555
C316 C311 1_555 1_555
C317 C300 1_555 1_555
N85 O18 1_555 1_555
O19 N85 1_555 1_555
O20 N85 1_555 1_555
N86 O21 1_555 1_555
O22 N86 1_555 1_555
O23 N86 1_555 1_555
N87 O24 1_555 1_555
O25 N87 1_555 1_555
O26 N87 1_555 1_555
N88 O27 1_555 1_555
O28 N88 1_555 1_555
O29 N88 1_555 1_555
N89 O30 1_555 1_555
O31 N89 1_555 1_555
O32 N89 1_555 1_555
N90 O33 1_555 1_555
O34 N90 1_555 1_555
O35 N90 1_555 1_555
N91 O36 1_555 1_555
O37 N91 1_555 1_555
O38 N91 1_555 1_555
N92 O39 1_555 1_555
O40 N92 1_555 1_555
O41 N92 1_555 1_555
N93 O42 1_555 1_555
O43 N93 1_555 1_555
O44 N93 1_555 1_555
N6 C18 1_555 1_555
C4 C5 1_555 1_555
C8 C17 1_555 1_555
C9 C10 1_555 1_555
C13 C18 1_555 1_555
C14 C15 1_555 1_555
N12 C36 1_555 1_555
C22 C23 1_555 1_555
C26 C35 1_555 1_555
C27 C28 1_555 1_555
C31 C36 1_555 1_555
C32 C33 1_555 1_555
C39 C47 1_555 1_555
C40 C41 1_555 1_555
C45 C46 1_555 1_555
C49 C50 1_555 1_555
C53 C61 1_555 1_555
C54 C55 1_555 1_555
C59 C60 1_555 1_555
C63 C64 1_555 1_555
C67 C75 1_555 1_555
C68 C69 1_555 1_555
C73 C74 1_555 1_555
C77 C78 1_555 1_555
N25 C79 1_555 1_555
N26 C81 1_555 1_555
N27 C84 1_555 1_555
N28 C86 1_555 1_555
N29 C89 1_555 1_555
C94 C95 1_555 1_555
C100 C101 1_555 1_555
C106 C107 1_555 1_555
C112 C113 1_555 1_555
C118 C119 1_555 1_555
C124 C125 1_555 1_555
N48 C149 1_555 1_555
C135 C136 1_555 1_555
C139 C148 1_555 1_555
C140 C141 1_555 1_555
C144 C149 1_555 1_555
C145 C146 1_555 1_555
N54 C167 1_555 1_555
C153 C154 1_555 1_555
C157 C166 1_555 1_555
C158 C159 1_555 1_555
C162 C167 1_555 1_555
C163 C164 1_555 1_555
C170 C178 1_555 1_555
C171 C172 1_555 1_555
C176 C177 1_555 1_555
C180 C181 1_555 1_555
C184 C192 1_555 1_555
C185 C186 1_555 1_555
C190 C191 1_555 1_555
C194 C195 1_555 1_555
C198 C206 1_555 1_555
C199 C200 1_555 1_555
C204 C205 1_555 1_555
C208 C209 1_555 1_555
N67 C211 1_555 1_555
C212 N68 1_555 1_555
N69 C216 1_555 1_555
N70 C217 1_555 1_555
N71 C222 1_555 1_555
C226 N72 1_555 1_555
C228 C229 1_555 1_555
C234 C235 1_555 1_555
C240 C241 1_555 1_555
C246 C247 1_555 1_555
C252 C253 1_555 1_555
C258 C259 1_555 1_555
C268 C281 1_555 1_555
C273 C274 1_555 1_555
C279 C280 1_555 1_555
C280 C281 1_555 1_555
C286 C299 1_555 1_555
C291 C292 1_555 1_555
C297 C298 1_555 1_555
C298 C299 1_555 1_555
C304 C317 1_555 1_555
C309 C310 1_555 1_555
C315 C316 1_555 1_555
C316 C317 1_555 1_555

#END
