# generated using pymatgen
data_Fe4Pd6C172(N2O5)21
_symmetry_space_group_name_H-M   'P 1'
_cell_length_a   28.91800000
_cell_length_b   28.91800000
_cell_length_c   30.42800000
_cell_angle_alpha   90.00000000
_cell_angle_beta   90.00000000
_cell_angle_gamma   90.00000000
_symmetry_Int_Tables_number   1
_chemical_formula_structural   Fe4Pd6C172(N2O5)21
_chemical_formula_sum   'Fe16 Pd24 C688 N168 O420'
_cell_volume   25445.43702987
_cell_formula_units_Z   4
loop_
 _symmetry_equiv_pos_site_id
 _symmetry_equiv_pos_as_xyz
  1  'x, y, z'
loop_
 _atom_site_type_symbol
 _atom_site_label
 _atom_site_symmetry_multiplicity
 _atom_site_fract_x
 _atom_site_fract_y
 _atom_site_fract_z
 _atom_site_occupancy
  Fe  Fe1  1  0.781830  0.675910  0.055830  1
  Fe  Fe2  1  0.218170  0.324090  0.555830  1
  Fe  Fe3  1  0.824090  0.281830  0.305830  1
  Fe  Fe4  1  0.175910  0.718170  0.805830  1
  Fe  Fe5  1  0.718170  0.175910  0.194170  1
  Fe  Fe6  1  0.281830  0.824090  0.694170  1
  Fe  Fe7  1  0.675910  0.781830  0.944170  1
  Fe  Fe8  1  0.324090  0.218170  0.444170  1
  Fe  Fe9  1  0.380670  0.714320  0.849350  1
  Fe  Fe10  1  0.619330  0.285680  0.349350  1
  Fe  Fe11  1  0.785680  0.880670  0.099350  1
  Fe  Fe12  1  0.214320  0.119330  0.599350  1
  Fe  Fe13  1  0.119330  0.214320  0.400650  1
  Fe  Fe14  1  0.880670  0.785680  0.900650  1
  Fe  Fe15  1  0.714320  0.380670  0.150650  1
  Fe  Fe16  1  0.285680  0.619330  0.650650  1
  Pd  Pd17  1  0.491430  0.508570  0.750000  1
  Pd  Pd18  1  0.508570  0.491430  0.250000  1
  Pd  Pd19  1  0.991430  0.991430  0.000000  1
  Pd  Pd20  1  0.008570  0.008570  0.500000  1
  Pd  Pd21  1  0.041220  0.958780  0.750000  1
  Pd  Pd22  1  0.958780  0.041220  0.250000  1
  Pd  Pd23  1  0.541220  0.541220  0.000000  1
  Pd  Pd24  1  0.458780  0.458780  0.500000  1
  Pd  Pd25  1  0.208070  0.681060  0.048920  1.0
  Pd  Pd26  1  0.791930  0.318940  0.548920  1.0
  Pd  Pd27  1  0.818940  0.708070  0.298920  1.0
  Pd  Pd28  1  0.181060  0.291930  0.798920  1.0
  Pd  Pd29  1  0.291930  0.181060  0.201080  1.0
  Pd  Pd30  1  0.708070  0.818940  0.701080  1.0
  Pd  Pd31  1  0.681060  0.208070  0.951080  1.0
  Pd  Pd32  1  0.318940  0.791930  0.451080  1.0
  Pd  Pd33  1  0.483960  0.949310  0.819260  1.0
  Pd  Pd34  1  0.516040  0.050690  0.319260  1.0
  Pd  Pd35  1  0.550690  0.983960  0.069260  1.0
  Pd  Pd36  1  0.449310  0.016040  0.569260  1.0
  Pd  Pd37  1  0.016040  0.449310  0.430740  1.0
  Pd  Pd38  1  0.983960  0.550690  0.930740  1.0
  Pd  Pd39  1  0.949310  0.483960  0.180740  1.0
  Pd  Pd40  1  0.050690  0.516040  0.680740  1.0
  C  C41  1  0.747200  0.722100  0.100000  1
  C  C42  1  0.252800  0.277900  0.600000  1
  C  C43  1  0.777900  0.247200  0.350000  1
  C  C44  1  0.222100  0.752800  0.850000  1
  C  C45  1  0.752800  0.222100  0.150000  1
  C  C46  1  0.247200  0.777900  0.650000  1
  C  C47  1  0.722100  0.747200  0.900000  1
  C  C48  1  0.277900  0.252800  0.400000  1
  C  C49  1  0.721000  0.707700  0.063000  1
  C  C50  1  0.279000  0.292300  0.563000  1
  C  C51  1  0.792300  0.221000  0.313000  1
  C  C52  1  0.207700  0.779000  0.813000  1
  C  C53  1  0.779000  0.207700  0.187000  1
  C  C54  1  0.221000  0.792300  0.687000  1
  C  C55  1  0.707700  0.721000  0.937000  1
  C  C56  1  0.292300  0.279000  0.437000  1
  C  C57  1  0.711700  0.659400  0.060900  1
  C  C58  1  0.288300  0.340600  0.560900  1
  C  C59  1  0.840600  0.211700  0.310900  1
  C  C60  1  0.159400  0.788300  0.810900  1
  C  C61  1  0.788300  0.159400  0.189100  1
  C  C62  1  0.211700  0.840600  0.689100  1
  C  C63  1  0.659400  0.711700  0.939100  1
  C  C64  1  0.340600  0.288300  0.439100  1
  C  C65  1  0.741000  0.646100  0.096400  1
  C  C66  1  0.259000  0.353900  0.596400  1
  C  C67  1  0.853900  0.241000  0.346400  1
  C  C68  1  0.146100  0.759000  0.846400  1
  C  C69  1  0.759000  0.146100  0.153600  1
  C  C70  1  0.241000  0.853900  0.653600  1
  C  C71  1  0.646100  0.741000  0.903600  1
  C  C72  1  0.353900  0.259000  0.403600  1
  C  C73  1  0.759200  0.680400  0.121200  1
  C  C74  1  0.240800  0.319600  0.621200  1
  C  C75  1  0.819600  0.259200  0.371200  1
  C  C76  1  0.180400  0.740800  0.871200  1
  C  C77  1  0.740800  0.180400  0.128800  1
  C  C78  1  0.259200  0.819600  0.628800  1
  C  C79  1  0.680400  0.759200  0.878800  1
  C  C80  1  0.319600  0.240800  0.378800  1
  C  C81  1  0.846900  0.704200  0.046300  1
  C  C82  1  0.153100  0.295800  0.546300  1
  C  C83  1  0.795800  0.346900  0.296300  1
  C  C84  1  0.204200  0.653100  0.796300  1
  C  C85  1  0.653100  0.204200  0.203700  1
  C  C86  1  0.346900  0.795800  0.703700  1
  C  C87  1  0.704200  0.846900  0.953700  1
  C  C88  1  0.295800  0.153100  0.453700  1
  C  C89  1  0.849000  0.657700  0.058100  1
  C  C90  1  0.151000  0.342300  0.558100  1
  C  C91  1  0.842300  0.349000  0.308100  1
  C  C92  1  0.157700  0.651000  0.808100  1
  C  C93  1  0.651000  0.157700  0.191900  1
  C  C94  1  0.349000  0.842300  0.691900  1
  C  C95  1  0.657700  0.849000  0.941900  1
  C  C96  1  0.342300  0.151000  0.441900  1
  C  C97  1  0.822800  0.628800  0.029800  1
  C  C98  1  0.177200  0.371200  0.529800  1
  C  C99  1  0.871200  0.322800  0.279800  1
  C  C100  1  0.128800  0.677200  0.779800  1
  C  C101  1  0.677200  0.128800  0.220200  1
  C  C102  1  0.322800  0.871200  0.720200  1
  C  C103  1  0.628800  0.822800  0.970200  1
  C  C104  1  0.371200  0.177200  0.470200  1
  C  C105  1  0.805100  0.654500  0.996500  1
  C  C106  1  0.194900  0.345500  0.496500  1
  C  C107  1  0.845500  0.305100  0.246500  1
  C  C108  1  0.154500  0.694900  0.746500  1
  C  C109  1  0.694900  0.154500  0.253500  1
  C  C110  1  0.305100  0.845500  0.753500  1
  C  C111  1  0.654500  0.805100  0.003500  1
  C  C112  1  0.345500  0.194900  0.503500  1
  C  C113  1  0.818700  0.705700  0.005200  1
  C  C114  1  0.181300  0.294300  0.505200  1
  C  C115  1  0.794300  0.318700  0.255200  1
  C  C116  1  0.205700  0.681300  0.755200  1
  C  C117  1  0.681300  0.205700  0.244800  1
  C  C118  1  0.318700  0.794300  0.744800  1
  C  C119  1  0.705700  0.818700  0.994800  1
  C  C120  1  0.294300  0.181300  0.494800  1
  C  C121  1  0.348700  0.778700  0.852600  1
  C  C122  1  0.651300  0.221300  0.352600  1
  C  C123  1  0.721300  0.848700  0.102600  1
  C  C124  1  0.278700  0.151300  0.602600  1
  C  C125  1  0.151300  0.278700  0.397400  1
  C  C126  1  0.848700  0.721300  0.897400  1
  C  C127  1  0.778700  0.348700  0.147400  1
  C  C128  1  0.221300  0.651300  0.647400  1
  C  C129  1  0.400600  0.778400  0.823700  1
  C  C130  1  0.599400  0.221600  0.323700  1
  C  C131  1  0.721600  0.900600  0.073700  1
  C  C132  1  0.278400  0.099400  0.573700  1
  C  C133  1  0.099400  0.278400  0.426300  1
  C  C134  1  0.900600  0.721600  0.926300  1
  C  C135  1  0.778400  0.400600  0.176300  1
  C  C136  1  0.221600  0.599400  0.676300  1
  C  C137  1  0.435200  0.764000  0.851900  1
  C  C138  1  0.564800  0.236000  0.351900  1
  C  C139  1  0.736000  0.935200  0.101900  1
  C  C140  1  0.264000  0.064800  0.601900  1
  C  C141  1  0.064800  0.264000  0.398100  1
  C  C142  1  0.935200  0.736000  0.898100  1
  C  C143  1  0.764000  0.435200  0.148100  1
  C  C144  1  0.236000  0.564800  0.648100  1
  C  C145  1  0.412000  0.754900  0.896800  1
  C  C146  1  0.588000  0.245100  0.396800  1
  C  C147  1  0.745100  0.912000  0.146800  1
  C  C148  1  0.254900  0.088000  0.646800  1
  C  C149  1  0.088000  0.254900  0.353200  1
  C  C150  1  0.912000  0.745100  0.853200  1
  C  C151  1  0.754900  0.412000  0.103200  1
  C  C152  1  0.245100  0.588000  0.603200  1
  C  C153  1  0.369200  0.765100  0.892800  1
  C  C154  1  0.630800  0.234900  0.392800  1
  C  C155  1  0.734900  0.869200  0.142800  1
  C  C156  1  0.265100  0.130800  0.642800  1
  C  C157  1  0.130800  0.265100  0.357200  1
  C  C158  1  0.869200  0.734900  0.857200  1
  C  C159  1  0.765100  0.369200  0.107200  1
  C  C160  1  0.234900  0.630800  0.607200  1
  C  C161  1  0.409000  0.655600  0.830200  1
  C  C162  1  0.591000  0.344400  0.330200  1
  C  C163  1  0.844400  0.909000  0.080200  1
  C  C164  1  0.155600  0.091000  0.580200  1
  C  C165  1  0.091000  0.155600  0.419800  1
  C  C166  1  0.909000  0.844400  0.919800  1
  C  C167  1  0.655600  0.409000  0.169800  1
  C  C168  1  0.344400  0.591000  0.669800  1
  C  C169  1  0.381000  0.681000  0.794000  1
  C  C170  1  0.619000  0.319000  0.294000  1
  C  C171  1  0.819000  0.881000  0.044000  1
  C  C172  1  0.181000  0.119000  0.544000  1
  C  C173  1  0.119000  0.181000  0.456000  1
  C  C174  1  0.881000  0.819000  0.956000  1
  C  C175  1  0.681000  0.381000  0.206000  1
  C  C176  1  0.319000  0.619000  0.706000  1
  C  C177  1  0.335100  0.677500  0.813400  1
  C  C178  1  0.664900  0.322500  0.313400  1
  C  C179  1  0.822500  0.835100  0.063400  1
  C  C180  1  0.177500  0.164900  0.563400  1
  C  C181  1  0.164900  0.177500  0.436600  1
  C  C182  1  0.835100  0.822500  0.936600  1
  C  C183  1  0.677500  0.335100  0.186600  1
  C  C184  1  0.322500  0.664900  0.686600  1
  C  C185  1  0.331500  0.664600  0.862000  1
  C  C186  1  0.668500  0.335400  0.362000  1
  C  C187  1  0.835400  0.831500  0.112000  1
  C  C188  1  0.164600  0.168500  0.612000  1
  C  C189  1  0.168500  0.164600  0.388000  1
  C  C190  1  0.831500  0.835400  0.888000  1
  C  C191  1  0.664600  0.331500  0.138000  1
  C  C192  1  0.335400  0.668500  0.638000  1
  C  C193  1  0.389800  0.646800  0.866000  1
  C  C194  1  0.610200  0.353200  0.366000  1
  C  C195  1  0.853200  0.889800  0.116000  1
  C  C196  1  0.146800  0.110200  0.616000  1
  C  C197  1  0.110200  0.146800  0.384000  1
  C  C198  1  0.889800  0.853200  0.884000  1
  C  C199  1  0.646800  0.389800  0.134000  1
  C  C200  1  0.353200  0.610200  0.634000  1
  C  C201  1  0.412700  0.899300  0.873800  1.0
  C  C202  1  0.587300  0.100700  0.373800  1.0
  C  C203  1  0.600700  0.912700  0.123800  1.0
  C  C204  1  0.399300  0.087300  0.623800  1.0
  C  C205  1  0.087300  0.399300  0.376200  1.0
  C  C206  1  0.912700  0.600700  0.876200  1.0
  C  C207  1  0.899300  0.412700  0.126200  1.0
  C  C208  1  0.100700  0.587300  0.626200  1.0
  C  C209  1  0.369700  0.887900  0.885800  1.0
  C  C210  1  0.630300  0.112100  0.385800  1.0
  C  C211  1  0.612100  0.869700  0.135800  1.0
  C  C212  1  0.387900  0.130300  0.635800  1.0
  C  C213  1  0.130300  0.387900  0.364200  1.0
  C  C214  1  0.869700  0.612100  0.864200  1.0
  C  C215  1  0.887900  0.369700  0.114200  1.0
  C  C216  1  0.112100  0.630300  0.614200  1.0
  C  C217  1  0.332800  0.901300  0.862000  1.0
  C  C218  1  0.667200  0.098700  0.362000  1.0
  C  C219  1  0.598700  0.832800  0.112000  1.0
  C  C220  1  0.401300  0.167200  0.612000  1.0
  C  C221  1  0.167200  0.401300  0.388000  1.0
  C  C222  1  0.832800  0.598700  0.888000  1.0
  C  C223  1  0.901300  0.332800  0.138000  1.0
  C  C224  1  0.098700  0.667200  0.638000  1.0
  C  C225  1  0.333200  0.928400  0.823300  1.0
  C  C226  1  0.666800  0.071600  0.323300  1.0
  C  C227  1  0.571600  0.833200  0.073300  1.0
  C  C228  1  0.428400  0.166800  0.573300  1.0
  C  C229  1  0.166800  0.428400  0.426700  1.0
  C  C230  1  0.833200  0.571600  0.926700  1.0
  C  C231  1  0.928400  0.333200  0.176700  1.0
  C  C232  1  0.071600  0.666800  0.676700  1.0
  C  C233  1  0.385800  0.942700  0.811100  1.0
  C  C234  1  0.614200  0.057300  0.311100  1.0
  C  C235  1  0.557300  0.885800  0.061100  1.0
  C  C236  1  0.442700  0.114200  0.561100  1.0
  C  C237  1  0.114200  0.442700  0.438900  1.0
  C  C238  1  0.885800  0.557300  0.938900  1.0
  C  C239  1  0.942700  0.385800  0.188900  1.0
  C  C240  1  0.057300  0.614200  0.688900  1.0
  C  C241  1  0.285700  0.884300  0.871800  1.0
  C  C242  1  0.714300  0.115700  0.371800  1.0
  C  C243  1  0.615700  0.785700  0.121800  1.0
  C  C244  1  0.384300  0.214300  0.621800  1.0
  C  C245  1  0.214300  0.384300  0.378200  1.0
  C  C246  1  0.785700  0.615700  0.878200  1.0
  C  C247  1  0.884300  0.285700  0.128200  1.0
  C  C248  1  0.115700  0.714300  0.628200  1.0
  C  C249  1  0.181100  0.756300  0.993800  1.0
  C  C250  1  0.818900  0.243700  0.493800  1.0
  C  C251  1  0.743700  0.681100  0.243800  1.0
  C  C252  1  0.256300  0.318900  0.743800  1.0
  C  C253  1  0.318900  0.256300  0.256200  1.0
  C  C254  1  0.681100  0.743700  0.756200  1.0
  C  C255  1  0.756300  0.181100  0.006200  1.0
  C  C256  1  0.243700  0.818900  0.506200  1.0
  C  C257  1  0.186100  0.794000  0.964100  1.0
  C  C258  1  0.813900  0.206000  0.464100  1.0
  C  C259  1  0.706000  0.686100  0.214100  1.0
  C  C260  1  0.294000  0.313900  0.714100  1.0
  C  C261  1  0.313900  0.294000  0.285900  1.0
  C  C262  1  0.686100  0.706000  0.785900  1.0
  C  C263  1  0.794000  0.186100  0.035900  1.0
  C  C264  1  0.206000  0.813900  0.535900  1.0
  C  C265  1  0.231100  0.808800  0.950100  1.0
  C  C266  1  0.768900  0.191200  0.450100  1.0
  C  C267  1  0.691200  0.731100  0.200100  1.0
  C  C268  1  0.308800  0.268900  0.700100  1.0
  C  C269  1  0.268900  0.308800  0.299900  1.0
  C  C270  1  0.731100  0.691200  0.799900  1.0
  C  C271  1  0.808800  0.231100  0.049900  1.0
  C  C272  1  0.191200  0.768900  0.549900  1.0
  C  C273  1  0.269100  0.790200  0.973200  1.0
  C  C274  1  0.730900  0.209800  0.473200  1.0
  C  C275  1  0.709800  0.769100  0.223200  1.0
  C  C276  1  0.290200  0.230900  0.723200  1.0
  C  C277  1  0.230900  0.290200  0.276800  1.0
  C  C278  1  0.769100  0.709800  0.776800  1.0
  C  C279  1  0.790200  0.269100  0.026800  1.0
  C  C280  1  0.209800  0.730900  0.526800  1.0
  C  C281  1  0.263200  0.751900  0.998100  1.0
  C  C282  1  0.736800  0.248100  0.498100  1.0
  C  C283  1  0.748100  0.763200  0.248100  1.0
  C  C284  1  0.251900  0.236800  0.748100  1.0
  C  C285  1  0.236800  0.251900  0.251900  1.0
  C  C286  1  0.763200  0.748100  0.751900  1.0
  C  C287  1  0.751900  0.263200  0.001900  1.0
  C  C288  1  0.248100  0.736800  0.501900  1.0
  C  C289  1  0.236000  0.842800  0.915700  1.0
  C  C290  1  0.764000  0.157200  0.415700  1.0
  C  C291  1  0.657200  0.736000  0.165700  1.0
  C  C292  1  0.342800  0.264000  0.665700  1.0
  C  C293  1  0.264000  0.342800  0.334300  1.0
  C  C294  1  0.736000  0.657200  0.834300  1.0
  C  C295  1  0.842800  0.236000  0.084300  1.0
  C  C296  1  0.157200  0.764000  0.584300  1.0
  C  C297  1  0.137600  0.955400  0.779900  1.0
  C  C298  1  0.862400  0.044600  0.279900  1.0
  C  C299  1  0.544600  0.637600  0.029900  1.0
  C  C300  1  0.455400  0.362400  0.529900  1.0
  C  C301  1  0.362400  0.455400  0.470100  1.0
  C  C302  1  0.637600  0.544600  0.970100  1.0
  C  C303  1  0.955400  0.137600  0.220100  1.0
  C  C304  1  0.044600  0.862400  0.720100  1.0
  C  C305  1  0.175100  0.933900  0.803800  1.0
  C  C306  1  0.824900  0.066100  0.303800  1.0
  C  C307  1  0.566100  0.675100  0.053800  1.0
  C  C308  1  0.433900  0.324900  0.553800  1.0
  C  C309  1  0.324900  0.433900  0.446200  1.0
  C  C310  1  0.675100  0.566100  0.946200  1.0
  C  C311  1  0.933900  0.175100  0.196200  1.0
  C  C312  1  0.066100  0.824900  0.696200  1.0
  C  C313  1  0.167800  0.906000  0.837000  1.0
  C  C314  1  0.832200  0.094000  0.337000  1.0
  C  C315  1  0.594000  0.667800  0.087000  1.0
  C  C316  1  0.406000  0.332200  0.587000  1.0
  C  C317  1  0.332200  0.406000  0.413000  1.0
  C  C318  1  0.667800  0.594000  0.913000  1.0
  C  C319  1  0.906000  0.167800  0.163000  1.0
  C  C320  1  0.094000  0.832200  0.663000  1.0
  C  C321  1  0.122700  0.892200  0.849200  1.0
  C  C322  1  0.877300  0.107800  0.349200  1.0
  C  C323  1  0.607800  0.622700  0.099200  1.0
  C  C324  1  0.392200  0.377300  0.599200  1.0
  C  C325  1  0.377300  0.392200  0.400800  1.0
  C  C326  1  0.622700  0.607800  0.900800  1.0
  C  C327  1  0.892200  0.122700  0.150800  1.0
  C  C328  1  0.107800  0.877300  0.650800  1.0
  C  C329  1  0.086700  0.910400  0.820000  1.0
  C  C330  1  0.913300  0.089600  0.320000  1.0
  C  C331  1  0.589600  0.586700  0.070000  1.0
  C  C332  1  0.410400  0.413300  0.570000  1.0
  C  C333  1  0.413300  0.410400  0.430000  1.0
  C  C334  1  0.586700  0.589600  0.930000  1.0
  C  C335  1  0.910400  0.086700  0.180000  1.0
  C  C336  1  0.089600  0.913300  0.680000  1.0
  C  C337  1  0.209200  0.890700  0.860900  1.0
  C  C338  1  0.790800  0.109300  0.360900  1.0
  C  C339  1  0.609300  0.709200  0.110900  1.0
  C  C340  1  0.390700  0.290800  0.610900  1.0
  C  C341  1  0.290800  0.390700  0.389100  1.0
  C  C342  1  0.709200  0.609300  0.889100  1.0
  C  C343  1  0.890700  0.209200  0.139100  1.0
  C  C344  1  0.109300  0.790800  0.639100  1.0
  C  C345  1  0.264400  0.624000  0.986000  1.0
  C  C346  1  0.735600  0.376000  0.486000  1.0
  C  C347  1  0.876000  0.764400  0.236000  1.0
  C  C348  1  0.124000  0.235600  0.736000  1.0
  C  C349  1  0.235600  0.124000  0.264000  1.0
  C  C350  1  0.764400  0.876000  0.764000  1.0
  C  C351  1  0.624000  0.264400  0.014000  1.0
  C  C352  1  0.376000  0.735600  0.514000  1.0
  C  C353  1  0.274200  0.599000  0.950000  1.0
  C  C354  1  0.725800  0.401000  0.450000  1.0
  C  C355  1  0.901000  0.774200  0.200000  1.0
  C  C356  1  0.099000  0.225800  0.700000  1.0
  C  C357  1  0.225800  0.099000  0.300000  1.0
  C  C358  1  0.774200  0.901000  0.800000  1.0
  C  C359  1  0.599000  0.274200  0.050000  1.0
  C  C360  1  0.401000  0.725800  0.550000  1.0
  C  C361  1  0.234600  0.594300  0.919600  1.0
  C  C362  1  0.765400  0.405700  0.419600  1.0
  C  C363  1  0.905700  0.734600  0.169600  1.0
  C  C364  1  0.094300  0.265400  0.669600  1.0
  C  C365  1  0.265400  0.094300  0.330400  1.0
  C  C366  1  0.734600  0.905700  0.830400  1.0
  C  C367  1  0.594300  0.234600  0.080400  1.0
  C  C368  1  0.405700  0.765400  0.580400  1.0
  C  C369  1  0.193200  0.610100  0.928600  1.0
  C  C370  1  0.806800  0.389900  0.428600  1.0
  C  C371  1  0.889900  0.693200  0.178600  1.0
  C  C372  1  0.110100  0.306800  0.678600  1.0
  C  C373  1  0.306800  0.110100  0.321400  1.0
  C  C374  1  0.693200  0.889900  0.821400  1.0
  C  C375  1  0.610100  0.193200  0.071400  1.0
  C  C376  1  0.389900  0.806800  0.571400  1.0
  C  C377  1  0.188100  0.636200  0.965100  1.0
  C  C378  1  0.811900  0.363800  0.465100  1.0
  C  C379  1  0.863800  0.688100  0.215100  1.0
  C  C380  1  0.136200  0.311900  0.715100  1.0
  C  C381  1  0.311900  0.136200  0.284900  1.0
  C  C382  1  0.688100  0.863800  0.784900  1.0
  C  C383  1  0.636200  0.188100  0.034900  1.0
  C  C384  1  0.363800  0.811900  0.534900  1.0
  C  C385  1  0.244700  0.564300  0.880100  1.0
  C  C386  1  0.755300  0.435700  0.380100  1.0
  C  C387  1  0.935700  0.744700  0.130100  1.0
  C  C388  1  0.064300  0.255300  0.630100  1.0
  C  C389  1  0.255300  0.064300  0.369900  1.0
  C  C390  1  0.744700  0.935700  0.869900  1.0
  C  C391  1  0.564300  0.244700  0.119900  1.0
  C  C392  1  0.435700  0.755300  0.619900  1.0
  C  C393  1  0.471100  0.908300  0.731500  1.0
  C  C394  1  0.528900  0.091700  0.231500  1.0
  C  C395  1  0.591700  0.971100  0.981500  1.0
  C  C396  1  0.408300  0.028900  0.481500  1.0
  C  C397  1  0.028900  0.408300  0.518500  1.0
  C  C398  1  0.971100  0.591700  0.018500  1.0
  C  C399  1  0.908300  0.471100  0.268500  1.0
  C  C400  1  0.091700  0.528900  0.768500  1.0
  C  C401  1  0.464800  0.870000  0.702300  1.0
  C  C402  1  0.535200  0.130000  0.202300  1.0
  C  C403  1  0.630000  0.964800  0.952300  1.0
  C  C404  1  0.370000  0.035200  0.452300  1.0
  C  C405  1  0.035200  0.370000  0.547700  1.0
  C  C406  1  0.964800  0.630000  0.047700  1.0
  C  C407  1  0.870000  0.464800  0.297700  1.0
  C  C408  1  0.130000  0.535200  0.797700  1.0
  C  C409  1  0.473900  0.825200  0.716200  1.0
  C  C410  1  0.526100  0.174800  0.216200  1.0
  C  C411  1  0.674800  0.973900  0.966200  1.0
  C  C412  1  0.325200  0.026100  0.466200  1.0
  C  C413  1  0.026100  0.325200  0.533800  1.0
  C  C414  1  0.973900  0.674800  0.033800  1.0
  C  C415  1  0.825200  0.473900  0.283800  1.0
  C  C416  1  0.174800  0.526100  0.783800  1.0
  C  C417  1  0.488600  0.816000  0.756900  1.0
  C  C418  1  0.511400  0.184000  0.256900  1.0
  C  C419  1  0.684000  0.988600  0.006900  1.0
  C  C420  1  0.316000  0.011400  0.506900  1.0
  C  C421  1  0.011400  0.316000  0.493100  1.0
  C  C422  1  0.988600  0.684000  0.993100  1.0
  C  C423  1  0.816000  0.488600  0.243100  1.0
  C  C424  1  0.184000  0.511400  0.743100  1.0
  C  C425  1  0.492900  0.854300  0.787200  1.0
  C  C426  1  0.507100  0.145700  0.287200  1.0
  C  C427  1  0.645700  0.992900  0.037200  1.0
  C  C428  1  0.354300  0.007100  0.537200  1.0
  C  C429  1  0.007100  0.354300  0.462800  1.0
  C  C430  1  0.992900  0.645700  0.962800  1.0
  C  C431  1  0.854300  0.492900  0.212800  1.0
  C  C432  1  0.145700  0.507100  0.712800  1.0
  C  C433  1  0.213700  0.534900  0.815700  1.0
  C  C434  1  0.786300  0.465100  0.315700  1.0
  C  C435  1  0.965100  0.713700  0.065700  1.0
  C  C436  1  0.034900  0.286300  0.565700  1.0
  C  C437  1  0.286300  0.034900  0.434300  1.0
  C  C438  1  0.713700  0.965100  0.934300  1.0
  C  C439  1  0.534900  0.213700  0.184300  1.0
  C  C440  1  0.465100  0.786300  0.684300  1.0
  C  C441  1  0.388700  0.503100  0.749100  1.0
  C  C442  1  0.611300  0.496900  0.249100  1.0
  C  C443  1  0.996900  0.888700  0.999100  1.0
  C  C444  1  0.003100  0.111300  0.499100  1.0
  C  C445  1  0.111300  0.003100  0.500900  1.0
  C  C446  1  0.888700  0.996900  0.000900  1.0
  C  C447  1  0.503100  0.388700  0.250900  1.0
  C  C448  1  0.496900  0.611300  0.750900  1.0
  C  C449  1  0.344200  0.514100  0.765000  1.0
  C  C450  1  0.655800  0.485900  0.265000  1.0
  C  C451  1  0.985900  0.844200  0.015000  1.0
  C  C452  1  0.014100  0.155800  0.515000  1.0
  C  C453  1  0.155800  0.014100  0.485000  1.0
  C  C454  1  0.844200  0.985900  0.985000  1.0
  C  C455  1  0.514100  0.344200  0.235000  1.0
  C  C456  1  0.485900  0.655800  0.735000  1.0
  C  C457  1  0.338300  0.528100  0.807400  1.0
  C  C458  1  0.661700  0.471900  0.307400  1.0
  C  C459  1  0.971900  0.838300  0.057400  1.0
  C  C460  1  0.028100  0.161700  0.557400  1.0
  C  C461  1  0.161700  0.028100  0.442600  1.0
  C  C462  1  0.838300  0.971900  0.942600  1.0
  C  C463  1  0.528100  0.338300  0.192600  1.0
  C  C464  1  0.471900  0.661700  0.692600  1.0
  C  C465  1  0.378300  0.534700  0.834200  1.0
  C  C466  1  0.621700  0.465300  0.334200  1.0
  C  C467  1  0.965300  0.878300  0.084200  1.0
  C  C468  1  0.034700  0.121700  0.584200  1.0
  C  C469  1  0.121700  0.034700  0.415800  1.0
  C  C470  1  0.878300  0.965300  0.915800  1.0
  C  C471  1  0.534700  0.378300  0.165800  1.0
  C  C472  1  0.465300  0.621700  0.665800  1.0
  C  C473  1  0.424500  0.531400  0.815900  1.0
  C  C474  1  0.575500  0.468600  0.315900  1.0
  C  C475  1  0.968600  0.924500  0.065900  1.0
  C  C476  1  0.031400  0.075500  0.565900  1.0
  C  C477  1  0.075500  0.031400  0.434100  1.0
  C  C478  1  0.924500  0.968600  0.934100  1.0
  C  C479  1  0.531400  0.424500  0.184100  1.0
  C  C480  1  0.468600  0.575500  0.684100  1.0
  C  C481  1  0.290300  0.536300  0.824400  1.0
  C  C482  1  0.709700  0.463700  0.324400  1.0
  C  C483  1  0.963700  0.790300  0.074400  1.0
  C  C484  1  0.036300  0.209700  0.574400  1.0
  C  C485  1  0.209700  0.036300  0.425600  1.0
  C  C486  1  0.790300  0.963700  0.925600  1.0
  C  C487  1  0.536300  0.290300  0.175600  1.0
  C  C488  1  0.463700  0.709700  0.675600  1.0
  C  C489  1  0.448000  0.014400  0.888800  1.0
  C  C490  1  0.552000  0.985600  0.388800  1.0
  C  C491  1  0.485600  0.948000  0.138800  1.0
  C  C492  1  0.514400  0.052000  0.638800  1.0
  C  C493  1  0.052000  0.514400  0.361200  1.0
  C  C494  1  0.948000  0.485600  0.861200  1.0
  C  C495  1  0.014400  0.448000  0.111200  1.0
  C  C496  1  0.985600  0.552000  0.611200  1.0
  C  C497  1  0.455300  0.048100  0.919500  1.0
  C  C498  1  0.544700  0.951900  0.419500  1.0
  C  C499  1  0.451900  0.955300  0.169500  1.0
  C  C500  1  0.548100  0.044700  0.669500  1.0
  C  C501  1  0.044700  0.548100  0.330500  1.0
  C  C502  1  0.955300  0.451900  0.830500  1.0
  C  C503  1  0.048100  0.455300  0.080500  1.0
  C  C504  1  0.951900  0.544700  0.580500  1.0
  C  C505  1  0.495800  0.071400  0.923500  1.0
  C  C506  1  0.504200  0.928600  0.423500  1.0
  C  C507  1  0.428600  0.995800  0.173500  1.0
  C  C508  1  0.571400  0.004200  0.673500  1.0
  C  C509  1  0.004200  0.571400  0.326500  1.0
  C  C510  1  0.995800  0.428600  0.826500  1.0
  C  C511  1  0.071400  0.495800  0.076500  1.0
  C  C512  1  0.928600  0.504200  0.576500  1.0
  C  C513  1  0.531200  0.055300  0.903500  1.0
  C  C514  1  0.468800  0.944700  0.403500  1.0
  C  C515  1  0.444700  0.031200  0.153500  1.0
  C  C516  1  0.555300  0.968800  0.653500  1.0
  C  C517  1  0.968800  0.555300  0.346500  1.0
  C  C518  1  0.031200  0.444700  0.846500  1.0
  C  C519  1  0.055300  0.531200  0.096500  1.0
  C  C520  1  0.944700  0.468800  0.596500  1.0
  C  C521  1  0.528400  0.018500  0.870300  1.0
  C  C522  1  0.471600  0.981500  0.370300  1.0
  C  C523  1  0.481500  0.028400  0.120300  1.0
  C  C524  1  0.518500  0.971600  0.620300  1.0
  C  C525  1  0.971600  0.518500  0.379700  1.0
  C  C526  1  0.028400  0.481500  0.879700  1.0
  C  C527  1  0.018500  0.528400  0.129700  1.0
  C  C528  1  0.981500  0.471600  0.629700  1.0
  C  C529  1  0.562100  0.003500  0.843300  1.0
  C  C530  1  0.437900  0.996500  0.343300  1.0
  C  C531  1  0.496500  0.062100  0.093300  1.0
  C  C532  1  0.503500  0.937900  0.593300  1.0
  C  C533  1  0.937900  0.503500  0.406700  1.0
  C  C534  1  0.062100  0.496500  0.906700  1.0
  C  C535  1  0.003500  0.562100  0.156700  1.0
  C  C536  1  0.996500  0.437900  0.656700  1.0
  C  C537  1  0.608700  0.021500  0.841900  1.0
  C  C538  1  0.391300  0.978500  0.341900  1.0
  C  C539  1  0.478500  0.108700  0.091900  1.0
  C  C540  1  0.521500  0.891300  0.591900  1.0
  C  C541  1  0.891300  0.521500  0.408100  1.0
  C  C542  1  0.108700  0.478500  0.908100  1.0
  C  C543  1  0.021500  0.608700  0.158100  1.0
  C  C544  1  0.978500  0.391300  0.658100  1.0
  C  C545  1  0.636600  0.999400  0.809700  1.0
  C  C546  1  0.363400  0.000600  0.309700  1.0
  C  C547  1  0.500600  0.136600  0.059700  1.0
  C  C548  1  0.499400  0.863400  0.559700  1.0
  C  C549  1  0.863400  0.499400  0.440300  1.0
  C  C550  1  0.136600  0.500600  0.940300  1.0
  C  C551  1  0.999400  0.636600  0.190300  1.0
  C  C552  1  0.000600  0.363400  0.690300  1.0
  C  C553  1  0.626200  0.970900  0.778100  1.0
  C  C554  1  0.373800  0.029100  0.278100  1.0
  C  C555  1  0.529100  0.126200  0.028100  1.0
  C  C556  1  0.470900  0.873800  0.528100  1.0
  C  C557  1  0.873800  0.470900  0.471900  1.0
  C  C558  1  0.126200  0.529100  0.971900  1.0
  C  C559  1  0.970900  0.626200  0.221900  1.0
  C  C560  1  0.029100  0.373800  0.721900  1.0
  C  C561  1  0.575800  0.953000  0.780900  1.0
  C  C562  1  0.424200  0.047000  0.280900  1.0
  C  C563  1  0.547000  0.075800  0.030900  1.0
  C  C564  1  0.453000  0.924200  0.530900  1.0
  C  C565  1  0.924200  0.453000  0.469100  1.0
  C  C566  1  0.075800  0.547000  0.969100  1.0
  C  C567  1  0.953000  0.575800  0.219100  1.0
  C  C568  1  0.047000  0.424200  0.719100  1.0
  C  C569  1  0.192800  0.762600  0.110600  1.0
  C  C570  1  0.807200  0.237400  0.610600  1.0
  C  C571  1  0.737400  0.692800  0.360600  1.0
  C  C572  1  0.262600  0.307200  0.860600  1.0
  C  C573  1  0.307200  0.262600  0.139400  1.0
  C  C574  1  0.692800  0.737400  0.639400  1.0
  C  C575  1  0.762600  0.192800  0.889400  1.0
  C  C576  1  0.237400  0.807200  0.389400  1.0
  C  C577  1  0.173300  0.781400  0.146700  1.0
  C  C578  1  0.826700  0.218600  0.646700  1.0
  C  C579  1  0.718600  0.673300  0.396700  1.0
  C  C580  1  0.281400  0.326700  0.896700  1.0
  C  C581  1  0.326700  0.281400  0.103300  1.0
  C  C582  1  0.673300  0.718600  0.603300  1.0
  C  C583  1  0.781400  0.173300  0.853300  1.0
  C  C584  1  0.218600  0.826700  0.353300  1.0
  C  C585  1  0.154800  0.753600  0.180200  1.0
  C  C586  1  0.845200  0.246400  0.680200  1.0
  C  C587  1  0.746400  0.654800  0.430200  1.0
  C  C588  1  0.253600  0.345200  0.930200  1.0
  C  C589  1  0.345200  0.253600  0.069800  1.0
  C  C590  1  0.654800  0.746400  0.569800  1.0
  C  C591  1  0.753600  0.154800  0.819800  1.0
  C  C592  1  0.246400  0.845200  0.319800  1.0
  C  C593  1  0.154100  0.704500  0.175300  1.0
  C  C594  1  0.845900  0.295500  0.675300  1.0
  C  C595  1  0.795500  0.654100  0.425300  1.0
  C  C596  1  0.204500  0.345900  0.925300  1.0
  C  C597  1  0.345900  0.204500  0.074700  1.0
  C  C598  1  0.654100  0.795500  0.574700  1.0
  C  C599  1  0.704500  0.154100  0.824700  1.0
  C  C600  1  0.295500  0.845900  0.324700  1.0
  C  C601  1  0.173300  0.690100  0.135000  1.0
  C  C602  1  0.826700  0.309900  0.635000  1.0
  C  C603  1  0.809900  0.673300  0.385000  1.0
  C  C604  1  0.190100  0.326700  0.885000  1.0
  C  C605  1  0.326700  0.190100  0.115000  1.0
  C  C606  1  0.673300  0.809900  0.615000  1.0
  C  C607  1  0.690100  0.173300  0.865000  1.0
  C  C608  1  0.309900  0.826700  0.365000  1.0
  C  C609  1  0.170700  0.642100  0.127000  1.0
  C  C610  1  0.829300  0.357900  0.627000  1.0
  C  C611  1  0.857900  0.670700  0.377000  1.0
  C  C612  1  0.142100  0.329300  0.877000  1.0
  C  C613  1  0.329300  0.142100  0.123000  1.0
  C  C614  1  0.670700  0.857900  0.623000  1.0
  C  C615  1  0.642100  0.170700  0.873000  1.0
  C  C616  1  0.357900  0.829300  0.373000  1.0
  C  C617  1  0.153900  0.606600  0.157800  1.0
  C  C618  1  0.846100  0.393400  0.657800  1.0
  C  C619  1  0.893400  0.653900  0.407800  1.0
  C  C620  1  0.106600  0.346100  0.907800  1.0
  C  C621  1  0.346100  0.106600  0.092200  1.0
  C  C622  1  0.653900  0.893400  0.592200  1.0
  C  C623  1  0.606600  0.153900  0.842200  1.0
  C  C624  1  0.393400  0.846100  0.342200  1.0
  C  C625  1  0.161400  0.558900  0.143600  1.0
  C  C626  1  0.838600  0.441100  0.643600  1.0
  C  C627  1  0.941100  0.661400  0.393600  1.0
  C  C628  1  0.058900  0.338600  0.893600  1.0
  C  C629  1  0.338600  0.058900  0.106400  1.0
  C  C630  1  0.661400  0.941100  0.606400  1.0
  C  C631  1  0.558900  0.161400  0.856400  1.0
  C  C632  1  0.441100  0.838600  0.356400  1.0
  C  C633  1  0.182700  0.545800  0.102300  1.0
  C  C634  1  0.817300  0.454200  0.602300  1.0
  C  C635  1  0.954200  0.682700  0.352300  1.0
  C  C636  1  0.045800  0.317300  0.852300  1.0
  C  C637  1  0.317300  0.045800  0.147700  1.0
  C  C638  1  0.682700  0.954200  0.647700  1.0
  C  C639  1  0.545800  0.182700  0.897700  1.0
  C  C640  1  0.454200  0.817300  0.397700  1.0
  C  C641  1  0.196300  0.580500  0.073300  1.0
  C  C642  1  0.803700  0.419500  0.573300  1.0
  C  C643  1  0.919500  0.696300  0.323300  1.0
  C  C644  1  0.080500  0.303700  0.823300  1.0
  C  C645  1  0.303700  0.080500  0.176700  1.0
  C  C646  1  0.696300  0.919500  0.676700  1.0
  C  C647  1  0.580500  0.196300  0.926700  1.0
  C  C648  1  0.419500  0.803700  0.426700  1.0
  C  C649  1  0.975100  0.959700  0.675700  1.0
  C  C650  1  0.024900  0.040300  0.175700  1.0
  C  C651  1  0.540300  0.475100  0.925700  1.0
  C  C652  1  0.459700  0.524900  0.425700  1.0
  C  C653  1  0.524900  0.459700  0.574300  1.0
  C  C654  1  0.475100  0.540300  0.074300  1.0
  C  C655  1  0.959700  0.975100  0.324300  1.0
  C  C656  1  0.040300  0.024900  0.824300  1.0
  C  C657  1  0.932400  0.972300  0.649600  1.0
  C  C658  1  0.067600  0.027700  0.149600  1.0
  C  C659  1  0.527700  0.432400  0.899600  1.0
  C  C660  1  0.472300  0.567600  0.399600  1.0
  C  C661  1  0.567600  0.472300  0.600400  1.0
  C  C662  1  0.432400  0.527700  0.100400  1.0
  C  C663  1  0.972300  0.932400  0.350400  1.0
  C  C664  1  0.027700  0.067600  0.850400  1.0
  C  C665  1  0.911900  0.017600  0.667300  1.0
  C  C666  1  0.088100  0.982400  0.167300  1.0
  C  C667  1  0.482400  0.411900  0.917300  1.0
  C  C668  1  0.517600  0.588100  0.417300  1.0
  C  C669  1  0.588100  0.517600  0.582700  1.0
  C  C670  1  0.411900  0.482400  0.082700  1.0
  C  C671  1  0.017600  0.911900  0.332700  1.0
  C  C672  1  0.982400  0.088100  0.832700  1.0
  C  C673  1  0.925700  0.029600  0.701600  1.0
  C  C674  1  0.074300  0.970400  0.201600  1.0
  C  C675  1  0.470400  0.425700  0.951600  1.0
  C  C676  1  0.529600  0.574300  0.451600  1.0
  C  C677  1  0.574300  0.529600  0.548400  1.0
  C  C678  1  0.425700  0.470400  0.048400  1.0
  C  C679  1  0.029600  0.925700  0.298400  1.0
  C  C680  1  0.970400  0.074300  0.798400  1.0
  C  C681  1  0.969700  0.019000  0.733600  1.0
  C  C682  1  0.030300  0.981000  0.233600  1.0
  C  C683  1  0.481000  0.469700  0.983600  1.0
  C  C684  1  0.519000  0.530300  0.483600  1.0
  C  C685  1  0.530300  0.519000  0.516400  1.0
  C  C686  1  0.469700  0.481000  0.016400  1.0
  C  C687  1  0.019000  0.969700  0.266400  1.0
  C  C688  1  0.981000  0.030300  0.766400  1.0
  C  C689  1  0.466300  0.417700  0.792900  1.0
  C  C690  1  0.533700  0.582300  0.292900  1.0
  C  C691  1  0.082300  0.966300  0.042900  1.0
  C  C692  1  0.917700  0.033700  0.542900  1.0
  C  C693  1  0.033700  0.917700  0.457100  1.0
  C  C694  1  0.966300  0.082300  0.957100  1.0
  C  C695  1  0.417700  0.466300  0.207100  1.0
  C  C696  1  0.582300  0.533700  0.707100  1.0
  C  C697  1  0.474100  0.369800  0.805200  1.0
  C  C698  1  0.525900  0.630200  0.305200  1.0
  C  C699  1  0.130200  0.974100  0.055200  1.0
  C  C700  1  0.869800  0.025900  0.555200  1.0
  C  C701  1  0.025900  0.869800  0.444800  1.0
  C  C702  1  0.974100  0.130200  0.944800  1.0
  C  C703  1  0.369800  0.474100  0.194800  1.0
  C  C704  1  0.630200  0.525900  0.694800  1.0
  C  C705  1  0.521800  0.354600  0.792300  1.0
  C  C706  1  0.478200  0.645400  0.292300  1.0
  C  C707  1  0.145400  0.021800  0.042300  1.0
  C  C708  1  0.854600  0.978200  0.542300  1.0
  C  C709  1  0.978200  0.854600  0.457700  1.0
  C  C710  1  0.021800  0.145400  0.957700  1.0
  C  C711  1  0.354600  0.521800  0.207700  1.0
  C  C712  1  0.645400  0.478200  0.707700  1.0
  C  C713  1  0.556700  0.377900  0.770800  1.0
  C  C714  1  0.443300  0.622100  0.270800  1.0
  C  C715  1  0.122100  0.056700  0.020800  1.0
  C  C716  1  0.877900  0.943300  0.520800  1.0
  C  C717  1  0.943300  0.877900  0.479200  1.0
  C  C718  1  0.056700  0.122100  0.979200  1.0
  C  C719  1  0.377900  0.556700  0.229200  1.0
  C  C720  1  0.622100  0.443300  0.729200  1.0
  C  C721  1  0.544900  0.426800  0.761000  1.0
  C  C722  1  0.455100  0.573200  0.261000  1.0
  C  C723  1  0.073200  0.044900  0.011000  1.0
  C  C724  1  0.926800  0.955100  0.511000  1.0
  C  C725  1  0.955100  0.926800  0.489000  1.0
  C  C726  1  0.044900  0.073200  0.989000  1.0
  C  C727  1  0.426800  0.544900  0.239000  1.0
  C  C728  1  0.573200  0.455100  0.739000  1.0
  N  N729  1  0.912500  0.339900  0.550900  1
  N  N730  1  0.087500  0.660100  0.050900  1
  N  N731  1  0.160100  0.412500  0.800900  1
  N  N732  1  0.839900  0.587500  0.300900  1
  N  N733  1  0.587500  0.839900  0.699100  1
  N  N734  1  0.412500  0.160100  0.199100  1
  N  N735  1  0.339900  0.912500  0.449100  1
  N  N736  1  0.660100  0.087500  0.949100  1
  N  N737  1  0.553300  0.884500  0.886100  1
  N  N738  1  0.446700  0.115500  0.386100  1
  N  N739  1  0.615500  0.053300  0.136100  1
  N  N740  1  0.384500  0.946700  0.636100  1
  N  N741  1  0.946700  0.384500  0.363900  1
  N  N742  1  0.053300  0.615500  0.863900  1
  N  N743  1  0.884500  0.553300  0.113900  1
  N  N744  1  0.115500  0.446700  0.613900  1
  N  N745  1  0.466400  0.415200  0.673700  1
  N  N746  1  0.533600  0.584800  0.173700  1
  N  N747  1  0.084800  0.966400  0.923700  1
  N  N748  1  0.915200  0.033600  0.423700  1
  N  N749  1  0.033600  0.915200  0.576300  1
  N  N750  1  0.966400  0.084800  0.076300  1
  N  N751  1  0.415200  0.466400  0.326300  1
  N  N752  1  0.584800  0.533600  0.826300  1
  N  N753  1  0.419700  0.928600  0.834500  1.0
  N  N754  1  0.580300  0.071400  0.334500  1.0
  N  N755  1  0.571400  0.919700  0.084500  1.0
  N  N756  1  0.428600  0.080300  0.584500  1.0
  N  N757  1  0.080300  0.428600  0.415500  1.0
  N  N758  1  0.919700  0.571400  0.915500  1.0
  N  N759  1  0.928600  0.419700  0.165500  1.0
  N  N760  1  0.071400  0.580300  0.665500  1.0
  N  N761  1  0.218300  0.737600  0.012400  1.0
  N  N762  1  0.781700  0.262400  0.512400  1.0
  N  N763  1  0.762400  0.718300  0.262400  1.0
  N  N764  1  0.237600  0.281700  0.762400  1.0
  N  N765  1  0.281700  0.237600  0.237600  1.0
  N  N766  1  0.718300  0.762400  0.737600  1.0
  N  N767  1  0.737600  0.218300  0.987600  1.0
  N  N768  1  0.262400  0.781700  0.487600  1.0
  N  N769  1  0.092000  0.935800  0.787500  1.0
  N  N770  1  0.908000  0.064200  0.287500  1.0
  N  N771  1  0.564200  0.592000  0.037500  1.0
  N  N772  1  0.435800  0.408000  0.537500  1.0
  N  N773  1  0.408000  0.435800  0.462500  1.0
  N  N774  1  0.592000  0.564200  0.962500  1.0
  N  N775  1  0.935800  0.092000  0.212500  1.0
  N  N776  1  0.064200  0.908000  0.712500  1.0
  N  N777  1  0.282900  0.853600  0.907500  1.0
  N  N778  1  0.717100  0.146400  0.407500  1.0
  N  N779  1  0.646400  0.782900  0.157500  1.0
  N  N780  1  0.353600  0.217100  0.657500  1.0
  N  N781  1  0.217100  0.353600  0.342500  1.0
  N  N782  1  0.782900  0.646400  0.842500  1.0
  N  N783  1  0.853600  0.282900  0.092500  1.0
  N  N784  1  0.146400  0.717100  0.592500  1.0
  N  N785  1  0.200800  0.859700  0.895200  1.0
  N  N786  1  0.799200  0.140300  0.395200  1.0
  N  N787  1  0.640300  0.700800  0.145200  1.0
  N  N788  1  0.359700  0.299200  0.645200  1.0
  N  N789  1  0.299200  0.359700  0.354800  1.0
  N  N790  1  0.700800  0.640300  0.854800  1.0
  N  N791  1  0.859700  0.200800  0.104800  1.0
  N  N792  1  0.140300  0.799200  0.604800  1.0
  N  N793  1  0.249300  0.903200  0.849900  1.0
  N  N794  1  0.750700  0.096800  0.349900  1.0
  N  N795  1  0.596800  0.749300  0.099900  1.0
  N  N796  1  0.403200  0.250700  0.599900  1.0
  N  N797  1  0.250700  0.403200  0.400100  1.0
  N  N798  1  0.749300  0.596800  0.900100  1.0
  N  N799  1  0.903200  0.249300  0.150100  1.0
  N  N800  1  0.096800  0.750700  0.650100  1.0
  N  N801  1  0.222700  0.642200  0.995500  1.0
  N  N802  1  0.777300  0.357800  0.495500  1.0
  N  N803  1  0.857800  0.722700  0.245500  1.0
  N  N804  1  0.142200  0.277300  0.745500  1.0
  N  N805  1  0.277300  0.142200  0.254500  1.0
  N  N806  1  0.722700  0.857800  0.754500  1.0
  N  N807  1  0.642200  0.222700  0.004500  1.0
  N  N808  1  0.357800  0.777300  0.504500  1.0
  N  N809  1  0.485000  0.898500  0.772900  1.0
  N  N810  1  0.515000  0.101500  0.272900  1.0
  N  N811  1  0.601500  0.985000  0.022900  1.0
  N  N812  1  0.398500  0.015000  0.522900  1.0
  N  N813  1  0.015000  0.398500  0.477100  1.0
  N  N814  1  0.985000  0.601500  0.977100  1.0
  N  N815  1  0.898500  0.485000  0.227100  1.0
  N  N816  1  0.101500  0.515000  0.727100  1.0
  N  N817  1  0.427500  0.517200  0.777000  1.0
  N  N818  1  0.572500  0.482800  0.277000  1.0
  N  N819  1  0.982800  0.927500  0.027000  1.0
  N  N820  1  0.017200  0.072500  0.527000  1.0
  N  N821  1  0.072500  0.017200  0.473000  1.0
  N  N822  1  0.927500  0.982800  0.973000  1.0
  N  N823  1  0.517200  0.427500  0.223000  1.0
  N  N824  1  0.482800  0.572500  0.723000  1.0
  N  N825  1  0.286800  0.560100  0.866900  1.0
  N  N826  1  0.713200  0.439900  0.366900  1.0
  N  N827  1  0.939900  0.786800  0.116900  1.0
  N  N828  1  0.060100  0.213200  0.616900  1.0
  N  N829  1  0.213200  0.060100  0.383100  1.0
  N  N830  1  0.786800  0.939900  0.883100  1.0
  N  N831  1  0.560100  0.286800  0.133100  1.0
  N  N832  1  0.439900  0.713200  0.633100  1.0
  N  N833  1  0.204600  0.553800  0.853600  1.0
  N  N834  1  0.795400  0.446200  0.353600  1.0
  N  N835  1  0.946200  0.704600  0.103600  1.0
  N  N836  1  0.053800  0.295400  0.603600  1.0
  N  N837  1  0.295400  0.053800  0.396400  1.0
  N  N838  1  0.704600  0.946200  0.896400  1.0
  N  N839  1  0.553800  0.204600  0.146400  1.0
  N  N840  1  0.446200  0.795400  0.646400  1.0
  N  N841  1  0.255400  0.528900  0.797600  1.0
  N  N842  1  0.744600  0.471100  0.297600  1.0
  N  N843  1  0.971100  0.755400  0.047600  1.0
  N  N844  1  0.028900  0.244600  0.547600  1.0
  N  N845  1  0.244600  0.028900  0.452400  1.0
  N  N846  1  0.755400  0.971100  0.952400  1.0
  N  N847  1  0.528900  0.255400  0.202400  1.0
  N  N848  1  0.471100  0.744600  0.702400  1.0
  N  N849  1  0.485900  0.998300  0.864600  1.0
  N  N850  1  0.514100  0.001700  0.364600  1.0
  N  N851  1  0.501700  0.985900  0.114600  1.0
  N  N852  1  0.498300  0.014100  0.614600  1.0
  N  N853  1  0.014100  0.498300  0.385400  1.0
  N  N854  1  0.985900  0.501700  0.885400  1.0
  N  N855  1  0.998300  0.485900  0.135400  1.0
  N  N856  1  0.001700  0.514100  0.635400  1.0
  N  N857  1  0.549300  0.969800  0.809700  1.0
  N  N858  1  0.450700  0.030200  0.309700  1.0
  N  N859  1  0.530200  0.049300  0.059700  1.0
  N  N860  1  0.469800  0.950700  0.559700  1.0
  N  N861  1  0.950700  0.469800  0.440300  1.0
  N  N862  1  0.049300  0.530200  0.940300  1.0
  N  N863  1  0.969800  0.549300  0.190300  1.0
  N  N864  1  0.030200  0.450700  0.690300  1.0
  N  N865  1  0.189800  0.711600  0.102400  1.0
  N  N866  1  0.810200  0.288400  0.602400  1.0
  N  N867  1  0.788400  0.689800  0.352400  1.0
  N  N868  1  0.211600  0.310200  0.852400  1.0
  N  N869  1  0.310200  0.211600  0.147600  1.0
  N  N870  1  0.689800  0.788400  0.647600  1.0
  N  N871  1  0.711600  0.189800  0.897600  1.0
  N  N872  1  0.288400  0.810200  0.397600  1.0
  N  N873  1  0.191200  0.627700  0.089000  1.0
  N  N874  1  0.808800  0.372300  0.589000  1.0
  N  N875  1  0.872300  0.691200  0.339000  1.0
  N  N876  1  0.127700  0.308800  0.839000  1.0
  N  N877  1  0.308800  0.127700  0.161000  1.0
  N  N878  1  0.691200  0.872300  0.661000  1.0
  N  N879  1  0.627700  0.191200  0.911000  1.0
  N  N880  1  0.372300  0.808800  0.411000  1.0
  N  N881  1  0.984800  0.977600  0.711600  1.0
  N  N882  1  0.015200  0.022400  0.211600  1.0
  N  N883  1  0.522400  0.484800  0.961600  1.0
  N  N884  1  0.477600  0.515200  0.461600  1.0
  N  N885  1  0.515200  0.477600  0.538400  1.0
  N  N886  1  0.484800  0.522400  0.038400  1.0
  N  N887  1  0.977600  0.984800  0.288400  1.0
  N  N888  1  0.022400  0.015200  0.788400  1.0
  N  N889  1  0.501500  0.443400  0.771500  1.0
  N  N890  1  0.498500  0.556600  0.271500  1.0
  N  N891  1  0.056600  0.001500  0.021500  1.0
  N  N892  1  0.943400  0.998500  0.521500  1.0
  N  N893  1  0.998500  0.943400  0.478500  1.0
  N  N894  1  0.001500  0.056600  0.978500  1.0
  N  N895  1  0.443400  0.501500  0.228500  1.0
  N  N896  1  0.556600  0.498500  0.728500  1.0
  O  O897  1  0.908000  0.377100  0.537900  1
  O  O898  1  0.092000  0.622900  0.037900  1
  O  O899  1  0.122900  0.408000  0.787900  1
  O  O900  1  0.877100  0.592000  0.287900  1
  O  O901  1  0.592000  0.877100  0.712100  1
  O  O902  1  0.408000  0.122900  0.212100  1
  O  O903  1  0.377100  0.908000  0.462100  1
  O  O904  1  0.622900  0.092000  0.962100  1
  O  O905  1  0.924300  0.333333  0.589700  1
  O  O906  1  0.075700  0.666667  0.089700  1
  O  O907  1  0.166667  0.424300  0.839700  1
  O  O908  1  0.833333  0.575700  0.339700  1
  O  O909  1  0.575700  0.833333  0.660300  1
  O  O910  1  0.424300  0.166667  0.160300  1
  O  O911  1  0.333333  0.924300  0.410300  1
  O  O912  1  0.666667  0.075700  0.910300  1
  O  O913  1  0.904000  0.306900  0.525900  1
  O  O914  1  0.096000  0.693100  0.025900  1
  O  O915  1  0.193100  0.404000  0.775900  1
  O  O916  1  0.806900  0.596000  0.275900  1
  O  O917  1  0.596000  0.806900  0.724100  1
  O  O918  1  0.404000  0.193100  0.224100  1
  O  O919  1  0.306900  0.904000  0.474100  1
  O  O920  1  0.693100  0.096000  0.974100  1
  O  O921  1  0.584400  0.885600  0.861300  1
  O  O922  1  0.415600  0.114400  0.361300  1
  O  O923  1  0.614400  0.084400  0.111300  1
  O  O924  1  0.385600  0.915600  0.611300  1
  O  O925  1  0.915600  0.385600  0.388700  1
  O  O926  1  0.084400  0.614400  0.888700  1
  O  O927  1  0.885600  0.584400  0.138700  1
  O  O928  1  0.114400  0.415600  0.638700  1
  O  O929  1  0.527600  0.845700  0.889900  1
  O  O930  1  0.472400  0.154300  0.389900  1
  O  O931  1  0.654300  0.027600  0.139900  1
  O  O932  1  0.345700  0.972400  0.639900  1
  O  O933  1  0.972400  0.345700  0.360100  1
  O  O934  1  0.027600  0.654300  0.860100  1
  O  O935  1  0.845700  0.527600  0.110100  1
  O  O936  1  0.154300  0.472400  0.610100  1
  O  O937  1  0.540200  0.916900  0.909900  1
  O  O938  1  0.459800  0.083100  0.409900  1
  O  O939  1  0.583100  0.040200  0.159900  1
  O  O940  1  0.416900  0.959800  0.659900  1
  O  O941  1  0.959800  0.416900  0.340100  1
  O  O942  1  0.040200  0.583100  0.840100  1
  O  O943  1  0.916900  0.540200  0.090100  1
  O  O944  1  0.083100  0.459800  0.590100  1
  O  O945  1  0.449200  0.463200  0.664200  1
  O  O946  1  0.550800  0.536800  0.164200  1
  O  O947  1  0.036800  0.949200  0.914200  1
  O  O948  1  0.963200  0.050800  0.414200  1
  O  O949  1  0.050800  0.963200  0.585800  1
  O  O950  1  0.949200  0.036800  0.085800  1
  O  O951  1  0.463200  0.449200  0.335800  1
  O  O952  1  0.536800  0.550800  0.835800  1
  O  O953  1  0.510200  0.409700  0.657700  1
  O  O954  1  0.489800  0.590300  0.157700  1
  O  O955  1  0.090300  0.010200  0.907700  1
  O  O956  1  0.909700  0.989800  0.407700  1
  O  O957  1  0.989800  0.909700  0.592300  1
  O  O958  1  0.010200  0.090300  0.092300  1
  O  O959  1  0.409700  0.510200  0.342300  1
  O  O960  1  0.590300  0.489800  0.842300  1
  O  O961  1  0.439100  0.389200  0.692400  1
  O  O962  1  0.560900  0.610800  0.192400  1
  O  O963  1  0.110800  0.939100  0.942400  1
  O  O964  1  0.889200  0.060900  0.442400  1
  O  O965  1  0.060900  0.889200  0.557600  1
  O  O966  1  0.939100  0.110800  0.057600  1
  O  O967  1  0.389200  0.439100  0.307600  1
  O  O968  1  0.610800  0.560900  0.807600  1
  O  O969  1  0.590700  0.794600  0.814200  1
  O  O970  1  0.409300  0.205400  0.314200  1
  O  O971  1  0.705400  0.090700  0.064200  1
  O  O972  1  0.294600  0.909300  0.564200  1
  O  O973  1  0.909300  0.294600  0.435800  1
  O  O974  1  0.090700  0.705400  0.935800  1
  O  O975  1  0.794600  0.590700  0.185800  1
  O  O976  1  0.205400  0.409300  0.685800  1
  O  O977  1  0.010500  0.735500  0.761000  1
  O  O978  1  0.989500  0.264500  0.261000  1
  O  O979  1  0.764500  0.510500  0.011000  1
  O  O980  1  0.235500  0.489500  0.511000  1
  O  O981  1  0.489500  0.235500  0.489000  1
  O  O982  1  0.510500  0.764500  0.989000  1
  O  O983  1  0.735500  0.010500  0.239000  1
  O  O984  1  0.264500  0.989500  0.739000  1
  O  O985  1  0.476800  0.852300  0.965200  1
  O  O986  1  0.523200  0.147700  0.465200  1
  O  O987  1  0.647700  0.976800  0.215200  1
  O  O988  1  0.352300  0.023200  0.715200  1
  O  O989  1  0.023200  0.352300  0.284800  1
  O  O990  1  0.976800  0.647700  0.784800  1
  O  O991  1  0.852300  0.476800  0.034800  1
  O  O992  1  0.147700  0.523200  0.534800  1
  O  O993  1  0.089300  0.660700  0.507000  1
  O  O994  1  0.910700  0.339300  0.007000  1
  O  O995  1  0.839300  0.589300  0.757000  1
  O  O996  1  0.160700  0.410700  0.257000  1
  O  O997  1  0.410700  0.160700  0.743000  1
  O  O998  1  0.589300  0.839300  0.243000  1
  O  O999  1  0.660700  0.089300  0.493000  1
  O  O1000  1  0.339300  0.910700  0.993000  1
  O  O1001  1  0.355200  0.408000  0.716000  1
  O  O1002  1  0.644800  0.592000  0.216000  1
  O  O1003  1  0.092000  0.855200  0.966000  1
  O  O1004  1  0.908000  0.144800  0.466000  1
  O  O1005  1  0.144800  0.908000  0.534000  1
  O  O1006  1  0.855200  0.092000  0.034000  1
  O  O1007  1  0.408000  0.355200  0.284000  1
  O  O1008  1  0.592000  0.644800  0.784000  1
  O  O1009  1  0.381900  0.833000  0.984900  1
  O  O1010  1  0.618100  0.167000  0.484900  1
  O  O1011  1  0.667000  0.881900  0.234900  1
  O  O1012  1  0.333000  0.118100  0.734900  1
  O  O1013  1  0.118100  0.333000  0.265100  1
  O  O1014  1  0.881900  0.667000  0.765100  1
  O  O1015  1  0.833000  0.381900  0.015100  1
  O  O1016  1  0.167000  0.618100  0.515100  1
  O  O1017  1  0.123000  0.426000  0.186000  1
  O  O1018  1  0.877000  0.574000  0.686000  1
  O  O1019  1  0.074000  0.623000  0.436000  1
  O  O1020  1  0.926000  0.377000  0.936000  1
  O  O1021  1  0.377000  0.926000  0.064000  1
  O  O1022  1  0.623000  0.074000  0.564000  1
  O  O1023  1  0.426000  0.123000  0.814000  1
  O  O1024  1  0.574000  0.877000  0.314000  1
  O  O1025  1  0.503600  0.771000  0.490400  1
  O  O1026  1  0.496400  0.229000  0.990400  1
  O  O1027  1  0.729000  0.003600  0.740400  1
  O  O1028  1  0.271000  0.996400  0.240400  1
  O  O1029  1  0.996400  0.271000  0.759600  1
  O  O1030  1  0.003600  0.729000  0.259600  1
  O  O1031  1  0.771000  0.503600  0.509600  1
  O  O1032  1  0.229000  0.496400  0.009600  1
  O  O1033  1  0.137700  0.794200  0.441100  1
  O  O1034  1  0.862300  0.205800  0.941100  1
  O  O1035  1  0.705800  0.637700  0.691100  1
  O  O1036  1  0.294200  0.362300  0.191100  1
  O  O1037  1  0.362300  0.294200  0.808900  1
  O  O1038  1  0.637700  0.705800  0.308900  1
  O  O1039  1  0.794200  0.137700  0.558900  1
  O  O1040  1  0.205800  0.862300  0.058900  1
  O  O1041  1  0.014300  0.809400  0.828100  1
  O  O1042  1  0.985700  0.190600  0.328100  1
  O  O1043  1  0.690600  0.514300  0.078100  1
  O  O1044  1  0.309400  0.485700  0.578100  1
  O  O1045  1  0.485700  0.309400  0.421900  1
  O  O1046  1  0.514300  0.690600  0.921900  1
  O  O1047  1  0.809400  0.014300  0.171900  1
  O  O1048  1  0.190600  0.985700  0.671900  1
  O  O1049  1  0.420300  0.250900  0.753100  1
  O  O1050  1  0.579700  0.749100  0.253100  1
  O  O1051  1  0.249100  0.920300  0.003100  1
  O  O1052  1  0.750900  0.079700  0.503100  1
  O  O1053  1  0.079700  0.750900  0.496900  1
  O  O1054  1  0.920300  0.249100  0.996900  1
  O  O1055  1  0.250900  0.420300  0.246900  1
  O  O1056  1  0.749100  0.579700  0.746900  1
  O  O1057  1  0.608600  0.657000  0.694700  1
  O  O1058  1  0.391400  0.343000  0.194700  1
  O  O1059  1  0.843000  0.108600  0.944700  1
  O  O1060  1  0.157000  0.891400  0.444700  1
  O  O1061  1  0.891400  0.157000  0.555300  1
  O  O1062  1  0.108600  0.843000  0.055300  1
  O  O1063  1  0.657000  0.608600  0.305300  1
  O  O1064  1  0.343000  0.391400  0.805300  1
  O  O1065  1  0.470500  0.294800  0.684800  1
  O  O1066  1  0.529500  0.705200  0.184800  1
  O  O1067  1  0.205200  0.970500  0.934800  1
  O  O1068  1  0.794800  0.029500  0.434800  1
  O  O1069  1  0.029500  0.794800  0.565200  1
  O  O1070  1  0.970500  0.205200  0.065200  1
  O  O1071  1  0.294800  0.470500  0.315200  1
  O  O1072  1  0.705200  0.529500  0.815200  1
  O  O1073  1  0.955400  0.766200  0.692300  1
  O  O1074  1  0.044600  0.233800  0.192300  1
  O  O1075  1  0.733800  0.455400  0.942300  1
  O  O1076  1  0.266200  0.544600  0.442300  1
  O  O1077  1  0.544600  0.266200  0.557700  1
  O  O1078  1  0.455400  0.733800  0.057700  1
  O  O1079  1  0.766200  0.955400  0.307700  1
  O  O1080  1  0.233800  0.044600  0.807700  1
  O  O1081  1  0.575300  0.826000  0.372300  1
  O  O1082  1  0.424700  0.174000  0.872300  1
  O  O1083  1  0.674000  0.075300  0.622300  1
  O  O1084  1  0.326000  0.924700  0.122300  1
  O  O1085  1  0.924700  0.326000  0.877700  1
  O  O1086  1  0.075300  0.674000  0.377700  1
  O  O1087  1  0.826000  0.575300  0.627700  1
  O  O1088  1  0.174000  0.424700  0.127700  1
  O  O1089  1  0.570600  0.731900  0.654300  1
  O  O1090  1  0.429400  0.268100  0.154300  1
  O  O1091  1  0.768100  0.070600  0.904300  1
  O  O1092  1  0.231900  0.929400  0.404300  1
  O  O1093  1  0.929400  0.231900  0.595700  1
  O  O1094  1  0.070600  0.768100  0.095700  1
  O  O1095  1  0.731900  0.570600  0.345700  1
  O  O1096  1  0.268100  0.429400  0.845700  1
  O  O1097  1  0.558600  0.835800  0.460900  1
  O  O1098  1  0.441400  0.164200  0.960900  1
  O  O1099  1  0.664200  0.058600  0.710900  1
  O  O1100  1  0.335800  0.941400  0.210900  1
  O  O1101  1  0.941400  0.335800  0.789100  1
  O  O1102  1  0.058600  0.664200  0.289100  1
  O  O1103  1  0.835800  0.558600  0.539100  1
  O  O1104  1  0.164200  0.441400  0.039100  1
  O  O1105  1  0.251300  0.748700  0.250000  1
  O  O1106  1  0.748700  0.251300  0.750000  1
  O  O1107  1  0.751300  0.751300  0.500000  1
  O  O1108  1  0.248700  0.248700  0.000000  1
  O  O1109  1  0.355000  0.870000  0.237400  1
  O  O1110  1  0.645000  0.130000  0.737400  1
  O  O1111  1  0.630000  0.855000  0.487400  1
  O  O1112  1  0.370000  0.145000  0.987400  1
  O  O1113  1  0.145000  0.370000  0.012600  1
  O  O1114  1  0.855000  0.630000  0.512600  1
  O  O1115  1  0.870000  0.355000  0.762600  1
  O  O1116  1  0.130000  0.645000  0.262600  1
  O  O1117  1  0.919000  0.628000  0.665000  1
  O  O1118  1  0.081000  0.372000  0.165000  1
  O  O1119  1  0.872000  0.419000  0.915000  1
  O  O1120  1  0.128000  0.581000  0.415000  1
  O  O1121  1  0.581000  0.128000  0.585000  1
  O  O1122  1  0.419000  0.872000  0.085000  1
  O  O1123  1  0.628000  0.919000  0.335000  1
  O  O1124  1  0.372000  0.081000  0.835000  1
  O  O1125  1  0.457000  0.851700  0.240400  1
  O  O1126  1  0.543000  0.148300  0.740400  1
  O  O1127  1  0.648300  0.957000  0.490400  1
  O  O1128  1  0.351700  0.043000  0.990400  1
  O  O1129  1  0.043000  0.351700  0.009600  1
  O  O1130  1  0.957000  0.648300  0.509600  1
  O  O1131  1  0.851700  0.457000  0.759600  1
  O  O1132  1  0.148300  0.543000  0.259600  1
  O  O1133  1  0.021500  0.736700  0.426700  1
  O  O1134  1  0.978500  0.263300  0.926700  1
  O  O1135  1  0.763300  0.521500  0.676700  1
  O  O1136  1  0.236700  0.478500  0.176700  1
  O  O1137  1  0.478500  0.236700  0.823300  1
  O  O1138  1  0.521500  0.763300  0.323300  1
  O  O1139  1  0.736700  0.021500  0.573300  1
  O  O1140  1  0.263300  0.978500  0.073300  1
  O  O1141  1  0.319000  0.693000  0.419000  1
  O  O1142  1  0.681000  0.307000  0.919000  1
  O  O1143  1  0.807000  0.819000  0.669000  1
  O  O1144  1  0.193000  0.181000  0.169000  1
  O  O1145  1  0.181000  0.193000  0.831000  1
  O  O1146  1  0.819000  0.807000  0.331000  1
  O  O1147  1  0.693000  0.319000  0.581000  1
  O  O1148  1  0.307000  0.681000  0.081000  1
  O  O1149  1  0.011000  0.658000  0.562900  1
  O  O1150  1  0.989000  0.342000  0.062900  1
  O  O1151  1  0.842000  0.511000  0.812900  1
  O  O1152  1  0.158000  0.489000  0.312900  1
  O  O1153  1  0.489000  0.158000  0.687100  1
  O  O1154  1  0.511000  0.842000  0.187100  1
  O  O1155  1  0.658000  0.011000  0.437100  1
  O  O1156  1  0.342000  0.989000  0.937100  1
  O  O1157  1  0.526000  0.636700  0.561900  1
  O  O1158  1  0.474000  0.363300  0.061900  1
  O  O1159  1  0.863300  0.026000  0.811900  1
  O  O1160  1  0.136700  0.974000  0.311900  1
  O  O1161  1  0.974000  0.136700  0.688100  1
  O  O1162  1  0.026000  0.863300  0.188100  1
  O  O1163  1  0.636700  0.526000  0.438100  1
  O  O1164  1  0.363300  0.474000  0.938100  1
  O  O1165  1  0.478500  0.706500  0.388700  1
  O  O1166  1  0.521500  0.293500  0.888700  1
  O  O1167  1  0.793500  0.978500  0.638700  1
  O  O1168  1  0.206500  0.021500  0.138700  1
  O  O1169  1  0.021500  0.206500  0.861300  1
  O  O1170  1  0.978500  0.793500  0.361300  1
  O  O1171  1  0.706500  0.478500  0.611300  1
  O  O1172  1  0.293500  0.521500  0.111300  1
  O  O1173  1  0.246900  0.682600  0.386300  1
  O  O1174  1  0.753100  0.317400  0.886300  1
  O  O1175  1  0.817400  0.746900  0.636300  1
  O  O1176  1  0.182600  0.253100  0.136300  1
  O  O1177  1  0.253100  0.182600  0.863700  1
  O  O1178  1  0.746900  0.817400  0.363700  1
  O  O1179  1  0.682600  0.246900  0.613700  1
  O  O1180  1  0.317400  0.753100  0.113700  1
  O  O1181  1  0.169800  0.882000  0.244000  1
  O  O1182  1  0.830200  0.118000  0.744000  1
  O  O1183  1  0.618000  0.669800  0.494000  1
  O  O1184  1  0.382000  0.330200  0.994000  1
  O  O1185  1  0.330200  0.382000  0.006000  1
  O  O1186  1  0.669800  0.618000  0.506000  1
  O  O1187  1  0.882000  0.169800  0.756000  1
  O  O1188  1  0.118000  0.830200  0.256000  1
  O  O1189  1  0.531400  0.736300  0.575700  1
  O  O1190  1  0.468600  0.263700  0.075700  1
  O  O1191  1  0.763700  0.031400  0.825700  1
  O  O1192  1  0.236300  0.968600  0.325700  1
  O  O1193  1  0.968600  0.236300  0.674300  1
  O  O1194  1  0.031400  0.763700  0.174300  1
  O  O1195  1  0.736300  0.531400  0.424300  1
  O  O1196  1  0.263700  0.468600  0.924300  1
  O  O1197  1  0.275100  0.821100  0.203700  1
  O  O1198  1  0.724900  0.178900  0.703700  1
  O  O1199  1  0.678900  0.775100  0.453700  1
  O  O1200  1  0.321100  0.224900  0.953700  1
  O  O1201  1  0.224900  0.321100  0.046300  1
  O  O1202  1  0.775100  0.678900  0.546300  1
  O  O1203  1  0.821100  0.275100  0.796300  1
  O  O1204  1  0.178900  0.724900  0.296300  1
  O  O1205  1  0.962000  0.673000  0.624000  1
  O  O1206  1  0.038000  0.327000  0.124000  1
  O  O1207  1  0.827000  0.462000  0.874000  1
  O  O1208  1  0.173000  0.538000  0.374000  1
  O  O1209  1  0.538000  0.173000  0.626000  1
  O  O1210  1  0.462000  0.827000  0.126000  1
  O  O1211  1  0.673000  0.962000  0.376000  1
  O  O1212  1  0.327000  0.038000  0.876000  1
  O  O1213  1  0.332000  0.726000  0.320000  1
  O  O1214  1  0.668000  0.274000  0.820000  1
  O  O1215  1  0.774000  0.832000  0.570000  1
  O  O1216  1  0.226000  0.168000  0.070000  1
  O  O1217  1  0.168000  0.226000  0.930000  1
  O  O1218  1  0.832000  0.774000  0.430000  1
  O  O1219  1  0.726000  0.332000  0.680000  1
  O  O1220  1  0.274000  0.668000  0.180000  1
  O  O1221  1  0.590000  0.613000  0.633600  1
  O  O1222  1  0.410000  0.387000  0.133600  1
  O  O1223  1  0.887000  0.090000  0.883600  1
  O  O1224  1  0.113000  0.910000  0.383600  1
  O  O1225  1  0.910000  0.113000  0.616400  1
  O  O1226  1  0.090000  0.887000  0.116400  1
  O  O1227  1  0.613000  0.590000  0.366400  1
  O  O1228  1  0.387000  0.410000  0.866400  1
  O  O1229  1  0.180000  0.903000  0.169600  1
  O  O1230  1  0.820000  0.097000  0.669600  1
  O  O1231  1  0.597000  0.680000  0.419600  1
  O  O1232  1  0.403000  0.320000  0.919600  1
  O  O1233  1  0.320000  0.403000  0.080400  1
  O  O1234  1  0.680000  0.597000  0.580400  1
  O  O1235  1  0.903000  0.180000  0.830400  1
  O  O1236  1  0.097000  0.820000  0.330400  1
  O  O1237  1  0.634000  0.334000  0.712000  1
  O  O1238  1  0.366000  0.666000  0.212000  1
  O  O1239  1  0.166000  0.134000  0.962000  1
  O  O1240  1  0.834000  0.866000  0.462000  1
  O  O1241  1  0.866000  0.834000  0.538000  1
  O  O1242  1  0.134000  0.166000  0.038000  1
  O  O1243  1  0.334000  0.634000  0.288000  1
  O  O1244  1  0.666000  0.366000  0.788000  1
  O  O1245  1  0.191000  0.704000  0.404000  1
  O  O1246  1  0.809000  0.296000  0.904000  1
  O  O1247  1  0.796000  0.691000  0.654000  1
  O  O1248  1  0.204000  0.309000  0.154000  1
  O  O1249  1  0.309000  0.204000  0.846000  1
  O  O1250  1  0.691000  0.796000  0.346000  1
  O  O1251  1  0.704000  0.191000  0.596000  1
  O  O1252  1  0.296000  0.809000  0.096000  1
  O  O1253  1  0.143000  0.738000  0.360000  1
  O  O1254  1  0.857000  0.262000  0.860000  1
  O  O1255  1  0.762000  0.643000  0.610000  1
  O  O1256  1  0.238000  0.357000  0.110000  1
  O  O1257  1  0.357000  0.238000  0.890000  1
  O  O1258  1  0.643000  0.762000  0.390000  1
  O  O1259  1  0.738000  0.143000  0.640000  1
  O  O1260  1  0.262000  0.857000  0.140000  1
  O  O1261  1  0.591000  0.360000  0.640000  1
  O  O1262  1  0.409000  0.640000  0.140000  1
  O  O1263  1  0.140000  0.091000  0.890000  1
  O  O1264  1  0.860000  0.909000  0.390000  1
  O  O1265  1  0.909000  0.860000  0.610000  1
  O  O1266  1  0.091000  0.140000  0.110000  1
  O  O1267  1  0.360000  0.591000  0.360000  1
  O  O1268  1  0.640000  0.409000  0.860000  1
  O  O1269  1  0.902000  0.913000  0.759000  1
  O  O1270  1  0.098000  0.087000  0.259000  1
  O  O1271  1  0.587000  0.402000  0.009000  1
  O  O1272  1  0.413000  0.598000  0.509000  1
  O  O1273  1  0.598000  0.413000  0.491000  1
  O  O1274  1  0.402000  0.587000  0.991000  1
  O  O1275  1  0.913000  0.902000  0.241000  1
  O  O1276  1  0.087000  0.098000  0.741000  1
  O  O1277  1  0.382000  0.731000  0.272000  1
  O  O1278  1  0.618000  0.269000  0.772000  1
  O  O1279  1  0.769000  0.882000  0.522000  1
  O  O1280  1  0.231000  0.118000  0.022000  1
  O  O1281  1  0.118000  0.231000  0.978000  1
  O  O1282  1  0.882000  0.769000  0.478000  1
  O  O1283  1  0.731000  0.382000  0.728000  1
  O  O1284  1  0.269000  0.618000  0.228000  1
  O  O1285  1  0.960000  0.732000  0.483000  1
  O  O1286  1  0.040000  0.268000  0.983000  1
  O  O1287  1  0.768000  0.460000  0.733000  1
  O  O1288  1  0.232000  0.540000  0.233000  1
  O  O1289  1  0.540000  0.232000  0.767000  1
  O  O1290  1  0.460000  0.768000  0.267000  1
  O  O1291  1  0.732000  0.960000  0.517000  1
  O  O1292  1  0.268000  0.040000  0.017000  1
  O  O1293  1  0.424100  0.908000  0.264800  1
  O  O1294  1  0.575900  0.092000  0.764800  1
  O  O1295  1  0.592000  0.924100  0.514800  1
  O  O1296  1  0.408000  0.075900  0.014800  1
  O  O1297  1  0.075900  0.408000  0.985200  1
  O  O1298  1  0.924100  0.592000  0.485200  1
  O  O1299  1  0.908000  0.424100  0.735200  1
  O  O1300  1  0.092000  0.575900  0.235200  1
  O  O1301  1  0.413000  0.666000  0.433000  1
  O  O1302  1  0.587000  0.334000  0.933000  1
  O  O1303  1  0.834000  0.913000  0.683000  1
  O  O1304  1  0.166000  0.087000  0.183000  1
  O  O1305  1  0.087000  0.166000  0.817000  1
  O  O1306  1  0.913000  0.834000  0.317000  1
  O  O1307  1  0.666000  0.413000  0.567000  1
  O  O1308  1  0.334000  0.587000  0.067000  1
  O  O1309  1  0.603000  0.272000  0.687000  1
  O  O1310  1  0.397000  0.728000  0.187000  1
  O  O1311  1  0.228000  0.103000  0.937000  1
  O  O1312  1  0.772000  0.897000  0.437000  1
  O  O1313  1  0.897000  0.772000  0.563000  1
  O  O1314  1  0.103000  0.228000  0.063000  1
  O  O1315  1  0.272000  0.603000  0.313000  1
  O  O1316  1  0.728000  0.397000  0.813000  1
