
#######################################################################
#
#                 Cambridge Crystallographic Data Centre
#                                CCDC 
#
#######################################################################
#
# If this CIF has been generated from an entry in the Cambridge 
# Structural Database, then it will include bibliographic, chemical, 
# crystal, experimental, refinement or atomic coordinate data resulting 
# from the CCDC's data processing and validation procedures.
#
#######################################################################

data_LUGDIA
_chemical_formula_moiety         
'C132 H96 N36 Pd6 12+,12(N1 O3 1-),4(C10 H10 Fe1),79(H2 O1)'
_chemical_name_systematic        
"tetrakis(\m~3~-2,4,6-tris(4-pyridyl)-1,3,5-triazine-N,N',N'')-hexakis(2,2'-bipyridine-N,N')-hexa-palladium dodecanitrate tetrakis(ferrocene) clathrate hydrate"
_symmetry_cell_setting           tetragonal
_symmetry_space_group_name_H-M   'P 41 21 2'
_symmetry_Int_Tables_number      92
_space_group_name_Hall           'P 4abw 2nw'
loop_
_symmetry_equiv_pos_site_id
_symmetry_equiv_pos_as_xyz
1 x,y,z
2 -x,-y,1/2+z
3 1/2-y,1/2+x,1/4+z
4 1/2+y,1/2-x,3/4+z
5 1/2-x,1/2+y,1/4-z
6 1/2+x,1/2-y,3/4-z
7 y,x,-z
8 -y,-x,1/2-z
_cell_length_a                   28.918(7)
_cell_length_b                   28.918(7)
_cell_length_c                   30.428(11)
_cell_angle_alpha                90
_cell_angle_beta                 90
_cell_angle_gamma                90
_cell_volume                     25445.4
_cell_formula_units_Z            4
loop_
_atom_site_label
_atom_site_type_symbol
_atom_site_fract_x
_atom_site_fract_y
_atom_site_fract_z
Pd1 Pd 0.49143(7) 0.50857(7) -0.2500
Pd2 Pd 0.20807(7) 0.68106(7) 0.04892(6)
Pd3 Pd 0.48396(7) 0.94931(7) -0.18074(6)
Pd4 Pd 0.04122(8) 0.95878(8) -0.2500
N1 N 0.4197(7) 0.9286(6) -0.1655(6)
N2 N 0.2183(6) 0.7376(6) 0.0124(5)
N3 N 0.0920(10) 0.9358(10) -0.2125(9)
N4 N 0.2829(9) 0.8536(8) -0.0925(8)
N5 N 0.2008(7) 0.8597(8) -0.1048(7)
N6 N 0.2493(9) 0.9032(9) -0.1501(8)
N7 N 0.2227(6) 0.6422(6) -0.0045(6)
N8 N 0.4850(6) 0.8985(7) -0.2271(6)
N9 N 0.4275(7) 0.5172(7) -0.2230(6)
N10 N 0.2868(7) 0.5601(7) -0.1331(7)
N11 N 0.2046(6) 0.5538(7) -0.1464(6)
N12 N 0.2554(8) 0.5289(7) -0.2024(7)
N13 N 0.4859(8) 0.9983(8) -0.1354(7)
N14 N 0.5493(7) 0.9698(7) -0.1903(7)
N15 N 0.1898(7) 0.7116(7) 0.1024(7)
N16 N 0.1912(8) 0.6277(8) 0.0890(7)
N17 N -0.0152(12) 0.9776(12) -0.2884(12)
N18 N 0.5015(9) 0.4434(9) -0.2285(8)
C1 C 0.4127(10) 0.8993(9) -0.1262(9)
C2 C 0.3697(9) 0.8879(9) -0.1142(8)
C3 C 0.3328(9) 0.9013(9) -0.1380(9)
C4 C 0.3332(10) 0.9284(11) -0.1767(10)
C5 C 0.3858(10) 0.9427(9) -0.1889(9)
C6 C 0.2857(10) 0.8843(10) -0.1282(9)
C7 C 0.1811(9) 0.7563(8) -0.0062(8)
C8 C 0.1861(10) 0.7940(9) -0.0359(8)
C9 C 0.2311(10) 0.8088(10) -0.0499(9)
C10 C 0.2691(10) 0.7902(10) -0.0268(8)
C11 C 0.2632(12) 0.7519(11) -0.0019(11)
C12 C 0.2360(9) 0.8428(8) -0.0843(8)
C13 C 0.1376(13) 0.9554(13) -0.2201(11)
C14 C 0.1751(11) 0.9339(11) -0.1962(10)
C15 C 0.1678(9) 0.9060(9) -0.1630(8)
C16 C 0.1227(9) 0.8922(9) -0.1508(8)
C17 C 0.0867(14) 0.9104(15) -0.1800(13)
C18 C 0.2092(8) 0.8907(8) -0.1391(7)
C19 C 0.2644(9) 0.6240(9) -0.0140(8)
C20 C 0.2742(9) 0.5990(8) -0.0500(8)
C21 C 0.2346(10) 0.5943(10) -0.0804(9)
C22 C 0.1932(9) 0.6101(9) -0.0714(8)
C23 C 0.1881(9) 0.6362(9) -0.0349(8)
C24 C 0.2447(9) 0.5643(8) -0.1199(8)
C25 C 0.4711(9) 0.9083(9) -0.2685(9)
C26 C 0.4648(9) 0.8700(9) -0.2977(9)
C27 C 0.4739(8) 0.8252(8) -0.2838(7)
C28 C 0.4886(9) 0.8160(9) -0.2431(8)
C29 C 0.4929(8) 0.8543(8) -0.2128(7)
C30 C 0.2137(9) 0.5349(8) -0.1843(8)
C31 C 0.3887(10) 0.5031(10) -0.2509(9)
C32 C 0.3442(9) 0.5141(9) -0.2350(8)
C33 C 0.3383(8) 0.5281(7) -0.1926(7)
C34 C 0.3783(12) 0.5347(11) -0.1658(11)
C35 C 0.4245(9) 0.5314(9) -0.1841(8)
C36 C 0.2903(10) 0.5363(9) -0.1756(9)
C37 C 0.4480(12) 1.0144(12) -0.1112(11)
C38 C 0.4553(12) 1.0481(12) -0.0805(11)
C39 C 0.4958(15) 1.0714(14) -0.0765(13)
C40 C 0.5312(15) 1.0553(14) -0.0965(13)
C41 C 0.5284(10) 1.0185(10) -0.1297(9)
C42 C 0.5621(9) 1.0035(9) -0.1567(9)
C43 C 0.6087(12) 1.0215(12) -0.1581(11)
C44 C 0.6366(10) 0.9994(11) -0.1903(10)
C45 C 0.6262(11) 0.9709(11) -0.2219(10)
C46 C 0.5758(11) 0.9530(11) -0.2191(9)
C47 C 0.1928(11) 0.7626(11) 0.1106(10)
C48 C 0.1733(12) 0.7814(13) 0.1467(12)
C49 C 0.1548(11) 0.7536(11) 0.1802(10)
C50 C 0.1541(12) 0.7045(12) 0.1753(11)
C51 C 0.1733(9) 0.6901(10) 0.1350(9)
C52 C 0.1707(9) 0.6421(10) 0.1270(9)
C53 C 0.1539(11) 0.6066(11) 0.1578(10)
C54 C 0.1614(12) 0.5589(12) 0.1436(11)
C55 C 0.1827(12) 0.5458(12) 0.1023(11)
C56 C 0.1963(9) 0.5805(10) 0.0733(9)
C57 C -0.0249(13) 0.9597(13) -0.3243(13)
C58 C -0.0676(15) 0.9723(14) -0.3504(13)
C59 C -0.0881(17) 1.0176(17) -0.3327(16)
C60 C -0.0743(15) 1.0296(14) -0.2984(15)
C61 C -0.0303(12) 1.0190(13) -0.2664(10)
C62 C 0.4663(10) 0.4177(11) -0.2071(9)
C63 C 0.4741(12) 0.3698(11) -0.1948(10)
C64 C 0.5218(13) 0.3546(12) -0.2077(11)
C65 C 0.5567(15) 0.3779(15) -0.2292(14)
C66 C 0.5449(11) 0.4268(11) -0.2390(10)
C27G C 0.1748(8) 0.5261(8) -0.2162(7)
C26G C 0.1300(9) 0.5352(9) -0.2023(9)
C25G C 0.0917(9) 0.5289(9) -0.2315(9)
N8G N 0.1015(7) 0.5150(6) -0.2729(6)
Pd3G Pd 0.05069(7) 0.51604(7) -0.31926(6)
N1G N 0.0714(6) 0.5803(7) -0.3345(6)
C1G C 0.1007(9) 0.5873(10) -0.3738(9)
C2G C 0.1121(9) 0.6303(9) -0.3858(8)
C3G C 0.0987(9) 0.6672(9) -0.3620(9)
C4G C 0.0716(11) 0.6668(10) -0.3233(10)
C5G C 0.0573(9) 0.6142(10) -0.3111(9)
C6G C 0.1157(10) 0.7143(10) -0.3718(9)
N4G N 0.1464(8) 0.7171(9) -0.4075(8)
C12G C 0.1572(8) 0.7640(9) -0.4157(8)
N5G N 0.1403(8) 0.7992(7) -0.3952(7)
C18G C 0.1093(8) 0.7908(8) -0.3609(7)
N6G N 0.0968(9) 0.7507(9) -0.3499(8)
C15G C 0.0940(9) 0.8322(9) -0.3370(8)
C14G C 0.0661(11) 0.8249(11) -0.3038(10)
C13G C 0.0446(13) 0.8624(13) -0.2799(11)
N3G N 0.0642(10) 0.9080(10) -0.2875(9)
C30G C 0.4651(8) 0.7863(9) -0.3157(8)
N11G N 0.4462(7) 0.7954(6) -0.3536(6)
C24G C 0.4357(8) 0.7553(9) -0.3801(8)
N10G N 0.4399(7) 0.7132(7) -0.3669(7)
C36G C 0.4637(9) 0.7097(10) -0.3244(9)
N12G N 0.4711(7) 0.7446(8) -0.2976(7)
C33G C 0.4719(7) 0.6617(8) -0.3074(7)
C32G C 0.4859(9) 0.6558(9) -0.2650(8)
C31G C 0.4969(10) 0.6113(10) -0.2491(9)
N9G N 0.4828(7) 0.5725(7) -0.2770(6)
C66G C 0.5732(11) 0.4551(11) -0.2610(10)
N18G N 0.5566(9) 0.4985(9) -0.2715(8)
C62G C 0.5823(11) 0.5337(10) -0.2929(9)
C63G C 0.6302(11) 0.5259(12) -0.3052(10)
C64G C 0.6454(12) 0.4782(13) -0.2923(11)
C65G C 0.6221(15) 0.4433(15) -0.2708(14)
C35G C 0.4686(9) 0.5755(9) -0.3159(8)
C34G C 0.4653(11) 0.6217(12) -0.3342(11)
C21G C 0.4057(10) 0.7654(10) -0.4196(9)
C20G C 0.4010(8) 0.7258(9) -0.4500(8)
C19G C 0.3760(9) 0.7356(9) -0.4860(8)
N7G N 0.3578(6) 0.7773(6) -0.4955(6)
Pd2G Pd 0.31894(7) 0.79193(7) -0.54892(6)
N2G N 0.2624(6) 0.7817(6) -0.5124(5)
C7G C 0.2437(8) 0.8189(9) -0.4938(8)
C8G C 0.2060(9) 0.8139(10) -0.4641(8)
C9G C 0.1912(10) 0.7689(10) -0.4501(9)
C10G C 0.2098(10) 0.7309(10) -0.4732(8)
C11G C 0.2481(11) 0.7368(12) -0.4981(11)
N15G N 0.2884(7) 0.8102(7) -0.6024(7)
C47G C 0.2374(11) 0.8072(11) -0.6106(10)
C48G C 0.2186(13) 0.8267(12) -0.6467(12)
C49G C 0.2464(11) 0.8452(11) -0.6802(10)
C50G C 0.2955(12) 0.8459(12) -0.6753(11)
C51G C 0.3099(10) 0.8267(9) -0.6350(9)
C52G C 0.3579(10) 0.8293(9) -0.6270(9)
N16G N 0.3723(8) 0.8088(8) -0.5890(7)
C56G C 0.4195(10) 0.8037(9) -0.5733(9)
C55G C 0.4542(12) 0.8173(12) -0.6023(11)
C54G C 0.4411(12) 0.8386(12) -0.6436(11)
C53G C 0.3934(11) 0.8461(11) -0.6578(10)
C23G C 0.3638(9) 0.8119(9) -0.4651(8)
C22G C 0.3899(9) 0.8068(9) -0.4286(8)
C61G C -0.0190(13) 1.0303(12) -0.2336(10)
N17G N 0.0224(12) 1.0152(12) -0.2116(12)
C57G C 0.0403(13) 1.0249(13) -0.1757(13)
C58G C 0.0277(14) 1.0676(15) -0.1496(13)
C59G C -0.0176(17) 1.0881(17) -0.1673(16)
C60G C -0.0296(14) 1.0743(15) -0.2016(15)
C17G C 0.0896(15) 0.9133(14) -0.3200(13)
C16G C 0.1078(9) 0.8773(9) -0.3492(8)
N13G N 0.0017(8) 0.5141(8) -0.3646(7)
C37G C -0.0144(12) 0.5520(12) -0.3888(11)
C38G C -0.0481(12) 0.5447(12) -0.4195(11)
C39G C -0.0714(14) 0.5042(15) -0.4235(13)
C40G C -0.0553(14) 0.4688(15) -0.4035(13)
C41G C -0.0185(10) 0.4716(10) -0.3703(9)
C42G C -0.0035(9) 0.4379(9) -0.3433(9)
N14G N 0.0302(7) 0.4507(7) -0.3097(7)
C46G C 0.0470(11) 0.4242(11) -0.2809(9)
C45G C 0.0291(11) 0.3738(11) -0.2781(10)
C44G C 0.0006(11) 0.3634(10) -0.3097(10)
C43G C -0.0215(12) 0.3913(12) -0.3419(11)
C29G C 0.1457(8) 0.5071(8) -0.2872(7)
C28G C 0.1840(9) 0.5114(9) -0.2569(8)
Fe1 Fe 0.78183(14) 0.67591(16) 0.05583(13)
C67 C 0.7472(14) 0.7221(14) 0.1000(12)
C68 C 0.7210(12) 0.7077(13) 0.0630(11)
C69 C 0.7117(14) 0.6594(14) 0.0609(13)
C70 C 0.7410(13) 0.6461(13) 0.0964(12)
C71 C 0.7592(11) 0.6804(12) 0.1212(10)
C72 C 0.8469(11) 0.7042(11) 0.0463(10)
C73 C 0.8490(10) 0.6577(11) 0.0581(10)
C74 C 0.8228(15) 0.6288(14) 0.0298(13)
C75 C 0.8051(10) 0.6545(10) -0.0035(9)
C76 C 0.8187(11) 0.7057(11) 0.0052(10)
Fe2 Fe 0.38067(18) 0.71432(18) -0.15065(16)
C77 C 0.3487(18) 0.7787(19) -0.1474(17)
C78 C 0.4006(18) 0.7784(17) -0.1763(16)
C79 C 0.4352(18) 0.7640(18) -0.1481(16)
C80 C 0.4120(14) 0.7549(13) -0.1032(12)
C81 C 0.3692(17) 0.7651(17) -0.1072(15)
C82 C 0.4090(15) 0.6556(15) -0.1698(14)
C83 C 0.381(2) 0.681(2) -0.2060(18)
C84 C 0.3351(17) 0.6775(17) -0.1866(16)
C85 C 0.3315(16) 0.6646(16) -0.1380(15)
C86 C 0.3898(19) 0.6468(19) -0.1340(18)
N19 N -0.0875(9) 0.3399(10) -0.4491(9)
O1 O -0.0920(9) 0.3771(10) -0.4621(8)
O2 O -0.0757(8) 0.3333(8) -0.4103(8)
O3 O -0.0960(9) 0.3069(9) -0.4741(8)
N20 N 0.5533(10) 0.8845(9) -0.1139(8)
O4 O 0.5844(7) 0.8856(6) -0.1387(6)
O5 O 0.5276(8) 0.8457(8) -0.1101(7)
O6 O 0.5402(7) 0.9169(7) -0.0901(6)
N21 N 0.4664(16) 0.4152(16) -0.3263(14)
O7 O 0.4492(9) 0.4632(9) -0.3358(8)
O8 O 0.5102(14) 0.4097(12) -0.3423(11)
O9 O 0.4391(13) 0.3892(14) -0.3076(12)
O10 O 0.5907(8) 0.7946(8) -0.1858(7)
O11 O 0.0105(13) 0.7355(13) -0.2390(11)
O12 O 0.4768(8) 0.8523(8) -0.0348(8)
O13 O 0.0893(15) 0.6607(15) -0.4930(14)
O14 O 0.3552(13) 0.4080(13) -0.2840(11)
O15 O 0.3819(11) 0.8330(11) -0.0151(10)
O16 O 0.123(6) 0.426(6) 0.186(5)
O17 O 0.5036(13) 0.7710(13) -0.5096(11)
O18 O 0.1377(14) 0.7942(14) -0.5589(13)
O19 O 0.0143(13) 0.8094(13) -0.1719(12)
O20 O 0.4203(12) 0.2509(12) -0.2469(11)
O21 O 0.6086(14) 0.6570(14) -0.3053(13)
O22 O 0.4705(15) 0.2948(15) -0.3152(14)
O23 O -0.0446(17) 0.7662(17) -0.3077(16)
O24 O 0.5753(13) 0.8260(13) -0.6277(12)
O25 O 0.5706(15) 0.7319(15) -0.3457(14)
O26 O 0.5586(14) 0.8358(14) -0.5391(13)
O27 O 0.2513(16) 0.7487(16) -0.7500
O28 O 0.355(2) 0.870(2) -0.7626(19)
O29 O -0.081(3) 0.628(3) -0.335(2)
O30 O 0.4570(14) 0.8517(15) -0.7596(14)
O31 O 0.0215(17) 0.7367(17) -0.5733(15)
O32 O 0.319(2) 0.693(2) -0.581(2)
O33 O 0.011(2) 0.658(2) -0.4371(18)
O34 O 0.5260(18) 0.6367(19) -0.4381(16)
O35 O 0.4785(18) 0.7065(18) -0.6113(16)
O36 O 0.2469(19) 0.6826(18) -0.6137(16)
O37 O 0.1698(19) 0.882(2) -0.756(2)
O38 O 0.5314(15) 0.7363(15) -0.4243(13)
O39 O 0.2751(18) 0.8211(18) -0.7963(16)
O40 O -0.038(3) 0.673(3) -0.376(3)
O41 O 0.332(2) 0.726(2) -0.680(2)
O42 O 0.590(2) 0.613(2) -0.3664(17)
O43 O 0.180(2) 0.903(2) -0.8304(19)
O44 O 0.634(3) 0.334(3) -0.288(3)
O45 O 0.191(3) 0.704(3) -0.596(3)
O46 O 0.143(3) 0.738(3) -0.640(3)
O47 O 0.591(2) 0.360(2) -0.360(2)
O48 O -0.098(3) 0.913(3) -0.241(3)
O49 O 0.382(2) 0.731(2) -0.728(2)
O50 O -0.040(2) 0.732(3) -0.517(2)
O51 O 0.4241(17) 0.9080(17) -0.7352(15)
O52 O 0.413(3) 0.666(3) -0.567(3)
O53 O 0.603(4) 0.272(5) -0.313(4)
loop_
_geom_bond_atom_site_label_1
_geom_bond_atom_site_label_2
_geom_bond_site_symmetry_1
_geom_bond_site_symmetry_2
Pd1 N9 1_555 1_555
Pd2 N2 1_555 1_555
Pd3 N1 1_555 1_555
Pd4 N3 1_555 1_555
Fe1 C67 1_555 1_555
Fe2 C77 1_555 1_555
N1 C1 1_555 1_555
N2 C7 1_555 1_555
N3 C13 1_555 1_555
N4 C6 1_555 1_555
N5 C12 1_555 1_555
N6 C6 1_555 1_555
N7 Pd2 1_555 1_555
N8 Pd3 1_555 1_555
N9 C31 1_555 1_555
N10 C24 1_555 1_555
N11 C24 1_555 1_555
N12 C30 1_555 1_555
N13 Pd3 1_555 1_555
N14 Pd3 1_555 1_555
N15 Pd2 1_555 1_555
N16 Pd2 1_555 1_555
N17 Pd4 1_555 1_555
N18 Pd1 1_555 1_555
C1 C2 1_555 1_555
C2 C3 1_555 1_555
C3 C4 1_555 1_555
C4 C5 1_555 1_555
C5 N1 1_555 1_555
C6 C3 1_555 1_555
C7 C8 1_555 1_555
C8 C9 1_555 1_555
C9 C10 1_555 1_555
C10 C11 1_555 1_555
C11 N2 1_555 1_555
C12 N4 1_555 1_555
C13 C14 1_555 1_555
C14 C15 1_555 1_555
C15 C16 1_555 1_555
C16 C17 1_555 1_555
C17 N3 1_555 1_555
C18 N5 1_555 1_555
C19 N7 1_555 1_555
C20 C19 1_555 1_555
C21 C20 1_555 1_555
C22 C21 1_555 1_555
C23 N7 1_555 1_555
C24 C21 1_555 1_555
C25 N8 1_555 1_555
C26 C25 1_555 1_555
C27 C26 1_555 1_555
C28 C27 1_555 1_555
C29 N8 1_555 1_555
C30 N11 1_555 1_555
C31 C32 1_555 1_555
C32 C33 1_555 1_555
C33 C34 1_555 1_555
C34 C35 1_555 1_555
C35 N9 1_555 1_555
C36 N10 1_555 1_555
C37 N13 1_555 1_555
C38 C37 1_555 1_555
C39 C38 1_555 1_555
C40 C39 1_555 1_555
C41 N13 1_555 1_555
C42 N14 1_555 1_555
C43 C42 1_555 1_555
C44 C43 1_555 1_555
C45 C44 1_555 1_555
C46 N14 1_555 1_555
C47 N15 1_555 1_555
C48 C47 1_555 1_555
C49 C48 1_555 1_555
C50 C49 1_555 1_555
C51 N15 1_555 1_555
C52 N16 1_555 1_555
C53 C52 1_555 1_555
C54 C53 1_555 1_555
C55 C54 1_555 1_555
C56 N16 1_555 1_555
C57 N17 1_555 1_555
C58 C57 1_555 1_555
C59 C58 1_555 1_555
C60 C59 1_555 1_555
C61 N17 1_555 1_555
C62 N18 1_555 1_555
C63 C62 1_555 1_555
C64 C63 1_555 1_555
C65 C64 1_555 1_555
C66 N18 1_555 1_555
C67 C68 1_555 1_555
C68 Fe1 1_555 1_555
C69 Fe1 1_555 1_555
C70 Fe1 1_555 1_555
C71 Fe1 1_555 1_555
C72 Fe1 1_555 1_555
C73 Fe1 1_555 1_555
C74 Fe1 1_555 1_555
C75 Fe1 1_555 1_555
C76 Fe1 1_555 1_555
C77 C78 1_555 1_555
C78 Fe2 1_555 1_555
C79 Fe2 1_555 1_555
C80 Fe2 1_555 1_555
C81 Fe2 1_555 1_555
C82 Fe2 1_555 1_555
C83 Fe2 1_555 1_555
C84 Fe2 1_555 1_555
C85 Fe2 1_555 1_555
C86 Fe2 1_555 1_555
N19 O1 1_555 1_555
O2 N19 1_555 1_555
O3 N19 1_555 1_555
N20 O4 1_555 1_555
O5 N20 1_555 1_555
O6 N20 1_555 1_555
N21 O7 1_555 1_555
O8 N21 1_555 1_555
O9 N21 1_555 1_555
C27G C30 1_555 1_555
C26G C27G 1_555 1_555
C25G C26G 1_555 1_555
N8G C25G 1_555 1_555
Pd3G N8G 1_555 1_555
N1G Pd3G 1_555 1_555
C1G N1G 1_555 1_555
C2G C1G 1_555 1_555
C3G C2G 1_555 1_555
C4G C3G 1_555 1_555
C5G N1G 1_555 1_555
C6G C3G 1_555 1_555
N4G C6G 1_555 1_555
C12G N4G 1_555 1_555
N5G C12G 1_555 1_555
C18G N5G 1_555 1_555
N6G C6G 1_555 1_555
C15G C18G 1_555 1_555
C14G C15G 1_555 1_555
C13G C14G 1_555 1_555
N3G Pd4 1_555 1_555
C30G C27 1_555 1_555
N11G C30G 1_555 1_555
C24G N11G 1_555 1_555
N10G C24G 1_555 1_555
C36G N10G 1_555 1_555
N12G C30G 1_555 1_555
C33G C36G 1_555 1_555
C32G C33G 1_555 1_555
C31G C32G 1_555 1_555
N9G Pd1 1_555 1_555
C66G C66 1_555 1_555
N18G Pd1 1_555 1_555
C62G N18G 1_555 1_555
C63G C62G 1_555 1_555
C64G C63G 1_555 1_555
C65G C66G 1_555 1_555
C35G N9G 1_555 1_555
C34G C33G 1_555 1_555
C21G C24G 1_555 1_555
C20G C21G 1_555 1_555
C19G C20G 1_555 1_555
N7G C19G 1_555 1_555
Pd2G N7G 1_555 1_555
N2G Pd2G 1_555 1_555
C7G N2G 1_555 1_555
C8G C7G 1_555 1_555
C9G C12G 1_555 1_555
C10G C9G 1_555 1_555
C11G N2G 1_555 1_555
N15G Pd2G 1_555 1_555
C47G N15G 1_555 1_555
C48G C47G 1_555 1_555
C49G C48G 1_555 1_555
C50G C49G 1_555 1_555
C51G N15G 1_555 1_555
C52G C51G 1_555 1_555
N16G Pd2G 1_555 1_555
C56G N16G 1_555 1_555
C55G C56G 1_555 1_555
C54G C55G 1_555 1_555
C53G C52G 1_555 1_555
C23G N7G 1_555 1_555
C22G C21G 1_555 1_555
C61G C61 1_555 1_555
N17G Pd4 1_555 1_555
C57G N17G 1_555 1_555
C58G C57G 1_555 1_555
C59G C58G 1_555 1_555
C60G C61G 1_555 1_555
C17G N3G 1_555 1_555
C16G C15G 1_555 1_555
N13G Pd3G 1_555 1_555
C37G N13G 1_555 1_555
C38G C37G 1_555 1_555
C39G C38G 1_555 1_555
C40G C39G 1_555 1_555
C41G N13G 1_555 1_555
C42G C41G 1_555 1_555
N14G Pd3G 1_555 1_555
C46G N14G 1_555 1_555
C45G C46G 1_555 1_555
C44G C45G 1_555 1_555
C43G C42G 1_555 1_555
C29G N8G 1_555 1_555
C28G C27G 1_555 1_555
N6 C18 1_555 1_555
N12 C36 1_555 1_555
C9 C12 1_555 1_555
C15 C18 1_555 1_555
C22 C23 1_555 1_555
C28 C29 1_555 1_555
C33 C36 1_555 1_555
C40 C41 1_555 1_555
C41 C42 1_555 1_555
C45 C46 1_555 1_555
C50 C51 1_555 1_555
C51 C52 1_555 1_555
C55 C56 1_555 1_555
C60 C61 1_555 1_555
C65 C66 1_555 1_555
C67 C71 1_555 1_555
C68 C69 1_555 1_555
C69 C70 1_555 1_555
C70 C71 1_555 1_555
C72 C73 1_555 1_555
C72 C76 1_555 1_555
C73 C74 1_555 1_555
C74 C75 1_555 1_555
C75 C76 1_555 1_555
C77 C81 1_555 1_555
C78 C79 1_555 1_555
C79 C80 1_555 1_555
C80 C81 1_555 1_555
C82 C83 1_555 1_555
C82 C86 1_555 1_555
C83 C84 1_555 1_555
C84 C85 1_555 1_555
C85 C86 1_555 1_555
C4G C5G 1_555 1_555
C18G N6G 1_555 1_555
C13G N3G 1_555 1_555
C36G N12G 1_555 1_555
C31G N9G 1_555 1_555
C66G N18G 1_555 1_555
C64G C65G 1_555 1_555
C35G C34G 1_555 1_555
C8G C9G 1_555 1_555
C10G C11G 1_555 1_555
C50G C51G 1_555 1_555
C52G N16G 1_555 1_555
C54G C53G 1_555 1_555
C23G C22G 1_555 1_555
C61G N17G 1_555 1_555
C59G C60G 1_555 1_555
C17G C16G 1_555 1_555
C40G C41G 1_555 1_555
C42G N14G 1_555 1_555
C44G C43G 1_555 1_555
C29G C28G 1_555 1_555

#END
