
#######################################################################
#
#                 Cambridge Crystallographic Data Centre
#                                CCDC 
#
#######################################################################
#
# If this CIF has been generated from an entry in the Cambridge 
# Structural Database, then it will include bibliographic, chemical, 
# crystal, experimental, refinement or atomic coordinate data resulting 
# from the CCDC's data processing and validation procedures.
#
#######################################################################

data_LUJCAU
_chemical_formula_moiety         'C192 H168 N24 Pd6 12+,12(N1 O3 1-)'
_chemical_name_systematic        
'octakis(\m~3~-(4-Pyridylmethyl)benzene)-hexa-palladium(ii) dodecanitrate unknown solvate'
_symmetry_cell_setting           tetragonal
_symmetry_space_group_name_H-M   'P 42/n n m'
_symmetry_Int_Tables_number      134
_space_group_name_Hall           '-P 4ac 2bc'
loop_
_symmetry_equiv_pos_site_id
_symmetry_equiv_pos_as_xyz
1 x,y,z
2 1/2-y,x,1/2+z
3 y,1/2-x,1/2+z
4 y,x,-z
5 1/2+x,1/2+y,-z
6 1/2+x,-y,1/2+z
7 -x,1/2+y,1/2+z
8 1/2+y,1/2+x,z
9 -x,-y,-z
10 1/2+y,-x,1/2-z
11 -y,1/2+x,1/2-z
12 -y,-x,z
13 1/2-x,1/2-y,z
14 1/2-x,y,1/2-z
15 x,1/2-y,1/2-z
16 1/2-y,1/2-x,-z
_cell_length_a                   34.312(4)
_cell_length_b                   34.312(4)
_cell_length_c                   29.063(4)
_cell_angle_alpha                90
_cell_angle_beta                 90
_cell_angle_gamma                90
_cell_volume                     34216.3
_exptl_crystal_description       prismatic
_cell_formula_units_Z            4
_exptl_crystal_recrystallization_method 'acetone/dimethyl sulfoxide'
loop_
_atom_site_label
_atom_site_type_symbol
_atom_site_fract_x
_atom_site_fract_y
_atom_site_fract_z
Pd1 Pd 0.16283(6) 0.83717(6) 0.01551(10)
Pd2 Pd 0.00993(2) 0.99007(2) -0.24338(5)
Pd3 Pd 0.16205(7) 1.16205(7) 0.0000
C1 C 0.2149(2) 0.9926(5) -0.2080(3)
C2 C 0.2272(4) 1.0279(4) -0.1896(5)
H1 H 0.2183 1.0517 -0.2024
C3 C 0.2526(4) 1.0283(3) -0.1523(5)
C4 C 0.2657(2) 0.9934(5) -0.1334(3)
H2 H 0.2830 0.9937 -0.1080
C5 C 0.2534(4) 0.9581(3) -0.1519(5)
C6 C 0.2280(3) 0.9577(4) -0.1892(5)
H3 H 0.2196 0.9336 -0.2018
N1 N 0.06792(14) 0.9893(2) -0.2425(3)
C7 C 0.0871(2) 0.9885(4) -0.2846(3)
H4 H 0.0726 0.9872 -0.3124
C8 C 0.1276(2) 0.9895(5) -0.2860(2)
H5 H 0.1408 0.9889 -0.3148
C9 C 0.14887(14) 0.9914(5) -0.2454(3)
C10 C 0.1297(2) 0.9922(4) -0.2033(2)
H6 H 0.1442 0.9935 -0.1755
C11 C 0.0892(2) 0.9912(3) -0.2018(3)
H7 H 0.0760 0.9918 -0.1731
C12 C 0.1926(3) 0.9920(13) -0.2525(5)
H8 H 0.2003 0.9687 -0.2704
H9 H 0.1996 1.0153 -0.2708
N2 N 0.1943(3) 1.1301(3) -0.0426(3)
C13 C 0.2280(4) 1.1472(3) -0.0597(4)
H10 H 0.2350 1.1728 -0.0506
C14 C 0.2516(3) 1.1267(4) -0.0901(5)
H11 H 0.2747 1.1383 -0.1018
C15 C 0.2414(4) 1.0891(4) -0.1034(6)
C16 C 0.2076(4) 1.0721(3) -0.0863(6)
H12 H 0.2007 1.0464 -0.0954
C17 C 0.1841(3) 1.0926(3) -0.0559(4)
H13 H 0.1610 1.0809 -0.0442
C18 C 0.2667(11) 1.0709(11) -0.1392(13)
H14 H 0.2938 1.0697 -0.1277
H15 H 0.2665 1.0874 -0.1672
N3 N 0.1931(4) 0.8630(3) -0.0325(4)
C19 C 0.2275(4) 0.8458(3) -0.0473(5)
H16 H 0.2351 0.8210 -0.0357
C20 C 0.2510(4) 0.8648(4) -0.0792(6)
H17 H 0.2745 0.8530 -0.0894
C21 C 0.2400(4) 0.9010(5) -0.0963(5)
C22 C 0.2055(4) 0.9182(3) -0.0814(5)
H18 H 0.1980 0.9429 -0.0931
C23 C 0.1821(3) 0.8992(3) -0.0495(5)
H19 H 0.1585 0.9109 -0.0394
C24 C 0.2694(7) 0.9257(9) -0.1294(11)
H20 H 0.2916 0.9347 -0.1105
H21 H 0.2799 0.9077 -0.1530
C25 C -0.1970(7) 0.9908(3) -0.2320(3)
C26 C -0.2118(5) 0.9577(4) -0.2107(6)
H22 H -0.2033 0.9326 -0.2201
C27 C -0.2389(4) 0.9613(5) -0.1754(5)
C28 C -0.2512(6) 0.9980(3) -0.1615(3)
H23 H -0.2697 1.0005 -0.1373
C29 C -0.2365(4) 1.0311(5) -0.1829(6)
C30 C -0.2094(5) 1.0275(5) -0.2182(6)
H24 H -0.1993 1.0501 -0.2328
N4 N -0.0474(3) 0.99080(16) -0.2501(4)
C31 C -0.0627(5) 0.9905(2) -0.2944(3)
H25 H -0.0457 0.9908 -0.3202
C32 C -0.1028(7) 0.9898(3) -0.3008(3)
H26 H -0.1133 0.9895 -0.3311
C33 C -0.1276(6) 0.98940(16) -0.2630(3)
C34 C -0.1123(5) 0.9897(2) -0.2188(3)
H27 H -0.1293 0.9894 -0.1929
C35 C -0.0722(4) 0.9904(2) -0.2123(3)
H28 H -0.0617 0.9907 -0.1820
C36 C -0.1710(19) 0.9887(4) -0.2706(6)
H29 H -0.1774 1.0108 -0.2912
H30 H -0.1772 0.9645 -0.2876
N5 N 0.1333(4) 1.1895(4) -0.0494(4)
C37 C 0.1508(4) 1.2226(4) -0.0677(5)
H31 H 0.1751 1.2314 -0.0558
C38 C 0.1329(5) 1.2427(4) -0.1034(5)
H32 H 0.1449 1.2653 -0.1159
C39 C 0.0975(5) 1.2298(5) -0.1208(5)
C40 C 0.0799(4) 1.1967(5) -0.1025(6)
H33 H 0.0557 1.1879 -0.1144
C41 C 0.0979(4) 1.1766(4) -0.0668(5)
H34 H 0.0859 1.1540 -0.0543
C42 C -0.2528(7) 0.9211(12) -0.1593(13)
H35 H -0.2803 0.9234 -0.1492
H36 H -0.2523 0.9032 -0.1860
N6 N 0.1319(3) 0.8086(3) 0.0638(3)
C43 C 0.1460(3) 0.7746(3) 0.0839(4)
H37 H 0.1708 0.7647 0.0752
C44 C 0.1238(4) 0.7552(3) 0.1166(5)
H38 H 0.1334 0.7319 0.1303
C45 C 0.0875(3) 0.7697(4) 0.1293(5)
C46 C 0.0735(3) 0.8036(4) 0.1093(5)
H39 H 0.0487 0.8135 0.1179
C47 C 0.0956(3) 0.8231(3) 0.0765(4)
H40 H 0.0860 0.8463 0.0628
C48 C -0.2572(8) 1.0653(8) -0.1586(15)
H41 H -0.2685 1.0829 -0.1820
H42 H -0.2788 1.0550 -0.1395
N1K N 0.0107(2) 0.93208(14) -0.2425(3)
C7K C 0.0115(4) 0.9129(2) -0.2846(3)
H4K H 0.0128 0.9274 -0.3124
C8K C 0.0105(5) 0.8724(2) -0.2860(2)
H5K H 0.0111 0.8592 -0.3148
C9K C 0.0086(5) 0.85113(14) -0.2454(3)
C10K C 0.0078(4) 0.8703(2) -0.2033(2)
H6K H 0.0065 0.8558 -0.1755
C11K C 0.0088(3) 0.9108(2) -0.2018(3)
H7K H 0.0082 0.9240 -0.1731
C12K C 0.0080(13) 0.8074(3) -0.2525(5)
C1K C 0.0074(5) 0.7851(2) -0.2080(3)
C2K C -0.0279(4) 0.7728(4) -0.1896(5)
H1K H -0.0517 0.7817 -0.2024
C3K C -0.0283(3) 0.7474(4) -0.1523(5)
C4K C 0.0066(5) 0.7343(2) -0.1334(3)
H2K H 0.0063 0.7170 -0.1080
C5K C 0.0419(3) 0.7466(4) -0.1519(5)
C6K C 0.0423(4) 0.7720(3) -0.1892(5)
H3K H 0.0664 0.7804 -0.2018
C24K C 0.0743(9) 0.7306(7) -0.1294(11)
C21K C 0.0990(5) 0.7600(4) -0.0963(5)
C20K C 0.1352(4) 0.7490(4) -0.0792(6)
C19K C 0.1542(3) 0.7725(4) -0.0473(5)
N3K N 0.1370(3) 0.8069(4) -0.0325(4)
C48C C 0.0653(8) 0.7428(8) 0.1586(15)
C29C C 0.0311(5) 0.7635(4) 0.1829(6)
C28C C -0.0020(3) 0.7488(6) 0.1615(3)
C27C C -0.0387(5) 0.7611(4) 0.1754(5)
C26C C -0.0423(4) 0.7882(5) 0.2107(6)
C25C C -0.0092(3) 0.8030(7) 0.2320(3)
C30C C 0.0275(5) 0.7906(5) 0.2182(6)
H24C H 0.0501 0.8007 0.2328
C36C C -0.0113(4) 0.8290(19) 0.2706(6)
C33C C -0.01060(16) 0.8724(6) 0.2630(3)
C32C C -0.0102(3) 0.8972(7) 0.3008(3)
C31C C -0.0095(2) 0.9373(5) 0.2944(3)
N4C N -0.00920(16) 0.9526(3) 0.2501(4)
Pd2C Pd -0.00993(2) 1.00993(2) 0.24338(5)
N1C N -0.0107(2) 1.06792(14) 0.2425(3)
C7C C -0.0115(4) 1.0871(2) 0.2846(3)
H4C H -0.0128 1.0726 0.3124
C8C C -0.0105(5) 1.1276(2) 0.2860(2)
H5C H -0.0111 1.1408 0.3148
C9C C -0.0086(5) 1.14887(14) 0.2454(3)
C10C C -0.0078(4) 1.1297(2) 0.2033(2)
H6C H -0.0065 1.1442 0.1755
C11C C -0.0088(3) 1.0892(2) 0.2018(3)
H7C H -0.0082 1.0760 0.1731
C12C C -0.0080(13) 1.1926(3) 0.2525(5)
C1C C -0.0074(5) 1.2149(2) 0.2080(3)
C2C C 0.0279(4) 1.2272(4) 0.1896(5)
H1C H 0.0517 1.2183 0.2024
C3C C 0.0283(3) 1.2526(4) 0.1523(5)
C4C C -0.0066(5) 1.2657(2) 0.1334(3)
H2C H -0.0063 1.2830 0.1080
C5C C -0.0419(3) 1.2534(4) 0.1519(5)
C6C C -0.0423(4) 1.2280(3) 0.1892(5)
H3C H -0.0664 1.2196 0.2018
C24C C -0.0743(9) 1.2694(7) 0.1294(11)
C21C C -0.0990(5) 1.2400(4) 0.0963(5)
C20C C -0.1352(4) 1.2510(4) 0.0792(6)
C19C C -0.1542(3) 1.2275(4) 0.0473(5)
N3C N -0.1370(3) 1.1931(4) 0.0325(4)
Pd1C Pd -0.16283(6) 1.16283(6) -0.01551(10)
N3H N -0.1931(4) 1.1370(3) 0.0325(4)
C19H C -0.2275(4) 1.1542(3) 0.0473(5)
H16H H -0.2351 1.1790 0.0357
C20H C -0.2510(4) 1.1352(4) 0.0792(6)
H17H H -0.2745 1.1470 0.0894
C21H C -0.2400(4) 1.0990(5) 0.0963(5)
C22H C -0.2055(4) 1.0818(3) 0.0814(5)
H18H H -0.1980 1.0571 0.0931
C23H C -0.1821(3) 1.1008(3) 0.0495(5)
H19H H -0.1585 1.0891 0.0394
C24H C -0.2694(7) 1.0743(9) 0.1294(11)
C5H C -0.2534(4) 1.0419(3) 0.1519(5)
C4H C -0.2657(2) 1.0066(5) 0.1334(3)
C3H C -0.2526(4) 0.9717(3) 0.1523(5)
C2H C -0.2272(4) 0.9721(4) 0.1896(5)
C1H C -0.2149(2) 1.0074(5) 0.2080(3)
C6H C -0.2280(3) 1.0423(4) 0.1892(5)
H3H H -0.2196 1.0664 0.2018
C12H C -0.1926(3) 1.0080(13) 0.2525(5)
C9H C -0.14887(14) 1.0086(5) 0.2454(3)
C8H C -0.1276(2) 1.0105(5) 0.2860(2)
C7H C -0.0871(2) 1.0115(4) 0.2846(3)
N1H N -0.06792(14) 1.0107(2) 0.2425(3)
N4H N 0.0474(3) 1.00920(16) 0.2501(4)
C31H C 0.0627(5) 1.0095(2) 0.2944(3)
H25H H 0.0457 1.0092 0.3202
C32H C 0.1028(7) 1.0102(3) 0.3008(3)
H26H H 0.1133 1.0105 0.3311
C33H C 0.1276(6) 1.01060(16) 0.2630(3)
C34H C 0.1123(5) 1.0103(2) 0.2188(3)
H27H H 0.1293 1.0106 0.1929
C35H C 0.0722(4) 1.0096(2) 0.2123(3)
H28H H 0.0617 1.0093 0.1820
C36H C 0.1710(19) 1.0113(4) 0.2706(6)
C25H C 0.1970(7) 1.0092(3) 0.2320(3)
C26H C 0.2118(5) 1.0423(4) 0.2107(6)
H22H H 0.2033 1.0674 0.2201
C27H C 0.2389(4) 1.0387(5) 0.1754(5)
C28H C 0.2512(6) 1.0020(3) 0.1615(3)
H23H H 0.2697 0.9995 0.1373
C29H C 0.2365(4) 0.9689(5) 0.1829(6)
C30H C 0.2094(5) 0.9725(5) 0.2182(6)
H24H H 0.1993 0.9499 0.2328
C48H C 0.2572(8) 0.9347(8) 0.1586(15)
C45K C 0.2303(4) 0.9125(3) 0.1293(5)
C44K C 0.2448(3) 0.8762(4) 0.1166(5)
C43K C 0.2254(3) 0.8540(3) 0.0839(4)
N6K N 0.1914(3) 0.8681(3) 0.0638(3)
C47K C 0.1769(3) 0.9044(3) 0.0765(4)
C46K C 0.1964(4) 0.9265(3) 0.1093(5)
H39K H 0.1865 0.9513 0.1179
H40K H 0.1537 0.9140 0.0628
H37K H 0.2353 0.8292 0.0752
H38K H 0.2681 0.8666 0.1303
H41H H 0.2685 0.9171 0.1820
H42H H 0.2788 0.9450 0.1395
C42H C 0.2528(7) 1.0789(12) 0.1593(13)
C39C C 0.2298(5) 1.0975(5) 0.1208(5)
C38C C 0.2427(4) 1.1329(5) 0.1034(5)
C37C C 0.2226(4) 1.1508(4) 0.0677(5)
N5C N 0.1895(4) 1.1333(4) 0.0494(4)
N2C N 0.1301(3) 1.1943(3) 0.0426(3)
C13C C 0.1472(3) 1.2280(4) 0.0597(4)
H10C H 0.1728 1.2350 0.0506
C14C C 0.1267(4) 1.2516(3) 0.0901(5)
H11C H 0.1383 1.2747 0.1018
C15C C 0.0891(4) 1.2414(4) 0.1034(6)
C16C C 0.0721(3) 1.2076(4) 0.0863(6)
H12C H 0.0464 1.2007 0.0954
C17C C 0.0926(3) 1.1841(3) 0.0559(4)
H13C H 0.0809 1.1610 0.0442
C18C C 0.0709(11) 1.2667(11) 0.1392(13)
H14C H 0.0697 1.2938 0.1277
H15C H 0.0874 1.2665 0.1672
C42K C 0.0789(12) 1.2528(7) -0.1593(13)
C27K C 0.0387(5) 1.2389(4) -0.1754(5)
C26K C 0.0423(4) 1.2118(5) -0.2107(6)
C25K C 0.0092(3) 1.1970(7) -0.2320(3)
C30K C -0.0275(5) 1.2094(5) -0.2182(6)
C29K C -0.0311(5) 1.2365(4) -0.1829(6)
C28K C 0.0020(3) 1.2512(6) -0.1615(3)
H23K H -0.0005 1.2697 -0.1373
C48K C -0.0653(8) 1.2572(8) -0.1586(15)
C45H C -0.0875(3) 1.2303(4) -0.1293(5)
C44H C -0.1238(4) 1.2448(3) -0.1166(5)
C43H C -0.1460(3) 1.2254(3) -0.0839(4)
N6H N -0.1319(3) 1.1914(3) -0.0638(3)
N6C N -0.1914(3) 1.1319(3) -0.0638(3)
C43C C -0.2254(3) 1.1460(3) -0.0839(4)
H37C H -0.2353 1.1708 -0.0752
C44C C -0.2448(3) 1.1238(4) -0.1166(5)
H38C H -0.2681 1.1334 -0.1303
C45C C -0.2303(4) 1.0875(3) -0.1293(5)
C46C C -0.1964(4) 1.0735(3) -0.1093(5)
H39C H -0.1865 1.0487 -0.1179
C47C C -0.1769(3) 1.0956(3) -0.0765(4)
H40C H -0.1537 1.0860 -0.0628
N4K N 0.00920(16) 1.0474(3) -0.2501(4)
C31K C 0.0095(2) 1.0627(5) -0.2944(3)
H25K H 0.0092 1.0457 -0.3202
C32K C 0.0102(3) 1.1028(7) -0.3008(3)
H26K H 0.0105 1.1133 -0.3311
C33K C 0.01060(16) 1.1276(6) -0.2630(3)
C34K C 0.0103(2) 1.1123(5) -0.2188(3)
H27K H 0.0106 1.1293 -0.1929
C35K C 0.0096(2) 1.0722(4) -0.2123(3)
H28K H 0.0093 1.0617 -0.1820
C36K C 0.0113(4) 1.1710(19) -0.2706(6)
H29K H -0.0108 1.1774 -0.2912
H30K H 0.0355 1.1772 -0.2876
C39K C -0.2298(5) 0.9025(5) -0.1208(5)
C38K C -0.2427(4) 0.8671(5) -0.1034(5)
C37K C -0.2226(4) 0.8492(4) -0.0677(5)
N5K N -0.1895(4) 0.8667(4) -0.0494(4)
Pd3K Pd -0.16205(7) 0.83795(7) 0.0000
N2K N -0.1301(3) 0.8057(3) -0.0426(3)
C13K C -0.1472(3) 0.7720(4) -0.0597(4)
H10K H -0.1728 0.7650 -0.0506
C14K C -0.1267(4) 0.7484(3) -0.0901(5)
H11K H -0.1383 0.7253 -0.1018
C15K C -0.0891(4) 0.7586(4) -0.1034(6)
C16K C -0.0721(3) 0.7924(4) -0.0863(6)
H12K H -0.0464 0.7993 -0.0954
C17K C -0.0926(3) 0.8159(3) -0.0559(4)
H13K H -0.0809 0.8390 -0.0442
C18K C -0.0709(11) 0.7333(11) -0.1392(13)
H14K H -0.0697 0.7062 -0.1277
H15K H -0.0874 0.7335 -0.1672
N2H N -0.1943(3) 0.8699(3) 0.0426(3)
C13H C -0.2280(4) 0.8528(3) 0.0597(4)
H10H H -0.2350 0.8272 0.0506
C14H C -0.2516(3) 0.8733(4) 0.0901(5)
H11H H -0.2747 0.8617 0.1018
C15H C -0.2414(4) 0.9109(4) 0.1034(6)
C16H C -0.2076(4) 0.9279(3) 0.0863(6)
H12H H -0.2007 0.9536 0.0954
C17H C -0.1841(3) 0.9074(3) 0.0559(4)
H13H H -0.1610 0.9191 0.0442
C18H C -0.2667(11) 0.9291(11) 0.1392(13)
H14H H -0.2938 0.9303 0.1277
H15H H -0.2665 0.9126 0.1672
N5H N -0.1333(4) 0.8105(4) 0.0494(4)
C37H C -0.1508(4) 0.7774(4) 0.0677(5)
H31H H -0.1751 0.7686 0.0558
C38H C -0.1329(5) 0.7573(4) 0.1034(5)
H32H H -0.1449 0.7347 0.1159
C39H C -0.0975(5) 0.7702(5) 0.1208(5)
C40H C -0.0799(4) 0.8033(5) 0.1025(6)
H33H H -0.0557 0.8121 0.1144
C41H C -0.0979(4) 0.8234(4) 0.0668(5)
H34H H -0.0859 0.8460 0.0543
C42C C -0.0789(12) 0.7472(7) 0.1593(13)
H35C H -0.0766 0.7197 0.1492
H36C H -0.0968 0.7477 0.1860
C41K C -0.1766(4) 0.9021(4) -0.0668(5)
C40K C -0.1967(5) 0.9201(4) -0.1025(6)
H33K H -0.1879 0.9443 -0.1144
H34K H -0.1540 0.9141 -0.0543
H31K H -0.2314 0.8249 -0.0558
H32K H -0.2653 0.8551 -0.1159
C47H C -0.0956(3) 1.1769(3) -0.0765(4)
C46H C -0.0735(3) 1.1964(4) -0.1093(5)
H39H H -0.0487 1.1865 -0.1179
H40H H -0.0860 1.1537 -0.0628
H37H H -0.1708 1.2353 -0.0752
H38H H -0.1334 1.2681 -0.1303
H41K H -0.0829 1.2685 -0.1820
H42K H -0.0550 1.2788 -0.1395
H24K H -0.0501 1.1993 -0.2328
H22K H 0.0674 1.2033 -0.2201
H35K H 0.0766 1.2803 -0.1492
H36K H 0.0968 1.2523 -0.1860
C41C C 0.1766(4) 1.0979(4) 0.0668(5)
C40C C 0.1967(5) 1.0799(4) 0.1025(6)
H33C H 0.1879 1.0557 0.1144
H34C H 0.1540 1.0859 0.0543
H31C H 0.2314 1.1751 0.0558
H32C H 0.2653 1.1449 0.1159
H35H H 0.2803 1.0766 0.1492
H36H H 0.2523 1.0968 0.1860
H29H H 0.1774 0.9892 0.2912
H30H H 0.1772 1.0355 0.2876
C11H C -0.0892(2) 1.0088(3) 0.2018(3)
C10H C -0.1297(2) 1.0078(4) 0.2033(2)
H6H H -0.1442 1.0065 0.1755
H7H H -0.0760 1.0082 0.1731
H4H H -0.0726 1.0128 0.3124
H5H H -0.1408 1.0111 0.3148
H8H H -0.2003 1.0313 0.2704
H9H H -0.1996 0.9847 0.2708
H1H H -0.2183 0.9483 0.2024
H2H H -0.2830 1.0063 0.1080
H20H H -0.2916 1.0653 0.1105
H21H H -0.2799 1.0923 0.1530
C23C C -0.1008(3) 1.1821(3) 0.0495(5)
C22C C -0.0818(3) 1.2055(4) 0.0814(5)
H18C H -0.0571 1.1980 0.0931
H19C H -0.0891 1.1585 0.0394
H16C H -0.1790 1.2351 0.0357
H17C H -0.1470 1.2745 0.0894
H20C H -0.0653 1.2916 0.1105
H21C H -0.0923 1.2799 0.1530
H8C H -0.0313 1.2003 0.2704
H9C H 0.0153 1.1996 0.2708
C35C C -0.0096(2) 0.9278(4) 0.2123(3)
C34C C -0.0103(2) 0.8877(5) 0.2188(3)
H27C H -0.0106 0.8707 0.1929
H28C H -0.0093 0.9383 0.1820
H25C H -0.0092 0.9543 0.3202
H26C H -0.0105 0.8867 0.3311
H29C H 0.0108 0.8226 0.2912
H30C H -0.0355 0.8228 0.2876
H22C H -0.0674 0.7967 0.2201
H23C H 0.0005 0.7303 0.1373
H41C H 0.0829 0.7315 0.1820
H42C H 0.0550 0.7212 0.1395
C23K C 0.1008(3) 0.8179(3) -0.0495(5)
C22K C 0.0818(3) 0.7945(4) -0.0814(5)
H18K H 0.0571 0.8020 -0.0931
H19K H 0.0891 0.8415 -0.0394
H16K H 0.1790 0.7649 -0.0357
H17K H 0.1470 0.7255 -0.0894
H20K H 0.0653 0.7084 -0.1105
H21K H 0.0923 0.7201 -0.1530
H8K H 0.0313 0.7997 -0.2704
H9K H -0.0153 0.8004 -0.2708
O1? O 0.2256(4) 1.2256(4) 0.0000
O2? O 0.2500 1.2500 0.0000
O3? O -0.2730(3) 1.2270(3) 0.5275(6)
O4? O 0.0982(3) 0.9018(3) 0.0037(3)
O5? O -0.0139(3) 1.0139(3) 0.3611(5)
C49? C -0.0085(6) 1.0085(6) 0.1388(10)
C50? C -0.2500 1.2500 0.4612(9)
C51? C -0.227(3) 1.227(3) 0.545(4)
C52? C 0.113(2) 0.887(2) -0.126(4)
C53? C 0.0018(13) 0.9982(13) 0.402(3)
C54? C 0.3315(19) 1.112(2) -0.0053(17)
C55? C 0.0506(15) 0.9494(15) 0.0022(14)
C56? C 0.264(2) 1.044(2) 0.0110(16)
C57? C 0.274(3) 0.998(10) 0.006(2)
C58? C 0.0495(12) 0.9505(12) 0.1061(18)
C59? C 0.2745(11) 1.2221(11) -0.1261(14)
C60? C 0.0764(9) 1.0797(9) 0.0188(10)
C61? C -0.0818(19) 0.9286(19) 0.100(3)
C62? C -0.1367(18) 0.8920(16) 0.173(2)
C63? C 0.075(2) 0.925(2) -0.083(3)
C64? C -0.0046(8) 0.8672(5) 0.0948(6)
C65? C 0.2649(14) 0.9595(15) 0.0282(16)
C66? C -0.1133(12) 0.8671(13) 0.1969(15)
C67? C 0.1498(8) 0.8502(8) 0.1802(12)
C68? C -0.1769(18) 0.862(2) 0.174(2)
C69? C 0.4050(17) 1.1325(16) -0.1566(19)
C70? C 0.3490(12) 1.2500 -0.2500
C71? C 0.3395(10) 1.0102(13) 0.0950(12)
C72? C 0.3591(10) 0.8591(10) -0.1039(16)
C73? C 0.1440(6) 0.9968(10) -0.0758(7)
C74? C 0.3294(9) 0.8294(9) 0.0395(17)
C75? C -0.1810(12) 1.1810(12) 0.330(2)
C76? C -0.2500 1.2500 0.5340(19)
C77? C -0.1236(14) 0.8355(14) 0.2254(17)
C78? C 0.153(2) 0.857(2) -0.1723(13)
C79? C 0.3853(12) 0.9630(13) 0.0785(14)
C80? C -0.2276(10) 0.8690(9) 0.2626(13)
C81? C 0.3652(14) 0.997(2) -0.0742(16)
C82? C 0.3269(8) 1.1731(8) 0.0000
C83? C -0.0033(15) 1.0033(15) 0.124(3)
C84? C 0.444(3) 0.944(3) 0.178(5)
C85? C 0.3523(12) 1.1464(12) -0.1383(16)
C86? C 0.2402(9) 1.2257(8) -0.1503(11)
C87? C 0.0568(15) 0.9432(15) -0.097(2)
C88? C -0.1238(14) 0.8953(12) 0.2335(16)
C89? C -0.1578(10) 0.8918(8) 0.2131(11)
C90? C 0.2355(16) 1.003(3) 0.0168(15)
C91? C 0.3589(11) 1.2013(11) -0.2369(13)
C92? C 0.3585(18) 1.1760(15) -0.0155(19)
C93? C 0.3499(13) 0.9632(13) 0.0977(15)
C94? C -0.1897(14) 0.8800(12) 0.2351(15)
C95? C 0.3856(12) 1.0547(12) -0.1192(14)
C96? C 0.044(2) 0.915(2) 0.114(2)
C97? C -0.0143(5) 1.0143(5) 0.4116(8)
C98? C 0.3283(12) 1.1722(13) -0.1921(18)
C99? C 0.3695(16) 1.0574(17) 0.1047(19)
C100? C 0.286(2) 0.973(3) -0.004(2)
C101? C 0.3776(14) 0.9602(15) -0.0876(17)
C102? C 0.395(2) 0.895(2) -0.095(4)
loop_
_geom_bond_atom_site_label_1
_geom_bond_atom_site_label_2
_geom_bond_site_symmetry_1
_geom_bond_site_symmetry_2
Pd1 N3 1_555 1_555
Pd2 N1 1_555 1_555
Pd3 N2 1_555 1_555
C1 C2 1_555 1_555
C2 H1 1_555 1_555
C3 C2 1_555 1_555
C4 C3 1_555 1_555
H2 C4 1_555 1_555
C5 C4 1_555 1_555
C6 C1 1_555 1_555
H3 C6 1_555 1_555
N1 C7 1_555 1_555
C7 H4 1_555 1_555
C8 C7 1_555 1_555
H5 C8 1_555 1_555
C9 C8 1_555 1_555
C10 C9 1_555 1_555
H6 C10 1_555 1_555
C11 N1 1_555 1_555
H7 C11 1_555 1_555
C12 C1 1_555 1_555
H8 C12 1_555 1_555
H9 C12 1_555 1_555
N2 C13 1_555 1_555
C13 H10 1_555 1_555
C14 C13 1_555 1_555
H11 C14 1_555 1_555
C15 C14 1_555 1_555
C16 C15 1_555 1_555
H12 C16 1_555 1_555
C17 N2 1_555 1_555
H13 C17 1_555 1_555
C18 C3 1_555 1_555
H14 C18 1_555 1_555
H15 C18 1_555 1_555
N3 C19 1_555 1_555
C19 H16 1_555 1_555
C20 C19 1_555 1_555
H17 C20 1_555 1_555
C21 C20 1_555 1_555
C22 C21 1_555 1_555
H18 C22 1_555 1_555
C23 N3 1_555 1_555
H19 C23 1_555 1_555
C24 C5 1_555 1_555
H20 C24 1_555 1_555
H21 C24 1_555 1_555
C25 C26 1_555 1_555
C26 H22 1_555 1_555
C27 C26 1_555 1_555
C28 C27 1_555 1_555
H23 C28 1_555 1_555
C29 C28 1_555 1_555
C30 C25 1_555 1_555
H24 C30 1_555 1_555
N4 Pd2 1_555 1_555
C31 N4 1_555 1_555
H25 C31 1_555 1_555
C32 C31 1_555 1_555
H26 C32 1_555 1_555
C33 C32 1_555 1_555
C34 C33 1_555 1_555
H27 C34 1_555 1_555
C35 N4 1_555 1_555
H28 C35 1_555 1_555
C36 C25 1_555 1_555
H29 C36 1_555 1_555
H30 C36 1_555 1_555
N5 Pd3 1_555 1_555
C37 N5 1_555 1_555
H31 C37 1_555 1_555
C38 C37 1_555 1_555
H32 C38 1_555 1_555
C39 C38 1_555 1_555
C40 C39 1_555 1_555
H33 C40 1_555 1_555
C41 N5 1_555 1_555
H34 C41 1_555 1_555
C42 C27 1_555 1_555
H35 C42 1_555 1_555
H36 C42 1_555 1_555
N6 Pd1 1_555 1_555
C43 N6 1_555 1_555
H37 C43 1_555 1_555
C44 C43 1_555 1_555
H38 C44 1_555 1_555
C45 C44 1_555 1_555
C46 C45 1_555 1_555
H39 C46 1_555 1_555
C47 N6 1_555 1_555
H40 C47 1_555 1_555
C48 C29 1_555 1_555
H41 C48 1_555 1_555
H42 C48 1_555 1_555
N1K Pd2 1_555 1_555
C7K N1K 1_555 1_555
H4K C7K 1_555 1_555
C8K C7K 1_555 1_555
H5K C8K 1_555 1_555
C9K C8K 1_555 1_555
C10K C9K 1_555 1_555
H6K C10K 1_555 1_555
C11K N1K 1_555 1_555
H7K C11K 1_555 1_555
C12K C9K 1_555 1_555
C1K C12K 1_555 1_555
C2K C1K 1_555 1_555
H1K C2K 1_555 1_555
C3K C2K 1_555 1_555
C4K C3K 1_555 1_555
H2K C4K 1_555 1_555
C5K C4K 1_555 1_555
C6K C1K 1_555 1_555
H3K C6K 1_555 1_555
C24K C5K 1_555 1_555
C21K C24K 1_555 1_555
C20K C21K 1_555 1_555
C19K C20K 1_555 1_555
N3K Pd1 1_555 1_555
C48C C45 1_555 1_555
C29C C48C 1_555 1_555
C28C C29C 1_555 1_555
C27C C28C 1_555 1_555
C26C C27C 1_555 1_555
C25C C26C 1_555 1_555
C30C C29C 1_555 1_555
H24C C30C 1_555 1_555
C36C C25C 1_555 1_555
C33C C36C 1_555 1_555
C32C C33C 1_555 1_555
C31C C32C 1_555 1_555
N4C C31C 1_555 1_555
Pd2C N4C 1_555 1_555
N1C Pd2C 1_555 1_555
C7C N1C 1_555 1_555
H4C C7C 1_555 1_555
C8C C7C 1_555 1_555
H5C C8C 1_555 1_555
C9C C8C 1_555 1_555
C10C C9C 1_555 1_555
H6C C10C 1_555 1_555
C11C N1C 1_555 1_555
H7C C11C 1_555 1_555
C12C C9C 1_555 1_555
C1C C12C 1_555 1_555
C2C C1C 1_555 1_555
H1C C2C 1_555 1_555
C3C C2C 1_555 1_555
C4C C3C 1_555 1_555
H2C C4C 1_555 1_555
C5C C4C 1_555 1_555
C6C C1C 1_555 1_555
H3C C6C 1_555 1_555
C24C C5C 1_555 1_555
C21C C24C 1_555 1_555
C20C C21C 1_555 1_555
C19C C20C 1_555 1_555
N3C C19C 1_555 1_555
Pd1C N3C 1_555 1_555
N3H Pd1C 1_555 1_555
C19H N3H 1_555 1_555
H16H C19H 1_555 1_555
C20H C19H 1_555 1_555
H17H C20H 1_555 1_555
C21H C20H 1_555 1_555
C22H C21H 1_555 1_555
H18H C22H 1_555 1_555
C23H N3H 1_555 1_555
H19H C23H 1_555 1_555
C24H C21H 1_555 1_555
C5H C24H 1_555 1_555
C4H C5H 1_555 1_555
C3H C4H 1_555 1_555
C2H C3H 1_555 1_555
C1H C2H 1_555 1_555
C6H C5H 1_555 1_555
H3H C6H 1_555 1_555
C12H C1H 1_555 1_555
C9H C12H 1_555 1_555
C8H C9H 1_555 1_555
C7H C8H 1_555 1_555
N1H Pd2C 1_555 1_555
N4H Pd2C 1_555 1_555
C31H N4H 1_555 1_555
H25H C31H 1_555 1_555
C32H C31H 1_555 1_555
H26H C32H 1_555 1_555
C33H C32H 1_555 1_555
C34H C33H 1_555 1_555
H27H C34H 1_555 1_555
C35H N4H 1_555 1_555
H28H C35H 1_555 1_555
C36H C33H 1_555 1_555
C25H C36H 1_555 1_555
C26H C25H 1_555 1_555
H22H C26H 1_555 1_555
C27H C26H 1_555 1_555
C28H C27H 1_555 1_555
H23H C28H 1_555 1_555
C29H C28H 1_555 1_555
C30H C25H 1_555 1_555
H24H C30H 1_555 1_555
C48H C29H 1_555 1_555
C45K C48H 1_555 1_555
C44K C45K 1_555 1_555
C43K C44K 1_555 1_555
N6K Pd1 1_555 1_555
C47K N6K 1_555 1_555
C46K C45K 1_555 1_555
H39K C46K 1_555 1_555
H40K C47K 1_555 1_555
H37K C43K 1_555 1_555
H38K C44K 1_555 1_555
H41H C48H 1_555 1_555
H42H C48H 1_555 1_555
C42H C27H 1_555 1_555
C39C C42H 1_555 1_555
C38C C39C 1_555 1_555
C37C C38C 1_555 1_555
N5C Pd3 1_555 1_555
N2C Pd3 1_555 1_555
C13C N2C 1_555 1_555
H10C C13C 1_555 1_555
C14C C13C 1_555 1_555
H11C C14C 1_555 1_555
C15C C14C 1_555 1_555
C16C C15C 1_555 1_555
H12C C16C 1_555 1_555
C17C N2C 1_555 1_555
H13C C17C 1_555 1_555
C18C C3C 1_555 1_555
H14C C18C 1_555 1_555
H15C C18C 1_555 1_555
C42K C39 1_555 1_555
C27K C42K 1_555 1_555
C26K C27K 1_555 1_555
C25K C26K 1_555 1_555
C30K C25K 1_555 1_555
C29K C30K 1_555 1_555
C28K C27K 1_555 1_555
H23K C28K 1_555 1_555
C48K C29K 1_555 1_555
C45H C48K 1_555 1_555
C44H C45H 1_555 1_555
C43H C44H 1_555 1_555
N6H Pd1C 1_555 1_555
N6C Pd1C 1_555 1_555
C43C N6C 1_555 1_555
H37C C43C 1_555 1_555
C44C C43C 1_555 1_555
H38C C44C 1_555 1_555
C45C C48 1_555 1_555
C46C C45C 1_555 1_555
H39C C46C 1_555 1_555
C47C N6C 1_555 1_555
H40C C47C 1_555 1_555
N4K Pd2 1_555 1_555
C31K N4K 1_555 1_555
H25K C31K 1_555 1_555
C32K C31K 1_555 1_555
H26K C32K 1_555 1_555
C33K C32K 1_555 1_555
C34K C33K 1_555 1_555
H27K C34K 1_555 1_555
C35K N4K 1_555 1_555
H28K C35K 1_555 1_555
C36K C25K 1_555 1_555
H29K C36K 1_555 1_555
H30K C36K 1_555 1_555
C39K C42 1_555 1_555
C38K C39K 1_555 1_555
C37K C38K 1_555 1_555
N5K C37K 1_555 1_555
Pd3K N5K 1_555 1_555
N2K Pd3K 1_555 1_555
C13K N2K 1_555 1_555
H10K C13K 1_555 1_555
C14K C13K 1_555 1_555
H11K C14K 1_555 1_555
C15K C14K 1_555 1_555
C16K C15K 1_555 1_555
H12K C16K 1_555 1_555
C17K N2K 1_555 1_555
H13K C17K 1_555 1_555
C18K C3K 1_555 1_555
H14K C18K 1_555 1_555
H15K C18K 1_555 1_555
N2H Pd3K 1_555 1_555
C13H N2H 1_555 1_555
H10H C13H 1_555 1_555
C14H C13H 1_555 1_555
H11H C14H 1_555 1_555
C15H C14H 1_555 1_555
C16H C15H 1_555 1_555
H12H C16H 1_555 1_555
C17H N2H 1_555 1_555
H13H C17H 1_555 1_555
C18H C3H 1_555 1_555
H14H C18H 1_555 1_555
H15H C18H 1_555 1_555
N5H Pd3K 1_555 1_555
C37H N5H 1_555 1_555
H31H C37H 1_555 1_555
C38H C37H 1_555 1_555
H32H C38H 1_555 1_555
C39H C38H 1_555 1_555
C40H C39H 1_555 1_555
H33H C40H 1_555 1_555
C41H N5H 1_555 1_555
H34H C41H 1_555 1_555
C42C C27C 1_555 1_555
H35C C42C 1_555 1_555
H36C C42C 1_555 1_555
C41K N5K 1_555 1_555
C40K C39K 1_555 1_555
H33K C40K 1_555 1_555
H34K C41K 1_555 1_555
H31K C37K 1_555 1_555
H32K C38K 1_555 1_555
C47H N6H 1_555 1_555
C46H C45H 1_555 1_555
H39H C46H 1_555 1_555
H40H C47H 1_555 1_555
H37H C43H 1_555 1_555
H38H C44H 1_555 1_555
H41K C48K 1_555 1_555
H42K C48K 1_555 1_555
H24K C30K 1_555 1_555
H22K C26K 1_555 1_555
H35K C42K 1_555 1_555
H36K C42K 1_555 1_555
C41C N5C 1_555 1_555
C40C C39C 1_555 1_555
H33C C40C 1_555 1_555
H34C C41C 1_555 1_555
H31C C37C 1_555 1_555
H32C C38C 1_555 1_555
H35H C42H 1_555 1_555
H36H C42H 1_555 1_555
H29H C36H 1_555 1_555
H30H C36H 1_555 1_555
C11H N1H 1_555 1_555
C10H C9H 1_555 1_555
H6H C10H 1_555 1_555
H7H C11H 1_555 1_555
H4H C7H 1_555 1_555
H5H C8H 1_555 1_555
H8H C12H 1_555 1_555
H9H C12H 1_555 1_555
H1H C2H 1_555 1_555
H2H C4H 1_555 1_555
H20H C24H 1_555 1_555
H21H C24H 1_555 1_555
C23C N3C 1_555 1_555
C22C C21C 1_555 1_555
H18C C22C 1_555 1_555
H19C C23C 1_555 1_555
H16C C19C 1_555 1_555
H17C C20C 1_555 1_555
H20C C24C 1_555 1_555
H21C C24C 1_555 1_555
H8C C12C 1_555 1_555
H9C C12C 1_555 1_555
C35C N4C 1_555 1_555
C34C C33C 1_555 1_555
H27C C34C 1_555 1_555
H28C C35C 1_555 1_555
H25C C31C 1_555 1_555
H26C C32C 1_555 1_555
H29C C36C 1_555 1_555
H30C C36C 1_555 1_555
H22C C26C 1_555 1_555
H23C C28C 1_555 1_555
H41C C48C 1_555 1_555
H42C C48C 1_555 1_555
C23K N3K 1_555 1_555
C22K C21K 1_555 1_555
H18K C22K 1_555 1_555
H19K C23K 1_555 1_555
H16K C19K 1_555 1_555
H17K C20K 1_555 1_555
H20K C24K 1_555 1_555
H21K C24K 1_555 1_555
H8K C12K 1_555 1_555
H9K C12K 1_555 1_555
C5 C6 1_555 1_555
C9 C12 1_555 1_555
C10 C11 1_555 1_555
C15 C18 1_555 1_555
C16 C17 1_555 1_555
C21 C24 1_555 1_555
C22 C23 1_555 1_555
C29 C30 1_555 1_555
C33 C36 1_555 1_555
C34 C35 1_555 1_555
C40 C41 1_555 1_555
C46 C47 1_555 1_555
C10K C11K 1_555 1_555
C5K C6K 1_555 1_555
C19K N3K 1_555 1_555
C25C C30C 1_555 1_555
C10C C11C 1_555 1_555
C5C C6C 1_555 1_555
C22H C23H 1_555 1_555
C1H C6H 1_555 1_555
C7H N1H 1_555 1_555
C34H C35H 1_555 1_555
C29H C30H 1_555 1_555
C43K N6K 1_555 1_555
C47K C46K 1_555 1_555
C37C N5C 1_555 1_555
C15C C18C 1_555 1_555
C16C C17C 1_555 1_555
C29K C28K 1_555 1_555
C43H N6H 1_555 1_555
C44C C45C 1_555 1_555
C46C C47C 1_555 1_555
C33K C36K 1_555 1_555
C34K C35K 1_555 1_555
C15K C18K 1_555 1_555
C16K C17K 1_555 1_555
C15H C18H 1_555 1_555
C16H C17H 1_555 1_555
C39H C42C 1_555 1_555
C40H C41H 1_555 1_555
C41K C40K 1_555 1_555
C47H C46H 1_555 1_555
C41C C40C 1_555 1_555
C11H C10H 1_555 1_555
C23C C22C 1_555 1_555
C35C C34C 1_555 1_555
C23K C22K 1_555 1_555

#END
