# generated using pymatgen
data_H56Pd2C122N8O3
_symmetry_space_group_name_H-M   'P 1'
_cell_length_a   29.06300000
_cell_length_b   34.31200000
_cell_length_c   34.31200000
_cell_angle_alpha   90.00000000
_cell_angle_beta   90.00000000
_cell_angle_gamma   90.00000000
_symmetry_Int_Tables_number   1
_chemical_formula_structural   H56Pd2C122N8O3
_chemical_formula_sum   'H672 Pd24 C1464 N96 O36'
_cell_volume   34216.25771667
_cell_formula_units_Z   12
loop_
 _symmetry_equiv_pos_site_id
 _symmetry_equiv_pos_as_xyz
  1  'x, y, z'
loop_
 _atom_site_type_symbol
 _atom_site_label
 _atom_site_symmetry_multiplicity
 _atom_site_fract_x
 _atom_site_fract_y
 _atom_site_fract_z
 _atom_site_occupancy
  H  H1  1  0.797600  0.218300  0.051700  1.0
  H  H2  1  0.297600  0.448300  0.218300  1.0
  H  H3  1  0.297600  0.051700  0.281700  1.0
  H  H4  1  0.202400  0.051700  0.218300  1.0
  H  H5  1  0.202400  0.718300  0.551700  1.0
  H  H6  1  0.297600  0.718300  0.948300  1.0
  H  H7  1  0.297600  0.781700  0.551700  1.0
  H  H8  1  0.797600  0.551700  0.718300  1.0
  H  H9  1  0.202400  0.781700  0.948300  1.0
  H  H10  1  0.702400  0.551700  0.781700  1.0
  H  H11  1  0.702400  0.948300  0.718300  1.0
  H  H12  1  0.797600  0.948300  0.781700  1.0
  H  H13  1  0.797600  0.281700  0.448300  1.0
  H  H14  1  0.702400  0.281700  0.051700  1.0
  H  H15  1  0.702400  0.218300  0.448300  1.0
  H  H16  1  0.202400  0.448300  0.281700  1.0
  H  H17  1  0.892000  0.283000  0.993700  1.0
  H  H18  1  0.392000  0.506300  0.283000  1.0
  H  H19  1  0.392000  0.993700  0.217000  1.0
  H  H20  1  0.108000  0.993700  0.283000  1.0
  H  H21  1  0.108000  0.783000  0.493700  1.0
  H  H22  1  0.392000  0.783000  0.006300  1.0
  H  H23  1  0.392000  0.717000  0.493700  1.0
  H  H24  1  0.892000  0.493700  0.783000  1.0
  H  H25  1  0.108000  0.717000  0.006300  1.0
  H  H26  1  0.608000  0.493700  0.717000  1.0
  H  H27  1  0.608000  0.006300  0.783000  1.0
  H  H28  1  0.892000  0.006300  0.717000  1.0
  H  H29  1  0.892000  0.217000  0.506300  1.0
  H  H30  1  0.608000  0.217000  0.993700  1.0
  H  H31  1  0.608000  0.283000  0.506300  1.0
  H  H32  1  0.108000  0.506300  0.217000  1.0
  H  H33  1  0.798200  0.219600  0.933600  1.0
  H  H34  1  0.298200  0.566400  0.219600  1.0
  H  H35  1  0.298200  0.933600  0.280400  1.0
  H  H36  1  0.201800  0.933600  0.219600  1.0
  H  H37  1  0.201800  0.719600  0.433600  1.0
  H  H38  1  0.298200  0.719600  0.066400  1.0
  H  H39  1  0.298200  0.780400  0.433600  1.0
  H  H40  1  0.798200  0.433600  0.719600  1.0
  H  H41  1  0.201800  0.780400  0.066400  1.0
  H  H42  1  0.701800  0.433600  0.780400  1.0
  H  H43  1  0.701800  0.066400  0.719600  1.0
  H  H44  1  0.798200  0.066400  0.780400  1.0
  H  H45  1  0.798200  0.280400  0.566400  1.0
  H  H46  1  0.701800  0.280400  0.933600  1.0
  H  H47  1  0.701800  0.219600  0.566400  1.0
  H  H48  1  0.201800  0.566400  0.280400  1.0
  H  H49  1  0.687600  0.072600  0.987200  1.0
  H  H50  1  0.187600  0.512800  0.072600  1.0
  H  H51  1  0.187600  0.987200  0.427400  1.0
  H  H52  1  0.312400  0.987200  0.072600  1.0
  H  H53  1  0.312400  0.572600  0.487200  1.0
  H  H54  1  0.187600  0.572600  0.012800  1.0
  H  H55  1  0.187600  0.927400  0.487200  1.0
  H  H56  1  0.687600  0.487200  0.572600  1.0
  H  H57  1  0.312400  0.927400  0.012800  1.0
  H  H58  1  0.812400  0.487200  0.927400  1.0
  H  H59  1  0.812400  0.012800  0.572600  1.0
  H  H60  1  0.687600  0.012800  0.927400  1.0
  H  H61  1  0.687600  0.427400  0.512800  1.0
  H  H62  1  0.812400  0.427400  0.987200  1.0
  H  H63  1  0.812400  0.072600  0.512800  1.0
  H  H64  1  0.312400  0.512800  0.427400  1.0
  H  H65  1  0.685200  0.140800  0.988900  1.0
  H  H66  1  0.185200  0.511100  0.140800  1.0
  H  H67  1  0.185200  0.988900  0.359200  1.0
  H  H68  1  0.314800  0.988900  0.140800  1.0
  H  H69  1  0.314800  0.640800  0.488900  1.0
  H  H70  1  0.185200  0.640800  0.011100  1.0
  H  H71  1  0.185200  0.859200  0.488900  1.0
  H  H72  1  0.685200  0.488900  0.640800  1.0
  H  H73  1  0.314800  0.859200  0.011100  1.0
  H  H74  1  0.814800  0.488900  0.859200  1.0
  H  H75  1  0.814800  0.011100  0.640800  1.0
  H  H76  1  0.685200  0.011100  0.859200  1.0
  H  H77  1  0.685200  0.359200  0.511100  1.0
  H  H78  1  0.814800  0.359200  0.988900  1.0
  H  H79  1  0.814800  0.140800  0.511100  1.0
  H  H80  1  0.314800  0.511100  0.359200  1.0
  H  H81  1  0.824500  0.144200  0.993500  1.0
  H  H82  1  0.324500  0.506500  0.144200  1.0
  H  H83  1  0.324500  0.993500  0.355800  1.0
  H  H84  1  0.175500  0.993500  0.144200  1.0
  H  H85  1  0.175500  0.644200  0.493500  1.0
  H  H86  1  0.324500  0.644200  0.006500  1.0
  H  H87  1  0.324500  0.855800  0.493500  1.0
  H  H88  1  0.824500  0.493500  0.644200  1.0
  H  H89  1  0.175500  0.855800  0.006500  1.0
  H  H90  1  0.675500  0.493500  0.855800  1.0
  H  H91  1  0.675500  0.006500  0.644200  1.0
  H  H92  1  0.824500  0.006500  0.855800  1.0
  H  H93  1  0.824500  0.355800  0.506500  1.0
  H  H94  1  0.675500  0.355800  0.993500  1.0
  H  H95  1  0.675500  0.144200  0.506500  1.0
  H  H96  1  0.175500  0.506500  0.355800  1.0
  H  H97  1  0.826900  0.076000  0.991800  1.0
  H  H98  1  0.326900  0.508200  0.076000  1.0
  H  H99  1  0.326900  0.991800  0.424000  1.0
  H  H100  1  0.173100  0.991800  0.076000  1.0
  H  H101  1  0.173100  0.576000  0.491800  1.0
  H  H102  1  0.326900  0.576000  0.008200  1.0
  H  H103  1  0.326900  0.924000  0.491800  1.0
  H  H104  1  0.826900  0.491800  0.576000  1.0
  H  H105  1  0.173100  0.924000  0.008200  1.0
  H  H106  1  0.673100  0.491800  0.924000  1.0
  H  H107  1  0.673100  0.008200  0.576000  1.0
  H  H108  1  0.826900  0.008200  0.924000  1.0
  H  H109  1  0.826900  0.424000  0.508200  1.0
  H  H110  1  0.673100  0.424000  0.991800  1.0
  H  H111  1  0.673100  0.076000  0.508200  1.0
  H  H112  1  0.173100  0.508200  0.424000  1.0
  H  H113  1  0.729600  0.200300  0.968700  1.0
  H  H114  1  0.229600  0.531300  0.200300  1.0
  H  H115  1  0.229600  0.968700  0.299700  1.0
  H  H116  1  0.270400  0.968700  0.200300  1.0
  H  H117  1  0.270400  0.700300  0.468700  1.0
  H  H118  1  0.229600  0.700300  0.031300  1.0
  H  H119  1  0.229600  0.799700  0.468700  1.0
  H  H120  1  0.729600  0.468700  0.700300  1.0
  H  H121  1  0.270400  0.799700  0.031300  1.0
  H  H122  1  0.770400  0.468700  0.799700  1.0
  H  H123  1  0.770400  0.031300  0.700300  1.0
  H  H124  1  0.729600  0.031300  0.799700  1.0
  H  H125  1  0.729600  0.299700  0.531300  1.0
  H  H126  1  0.770400  0.299700  0.968700  1.0
  H  H127  1  0.770400  0.200300  0.531300  1.0
  H  H128  1  0.270400  0.531300  0.299700  1.0
  H  H129  1  0.729200  0.199600  0.015300  1.0
  H  H130  1  0.229200  0.484700  0.199600  1.0
  H  H131  1  0.229200  0.015300  0.300400  1.0
  H  H132  1  0.270800  0.015300  0.199600  1.0
  H  H133  1  0.270800  0.699600  0.515300  1.0
  H  H134  1  0.229200  0.699600  0.984700  1.0
  H  H135  1  0.229200  0.800400  0.515300  1.0
  H  H136  1  0.729200  0.515300  0.699600  1.0
  H  H137  1  0.270800  0.800400  0.984700  1.0
  H  H138  1  0.770800  0.515300  0.800400  1.0
  H  H139  1  0.770800  0.984700  0.699600  1.0
  H  H140  1  0.729200  0.984700  0.800400  1.0
  H  H141  1  0.729200  0.300400  0.484700  1.0
  H  H142  1  0.770800  0.300400  0.015300  1.0
  H  H143  1  0.770800  0.199600  0.484700  1.0
  H  H144  1  0.270800  0.484700  0.300400  1.0
  H  H145  1  0.949400  0.235000  0.172800  1.0
  H  H146  1  0.449400  0.327200  0.235000  1.0
  H  H147  1  0.449400  0.172800  0.265000  1.0
  H  H148  1  0.050600  0.172800  0.235000  1.0
  H  H149  1  0.050600  0.735000  0.672800  1.0
  H  H150  1  0.449400  0.735000  0.827200  1.0
  H  H151  1  0.449400  0.765000  0.672800  1.0
  H  H152  1  0.949400  0.672800  0.735000  1.0
  H  H153  1  0.050600  0.765000  0.827200  1.0
  H  H154  1  0.550600  0.672800  0.765000  1.0
  H  H155  1  0.550600  0.827200  0.735000  1.0
  H  H156  1  0.949400  0.827200  0.765000  1.0
  H  H157  1  0.949400  0.265000  0.327200  1.0
  H  H158  1  0.550600  0.265000  0.172800  1.0
  H  H159  1  0.550600  0.235000  0.327200  1.0
  H  H160  1  0.050600  0.327200  0.265000  1.0
  H  H161  1  0.898200  0.274700  0.138300  1.0
  H  H162  1  0.398200  0.361700  0.274700  1.0
  H  H163  1  0.398200  0.138300  0.225300  1.0
  H  H164  1  0.101800  0.138300  0.274700  1.0
  H  H165  1  0.101800  0.774700  0.638300  1.0
  H  H166  1  0.398200  0.774700  0.861700  1.0
  H  H167  1  0.398200  0.725300  0.638300  1.0
  H  H168  1  0.898200  0.638300  0.774700  1.0
  H  H169  1  0.101800  0.725300  0.861700  1.0
  H  H170  1  0.601800  0.638300  0.725300  1.0
  H  H171  1  0.601800  0.861700  0.774700  1.0
  H  H172  1  0.898200  0.861700  0.725300  1.0
  H  H173  1  0.898200  0.225300  0.361700  1.0
  H  H174  1  0.601800  0.225300  0.138300  1.0
  H  H175  1  0.601800  0.274700  0.361700  1.0
  H  H176  1  0.101800  0.361700  0.225300  1.0
  H  H177  1  0.904600  0.200700  0.046400  1.0
  H  H178  1  0.404600  0.453600  0.200700  1.0
  H  H179  1  0.404600  0.046400  0.299300  1.0
  H  H180  1  0.095400  0.046400  0.200700  1.0
  H  H181  1  0.095400  0.700700  0.546400  1.0
  H  H182  1  0.404600  0.700700  0.953600  1.0
  H  H183  1  0.404600  0.799300  0.546400  1.0
  H  H184  1  0.904600  0.546400  0.700700  1.0
  H  H185  1  0.095400  0.799300  0.953600  1.0
  H  H186  1  0.595400  0.546400  0.799300  1.0
  H  H187  1  0.595400  0.953600  0.700700  1.0
  H  H188  1  0.904600  0.953600  0.799300  1.0
  H  H189  1  0.904600  0.299300  0.453600  1.0
  H  H190  1  0.595400  0.299300  0.046400  1.0
  H  H191  1  0.595400  0.200700  0.453600  1.0
  H  H192  1  0.095400  0.453600  0.299300  1.0
  H  H193  1  0.955800  0.161000  0.080900  1.0
  H  H194  1  0.455800  0.419100  0.161000  1.0
  H  H195  1  0.455800  0.080900  0.339000  1.0
  H  H196  1  0.044200  0.080900  0.161000  1.0
  H  H197  1  0.044200  0.661000  0.580900  1.0
  H  H198  1  0.455800  0.661000  0.919100  1.0
  H  H199  1  0.455800  0.839000  0.580900  1.0
  H  H200  1  0.955800  0.580900  0.661000  1.0
  H  H201  1  0.044200  0.839000  0.919100  1.0
  H  H202  1  0.544200  0.580900  0.839000  1.0
  H  H203  1  0.544200  0.919100  0.661000  1.0
  H  H204  1  0.955800  0.919100  0.839000  1.0
  H  H205  1  0.955800  0.339000  0.419100  1.0
  H  H206  1  0.544200  0.339000  0.080900  1.0
  H  H207  1  0.544200  0.161000  0.419100  1.0
  H  H208  1  0.044200  0.419100  0.339000  1.0
  H  H209  1  0.872300  0.293800  0.069700  1.0
  H  H210  1  0.372300  0.430300  0.293800  1.0
  H  H211  1  0.372300  0.069700  0.206200  1.0
  H  H212  1  0.127700  0.069700  0.293800  1.0
  H  H213  1  0.127700  0.793800  0.569700  1.0
  H  H214  1  0.372300  0.793800  0.930300  1.0
  H  H215  1  0.372300  0.706200  0.569700  1.0
  H  H216  1  0.872300  0.569700  0.793800  1.0
  H  H217  1  0.127700  0.706200  0.930300  1.0
  H  H218  1  0.627700  0.569700  0.706200  1.0
  H  H219  1  0.627700  0.930300  0.793800  1.0
  H  H220  1  0.872300  0.930300  0.706200  1.0
  H  H221  1  0.872300  0.206200  0.430300  1.0
  H  H222  1  0.627700  0.206200  0.069700  1.0
  H  H223  1  0.627700  0.293800  0.430300  1.0
  H  H224  1  0.127700  0.430300  0.206200  1.0
  H  H225  1  0.832800  0.266500  0.087400  1.0
  H  H226  1  0.332800  0.412600  0.266500  1.0
  H  H227  1  0.332800  0.087400  0.233500  1.0
  H  H228  1  0.167200  0.087400  0.266500  1.0
  H  H229  1  0.167200  0.766500  0.587400  1.0
  H  H230  1  0.332800  0.766500  0.912600  1.0
  H  H231  1  0.332800  0.733500  0.587400  1.0
  H  H232  1  0.832800  0.587400  0.766500  1.0
  H  H233  1  0.167200  0.733500  0.912600  1.0
  H  H234  1  0.667200  0.587400  0.733500  1.0
  H  H235  1  0.667200  0.912600  0.766500  1.0
  H  H236  1  0.832800  0.912600  0.733500  1.0
  H  H237  1  0.832800  0.233500  0.412600  1.0
  H  H238  1  0.667200  0.233500  0.087400  1.0
  H  H239  1  0.667200  0.266500  0.412600  1.0
  H  H240  1  0.167200  0.412600  0.233500  1.0
  H  H241  1  0.964300  0.235100  0.821000  1.0
  H  H242  1  0.464300  0.679000  0.235100  1.0
  H  H243  1  0.464300  0.821000  0.264900  1.0
  H  H244  1  0.035700  0.821000  0.235100  1.0
  H  H245  1  0.035700  0.735100  0.321000  1.0
  H  H246  1  0.464300  0.735100  0.179000  1.0
  H  H247  1  0.464300  0.764900  0.321000  1.0
  H  H248  1  0.964300  0.321000  0.735100  1.0
  H  H249  1  0.035700  0.764900  0.179000  1.0
  H  H250  1  0.535700  0.321000  0.764900  1.0
  H  H251  1  0.535700  0.179000  0.735100  1.0
  H  H252  1  0.964300  0.179000  0.764900  1.0
  H  H253  1  0.964300  0.264900  0.679000  1.0
  H  H254  1  0.535700  0.264900  0.821000  1.0
  H  H255  1  0.535700  0.235100  0.679000  1.0
  H  H256  1  0.035700  0.679000  0.264900  1.0
  H  H257  1  0.910600  0.274500  0.853000  1.0
  H  H258  1  0.410600  0.647000  0.274500  1.0
  H  H259  1  0.410600  0.853000  0.225500  1.0
  H  H260  1  0.089400  0.853000  0.274500  1.0
  H  H261  1  0.089400  0.774500  0.353000  1.0
  H  H262  1  0.410600  0.774500  0.147000  1.0
  H  H263  1  0.410600  0.725500  0.353000  1.0
  H  H264  1  0.910600  0.353000  0.774500  1.0
  H  H265  1  0.089400  0.725500  0.147000  1.0
  H  H266  1  0.589400  0.353000  0.725500  1.0
  H  H267  1  0.589400  0.147000  0.774500  1.0
  H  H268  1  0.910600  0.147000  0.725500  1.0
  H  H269  1  0.910600  0.225500  0.647000  1.0
  H  H270  1  0.589400  0.225500  0.853000  1.0
  H  H271  1  0.589400  0.274500  0.647000  1.0
  H  H272  1  0.089400  0.647000  0.225500  1.0
  H  H273  1  0.906900  0.198000  0.942900  1.0
  H  H274  1  0.406900  0.557100  0.198000  1.0
  H  H275  1  0.406900  0.942900  0.302000  1.0
  H  H276  1  0.093100  0.942900  0.198000  1.0
  H  H277  1  0.093100  0.698000  0.442900  1.0
  H  H278  1  0.406900  0.698000  0.057100  1.0
  H  H279  1  0.406900  0.802000  0.442900  1.0
  H  H280  1  0.906900  0.442900  0.698000  1.0
  H  H281  1  0.093100  0.802000  0.057100  1.0
  H  H282  1  0.593100  0.442900  0.802000  1.0
  H  H283  1  0.593100  0.057100  0.698000  1.0
  H  H284  1  0.906900  0.057100  0.802000  1.0
  H  H285  1  0.906900  0.302000  0.557100  1.0
  H  H286  1  0.593100  0.302000  0.942900  1.0
  H  H287  1  0.593100  0.198000  0.557100  1.0
  H  H288  1  0.093100  0.557100  0.302000  1.0
  H  H289  1  0.960600  0.158500  0.910900  1.0
  H  H290  1  0.460600  0.589100  0.158500  1.0
  H  H291  1  0.460600  0.910900  0.341500  1.0
  H  H292  1  0.039400  0.910900  0.158500  1.0
  H  H293  1  0.039400  0.658500  0.410900  1.0
  H  H294  1  0.460600  0.658500  0.089100  1.0
  H  H295  1  0.460600  0.841500  0.410900  1.0
  H  H296  1  0.960600  0.410900  0.658500  1.0
  H  H297  1  0.039400  0.841500  0.089100  1.0
  H  H298  1  0.539400  0.410900  0.841500  1.0
  H  H299  1  0.539400  0.089100  0.658500  1.0
  H  H300  1  0.960600  0.089100  0.841500  1.0
  H  H301  1  0.960600  0.341500  0.589100  1.0
  H  H302  1  0.539400  0.341500  0.910900  1.0
  H  H303  1  0.539400  0.158500  0.589100  1.0
  H  H304  1  0.039400  0.589100  0.341500  1.0
  H  H305  1  0.889500  0.291600  0.934700  1.0
  H  H306  1  0.389500  0.565300  0.291600  1.0
  H  H307  1  0.389500  0.934700  0.208400  1.0
  H  H308  1  0.110500  0.934700  0.291600  1.0
  H  H309  1  0.110500  0.791600  0.434700  1.0
  H  H310  1  0.389500  0.791600  0.065300  1.0
  H  H311  1  0.389500  0.708400  0.434700  1.0
  H  H312  1  0.889500  0.434700  0.791600  1.0
  H  H313  1  0.110500  0.708400  0.065300  1.0
  H  H314  1  0.610500  0.434700  0.708400  1.0
  H  H315  1  0.610500  0.065300  0.791600  1.0
  H  H316  1  0.889500  0.065300  0.708400  1.0
  H  H317  1  0.889500  0.208400  0.565300  1.0
  H  H318  1  0.610500  0.208400  0.934700  1.0
  H  H319  1  0.610500  0.291600  0.565300  1.0
  H  H320  1  0.110500  0.565300  0.208400  1.0
  H  H321  1  0.847000  0.279900  0.907700  1.0
  H  H322  1  0.347000  0.592300  0.279900  1.0
  H  H323  1  0.347000  0.907700  0.220100  1.0
  H  H324  1  0.153000  0.907700  0.279900  1.0
  H  H325  1  0.153000  0.779900  0.407700  1.0
  H  H326  1  0.347000  0.779900  0.092300  1.0
  H  H327  1  0.347000  0.720100  0.407700  1.0
  H  H328  1  0.847000  0.407700  0.779900  1.0
  H  H329  1  0.153000  0.720100  0.092300  1.0
  H  H330  1  0.653000  0.407700  0.720100  1.0
  H  H331  1  0.653000  0.092300  0.779900  1.0
  H  H332  1  0.847000  0.092300  0.720100  1.0
  H  H333  1  0.847000  0.220100  0.592300  1.0
  H  H334  1  0.653000  0.220100  0.907700  1.0
  H  H335  1  0.653000  0.279900  0.592300  1.0
  H  H336  1  0.153000  0.592300  0.220100  1.0
  H  H337  1  0.779900  0.796700  0.932600  1.0
  H  H338  1  0.279900  0.567400  0.796700  1.0
  H  H339  1  0.279900  0.932600  0.703300  1.0
  H  H340  1  0.220100  0.932600  0.796700  1.0
  H  H341  1  0.220100  0.296700  0.432600  1.0
  H  H342  1  0.279900  0.296700  0.067400  1.0
  H  H343  1  0.279900  0.203300  0.432600  1.0
  H  H344  1  0.779900  0.432600  0.296700  1.0
  H  H345  1  0.220100  0.203300  0.067400  1.0
  H  H346  1  0.720100  0.432600  0.203300  1.0
  H  H347  1  0.720100  0.067400  0.296700  1.0
  H  H348  1  0.779900  0.067400  0.203300  1.0
  H  H349  1  0.779900  0.703300  0.567400  1.0
  H  H350  1  0.720100  0.703300  0.932600  1.0
  H  H351  1  0.720100  0.796700  0.567400  1.0
  H  H352  1  0.220100  0.567400  0.703300  1.0
  H  H353  1  0.862700  0.730300  0.000500  1.0
  H  H354  1  0.362700  0.499500  0.730300  1.0
  H  H355  1  0.362700  0.000500  0.769700  1.0
  H  H356  1  0.137300  0.000500  0.730300  1.0
  H  H357  1  0.137300  0.230300  0.500500  1.0
  H  H358  1  0.362700  0.230300  0.999500  1.0
  H  H359  1  0.362700  0.269700  0.500500  1.0
  H  H360  1  0.862700  0.500500  0.230300  1.0
  H  H361  1  0.137300  0.269700  0.999500  1.0
  H  H362  1  0.637300  0.500500  0.269700  1.0
  H  H363  1  0.637300  0.999500  0.230300  1.0
  H  H364  1  0.862700  0.999500  0.269700  1.0
  H  H365  1  0.862700  0.769700  0.499500  1.0
  H  H366  1  0.637300  0.769700  0.000500  1.0
  H  H367  1  0.637300  0.730300  0.499500  1.0
  H  H368  1  0.137300  0.499500  0.769700  1.0
  H  H369  1  0.767200  0.800700  0.050100  1.0
  H  H370  1  0.267200  0.449900  0.800700  1.0
  H  H371  1  0.267200  0.050100  0.699300  1.0
  H  H372  1  0.232800  0.050100  0.800700  1.0
  H  H373  1  0.232800  0.300700  0.550100  1.0
  H  H374  1  0.267200  0.300700  0.949900  1.0
  H  H375  1  0.267200  0.199300  0.550100  1.0
  H  H376  1  0.767200  0.550100  0.300700  1.0
  H  H377  1  0.232800  0.199300  0.949900  1.0
  H  H378  1  0.732800  0.550100  0.199300  1.0
  H  H379  1  0.732800  0.949900  0.300700  1.0
  H  H380  1  0.767200  0.949900  0.199300  1.0
  H  H381  1  0.767200  0.699300  0.449900  1.0
  H  H382  1  0.732800  0.699300  0.050100  1.0
  H  H383  1  0.732800  0.800700  0.449900  1.0
  H  H384  1  0.232800  0.449900  0.699300  1.0
  H  H385  1  0.679800  0.954300  0.990800  1.0
  H  H386  1  0.179800  0.509200  0.954300  1.0
  H  H387  1  0.179800  0.990800  0.545700  1.0
  H  H388  1  0.320200  0.990800  0.954300  1.0
  H  H389  1  0.320200  0.454300  0.490800  1.0
  H  H390  1  0.179800  0.454300  0.009200  1.0
  H  H391  1  0.179800  0.045700  0.490800  1.0
  H  H392  1  0.679800  0.490800  0.454300  1.0
  H  H393  1  0.320200  0.045700  0.009200  1.0
  H  H394  1  0.820200  0.490800  0.045700  1.0
  H  H395  1  0.820200  0.009200  0.454300  1.0
  H  H396  1  0.679800  0.009200  0.045700  1.0
  H  H397  1  0.679800  0.545700  0.509200  1.0
  H  H398  1  0.820200  0.545700  0.990800  1.0
  H  H399  1  0.820200  0.954300  0.509200  1.0
  H  H400  1  0.320200  0.509200  0.545700  1.0
  H  H401  1  0.668900  0.886700  0.989500  1.0
  H  H402  1  0.168900  0.510500  0.886700  1.0
  H  H403  1  0.168900  0.989500  0.613300  1.0
  H  H404  1  0.331100  0.989500  0.886700  1.0
  H  H405  1  0.331100  0.386700  0.489500  1.0
  H  H406  1  0.168900  0.386700  0.010500  1.0
  H  H407  1  0.168900  0.113300  0.489500  1.0
  H  H408  1  0.668900  0.489500  0.386700  1.0
  H  H409  1  0.331100  0.113300  0.010500  1.0
  H  H410  1  0.831100  0.489500  0.113300  1.0
  H  H411  1  0.831100  0.010500  0.386700  1.0
  H  H412  1  0.668900  0.010500  0.113300  1.0
  H  H413  1  0.668900  0.613300  0.510500  1.0
  H  H414  1  0.831100  0.613300  0.989500  1.0
  H  H415  1  0.831100  0.886700  0.510500  1.0
  H  H416  1  0.331100  0.510500  0.613300  1.0
  H  H417  1  0.807100  0.870700  0.989400  1.0
  H  H418  1  0.307100  0.510600  0.870700  1.0
  H  H419  1  0.307100  0.989400  0.629300  1.0
  H  H420  1  0.192900  0.989400  0.870700  1.0
  H  H421  1  0.192900  0.370700  0.489400  1.0
  H  H422  1  0.307100  0.370700  0.010600  1.0
  H  H423  1  0.307100  0.129300  0.489400  1.0
  H  H424  1  0.807100  0.489400  0.370700  1.0
  H  H425  1  0.192900  0.129300  0.010600  1.0
  H  H426  1  0.692900  0.489400  0.129300  1.0
  H  H427  1  0.692900  0.010600  0.370700  1.0
  H  H428  1  0.807100  0.010600  0.129300  1.0
  H  H429  1  0.807100  0.629300  0.510600  1.0
  H  H430  1  0.692900  0.629300  0.989400  1.0
  H  H431  1  0.692900  0.870700  0.510600  1.0
  H  H432  1  0.192900  0.510600  0.629300  1.0
  H  H433  1  0.818000  0.938300  0.990700  1.0
  H  H434  1  0.318000  0.509300  0.938300  1.0
  H  H435  1  0.318000  0.990700  0.561700  1.0
  H  H436  1  0.182000  0.990700  0.938300  1.0
  H  H437  1  0.182000  0.438300  0.490700  1.0
  H  H438  1  0.318000  0.438300  0.009300  1.0
  H  H439  1  0.318000  0.061700  0.490700  1.0
  H  H440  1  0.818000  0.490700  0.438300  1.0
  H  H441  1  0.182000  0.061700  0.009300  1.0
  H  H442  1  0.682000  0.490700  0.061700  1.0
  H  H443  1  0.682000  0.009300  0.438300  1.0
  H  H444  1  0.818000  0.009300  0.061700  1.0
  H  H445  1  0.818000  0.561700  0.509300  1.0
  H  H446  1  0.682000  0.561700  0.990700  1.0
  H  H447  1  0.682000  0.938300  0.509300  1.0
  H  H448  1  0.182000  0.509300  0.561700  1.0
  H  H449  1  0.708800  0.822600  0.010800  1.0
  H  H450  1  0.208800  0.489200  0.822600  1.0
  H  H451  1  0.208800  0.010800  0.677400  1.0
  H  H452  1  0.291200  0.010800  0.822600  1.0
  H  H453  1  0.291200  0.322600  0.510800  1.0
  H  H454  1  0.208800  0.322600  0.989200  1.0
  H  H455  1  0.208800  0.177400  0.510800  1.0
  H  H456  1  0.708800  0.510800  0.322600  1.0
  H  H457  1  0.291200  0.177400  0.989200  1.0
  H  H458  1  0.791200  0.510800  0.177400  1.0
  H  H459  1  0.791200  0.989200  0.322600  1.0
  H  H460  1  0.708800  0.989200  0.177400  1.0
  H  H461  1  0.708800  0.677400  0.489200  1.0
  H  H462  1  0.791200  0.677400  0.010800  1.0
  H  H463  1  0.791200  0.822600  0.489200  1.0
  H  H464  1  0.291200  0.489200  0.677400  1.0
  H  H465  1  0.712400  0.822800  0.964500  1.0
  H  H466  1  0.212400  0.535500  0.822800  1.0
  H  H467  1  0.212400  0.964500  0.677200  1.0
  H  H468  1  0.287600  0.964500  0.822800  1.0
  H  H469  1  0.287600  0.322800  0.464500  1.0
  H  H470  1  0.212400  0.322800  0.035500  1.0
  H  H471  1  0.212400  0.177200  0.464500  1.0
  H  H472  1  0.712400  0.464500  0.322800  1.0
  H  H473  1  0.287600  0.177200  0.035500  1.0
  H  H474  1  0.787600  0.464500  0.177200  1.0
  H  H475  1  0.787600  0.035500  0.322800  1.0
  H  H476  1  0.712400  0.035500  0.177200  1.0
  H  H477  1  0.712400  0.677200  0.535500  1.0
  H  H478  1  0.787600  0.677200  0.964500  1.0
  H  H479  1  0.787600  0.822800  0.535500  1.0
  H  H480  1  0.287600  0.535500  0.677200  1.0
  H  H481  1  0.944200  0.175100  0.231400  1.0
  H  H482  1  0.444200  0.268600  0.175100  1.0
  H  H483  1  0.444200  0.231400  0.324900  1.0
  H  H484  1  0.055800  0.231400  0.175100  1.0
  H  H485  1  0.055800  0.675100  0.731400  1.0
  H  H486  1  0.444200  0.675100  0.768600  1.0
  H  H487  1  0.444200  0.824900  0.731400  1.0
  H  H488  1  0.944200  0.731400  0.675100  1.0
  H  H489  1  0.055800  0.824900  0.768600  1.0
  H  H490  1  0.555800  0.731400  0.824900  1.0
  H  H491  1  0.555800  0.768600  0.675100  1.0
  H  H492  1  0.944200  0.768600  0.824900  1.0
  H  H493  1  0.944200  0.324900  0.268600  1.0
  H  H494  1  0.555800  0.324900  0.231400  1.0
  H  H495  1  0.555800  0.175100  0.268600  1.0
  H  H496  1  0.055800  0.268600  0.324900  1.0
  H  H497  1  0.884100  0.144900  0.265300  1.0
  H  H498  1  0.384100  0.234700  0.144900  1.0
  H  H499  1  0.384100  0.265300  0.355100  1.0
  H  H500  1  0.115900  0.265300  0.144900  1.0
  H  H501  1  0.115900  0.644900  0.765300  1.0
  H  H502  1  0.384100  0.644900  0.734700  1.0
  H  H503  1  0.384100  0.855100  0.765300  1.0
  H  H504  1  0.884100  0.765300  0.644900  1.0
  H  H505  1  0.115900  0.855100  0.734700  1.0
  H  H506  1  0.615900  0.765300  0.855100  1.0
  H  H507  1  0.615900  0.734700  0.644900  1.0
  H  H508  1  0.884100  0.734700  0.855100  1.0
  H  H509  1  0.884100  0.355100  0.234700  1.0
  H  H510  1  0.615900  0.355100  0.265300  1.0
  H  H511  1  0.615900  0.144900  0.234700  1.0
  H  H512  1  0.115900  0.234700  0.355100  1.0
  H  H513  1  0.885600  0.055700  0.187900  1.0
  H  H514  1  0.385600  0.312100  0.055700  1.0
  H  H515  1  0.385600  0.187900  0.444300  1.0
  H  H516  1  0.114400  0.187900  0.055700  1.0
  H  H517  1  0.114400  0.555700  0.687900  1.0
  H  H518  1  0.385600  0.555700  0.812100  1.0
  H  H519  1  0.385600  0.944300  0.687900  1.0
  H  H520  1  0.885600  0.687900  0.555700  1.0
  H  H521  1  0.114400  0.944300  0.812100  1.0
  H  H522  1  0.614400  0.687900  0.944300  1.0
  H  H523  1  0.614400  0.812100  0.555700  1.0
  H  H524  1  0.885600  0.812100  0.944300  1.0
  H  H525  1  0.885600  0.444300  0.312100  1.0
  H  H526  1  0.614400  0.444300  0.187900  1.0
  H  H527  1  0.614400  0.055700  0.312100  1.0
  H  H528  1  0.114400  0.312100  0.444300  1.0
  H  H529  1  0.945700  0.085900  0.154000  1.0
  H  H530  1  0.445700  0.346000  0.085900  1.0
  H  H531  1  0.445700  0.154000  0.414100  1.0
  H  H532  1  0.054300  0.154000  0.085900  1.0
  H  H533  1  0.054300  0.585900  0.654000  1.0
  H  H534  1  0.445700  0.585900  0.846000  1.0
  H  H535  1  0.445700  0.914100  0.654000  1.0
  H  H536  1  0.945700  0.654000  0.585900  1.0
  H  H537  1  0.054300  0.914100  0.846000  1.0
  H  H538  1  0.554300  0.654000  0.914100  1.0
  H  H539  1  0.554300  0.846000  0.585900  1.0
  H  H540  1  0.945700  0.846000  0.914100  1.0
  H  H541  1  0.945700  0.414100  0.346000  1.0
  H  H542  1  0.554300  0.414100  0.154000  1.0
  H  H543  1  0.554300  0.085900  0.346000  1.0
  H  H544  1  0.054300  0.346000  0.414100  1.0
  H  H545  1  0.850800  0.719700  0.923400  1.0
  H  H546  1  0.350800  0.576600  0.719700  1.0
  H  H547  1  0.350800  0.923400  0.780300  1.0
  H  H548  1  0.149200  0.923400  0.719700  1.0
  H  H549  1  0.149200  0.219700  0.423400  1.0
  H  H550  1  0.350800  0.219700  0.076600  1.0
  H  H551  1  0.350800  0.280300  0.423400  1.0
  H  H552  1  0.850800  0.423400  0.219700  1.0
  H  H553  1  0.149200  0.280300  0.076600  1.0
  H  H554  1  0.649200  0.423400  0.280300  1.0
  H  H555  1  0.649200  0.076600  0.219700  1.0
  H  H556  1  0.850800  0.076600  0.280300  1.0
  H  H557  1  0.850800  0.780300  0.576600  1.0
  H  H558  1  0.649200  0.780300  0.923400  1.0
  H  H559  1  0.649200  0.719700  0.576600  1.0
  H  H560  1  0.149200  0.576600  0.780300  1.0
  H  H561  1  0.814000  0.747700  0.903200  1.0
  H  H562  1  0.314000  0.596800  0.747700  1.0
  H  H563  1  0.314000  0.903200  0.752300  1.0
  H  H564  1  0.186000  0.903200  0.747700  1.0
  H  H565  1  0.186000  0.247700  0.403200  1.0
  H  H566  1  0.314000  0.247700  0.096800  1.0
  H  H567  1  0.314000  0.252300  0.403200  1.0
  H  H568  1  0.814000  0.403200  0.247700  1.0
  H  H569  1  0.186000  0.252300  0.096800  1.0
  H  H570  1  0.686000  0.403200  0.252300  1.0
  H  H571  1  0.686000  0.096800  0.247700  1.0
  H  H572  1  0.814000  0.096800  0.252300  1.0
  H  H573  1  0.814000  0.752300  0.596800  1.0
  H  H574  1  0.686000  0.752300  0.903200  1.0
  H  H575  1  0.686000  0.747700  0.596800  1.0
  H  H576  1  0.186000  0.596800  0.752300  1.0
  H  H577  1  0.075200  0.170800  0.764700  1.0
  H  H578  1  0.575200  0.735300  0.170800  1.0
  H  H579  1  0.575200  0.764700  0.329200  1.0
  H  H580  1  0.924800  0.764700  0.170800  1.0
  H  H581  1  0.924800  0.670800  0.264700  1.0
  H  H582  1  0.575200  0.670800  0.235300  1.0
  H  H583  1  0.575200  0.829200  0.264700  1.0
  H  H584  1  0.075200  0.264700  0.670800  1.0
  H  H585  1  0.924800  0.829200  0.235300  1.0
  H  H586  1  0.424800  0.264700  0.829200  1.0
  H  H587  1  0.424800  0.235300  0.670800  1.0
  H  H588  1  0.075200  0.235300  0.829200  1.0
  H  H589  1  0.075200  0.329200  0.735300  1.0
  H  H590  1  0.424800  0.329200  0.764700  1.0
  H  H591  1  0.424800  0.170800  0.735300  1.0
  H  H592  1  0.924800  0.735300  0.329200  1.0
  H  H593  1  0.130300  0.133400  0.731900  1.0
  H  H594  1  0.630300  0.768100  0.133400  1.0
  H  H595  1  0.630300  0.731900  0.366600  1.0
  H  H596  1  0.869700  0.731900  0.133400  1.0
  H  H597  1  0.869700  0.633400  0.231900  1.0
  H  H598  1  0.630300  0.633400  0.268100  1.0
  H  H599  1  0.630300  0.866600  0.231900  1.0
  H  H600  1  0.130300  0.231900  0.633400  1.0
  H  H601  1  0.869700  0.866600  0.268100  1.0
  H  H602  1  0.369700  0.231900  0.866600  1.0
  H  H603  1  0.369700  0.268100  0.633400  1.0
  H  H604  1  0.130300  0.268100  0.866600  1.0
  H  H605  1  0.130300  0.366600  0.768100  1.0
  H  H606  1  0.369700  0.366600  0.731900  1.0
  H  H607  1  0.369700  0.133400  0.768100  1.0
  H  H608  1  0.869700  0.768100  0.366600  1.0
  H  H609  1  0.117900  0.048700  0.813500  1.0
  H  H610  1  0.617900  0.686500  0.048700  1.0
  H  H611  1  0.617900  0.813500  0.451300  1.0
  H  H612  1  0.882100  0.813500  0.048700  1.0
  H  H613  1  0.882100  0.548700  0.313500  1.0
  H  H614  1  0.617900  0.548700  0.186500  1.0
  H  H615  1  0.617900  0.951300  0.313500  1.0
  H  H616  1  0.117900  0.313500  0.548700  1.0
  H  H617  1  0.882100  0.951300  0.186500  1.0
  H  H618  1  0.382100  0.313500  0.951300  1.0
  H  H619  1  0.382100  0.186500  0.548700  1.0
  H  H620  1  0.117900  0.186500  0.951300  1.0
  H  H621  1  0.117900  0.451300  0.686500  1.0
  H  H622  1  0.382100  0.451300  0.813500  1.0
  H  H623  1  0.382100  0.048700  0.686500  1.0
  H  H624  1  0.882100  0.686500  0.451300  1.0
  H  H625  1  0.062800  0.086000  0.846300  1.0
  H  H626  1  0.562800  0.653700  0.086000  1.0
  H  H627  1  0.562800  0.846300  0.414000  1.0
  H  H628  1  0.937200  0.846300  0.086000  1.0
  H  H629  1  0.937200  0.586000  0.346300  1.0
  H  H630  1  0.562800  0.586000  0.153700  1.0
  H  H631  1  0.562800  0.914000  0.346300  1.0
  H  H632  1  0.062800  0.346300  0.586000  1.0
  H  H633  1  0.937200  0.914000  0.153700  1.0
  H  H634  1  0.437200  0.346300  0.914000  1.0
  H  H635  1  0.437200  0.153700  0.586000  1.0
  H  H636  1  0.062800  0.153700  0.914000  1.0
  H  H637  1  0.062800  0.414000  0.653700  1.0
  H  H638  1  0.437200  0.414000  0.846300  1.0
  H  H639  1  0.437200  0.086000  0.653700  1.0
  H  H640  1  0.937200  0.653700  0.414000  1.0
  H  H641  1  0.818000  0.731500  0.082900  1.0
  H  H642  1  0.318000  0.417100  0.731500  1.0
  H  H643  1  0.318000  0.082900  0.768500  1.0
  H  H644  1  0.182000  0.082900  0.731500  1.0
  H  H645  1  0.182000  0.231500  0.582900  1.0
  H  H646  1  0.318000  0.231500  0.917100  1.0
  H  H647  1  0.318000  0.268500  0.582900  1.0
  H  H648  1  0.818000  0.582900  0.231500  1.0
  H  H649  1  0.182000  0.268500  0.917100  1.0
  H  H650  1  0.682000  0.582900  0.268500  1.0
  H  H651  1  0.682000  0.917100  0.231500  1.0
  H  H652  1  0.818000  0.917100  0.268500  1.0
  H  H653  1  0.818000  0.768500  0.417100  1.0
  H  H654  1  0.682000  0.768500  0.082900  1.0
  H  H655  1  0.682000  0.731500  0.417100  1.0
  H  H656  1  0.182000  0.417100  0.768500  1.0
  H  H657  1  0.860500  0.721200  0.055000  1.0
  H  H658  1  0.360500  0.445000  0.721200  1.0
  H  H659  1  0.360500  0.055000  0.778800  1.0
  H  H660  1  0.139500  0.055000  0.721200  1.0
  H  H661  1  0.139500  0.221200  0.555000  1.0
  H  H662  1  0.360500  0.221200  0.945000  1.0
  H  H663  1  0.360500  0.278800  0.555000  1.0
  H  H664  1  0.860500  0.555000  0.221200  1.0
  H  H665  1  0.139500  0.278800  0.945000  1.0
  H  H666  1  0.639500  0.555000  0.278800  1.0
  H  H667  1  0.639500  0.945000  0.221200  1.0
  H  H668  1  0.860500  0.945000  0.278800  1.0
  H  H669  1  0.860500  0.778800  0.445000  1.0
  H  H670  1  0.639500  0.778800  0.055000  1.0
  H  H671  1  0.639500  0.721200  0.445000  1.0
  H  H672  1  0.139500  0.445000  0.778800  1.0
  Pd  Pd673  1  0.015510  0.162830  0.837170  1.0
  Pd  Pd674  1  0.515510  0.662830  0.162830  1.0
  Pd  Pd675  1  0.515510  0.837170  0.337170  1.0
  Pd  Pd676  1  0.984490  0.837170  0.162830  1.0
  Pd  Pd677  1  0.984490  0.662830  0.337170  1.0
  Pd  Pd678  1  0.015510  0.337170  0.662830  1.0
  Pd  Pd679  1  0.484490  0.337170  0.837170  1.0
  Pd  Pd680  1  0.484490  0.162830  0.662830  1.0
  Pd  Pd681  1  0.756620  0.009930  0.990070  1.0
  Pd  Pd682  1  0.256620  0.509930  0.009930  1.0
  Pd  Pd683  1  0.256620  0.990070  0.490070  1.0
  Pd  Pd684  1  0.243380  0.990070  0.009930  1.0
  Pd  Pd685  1  0.243380  0.509930  0.490070  1.0
  Pd  Pd686  1  0.756620  0.490070  0.509930  1.0
  Pd  Pd687  1  0.743380  0.490070  0.990070  1.0
  Pd  Pd688  1  0.743380  0.009930  0.509930  1.0
  Pd  Pd689  1  0.000000  0.162050  0.162050  1.0
  Pd  Pd690  1  0.500000  0.337950  0.162050  1.0
  Pd  Pd691  1  0.500000  0.162050  0.337950  1.0
  Pd  Pd692  1  0.000000  0.662050  0.662050  1.0
  Pd  Pd693  1  0.500000  0.662050  0.837950  1.0
  Pd  Pd694  1  0.500000  0.837950  0.662050  1.0
  Pd  Pd695  1  1.000000  0.837950  0.837950  1.0
  Pd  Pd696  1  0.000000  0.337950  0.337950  1.0
  C  C697  1  0.138800  0.991500  0.008500  1
  C  C698  1  0.638800  0.491500  0.991500  1
  C  C699  1  0.638800  0.008500  0.508500  1
  C  C700  1  0.861200  0.008500  0.991500  1
  C  C701  1  0.861200  0.491500  0.508500  1
  C  C702  1  0.138800  0.508500  0.491500  1
  C  C703  1  0.361200  0.508500  0.008500  1
  C  C704  1  0.361200  0.991500  0.491500  1
  C  C705  1  0.461200  0.750000  0.250000  1
  C  C706  1  0.961200  0.250000  0.750000  1
  C  C707  1  0.538800  0.250000  0.750000  1
  C  C708  1  0.038800  0.750000  0.250000  1
  C  C709  1  0.545000  0.773000  0.227000  1
  C  C710  1  0.045000  0.273000  0.773000  1
  C  C711  1  0.045000  0.227000  0.727000  1
  C  C712  1  0.455000  0.227000  0.773000  1
  C  C713  1  0.455000  0.273000  0.727000  1
  C  C714  1  0.545000  0.727000  0.273000  1
  C  C715  1  0.955000  0.727000  0.227000  1
  C  C716  1  0.955000  0.773000  0.273000  1
  C  C717  1  0.874000  0.113000  0.887000  1
  C  C718  1  0.374000  0.613000  0.113000  1
  C  C719  1  0.374000  0.887000  0.387000  1
  C  C720  1  0.126000  0.887000  0.113000  1
  C  C721  1  0.126000  0.613000  0.387000  1
  C  C722  1  0.874000  0.387000  0.613000  1
  C  C723  1  0.626000  0.387000  0.887000  1
  C  C724  1  0.626000  0.113000  0.613000  1
  C  C725  1  0.402000  0.001800  0.998200  1
  C  C726  1  0.902000  0.501800  0.001800  1
  C  C727  1  0.902000  0.998200  0.498200  1
  C  C728  1  0.598000  0.998200  0.001800  1
  C  C729  1  0.598000  0.501800  0.498200  1
  C  C730  1  0.402000  0.498200  0.501800  1
  C  C731  1  0.098000  0.498200  0.998200  1
  C  C732  1  0.098000  0.001800  0.501800  1
  C  C733  1  0.994700  0.331500  0.112000  1
  C  C734  1  0.494700  0.388000  0.331500  1
  C  C735  1  0.494700  0.112000  0.168500  1
  C  C736  1  0.005300  0.112000  0.331500  1
  C  C737  1  0.005300  0.831500  0.612000  1
  C  C738  1  0.494700  0.831500  0.888000  1
  C  C739  1  0.494700  0.668500  0.612000  1
  C  C740  1  0.994700  0.612000  0.831500  1
  C  C741  1  0.005300  0.668500  0.888000  1
  C  C742  1  0.505300  0.612000  0.668500  1
  C  C743  1  0.505300  0.888000  0.831500  1
  C  C744  1  0.994700  0.888000  0.668500  1
  C  C745  1  0.994700  0.168500  0.388000  1
  C  C746  1  0.505300  0.168500  0.112000  1
  C  C747  1  0.505300  0.331500  0.388000  1
  C  C748  1  0.005300  0.388000  0.168500  1
  C  C749  1  0.002200  0.050600  0.949400  1
  C  C750  1  0.502200  0.550600  0.050600  1
  C  C751  1  0.502200  0.949400  0.449400  1
  C  C752  1  0.997800  0.949400  0.050600  1
  C  C753  1  0.997800  0.550600  0.449400  1
  C  C754  1  0.002200  0.449400  0.550600  1
  C  C755  1  0.497800  0.449400  0.949400  1
  C  C756  1  0.497800  0.050600  0.550600  1
  C  C757  1  0.011000  0.264000  0.044000  1
  C  C758  1  0.511000  0.456000  0.264000  1
  C  C759  1  0.511000  0.044000  0.236000  1
  C  C760  1  0.989000  0.044000  0.264000  1
  C  C761  1  0.989000  0.764000  0.544000  1
  C  C762  1  0.511000  0.764000  0.956000  1
  C  C763  1  0.511000  0.736000  0.544000  1
  C  C764  1  0.011000  0.544000  0.764000  1
  C  C765  1  0.989000  0.736000  0.956000  1
  C  C766  1  0.489000  0.544000  0.736000  1
  C  C767  1  0.489000  0.956000  0.764000  1
  C  C768  1  0.011000  0.956000  0.736000  1
  C  C769  1  0.011000  0.236000  0.456000  1
  C  C770  1  0.489000  0.236000  0.044000  1
  C  C771  1  0.489000  0.264000  0.456000  1
  C  C772  1  0.989000  0.456000  0.236000  1
  C  C773  1  0.006000  0.274000  0.998000  1
  C  C774  1  0.506000  0.502000  0.274000  1
  C  C775  1  0.506000  0.998000  0.226000  1
  C  C776  1  0.994000  0.998000  0.274000  1
  C  C777  1  0.994000  0.774000  0.498000  1
  C  C778  1  0.506000  0.774000  0.002000  1
  C  C779  1  0.506000  0.726000  0.498000  1
  C  C780  1  0.006000  0.498000  0.774000  1
  C  C781  1  0.994000  0.726000  0.002000  1
  C  C782  1  0.494000  0.498000  0.726000  1
  C  C783  1  0.494000  0.002000  0.774000  1
  C  C784  1  0.006000  0.002000  0.726000  1
  C  C785  1  0.006000  0.226000  0.502000  1
  C  C786  1  0.494000  0.226000  0.998000  1
  C  C787  1  0.494000  0.274000  0.502000  1
  C  C788  1  0.994000  0.502000  0.226000  1
  C  C789  1  0.106100  0.049500  0.950500  1
  C  C790  1  0.606100  0.549500  0.049500  1
  C  C791  1  0.606100  0.950500  0.450500  1
  C  C792  1  0.893900  0.950500  0.049500  1
  C  C793  1  0.893900  0.549500  0.450500  1
  C  C794  1  0.106100  0.450500  0.549500  1
  C  C795  1  0.393900  0.450500  0.950500  1
  C  C796  1  0.393900  0.049500  0.549500  1
  C  C797  1  0.873900  0.274500  0.222100  1
  C  C798  1  0.373900  0.277900  0.274500  1
  C  C799  1  0.373900  0.222100  0.225500  1
  C  C800  1  0.126100  0.222100  0.274500  1
  C  C801  1  0.126100  0.774500  0.722100  1
  C  C802  1  0.373900  0.774500  0.777900  1
  C  C803  1  0.373900  0.725500  0.722100  1
  C  C804  1  0.873900  0.722100  0.774500  1
  C  C805  1  0.126100  0.725500  0.777900  1
  C  C806  1  0.626100  0.722100  0.725500  1
  C  C807  1  0.626100  0.777900  0.774500  1
  C  C808  1  0.873900  0.777900  0.725500  1
  C  C809  1  0.873900  0.225500  0.277900  1
  C  C810  1  0.626100  0.225500  0.222100  1
  C  C811  1  0.626100  0.274500  0.277900  1
  C  C812  1  0.126100  0.277900  0.225500  1
  C  C813  1  0.018800  0.076400  0.079700  1
  C  C814  1  0.518800  0.420300  0.076400  1
  C  C815  1  0.518800  0.079700  0.423600  1
  C  C816  1  0.981200  0.079700  0.076400  1
  C  C817  1  0.981200  0.576400  0.579700  1
  C  C818  1  0.518800  0.576400  0.920300  1
  C  C819  1  0.518800  0.923600  0.579700  1
  C  C820  1  0.018800  0.579700  0.576400  1
  C  C821  1  0.981200  0.923600  0.920300  1
  C  C822  1  0.481200  0.579700  0.923600  1
  C  C823  1  0.481200  0.920300  0.576400  1
  C  C824  1  0.018800  0.920300  0.923600  1
  C  C825  1  0.018800  0.423600  0.420300  1
  C  C826  1  0.481200  0.423600  0.079700  1
  C  C827  1  0.481200  0.076400  0.420300  1
  C  C828  1  0.981200  0.420300  0.423600  1
  C  C829  1  0.100000  0.918200  0.928600  1
  C  C830  1  0.600000  0.571400  0.918200  1
  C  C831  1  0.600000  0.928600  0.581800  1
  C  C832  1  0.900000  0.928600  0.918200  1
  C  C833  1  0.900000  0.418200  0.428600  1
  C  C834  1  0.600000  0.418200  0.071400  1
  C  C835  1  0.600000  0.081800  0.428600  1
  C  C836  1  0.100000  0.428600  0.418200  1
  C  C837  1  0.900000  0.081800  0.071400  1
  C  C838  1  0.400000  0.428600  0.081800  1
  C  C839  1  0.400000  0.071400  0.418200  1
  C  C840  1  0.100000  0.071400  0.081800  1
  C  C841  1  0.100000  0.581800  0.571400  1
  C  C842  1  0.400000  0.581800  0.928600  1
  C  C843  1  0.400000  0.918200  0.571400  1
  C  C844  1  0.900000  0.571400  0.581800  1
  C  C845  1  0.173000  0.863300  0.892000  1
  C  C846  1  0.673000  0.608000  0.863300  1
  C  C847  1  0.673000  0.892000  0.636700  1
  C  C848  1  0.827000  0.892000  0.863300  1
  C  C849  1  0.827000  0.363300  0.392000  1
  C  C850  1  0.673000  0.363300  0.108000  1
  C  C851  1  0.673000  0.136700  0.392000  1
  C  C852  1  0.173000  0.392000  0.363300  1
  C  C853  1  0.827000  0.136700  0.108000  1
  C  C854  1  0.327000  0.392000  0.136700  1
  C  C855  1  0.327000  0.108000  0.363300  1
  C  C856  1  0.173000  0.108000  0.136700  1
  C  C857  1  0.173000  0.636700  0.608000  1
  C  C858  1  0.327000  0.636700  0.892000  1
  C  C859  1  0.327000  0.863300  0.608000  1
  C  C860  1  0.827000  0.608000  0.636700  1
  C  C861  1  0.917000  0.075000  0.925000  1
  C  C862  1  0.417000  0.575000  0.075000  1
  C  C863  1  0.417000  0.925000  0.425000  1
  C  C864  1  0.083000  0.925000  0.075000  1
  C  C865  1  0.083000  0.575000  0.425000  1
  C  C866  1  0.917000  0.425000  0.575000  1
  C  C867  1  0.583000  0.425000  0.925000  1
  C  C868  1  0.583000  0.075000  0.575000  1
  C  C869  1  0.094800  0.995400  0.867200  1
  C  C870  1  0.594800  0.632800  0.995400  1
  C  C871  1  0.594800  0.867200  0.504600  1
  C  C872  1  0.905200  0.867200  0.995400  1
  C  C873  1  0.905200  0.495400  0.367200  1
  C  C874  1  0.594800  0.495400  0.132800  1
  C  C875  1  0.594800  0.004600  0.367200  1
  C  C876  1  0.094800  0.367200  0.495400  1
  C  C877  1  0.905200  0.004600  0.132800  1
  C  C878  1  0.405200  0.367200  0.004600  1
  C  C879  1  0.405200  0.132800  0.495400  1
  C  C880  1  0.094800  0.132800  0.004600  1
  C  C881  1  0.094800  0.504600  0.632800  1
  C  C882  1  0.405200  0.504600  0.867200  1
  C  C883  1  0.405200  0.995400  0.632800  1
  C  C884  1  0.905200  0.632800  0.504600  1
  C  C885  1  0.028200  0.264900  0.959500  1
  C  C886  1  0.528200  0.540500  0.264900  1
  C  C887  1  0.528200  0.959500  0.235100  1
  C  C888  1  0.971800  0.959500  0.264900  1
  C  C889  1  0.971800  0.764900  0.459500  1
  C  C890  1  0.528200  0.764900  0.040500  1
  C  C891  1  0.528200  0.735100  0.459500  1
  C  C892  1  0.028200  0.459500  0.764900  1
  C  C893  1  0.971800  0.735100  0.040500  1
  C  C894  1  0.471800  0.459500  0.735100  1
  C  C895  1  0.471800  0.040500  0.764900  1
  C  C896  1  0.028200  0.040500  0.735100  1
  C  C897  1  0.028200  0.235100  0.540500  1
  C  C898  1  0.471800  0.235100  0.959500  1
  C  C899  1  0.471800  0.264900  0.540500  1
  C  C900  1  0.971800  0.540500  0.235100  1
  C  C901  1  0.196900  0.886700  0.867100  1
  C  C902  1  0.696900  0.632900  0.886700  1
  C  C903  1  0.696900  0.867100  0.613300  1
  C  C904  1  0.803100  0.867100  0.886700  1
  C  C905  1  0.803100  0.386700  0.367100  1
  C  C906  1  0.696900  0.386700  0.132900  1
  C  C907  1  0.696900  0.113300  0.367100  1
  C  C908  1  0.196900  0.367100  0.386700  1
  C  C909  1  0.803100  0.113300  0.132900  1
  C  C910  1  0.303100  0.367100  0.113300  1
  C  C911  1  0.303100  0.132900  0.386700  1
  C  C912  1  0.196900  0.132900  0.113300  1
  C  C913  1  0.196900  0.613300  0.632900  1
  C  C914  1  0.303100  0.613300  0.867100  1
  C  C915  1  0.303100  0.886700  0.632900  1
  C  C916  1  0.803100  0.632900  0.613300  1
  C  C917  1  0.180200  0.149800  0.850200  1
  C  C918  1  0.680200  0.649800  0.149800  1
  C  C919  1  0.680200  0.850200  0.350200  1
  C  C920  1  0.819800  0.850200  0.149800  1
  C  C921  1  0.819800  0.649800  0.350200  1
  C  C922  1  0.180200  0.350200  0.649800  1
  C  C923  1  0.319800  0.350200  0.850200  1
  C  C924  1  0.319800  0.149800  0.649800  1
  C  C925  1  0.174000  0.823100  0.862000  1
  C  C926  1  0.674000  0.638000  0.823100  1
  C  C927  1  0.674000  0.862000  0.676900  1
  C  C928  1  0.826000  0.862000  0.823100  1
  C  C929  1  0.826000  0.323100  0.362000  1
  C  C930  1  0.674000  0.323100  0.138000  1
  C  C931  1  0.674000  0.176900  0.362000  1
  C  C932  1  0.174000  0.362000  0.323100  1
  C  C933  1  0.826000  0.176900  0.138000  1
  C  C934  1  0.326000  0.362000  0.176900  1
  C  C935  1  0.326000  0.138000  0.323100  1
  C  C936  1  0.174000  0.138000  0.176900  1
  C  C937  1  0.174000  0.676900  0.638000  1
  C  C938  1  0.326000  0.676900  0.862000  1
  C  C939  1  0.326000  0.823100  0.638000  1
  C  C940  1  0.826000  0.638000  0.676900  1
  C  C941  1  0.843400  0.405000  0.132500  1
  C  C942  1  0.343400  0.367500  0.405000  1
  C  C943  1  0.343400  0.132500  0.095000  1
  C  C944  1  0.156600  0.132500  0.405000  1
  C  C945  1  0.156600  0.905000  0.632500  1
  C  C946  1  0.343400  0.905000  0.867500  1
  C  C947  1  0.343400  0.595000  0.632500  1
  C  C948  1  0.843400  0.632500  0.905000  1
  C  C949  1  0.156600  0.595000  0.867500  1
  C  C950  1  0.656600  0.632500  0.595000  1
  C  C951  1  0.656600  0.867500  0.905000  1
  C  C952  1  0.843400  0.867500  0.595000  1
  C  C953  1  0.843400  0.095000  0.367500  1
  C  C954  1  0.656600  0.095000  0.132500  1
  C  C955  1  0.656600  0.405000  0.367500  1
  C  C956  1  0.156600  0.367500  0.095000  1
  C  C957  1  0.750000  0.349000  0.250000  1
  C  C958  1  0.250000  0.250000  0.349000  1
  C  C959  1  0.250000  0.250000  0.151000  1
  C  C960  1  0.250000  0.849000  0.750000  1
  C  C961  1  0.250000  0.651000  0.750000  1
  C  C962  1  0.750000  0.750000  0.849000  1
  C  C963  1  0.750000  0.750000  0.651000  1
  C  C964  1  0.750000  0.151000  0.250000  1
  C  C965  1  0.095000  0.339500  0.010200  1
  C  C966  1  0.595000  0.489800  0.339500  1
  C  C967  1  0.595000  0.010200  0.160500  1
  C  C968  1  0.905000  0.010200  0.339500  1
  C  C969  1  0.905000  0.839500  0.510200  1
  C  C970  1  0.595000  0.839500  0.989800  1
  C  C971  1  0.595000  0.660500  0.510200  1
  C  C972  1  0.095000  0.510200  0.839500  1
  C  C973  1  0.905000  0.660500  0.989800  1
  C  C974  1  0.405000  0.510200  0.660500  1
  C  C975  1  0.405000  0.989800  0.839500  1
  C  C976  1  0.095000  0.989800  0.660500  1
  C  C977  1  0.095000  0.160500  0.489800  1
  C  C978  1  0.405000  0.160500  0.010200  1
  C  C979  1  0.405000  0.339500  0.489800  1
  C  C980  1  0.905000  0.489800  0.160500  1
  C  C981  1  0.896100  0.359100  0.859100  1
  C  C982  1  0.396100  0.640900  0.359100  1
  C  C983  1  0.396100  0.859100  0.140900  1
  C  C984  1  0.103900  0.859100  0.359100  1
  C  C985  1  0.103900  0.640900  0.140900  1
  C  C986  1  0.603900  0.359100  0.640900  1
  C  C987  1  0.603900  0.140900  0.859100  1
  C  C988  1  0.896100  0.140900  0.640900  1
  C  C989  1  0.924200  0.144000  0.996800  1
  C  C990  1  0.424200  0.503200  0.144000  1
  C  C991  1  0.424200  0.996800  0.356000  1
  C  C992  1  0.075800  0.996800  0.144000  1
  C  C993  1  0.075800  0.644000  0.496800  1
  C  C994  1  0.424200  0.644000  0.003200  1
  C  C995  1  0.424200  0.856000  0.496800  1
  C  C996  1  0.924200  0.496800  0.644000  1
  C  C997  1  0.075800  0.856000  0.003200  1
  C  C998  1  0.575800  0.496800  0.856000  1
  C  C999  1  0.575800  0.003200  0.644000  1
  C  C1000  1  0.924200  0.003200  0.856000  1
  C  C1001  1  0.924200  0.356000  0.503200  1
  C  C1002  1  0.575800  0.356000  0.996800  1
  C  C1003  1  0.575800  0.144000  0.503200  1
  C  C1004  1  0.075800  0.503200  0.356000  1
  C  C1005  1  0.039500  0.329400  0.829400  1
  C  C1006  1  0.539500  0.670600  0.329400  1
  C  C1007  1  0.539500  0.829400  0.170600  1
  C  C1008  1  0.960500  0.829400  0.329400  1
  C  C1009  1  0.960500  0.670600  0.170600  1
  C  C1010  1  0.460500  0.329400  0.670600  1
  C  C1011  1  0.460500  0.170600  0.829400  1
  C  C1012  1  0.039500  0.170600  0.670600  1
  C  C1013  1  0.330000  0.819000  0.181000  1
  C  C1014  1  0.830000  0.319000  0.819000  1
  C  C1015  1  0.830000  0.181000  0.681000  1
  C  C1016  1  0.670000  0.181000  0.819000  1
  C  C1017  1  0.670000  0.319000  0.681000  1
  C  C1018  1  0.330000  0.681000  0.319000  1
  C  C1019  1  0.170000  0.681000  0.181000  1
  C  C1020  1  0.170000  0.819000  0.319000  1
  C  C1021  1  0.534000  0.750000  0.250000  1
  C  C1022  1  0.034000  0.250000  0.750000  1
  C  C1023  1  0.466000  0.250000  0.750000  1
  C  C1024  1  0.966000  0.750000  0.250000  1
  C  C1025  1  0.225400  0.876400  0.835500  1
  C  C1026  1  0.725400  0.664500  0.876400  1
  C  C1027  1  0.725400  0.835500  0.623600  1
  C  C1028  1  0.774600  0.835500  0.876400  1
  C  C1029  1  0.774600  0.376400  0.335500  1
  C  C1030  1  0.725400  0.376400  0.164500  1
  C  C1031  1  0.725400  0.123600  0.335500  1
  C  C1032  1  0.225400  0.335500  0.376400  1
  C  C1033  1  0.774600  0.123600  0.164500  1
  C  C1034  1  0.274600  0.335500  0.123600  1
  C  C1035  1  0.274600  0.164500  0.376400  1
  C  C1036  1  0.225400  0.164500  0.123600  1
  C  C1037  1  0.225400  0.623600  0.664500  1
  C  C1038  1  0.274600  0.623600  0.835500  1
  C  C1039  1  0.274600  0.876400  0.664500  1
  C  C1040  1  0.774600  0.664500  0.623600  1
  C  C1041  1  0.827700  0.153000  0.857000  1
  C  C1042  1  0.327700  0.643000  0.153000  1
  C  C1043  1  0.327700  0.857000  0.347000  1
  C  C1044  1  0.172300  0.857000  0.153000  1
  C  C1045  1  0.172300  0.653000  0.357000  1
  C  C1046  1  0.327700  0.653000  0.143000  1
  C  C1047  1  0.327700  0.847000  0.357000  1
  C  C1048  1  0.827700  0.357000  0.653000  1
  C  C1049  1  0.172300  0.847000  0.143000  1
  C  C1050  1  0.672300  0.357000  0.847000  1
  C  C1051  1  0.672300  0.143000  0.653000  1
  C  C1052  1  0.827700  0.143000  0.847000  1
  C  C1053  1  0.827700  0.347000  0.643000  1
  C  C1054  1  0.672300  0.347000  0.857000  1
  C  C1055  1  0.672300  0.153000  0.643000  1
  C  C1056  1  0.172300  0.643000  0.347000  1
  C  C1057  1  0.078500  0.385300  0.963000  1
  C  C1058  1  0.578500  0.537000  0.385300  1
  C  C1059  1  0.578500  0.963000  0.114700  1
  C  C1060  1  0.921500  0.963000  0.385300  1
  C  C1061  1  0.921500  0.885300  0.463000  1
  C  C1062  1  0.578500  0.885300  0.037000  1
  C  C1063  1  0.578500  0.614700  0.463000  1
  C  C1064  1  0.078500  0.463000  0.885300  1
  C  C1065  1  0.921500  0.614700  0.037000  1
  C  C1066  1  0.421500  0.463000  0.614700  1
  C  C1067  1  0.421500  0.037000  0.885300  1
  C  C1068  1  0.078500  0.037000  0.614700  1
  C  C1069  1  0.078500  0.114700  0.537000  1
  C  C1070  1  0.421500  0.114700  0.963000  1
  C  C1071  1  0.421500  0.385300  0.537000  1
  C  C1072  1  0.921500  0.537000  0.114700  1
  C  C1073  1  0.262600  0.772400  0.869000  1
  C  C1074  1  0.762600  0.631000  0.772400  1
  C  C1075  1  0.762600  0.869000  0.727600  1
  C  C1076  1  0.737400  0.869000  0.772400  1
  C  C1077  1  0.737400  0.272400  0.369000  1
  C  C1078  1  0.762600  0.272400  0.131000  1
  C  C1079  1  0.762600  0.227600  0.369000  1
  C  C1080  1  0.262600  0.369000  0.272400  1
  C  C1081  1  0.737400  0.227600  0.131000  1
  C  C1082  1  0.237400  0.369000  0.227600  1
  C  C1083  1  0.237400  0.131000  0.272400  1
  C  C1084  1  0.262600  0.131000  0.227600  1
  C  C1085  1  0.262600  0.727600  0.631000  1
  C  C1086  1  0.237400  0.727600  0.869000  1
  C  C1087  1  0.237400  0.772400  0.631000  1
  C  C1088  1  0.737400  0.631000  0.727600  1
  C  C1089  1  0.925800  0.365200  0.997000  1
  C  C1090  1  0.425800  0.503000  0.365200  1
  C  C1091  1  0.425800  0.997000  0.134800  1
  C  C1092  1  0.074200  0.997000  0.365200  1
  C  C1093  1  0.074200  0.865200  0.497000  1
  C  C1094  1  0.425800  0.865200  0.003000  1
  C  C1095  1  0.425800  0.634800  0.497000  1
  C  C1096  1  0.925800  0.497000  0.865200  1
  C  C1097  1  0.074200  0.634800  0.003000  1
  C  C1098  1  0.574200  0.497000  0.634800  1
  C  C1099  1  0.574200  0.003000  0.865200  1
  C  C1100  1  0.925800  0.003000  0.634800  1
  C  C1101  1  0.925800  0.134800  0.503000  1
  C  C1102  1  0.574200  0.134800  0.997000  1
  C  C1103  1  0.574200  0.365200  0.503000  1
  C  C1104  1  0.074200  0.503000  0.134800  1
  C  C1105  1  0.000000  0.326900  0.173100  1
  C  C1106  1  0.500000  0.326900  0.326900  1
  C  C1107  1  0.500000  0.173100  0.173100  1
  C  C1108  1  0.000000  0.173100  0.326900  1
  C  C1109  1  0.000000  0.826900  0.673100  1
  C  C1110  1  0.500000  0.826900  0.826900  1
  C  C1111  1  0.500000  0.673100  0.673100  1
  C  C1112  1  0.000000  0.673100  0.826900  1
  C  C1113  1  0.124000  0.996700  0.003300  1
  C  C1114  1  0.624000  0.496700  0.996700  1
  C  C1115  1  0.624000  0.003300  0.503300  1
  C  C1116  1  0.876000  0.003300  0.996700  1
  C  C1117  1  0.876000  0.496700  0.503300  1
  C  C1118  1  0.124000  0.503300  0.496700  1
  C  C1119  1  0.376000  0.503300  0.003300  1
  C  C1120  1  0.376000  0.996700  0.496700  1
  C  C1121  1  0.178000  0.444000  0.944000  1
  C  C1122  1  0.678000  0.556000  0.444000  1
  C  C1123  1  0.678000  0.944000  0.056000  1
  C  C1124  1  0.822000  0.944000  0.444000  1
  C  C1125  1  0.822000  0.556000  0.056000  1
  C  C1126  1  0.322000  0.444000  0.556000  1
  C  C1127  1  0.322000  0.056000  0.944000  1
  C  C1128  1  0.178000  0.056000  0.556000  1
  C  C1129  1  0.861700  0.352300  0.146400  1
  C  C1130  1  0.361700  0.353600  0.352300  1
  C  C1131  1  0.361700  0.146400  0.147700  1
  C  C1132  1  0.138300  0.146400  0.352300  1
  C  C1133  1  0.138300  0.852300  0.646400  1
  C  C1134  1  0.361700  0.852300  0.853600  1
  C  C1135  1  0.361700  0.647700  0.646400  1
  C  C1136  1  0.861700  0.646400  0.852300  1
  C  C1137  1  0.138300  0.647700  0.853600  1
  C  C1138  1  0.638300  0.646400  0.647700  1
  C  C1139  1  0.638300  0.853600  0.852300  1
  C  C1140  1  0.861700  0.853600  0.647700  1
  C  C1141  1  0.861700  0.147700  0.353600  1
  C  C1142  1  0.638300  0.147700  0.146400  1
  C  C1143  1  0.638300  0.352300  0.353600  1
  C  C1144  1  0.138300  0.353600  0.147700  1
  C  C1145  1  0.849700  0.240200  0.225700  1
  C  C1146  1  0.349700  0.274300  0.240200  1
  C  C1147  1  0.349700  0.225700  0.259800  1
  C  C1148  1  0.150300  0.225700  0.240200  1
  C  C1149  1  0.150300  0.740200  0.725700  1
  C  C1150  1  0.349700  0.740200  0.774300  1
  C  C1151  1  0.349700  0.759800  0.725700  1
  C  C1152  1  0.849700  0.725700  0.740200  1
  C  C1153  1  0.150300  0.759800  0.774300  1
  C  C1154  1  0.650300  0.725700  0.759800  1
  C  C1155  1  0.650300  0.774300  0.740200  1
  C  C1156  1  0.849700  0.774300  0.759800  1
  C  C1157  1  0.849700  0.259800  0.274300  1
  C  C1158  1  0.650300  0.259800  0.225700  1
  C  C1159  1  0.650300  0.240200  0.274300  1
  C  C1160  1  0.150300  0.274300  0.259800  1
  C  C1161  1  0.903000  0.056800  0.943200  1
  C  C1162  1  0.403000  0.556800  0.056800  1
  C  C1163  1  0.403000  0.943200  0.443200  1
  C  C1164  1  0.097000  0.943200  0.056800  1
  C  C1165  1  0.097000  0.556800  0.443200  1
  C  C1166  1  0.903000  0.443200  0.556800  1
  C  C1167  1  0.597000  0.443200  0.943200  1
  C  C1168  1  0.597000  0.056800  0.556800  1
  C  C1169  1  0.233500  0.876200  0.895300  1
  C  C1170  1  0.733500  0.604700  0.876200  1
  C  C1171  1  0.733500  0.895300  0.623800  1
  C  C1172  1  0.766500  0.895300  0.876200  1
  C  C1173  1  0.766500  0.376200  0.395300  1
  C  C1174  1  0.733500  0.376200  0.104700  1
  C  C1175  1  0.733500  0.123800  0.395300  1
  C  C1176  1  0.233500  0.395300  0.376200  1
  C  C1177  1  0.766500  0.123800  0.104700  1
  C  C1178  1  0.266500  0.395300  0.123800  1
  C  C1179  1  0.266500  0.104700  0.376200  1
  C  C1180  1  0.233500  0.104700  0.123800  1
  C  C1181  1  0.233500  0.623800  0.604700  1
  C  C1182  1  0.266500  0.623800  0.895300  1
  C  C1183  1  0.266500  0.876200  0.604700  1
  C  C1184  1  0.766500  0.604700  0.623800  1
  C  C1185  1  0.213100  0.842200  0.891800  1
  C  C1186  1  0.713100  0.608200  0.842200  1
  C  C1187  1  0.713100  0.891800  0.657800  1
  C  C1188  1  0.786900  0.891800  0.842200  1
  C  C1189  1  0.786900  0.342200  0.391800  1
  C  C1190  1  0.713100  0.342200  0.108200  1
  C  C1191  1  0.713100  0.157800  0.391800  1
  C  C1192  1  0.213100  0.391800  0.342200  1
  C  C1193  1  0.786900  0.157800  0.108200  1
  C  C1194  1  0.286900  0.391800  0.157800  1
  C  C1195  1  0.286900  0.108200  0.342200  1
  C  C1196  1  0.213100  0.108200  0.157800  1
  C  C1197  1  0.213100  0.657800  0.608200  1
  C  C1198  1  0.286900  0.657800  0.891800  1
  C  C1199  1  0.286900  0.842200  0.608200  1
  C  C1200  1  0.786900  0.608200  0.657800  1
  C  C1201  1  0.016800  0.235500  0.003000  1
  C  C1202  1  0.516800  0.497000  0.235500  1
  C  C1203  1  0.516800  0.003000  0.264500  1
  C  C1204  1  0.983200  0.003000  0.235500  1
  C  C1205  1  0.983200  0.735500  0.503000  1
  C  C1206  1  0.516800  0.735500  0.997000  1
  C  C1207  1  0.516800  0.764500  0.503000  1
  C  C1208  1  0.016800  0.503000  0.735500  1
  C  C1209  1  0.983200  0.764500  0.997000  1
  C  C1210  1  0.483200  0.503000  0.764500  1
  C  C1211  1  0.483200  0.997000  0.735500  1
  C  C1212  1  0.016800  0.997000  0.764500  1
  C  C1213  1  0.016800  0.264500  0.497000  1
  C  C1214  1  0.483200  0.264500  0.003000  1
  C  C1215  1  0.483200  0.235500  0.497000  1
  C  C1216  1  0.983200  0.497000  0.264500  1
  C  C1217  1  0.763100  0.358900  0.201300  1
  C  C1218  1  0.263100  0.298700  0.358900  1
  C  C1219  1  0.263100  0.201300  0.141100  1
  C  C1220  1  0.236900  0.201300  0.358900  1
  C  C1221  1  0.236900  0.858900  0.701300  1
  C  C1222  1  0.263100  0.858900  0.798700  1
  C  C1223  1  0.263100  0.641100  0.701300  1
  C  C1224  1  0.763100  0.701300  0.858900  1
  C  C1225  1  0.236900  0.641100  0.798700  1
  C  C1226  1  0.736900  0.701300  0.641100  1
  C  C1227  1  0.736900  0.798700  0.858900  1
  C  C1228  1  0.763100  0.798700  0.641100  1
  C  C1229  1  0.763100  0.141100  0.298700  1
  C  C1230  1  0.736900  0.141100  0.201300  1
  C  C1231  1  0.736900  0.358900  0.298700  1
  C  C1232  1  0.236900  0.298700  0.141100  1
  C  C1233  1  0.984500  0.358500  0.176000  1
  C  C1234  1  0.484500  0.324000  0.358500  1
  C  C1235  1  0.484500  0.176000  0.141500  1
  C  C1236  1  0.015500  0.176000  0.358500  1
  C  C1237  1  0.015500  0.858500  0.676000  1
  C  C1238  1  0.484500  0.858500  0.824000  1
  C  C1239  1  0.484500  0.641500  0.676000  1
  C  C1240  1  0.984500  0.676000  0.858500  1
  C  C1241  1  0.015500  0.641500  0.824000  1
  C  C1242  1  0.515500  0.676000  0.641500  1
  C  C1243  1  0.515500  0.824000  0.858500  1
  C  C1244  1  0.984500  0.824000  0.641500  1
  C  C1245  1  0.984500  0.141500  0.324000  1
  C  C1246  1  0.515500  0.141500  0.176000  1
  C  C1247  1  0.515500  0.358500  0.324000  1
  C  C1248  1  0.015500  0.324000  0.141500  1
  C  C1249  1  0.097700  0.349900  0.963200  1
  C  C1250  1  0.597700  0.536800  0.349900  1
  C  C1251  1  0.597700  0.963200  0.150100  1
  C  C1252  1  0.902300  0.963200  0.349900  1
  C  C1253  1  0.902300  0.849900  0.463200  1
  C  C1254  1  0.597700  0.849900  0.036800  1
  C  C1255  1  0.597700  0.650100  0.463200  1
  C  C1256  1  0.097700  0.463200  0.849900  1
  C  C1257  1  0.902300  0.650100  0.036800  1
  C  C1258  1  0.402300  0.463200  0.650100  1
  C  C1259  1  0.402300  0.036800  0.849900  1
  C  C1260  1  0.097700  0.036800  0.650100  1
  C  C1261  1  0.097700  0.150100  0.536800  1
  C  C1262  1  0.402300  0.150100  0.963200  1
  C  C1263  1  0.402300  0.349900  0.536800  1
  C  C1264  1  0.902300  0.536800  0.150100  1
  C  C1265  1  0.235100  0.810300  0.880000  1
  C  C1266  1  0.735100  0.620000  0.810300  1
  C  C1267  1  0.735100  0.880000  0.689700  1
  C  C1268  1  0.764900  0.880000  0.810300  1
  C  C1269  1  0.764900  0.310300  0.380000  1
  C  C1270  1  0.735100  0.310300  0.120000  1
  C  C1271  1  0.735100  0.189700  0.380000  1
  C  C1272  1  0.235100  0.380000  0.310300  1
  C  C1273  1  0.764900  0.189700  0.120000  1
  C  C1274  1  0.264900  0.380000  0.189700  1
  C  C1275  1  0.264900  0.120000  0.310300  1
  C  C1276  1  0.235100  0.120000  0.189700  1
  C  C1277  1  0.235100  0.689700  0.620000  1
  C  C1278  1  0.264900  0.689700  0.880000  1
  C  C1279  1  0.264900  0.810300  0.620000  1
  C  C1280  1  0.764900  0.620000  0.689700  1
  C  C1281  1  0.880800  0.385600  0.054700  1
  C  C1282  1  0.380800  0.445300  0.385600  1
  C  C1283  1  0.380800  0.054700  0.114400  1
  C  C1284  1  0.119200  0.054700  0.385600  1
  C  C1285  1  0.119200  0.885600  0.554700  1
  C  C1286  1  0.380800  0.885600  0.945300  1
  C  C1287  1  0.380800  0.614400  0.554700  1
  C  C1288  1  0.880800  0.554700  0.885600  1
  C  C1289  1  0.119200  0.614400  0.945300  1
  C  C1290  1  0.619200  0.554700  0.614400  1
  C  C1291  1  0.619200  0.945300  0.885600  1
  C  C1292  1  0.880800  0.945300  0.614400  1
  C  C1293  1  0.880800  0.114400  0.445300  1
  C  C1294  1  0.619200  0.114400  0.054700  1
  C  C1295  1  0.619200  0.385600  0.445300  1
  C  C1296  1  0.119200  0.445300  0.114400  1
  C  C1297  1  0.114000  0.044000  0.915000  1
  C  C1298  1  0.614000  0.585000  0.044000  1
  C  C1299  1  0.614000  0.915000  0.456000  1
  C  C1300  1  0.886000  0.915000  0.044000  1
  C  C1301  1  0.886000  0.544000  0.415000  1
  C  C1302  1  0.614000  0.544000  0.085000  1
  C  C1303  1  0.614000  0.956000  0.415000  1
  C  C1304  1  0.114000  0.415000  0.544000  1
  C  C1305  1  0.886000  0.956000  0.085000  1
  C  C1306  1  0.386000  0.415000  0.956000  1
  C  C1307  1  0.386000  0.085000  0.544000  1
  C  C1308  1  0.114000  0.085000  0.956000  1
  C  C1309  1  0.114000  0.456000  0.585000  1
  C  C1310  1  0.386000  0.456000  0.915000  1
  C  C1311  1  0.386000  0.044000  0.585000  1
  C  C1312  1  0.886000  0.585000  0.456000  1
  C  C1313  1  0.411600  0.985700  0.014300  1
  C  C1314  1  0.911600  0.485700  0.985700  1
  C  C1315  1  0.911600  0.014300  0.514300  1
  C  C1316  1  0.588400  0.014300  0.985700  1
  C  C1317  1  0.588400  0.485700  0.514300  1
  C  C1318  1  0.411600  0.514300  0.485700  1
  C  C1319  1  0.088400  0.514300  0.014300  1
  C  C1320  1  0.088400  0.985700  0.485700  1
  C  C1321  1  0.807900  0.328300  0.172200  1
  C  C1322  1  0.307900  0.327800  0.328300  1
  C  C1323  1  0.307900  0.172200  0.171700  1
  C  C1324  1  0.192100  0.172200  0.328300  1
  C  C1325  1  0.192100  0.828300  0.672200  1
  C  C1326  1  0.307900  0.828300  0.827800  1
  C  C1327  1  0.307900  0.671700  0.672200  1
  C  C1328  1  0.807900  0.672200  0.828300  1
  C  C1329  1  0.192100  0.671700  0.827800  1
  C  C1330  1  0.692100  0.672200  0.671700  1
  C  C1331  1  0.692100  0.827800  0.828300  1
  C  C1332  1  0.807900  0.827800  0.671700  1
  C  C1333  1  0.807900  0.171700  0.327800  1
  C  C1334  1  0.692100  0.171700  0.172200  1
  C  C1335  1  0.692100  0.328300  0.327800  1
  C  C1336  1  0.192100  0.327800  0.171700  1
  C  C1337  1  0.104700  0.369500  0.057400  1
  C  C1338  1  0.604700  0.442600  0.369500  1
  C  C1339  1  0.604700  0.057400  0.130500  1
  C  C1340  1  0.895300  0.057400  0.369500  1
  C  C1341  1  0.895300  0.869500  0.557400  1
  C  C1342  1  0.604700  0.869500  0.942600  1
  C  C1343  1  0.604700  0.630500  0.557400  1
  C  C1344  1  0.104700  0.557400  0.869500  1
  C  C1345  1  0.895300  0.630500  0.942600  1
  C  C1346  1  0.395300  0.557400  0.630500  1
  C  C1347  1  0.395300  0.942600  0.869500  1
  C  C1348  1  0.104700  0.942600  0.630500  1
  C  C1349  1  0.104700  0.130500  0.442600  1
  C  C1350  1  0.395300  0.130500  0.057400  1
  C  C1351  1  0.395300  0.369500  0.442600  1
  C  C1352  1  0.895300  0.442600  0.130500  1
  C  C1353  1  0.996000  0.286000  0.973000  1
  C  C1354  1  0.496000  0.527000  0.286000  1
  C  C1355  1  0.496000  0.973000  0.214000  1
  C  C1356  1  0.004000  0.973000  0.286000  1
  C  C1357  1  0.004000  0.786000  0.473000  1
  C  C1358  1  0.496000  0.786000  0.027000  1
  C  C1359  1  0.496000  0.714000  0.473000  1
  C  C1360  1  0.996000  0.473000  0.786000  1
  C  C1361  1  0.004000  0.714000  0.027000  1
  C  C1362  1  0.504000  0.473000  0.714000  1
  C  C1363  1  0.504000  0.027000  0.786000  1
  C  C1364  1  0.996000  0.027000  0.714000  1
  C  C1365  1  0.996000  0.214000  0.527000  1
  C  C1366  1  0.504000  0.214000  0.973000  1
  C  C1367  1  0.504000  0.286000  0.527000  1
  C  C1368  1  0.004000  0.527000  0.214000  1
  C  C1369  1  0.912400  0.377600  0.960200  1
  C  C1370  1  0.412400  0.539800  0.377600  1
  C  C1371  1  0.412400  0.960200  0.122400  1
  C  C1372  1  0.087600  0.960200  0.377600  1
  C  C1373  1  0.087600  0.877600  0.460200  1
  C  C1374  1  0.412400  0.877600  0.039800  1
  C  C1375  1  0.412400  0.622400  0.460200  1
  C  C1376  1  0.912400  0.460200  0.877600  1
  C  C1377  1  0.087600  0.622400  0.039800  1
  C  C1378  1  0.587600  0.460200  0.622400  1
  C  C1379  1  0.587600  0.039800  0.877600  1
  C  C1380  1  0.912400  0.039800  0.622400  1
  C  C1381  1  0.912400  0.122400  0.539800  1
  C  C1382  1  0.587600  0.122400  0.960200  1
  C  C1383  1  0.587600  0.377600  0.539800  1
  C  C1384  1  0.087600  0.539800  0.122400  1
  C  C1385  1  0.905000  0.395000  0.895000  1
  C  C1386  1  0.405000  0.605000  0.395000  1
  C  C1387  1  0.405000  0.895000  0.105000  1
  C  C1388  1  0.095000  0.895000  0.395000  1
  C  C1389  1  0.095000  0.605000  0.105000  1
  C  C1390  1  0.595000  0.395000  0.605000  1
  C  C1391  1  0.595000  0.105000  0.895000  1
  C  C1392  1  0.905000  0.105000  0.605000  1
  C  C1393  1  0.792000  0.214900  0.992600  1.0
  C  C1394  1  0.292000  0.507400  0.214900  1.0
  C  C1395  1  0.292000  0.992600  0.285100  1.0
  C  C1396  1  0.208000  0.992600  0.214900  1.0
  C  C1397  1  0.208000  0.714900  0.492600  1.0
  C  C1398  1  0.292000  0.714900  0.007400  1.0
  C  C1399  1  0.292000  0.785100  0.492600  1.0
  C  C1400  1  0.792000  0.492600  0.714900  1.0
  C  C1401  1  0.208000  0.785100  0.007400  1.0
  C  C1402  1  0.708000  0.492600  0.785100  1.0
  C  C1403  1  0.708000  0.007400  0.714900  1.0
  C  C1404  1  0.792000  0.007400  0.785100  1.0
  C  C1405  1  0.792000  0.285100  0.507400  1.0
  C  C1406  1  0.708000  0.285100  0.992600  1.0
  C  C1407  1  0.708000  0.214900  0.507400  1.0
  C  C1408  1  0.208000  0.507400  0.285100  1.0
  C  C1409  1  0.810400  0.227200  0.027900  1.0
  C  C1410  1  0.310400  0.472100  0.227200  1.0
  C  C1411  1  0.310400  0.027900  0.272800  1.0
  C  C1412  1  0.189600  0.027900  0.227200  1.0
  C  C1413  1  0.189600  0.727200  0.527900  1.0
  C  C1414  1  0.310400  0.727200  0.972100  1.0
  C  C1415  1  0.310400  0.772800  0.527900  1.0
  C  C1416  1  0.810400  0.527900  0.727200  1.0
  C  C1417  1  0.189600  0.772800  0.972100  1.0
  C  C1418  1  0.689600  0.527900  0.772800  1.0
  C  C1419  1  0.689600  0.972100  0.727200  1.0
  C  C1420  1  0.810400  0.972100  0.772800  1.0
  C  C1421  1  0.810400  0.272800  0.472100  1.0
  C  C1422  1  0.689600  0.272800  0.027900  1.0
  C  C1423  1  0.689600  0.227200  0.472100  1.0
  C  C1424  1  0.189600  0.472100  0.272800  1.0
  C  C1425  1  0.847700  0.252600  0.028300  1.0
  C  C1426  1  0.347700  0.471700  0.252600  1.0
  C  C1427  1  0.347700  0.028300  0.247400  1.0
  C  C1428  1  0.152300  0.028300  0.252600  1.0
  C  C1429  1  0.152300  0.752600  0.528300  1.0
  C  C1430  1  0.347700  0.752600  0.971700  1.0
  C  C1431  1  0.347700  0.747400  0.528300  1.0
  C  C1432  1  0.847700  0.528300  0.752600  1.0
  C  C1433  1  0.152300  0.747400  0.971700  1.0
  C  C1434  1  0.652300  0.528300  0.747400  1.0
  C  C1435  1  0.652300  0.971700  0.752600  1.0
  C  C1436  1  0.847700  0.971700  0.747400  1.0
  C  C1437  1  0.847700  0.247400  0.471700  1.0
  C  C1438  1  0.652300  0.247400  0.028300  1.0
  C  C1439  1  0.652300  0.252600  0.471700  1.0
  C  C1440  1  0.152300  0.471700  0.247400  1.0
  C  C1441  1  0.866600  0.265700  0.993400  1.0
  C  C1442  1  0.366600  0.506600  0.265700  1.0
  C  C1443  1  0.366600  0.993400  0.234300  1.0
  C  C1444  1  0.133400  0.993400  0.265700  1.0
  C  C1445  1  0.133400  0.765700  0.493400  1.0
  C  C1446  1  0.366600  0.765700  0.006600  1.0
  C  C1447  1  0.366600  0.734300  0.493400  1.0
  C  C1448  1  0.866600  0.493400  0.765700  1.0
  C  C1449  1  0.133400  0.734300  0.006600  1.0
  C  C1450  1  0.633400  0.493400  0.734300  1.0
  C  C1451  1  0.633400  0.006600  0.765700  1.0
  C  C1452  1  0.866600  0.006600  0.734300  1.0
  C  C1453  1  0.866600  0.234300  0.506600  1.0
  C  C1454  1  0.633400  0.234300  0.993400  1.0
  C  C1455  1  0.633400  0.265700  0.506600  1.0
  C  C1456  1  0.133400  0.506600  0.234300  1.0
  C  C1457  1  0.848100  0.253400  0.958100  1.0
  C  C1458  1  0.348100  0.541900  0.253400  1.0
  C  C1459  1  0.348100  0.958100  0.246600  1.0
  C  C1460  1  0.151900  0.958100  0.253400  1.0
  C  C1461  1  0.151900  0.753400  0.458100  1.0
  C  C1462  1  0.348100  0.753400  0.041900  1.0
  C  C1463  1  0.348100  0.746600  0.458100  1.0
  C  C1464  1  0.848100  0.458100  0.753400  1.0
  C  C1465  1  0.151900  0.746600  0.041900  1.0
  C  C1466  1  0.651900  0.458100  0.746600  1.0
  C  C1467  1  0.651900  0.041900  0.753400  1.0
  C  C1468  1  0.848100  0.041900  0.746600  1.0
  C  C1469  1  0.848100  0.246600  0.541900  1.0
  C  C1470  1  0.651900  0.246600  0.958100  1.0
  C  C1471  1  0.651900  0.253400  0.541900  1.0
  C  C1472  1  0.151900  0.541900  0.246600  1.0
  C  C1473  1  0.810800  0.228000  0.957700  1.0
  C  C1474  1  0.310800  0.542300  0.228000  1.0
  C  C1475  1  0.310800  0.957700  0.272000  1.0
  C  C1476  1  0.189200  0.957700  0.228000  1.0
  C  C1477  1  0.189200  0.728000  0.457700  1.0
  C  C1478  1  0.310800  0.728000  0.042300  1.0
  C  C1479  1  0.310800  0.772000  0.457700  1.0
  C  C1480  1  0.810800  0.457700  0.728000  1.0
  C  C1481  1  0.189200  0.772000  0.042300  1.0
  C  C1482  1  0.689200  0.457700  0.772000  1.0
  C  C1483  1  0.689200  0.042300  0.728000  1.0
  C  C1484  1  0.810800  0.042300  0.772000  1.0
  C  C1485  1  0.810800  0.272000  0.542300  1.0
  C  C1486  1  0.689200  0.272000  0.957700  1.0
  C  C1487  1  0.689200  0.228000  0.542300  1.0
  C  C1488  1  0.189200  0.542300  0.272000  1.0
  C  C1489  1  0.715400  0.087100  0.988500  1.0
  C  C1490  1  0.215400  0.511500  0.087100  1.0
  C  C1491  1  0.215400  0.988500  0.412900  1.0
  C  C1492  1  0.284600  0.988500  0.087100  1.0
  C  C1493  1  0.284600  0.587100  0.488500  1.0
  C  C1494  1  0.215400  0.587100  0.011500  1.0
  C  C1495  1  0.215400  0.912900  0.488500  1.0
  C  C1496  1  0.715400  0.488500  0.587100  1.0
  C  C1497  1  0.284600  0.912900  0.011500  1.0
  C  C1498  1  0.784600  0.488500  0.912900  1.0
  C  C1499  1  0.784600  0.011500  0.587100  1.0
  C  C1500  1  0.715400  0.011500  0.912900  1.0
  C  C1501  1  0.715400  0.412900  0.511500  1.0
  C  C1502  1  0.784600  0.412900  0.988500  1.0
  C  C1503  1  0.784600  0.087100  0.511500  1.0
  C  C1504  1  0.284600  0.511500  0.412900  1.0
  C  C1505  1  0.714000  0.127600  0.989500  1.0
  C  C1506  1  0.214000  0.510500  0.127600  1.0
  C  C1507  1  0.214000  0.989500  0.372400  1.0
  C  C1508  1  0.286000  0.989500  0.127600  1.0
  C  C1509  1  0.286000  0.627600  0.489500  1.0
  C  C1510  1  0.214000  0.627600  0.010500  1.0
  C  C1511  1  0.214000  0.872400  0.489500  1.0
  C  C1512  1  0.714000  0.489500  0.627600  1.0
  C  C1513  1  0.286000  0.872400  0.010500  1.0
  C  C1514  1  0.786000  0.489500  0.872400  1.0
  C  C1515  1  0.786000  0.010500  0.627600  1.0
  C  C1516  1  0.714000  0.010500  0.872400  1.0
  C  C1517  1  0.714000  0.372400  0.510500  1.0
  C  C1518  1  0.786000  0.372400  0.989500  1.0
  C  C1519  1  0.786000  0.127600  0.510500  1.0
  C  C1520  1  0.286000  0.510500  0.372400  1.0
  C  C1521  1  0.754600  0.148870  0.991400  1.0
  C  C1522  1  0.254600  0.508600  0.148870  1.0
  C  C1523  1  0.254600  0.991400  0.351130  1.0
  C  C1524  1  0.245400  0.991400  0.148870  1.0
  C  C1525  1  0.245400  0.648870  0.491400  1.0
  C  C1526  1  0.254600  0.648870  0.008600  1.0
  C  C1527  1  0.254600  0.851130  0.491400  1.0
  C  C1528  1  0.754600  0.491400  0.648870  1.0
  C  C1529  1  0.245400  0.851130  0.008600  1.0
  C  C1530  1  0.745400  0.491400  0.851130  1.0
  C  C1531  1  0.745400  0.008600  0.648870  1.0
  C  C1532  1  0.754600  0.008600  0.851130  1.0
  C  C1533  1  0.754600  0.351130  0.508600  1.0
  C  C1534  1  0.745400  0.351130  0.991400  1.0
  C  C1535  1  0.745400  0.148870  0.508600  1.0
  C  C1536  1  0.245400  0.508600  0.351130  1.0
  C  C1537  1  0.796700  0.129700  0.992200  1.0
  C  C1538  1  0.296700  0.507800  0.129700  1.0
  C  C1539  1  0.296700  0.992200  0.370300  1.0
  C  C1540  1  0.203300  0.992200  0.129700  1.0
  C  C1541  1  0.203300  0.629700  0.492200  1.0
  C  C1542  1  0.296700  0.629700  0.007800  1.0
  C  C1543  1  0.296700  0.870300  0.492200  1.0
  C  C1544  1  0.796700  0.492200  0.629700  1.0
  C  C1545  1  0.203300  0.870300  0.007800  1.0
  C  C1546  1  0.703300  0.492200  0.870300  1.0
  C  C1547  1  0.703300  0.007800  0.629700  1.0
  C  C1548  1  0.796700  0.007800  0.870300  1.0
  C  C1549  1  0.796700  0.370300  0.507800  1.0
  C  C1550  1  0.703300  0.370300  0.992200  1.0
  C  C1551  1  0.703300  0.129700  0.507800  1.0
  C  C1552  1  0.203300  0.507800  0.370300  1.0
  C  C1553  1  0.798200  0.089200  0.991200  1.0
  C  C1554  1  0.298200  0.508800  0.089200  1.0
  C  C1555  1  0.298200  0.991200  0.410800  1.0
  C  C1556  1  0.201800  0.991200  0.089200  1.0
  C  C1557  1  0.201800  0.589200  0.491200  1.0
  C  C1558  1  0.298200  0.589200  0.008800  1.0
  C  C1559  1  0.298200  0.910800  0.491200  1.0
  C  C1560  1  0.798200  0.491200  0.589200  1.0
  C  C1561  1  0.201800  0.910800  0.008800  1.0
  C  C1562  1  0.701800  0.491200  0.910800  1.0
  C  C1563  1  0.701800  0.008800  0.589200  1.0
  C  C1564  1  0.798200  0.008800  0.910800  1.0
  C  C1565  1  0.798200  0.410800  0.508800  1.0
  C  C1566  1  0.701800  0.410800  0.991200  1.0
  C  C1567  1  0.701800  0.089200  0.508800  1.0
  C  C1568  1  0.201800  0.508800  0.410800  1.0
  C  C1569  1  0.747500  0.192600  0.992000  1.0
  C  C1570  1  0.247500  0.508000  0.192600  1.0
  C  C1571  1  0.247500  0.992000  0.307400  1.0
  C  C1572  1  0.252500  0.992000  0.192600  1.0
  C  C1573  1  0.252500  0.692600  0.492000  1.0
  C  C1574  1  0.247500  0.692600  0.008000  1.0
  C  C1575  1  0.247500  0.807400  0.492000  1.0
  C  C1576  1  0.747500  0.492000  0.692600  1.0
  C  C1577  1  0.252500  0.807400  0.008000  1.0
  C  C1578  1  0.752500  0.492000  0.807400  1.0
  C  C1579  1  0.752500  0.008000  0.692600  1.0
  C  C1580  1  0.747500  0.008000  0.807400  1.0
  C  C1581  1  0.747500  0.307400  0.508000  1.0
  C  C1582  1  0.752500  0.307400  0.992000  1.0
  C  C1583  1  0.752500  0.192600  0.508000  1.0
  C  C1584  1  0.252500  0.508000  0.307400  1.0
  C  C1585  1  0.940300  0.228000  0.147200  1.0
  C  C1586  1  0.440300  0.352800  0.228000  1.0
  C  C1587  1  0.440300  0.147200  0.272000  1.0
  C  C1588  1  0.059700  0.147200  0.228000  1.0
  C  C1589  1  0.059700  0.728000  0.647200  1.0
  C  C1590  1  0.440300  0.728000  0.852800  1.0
  C  C1591  1  0.440300  0.772000  0.647200  1.0
  C  C1592  1  0.940300  0.647200  0.728000  1.0
  C  C1593  1  0.059700  0.772000  0.852800  1.0
  C  C1594  1  0.559700  0.647200  0.772000  1.0
  C  C1595  1  0.559700  0.852800  0.728000  1.0
  C  C1596  1  0.940300  0.852800  0.772000  1.0
  C  C1597  1  0.940300  0.272000  0.352800  1.0
  C  C1598  1  0.559700  0.272000  0.147200  1.0
  C  C1599  1  0.559700  0.228000  0.352800  1.0
  C  C1600  1  0.059700  0.352800  0.272000  1.0
  C  C1601  1  0.909900  0.251600  0.126700  1.0
  C  C1602  1  0.409900  0.373300  0.251600  1.0
  C  C1603  1  0.409900  0.126700  0.248400  1.0
  C  C1604  1  0.090100  0.126700  0.251600  1.0
  C  C1605  1  0.090100  0.751600  0.626700  1.0
  C  C1606  1  0.409900  0.751600  0.873300  1.0
  C  C1607  1  0.409900  0.748400  0.626700  1.0
  C  C1608  1  0.909900  0.626700  0.751600  1.0
  C  C1609  1  0.090100  0.748400  0.873300  1.0
  C  C1610  1  0.590100  0.626700  0.748400  1.0
  C  C1611  1  0.590100  0.873300  0.751600  1.0
  C  C1612  1  0.909900  0.873300  0.748400  1.0
  C  C1613  1  0.909900  0.248400  0.373300  1.0
  C  C1614  1  0.590100  0.248400  0.126700  1.0
  C  C1615  1  0.590100  0.251600  0.373300  1.0
  C  C1616  1  0.090100  0.373300  0.248400  1.0
  C  C1617  1  0.896600  0.241400  0.089100  1.0
  C  C1618  1  0.396600  0.410900  0.241400  1.0
  C  C1619  1  0.396600  0.089100  0.258600  1.0
  C  C1620  1  0.103400  0.089100  0.241400  1.0
  C  C1621  1  0.103400  0.741400  0.589100  1.0
  C  C1622  1  0.396600  0.741400  0.910900  1.0
  C  C1623  1  0.396600  0.758600  0.589100  1.0
  C  C1624  1  0.896600  0.589100  0.741400  1.0
  C  C1625  1  0.103400  0.758600  0.910900  1.0
  C  C1626  1  0.603400  0.589100  0.758600  1.0
  C  C1627  1  0.603400  0.910900  0.741400  1.0
  C  C1628  1  0.896600  0.910900  0.758600  1.0
  C  C1629  1  0.896600  0.258600  0.410900  1.0
  C  C1630  1  0.603400  0.258600  0.089100  1.0
  C  C1631  1  0.603400  0.241400  0.410900  1.0
  C  C1632  1  0.103400  0.410900  0.258600  1.0
  C  C1633  1  0.913700  0.207600  0.072100  1.0
  C  C1634  1  0.413700  0.427900  0.207600  1.0
  C  C1635  1  0.413700  0.072100  0.292400  1.0
  C  C1636  1  0.086300  0.072100  0.207600  1.0
  C  C1637  1  0.086300  0.707600  0.572100  1.0
  C  C1638  1  0.413700  0.707600  0.927900  1.0
  C  C1639  1  0.413700  0.792400  0.572100  1.0
  C  C1640  1  0.913700  0.572100  0.707600  1.0
  C  C1641  1  0.086300  0.792400  0.927900  1.0
  C  C1642  1  0.586300  0.572100  0.792400  1.0
  C  C1643  1  0.586300  0.927900  0.707600  1.0
  C  C1644  1  0.913700  0.927900  0.792400  1.0
  C  C1645  1  0.913700  0.292400  0.427900  1.0
  C  C1646  1  0.586300  0.292400  0.072100  1.0
  C  C1647  1  0.586300  0.207600  0.427900  1.0
  C  C1648  1  0.086300  0.427900  0.292400  1.0
  C  C1649  1  0.944100  0.184100  0.092600  1.0
  C  C1650  1  0.444100  0.407400  0.184100  1.0
  C  C1651  1  0.444100  0.092600  0.315900  1.0
  C  C1652  1  0.055900  0.092600  0.184100  1.0
  C  C1653  1  0.055900  0.684100  0.592600  1.0
  C  C1654  1  0.444100  0.684100  0.907400  1.0
  C  C1655  1  0.444100  0.815900  0.592600  1.0
  C  C1656  1  0.944100  0.592600  0.684100  1.0
  C  C1657  1  0.055900  0.815900  0.907400  1.0
  C  C1658  1  0.555900  0.592600  0.815900  1.0
  C  C1659  1  0.555900  0.907400  0.684100  1.0
  C  C1660  1  0.944100  0.907400  0.815900  1.0
  C  C1661  1  0.944100  0.315900  0.407400  1.0
  C  C1662  1  0.555900  0.315900  0.092600  1.0
  C  C1663  1  0.555900  0.184100  0.407400  1.0
  C  C1664  1  0.055900  0.407400  0.315900  1.0
  C  C1665  1  0.860800  0.266700  0.070900  1.0
  C  C1666  1  0.360800  0.429100  0.266700  1.0
  C  C1667  1  0.360800  0.070900  0.233300  1.0
  C  C1668  1  0.139200  0.070900  0.266700  1.0
  C  C1669  1  0.139200  0.766700  0.570900  1.0
  C  C1670  1  0.360800  0.766700  0.929100  1.0
  C  C1671  1  0.360800  0.733300  0.570900  1.0
  C  C1672  1  0.860800  0.570900  0.766700  1.0
  C  C1673  1  0.139200  0.733300  0.929100  1.0
  C  C1674  1  0.639200  0.570900  0.733300  1.0
  C  C1675  1  0.639200  0.929100  0.766700  1.0
  C  C1676  1  0.860800  0.929100  0.733300  1.0
  C  C1677  1  0.860800  0.233300  0.429100  1.0
  C  C1678  1  0.639200  0.233300  0.070900  1.0
  C  C1679  1  0.639200  0.266700  0.429100  1.0
  C  C1680  1  0.139200  0.429100  0.233300  1.0
  C  C1681  1  0.952700  0.227500  0.845800  1.0
  C  C1682  1  0.452700  0.654200  0.227500  1.0
  C  C1683  1  0.452700  0.845800  0.272500  1.0
  C  C1684  1  0.047300  0.845800  0.227500  1.0
  C  C1685  1  0.047300  0.727500  0.345800  1.0
  C  C1686  1  0.452700  0.727500  0.154200  1.0
  C  C1687  1  0.452700  0.772500  0.345800  1.0
  C  C1688  1  0.952700  0.345800  0.727500  1.0
  C  C1689  1  0.047300  0.772500  0.154200  1.0
  C  C1690  1  0.547300  0.345800  0.772500  1.0
  C  C1691  1  0.547300  0.154200  0.727500  1.0
  C  C1692  1  0.952700  0.154200  0.772500  1.0
  C  C1693  1  0.952700  0.272500  0.654200  1.0
  C  C1694  1  0.547300  0.272500  0.845800  1.0
  C  C1695  1  0.547300  0.227500  0.654200  1.0
  C  C1696  1  0.047300  0.654200  0.272500  1.0
  C  C1697  1  0.920800  0.251000  0.864800  1.0
  C  C1698  1  0.420800  0.635200  0.251000  1.0
  C  C1699  1  0.420800  0.864800  0.249000  1.0
  C  C1700  1  0.079200  0.864800  0.251000  1.0
  C  C1701  1  0.079200  0.751000  0.364800  1.0
  C  C1702  1  0.420800  0.751000  0.135200  1.0
  C  C1703  1  0.420800  0.749000  0.364800  1.0
  C  C1704  1  0.920800  0.364800  0.751000  1.0
  C  C1705  1  0.079200  0.749000  0.135200  1.0
  C  C1706  1  0.579200  0.364800  0.749000  1.0
  C  C1707  1  0.579200  0.135200  0.751000  1.0
  C  C1708  1  0.920800  0.135200  0.749000  1.0
  C  C1709  1  0.920800  0.249000  0.635200  1.0
  C  C1710  1  0.579200  0.249000  0.864800  1.0
  C  C1711  1  0.579200  0.251000  0.635200  1.0
  C  C1712  1  0.079200  0.635200  0.249000  1.0
  C  C1713  1  0.903700  0.240000  0.901000  1.0
  C  C1714  1  0.403700  0.599000  0.240000  1.0
  C  C1715  1  0.403700  0.901000  0.260000  1.0
  C  C1716  1  0.096300  0.901000  0.240000  1.0
  C  C1717  1  0.096300  0.740000  0.401000  1.0
  C  C1718  1  0.403700  0.740000  0.099000  1.0
  C  C1719  1  0.403700  0.760000  0.401000  1.0
  C  C1720  1  0.903700  0.401000  0.740000  1.0
  C  C1721  1  0.096300  0.760000  0.099000  1.0
  C  C1722  1  0.596300  0.401000  0.760000  1.0
  C  C1723  1  0.596300  0.099000  0.740000  1.0
  C  C1724  1  0.903700  0.099000  0.760000  1.0
  C  C1725  1  0.903700  0.260000  0.599000  1.0
  C  C1726  1  0.596300  0.260000  0.901000  1.0
  C  C1727  1  0.596300  0.240000  0.599000  1.0
  C  C1728  1  0.096300  0.599000  0.260000  1.0
  C  C1729  1  0.918600  0.205500  0.918200  1.0
  C  C1730  1  0.418600  0.581800  0.205500  1.0
  C  C1731  1  0.418600  0.918200  0.294500  1.0
  C  C1732  1  0.081400  0.918200  0.205500  1.0
  C  C1733  1  0.081400  0.705500  0.418200  1.0
  C  C1734  1  0.418600  0.705500  0.081800  1.0
  C  C1735  1  0.418600  0.794500  0.418200  1.0
  C  C1736  1  0.918600  0.418200  0.705500  1.0
  C  C1737  1  0.081400  0.794500  0.081800  1.0
  C  C1738  1  0.581400  0.418200  0.794500  1.0
  C  C1739  1  0.581400  0.081800  0.705500  1.0
  C  C1740  1  0.918600  0.081800  0.794500  1.0
  C  C1741  1  0.918600  0.294500  0.581800  1.0
  C  C1742  1  0.581400  0.294500  0.918200  1.0
  C  C1743  1  0.581400  0.205500  0.581800  1.0
  C  C1744  1  0.081400  0.581800  0.294500  1.0
  C  C1745  1  0.950500  0.182100  0.899200  1.0
  C  C1746  1  0.450500  0.600800  0.182100  1.0
  C  C1747  1  0.450500  0.899200  0.317900  1.0
  C  C1748  1  0.049500  0.899200  0.182100  1.0
  C  C1749  1  0.049500  0.682100  0.399200  1.0
  C  C1750  1  0.450500  0.682100  0.100800  1.0
  C  C1751  1  0.450500  0.817900  0.399200  1.0
  C  C1752  1  0.950500  0.399200  0.682100  1.0
  C  C1753  1  0.049500  0.817900  0.100800  1.0
  C  C1754  1  0.549500  0.399200  0.817900  1.0
  C  C1755  1  0.549500  0.100800  0.682100  1.0
  C  C1756  1  0.950500  0.100800  0.817900  1.0
  C  C1757  1  0.950500  0.317900  0.600800  1.0
  C  C1758  1  0.549500  0.317900  0.899200  1.0
  C  C1759  1  0.549500  0.182100  0.600800  1.0
  C  C1760  1  0.049500  0.600800  0.317900  1.0
  C  C1761  1  0.870600  0.269400  0.925700  1.0
  C  C1762  1  0.370600  0.574300  0.269400  1.0
  C  C1763  1  0.370600  0.925700  0.230600  1.0
  C  C1764  1  0.129400  0.925700  0.269400  1.0
  C  C1765  1  0.129400  0.769400  0.425700  1.0
  C  C1766  1  0.370600  0.769400  0.074300  1.0
  C  C1767  1  0.370600  0.730600  0.425700  1.0
  C  C1768  1  0.870600  0.425700  0.769400  1.0
  C  C1769  1  0.129400  0.730600  0.074300  1.0
  C  C1770  1  0.629400  0.425700  0.730600  1.0
  C  C1771  1  0.629400  0.074300  0.769400  1.0
  C  C1772  1  0.870600  0.074300  0.730600  1.0
  C  C1773  1  0.870600  0.230600  0.574300  1.0
  C  C1774  1  0.629400  0.230600  0.925700  1.0
  C  C1775  1  0.629400  0.269400  0.574300  1.0
  C  C1776  1  0.129400  0.574300  0.230600  1.0
  C  C1777  1  0.768000  0.803000  0.990800  1.0
  C  C1778  1  0.268000  0.509200  0.803000  1.0
  C  C1779  1  0.268000  0.990800  0.697000  1.0
  C  C1780  1  0.232000  0.990800  0.803000  1.0
  C  C1781  1  0.232000  0.303000  0.490800  1.0
  C  C1782  1  0.268000  0.303000  0.009200  1.0
  C  C1783  1  0.268000  0.197000  0.490800  1.0
  C  C1784  1  0.768000  0.490800  0.303000  1.0
  C  C1785  1  0.232000  0.197000  0.009200  1.0
  C  C1786  1  0.732000  0.490800  0.197000  1.0
  C  C1787  1  0.732000  0.009200  0.303000  1.0
  C  C1788  1  0.768000  0.009200  0.197000  1.0
  C  C1789  1  0.768000  0.697000  0.509200  1.0
  C  C1790  1  0.732000  0.697000  0.990800  1.0
  C  C1791  1  0.732000  0.803000  0.509200  1.0
  C  C1792  1  0.232000  0.509200  0.697000  1.0
  C  C1793  1  0.789300  0.788200  0.957700  1.0
  C  C1794  1  0.289300  0.542300  0.788200  1.0
  C  C1795  1  0.289300  0.957700  0.711800  1.0
  C  C1796  1  0.210700  0.957700  0.788200  1.0
  C  C1797  1  0.210700  0.288200  0.457700  1.0
  C  C1798  1  0.289300  0.288200  0.042300  1.0
  C  C1799  1  0.289300  0.211800  0.457700  1.0
  C  C1800  1  0.789300  0.457700  0.288200  1.0
  C  C1801  1  0.210700  0.211800  0.042300  1.0
  C  C1802  1  0.710700  0.457700  0.211800  1.0
  C  C1803  1  0.710700  0.042300  0.288200  1.0
  C  C1804  1  0.789300  0.042300  0.211800  1.0
  C  C1805  1  0.789300  0.711800  0.542300  1.0
  C  C1806  1  0.710700  0.711800  0.957700  1.0
  C  C1807  1  0.710700  0.788200  0.542300  1.0
  C  C1808  1  0.210700  0.542300  0.711800  1.0
  C  C1809  1  0.824600  0.761100  0.961300  1.0
  C  C1810  1  0.324600  0.538700  0.761100  1.0
  C  C1811  1  0.324600  0.961300  0.738900  1.0
  C  C1812  1  0.175400  0.961300  0.761100  1.0
  C  C1813  1  0.175400  0.261100  0.461300  1.0
  C  C1814  1  0.324600  0.261100  0.038700  1.0
  C  C1815  1  0.324600  0.238900  0.461300  1.0
  C  C1816  1  0.824600  0.461300  0.261100  1.0
  C  C1817  1  0.175400  0.238900  0.038700  1.0
  C  C1818  1  0.675400  0.461300  0.238900  1.0
  C  C1819  1  0.675400  0.038700  0.261100  1.0
  C  C1820  1  0.824600  0.038700  0.238900  1.0
  C  C1821  1  0.824600  0.738900  0.538700  1.0
  C  C1822  1  0.675400  0.738900  0.961300  1.0
  C  C1823  1  0.675400  0.761100  0.538700  1.0
  C  C1824  1  0.175400  0.538700  0.738900  1.0
  C  C1825  1  0.838500  0.748800  0.998000  1.0
  C  C1826  1  0.338500  0.502000  0.748800  1.0
  C  C1827  1  0.338500  0.998000  0.751200  1.0
  C  C1828  1  0.161500  0.998000  0.748800  1.0
  C  C1829  1  0.161500  0.248800  0.498000  1.0
  C  C1830  1  0.338500  0.248800  0.002000  1.0
  C  C1831  1  0.338500  0.251200  0.498000  1.0
  C  C1832  1  0.838500  0.498000  0.248800  1.0
  C  C1833  1  0.161500  0.251200  0.002000  1.0
  C  C1834  1  0.661500  0.498000  0.251200  1.0
  C  C1835  1  0.661500  0.002000  0.248800  1.0
  C  C1836  1  0.838500  0.002000  0.251200  1.0
  C  C1837  1  0.838500  0.751200  0.502000  1.0
  C  C1838  1  0.661500  0.751200  0.998000  1.0
  C  C1839  1  0.661500  0.748800  0.502000  1.0
  C  C1840  1  0.161500  0.502000  0.751200  1.0
  C  C1841  1  0.817100  0.763500  0.031100  1.0
  C  C1842  1  0.317100  0.468900  0.763500  1.0
  C  C1843  1  0.317100  0.031100  0.736500  1.0
  C  C1844  1  0.182900  0.031100  0.763500  1.0
  C  C1845  1  0.182900  0.263500  0.531100  1.0
  C  C1846  1  0.317100  0.263500  0.968900  1.0
  C  C1847  1  0.317100  0.236500  0.531100  1.0
  C  C1848  1  0.817100  0.531100  0.263500  1.0
  C  C1849  1  0.182900  0.236500  0.968900  1.0
  C  C1850  1  0.682900  0.531100  0.236500  1.0
  C  C1851  1  0.682900  0.968900  0.263500  1.0
  C  C1852  1  0.817100  0.968900  0.236500  1.0
  C  C1853  1  0.817100  0.736500  0.468900  1.0
  C  C1854  1  0.682900  0.736500  0.031100  1.0
  C  C1855  1  0.682900  0.763500  0.468900  1.0
  C  C1856  1  0.182900  0.468900  0.736500  1.0
  C  C1857  1  0.781800  0.790600  0.027500  1.0
  C  C1858  1  0.281800  0.472500  0.790600  1.0
  C  C1859  1  0.281800  0.027500  0.709400  1.0
  C  C1860  1  0.218200  0.027500  0.790600  1.0
  C  C1861  1  0.218200  0.290600  0.527500  1.0
  C  C1862  1  0.281800  0.290600  0.972500  1.0
  C  C1863  1  0.281800  0.209400  0.527500  1.0
  C  C1864  1  0.781800  0.527500  0.290600  1.0
  C  C1865  1  0.218200  0.209400  0.972500  1.0
  C  C1866  1  0.718200  0.527500  0.209400  1.0
  C  C1867  1  0.718200  0.972500  0.290600  1.0
  C  C1868  1  0.781800  0.972500  0.209400  1.0
  C  C1869  1  0.781800  0.709400  0.472500  1.0
  C  C1870  1  0.718200  0.709400  0.027500  1.0
  C  C1871  1  0.718200  0.790600  0.472500  1.0
  C  C1872  1  0.218200  0.472500  0.709400  1.0
  C  C1873  1  0.705600  0.937300  0.990500  1.0
  C  C1874  1  0.205600  0.509500  0.937300  1.0
  C  C1875  1  0.205600  0.990500  0.562700  1.0
  C  C1876  1  0.294400  0.990500  0.937300  1.0
  C  C1877  1  0.294400  0.437300  0.490500  1.0
  C  C1878  1  0.205600  0.437300  0.009500  1.0
  C  C1879  1  0.205600  0.062700  0.490500  1.0
  C  C1880  1  0.705600  0.490500  0.437300  1.0
  C  C1881  1  0.294400  0.062700  0.009500  1.0
  C  C1882  1  0.794400  0.490500  0.062700  1.0
  C  C1883  1  0.794400  0.009500  0.437300  1.0
  C  C1884  1  0.705600  0.009500  0.062700  1.0
  C  C1885  1  0.705600  0.562700  0.509500  1.0
  C  C1886  1  0.794400  0.562700  0.990500  1.0
  C  C1887  1  0.794400  0.937300  0.509500  1.0
  C  C1888  1  0.294400  0.509500  0.562700  1.0
  C  C1889  1  0.699200  0.897200  0.989800  1.0
  C  C1890  1  0.199200  0.510200  0.897200  1.0
  C  C1891  1  0.199200  0.989800  0.602800  1.0
  C  C1892  1  0.300800  0.989800  0.897200  1.0
  C  C1893  1  0.300800  0.397200  0.489800  1.0
  C  C1894  1  0.199200  0.397200  0.010200  1.0
  C  C1895  1  0.199200  0.102800  0.489800  1.0
  C  C1896  1  0.699200  0.489800  0.397200  1.0
  C  C1897  1  0.300800  0.102800  0.010200  1.0
  C  C1898  1  0.800800  0.489800  0.102800  1.0
  C  C1899  1  0.800800  0.010200  0.397200  1.0
  C  C1900  1  0.699200  0.010200  0.102800  1.0
  C  C1901  1  0.699200  0.602800  0.510200  1.0
  C  C1902  1  0.800800  0.602800  0.989800  1.0
  C  C1903  1  0.800800  0.897200  0.510200  1.0
  C  C1904  1  0.300800  0.510200  0.602800  1.0
  C  C1905  1  0.737000  0.872400  0.989400  1.0
  C  C1906  1  0.237000  0.510600  0.872400  1.0
  C  C1907  1  0.237000  0.989400  0.627600  1.0
  C  C1908  1  0.263000  0.989400  0.872400  1.0
  C  C1909  1  0.263000  0.372400  0.489400  1.0
  C  C1910  1  0.237000  0.372400  0.010600  1.0
  C  C1911  1  0.237000  0.127600  0.489400  1.0
  C  C1912  1  0.737000  0.489400  0.372400  1.0
  C  C1913  1  0.263000  0.127600  0.010600  1.0
  C  C1914  1  0.763000  0.489400  0.127600  1.0
  C  C1915  1  0.763000  0.010600  0.372400  1.0
  C  C1916  1  0.737000  0.010600  0.127600  1.0
  C  C1917  1  0.737000  0.627600  0.510600  1.0
  C  C1918  1  0.763000  0.627600  0.989400  1.0
  C  C1919  1  0.763000  0.872400  0.510600  1.0
  C  C1920  1  0.263000  0.510600  0.627600  1.0
  C  C1921  1  0.781200  0.887700  0.989700  1.0
  C  C1922  1  0.281200  0.510300  0.887700  1.0
  C  C1923  1  0.281200  0.989700  0.612300  1.0
  C  C1924  1  0.218800  0.989700  0.887700  1.0
  C  C1925  1  0.218800  0.387700  0.489700  1.0
  C  C1926  1  0.281200  0.387700  0.010300  1.0
  C  C1927  1  0.281200  0.112300  0.489700  1.0
  C  C1928  1  0.781200  0.489700  0.387700  1.0
  C  C1929  1  0.218800  0.112300  0.010300  1.0
  C  C1930  1  0.718800  0.489700  0.112300  1.0
  C  C1931  1  0.718800  0.010300  0.387700  1.0
  C  C1932  1  0.781200  0.010300  0.112300  1.0
  C  C1933  1  0.781200  0.612300  0.510300  1.0
  C  C1934  1  0.718800  0.612300  0.989700  1.0
  C  C1935  1  0.718800  0.887700  0.510300  1.0
  C  C1936  1  0.218800  0.510300  0.612300  1.0
  C  C1937  1  0.787700  0.927800  0.990400  1.0
  C  C1938  1  0.287700  0.509600  0.927800  1.0
  C  C1939  1  0.287700  0.990400  0.572200  1.0
  C  C1940  1  0.212300  0.990400  0.927800  1.0
  C  C1941  1  0.212300  0.427800  0.490400  1.0
  C  C1942  1  0.287700  0.427800  0.009600  1.0
  C  C1943  1  0.287700  0.072200  0.490400  1.0
  C  C1944  1  0.787700  0.490400  0.427800  1.0
  C  C1945  1  0.212300  0.072200  0.009600  1.0
  C  C1946  1  0.712300  0.490400  0.072200  1.0
  C  C1947  1  0.712300  0.009600  0.427800  1.0
  C  C1948  1  0.787700  0.009600  0.072200  1.0
  C  C1949  1  0.787700  0.572200  0.509600  1.0
  C  C1950  1  0.712300  0.572200  0.990400  1.0
  C  C1951  1  0.712300  0.927800  0.509600  1.0
  C  C1952  1  0.212300  0.509600  0.572200  1.0
  C  C1953  1  0.729400  0.829000  0.988700  1.0
  C  C1954  1  0.229400  0.511300  0.829000  1.0
  C  C1955  1  0.229400  0.988700  0.671000  1.0
  C  C1956  1  0.270600  0.988700  0.829000  1.0
  C  C1957  1  0.270600  0.329000  0.488700  1.0
  C  C1958  1  0.229400  0.329000  0.011300  1.0
  C  C1959  1  0.229400  0.171000  0.488700  1.0
  C  C1960  1  0.729400  0.488700  0.329000  1.0
  C  C1961  1  0.270600  0.171000  0.011300  1.0
  C  C1962  1  0.770600  0.488700  0.171000  1.0
  C  C1963  1  0.770600  0.011300  0.329000  1.0
  C  C1964  1  0.729400  0.011300  0.171000  1.0
  C  C1965  1  0.729400  0.671000  0.511300  1.0
  C  C1966  1  0.770600  0.671000  0.988700  1.0
  C  C1967  1  0.770600  0.829000  0.511300  1.0
  C  C1968  1  0.270600  0.511300  0.671000  1.0
  C  C1969  1  0.932300  0.150800  0.222600  1.0
  C  C1970  1  0.432300  0.277400  0.150800  1.0
  C  C1971  1  0.432300  0.222600  0.349200  1.0
  C  C1972  1  0.067700  0.222600  0.150800  1.0
  C  C1973  1  0.067700  0.650800  0.722600  1.0
  C  C1974  1  0.432300  0.650800  0.777400  1.0
  C  C1975  1  0.432300  0.849200  0.722600  1.0
  C  C1976  1  0.932300  0.722600  0.650800  1.0
  C  C1977  1  0.067700  0.849200  0.777400  1.0
  C  C1978  1  0.567700  0.722600  0.849200  1.0
  C  C1979  1  0.567700  0.777400  0.650800  1.0
  C  C1980  1  0.932300  0.777400  0.849200  1.0
  C  C1981  1  0.932300  0.349200  0.277400  1.0
  C  C1982  1  0.567700  0.349200  0.222600  1.0
  C  C1983  1  0.567700  0.150800  0.277400  1.0
  C  C1984  1  0.067700  0.277400  0.349200  1.0
  C  C1985  1  0.896600  0.132900  0.242700  1.0
  C  C1986  1  0.396600  0.257300  0.132900  1.0
  C  C1987  1  0.396600  0.242700  0.367100  1.0
  C  C1988  1  0.103400  0.242700  0.132900  1.0
  C  C1989  1  0.103400  0.632900  0.742700  1.0
  C  C1990  1  0.396600  0.632900  0.757300  1.0
  C  C1991  1  0.396600  0.867100  0.742700  1.0
  C  C1992  1  0.896600  0.742700  0.632900  1.0
  C  C1993  1  0.103400  0.867100  0.757300  1.0
  C  C1994  1  0.603400  0.742700  0.867100  1.0
  C  C1995  1  0.603400  0.757300  0.632900  1.0
  C  C1996  1  0.896600  0.757300  0.867100  1.0
  C  C1997  1  0.896600  0.367100  0.257300  1.0
  C  C1998  1  0.603400  0.367100  0.242700  1.0
  C  C1999  1  0.603400  0.132900  0.257300  1.0
  C  C2000  1  0.103400  0.257300  0.367100  1.0
  C  C2001  1  0.879200  0.097500  0.229800  1.0
  C  C2002  1  0.379200  0.270200  0.097500  1.0
  C  C2003  1  0.379200  0.229800  0.402500  1.0
  C  C2004  1  0.120800  0.229800  0.097500  1.0
  C  C2005  1  0.120800  0.597500  0.729800  1.0
  C  C2006  1  0.379200  0.597500  0.770200  1.0
  C  C2007  1  0.379200  0.902500  0.729800  1.0
  C  C2008  1  0.879200  0.729800  0.597500  1.0
  C  C2009  1  0.120800  0.902500  0.770200  1.0
  C  C2010  1  0.620800  0.729800  0.902500  1.0
  C  C2011  1  0.620800  0.770200  0.597500  1.0
  C  C2012  1  0.879200  0.770200  0.902500  1.0
  C  C2013  1  0.879200  0.402500  0.270200  1.0
  C  C2014  1  0.620800  0.402500  0.229800  1.0
  C  C2015  1  0.620800  0.097500  0.270200  1.0
  C  C2016  1  0.120800  0.270200  0.402500  1.0
  C  C2017  1  0.897500  0.079900  0.196700  1.0
  C  C2018  1  0.397500  0.303300  0.079900  1.0
  C  C2019  1  0.397500  0.196700  0.420100  1.0
  C  C2020  1  0.102500  0.196700  0.079900  1.0
  C  C2021  1  0.102500  0.579900  0.696700  1.0
  C  C2022  1  0.397500  0.579900  0.803300  1.0
  C  C2023  1  0.397500  0.920100  0.696700  1.0
  C  C2024  1  0.897500  0.696700  0.579900  1.0
  C  C2025  1  0.102500  0.920100  0.803300  1.0
  C  C2026  1  0.602500  0.696700  0.920100  1.0
  C  C2027  1  0.602500  0.803300  0.579900  1.0
  C  C2028  1  0.897500  0.803300  0.920100  1.0
  C  C2029  1  0.897500  0.420100  0.303300  1.0
  C  C2030  1  0.602500  0.420100  0.196700  1.0
  C  C2031  1  0.602500  0.079900  0.303300  1.0
  C  C2032  1  0.102500  0.303300  0.420100  1.0
  C  C2033  1  0.933200  0.097900  0.176600  1.0
  C  C2034  1  0.433200  0.323400  0.097900  1.0
  C  C2035  1  0.433200  0.176600  0.402100  1.0
  C  C2036  1  0.066800  0.176600  0.097900  1.0
  C  C2037  1  0.066800  0.597900  0.676600  1.0
  C  C2038  1  0.433200  0.597900  0.823400  1.0
  C  C2039  1  0.433200  0.902100  0.676600  1.0
  C  C2040  1  0.933200  0.676600  0.597900  1.0
  C  C2041  1  0.066800  0.902100  0.823400  1.0
  C  C2042  1  0.566800  0.676600  0.902100  1.0
  C  C2043  1  0.566800  0.823400  0.597900  1.0
  C  C2044  1  0.933200  0.823400  0.902100  1.0
  C  C2045  1  0.933200  0.402100  0.323400  1.0
  C  C2046  1  0.566800  0.402100  0.176600  1.0
  C  C2047  1  0.566800  0.097900  0.323400  1.0
  C  C2048  1  0.066800  0.323400  0.402100  1.0
  C  C2049  1  0.840700  0.747200  0.921100  1.0
  C  C2050  1  0.340700  0.578900  0.747200  1.0
  C  C2051  1  0.340700  0.921100  0.752800  1.0
  C  C2052  1  0.159300  0.921100  0.747200  1.0
  C  C2053  1  0.159300  0.247200  0.421100  1.0
  C  C2054  1  0.340700  0.247200  0.078900  1.0
  C  C2055  1  0.340700  0.252800  0.421100  1.0
  C  C2056  1  0.840700  0.421100  0.247200  1.0
  C  C2057  1  0.159300  0.252800  0.078900  1.0
  C  C2058  1  0.659300  0.421100  0.252800  1.0
  C  C2059  1  0.659300  0.078900  0.247200  1.0
  C  C2060  1  0.840700  0.078900  0.252800  1.0
  C  C2061  1  0.840700  0.752800  0.578900  1.0
  C  C2062  1  0.659300  0.752800  0.921100  1.0
  C  C2063  1  0.659300  0.747200  0.578900  1.0
  C  C2064  1  0.159300  0.578900  0.752800  1.0
  C  C2065  1  0.083900  0.146000  0.774600  1.0
  C  C2066  1  0.583900  0.725400  0.146000  1.0
  C  C2067  1  0.583900  0.774600  0.354000  1.0
  C  C2068  1  0.916100  0.774600  0.146000  1.0
  C  C2069  1  0.916100  0.646000  0.274600  1.0
  C  C2070  1  0.583900  0.646000  0.225400  1.0
  C  C2071  1  0.583900  0.854000  0.274600  1.0
  C  C2072  1  0.083900  0.274600  0.646000  1.0
  C  C2073  1  0.916100  0.854000  0.225400  1.0
  C  C2074  1  0.416100  0.274600  0.854000  1.0
  C  C2075  1  0.416100  0.225400  0.646000  1.0
  C  C2076  1  0.083900  0.225400  0.854000  1.0
  C  C2077  1  0.083900  0.354000  0.725400  1.0
  C  C2078  1  0.416100  0.354000  0.774600  1.0
  C  C2079  1  0.416100  0.146000  0.725400  1.0
  C  C2080  1  0.916100  0.725400  0.354000  1.0
  C  C2081  1  0.116600  0.123800  0.755200  1.0
  C  C2082  1  0.616600  0.744800  0.123800  1.0
  C  C2083  1  0.616600  0.755200  0.376200  1.0
  C  C2084  1  0.883400  0.755200  0.123800  1.0
  C  C2085  1  0.883400  0.623800  0.255200  1.0
  C  C2086  1  0.616600  0.623800  0.244800  1.0
  C  C2087  1  0.616600  0.876200  0.255200  1.0
  C  C2088  1  0.116600  0.255200  0.623800  1.0
  C  C2089  1  0.883400  0.876200  0.244800  1.0
  C  C2090  1  0.383400  0.255200  0.876200  1.0
  C  C2091  1  0.383400  0.244800  0.623800  1.0
  C  C2092  1  0.116600  0.244800  0.876200  1.0
  C  C2093  1  0.116600  0.376200  0.744800  1.0
  C  C2094  1  0.383400  0.376200  0.755200  1.0
  C  C2095  1  0.383400  0.123800  0.744800  1.0
  C  C2096  1  0.883400  0.744800  0.376200  1.0
  C  C2097  1  0.129300  0.087500  0.769700  1.0
  C  C2098  1  0.629300  0.730300  0.087500  1.0
  C  C2099  1  0.629300  0.769700  0.412500  1.0
  C  C2100  1  0.870700  0.769700  0.087500  1.0
  C  C2101  1  0.870700  0.587500  0.269700  1.0
  C  C2102  1  0.629300  0.587500  0.230300  1.0
  C  C2103  1  0.629300  0.912500  0.269700  1.0
  C  C2104  1  0.129300  0.269700  0.587500  1.0
  C  C2105  1  0.870700  0.912500  0.230300  1.0
  C  C2106  1  0.370700  0.269700  0.912500  1.0
  C  C2107  1  0.370700  0.230300  0.587500  1.0
  C  C2108  1  0.129300  0.230300  0.912500  1.0
  C  C2109  1  0.129300  0.412500  0.730300  1.0
  C  C2110  1  0.370700  0.412500  0.769700  1.0
  C  C2111  1  0.370700  0.087500  0.730300  1.0
  C  C2112  1  0.870700  0.730300  0.412500  1.0
  C  C2113  1  0.109300  0.073500  0.803600  1.0
  C  C2114  1  0.609300  0.696400  0.073500  1.0
  C  C2115  1  0.609300  0.803600  0.426500  1.0
  C  C2116  1  0.890700  0.803600  0.073500  1.0
  C  C2117  1  0.890700  0.573500  0.303600  1.0
  C  C2118  1  0.609300  0.573500  0.196400  1.0
  C  C2119  1  0.609300  0.926500  0.303600  1.0
  C  C2120  1  0.109300  0.303600  0.573500  1.0
  C  C2121  1  0.890700  0.926500  0.196400  1.0
  C  C2122  1  0.390700  0.303600  0.926500  1.0
  C  C2123  1  0.390700  0.196400  0.573500  1.0
  C  C2124  1  0.109300  0.196400  0.926500  1.0
  C  C2125  1  0.109300  0.426500  0.696400  1.0
  C  C2126  1  0.390700  0.426500  0.803600  1.0
  C  C2127  1  0.390700  0.073500  0.696400  1.0
  C  C2128  1  0.890700  0.696400  0.426500  1.0
  C  C2129  1  0.076500  0.095600  0.823100  1.0
  C  C2130  1  0.576500  0.676900  0.095600  1.0
  C  C2131  1  0.576500  0.823100  0.404400  1.0
  C  C2132  1  0.923500  0.823100  0.095600  1.0
  C  C2133  1  0.923500  0.595600  0.323100  1.0
  C  C2134  1  0.576500  0.595600  0.176900  1.0
  C  C2135  1  0.576500  0.904400  0.323100  1.0
  C  C2136  1  0.076500  0.323100  0.595600  1.0
  C  C2137  1  0.923500  0.904400  0.176900  1.0
  C  C2138  1  0.423500  0.323100  0.904400  1.0
  C  C2139  1  0.423500  0.176900  0.595600  1.0
  C  C2140  1  0.076500  0.176900  0.904400  1.0
  C  C2141  1  0.076500  0.404400  0.676900  1.0
  C  C2142  1  0.423500  0.404400  0.823100  1.0
  C  C2143  1  0.423500  0.095600  0.676900  1.0
  C  C2144  1  0.923500  0.676900  0.404400  1.0
  C  C2145  1  0.841400  0.742800  0.065300  1.0
  C  C2146  1  0.341400  0.434700  0.742800  1.0
  C  C2147  1  0.341400  0.065300  0.757200  1.0
  C  C2148  1  0.158600  0.065300  0.742800  1.0
  C  C2149  1  0.158600  0.242800  0.565300  1.0
  C  C2150  1  0.341400  0.242800  0.934700  1.0
  C  C2151  1  0.341400  0.257200  0.565300  1.0
  C  C2152  1  0.841400  0.565300  0.242800  1.0
  C  C2153  1  0.158600  0.257200  0.934700  1.0
  C  C2154  1  0.658600  0.565300  0.257200  1.0
  C  C2155  1  0.658600  0.934700  0.242800  1.0
  C  C2156  1  0.841400  0.934700  0.257200  1.0
  C  C2157  1  0.841400  0.757200  0.434700  1.0
  C  C2158  1  0.658600  0.757200  0.065300  1.0
  C  C2159  1  0.658600  0.742800  0.434700  1.0
  C  C2160  1  0.158600  0.434700  0.757200  1.0
  N  N2161  1  0.757500  0.067920  0.989300  1.0
  N  N2162  1  0.257500  0.510700  0.067920  1.0
  N  N2163  1  0.257500  0.989300  0.432080  1.0
  N  N2164  1  0.242500  0.989300  0.067920  1.0
  N  N2165  1  0.242500  0.567920  0.489300  1.0
  N  N2166  1  0.257500  0.567920  0.010700  1.0
  N  N2167  1  0.257500  0.932080  0.489300  1.0
  N  N2168  1  0.757500  0.489300  0.567920  1.0
  N  N2169  1  0.242500  0.932080  0.010700  1.0
  N  N2170  1  0.742500  0.489300  0.932080  1.0
  N  N2171  1  0.742500  0.010700  0.567920  1.0
  N  N2172  1  0.757500  0.010700  0.932080  1.0
  N  N2173  1  0.757500  0.432080  0.510700  1.0
  N  N2174  1  0.742500  0.432080  0.989300  1.0
  N  N2175  1  0.742500  0.067920  0.510700  1.0
  N  N2176  1  0.242500  0.510700  0.432080  1.0
  N  N2177  1  0.957400  0.194300  0.130100  1.0
  N  N2178  1  0.457400  0.369900  0.194300  1.0
  N  N2179  1  0.457400  0.130100  0.305700  1.0
  N  N2180  1  0.042600  0.130100  0.194300  1.0
  N  N2181  1  0.042600  0.694300  0.630100  1.0
  N  N2182  1  0.457400  0.694300  0.869900  1.0
  N  N2183  1  0.457400  0.805700  0.630100  1.0
  N  N2184  1  0.957400  0.630100  0.694300  1.0
  N  N2185  1  0.042600  0.805700  0.869900  1.0
  N  N2186  1  0.542600  0.630100  0.805700  1.0
  N  N2187  1  0.542600  0.869900  0.694300  1.0
  N  N2188  1  0.957400  0.869900  0.805700  1.0
  N  N2189  1  0.957400  0.305700  0.369900  1.0
  N  N2190  1  0.542600  0.305700  0.130100  1.0
  N  N2191  1  0.542600  0.194300  0.369900  1.0
  N  N2192  1  0.042600  0.369900  0.305700  1.0
  N  N2193  1  0.967500  0.193100  0.863000  1.0
  N  N2194  1  0.467500  0.637000  0.193100  1.0
  N  N2195  1  0.467500  0.863000  0.306900  1.0
  N  N2196  1  0.032500  0.863000  0.193100  1.0
  N  N2197  1  0.032500  0.693100  0.363000  1.0
  N  N2198  1  0.467500  0.693100  0.137000  1.0
  N  N2199  1  0.467500  0.806900  0.363000  1.0
  N  N2200  1  0.967500  0.363000  0.693100  1.0
  N  N2201  1  0.032500  0.806900  0.137000  1.0
  N  N2202  1  0.532500  0.363000  0.806900  1.0
  N  N2203  1  0.532500  0.137000  0.693100  1.0
  N  N2204  1  0.967500  0.137000  0.806900  1.0
  N  N2205  1  0.967500  0.306900  0.637000  1.0
  N  N2206  1  0.532500  0.306900  0.863000  1.0
  N  N2207  1  0.532500  0.193100  0.637000  1.0
  N  N2208  1  0.032500  0.637000  0.306900  1.0
  N  N2209  1  0.749900  0.952600  0.990800  1.0
  N  N2210  1  0.249900  0.509200  0.952600  1.0
  N  N2211  1  0.249900  0.990800  0.547400  1.0
  N  N2212  1  0.250100  0.990800  0.952600  1.0
  N  N2213  1  0.250100  0.452600  0.490800  1.0
  N  N2214  1  0.249900  0.452600  0.009200  1.0
  N  N2215  1  0.249900  0.047400  0.490800  1.0
  N  N2216  1  0.749900  0.490800  0.452600  1.0
  N  N2217  1  0.250100  0.047400  0.009200  1.0
  N  N2218  1  0.750100  0.490800  0.047400  1.0
  N  N2219  1  0.750100  0.009200  0.452600  1.0
  N  N2220  1  0.749900  0.009200  0.047400  1.0
  N  N2221  1  0.749900  0.547400  0.509200  1.0
  N  N2222  1  0.750100  0.547400  0.990800  1.0
  N  N2223  1  0.750100  0.952600  0.509200  1.0
  N  N2224  1  0.250100  0.509200  0.547400  1.0
  N  N2225  1  0.950600  0.133300  0.189500  1.0
  N  N2226  1  0.450600  0.310500  0.133300  1.0
  N  N2227  1  0.450600  0.189500  0.366700  1.0
  N  N2228  1  0.049400  0.189500  0.133300  1.0
  N  N2229  1  0.049400  0.633300  0.689500  1.0
  N  N2230  1  0.450600  0.633300  0.810500  1.0
  N  N2231  1  0.450600  0.866700  0.689500  1.0
  N  N2232  1  0.950600  0.689500  0.633300  1.0
  N  N2233  1  0.049400  0.866700  0.810500  1.0
  N  N2234  1  0.549400  0.689500  0.866700  1.0
  N  N2235  1  0.549400  0.810500  0.633300  1.0
  N  N2236  1  0.950600  0.810500  0.866700  1.0
  N  N2237  1  0.950600  0.366700  0.310500  1.0
  N  N2238  1  0.549400  0.366700  0.189500  1.0
  N  N2239  1  0.549400  0.133300  0.310500  1.0
  N  N2240  1  0.049400  0.310500  0.366700  1.0
  N  N2241  1  0.063800  0.131900  0.808600  1.0
  N  N2242  1  0.563800  0.691400  0.131900  1.0
  N  N2243  1  0.563800  0.808600  0.368100  1.0
  N  N2244  1  0.936200  0.808600  0.131900  1.0
  N  N2245  1  0.936200  0.631900  0.308600  1.0
  N  N2246  1  0.563800  0.631900  0.191400  1.0
  N  N2247  1  0.563800  0.868100  0.308600  1.0
  N  N2248  1  0.063800  0.308600  0.631900  1.0
  N  N2249  1  0.936200  0.868100  0.191400  1.0
  N  N2250  1  0.436200  0.308600  0.868100  1.0
  N  N2251  1  0.436200  0.191400  0.631900  1.0
  N  N2252  1  0.063800  0.191400  0.868100  1.0
  N  N2253  1  0.063800  0.368100  0.691400  1.0
  N  N2254  1  0.436200  0.368100  0.808600  1.0
  N  N2255  1  0.436200  0.131900  0.691400  1.0
  N  N2256  1  0.936200  0.691400  0.368100  1.0
  O  O2257  1  0.000000  0.225600  0.225600  1
  O  O2258  1  0.500000  0.274400  0.225600  1
  O  O2259  1  0.500000  0.225600  0.274400  1
  O  O2260  1  0.000000  0.725600  0.725600  1
  O  O2261  1  0.500000  0.725600  0.774400  1
  O  O2262  1  0.500000  0.774400  0.725600  1
  O  O2263  1  0.000000  0.774400  0.774400  1
  O  O2264  1  1.000000  0.274400  0.274400  1
  O  O2265  1  0.000000  0.250000  0.250000  1
  O  O2266  1  0.500000  0.250000  0.250000  1
  O  O2267  1  0.000000  0.750000  0.750000  1
  O  O2268  1  0.500000  0.750000  0.750000  1
  O  O2269  1  0.527500  0.727000  0.227000  1
  O  O2270  1  0.027500  0.273000  0.727000  1
  O  O2271  1  0.027500  0.227000  0.773000  1
  O  O2272  1  0.472500  0.227000  0.727000  1
  O  O2273  1  0.472500  0.273000  0.773000  1
  O  O2274  1  0.972500  0.727000  0.273000  1
  O  O2275  1  0.972500  0.773000  0.227000  1
  O  O2276  1  0.527500  0.773000  0.273000  1
  O  O2277  1  0.003700  0.098200  0.901800  1
  O  O2278  1  0.503700  0.598200  0.098200  1
  O  O2279  1  0.503700  0.901800  0.401800  1
  O  O2280  1  0.996300  0.901800  0.098200  1
  O  O2281  1  0.996300  0.598200  0.401800  1
  O  O2282  1  0.003700  0.401800  0.598200  1
  O  O2283  1  0.496300  0.401800  0.901800  1
  O  O2284  1  0.496300  0.098200  0.598200  1
  O  O2285  1  0.361100  0.986100  0.013900  1
  O  O2286  1  0.861100  0.486100  0.986100  1
  O  O2287  1  0.861100  0.013900  0.513900  1
  O  O2288  1  0.638900  0.013900  0.986100  1
  O  O2289  1  0.638900  0.486100  0.513900  1
  O  O2290  1  0.361100  0.513900  0.486100  1
  O  O2291  1  0.138900  0.513900  0.013900  1
  O  O2292  1  0.138900  0.986100  0.486100  1
