
#######################################################################
#
#                 Cambridge Crystallographic Data Centre
#                                CCDC 
#
#######################################################################
#
# If this CIF has been generated from an entry in the Cambridge 
# Structural Database, then it will include bibliographic, chemical, 
# crystal, experimental, refinement or atomic coordinate data resulting 
# from the CCDC's data processing and validation procedures.
#
#######################################################################

data_LUTBEJ
_chemical_formula_moiety         
'C68 H72 N12 O8 Ru4 4+,4(C1 F3 O3 S1 1-),2(C1 H4 O1),2(H2 O1)'
_chemical_name_systematic        
'bis(\m~2~-Oxalato)-bis(\m~2~-3,6-bis(pyridin-4-yl)-1,2,4,5-tetrazine)-tetrakis(\h^6^-p-cymene)-tetra-ruthenium tetrakis(trifluoromethanesulfonate) methanol unknown solvate dihydrate'
_symmetry_cell_setting           triclinic
_symmetry_space_group_name_H-M   'P -1'
_symmetry_Int_Tables_number      2
_space_group_name_Hall           '-P 1'
loop_
_symmetry_equiv_pos_site_id
_symmetry_equiv_pos_as_xyz
1 x,y,z
2 -x,-y,-z
_cell_length_a                   16.578(3)
_cell_length_b                   17.187(3)
_cell_length_c                   17.842(4)
_cell_angle_alpha                86.14(3)
_cell_angle_beta                 87.59(3)
_cell_angle_gamma                73.73(3)
_cell_volume                     4867.56
_exptl_crystal_description       block
_cell_formula_units_Z            2
loop_
_atom_site_label
_atom_site_type_symbol
_atom_site_fract_x
_atom_site_fract_y
_atom_site_fract_z
Ru1 Ru 0.05488(4) 0.70862(4) -0.60878(4)
Ru2 Ru 0.30153(5) 0.86309(7) -0.66373(6)
O1 O 0.1790(4) 0.6854(4) -0.6537(4)
O2 O 0.0851(4) 0.8154(4) -0.5854(4)
O3 O 0.2793(4) 0.7477(5) -0.6777(4)
O4 O 0.1852(5) 0.8784(5) -0.6082(4)
N1 N 0.0219(5) 0.7699(5) -0.7122(4)
N2 N -0.0961(6) 0.9859(5) -0.9149(4)
N3 N -0.0183(5) 0.8737(5) -0.9820(4)
N4 N -0.1237(6) 1.0252(4) -0.9776(5)
N5 N -0.0467(5) 0.9166(5) -1.0473(5)
N6 N -0.2318(5) 1.0992(6) -1.2399(5)
C1 C 0.0612(6) 0.7454(6) -0.7778(6)
H1 H 0.1065 0.6971 -0.7766
C2 C -0.0452(6) 0.8392(6) -0.7172(6)
H2 H -0.0764 0.8569 -0.6726
C3 C 0.0395(5) 0.7865(5) -0.8468(5)
H3 H 0.0688 0.7662 -0.8915
C4 C -0.0681(6) 0.8825(6) -0.7818(5)
H4 H -0.1137 0.9304 -0.7810
C5 C -0.0279(5) 0.8601(5) -0.8496(5)
C6 C -0.0506(6) 0.9063(6) -0.9198(5)
C7 C -0.1055(5) 0.9885(6) -1.0432(5)
C8 C -0.1443(6) 1.0280(5) -1.1090(5)
C9 C -0.1926(5) 1.1094(6) -1.1158(5)
H5 H -0.1977 1.1421 -1.0741
C10 C -0.1395(6) 0.9823(6) -1.1736(5)
H6 H -0.1065 0.9273 -1.1730
C11 C -0.2322(6) 1.1428(7) -1.1800(6)
H7 H -0.2613 1.1990 -1.1827
C12 C -0.1815(7) 1.0170(6) -1.2346(6)
H8 H -0.1777 0.9852 -1.2768
C13 C 0.0571(5) 0.5822(6) -0.5934(6)
C14 C 0.0871(6) 0.6078(7) -0.5259(5)
H9 H 0.1471 0.5842 -0.5116
C15 C -0.0220(6) 0.6275(6) -0.6199(6)
H10 H -0.0383 0.6185 -0.6713
C16 C 0.0375(6) 0.6772(6) -0.4911(5)
H11 H 0.0652 0.7017 -0.4539
C17 C -0.0701(5) 0.6943(6) -0.5832(6)
H12 H -0.1180 0.7320 -0.6111
C18 C -0.0415(7) 0.7246(7) -0.5187(6)
C19 C 0.1115(7) 0.5071(6) -0.6285(7)
H13 H 0.1712 0.5039 -0.6182
C20 C 0.1034(10) 0.5113(9) -0.7152(7)
H14 H 0.1402 0.4617 -0.7354
H15 H 0.1198 0.5585 -0.7374
H16 H 0.0450 0.5163 -0.7275
C21 C 0.0944(11) 0.4320(8) -0.5929(9)
H17 H 0.1309 0.3844 -0.6164
H18 H 0.0354 0.4342 -0.5998
H19 H 0.1056 0.4281 -0.5391
C22 C -0.0893(8) 0.8025(8) -0.4842(7)
H20 H -0.1279 0.7909 -0.4447
H21 H -0.1213 0.8403 -0.5230
H22 H -0.0496 0.8270 -0.4623
C23 C 0.3321(10) 0.9567(10) -0.5997(11)
C24 C 0.3536(8) 0.9678(10) -0.6750(8)
H23 H 0.3236 1.0182 -0.7049
C25 C 0.3644(8) 0.8786(8) -0.5644(8)
H24 H 0.3378 0.8676 -0.5150
C26 C 0.4093(8) 0.8975(8) -0.7137(8)
H25 H 0.4155 0.9017 -0.7697
C27 C 0.4117(9) 0.8145(10) -0.5982(10)
H26 H 0.4207 0.7595 -0.5720
C28 C 0.4339(11) 0.8198(11) -0.6757(14)
C29 C 0.2717(10) 1.0234(9) -0.5621(9)
H27 H 0.3022 1.0560 -0.5383
H28 H 0.2391 1.0008 -0.5238
H29 H 0.2336 1.0577 -0.5993
C30 C 0.2089(6) 0.7433(7) -0.6511(6)
C31 C 0.1565(7) 0.8172(7) -0.6097(5)
C32 C 0.4802(14) 0.7478(12) -0.7075(15)
H30 H 0.4558 0.7033 -0.6876
C33 C 0.4811(18) 0.7495(16) -0.7965(16)
H31 H 0.4234 0.7611 -0.8139
H32 H 0.5143 0.6967 -0.8133
H33 H 0.5061 0.7919 -0.8174
C34 C 0.5744(17) 0.7196(19) -0.6959(18)
H34 H 0.5855 0.7160 -0.6421
H35 H 0.6008 0.7585 -0.7219
H36 H 0.5976 0.6661 -0.7163
Ru1A Ru -0.05488(4) 1.29138(4) -1.39122(4)
Ru2A Ru -0.30153(5) 1.13691(7) -1.33627(6)
O1A O -0.1790(4) 1.3146(4) -1.3463(4)
O2A O -0.0851(4) 1.1846(4) -1.4146(4)
O3A O -0.2793(4) 1.2523(5) -1.3223(4)
O4A O -0.1852(5) 1.1216(5) -1.3918(4)
N1A N -0.0219(5) 1.2301(5) -1.2878(4)
N2A N 0.0961(6) 1.0141(5) -1.0851(4)
N3A N 0.0183(5) 1.1263(5) -1.0180(4)
N4A N 0.1237(6) 0.9748(4) -1.0224(5)
N5A N 0.0467(5) 1.0834(5) -0.9527(5)
N6A N 0.2318(5) 0.9008(6) -0.7601(5)
C1A C -0.0612(6) 1.2546(6) -1.2222(6)
H1A H -0.1065 1.3029 -1.2234
C2A C 0.0452(6) 1.1608(6) -1.2828(6)
H2A H 0.0764 1.1431 -1.3274
C3A C -0.0395(5) 1.2135(5) -1.1532(5)
H3A H -0.0688 1.2338 -1.1085
C4A C 0.0681(6) 1.1175(6) -1.2182(5)
H4A H 0.1137 1.0696 -1.2190
C5A C 0.0279(5) 1.1399(5) -1.1504(5)
C6A C 0.0506(6) 1.0937(6) -1.0802(5)
C7A C 0.1055(5) 1.0115(6) -0.9568(5)
C8A C 0.1443(6) 0.9720(5) -0.8910(5)
C9A C 0.1926(5) 0.8906(6) -0.8842(5)
H5A H 0.1977 0.8579 -0.9259
C10A C 0.1395(6) 1.0177(6) -0.8264(5)
H6A H 0.1065 1.0727 -0.8270
C11A C 0.2322(6) 0.8572(7) -0.8200(6)
H7A H 0.2613 0.8010 -0.8173
C12A C 0.1815(7) 0.9830(6) -0.7654(6)
H8A H 0.1777 1.0148 -0.7232
C13A C -0.0571(5) 1.4178(6) -1.4066(6)
C14A C -0.0871(6) 1.3922(7) -1.4741(5)
H9A H -0.1471 1.4158 -1.4884
C15A C 0.0220(6) 1.3725(6) -1.3801(6)
H10A H 0.0383 1.3815 -1.3287
C16A C -0.0375(6) 1.3228(6) -1.5089(5)
H11A H -0.0652 1.2983 -1.5461
C17A C 0.0701(5) 1.3057(6) -1.4168(6)
H12A H 0.1180 1.2680 -1.3889
C18A C 0.0415(7) 1.2754(7) -1.4813(6)
C19A C -0.1115(7) 1.4929(6) -1.3715(7)
H13A H -0.1712 1.4961 -1.3818
C20A C -0.1034(10) 1.4887(9) -1.2848(7)
H14A H -0.1402 1.5383 -1.2646
H15A H -0.1198 1.4415 -1.2626
H16A H -0.0450 1.4837 -1.2725
C21A C -0.0944(11) 1.5680(8) -1.4071(9)
H17A H -0.1309 1.6156 -1.3836
H18A H -0.0354 1.5658 -1.4002
H19A H -0.1056 1.5719 -1.4609
C22A C 0.0893(8) 1.1975(8) -1.5158(7)
H20A H 0.1279 1.2091 -1.5553
H21A H 0.1213 1.1597 -1.4770
H22A H 0.0496 1.1730 -1.5377
C23A C -0.3321(10) 1.0433(10) -1.4003(11)
C24A C -0.3536(8) 1.0322(10) -1.3250(8)
H23A H -0.3236 0.9818 -1.2951
C25A C -0.3644(8) 1.1214(8) -1.4356(8)
H24A H -0.3378 1.1324 -1.4850
C26A C -0.4093(8) 1.1025(8) -1.2863(8)
H25A H -0.4155 1.0983 -1.2303
C27A C -0.4117(9) 1.1855(10) -1.4018(10)
H26A H -0.4207 1.2405 -1.4280
C28A C -0.4339(11) 1.1802(11) -1.3243(14)
C29A C -0.2717(10) 0.9766(9) -1.4379(9)
H27A H -0.3022 0.9440 -1.4617
H28A H -0.2391 0.9992 -1.4762
H29A H -0.2336 0.9423 -1.4007
C30A C -0.2089(6) 1.2567(7) -1.3489(6)
C31A C -0.1565(7) 1.1828(7) -1.3903(5)
C32A C -0.4802(14) 1.2522(12) -1.2925(15)
H30A H -0.4558 1.2967 -1.3124
C33A C -0.4811(18) 1.2505(16) -1.2035(16)
H31A H -0.4234 1.2389 -1.1861
H32A H -0.5143 1.3033 -1.1867
H33A H -0.5061 1.2081 -1.1826
C34A C -0.5744(17) 1.2804(19) -1.3041(18)
H34A H -0.5855 1.2840 -1.3579
H35A H -0.6008 1.2415 -1.2781
H36A H -0.5976 1.3339 -1.2837
Ru3 Ru 0.21070(4) 0.78892(5) -0.22882(4)
Ru4 Ru 0.54513(4) 0.66675(6) -0.29888(5)
O5 O 0.3024(4) 0.8104(4) -0.3063(4)
O6 O 0.3145(4) 0.6914(4) -0.1996(4)
O7 O 0.4414(4) 0.7613(4) -0.3320(4)
O8 O 0.4521(4) 0.6459(5) -0.2228(4)
N7 N 0.2674(5) 0.8477(5) -0.1564(5)
N8 N 0.3734(6) 0.9589(6) 0.0610(5)
N9 N 0.4020(6) 1.0403(6) -0.0422(5)
N10 N 0.3945(5) 1.0070(6) 0.1086(5)
N11 N 0.4208(6) 1.0907(7) 0.0015(5)
N12 N 0.4423(5) 1.2478(7) 0.2230(5)
C35 C 0.2909(7) 0.8207(8) -0.0898(8)
H37 H 0.2809 0.7704 -0.0736
C36 C 0.2792(6) 0.9240(7) -0.1806(7)
H38 H 0.2617 0.9484 -0.2287
C37 C 0.3281(5) 0.8541(7) -0.0392(6)
H39 H 0.3451 0.8274 0.0083
C38 C 0.3168(6) 0.9619(7) -0.1322(7)
H40 H 0.3266 1.0119 -0.1498
C39 C 0.3407(7) 0.9333(7) -0.0614(6)
C40 C 0.3728(6) 0.9776(7) -0.0094(6)
C41 C 0.4113(7) 1.0775(7) 0.0768(7)
C42 C 0.4247(7) 1.1343(9) 0.1271(7)
C43 C 0.4425(8) 1.1101(9) 0.2005(7)
H41 H 0.4489 1.0558 0.2195
C44 C 0.4187(9) 1.2144(10) 0.0967(8)
H42 H 0.4090 1.2308 0.0452
C45 C 0.4512(7) 1.1732(9) 0.2479(7)
H43 H 0.4640 1.1590 0.2993
C46 C 0.4286(9) 1.2676(10) 0.1514(8)
H44 H 0.4248 1.3221 0.1346
C47 C 0.3753(6) 0.7594(6) -0.2973(5)
C48 C 0.3817(6) 0.6922(7) -0.2352(6)
C49 C 0.1020(6) 0.8609(6) -0.2917(6)
C50 C 0.0887(5) 0.8692(6) -0.2125(6)
H45 H 0.0838 0.9232 -0.1923
C51 C 0.1258(6) 0.7805(7) -0.3165(6)
H46 H 0.1496 0.7723 -0.3688
C52 C 0.0937(6) 0.8039(7) -0.1623(7)
H47 H 0.0947 0.8123 -0.1075
C53 C 0.1351(6) 0.7157(8) -0.2701(7)
H48 H 0.1647 0.6613 -0.2891
C54 C 0.1196(7) 0.7226(9) -0.1861(8)
C55 C 0.0953(9) 0.9336(9) -0.3420(8)
H49 H 0.1192 0.9716 -0.3160
C56 C 0.1423(11) 0.9162(10) -0.4174(9)
H50 H 0.1355 0.9672 -0.4478
H51 H 0.1194 0.8794 -0.4441
H52 H 0.2022 0.8909 -0.4086
C57 C 0.0048(10) 0.9742(9) -0.3544(11)
H53 H -0.0246 0.9859 -0.3059
H54 H -0.0197 0.9385 -0.3809
H55 H -0.0010 1.0251 -0.3848
C58 C 0.6580(12) 0.7265(10) -0.4378(13)
H56 H 0.6957 0.7431 -0.4036
C59 C 0.6246(9) 0.6606(7) -0.3959(8)
C60 C 0.5645(6) 0.6173(7) -0.4067(6)
H57 H 0.5209 0.6386 -0.4457
C61 C 0.5562(7) 0.5574(7) -0.3563(7)
H58 H 0.5059 0.5363 -0.3584
C62 C 0.6762(8) 0.6378(12) -0.3329(10)
H59 H 0.7126 0.6718 -0.3186
C63 C 0.6100(10) 0.5326(10) -0.2949(8)
C64 C 0.6650(8) 0.5692(12) -0.2824(9)
H60 H 0.6908 0.5604 -0.2317
C65 C 0.5904(16) 0.4689(15) -0.2409(14)
H61 H 0.6262 0.4153 -0.2531
H62 H 0.5312 0.4703 -0.2449
H63 H 0.6009 0.4798 -0.1895
C66 C 0.1331(10) 0.6537(10) -0.1356(9)
H64 H 0.0804 0.6390 -0.1266
H65 H 0.1530 0.6658 -0.0880
H66 H 0.1754 0.6082 -0.1572
C67 C 0.5899(15) 0.8030(15) -0.4651(12)
H67 H 0.5564 0.8279 -0.4220
H68 H 0.5533 0.7881 -0.5000
H69 H 0.6167 0.8418 -0.4909
C68 C 0.710(2) 0.6837(19) -0.4996(19)
H70 H 0.7331 0.7217 -0.5306
H71 H 0.6749 0.6615 -0.5304
H72 H 0.7557 0.6393 -0.4787
Ru3A Ru 0.78930(4) 1.21108(5) 0.22882(4)
Ru4A Ru 0.45487(4) 1.33325(6) 0.29888(5)
O5A O 0.6976(4) 1.1896(4) 0.3063(4)
O6A O 0.6855(4) 1.3086(4) 0.1996(4)
O7A O 0.5586(4) 1.2387(4) 0.3320(4)
O8A O 0.5479(4) 1.3541(5) 0.2228(4)
N7A N 0.7326(5) 1.1523(5) 0.1564(5)
N8A N 0.6266(6) 1.0411(6) -0.0610(5)
N9A N 0.5980(6) 0.9597(6) 0.0422(5)
N10A N 0.6055(5) 0.9930(6) -0.1086(5)
N11A N 0.5792(6) 0.9093(7) -0.0015(5)
N12A N 0.5577(5) 0.7522(7) -0.2230(5)
C35A C 0.7091(7) 1.1793(8) 0.0898(8)
H37A H 0.7191 1.2296 0.0736
C36A C 0.7208(6) 1.0760(7) 0.1806(7)
H38A H 0.7383 1.0516 0.2287
C37A C 0.6719(5) 1.1459(7) 0.0392(6)
H39A H 0.6549 1.1726 -0.0083
C38A C 0.6832(6) 1.0381(7) 0.1322(7)
H40A H 0.6734 0.9881 0.1498
C39A C 0.6593(7) 1.0667(7) 0.0614(6)
C40A C 0.6272(6) 1.0224(7) 0.0094(6)
C41A C 0.5887(7) 0.9225(7) -0.0768(7)
C42A C 0.5753(7) 0.8657(9) -0.1271(7)
C43A C 0.5575(8) 0.8899(9) -0.2005(7)
H41A H 0.5511 0.9442 -0.2195
C44A C 0.5813(9) 0.7856(10) -0.0967(8)
H42A H 0.5910 0.7692 -0.0452
C45A C 0.5488(7) 0.8268(9) -0.2479(7)
H43A H 0.5360 0.8410 -0.2993
C46A C 0.5714(9) 0.7324(10) -0.1514(8)
H44A H 0.5752 0.6779 -0.1346
C47A C 0.6247(6) 1.2406(6) 0.2973(5)
C48A C 0.6183(6) 1.3078(7) 0.2352(6)
C49A C 0.8980(6) 1.1391(6) 0.2917(6)
C50A C 0.9113(5) 1.1308(6) 0.2125(6)
H45A H 0.9162 1.0768 0.1923
C51A C 0.8742(6) 1.2195(7) 0.3165(6)
H46A H 0.8504 1.2277 0.3688
C52A C 0.9063(6) 1.1961(7) 0.1623(7)
H47A H 0.9053 1.1877 0.1075
C53A C 0.8649(6) 1.2843(8) 0.2701(7)
H48A H 0.8353 1.3387 0.2891
C54A C 0.8804(7) 1.2774(9) 0.1861(8)
C55A C 0.9047(9) 1.0664(9) 0.3420(8)
H49A H 0.8808 1.0284 0.3160
C56A C 0.8577(11) 1.0838(10) 0.4174(9)
H50A H 0.8645 1.0328 0.4478
H51A H 0.8806 1.1206 0.4441
H52A H 0.7978 1.1091 0.4086
C57A C 0.9952(10) 1.0258(9) 0.3544(11)
H53A H 1.0246 1.0141 0.3059
H54A H 1.0197 1.0615 0.3809
H55A H 1.0010 0.9749 0.3848
C58A C 0.3420(12) 1.2735(10) 0.4378(13)
H56A H 0.3043 1.2569 0.4036
C59A C 0.3754(9) 1.3394(7) 0.3959(8)
C60A C 0.4355(6) 1.3827(7) 0.4067(6)
H57A H 0.4791 1.3614 0.4457
C61A C 0.4438(7) 1.4426(7) 0.3563(7)
H58A H 0.4941 1.4637 0.3584
C62A C 0.3238(8) 1.3622(12) 0.3329(10)
H59A H 0.2874 1.3282 0.3186
C63A C 0.3900(10) 1.4674(10) 0.2949(8)
C64A C 0.3350(8) 1.4308(12) 0.2824(9)
H60A H 0.3092 1.4396 0.2317
C65A C 0.4096(16) 1.5311(15) 0.2409(14)
H61A H 0.3738 1.5847 0.2531
H62A H 0.4688 1.5297 0.2449
H63A H 0.3991 1.5202 0.1895
C66A C 0.8669(10) 1.3463(10) 0.1356(9)
H64A H 0.9196 1.3610 0.1266
H65A H 0.8470 1.3342 0.0880
H66A H 0.8246 1.3918 0.1572
C67A C 0.4101(15) 1.1970(15) 0.4651(12)
H67A H 0.4436 1.1721 0.4220
H68A H 0.4467 1.2119 0.5000
H69A H 0.3833 1.1582 0.4909
C68A C 0.290(2) 1.3163(19) 0.4996(19)
H70A H 0.2669 1.2783 0.5306
H71A H 0.3251 1.3385 0.5304
H72A H 0.2443 1.3607 0.4787
S1 S 0.2535(3) 0.6571(2) 0.0777(3)
F1 F 0.3456(9) 0.5988(10) -0.0362(9)
F2 F 0.2505(13) 0.5353(10) 0.0009(10)
F3 F 0.3667(12) 0.5169(9) 0.0684(9)
O9 O 0.1957(7) 0.7145(6) 0.0277(6)
O10 O 0.3254(11) 0.6883(12) 0.1071(12)
O11 O 0.2261(12) 0.6294(11) 0.1476(10)
C69 C 0.296(2) 0.5844(17) 0.0198(16)
S2 S 0.7000(2) 0.3467(2) 0.44286(18)
F4 F 0.5896(8) 0.4144(11) 0.5370(9)
F5 F 0.6234(8) 0.5038(6) 0.4563(6)
F6 F 0.7022(8) 0.4450(10) 0.5528(9)
O12 O 0.6714(14) 0.3655(15) 0.3692(9)
O13 O 0.6305(10) 0.2843(8) 0.4725(10)
O14 O 0.7737(12) 0.2994(15) 0.4712(13)
C70 C 0.6541(7) 0.4297(8) 0.5014(6)
S3 S 0.2122(3) 1.2170(3) -0.7471(4)
F7 F 0.0602(7) 1.3123(7) -0.7217(10)
F8 F 0.0727(6) 1.1807(6) -0.7172(7)
F9 F 0.0727(6) 1.2537(8) -0.8228(8)
O15 O 0.2222(9) 1.2169(12) -0.6601(10)
O16 O 0.2351(7) 1.2819(7) -0.7853(7)
O17 O 0.2406(8) 1.1459(12) -0.7807(14)
C71 C 0.0986(11) 1.2447(12) -0.7482(8)
S4 S 0.7227(3) 0.9003(3) 0.3343(3)
F10 F 0.5890(11) 1.0216(9) 0.3046(10)
F11 F 0.5668(9) 0.9184(10) 0.3673(11)
F12 F 0.6178(11) 1.0008(12) 0.4159(11)
O18 O 0.720(2) 0.8771(17) 0.259(2)
O19 O 0.749(2) 0.838(2) 0.387(2)
O20 O 0.7719(7) 0.9573(9) 0.3336(9)
C72 C 0.6173(8) 0.9685(14) 0.3583(11)
O21 O 0.2155(7) 1.1072(6) -1.0079(8)
C73 C 0.198(2) 1.165(2) -0.9694(19)
H73 H 0.2116 1.1468 -0.9170
H74 H 0.1382 1.1933 -0.9729
H75 H 0.2312 1.2025 -0.9870
O22 O 0.314(2) 0.4381(17) -0.1665(18)
C74 C 0.356(2) 0.4866(16) -0.215(2)
H76 H 0.3680 0.5282 -0.1859
H77 H 0.3186 0.5130 -0.2562
H78 H 0.4080 0.4518 -0.2354
O23 O -0.1943(17) 0.549(2) 0.3504(15)
C75 C -0.156(3) 0.533(3) 0.269(2)
H79 H -0.1338 0.5782 0.2509
H80 H -0.2004 0.5294 0.2360
H81 H -0.1111 0.4824 0.2704
O24 O 0.7848(15) 0.798(2) 0.1544(12)
O25 O 0.015(3) 0.616(3) 0.058(3)
O26 O 0.383(2) 0.3593(16) -0.0489(17)
loop_
_geom_bond_atom_site_label_1
_geom_bond_atom_site_label_2
_geom_bond_site_symmetry_1
_geom_bond_site_symmetry_2
Ru1 O1 1_555 1_555
Ru2 O3 1_555 1_555
O1 C30 1_555 1_555
O2 Ru1 1_555 1_555
O3 C30 1_555 1_555
O4 Ru2 1_555 1_555
N1 Ru1 1_555 1_555
N2 N4 1_555 1_555
N3 N5 1_555 1_555
N4 C7 1_555 1_555
N5 C7 1_555 1_555
N6 C11 1_555 1_555
C1 N1 1_555 1_555
H1 C1 1_555 1_555
C2 N1 1_555 1_555
H2 C2 1_555 1_555
C3 C1 1_555 1_555
H3 C3 1_555 1_555
C4 C2 1_555 1_555
H4 C4 1_555 1_555
C5 C3 1_555 1_555
C6 N2 1_555 1_555
C7 C8 1_555 1_555
C8 C9 1_555 1_555
C9 H5 1_555 1_555
C10 C8 1_555 1_555
H6 C10 1_555 1_555
C11 C9 1_555 1_555
H7 C11 1_555 1_555
C12 N6 1_555 1_555
H8 C12 1_555 1_555
C13 Ru1 1_555 1_555
C14 Ru1 1_555 1_555
H9 C14 1_555 1_555
C15 Ru1 1_555 1_555
H10 C15 1_555 1_555
C16 Ru1 1_555 1_555
H11 C16 1_555 1_555
C17 Ru1 1_555 1_555
H12 C17 1_555 1_555
C18 Ru1 1_555 1_555
C19 C13 1_555 1_555
H13 C19 1_555 1_555
C20 C19 1_555 1_555
H14 C20 1_555 1_555
H15 C20 1_555 1_555
H16 C20 1_555 1_555
C21 C19 1_555 1_555
H17 C21 1_555 1_555
H18 C21 1_555 1_555
H19 C21 1_555 1_555
C22 C18 1_555 1_555
H20 C22 1_555 1_555
H21 C22 1_555 1_555
H22 C22 1_555 1_555
C23 Ru2 1_555 1_555
C24 Ru2 1_555 1_555
H23 C24 1_555 1_555
C25 Ru2 1_555 1_555
H24 C25 1_555 1_555
C26 Ru2 1_555 1_555
H25 C26 1_555 1_555
C27 Ru2 1_555 1_555
H26 C27 1_555 1_555
C28 Ru2 1_555 1_555
C29 C23 1_555 1_555
H27 C29 1_555 1_555
H28 C29 1_555 1_555
H29 C29 1_555 1_555
C30 C31 1_555 1_555
C31 O2 1_555 1_555
C32 C28 1_555 1_555
H30 C32 1_555 1_555
C33 C32 1_555 1_555
H31 C33 1_555 1_555
H32 C33 1_555 1_555
H33 C33 1_555 1_555
C34 C32 1_555 1_555
H34 C34 1_555 1_555
H35 C34 1_555 1_555
H36 C34 1_555 1_555
Ru3 O5 1_555 1_555
Ru4 O7 1_555 1_555
O5 C47 1_555 1_555
O6 Ru3 1_555 1_555
O7 C47 1_555 1_555
O8 Ru4 1_555 1_555
N7 Ru3 1_555 1_555
N8 N10 1_555 1_555
N9 N11 1_555 1_555
N10 C41 1_555 1_555
N11 C41 1_555 1_555
N12 C45 1_555 1_555
C35 N7 1_555 1_555
H37 C35 1_555 1_555
C36 N7 1_555 1_555
H38 C36 1_555 1_555
C37 C35 1_555 1_555
H39 C37 1_555 1_555
C38 C36 1_555 1_555
H40 C38 1_555 1_555
C39 C37 1_555 1_555
C40 N8 1_555 1_555
C41 C42 1_555 1_555
C42 C43 1_555 1_555
C43 H41 1_555 1_555
C44 C42 1_555 1_555
H42 C44 1_555 1_555
C45 C43 1_555 1_555
H43 C45 1_555 1_555
C46 N12 1_555 1_555
H44 C46 1_555 1_555
C47 C48 1_555 1_555
C48 O6 1_555 1_555
C49 Ru3 1_555 1_555
C50 Ru3 1_555 1_555
H45 C50 1_555 1_555
C51 Ru3 1_555 1_555
H46 C51 1_555 1_555
C52 Ru3 1_555 1_555
H47 C52 1_555 1_555
C53 Ru3 1_555 1_555
H48 C53 1_555 1_555
C54 Ru3 1_555 1_555
C55 C49 1_555 1_555
H49 C55 1_555 1_555
C56 C55 1_555 1_555
H50 C56 1_555 1_555
H51 C56 1_555 1_555
H52 C56 1_555 1_555
C57 C55 1_555 1_555
H53 C57 1_555 1_555
H54 C57 1_555 1_555
H55 C57 1_555 1_555
C58 H56 1_555 1_555
C59 Ru4 1_555 1_555
C60 Ru4 1_555 1_555
H57 C60 1_555 1_555
C61 Ru4 1_555 1_555
H58 C61 1_555 1_555
C62 Ru4 1_555 1_555
H59 C62 1_555 1_555
C63 Ru4 1_555 1_555
C64 Ru4 1_555 1_555
H60 C64 1_555 1_555
C65 C63 1_555 1_555
H61 C65 1_555 1_555
H62 C65 1_555 1_555
H63 C65 1_555 1_555
C66 C54 1_555 1_555
H64 C66 1_555 1_555
H65 C66 1_555 1_555
H66 C66 1_555 1_555
C67 C58 1_555 1_555
H67 C67 1_555 1_555
H68 C67 1_555 1_555
H69 C67 1_555 1_555
C68 C58 1_555 1_555
H70 C68 1_555 1_555
H71 C68 1_555 1_555
H72 C68 1_555 1_555
S1 O9 1_555 1_555
F1 C69 1_555 1_555
F2 C69 1_555 1_555
F3 C69 1_555 1_555
O10 S1 1_555 1_555
O11 S1 1_555 1_555
C69 S1 1_555 1_555
S2 O12 1_555 1_555
F4 C70 1_555 1_555
F5 C70 1_555 1_555
F6 C70 1_555 1_555
O13 S2 1_555 1_555
O14 S2 1_555 1_555
C70 S2 1_555 1_555
S3 O15 1_555 1_555
F7 C71 1_555 1_555
F8 C71 1_555 1_555
F9 C71 1_555 1_555
O16 S3 1_555 1_555
O17 S3 1_555 1_555
C71 S3 1_555 1_555
S4 O18 1_555 1_555
F10 C72 1_555 1_555
F11 C72 1_555 1_555
F12 C72 1_555 1_555
O19 S4 1_555 1_555
O20 S4 1_555 1_555
C72 S4 1_555 1_555
O21 C73 1_555 1_555
C73 H73 1_555 1_555
H74 C73 1_555 1_555
H75 C73 1_555 1_555
O22 C74 1_555 1_555
C74 H76 1_555 1_555
H77 C74 1_555 1_555
H78 C74 1_555 1_555
O23 C75 1_555 1_555
C75 H79 1_555 1_555
H80 C75 1_555 1_555
H81 C75 1_555 1_555
Ru1A O1A 1_555 1_555
Ru2A N6 1_555 1_555
O1A C30A 1_555 1_555
O2A Ru1A 1_555 1_555
O3A Ru2A 1_555 1_555
O4A Ru2A 1_555 1_555
N1A Ru1A 1_555 1_555
N2A N4A 1_555 1_555
N3A N5A 1_555 1_555
N4A C7A 1_555 1_555
N5A C7A 1_555 1_555
N6A Ru2 1_555 1_555
C1A N1A 1_555 1_555
H1A C1A 1_555 1_555
C2A N1A 1_555 1_555
H2A C2A 1_555 1_555
C3A C1A 1_555 1_555
H3A C3A 1_555 1_555
C4A C2A 1_555 1_555
H4A C4A 1_555 1_555
C5A C3A 1_555 1_555
C6A N2A 1_555 1_555
C7A C8A 1_555 1_555
C8A C9A 1_555 1_555
C9A H5A 1_555 1_555
C10A C8A 1_555 1_555
H6A C10A 1_555 1_555
C11A N6A 1_555 1_555
H7A C11A 1_555 1_555
C12A N6A 1_555 1_555
H8A C12A 1_555 1_555
C13A Ru1A 1_555 1_555
C14A Ru1A 1_555 1_555
H9A C14A 1_555 1_555
C15A Ru1A 1_555 1_555
H10A C15A 1_555 1_555
C16A Ru1A 1_555 1_555
H11A C16A 1_555 1_555
C17A Ru1A 1_555 1_555
H12A C17A 1_555 1_555
C18A Ru1A 1_555 1_555
C19A C13A 1_555 1_555
H13A C19A 1_555 1_555
C20A C19A 1_555 1_555
H14A C20A 1_555 1_555
H15A C20A 1_555 1_555
H16A C20A 1_555 1_555
C21A C19A 1_555 1_555
H17A C21A 1_555 1_555
H18A C21A 1_555 1_555
H19A C21A 1_555 1_555
C22A C18A 1_555 1_555
H20A C22A 1_555 1_555
H21A C22A 1_555 1_555
H22A C22A 1_555 1_555
C23A Ru2A 1_555 1_555
C24A Ru2A 1_555 1_555
H23A C24A 1_555 1_555
C25A Ru2A 1_555 1_555
H24A C25A 1_555 1_555
C26A Ru2A 1_555 1_555
H25A C26A 1_555 1_555
C27A Ru2A 1_555 1_555
H26A C27A 1_555 1_555
C28A Ru2A 1_555 1_555
C29A C23A 1_555 1_555
H27A C29A 1_555 1_555
H28A C29A 1_555 1_555
H29A C29A 1_555 1_555
C30A O3A 1_555 1_555
C31A O2A 1_555 1_555
C32A C28A 1_555 1_555
H30A C32A 1_555 1_555
C33A C32A 1_555 1_555
H31A C33A 1_555 1_555
H32A C33A 1_555 1_555
H33A C33A 1_555 1_555
C34A C32A 1_555 1_555
H34A C34A 1_555 1_555
H35A C34A 1_555 1_555
H36A C34A 1_555 1_555
Ru3A O5A 1_555 1_555
Ru4A N12 1_555 1_555
O5A C47A 1_555 1_555
O6A Ru3A 1_555 1_555
O7A Ru4A 1_555 1_555
O8A Ru4A 1_555 1_555
N7A Ru3A 1_555 1_555
N8A N10A 1_555 1_555
N9A N11A 1_555 1_555
N10A C41A 1_555 1_555
N11A C41A 1_555 1_555
N12A Ru4 1_555 1_555
C35A N7A 1_555 1_555
H37A C35A 1_555 1_555
C36A N7A 1_555 1_555
H38A C36A 1_555 1_555
C37A C35A 1_555 1_555
H39A C37A 1_555 1_555
C38A C36A 1_555 1_555
H40A C38A 1_555 1_555
C39A C37A 1_555 1_555
C40A N8A 1_555 1_555
C41A C42A 1_555 1_555
C42A C43A 1_555 1_555
C43A H41A 1_555 1_555
C44A C42A 1_555 1_555
H42A C44A 1_555 1_555
C45A N12A 1_555 1_555
H43A C45A 1_555 1_555
C46A N12A 1_555 1_555
H44A C46A 1_555 1_555
C47A O7A 1_555 1_555
C48A O6A 1_555 1_555
C49A Ru3A 1_555 1_555
C50A Ru3A 1_555 1_555
H45A C50A 1_555 1_555
C51A Ru3A 1_555 1_555
H46A C51A 1_555 1_555
C52A Ru3A 1_555 1_555
H47A C52A 1_555 1_555
C53A Ru3A 1_555 1_555
H48A C53A 1_555 1_555
C54A Ru3A 1_555 1_555
C55A C49A 1_555 1_555
H49A C55A 1_555 1_555
C56A C55A 1_555 1_555
H50A C56A 1_555 1_555
H51A C56A 1_555 1_555
H52A C56A 1_555 1_555
C57A C55A 1_555 1_555
H53A C57A 1_555 1_555
H54A C57A 1_555 1_555
H55A C57A 1_555 1_555
C58A H56A 1_555 1_555
C59A Ru4A 1_555 1_555
C60A Ru4A 1_555 1_555
H57A C60A 1_555 1_555
C61A Ru4A 1_555 1_555
H58A C61A 1_555 1_555
C62A Ru4A 1_555 1_555
H59A C62A 1_555 1_555
C63A Ru4A 1_555 1_555
C64A Ru4A 1_555 1_555
H60A C64A 1_555 1_555
C65A C63A 1_555 1_555
H61A C65A 1_555 1_555
H62A C65A 1_555 1_555
H63A C65A 1_555 1_555
C66A C54A 1_555 1_555
H64A C66A 1_555 1_555
H65A C66A 1_555 1_555
H66A C66A 1_555 1_555
C67A C58A 1_555 1_555
H67A C67A 1_555 1_555
H68A C67A 1_555 1_555
H69A C67A 1_555 1_555
C68A C58A 1_555 1_555
H70A C68A 1_555 1_555
H71A C68A 1_555 1_555
H72A C68A 1_555 1_555
O4 C31 1_555 1_555
N3 C6 1_555 1_555
C4 C5 1_555 1_555
C5 C6 1_555 1_555
C10 C12 1_555 1_555
C13 C14 1_555 1_555
C13 C15 1_555 1_555
C14 C16 1_555 1_555
C15 C17 1_555 1_555
C16 C18 1_555 1_555
C17 C18 1_555 1_555
C23 C24 1_555 1_555
C23 C25 1_555 1_555
C24 C26 1_555 1_555
C25 C27 1_555 1_555
C26 C28 1_555 1_555
C27 C28 1_555 1_555
O8 C48 1_555 1_555
N9 C40 1_555 1_555
C38 C39 1_555 1_555
C39 C40 1_555 1_555
C44 C46 1_555 1_555
C49 C50 1_555 1_555
C49 C51 1_555 1_555
C50 C52 1_555 1_555
C51 C53 1_555 1_555
C52 C54 1_555 1_555
C53 C54 1_555 1_555
C58 C59 1_555 1_555
C59 C60 1_555 1_555
C59 C62 1_555 1_555
C60 C61 1_555 1_555
C61 C63 1_555 1_555
C62 C64 1_555 1_555
C63 C64 1_555 1_555
O4A C31A 1_555 1_555
N3A C6A 1_555 1_555
C4A C5A 1_555 1_555
C5A C6A 1_555 1_555
C9A C11A 1_555 1_555
C10A C12A 1_555 1_555
C13A C14A 1_555 1_555
C13A C15A 1_555 1_555
C14A C16A 1_555 1_555
C15A C17A 1_555 1_555
C16A C18A 1_555 1_555
C17A C18A 1_555 1_555
C23A C24A 1_555 1_555
C23A C25A 1_555 1_555
C24A C26A 1_555 1_555
C25A C27A 1_555 1_555
C26A C28A 1_555 1_555
C27A C28A 1_555 1_555
C30A C31A 1_555 1_555
O8A C48A 1_555 1_555
N9A C40A 1_555 1_555
C38A C39A 1_555 1_555
C39A C40A 1_555 1_555
C43A C45A 1_555 1_555
C44A C46A 1_555 1_555
C47A C48A 1_555 1_555
C49A C50A 1_555 1_555
C49A C51A 1_555 1_555
C50A C52A 1_555 1_555
C51A C53A 1_555 1_555
C52A C54A 1_555 1_555
C53A C54A 1_555 1_555
C58A C59A 1_555 1_555
C59A C60A 1_555 1_555
C59A C62A 1_555 1_555
C60A C61A 1_555 1_555
C61A C63A 1_555 1_555
C62A C64A 1_555 1_555
C63A C64A 1_555 1_555

#END
