
#######################################################################
#
#                 Cambridge Crystallographic Data Centre
#                                CCDC 
#
#######################################################################
#
# If this CIF has been generated from an entry in the Cambridge 
# Structural Database, then it will include bibliographic, chemical, 
# crystal, experimental, refinement or atomic coordinate data resulting 
# from the CCDC's data processing and validation procedures.
#
#######################################################################

data_LUWJOC
_chemical_formula_moiety         
'C132 H96 N36 Pd6 12+,12(N1 O3 1-),4(C10 H16 O1),29(H2 O1)'
_chemical_name_systematic        
"tetrakis(\m~3~-2,4,6-tris(Pyrid-4-yl)-1,3,5-triazine-N,N',N'')-hexakis(2,2-bipyridyl-N,N')-hexa-palladium tetrakis(1-adamantanol) clathrate dodecanitrate hydrate"
_symmetry_cell_setting           tetragonal
_symmetry_space_group_name_H-M   'P 43 21 2'
_symmetry_Int_Tables_number      96
_space_group_name_Hall           'P 4nw 2abw'
loop_
_symmetry_equiv_pos_site_id
_symmetry_equiv_pos_as_xyz
1 x,y,z
2 1/2-y,1/2+x,3/4+z
3 1/2+x,1/2-y,1/4-z
4 -x,-y,1/2+z
5 y,x,-z
6 1/2+y,1/2-x,1/4+z
7 1/2-x,1/2+y,3/4-z
8 -y,-x,1/2-z
_cell_length_a                   29.189(4)
_cell_length_b                   29.189(4)
_cell_length_c                   30.337(6)
_cell_angle_alpha                90
_cell_angle_beta                 90
_cell_angle_gamma                90
_cell_volume                     25847.1
_cell_formula_units_Z            4
loop_
_atom_site_label
_atom_site_type_symbol
_atom_site_fract_x
_atom_site_fract_y
_atom_site_fract_z
Pd1 Pd 0.4901(1) 0.5100(1) 0.7500
Pd2 Pd 0.4808(1) 0.9498(1) 0.6708(1)
N4 N 0.4359(4) 0.7172(5) 0.8573(5)
N5 N 0.4683(4) 0.7451(6) 0.7898(5)
N6 N 0.4145(5) 0.9307(5) 0.6584(5)
N7 N 0.1423(5) 0.7259(5) 0.9052(5)
N8 N 0.1386(4) 0.8043(4) 0.8906(5)
N9 N 0.2863(6) 0.8209(5) 1.0983(5)
N10 N 0.5463(5) 0.9713(5) 0.6780(6)
C1 C 0.4898(5) 0.6097(6) 0.7468(7)
C2 C 0.4671(5) 0.6630(5) 0.8024(5)
C3 C 0.4704(6) 0.5814(6) 0.8155(6)
C4 C 0.3719(7) 0.7417(6) 0.9778(6)
C5 C 0.4053(7) 0.7693(6) 0.9099(6)
C6 C 0.3641(6) 0.8194(6) 0.9568(7)
C7 C 0.4937(5) 0.8559(6) 0.7053(6)
C8 C 0.4688(5) 0.8264(5) 0.7754(6)
C9 C 0.4657(5) 0.9075(6) 0.7560(7)
C10 C 0.2410(7) 0.8248(6) 0.9872(7)
C11 C 0.1929(5) 0.7762(5) 0.9476(6)
C12 C 0.2490(6) 0.7469(5) 0.9947(6)
C13 C 0.3782(6) 0.9472(6) 0.6800(6)
C14 C 0.3256(5) 0.9048(6) 0.6367(6)
C15 C 0.4080(6) 0.8999(6) 0.6270(6)
C16 C 0.0869(7) 0.9155(6) 0.8204(6)
C17 C 0.0882(5) 0.8355(6) 0.8375(7)
C18 C 0.0384(7) 0.8669(7) 0.7825(7)
C19 C 0.5829(6) 0.5321(7) 0.7887(5)
C20 C 0.6428(8) 0.4838(12) 0.7956(10)
C21 C 0.5715(6) 0.4599(6) 0.7603(6)
C22 C 0.2192(11) 0.8357(9) 1.1390(10)
C23 C 0.2965(11) 0.8519(9) 1.1707(7)
C24 C 0.3615(12) 0.8343(7) 1.1214(8)
C25 C 0.4464(11) 0.8432(10) 1.1333(13)
C26 C 0.4188(7) 0.8114(6) 1.0705(6)
C27 C 0.4453(13) 1.0466(18) 0.5741(11)
C28 C 0.5195(15) 1.0562(8) 0.5807(12)
C29 C 0.5590(6) 1.0034(6) 0.6461(8)
C30 C 0.6342(9) 1.0041(9) 0.6714(12)
C31 C 0.5749(7) 0.9562(6) 0.7052(9)
Pd3 Pd 0.3202(1) 0.8008(1) 1.0430(1)
Pd4 Pd 0.0367(1) 0.9633(1) 0.7500
N11 N 0.4825(4) 0.5748(4) 0.7742(5)
N12 N 0.3562(5) 0.7855(5) 0.9869(5)
N13 N 0.4832(4) 0.8986(4) 0.7157(5)
N14 N 0.4389(5) 0.7967(4) 0.8440(5)
N15 N 0.2632(4) 0.7905(4) 1.0040(4)
N16 N 0.0560(5) 0.9094(5) 0.7909(6)
N17 N 0.0900(4) 0.7557(5) 0.8518(5)
N18 N 0.5542(6) 0.5007(5) 0.7695(5)
N19 N 0.3746(5) 0.8164(5) 1.0805(5)
N20 N 0.4811(6) 0.9976(5) 0.6251(6)
C34 C 0.4825(6) 0.6559(6) 0.7611(5)
C35 C 0.4598(5) 0.6246(6) 0.8322(7)
C36 C 0.4561(5) 0.7114(5) 0.8171(7)
C37 C 0.3963(7) 0.7339(5) 0.9427(5)
C38 C 0.3870(6) 0.8121(6) 0.9191(6)
C39 C 0.4297(6) 0.7600(5) 0.8693(5)
C40 C 0.4870(6) 0.8201(6) 0.7345(7)
C41 C 0.4576(5) 0.8720(6) 0.7877(6)
C42 C 0.4593(5) 0.7859(6) 0.8048(6)
C43 C 0.2068(5) 0.8200(5) 0.9553(6)
C44 C 0.2128(6) 0.7380(6) 0.9669(7)
C45 C 0.1547(6) 0.7698(6) 0.9130(6)
C46 C 0.3349(5) 0.9349(5) 0.6688(6)
C47 C 0.3633(6) 0.8851(6) 0.6140(7)
C48 C 0.1104(6) 0.7210(7) 0.8758(7)
C49 C 0.1037(5) 0.8813(6) 0.8464(6)
C50 C 0.0535(6) 0.8304(7) 0.8041(6)
C51 C 0.1053(6) 0.7984(5) 0.8626(6)
C52 C 0.6260(7) 0.5245(8) 0.8025(6)
C53 C 0.6177(8) 0.4505(9) 0.7777(12)
C54 C 0.2416(9) 0.8230(8) 1.1030(6)
C55 C 0.2518(11) 0.8517(9) 1.1770(9)
C56 C 0.3130(9) 0.8366(7) 1.1307(7)
C57 C 0.3984(12) 0.8524(10) 1.1507(10)
C58 C 0.4547(9) 0.8227(9) 1.0954(10)
C59 C 0.4478(12) 1.0127(8) 0.6011(10)
C60 C 0.4740(20) 1.0613(16) 0.5592(16)
C61 C 0.5211(8) 1.0183(6) 0.6165(8)
C62 C 0.6041(10) 1.0170(7) 0.6455(10)
C63 C 0.6231(8) 0.9700(7) 0.7072(10)
C74 C -0.0405(6) 1.0207(6) 0.7704(4)
C75 C -0.0909(6) 1.0194(7) 0.8332(6)
C76 C -0.0301(5) 0.9640(5) 0.8272(5)
N21 N -0.0168(4) 0.9833(5) 0.7873(5)
C85 C -0.0775(7) 1.0387(7) 0.7934(6)
C86 C -0.0671(6) 0.9821(7) 0.8502(5)
H1 H 0.4996 0.6040 0.7181
H2 H 0.4488 0.6287 0.8607
H3 H 0.3648 0.7177 0.9968
H4 H 0.3907 0.8359 0.8991
H5 H 0.5058 0.8498 0.6776
H6 H 0.4455 0.8786 0.8154
H7 H 0.2482 0.8541 0.9969
H8 H 0.2024 0.7084 0.9615
H9 H 0.3827 0.9676 0.7031
H10 H 0.3591 0.8637 0.5917
H11 H 0.0984 0.9450 0.8242
H12 H 0.0416 0.8016 0.7977
H13 H 0.5714 0.5616 0.7925
H14 H 0.6731 0.4779 0.8032
H15 H 0.2240 0.8149 1.0787
H16 H 0.2397 0.8611 1.2039
H17 H 0.3926 0.8678 1.1770
H18 H 0.4844 0.8164 1.0864
H19 H 0.4207 0.9962 0.6039
H20 H 0.4710 1.0774 0.5329
H21 H 0.6128 1.0377 0.6237
H22 H 0.6440 0.9591 0.7278
H23 H -0.0934 1.0637 0.7821
H24 H -0.0761 0.9692 0.8768
H25 H 0.4883 0.6804 0.7423
H26 H 0.4688 0.5562 0.8343
H27 H 0.4084 0.7047 0.9384
H28 H 0.3532 0.8487 0.9626
H29 H 0.4954 0.7906 0.7259
H30 H 0.4587 0.9376 0.7634
H31 H 0.1944 0.8450 0.9405
H32 H 0.2644 0.7224 1.0077
H33 H 0.3106 0.9480 0.6842
H34 H 0.4333 0.8874 0.6129
H35 H 0.1245 0.8874 0.8689
H36 H 0.0156 0.8635 0.7612
H37 H 0.6430 0.5472 0.8165
H38 H 0.6294 0.4209 0.7763
H39 H 0.1875 0.8351 1.1415
H40 H 0.3164 0.8621 1.1926
H41 H 0.4712 0.8525 1.1503
H42 H 0.4253 0.7986 1.0431
H43 H 0.4166 1.0585 0.5676
H44 H 0.5448 1.0741 0.5733
H45 H 0.6639 1.0154 0.6688
H46 H 0.5647 0.9347 0.7256
H47 H -0.1156 1.0315 0.8486
H48 H -0.0143 0.9390 0.8385
C14G C 0.0952(6) 0.6744(5) 0.8633(6)
C46G C 0.0651(5) 0.6651(5) 0.8312(6)
C13G C 0.0528(6) 0.6218(6) 0.8200(6)
N6G N 0.0693(5) 0.5855(5) 0.8416(5)
Pd2G Pd 0.0502(1) 0.5192(1) 0.8292(1)
N10G N 0.0287(5) 0.4537(5) 0.8220(6)
C29G C -0.0034(6) 0.4410(6) 0.8539(8)
C61G C -0.0183(6) 0.4789(8) 0.8835(8)
C28G C -0.0562(8) 0.4805(15) 0.9193(12)
C60G C -0.0613(16) 0.5260(20) 0.9408(16)
C27G C -0.0466(18) 0.5547(13) 0.9259(11)
C59G C -0.0127(8) 0.5522(12) 0.8989(10)
N20G N 0.0024(5) 0.5189(6) 0.8749(6)
N13G N 0.1014(4) 0.5168(4) 0.7843(5)
C7G C 0.1441(6) 0.5063(5) 0.7947(6)
C40G C 0.1799(6) 0.5130(6) 0.7655(7)
C8G C 0.1736(5) 0.5312(5) 0.7246(6)
C41G C 0.1280(6) 0.5424(5) 0.7123(6)
C9G C 0.0925(6) 0.5343(5) 0.7440(7)
H30G H 0.0624 0.5413 0.7366
H6G H 0.1214 0.5545 0.6846
C42G C 0.2141(6) 0.5407(5) 0.6952(6)
N5G N 0.2549(6) 0.5317(4) 0.7102(5)
C36G C 0.2886(5) 0.5439(5) 0.6829(7)
N4G N 0.2828(5) 0.5641(4) 0.6427(5)
C39G C 0.2400(5) 0.5703(6) 0.6307(5)
C5G C 0.2307(6) 0.5947(7) 0.5901(6)
C37G C 0.2661(5) 0.6037(7) 0.5573(5)
C4G C 0.2583(6) 0.6281(7) 0.5222(6)
N12G N 0.2145(5) 0.6438(5) 0.5131(5)
C6G C 0.1806(6) 0.6359(6) 0.5432(7)
C38G C 0.1879(6) 0.6130(6) 0.5809(6)
H4G H 0.1641 0.6093 0.6009
H28G H 0.1513 0.6468 0.5374
Pd3G Pd 0.1992(1) 0.6798(1) 0.4570(1)
N9G N 0.1791(5) 0.7137(6) 0.4017(5)
C54G C 0.1770(8) 0.7584(9) 0.3970(6)
C22G C 0.1643(9) 0.7808(11) 0.3610(10)
C55G C 0.1483(9) 0.7482(11) 0.3230(9)
C23G C 0.1481(9) 0.7035(11) 0.3293(7)
C56G C 0.1634(7) 0.6870(9) 0.3693(7)
C24G C 0.1657(7) 0.6385(12) 0.3786(8)
N19G N 0.1836(5) 0.6254(5) 0.4195(5)
C26G C 0.1886(6) 0.5812(7) 0.4295(6)
C58G C 0.1773(9) 0.5453(9) 0.4046(10)
C25G C 0.1568(10) 0.5536(11) 0.3667(13)
C57G C 0.1476(10) 0.6016(12) 0.3493(10)
H17G H 0.1322 0.6074 0.3230
H41G H 0.1475 0.5288 0.3497
H18G H 0.1836 0.5156 0.4136
H42G H 0.2014 0.5747 0.4569
N15G N 0.2095(4) 0.7368(4) 0.4960(4)
C10G C 0.1752(6) 0.7590(7) 0.5128(7)
C43G C 0.1800(5) 0.7932(5) 0.5447(6)
C11G C 0.2238(5) 0.8071(5) 0.5524(6)
C44G C 0.2620(6) 0.7872(6) 0.5331(7)
C12G C 0.2531(5) 0.7510(6) 0.5053(6)
H32G H 0.2776 0.7356 0.4923
H8G H 0.2916 0.7976 0.5385
C45G C 0.2302(6) 0.8453(6) 0.5870(6)
N7G N 0.2741(5) 0.8577(5) 0.5948(5)
C48G C 0.2790(7) 0.8896(6) 0.6242(7)
N17G N 0.2443(5) 0.9100(4) 0.6482(5)
C51G C 0.2016(5) 0.8947(6) 0.6374(6)
N8G N 0.1957(4) 0.8614(4) 0.6094(5)
C17G C 0.1645(6) 0.9118(5) 0.6625(7)
C49G C 0.1187(6) 0.8963(5) 0.6536(6)
C16G C 0.0845(6) 0.9131(7) 0.6796(6)
N16G N 0.0906(5) 0.9440(5) 0.7091(6)
C18G C 0.1331(7) 0.9616(7) 0.7175(7)
C50G C 0.1696(7) 0.9465(6) 0.6959(6)
H12G H 0.1984 0.9584 0.7023
H36G H 0.1365 0.9844 0.7388
C74G C -0.0207(6) 1.0405(6) 0.7296(4)
N21G N 0.0167(5) 1.0168(4) 0.7127(5)
C76G C 0.0360(5) 1.0301(5) 0.6728(5)
C86G C 0.0179(7) 1.0671(6) 0.6498(5)
C75G C -0.0194(7) 1.0909(6) 0.6668(6)
C85G C -0.0387(7) 1.0775(7) 0.7066(6)
H23G H -0.0637 1.0934 0.7179
H47G H -0.0315 1.1156 0.6514
H24G H 0.0308 1.0761 0.6232
H48G H 0.0610 1.0143 0.6615
H11G H 0.0550 0.9016 0.6758
H35G H 0.1126 0.8755 0.6311
H31G H 0.1550 0.8056 0.5595
H7G H 0.1459 0.7518 0.5031
H40G H 0.1379 0.6836 0.3074
H16G H 0.1389 0.7603 0.2961
H39G H 0.1649 0.8125 0.3585
H15G H 0.1851 0.7760 0.4213
H3G H 0.2823 0.6352 0.5032
H27G H 0.2953 0.5916 0.5616
N14G N 0.2033(4) 0.5611(5) 0.6560(5)
C2G C 0.3370(5) 0.5329(5) 0.6976(5)
C34G C 0.3441(6) 0.5175(6) 0.7389(5)
C1G C 0.3903(6) 0.5102(5) 0.7532(7)
N11G N 0.4252(4) 0.5175(4) 0.7258(5)
C21G C 0.5401(6) 0.4285(6) 0.7397(6)
N18G N 0.4993(5) 0.4458(6) 0.7305(5)
C19G C 0.4679(7) 0.4171(6) 0.7113(5)
C52G C 0.4755(8) 0.3740(7) 0.6975(6)
C20G C 0.5162(12) 0.3572(8) 0.7044(10)
C53G C 0.5495(9) 0.3823(8) 0.7223(12)
H38G H 0.5791 0.3706 0.7237
H14G H 0.5221 0.3269 0.6968
H37G H 0.4528 0.3570 0.6835
H13G H 0.4384 0.4286 0.7075
C3G C 0.4186(6) 0.5296(6) 0.6845(6)
C35G C 0.3754(6) 0.5402(5) 0.6678(7)
H2G H 0.3713 0.5512 0.6393
H26G H 0.4438 0.5312 0.6657
H1G H 0.3960 0.5004 0.7819
H25G H 0.3196 0.5117 0.7577
H29G H 0.2094 0.5046 0.7741
H5G H 0.1502 0.4942 0.8224
H19G H 0.0038 0.5793 0.8961
H43G H -0.0585 0.5834 0.9324
H20G H -0.0774 0.5290 0.9671
H44G H -0.0741 0.4552 0.9267
C62G C -0.0170(7) 0.3959(10) 0.8545(10)
C30G C -0.0041(9) 0.3658(9) 0.8286(12)
C63G C 0.0300(7) 0.3769(8) 0.7928(10)
C31G C 0.0438(6) 0.4251(7) 0.7948(9)
H46G H 0.0653 0.4353 0.7744
H22G H 0.0409 0.3560 0.7722
H45G H -0.0154 0.3361 0.8312
H21G H -0.0377 0.3872 0.8763
C15G C 0.1001(6) 0.5920(6) 0.8730(6)
C47G C 0.1149(6) 0.6367(6) 0.8860(7)
H10G H 0.1363 0.6409 0.9083
H34G H 0.1126 0.5667 0.8871
H9G H 0.0324 0.6173 0.7969
H33G H 0.0520 0.6894 0.8158
N1 N 0.5814(5) 0.8405(6) 0.7928(6)
O3 O 0.5866(5) 0.8806(5) 0.7825(5)
O22 O 0.5941(5) 0.8118(5) 0.7629(5)
O23 O 0.5684(6) 0.8271(6) 0.8265(6)
N2 N 0.5777(10) 0.5285(11) 0.6743(10)
O4 O 0.5328(7) 0.5484(7) 0.6621(7)
O5 O 0.6033(8) 0.5632(8) 0.6938(8)
O24 O 0.5900(7) 0.4945(8) 0.6612(7)
N3 N 0.3872(7) 0.9601(7) 0.8502(6)
O6 O 0.3533(5) 0.9878(5) 0.8515(5)
O25 O 0.4200(7) 0.9704(7) 0.8260(7)
O37 O 0.3877(5) 0.9244(6) 0.8741(5)
C32 C 0.2720(8) 0.9043(8) 0.8286(8)
C33 C 0.2880(9) 0.8694(9) 0.8644(8)
O1 O 0.2710(10) 0.9491(9) 0.8519(9)
C64 C 0.2240(11) 0.8907(12) 0.8168(11)
C65 C 0.3034(8) 0.9079(8) 0.7919(8)
C66 C 0.2217(10) 0.8465(11) 0.7995(10)
C67 C 0.3060(9) 0.8557(9) 0.7714(9)
C68 C 0.3199(9) 0.8231(9) 0.8016(10)
C77 C 0.2917(9) 0.8244(9) 0.8422(9)
C78 C 0.2424(10) 0.8108(10) 0.8274(10)
C79 C 0.2520(9) 0.8460(10) 0.7541(9)
O2 O 0.3078(14) 0.5648(15) 0.9148(13)
C69 C 0.2972(15) 0.6467(16) 0.9001(14)
C70 C 0.2496(10) 0.5865(10) 0.8672(10)
C71 C 0.3171(14) 0.6300(15) 0.8097(14)
C72 C 0.3177(12) 0.6793(12) 0.8300(14)
C73 C 0.2367(12) 0.6733(11) 0.8485(11)
C80 C 0.2949(12) 0.5995(13) 0.8813(12)
C81 C 0.3310(10) 0.5962(11) 0.8435(11)
C82 C 0.2871(15) 0.6815(13) 0.8692(15)
C83 C 0.2388(11) 0.6207(11) 0.8257(11)
C84 C 0.2701(15) 0.6194(14) 0.7921(12)
O7 O 0.0848(13) 0.7662(14) 1.0054(14)
O8 O 0.5238(10) 0.7453(10) 0.9059(10)
O9 O 0.4659(13) 0.2999(13) 0.8146(12)
O10 O 0.3157(14) 0.7052(13) 1.0833(13)
O11 O 0.2092(17) 0.8839(18) 1.2909(17)
O12 O 0.3240(18) 0.8991(18) 0.4913(18)
O13 O 0.7909(19) 1.0240(20) 0.8553(19)
O14 O 0.4479(19) 0.6966(19) 1.0606(18)
O15 O 0.5770(18) 0.8355(18) 1.1393(18)
O16 O 0.4430(20) 1.0780(20) 0.7766(19)
O17 O 0.1820(20) 0.7310(20) 1.2040(20)
O18 O 0.2800(20) 0.5050(20) 0.9540(19)
O19 O 0.3595(8) 1.0359(8) 0.7667(8)
O20 O 0.6879(10) 0.6397(10) 0.8082(10)
O21 O 0.7228(9) 0.9975(9) 0.7495(9)
O26 O 0.3747(8) 0.8173(8) 0.5196(7)
O27 O 0.6735(13) 1.0470(13) 0.7794(12)
O28 O 0.0973(15) 0.8242(15) 1.1277(14)
O29 O 0.6728(19) 0.3730(20) 0.7099(19)
O30 O 0.5160(30) 1.1550(20) 0.7500(20)
O31 O 0.6499(17) 1.1290(16) 0.7663(16)
O32 O 0.5269(12) 0.7649(12) 1.1740(12)
O33 O 0.3396(18) 0.9818(19) 0.5563(19)
O34 O 0.5880(40) 1.1430(30) 0.7560(30)
O35 O 0.1552(15) 0.8850(16) 1.2282(15)
O36 O 0.2440(20) 0.7560(20) 1.2500
O38 O 0.5590(9) 0.7348(9) 0.8412(9)
O39 O 0.2692(9) 1.0083(9) 0.7307(9)
O40 O 0.5822(8) 0.6511(8) 0.7065(8)
loop_
_geom_bond_atom_site_label_1
_geom_bond_atom_site_label_2
_geom_bond_site_symmetry_1
_geom_bond_site_symmetry_2
Pd1 N11 1_555 1_555
Pd2 N6 1_555 1_555
N1 O3 1_555 1_555
N2 O4 1_555 1_555
N3 O6 1_555 1_555
N4 C36 1_555 1_555
N5 C36 1_555 1_555
N6 C13 1_555 1_555
N7 C45 1_555 1_555
N8 C45 1_555 1_555
N9 Pd3 1_555 1_555
N10 Pd2 1_555 1_555
C1 N11 1_555 1_555
C2 C34 1_555 1_555
C3 N11 1_555 1_555
C4 N12 1_555 1_555
C5 C37 1_555 1_555
C6 N12 1_555 1_555
C7 N13 1_555 1_555
C8 C40 1_555 1_555
C9 N13 1_555 1_555
C10 N15 1_555 1_555
C11 C43 1_555 1_555
C12 N15 1_555 1_555
C13 C46 1_555 1_555
C14 C46 1_555 1_555
C15 N6 1_555 1_555
C16 N16 1_555 1_555
C17 C49 1_555 1_555
C18 N16 1_555 1_555
C19 N18 1_555 1_555
C20 C52 1_555 1_555
C21 N18 1_555 1_555
C22 C54 1_555 1_555
C23 C55 1_555 1_555
C24 N19 1_555 1_555
C25 C57 1_555 1_555
C26 N19 1_555 1_555
C27 C59 1_555 1_555
C28 C60 1_555 1_555
C29 N10 1_555 1_555
C30 C62 1_555 1_555
C31 N10 1_555 1_555
C32 C33 1_555 1_555
C33 C77 1_555 1_555
Pd3 N12 1_555 1_555
Pd4 N16 1_555 1_555
N13 Pd2 1_555 1_555
N14 C39 1_555 1_555
N15 Pd3 1_555 1_555
N17 C48 1_555 1_555
N18 Pd1 1_555 1_555
N19 Pd3 1_555 1_555
N20 Pd2 1_555 1_555
C34 C1 1_555 1_555
C35 C2 1_555 1_555
C36 C2 1_555 1_555
C37 C4 1_555 1_555
C38 C5 1_555 1_555
C39 N4 1_555 1_555
C40 C7 1_555 1_555
C41 C8 1_555 1_555
C42 N5 1_555 1_555
C43 C10 1_555 1_555
C44 C11 1_555 1_555
C45 C11 1_555 1_555
C46 H33 1_555 1_555
C47 C14 1_555 1_555
C48 N7 1_555 1_555
C49 C16 1_555 1_555
C50 C17 1_555 1_555
C51 N8 1_555 1_555
C52 C19 1_555 1_555
C53 C20 1_555 1_555
C54 N9 1_555 1_555
C55 C22 1_555 1_555
C56 N9 1_555 1_555
C57 C24 1_555 1_555
C58 C25 1_555 1_555
C59 N20 1_555 1_555
C60 C27 1_555 1_555
C61 C28 1_555 1_555
C62 C29 1_555 1_555
C63 C30 1_555 1_555
O1 C32 1_555 1_555
C64 C32 1_555 1_555
C65 C32 1_555 1_555
C66 C64 1_555 1_555
C67 C65 1_555 1_555
C68 C67 1_555 1_555
O2 C80 1_555 1_555
C69 C80 1_555 1_555
C70 C80 1_555 1_555
C71 C72 1_555 1_555
C72 C82 1_555 1_555
C73 C82 1_555 1_555
O5 N2 1_555 1_555
C74 N21 1_555 1_555
C75 C85 1_555 1_555
C76 N21 1_555 1_555
C77 C68 1_555 1_555
C78 C66 1_555 1_555
C79 C66 1_555 1_555
C80 C81 1_555 1_555
C81 C71 1_555 1_555
C82 C69 1_555 1_555
C83 C70 1_555 1_555
C84 C71 1_555 1_555
O22 N1 1_555 1_555
O23 N1 1_555 1_555
O24 N2 1_555 1_555
O25 N3 1_555 1_555
O37 N3 1_555 1_555
N21 Pd4 1_555 1_555
C85 C74 1_555 1_555
C86 C75 1_555 1_555
H1 C1 1_555 1_555
H2 C35 1_555 1_555
H3 C4 1_555 1_555
H4 C38 1_555 1_555
H5 C7 1_555 1_555
H6 C41 1_555 1_555
H7 C10 1_555 1_555
H8 C44 1_555 1_555
H9 C13 1_555 1_555
H10 C47 1_555 1_555
H11 C16 1_555 1_555
H12 C50 1_555 1_555
H13 C19 1_555 1_555
H14 C20 1_555 1_555
H15 C54 1_555 1_555
H16 C55 1_555 1_555
H17 C57 1_555 1_555
H18 C58 1_555 1_555
H19 C59 1_555 1_555
H20 C60 1_555 1_555
H21 C62 1_555 1_555
H22 C63 1_555 1_555
H23 C85 1_555 1_555
H24 C86 1_555 1_555
H25 C34 1_555 1_555
H26 C3 1_555 1_555
H27 C37 1_555 1_555
H28 C6 1_555 1_555
H29 C40 1_555 1_555
H30 C9 1_555 1_555
H31 C43 1_555 1_555
H32 C12 1_555 1_555
H34 C15 1_555 1_555
H35 C49 1_555 1_555
H36 C18 1_555 1_555
H37 C52 1_555 1_555
H38 C53 1_555 1_555
H39 C22 1_555 1_555
H40 C23 1_555 1_555
H41 C25 1_555 1_555
H42 C26 1_555 1_555
H43 C27 1_555 1_555
H44 C28 1_555 1_555
H45 C30 1_555 1_555
H46 C31 1_555 1_555
H47 C75 1_555 1_555
H48 C76 1_555 1_555
C14G C48 1_555 1_555
C46G C14G 1_555 1_555
C13G C46G 1_555 1_555
N6G C13G 1_555 1_555
Pd2G N6G 1_555 1_555
N10G Pd2G 1_555 1_555
C29G N10G 1_555 1_555
C61G C29G 1_555 1_555
C28G C61G 1_555 1_555
C60G C28G 1_555 1_555
C27G C60G 1_555 1_555
C59G C27G 1_555 1_555
N20G Pd2G 1_555 1_555
N13G Pd2G 1_555 1_555
C7G N13G 1_555 1_555
C40G C7G 1_555 1_555
C8G C40G 1_555 1_555
C41G C8G 1_555 1_555
C9G N13G 1_555 1_555
H30G C9G 1_555 1_555
H6G C41G 1_555 1_555
C42G C8G 1_555 1_555
N5G C42G 1_555 1_555
C36G N5G 1_555 1_555
N4G C36G 1_555 1_555
C39G N4G 1_555 1_555
C5G C39G 1_555 1_555
C37G C5G 1_555 1_555
C4G C37G 1_555 1_555
N12G C4G 1_555 1_555
C6G N12G 1_555 1_555
C38G C5G 1_555 1_555
H4G C38G 1_555 1_555
H28G C6G 1_555 1_555
Pd3G N12G 1_555 1_555
N9G Pd3G 1_555 1_555
C54G N9G 1_555 1_555
C22G C54G 1_555 1_555
C55G C22G 1_555 1_555
C23G C55G 1_555 1_555
C56G N9G 1_555 1_555
C24G C56G 1_555 1_555
N19G Pd3G 1_555 1_555
C26G N19G 1_555 1_555
C58G C26G 1_555 1_555
C25G C58G 1_555 1_555
C57G C24G 1_555 1_555
H17G C57G 1_555 1_555
H41G C25G 1_555 1_555
H18G C58G 1_555 1_555
H42G C26G 1_555 1_555
N15G Pd3G 1_555 1_555
C10G N15G 1_555 1_555
C43G C10G 1_555 1_555
C11G C43G 1_555 1_555
C44G C11G 1_555 1_555
C12G N15G 1_555 1_555
H32G C12G 1_555 1_555
H8G C44G 1_555 1_555
C45G C11G 1_555 1_555
N7G C45G 1_555 1_555
C48G C14 1_555 1_555
N17G C48G 1_555 1_555
C51G N17G 1_555 1_555
N8G C45G 1_555 1_555
C17G C51G 1_555 1_555
C49G C17G 1_555 1_555
C16G C49G 1_555 1_555
N16G Pd4 1_555 1_555
C18G N16G 1_555 1_555
C50G C17G 1_555 1_555
H12G C50G 1_555 1_555
H36G C18G 1_555 1_555
C74G C74 1_555 1_555
N21G Pd4 1_555 1_555
C76G N21G 1_555 1_555
C86G C76G 1_555 1_555
C75G C86G 1_555 1_555
C85G C74G 1_555 1_555
H23G C85G 1_555 1_555
H47G C75G 1_555 1_555
H24G C86G 1_555 1_555
H48G C76G 1_555 1_555
H11G C16G 1_555 1_555
H35G C49G 1_555 1_555
H31G C43G 1_555 1_555
H7G C10G 1_555 1_555
H40G C23G 1_555 1_555
H16G C55G 1_555 1_555
H39G C22G 1_555 1_555
H15G C54G 1_555 1_555
H3G C4G 1_555 1_555
H27G C37G 1_555 1_555
N14G C42G 1_555 1_555
C2G C36G 1_555 1_555
C34G C2G 1_555 1_555
C1G C34G 1_555 1_555
N11G Pd1 1_555 1_555
C21G C21 1_555 1_555
N18G Pd1 1_555 1_555
C19G N18G 1_555 1_555
C52G C19G 1_555 1_555
C20G C52G 1_555 1_555
C53G C21G 1_555 1_555
H38G C53G 1_555 1_555
H14G C20G 1_555 1_555
H37G C52G 1_555 1_555
H13G C19G 1_555 1_555
C3G N11G 1_555 1_555
C35G C2G 1_555 1_555
H2G C35G 1_555 1_555
H26G C3G 1_555 1_555
H1G C1G 1_555 1_555
H25G C34G 1_555 1_555
H29G C40G 1_555 1_555
H5G C7G 1_555 1_555
H19G C59G 1_555 1_555
H43G C27G 1_555 1_555
H20G C60G 1_555 1_555
H44G C28G 1_555 1_555
C62G C29G 1_555 1_555
C30G C62G 1_555 1_555
C63G C30G 1_555 1_555
C31G N10G 1_555 1_555
H46G C31G 1_555 1_555
H22G C63G 1_555 1_555
H45G C30G 1_555 1_555
H21G C62G 1_555 1_555
C15G N6G 1_555 1_555
C47G C14G 1_555 1_555
H10G C47G 1_555 1_555
H34G C15G 1_555 1_555
H9G C13G 1_555 1_555
H33G C46G 1_555 1_555
C3 C35 1_555 1_555
C5 C39 1_555 1_555
C6 C38 1_555 1_555
C8 C42 1_555 1_555
C9 C41 1_555 1_555
C12 C44 1_555 1_555
C15 C47 1_555 1_555
C17 C51 1_555 1_555
C18 C50 1_555 1_555
C21 C53 1_555 1_555
C23 C56 1_555 1_555
C24 C56 1_555 1_555
C26 C58 1_555 1_555
C29 C61 1_555 1_555
C31 C63 1_555 1_555
N14 C42 1_555 1_555
N17 C51 1_555 1_555
N20 C61 1_555 1_555
C67 C79 1_555 1_555
C73 C83 1_555 1_555
C76 C86 1_555 1_555
C77 C78 1_555 1_555
C83 C84 1_555 1_555
C61G N20G 1_555 1_555
C59G N20G 1_555 1_555
C41G C9G 1_555 1_555
C39G N14G 1_555 1_555
C6G C38G 1_555 1_555
C23G C56G 1_555 1_555
C24G N19G 1_555 1_555
C25G C57G 1_555 1_555
C44G C12G 1_555 1_555
N7G C48G 1_555 1_555
C51G N8G 1_555 1_555
C16G N16G 1_555 1_555
C18G C50G 1_555 1_555
C74G N21G 1_555 1_555
C75G C85G 1_555 1_555
C1G N11G 1_555 1_555
C21G N18G 1_555 1_555
C20G C53G 1_555 1_555
C3G C35G 1_555 1_555
C63G C31G 1_555 1_555
C15G C47G 1_555 1_555

#END
