
#######################################################################
#
#                 Cambridge Crystallographic Data Centre
#                                CCDC 
#
#######################################################################
#
# If this CIF has been generated from an entry in the Cambridge 
# Structural Database, then it will include bibliographic, chemical, 
# crystal, experimental, refinement or atomic coordinate data resulting 
# from the CCDC's data processing and validation procedures.
#
#######################################################################

data_LUWJUI
_chemical_formula_moiety         
'C132 H96 N36 Pd6 12+,12(N1 O3 1-),2(C13 H12),31(H2 O1)'
_chemical_name_systematic        
"tetrakis(\m~3~-2,4,6-tris(Pyrid-4-yl)-1,3,5-triazine-N,N',N'')-hexakis(2,2-bipyridyl-N,N')-hexa-palladium bis(diphenylmethane) clathrate dodecanitrate hydrate"
_symmetry_cell_setting           tetragonal
_symmetry_space_group_name_H-M   'P 41 21 2'
_symmetry_Int_Tables_number      92
_space_group_name_Hall           'P 4abw 2nw'
loop_
_symmetry_equiv_pos_site_id
_symmetry_equiv_pos_as_xyz
1 x,y,z
2 1/2-y,1/2+x,1/4+z
3 1/2+x,1/2-y,3/4-z
4 -x,-y,1/2+z
5 y,x,-z
6 1/2+y,1/2-x,3/4+z
7 1/2-x,1/2+y,1/4-z
8 -y,-x,1/2-z
_cell_length_a                   30.4810(14)
_cell_length_b                   30.4810(14)
_cell_length_c                   28.8423(19)
_cell_angle_alpha                90
_cell_angle_beta                 90
_cell_angle_gamma                90
_cell_volume                     26797.1
_cell_formula_units_Z            4
loop_
_atom_site_label
_atom_site_type_symbol
_atom_site_fract_x
_atom_site_fract_y
_atom_site_fract_z
Pd1 Pd 0.4393(1) 0.9591(1) 0.6343(1)
Pd2 Pd 0.3355(1) 0.8213(1) 1.0469(1)
C1 C 0.3538(3) 0.9686(3) 0.6800(4)
C2 C 0.3226(3) 0.9642(3) 0.7139(3)
C3 C 0.3334(2) 0.9471(2) 0.7555(3)
C4 C 0.3780(2) 0.9378(3) 0.7635(3)
C5 C 0.4075(2) 0.9438(3) 0.7295(3)
C6 C 0.1047(3) 0.9427(3) 0.8150(3)
C7 C 0.1476(3) 0.9354(3) 0.8279(3)
C8 C 0.2986(2) 0.6946(2) 0.9559(3)
C9 C 0.1715(3) 0.9624(4) 0.7561(3)
C10 C 0.1294(3) 0.9703(3) 0.7451(3)
C11 C 0.3450(3) 0.8561(3) 0.9529(3)
C12 C 0.3339(2) 0.8737(3) 0.9121(3)
C13 C 0.3446(3) 0.5898(3) 0.8427(3)
C14 C 0.3376(3) 0.5556(3) 0.8134(3)
C15 C 0.3714(3) 0.5381(3) 0.7874(3)
C16 C 0.2992(3) 0.9379(3) 0.7910(3)
C17 C 0.2874(2) 0.6594(3) 0.9241(3)
C18 C 0.2795(3) 0.9110(3) 0.8609(3)
C19 C 0.4404(2) 1.0505(2) 0.6722(3)
C20 C 0.4841(3) 1.1083(3) 0.6385(3)
C21 C 0.4847(2) 1.0373(2) 0.6068(2)
C22 C 0.5257(3) 1.0114(3) 0.5362(3)
C23 C 0.5208(5) 0.9349(4) 0.5173(4)
C24 C 0.0537(3) 1.0531(3) 0.7959(3)
C25 C 0.0032(4) 1.1110(3) 0.8002(4)
C26 C -0.0157(3) 1.0455(3) 0.7629(3)
C27 C 0.3735(4) 0.9497(4) 1.0901(5)
C28 C 0.3945(3) 0.8993(4) 1.1478(4)
C29 C 0.3746(3) 0.8200(3) 1.1362(3)
C30 C 0.3844(6) 0.7577(5) 1.1872(5)
C31 C 0.3535(4) 0.7492(3) 1.1143(4)
C32 C 0.4667(5) 0.4202(4) 0.8325(5)
C33 C 0.5274(4) 0.4182(4) 0.7837(4)
N1 N 0.3964(2) 0.9595(2) 0.6882(2)
N2 N 0.0959(2) 0.9601(2) 0.7728(2)
N3 N 0.3168(2) 0.8532(2) 0.9888(2)
N4 N 0.3204(2) 0.6420(2) 0.8998(2)
N5 N 0.2363(2) 0.9175(2) 0.8527(2)
N6 N 0.3116(2) 0.9204(2) 0.8317(3)
Pd3 Pd 0.0335(1) 0.9665(1) 0.7500
Pd4 Pd 0.4636(1) 0.5364(1) 0.7500
C41 C 0.3921(3) 0.8833(3) 0.5958(3)
C42 C 0.3782(3) 0.8404(4) 0.5892(4)
C43 C 0.3987(2) 0.8088(3) 0.6171(3)
C44 C 0.4309(3) 0.8198(3) 0.6470(3)
C45 C 0.4433(3) 0.8629(3) 0.6517(3)
C46 C 0.2777(3) 0.7534(3) 1.0068(3)
C47 C 0.2654(3) 0.7185(3) 0.9794(3)
C48 C 0.1822(3) 0.9448(3) 0.7996(3)
C49 C 0.3415(3) 0.7082(3) 0.9629(3)
C50 C 0.3510(3) 0.7428(3) 0.9911(3)
C51 C 0.4194(3) 0.5857(3) 0.8208(3)
C52 C 0.3876(3) 0.6051(3) 0.8479(3)
C53 C 0.2920(3) 0.8908(3) 0.9053(3)
C54 C 0.2635(3) 0.8890(3) 0.9424(3)
C55 C 0.2765(3) 0.8695(3) 0.9826(3)
C56 C 0.3848(3) 0.7610(3) 0.6104(3)
C57 C 0.2279(3) 0.9359(3) 0.8109(3)
C58 C 0.3096(3) 0.6103(3) 0.8702(3)
C59 C 0.4541(3) 1.0934(3) 0.6735(3)
C60 C 0.4982(3) 1.0799(3) 0.6066(3)
C61 C 0.4977(3) 1.0037(2) 0.5730(3)
C62 C 0.5369(4) 0.9759(4) 0.5074(4)
C63 C 0.4926(4) 0.9300(3) 0.5513(4)
C64 C 0.0430(4) 1.0952(3) 0.8095(4)
C65 C -0.0265(3) 1.0881(3) 0.7772(3)
C66 C 0.3557(3) 0.9163(3) 1.0674(4)
C67 C 0.3921(4) 0.9411(4) 1.1319(4)
C68 C 0.3760(3) 0.8667(3) 1.1227(3)
C69 C 0.3913(4) 0.8028(5) 1.1789(4)
C70 C 0.3686(4) 0.7317(4) 1.1559(4)
C71 C 0.4521(4) 0.4596(4) 0.8158(4)
C72 C 0.5013(5) 0.3972(4) 0.8168(6)
C73 C 0.5144(3) 0.4604(3) 0.7673(4)
N7 N 0.4243(2) 0.8952(2) 0.6264(2)
N8 N 0.3188(2) 0.7656(2) 1.0126(2)
N9 N 0.4121(2) 0.5545(2) 0.7911(2)
N10 N 0.2585(2) 0.9464(2) 0.7786(2)
N11 N 0.3524(2) 0.7541(2) 0.5800(3)
N12 N 0.4044(2) 0.7319(2) 0.6366(2)
N13 N 0.4557(2) 1.0222(2) 0.6391(2)
N14 N 0.0235(2) 1.0282(2) 0.7729(2)
N15 N 0.3556(2) 0.7919(2) 1.1052(2)
N19 N 0.4807(3) 0.9623(2) 0.5808(2)
N20 N 0.3564(2) 0.8748(2) 1.0817(2)
N21 N 0.4790(3) 0.4807(2) 0.7823(2)
H1 H 0.3454 0.9780 0.6507
H2 H 0.2939 0.9731 0.7082
H3 H 0.3870 0.9275 0.7924
H4 H 0.4367 0.9367 0.7350
H5 H 0.0819 0.9358 0.8351
H6 H 0.1532 0.9235 0.8570
H7 H 0.1936 0.9686 0.7349
H8 H 0.1233 0.9835 0.7167
H9 H 0.3733 0.8454 0.9567
H10 H 0.3543 0.8744 0.8881
H11 H 0.3096 0.5437 0.8109
H12 H 0.3659 0.5149 0.7673
H13 H 0.4204 1.0405 0.6942
H14 H 0.4936 1.1373 0.6382
H15 H 0.5370 1.0393 0.5308
H16 H 0.5298 0.9107 0.5001
H17 H 0.0814 1.0417 0.8024
H18 H -0.0040 1.1391 0.8103
H19 H 0.3417 0.9223 1.0395
H20 H 0.4034 0.9639 1.1497
H21 H 0.4060 0.8205 1.2001
H22 H 0.3673 0.7017 1.1612
H23 H 0.4259 0.4719 0.8258
H24 H 0.5076 0.3690 0.8273
H30 H 0.3787 0.9053 0.5784
H31 H 0.3567 0.8331 0.5677
H32 H 0.4447 0.7982 0.6645
H33 H 0.4653 0.8701 0.6728
H34 H 0.2558 0.7691 1.0220
H35 H 0.2360 0.7107 0.9764
H36 H 0.3642 0.6934 0.9480
H37 H 0.3801 0.7509 0.9956
H38 H 0.4481 0.5956 0.8240
H39 H 0.3945 0.6273 0.8688
H40 H 0.2355 0.9010 0.9400
H41 H 0.2564 0.8674 1.0068
H42 H 0.4442 1.1123 0.6964
H43 H 0.5176 1.0894 0.5838
H44 H 0.5549 0.9802 0.4818
H45 H 0.4800 0.9025 0.5554
H46 H 0.0635 1.1124 0.8251
H47 H -0.0540 1.1000 0.7706
H48 H 0.3732 0.9780 1.0779
H49 H 0.4086 0.8932 1.1756
H50 H 0.3915 0.7462 1.2161
H51 H 0.3416 0.7304 1.0922
H52 H 0.4512 0.4081 0.8571
H53 H 0.5527 0.4050 0.7726
N2G N 0.0399(2) 0.9041(2) 0.7272(2)
C6G C 0.0573(3) 0.8953(3) 0.6850(3)
C7G C 0.0646(3) 0.8524(3) 0.6721(3)
C48G C 0.0552(3) 0.8178(3) 0.7004(3)
C9G C 0.0376(4) 0.8285(3) 0.7439(3)
C10G C 0.0297(3) 0.8706(3) 0.7549(3)
H8G H 0.0165 0.8767 0.7833
H7G H 0.0314 0.8064 0.7651
C57G C 0.0641(3) 0.7721(3) 0.6891(3)
N5G N 0.0825(2) 0.7637(2) 0.6473(2)
C18G C 0.0890(3) 0.7205(3) 0.6391(3)
N6G N 0.0796(2) 0.6884(2) 0.6683(3)
C16G C 0.0621(3) 0.7008(3) 0.7090(3)
C3G C 0.0529(2) 0.6666(2) 0.7445(3)
C2G C 0.0358(3) 0.6774(3) 0.7861(3)
C1G C 0.0314(3) 0.6462(3) 0.8200(4)
N1G N 0.0405(2) 0.6036(2) 0.8118(2)
Pd1G Pd 0.0409(1) 0.5607(1) 0.8657(1)
N7G N 0.1048(2) 0.5757(2) 0.8736(2)
C41G C 0.1167(3) 0.6079(3) 0.9042(3)
C42G C 0.1596(4) 0.6218(3) 0.9108(4)
C43G C 0.1912(3) 0.6013(2) 0.8829(3)
C44G C 0.1802(3) 0.5691(3) 0.8530(3)
C45G C 0.1371(3) 0.5567(3) 0.8483(3)
H33G H 0.1299 0.5347 0.8272
H32G H 0.2018 0.5553 0.8355
C56G C 0.2390(3) 0.6152(3) 0.8896(3)
N11G N 0.2459(2) 0.6476(2) 0.9200(3)
N9G N 0.4455(2) 0.5879(2) 0.7089(2)
C15G C 0.4619(3) 0.6286(3) 0.7126(3)
C14G C 0.4444(3) 0.6624(3) 0.6866(3)
C13G C 0.4102(3) 0.6554(3) 0.6573(3)
C52G C 0.3949(3) 0.6124(3) 0.6521(3)
C51G C 0.4143(3) 0.5806(3) 0.6792(3)
H38G H 0.4044 0.5519 0.6760
H39G H 0.3727 0.6055 0.6312
C58G C 0.3897(3) 0.6904(3) 0.6298(3)
N4G N 0.3580(2) 0.6796(2) 0.6002(2)
C17G C 0.3406(3) 0.7126(2) 0.5759(3)
C8G C 0.3054(2) 0.7014(2) 0.5441(3)
C47G C 0.2815(3) 0.7346(3) 0.5206(3)
C46G C 0.2466(3) 0.7223(3) 0.4932(3)
N8G N 0.2344(2) 0.6812(2) 0.4874(2)
Pd2G Pd 0.1787(1) 0.6645(1) 0.4531(1)
N3G N 0.1468(2) 0.6832(2) 0.5112(2)
C11G C 0.1439(3) 0.6550(3) 0.5471(3)
C12G C 0.1263(3) 0.6661(2) 0.5879(3)
C53G C 0.1092(3) 0.7080(3) 0.5947(3)
C54G C 0.1110(3) 0.7365(3) 0.5576(3)
C55G C 0.1305(3) 0.7235(3) 0.5174(3)
H41G H 0.1326 0.7436 0.4932
H40G H 0.0990 0.7645 0.5600
H10G H 0.1256 0.6457 0.6119
H9G H 0.1546 0.6267 0.5433
N15G N 0.2081(2) 0.6444(2) 0.3948(2)
C29G C 0.1800(3) 0.6254(3) 0.3638(3)
C68G C 0.1333(3) 0.6240(3) 0.3773(3)
C28G C 0.1007(4) 0.6055(3) 0.3522(4)
C67G C 0.0589(4) 0.6079(4) 0.3681(4)
C27G C 0.0503(4) 0.6265(4) 0.4099(5)
C66G C 0.0837(3) 0.6443(3) 0.4326(4)
N20G N 0.1252(2) 0.6436(2) 0.4183(2)
H19G H 0.0777 0.6583 0.4605
H48G H 0.0220 0.6268 0.4221
H20G H 0.0361 0.5966 0.3503
H49G H 0.1068 0.5914 0.3244
C69G C 0.1972(5) 0.6087(4) 0.3211(4)
C30G C 0.2423(5) 0.6156(6) 0.3128(5)
C70G C 0.2683(4) 0.6314(4) 0.3441(4)
C31G C 0.2508(3) 0.6465(4) 0.3857(4)
H51G H 0.2696 0.6584 0.4078
H22G H 0.2983 0.6327 0.3388
H50G H 0.2538 0.6085 0.2839
H21G H 0.1795 0.5940 0.2999
C50G C 0.2572(3) 0.6490(3) 0.5089(3)
C49G C 0.2918(3) 0.6585(3) 0.5371(3)
H36G H 0.3066 0.6358 0.5520
H37G H 0.2491 0.6199 0.5044
H34G H 0.2309 0.7442 0.4780
H35G H 0.2893 0.7640 0.5236
H11G H 0.4563 0.6904 0.6891
H12G H 0.4851 0.6341 0.7327
C73G C 0.5396(3) 0.4856(3) 0.7327(4)
C33G C 0.5818(4) 0.4726(4) 0.7163(4)
C72G C 0.6028(4) 0.4987(5) 0.6832(6)
C32G C 0.5798(4) 0.5333(5) 0.6675(5)
C71G C 0.5404(4) 0.5479(4) 0.6842(4)
N21G N 0.5193(2) 0.5210(3) 0.7177(2)
H23G H 0.5281 0.5741 0.6742
H52G H 0.5919 0.5488 0.6429
H24G H 0.6310 0.4924 0.6727
H53G H 0.5950 0.4473 0.7274
N12G N 0.2681(2) 0.5956(2) 0.8634(2)
H31G H 0.1669 0.6433 0.9323
H30G H 0.0947 0.6213 0.9216
N13G N -0.0222(2) 0.5443(2) 0.8609(2)
C19G C -0.0505(2) 0.5596(2) 0.8278(3)
C59G C -0.0934(3) 0.5459(3) 0.8265(3)
C20G C -0.1083(3) 0.5159(3) 0.8615(3)
C60G C -0.0799(3) 0.5018(3) 0.8934(3)
C21G C -0.0373(2) 0.5153(2) 0.8932(2)
C61G C -0.0037(2) 0.5023(3) 0.9270(3)
C22G C -0.0114(3) 0.4743(3) 0.9638(3)
C62G C 0.0241(4) 0.4631(4) 0.9926(4)
C23G C 0.0651(4) 0.4792(5) 0.9827(4)
C63G C 0.0700(3) 0.5074(4) 0.9487(4)
N19G N 0.0377(2) 0.5193(3) 0.9192(2)
H45G H 0.0975 0.5200 0.9446
H16G H 0.0893 0.4702 0.9999
H44G H 0.0198 0.4451 1.0182
H15G H -0.0393 0.4630 0.9692
H43G H -0.0894 0.4824 0.9162
H14G H -0.1373 0.5064 0.8618
H42G H -0.1123 0.5558 0.8036
H13G H -0.0405 0.5796 0.8058
C5G C 0.0562(3) 0.5925(2) 0.7705(3)
C4G C 0.0622(3) 0.6220(2) 0.7365(3)
H3G H 0.0725 0.6130 0.7076
H4G H 0.0633 0.5633 0.7650
H1G H 0.0220 0.6546 0.8493
H2G H 0.0269 0.7061 0.7918
N10G N 0.0536(2) 0.7415(2) 0.7214(2)
H6G H 0.0765 0.8468 0.6430
H5G H 0.0642 0.9181 0.6649
C26G C -0.0455(3) 1.0157(3) 0.7371(3)
C65G C -0.0881(3) 1.0265(3) 0.7228(3)
C25G C -0.1110(3) 0.9968(4) 0.6998(4)
C64G C -0.0952(3) 0.9570(4) 0.6905(4)
C24G C -0.0531(3) 0.9463(3) 0.7041(3)
N14G N -0.0282(2) 0.9765(2) 0.7271(2)
H17G H -0.0417 0.9186 0.6976
H46G H -0.1124 0.9365 0.6749
H18G H -0.1391 1.0040 0.6897
H47G H -0.1000 1.0540 0.7294
C34 C 0.1688(8) 0.8312(8) 0.7500
C35 C 0.2251(6) 0.8341(6) 0.7418(9)
C36 C 0.3036(6) 0.8335(5) 0.7508(8)
C37 C 0.2715(9) 0.8523(8) 0.6771(7)
C75 C 0.2619(8) 0.8277(5) 0.7694(7)
C76 C 0.3084(6) 0.8459(6) 0.7047(9)
C77 C 0.2299(7) 0.8465(8) 0.6957(9)
H25 H 0.2587 0.8194 0.8002
H26 H 0.3363 0.8498 0.6922
H27 H 0.2052 0.8508 0.6773
H54 H 0.3282 0.8292 0.7692
H55 H 0.2747 0.8606 0.6463
C35G C 0.1659(6) 0.7749(6) 0.7582(9)
C75G C 0.1723(5) 0.7381(8) 0.7306(7)
C36G C 0.1665(5) 0.6964(6) 0.7492(8)
C76G C 0.1541(6) 0.6916(6) 0.7953(9)
C37G C 0.1477(8) 0.7285(9) 0.8229(7)
C77G C 0.1535(8) 0.7701(7) 0.8043(9)
H27G H 0.1492 0.7948 0.8227
H55G H 0.1394 0.7253 0.8537
H26G H 0.1502 0.6637 0.8078
H54G H 0.1708 0.6718 0.7308
H25G H 0.1806 0.7413 0.6998
C38 C 0.3192(6) 0.7019(6) 0.7926(5)
C39 C 0.3372(6) 0.7555(5) 0.8509(6)
C40 C 0.2627(4) 0.7305(6) 0.8425(5)
C74 C 0.3238(10) 0.6762(10) 0.7500
C78 C 0.3500(4) 0.7282(6) 0.8149(7)
C79 C 0.2935(7) 0.7567(5) 0.8647(5)
C80 C 0.2755(5) 0.7031(5) 0.8064(5)
H28 H 0.3578 0.7731 0.8658
H29 H 0.2335 0.7313 0.8517
H56 H 0.3793 0.7274 0.8057
H57 H 0.2849 0.7751 0.8888
H58 H 0.2549 0.6856 0.7915
C38G C 0.2981(6) 0.6808(6) 0.7074(5)
C78G C 0.2718(6) 0.6500(4) 0.6851(7)
C39G C 0.2445(5) 0.6628(6) 0.6491(6)
C79G C 0.2433(5) 0.7065(7) 0.6353(5)
C40G C 0.2695(6) 0.7373(4) 0.6575(5)
C80G C 0.2969(5) 0.7245(5) 0.6936(5)
H58G H 0.3144 0.7451 0.7085
H29G H 0.2687 0.7665 0.6483
H57G H 0.2249 0.7151 0.6112
H28G H 0.2269 0.6422 0.6342
H56G H 0.2726 0.6207 0.6943
N16 N 0.4603(5) 0.5507(5) 0.9162(5)
O1 O 0.4565(5) 0.5093(5) 0.9015(5)
O24 O 0.4908(4) 0.5722(4) 0.9073(4)
O25 O 0.4200(5) 0.5547(5) 0.9375(5)
N17 N 0.5435(5) 0.9431(5) 0.6853(5)
O4 O 0.5080(4) 0.9355(3) 0.7036(4)
O27 O 0.5535(4) 0.9723(4) 0.6581(4)
O28 O 0.5795(7) 0.9243(7) 0.7067(7)
N18 N 0.5104(7) 1.1780(6) 0.7498(6)
O7 O 0.4774(5) 1.1854(5) 0.7315(5)
O30 O 0.5309(6) 1.1418(6) 0.7445(6)
O31 O 0.5392(17) 1.1930(16) 0.7974(16)
O2 O 0.4424(2) 0.8784(2) 1.0095(2)
O3 O 0.4596(2) 0.8344(2) 1.0663(2)
N22 N 0.4450(2) 0.8408(2) 1.0265(2)
O26 O 0.4337(2) 0.8087(2) 1.0025(2)
O5 O 0.4660(5) 0.8895(5) 0.7957(5)
O6 O 0.4803(6) 0.8277(6) 0.8329(6)
N23 N 0.4540(5) 0.8632(5) 0.8276(5)
O29 O 0.4292(4) 0.8680(3) 0.8493(4)
O8 O 0.2405(3) 1.0399(4) 0.8347(4)
O9 O 0.1450(4) 1.0696(4) 0.7181(4)
O10 O 0.2852(3) 1.0645(3) 0.6607(3)
O11 O 0.0492(4) 0.9919(4) 0.8935(4)
O12 O 0.1404(19) 0.7570(20) 1.0099(18)
O13 O 0.6430(8) 1.3916(8) 0.6487(8)
O14 O -0.0934(7) 1.1521(7) 0.8457(7)
O15 O 0.7999(9) 0.9651(9) 0.6351(9)
O16 O 0.4092(8) 0.6904(8) 1.2857(8)
O17 O 0.1912(10) 0.6046(11) 1.0290(10)
O18 O 0.1979(11) 0.9112(11) 1.0743(11)
O19 O 0.2419(10) 0.6534(9) 1.1957(9)
O20 O -0.0489(10) 1.2104(10) 0.7715(10)
O21 O 0.5104(9) 0.7580(10) 0.5968(9)
O22 O 0.3117(14) 0.5321(14) 0.9496(13)
O23 O 0.3265(14) 0.4358(14) 0.8166(13)
O32 O 0.3297(4) 0.6501(4) 1.0704(4)
O33 O 0.1636(4) 1.0775(4) 0.8110(4)
O34 O 0.1221(4) 1.0479(4) 0.8975(4)
O35 O 0.5477(7) 0.8584(7) 0.7542(7)
O36 O 0.4881(7) 0.8259(7) 0.5443(6)
O37 O 0.2392(6) 0.4811(6) 0.8032(6)
O38 O 0.2459(7) 0.8372(7) 1.0935(7)
O39 O 0.2961(7) 0.5893(8) 1.0083(7)
O40 O 0.1961(6) 1.0407(6) 0.6549(6)
O41 O 0.3111(9) 1.5314(9) 0.6934(8)
O42 O 0.2800(20) 0.8370(20) 1.1720(20)
O43 O 0.2367(9) 0.5354(9) 0.7394(9)
O44 O 0.6114(16) 1.1681(15) 0.7992(14)
O45 O 0.5402(13) 0.8264(13) 0.4703(12)
O46 O 0.1525(10) 0.5583(10) 1.1003(10)
loop_
_geom_bond_atom_site_label_1
_geom_bond_atom_site_label_2
_geom_bond_site_symmetry_1
_geom_bond_site_symmetry_2
Pd1 N1 1_555 1_555
Pd2 N3 1_555 1_555
C1 C2 1_555 1_555
C2 C3 1_555 1_555
C3 C4 1_555 1_555
C4 C5 1_555 1_555
C5 N1 1_555 1_555
C6 C7 1_555 1_555
C7 C48 1_555 1_555
C8 C17 1_555 1_555
C9 C10 1_555 1_555
C10 N2 1_555 1_555
C11 C12 1_555 1_555
C12 C53 1_555 1_555
C13 C14 1_555 1_555
C14 C15 1_555 1_555
C15 N9 1_555 1_555
C16 C3 1_555 1_555
C17 N4 1_555 1_555
C18 N5 1_555 1_555
C19 C59 1_555 1_555
C20 C59 1_555 1_555
C21 C60 1_555 1_555
C22 C61 1_555 1_555
C23 C62 1_555 1_555
C24 C64 1_555 1_555
C25 C64 1_555 1_555
C26 C65 1_555 1_555
C27 C66 1_555 1_555
C28 C67 1_555 1_555
C29 C68 1_555 1_555
C30 C69 1_555 1_555
C31 C70 1_555 1_555
C32 C71 1_555 1_555
C33 C72 1_555 1_555
C34 C35 1_555 1_555
C35 C75 1_555 1_555
C36 C75 1_555 1_555
C37 C76 1_555 1_555
C38 C74 1_555 1_555
C39 C78 1_555 1_555
C40 C79 1_555 1_555
N1 C1 1_555 1_555
N2 C6 1_555 1_555
N3 C11 1_555 1_555
N4 C58 1_555 1_555
N5 C57 1_555 1_555
N6 C16 1_555 1_555
Pd3 N2 1_555 1_555
Pd4 N9 1_555 1_555
C41 C42 1_555 1_555
C42 C43 1_555 1_555
C43 C44 1_555 1_555
C44 C45 1_555 1_555
C45 N7 1_555 1_555
C46 C47 1_555 1_555
C47 C8 1_555 1_555
C48 C9 1_555 1_555
C49 C8 1_555 1_555
C50 C49 1_555 1_555
C51 C52 1_555 1_555
C52 C13 1_555 1_555
C53 C18 1_555 1_555
C54 C53 1_555 1_555
C55 N3 1_555 1_555
C56 C43 1_555 1_555
C57 C48 1_555 1_555
C58 C13 1_555 1_555
C59 H42 1_555 1_555
C60 C20 1_555 1_555
C61 C21 1_555 1_555
C62 C22 1_555 1_555
C63 C23 1_555 1_555
C64 H46 1_555 1_555
C65 C25 1_555 1_555
C66 N20 1_555 1_555
C67 C27 1_555 1_555
C68 C28 1_555 1_555
C69 C29 1_555 1_555
C70 C30 1_555 1_555
C71 N21 1_555 1_555
C72 C32 1_555 1_555
C73 C33 1_555 1_555
C74 C38G 1_555 1_555
C75 H25 1_555 1_555
C76 C36 1_555 1_555
C77 C35 1_555 1_555
C78 C38 1_555 1_555
C79 C39 1_555 1_555
C80 C38 1_555 1_555
N7 Pd1 1_555 1_555
N8 Pd2 1_555 1_555
N9 C51 1_555 1_555
N10 C16 1_555 1_555
N11 C56 1_555 1_555
N12 C56 1_555 1_555
N13 Pd1 1_555 1_555
N14 C24 1_555 1_555
N15 Pd2 1_555 1_555
N16 O1 1_555 1_555
N17 O4 1_555 1_555
N18 O7 1_555 1_555
O2 N22 1_555 1_555
O3 N22 1_555 1_555
O5 N23 1_555 1_555
O6 N23 1_555 1_555
N19 Pd1 1_555 1_555
N20 Pd2 1_555 1_555
N21 Pd4 1_555 1_555
N22 O26 1_555 1_555
N23 O29 1_555 1_555
O24 N16 1_555 1_555
O25 N16 1_555 1_555
O27 N17 1_555 1_555
O28 N17 1_555 1_555
O30 N18 1_555 1_555
O31 N18 1_555 1_555
H1 C1 1_555 1_555
H2 C2 1_555 1_555
H3 C4 1_555 1_555
H4 C5 1_555 1_555
H5 C6 1_555 1_555
H6 C7 1_555 1_555
H7 C9 1_555 1_555
H8 C10 1_555 1_555
H9 C11 1_555 1_555
H10 C12 1_555 1_555
H11 C14 1_555 1_555
H12 C15 1_555 1_555
H13 C19 1_555 1_555
H14 C20 1_555 1_555
H15 C22 1_555 1_555
H16 C23 1_555 1_555
H17 C24 1_555 1_555
H18 C25 1_555 1_555
H19 C66 1_555 1_555
H20 C67 1_555 1_555
H21 C69 1_555 1_555
H22 C70 1_555 1_555
H23 C71 1_555 1_555
H24 C72 1_555 1_555
H26 C76 1_555 1_555
H27 C77 1_555 1_555
H28 C39 1_555 1_555
H29 C40 1_555 1_555
H30 C41 1_555 1_555
H31 C42 1_555 1_555
H32 C44 1_555 1_555
H33 C45 1_555 1_555
H34 C46 1_555 1_555
H35 C47 1_555 1_555
H36 C49 1_555 1_555
H37 C50 1_555 1_555
H38 C51 1_555 1_555
H39 C52 1_555 1_555
H40 C54 1_555 1_555
H41 C55 1_555 1_555
H43 C60 1_555 1_555
H44 C62 1_555 1_555
H45 C63 1_555 1_555
H47 C65 1_555 1_555
H48 C27 1_555 1_555
H49 C28 1_555 1_555
H50 C30 1_555 1_555
H51 C31 1_555 1_555
H52 C32 1_555 1_555
H53 C33 1_555 1_555
H54 C36 1_555 1_555
H55 C37 1_555 1_555
H56 C78 1_555 1_555
H57 C79 1_555 1_555
H58 C80 1_555 1_555
N2G Pd3 1_555 1_555
C6G N2G 1_555 1_555
C7G C6G 1_555 1_555
C48G C7G 1_555 1_555
C9G C48G 1_555 1_555
C10G N2G 1_555 1_555
H8G C10G 1_555 1_555
H7G C9G 1_555 1_555
C57G C48G 1_555 1_555
N5G C57G 1_555 1_555
C18G N5G 1_555 1_555
N6G C18G 1_555 1_555
C16G N6G 1_555 1_555
C3G C16G 1_555 1_555
C2G C3G 1_555 1_555
C1G C2G 1_555 1_555
N1G C1G 1_555 1_555
Pd1G N1G 1_555 1_555
N7G Pd1G 1_555 1_555
C41G N7G 1_555 1_555
C42G C41G 1_555 1_555
C43G C42G 1_555 1_555
C44G C43G 1_555 1_555
C45G N7G 1_555 1_555
H33G C45G 1_555 1_555
H32G C44G 1_555 1_555
C56G C43G 1_555 1_555
N11G C17 1_555 1_555
N9G Pd4 1_555 1_555
C15G N9G 1_555 1_555
C14G C15G 1_555 1_555
C13G C14G 1_555 1_555
C52G C13G 1_555 1_555
C51G N9G 1_555 1_555
H38G C51G 1_555 1_555
H39G C52G 1_555 1_555
C58G N12 1_555 1_555
N4G C58G 1_555 1_555
C17G N11 1_555 1_555
C8G C17G 1_555 1_555
C47G C8G 1_555 1_555
C46G C47G 1_555 1_555
N8G C46G 1_555 1_555
Pd2G N8G 1_555 1_555
N3G Pd2G 1_555 1_555
C11G N3G 1_555 1_555
C12G C11G 1_555 1_555
C53G C18G 1_555 1_555
C54G C53G 1_555 1_555
C55G N3G 1_555 1_555
H41G C55G 1_555 1_555
H40G C54G 1_555 1_555
H10G C12G 1_555 1_555
H9G C11G 1_555 1_555
N15G Pd2G 1_555 1_555
C29G N15G 1_555 1_555
C68G C29G 1_555 1_555
C28G C68G 1_555 1_555
C67G C28G 1_555 1_555
C27G C67G 1_555 1_555
C66G C27G 1_555 1_555
N20G Pd2G 1_555 1_555
H19G C66G 1_555 1_555
H48G C27G 1_555 1_555
H20G C67G 1_555 1_555
H49G C28G 1_555 1_555
C69G C29G 1_555 1_555
C30G C69G 1_555 1_555
C70G C30G 1_555 1_555
C31G N15G 1_555 1_555
H51G C31G 1_555 1_555
H22G C70G 1_555 1_555
H50G C30G 1_555 1_555
H21G C69G 1_555 1_555
C50G N8G 1_555 1_555
C49G C8G 1_555 1_555
H36G C49G 1_555 1_555
H37G C50G 1_555 1_555
H34G C46G 1_555 1_555
H35G C47G 1_555 1_555
H11G C14G 1_555 1_555
H12G C15G 1_555 1_555
C73G C73 1_555 1_555
C33G C73G 1_555 1_555
C72G C33G 1_555 1_555
C32G C72G 1_555 1_555
C71G C32G 1_555 1_555
N21G Pd4 1_555 1_555
H23G C71G 1_555 1_555
H52G C32G 1_555 1_555
H24G C72G 1_555 1_555
H53G C33G 1_555 1_555
N12G C58 1_555 1_555
H31G C42G 1_555 1_555
H30G C41G 1_555 1_555
N13G Pd1G 1_555 1_555
C19G N13G 1_555 1_555
C59G C19G 1_555 1_555
C20G C59G 1_555 1_555
C60G C20G 1_555 1_555
C21G N13G 1_555 1_555
C61G C21G 1_555 1_555
C22G C61G 1_555 1_555
C62G C22G 1_555 1_555
C23G C62G 1_555 1_555
C63G C23G 1_555 1_555
N19G Pd1G 1_555 1_555
H45G C63G 1_555 1_555
H16G C23G 1_555 1_555
H44G C62G 1_555 1_555
H15G C22G 1_555 1_555
H43G C60G 1_555 1_555
H14G C20G 1_555 1_555
H42G C59G 1_555 1_555
H13G C19G 1_555 1_555
C5G N1G 1_555 1_555
C4G C3G 1_555 1_555
H3G C4G 1_555 1_555
H4G C5G 1_555 1_555
H1G C1G 1_555 1_555
H2G C2G 1_555 1_555
N10G C57G 1_555 1_555
H6G C7G 1_555 1_555
H5G C6G 1_555 1_555
C26G C26 1_555 1_555
C65G C26G 1_555 1_555
C25G C65G 1_555 1_555
C64G C25G 1_555 1_555
C24G C64G 1_555 1_555
N14G Pd3 1_555 1_555
H17G C24G 1_555 1_555
H46G C64G 1_555 1_555
H18G C25G 1_555 1_555
H47G C65G 1_555 1_555
C35G C34 1_555 1_555
C75G C35G 1_555 1_555
C36G C75G 1_555 1_555
C76G C36G 1_555 1_555
C37G C76G 1_555 1_555
C77G C35G 1_555 1_555
H27G C77G 1_555 1_555
H55G C37G 1_555 1_555
H26G C76G 1_555 1_555
H54G C36G 1_555 1_555
H25G C75G 1_555 1_555
C38G C78G 1_555 1_555
C78G C39G 1_555 1_555
C39G C79G 1_555 1_555
C79G C40G 1_555 1_555
C40G C80G 1_555 1_555
C80G C38G 1_555 1_555
H58G C80G 1_555 1_555
H29G C40G 1_555 1_555
H57G C79G 1_555 1_555
H28G C39G 1_555 1_555
H56G C78G 1_555 1_555
C18 N6 1_555 1_555
C19 N13 1_555 1_555
C21 N13 1_555 1_555
C26 N14 1_555 1_555
C29 N15 1_555 1_555
C31 N15 1_555 1_555
C37 C77 1_555 1_555
C40 C80 1_555 1_555
Pd3 N14 1_555 1_555
C41 N7 1_555 1_555
C46 N8 1_555 1_555
C50 N8 1_555 1_555
C54 C55 1_555 1_555
C57 N10 1_555 1_555
C61 N19 1_555 1_555
C63 N19 1_555 1_555
C68 N20 1_555 1_555
C73 N21 1_555 1_555
C9G C10G 1_555 1_555
C16G N10G 1_555 1_555
C44G C45G 1_555 1_555
C56G N11G 1_555 1_555
C56G N12G 1_555 1_555
C13G C58G 1_555 1_555
C52G C51G 1_555 1_555
N4G C17G 1_555 1_555
C12G C53G 1_555 1_555
C54G C55G 1_555 1_555
C68G N20G 1_555 1_555
C66G N20G 1_555 1_555
C70G C31G 1_555 1_555
C50G C49G 1_555 1_555
C73G N21G 1_555 1_555
C71G N21G 1_555 1_555
C60G C21G 1_555 1_555
C61G N19G 1_555 1_555
C63G N19G 1_555 1_555
C5G C4G 1_555 1_555
C26G N14G 1_555 1_555
C24G N14G 1_555 1_555
C37G C77G 1_555 1_555

#END
