# generated using pymatgen
data_B24H48Pd3C66N21O37
_symmetry_space_group_name_H-M   'P 1'
_cell_length_a   29.14600000
_cell_length_b   29.14600000
_cell_length_c   30.71200000
_cell_angle_alpha   90.00000000
_cell_angle_beta   90.00000000
_cell_angle_gamma   90.00000000
_symmetry_Int_Tables_number   1
_chemical_formula_structural   B24H48Pd3C66N21O37
_chemical_formula_sum   'B192 H384 Pd24 C528 N168 O296'
_cell_volume   26089.51587299
_cell_formula_units_Z   8
loop_
 _symmetry_equiv_pos_site_id
 _symmetry_equiv_pos_as_xyz
  1  'x, y, z'
loop_
 _atom_site_type_symbol
 _atom_site_label
 _atom_site_symmetry_multiplicity
 _atom_site_fract_x
 _atom_site_fract_y
 _atom_site_fract_z
 _atom_site_occupancy
  B  B1  1  0.705000  0.387000  0.102200  1
  B  B2  1  0.113000  0.205000  0.352200  1
  B  B3  1  0.205000  0.113000  0.647800  1
  B  B4  1  0.295000  0.613000  0.602200  1
  B  B5  1  0.387000  0.705000  0.897800  1
  B  B6  1  0.887000  0.795000  0.852200  1
  B  B7  1  0.795000  0.887000  0.147800  1
  B  B8  1  0.613000  0.295000  0.397800  1
  B  B9  1  0.740500  0.409700  0.130800  1
  B  B10  1  0.090300  0.240500  0.380800  1
  B  B11  1  0.240500  0.090300  0.619200  1
  B  B12  1  0.259500  0.590300  0.630800  1
  B  B13  1  0.409700  0.740500  0.869200  1
  B  B14  1  0.909700  0.759500  0.880800  1
  B  B15  1  0.759500  0.909700  0.119200  1
  B  B16  1  0.590300  0.259500  0.369200  1
  B  B17  1  0.702500  0.319100  0.110900  1
  B  B18  1  0.180900  0.202500  0.360900  1
  B  B19  1  0.202500  0.180900  0.639100  1
  B  B20  1  0.297500  0.680900  0.610900  1
  B  B21  1  0.319100  0.702500  0.889100  1
  B  B22  1  0.819100  0.797500  0.860900  1
  B  B23  1  0.797500  0.819100  0.139100  1
  B  B24  1  0.680900  0.297500  0.389100  1
  B  B25  1  0.720500  0.341700  0.194000  1
  B  B26  1  0.158300  0.220500  0.444000  1
  B  B27  1  0.220500  0.158300  0.556000  1
  B  B28  1  0.279500  0.658300  0.694000  1
  B  B29  1  0.341700  0.720500  0.806000  1
  B  B30  1  0.841700  0.779500  0.944000  1
  B  B31  1  0.779500  0.841700  0.056000  1
  B  B32  1  0.658300  0.279500  0.306000  1
  B  B33  1  0.685000  0.321500  0.152600  1
  B  B34  1  0.178500  0.185000  0.402600  1
  B  B35  1  0.185000  0.178500  0.597400  1
  B  B36  1  0.315000  0.678500  0.652600  1
  B  B37  1  0.321500  0.685000  0.847400  1
  B  B38  1  0.821500  0.815000  0.902600  1
  B  B39  1  0.815000  0.821500  0.097400  1
  B  B40  1  0.678500  0.315000  0.347400  1
  B  B41  1  0.744400  0.314300  0.148600  1
  B  B42  1  0.185700  0.244400  0.398600  1
  B  B43  1  0.244400  0.185700  0.601400  1
  B  B44  1  0.255600  0.685700  0.648600  1
  B  B45  1  0.314300  0.744400  0.851400  1
  B  B46  1  0.814300  0.755600  0.898600  1
  B  B47  1  0.755600  0.814300  0.101400  1
  B  B48  1  0.685700  0.255600  0.351400  1
  B  B49  1  0.756800  0.356300  0.109500  1
  B  B50  1  0.143700  0.256800  0.359500  1
  B  B51  1  0.256800  0.143700  0.640500  1
  B  B52  1  0.243200  0.643700  0.609500  1
  B  B53  1  0.356300  0.756800  0.890500  1
  B  B54  1  0.856300  0.743200  0.859500  1
  B  B55  1  0.743200  0.856300  0.140500  1
  B  B56  1  0.643700  0.243200  0.390500  1
  B  B57  1  0.761500  0.374700  0.168400  1
  B  B58  1  0.125300  0.261500  0.418400  1
  B  B59  1  0.261500  0.125300  0.581600  1
  B  B60  1  0.238500  0.625300  0.668400  1
  B  B61  1  0.374700  0.761500  0.831600  1
  B  B62  1  0.874700  0.738500  0.918400  1
  B  B63  1  0.738500  0.874700  0.081600  1
  B  B64  1  0.625300  0.238500  0.331600  1
  B  B65  1  0.718100  0.400700  0.183100  1
  B  B66  1  0.099300  0.218100  0.433100  1
  B  B67  1  0.218100  0.099300  0.566900  1
  B  B68  1  0.281900  0.599300  0.683100  1
  B  B69  1  0.400700  0.718100  0.816900  1
  B  B70  1  0.900700  0.781900  0.933100  1
  B  B71  1  0.781900  0.900700  0.066900  1
  B  B72  1  0.599300  0.281900  0.316900  1
  B  B73  1  0.658100  0.359200  0.125900  1
  B  B74  1  0.140800  0.158100  0.375900  1
  B  B75  1  0.158100  0.140800  0.624100  1
  B  B76  1  0.341900  0.640800  0.625900  1
  B  B77  1  0.359200  0.658100  0.874100  1
  B  B78  1  0.859200  0.841900  0.875900  1
  B  B79  1  0.841900  0.859200  0.124100  1
  B  B80  1  0.640800  0.341900  0.374100  1
  B  B81  1  0.675700  0.403700  0.158700  1
  B  B82  1  0.096300  0.175700  0.408700  1
  B  B83  1  0.175700  0.096300  0.591300  1
  B  B84  1  0.324300  0.596300  0.658700  1
  B  B85  1  0.403700  0.675700  0.841300  1
  B  B86  1  0.903700  0.824300  0.908700  1
  B  B87  1  0.824300  0.903700  0.091300  1
  B  B88  1  0.596300  0.324300  0.341300  1
  B  B89  1  0.668800  0.359000  0.178600  1
  B  B90  1  0.141000  0.168800  0.428600  1
  B  B91  1  0.168800  0.141000  0.571400  1
  B  B92  1  0.331200  0.641000  0.678600  1
  B  B93  1  0.359000  0.668800  0.821400  1
  B  B94  1  0.859000  0.831200  0.928600  1
  B  B95  1  0.831200  0.859000  0.071400  1
  B  B96  1  0.641000  0.331200  0.321400  1
  B  B97  1  0.397600  0.235800  0.489300  1
  B  B98  1  0.264200  0.897600  0.739300  1
  B  B99  1  0.897600  0.264200  0.260700  1
  B  B100  1  0.602400  0.764200  0.989300  1
  B  B101  1  0.235800  0.397600  0.510700  1
  B  B102  1  0.735800  0.102400  0.239300  1
  B  B103  1  0.102400  0.735800  0.760700  1
  B  B104  1  0.764200  0.602400  0.010700  1
  B  B105  1  0.348300  0.259200  0.494300  1
  B  B106  1  0.240800  0.848300  0.744300  1
  B  B107  1  0.848300  0.240800  0.255700  1
  B  B108  1  0.651700  0.740800  0.994300  1
  B  B109  1  0.259200  0.348300  0.505700  1
  B  B110  1  0.759200  0.151700  0.244300  1
  B  B111  1  0.151700  0.759200  0.755700  1
  B  B112  1  0.740800  0.651700  0.005700  1
  B  B113  1  0.338000  0.183400  0.451700  1
  B  B114  1  0.316600  0.838000  0.701700  1
  B  B115  1  0.838000  0.316600  0.298300  1
  B  B116  1  0.662000  0.816600  0.951700  1
  B  B117  1  0.183400  0.338000  0.548300  1
  B  B118  1  0.683400  0.162000  0.201700  1
  B  B119  1  0.162000  0.683400  0.798300  1
  B  B120  1  0.816600  0.662000  0.048300  1
  B  B121  1  0.312000  0.228000  0.426000  1
  B  B122  1  0.272000  0.812000  0.676000  1
  B  B123  1  0.812000  0.272000  0.324000  1
  B  B124  1  0.688000  0.772000  0.926000  1
  B  B125  1  0.228000  0.312000  0.574000  1
  B  B126  1  0.728000  0.188000  0.176000  1
  B  B127  1  0.188000  0.728000  0.824000  1
  B  B128  1  0.772000  0.688000  0.074000  1
  B  B129  1  0.342000  0.192000  0.497000  1
  B  B130  1  0.308000  0.842000  0.747000  1
  B  B131  1  0.842000  0.308000  0.253000  1
  B  B132  1  0.658000  0.808000  0.997000  1
  B  B133  1  0.192000  0.342000  0.503000  1
  B  B134  1  0.692000  0.158000  0.247000  1
  B  B135  1  0.158000  0.692000  0.753000  1
  B  B136  1  0.808000  0.658000  0.003000  1
  B  B137  1  0.366600  0.261700  0.410000  1
  B  B138  1  0.238300  0.866600  0.660000  1
  B  B139  1  0.866600  0.238300  0.340000  1
  B  B140  1  0.633400  0.738300  0.910000  1
  B  B141  1  0.261700  0.366600  0.590000  1
  B  B142  1  0.761700  0.133400  0.160000  1
  B  B143  1  0.133400  0.761700  0.840000  1
  B  B144  1  0.738300  0.633400  0.090000  1
  B  B145  1  0.387000  0.285000  0.456000  1
  B  B146  1  0.215000  0.887000  0.706000  1
  B  B147  1  0.887000  0.215000  0.294000  1
  B  B148  1  0.613000  0.715000  0.956000  1
  B  B149  1  0.285000  0.387000  0.544000  1
  B  B150  1  0.785000  0.113000  0.206000  1
  B  B151  1  0.113000  0.785000  0.794000  1
  B  B152  1  0.715000  0.613000  0.044000  1
  B  B153  1  0.327100  0.269300  0.444600  1
  B  B154  1  0.230700  0.827100  0.694600  1
  B  B155  1  0.827100  0.230700  0.305400  1
  B  B156  1  0.672900  0.730700  0.944600  1
  B  B157  1  0.269300  0.327100  0.555400  1
  B  B158  1  0.769300  0.172900  0.194600  1
  B  B159  1  0.172900  0.769300  0.805400  1
  B  B160  1  0.730700  0.672900  0.055400  1
  B  B161  1  0.311500  0.226800  0.471100  1
  B  B162  1  0.273200  0.811500  0.721100  1
  B  B163  1  0.811500  0.273200  0.278900  1
  B  B164  1  0.688500  0.773200  0.971100  1
  B  B165  1  0.226800  0.311500  0.528900  1
  B  B166  1  0.726800  0.188500  0.221100  1
  B  B167  1  0.188500  0.726800  0.778900  1
  B  B168  1  0.773200  0.688500  0.028900  1
  B  B169  1  0.391200  0.188900  0.463000  1
  B  B170  1  0.311100  0.891200  0.713000  1
  B  B171  1  0.891200  0.311100  0.287000  1
  B  B172  1  0.608800  0.811100  0.963000  1
  B  B173  1  0.188900  0.391200  0.537000  1
  B  B174  1  0.688900  0.108800  0.213000  1
  B  B175  1  0.108800  0.688900  0.787000  1
  B  B176  1  0.811100  0.608800  0.037000  1
  B  B177  1  0.380000  0.208000  0.410900  1
  B  B178  1  0.292000  0.880000  0.660900  1
  B  B179  1  0.880000  0.292000  0.339100  1
  B  B180  1  0.620000  0.792000  0.910900  1
  B  B181  1  0.208000  0.380000  0.589100  1
  B  B182  1  0.708000  0.120000  0.160900  1
  B  B183  1  0.120000  0.708000  0.839100  1
  B  B184  1  0.792000  0.620000  0.089100  1
  B  B185  1  0.407900  0.243500  0.435100  1
  B  B186  1  0.256500  0.907900  0.685100  1
  B  B187  1  0.907900  0.256500  0.314900  1
  B  B188  1  0.592100  0.756500  0.935100  1
  B  B189  1  0.243500  0.407900  0.564900  1
  B  B190  1  0.743500  0.092100  0.185100  1
  B  B191  1  0.092100  0.743500  0.814900  1
  B  B192  1  0.756500  0.592100  0.064900  1
  H  H193  1  0.354000  0.243600  0.260600  1.0
  H  H194  1  0.256400  0.854000  0.510600  1.0
  H  H195  1  0.854000  0.256400  0.489400  1.0
  H  H196  1  0.646000  0.756400  0.760600  1.0
  H  H197  1  0.243600  0.354000  0.739400  1.0
  H  H198  1  0.743600  0.146000  0.010600  1.0
  H  H199  1  0.146000  0.743600  0.989400  1.0
  H  H200  1  0.756400  0.646000  0.239400  1.0
  H  H201  1  0.343200  0.304100  0.311000  1.0
  H  H202  1  0.195900  0.843200  0.561000  1.0
  H  H203  1  0.843200  0.195900  0.439000  1.0
  H  H204  1  0.656800  0.695900  0.811000  1.0
  H  H205  1  0.304100  0.343200  0.689000  1.0
  H  H206  1  0.804100  0.156800  0.061000  1.0
  H  H207  1  0.156800  0.804100  0.939000  1.0
  H  H208  1  0.695900  0.656800  0.189000  1.0
  H  H209  1  0.210300  0.296600  0.289000  1.0
  H  H210  1  0.203400  0.710300  0.539000  1.0
  H  H211  1  0.710300  0.203400  0.461000  1.0
  H  H212  1  0.789700  0.703400  0.789000  1.0
  H  H213  1  0.296600  0.210300  0.711000  1.0
  H  H214  1  0.796600  0.289700  0.039000  1.0
  H  H215  1  0.289700  0.796600  0.961000  1.0
  H  H216  1  0.703400  0.789700  0.211000  1.0
  H  H217  1  0.222200  0.235000  0.245500  1.0
  H  H218  1  0.265000  0.722200  0.495500  1.0
  H  H219  1  0.722200  0.265000  0.504500  1.0
  H  H220  1  0.777800  0.765000  0.745500  1.0
  H  H221  1  0.235000  0.222200  0.754500  1.0
  H  H222  1  0.735000  0.277800  0.995500  1.0
  H  H223  1  0.277800  0.735000  0.004500  1.0
  H  H224  1  0.765000  0.777800  0.254500  1.0
  H  H225  1  0.346700  0.145100  0.285700  1.0
  H  H226  1  0.354900  0.846700  0.535700  1.0
  H  H227  1  0.846700  0.354900  0.464300  1.0
  H  H228  1  0.653300  0.854900  0.785700  1.0
  H  H229  1  0.145100  0.346700  0.714300  1.0
  H  H230  1  0.645100  0.153300  0.035700  1.0
  H  H231  1  0.153300  0.645100  0.964300  1.0
  H  H232  1  0.854900  0.653300  0.214300  1.0
  H  H233  1  0.335100  0.109800  0.350300  1.0
  H  H234  1  0.390200  0.835100  0.600300  1.0
  H  H235  1  0.835100  0.390200  0.399700  1.0
  H  H236  1  0.664900  0.890200  0.850300  1.0
  H  H237  1  0.109800  0.335100  0.649700  1.0
  H  H238  1  0.609800  0.164900  0.100300  1.0
  H  H239  1  0.164900  0.609800  0.899700  1.0
  H  H240  1  0.890200  0.664900  0.149700  1.0
  H  H241  1  0.205500  0.085200  0.311900  1.0
  H  H242  1  0.414800  0.705500  0.561900  1.0
  H  H243  1  0.705500  0.414800  0.438100  1.0
  H  H244  1  0.794500  0.914800  0.811900  1.0
  H  H245  1  0.085200  0.205500  0.688100  1.0
  H  H246  1  0.585200  0.294500  0.061900  1.0
  H  H247  1  0.294500  0.585200  0.938100  1.0
  H  H248  1  0.914800  0.794500  0.188100  1.0
  H  H249  1  0.218400  0.127500  0.253000  1.0
  H  H250  1  0.372500  0.718400  0.503000  1.0
  H  H251  1  0.718400  0.372500  0.497000  1.0
  H  H252  1  0.781600  0.872500  0.753000  1.0
  H  H253  1  0.127500  0.218400  0.747000  1.0
  H  H254  1  0.627500  0.281600  0.003000  1.0
  H  H255  1  0.281600  0.627500  0.997000  1.0
  H  H256  1  0.872500  0.781600  0.247000  1.0
  H  H257  1  0.466300  0.111900  0.552000  1.0
  H  H258  1  0.388100  0.966300  0.802000  1.0
  H  H259  1  0.966300  0.388100  0.198000  1.0
  H  H260  1  0.533700  0.888100  0.052000  1.0
  H  H261  1  0.111900  0.466300  0.448000  1.0
  H  H262  1  0.611900  0.033700  0.302000  1.0
  H  H263  1  0.033700  0.611900  0.698000  1.0
  H  H264  1  0.888100  0.533700  0.948000  1.0
  H  H265  1  0.377500  0.054100  0.435500  1.0
  H  H266  1  0.445900  0.877500  0.685500  1.0
  H  H267  1  0.877500  0.445900  0.314500  1.0
  H  H268  1  0.622500  0.945900  0.935500  1.0
  H  H269  1  0.054100  0.377500  0.564500  1.0
  H  H270  1  0.554100  0.122500  0.185500  1.0
  H  H271  1  0.122500  0.554100  0.814500  1.0
  H  H272  1  0.945900  0.622500  0.064500  1.0
  H  H273  1  0.363300  0.141900  0.658500  1.0
  H  H274  1  0.358100  0.863300  0.908500  1.0
  H  H275  1  0.863300  0.358100  0.091500  1.0
  H  H276  1  0.636700  0.858100  0.158500  1.0
  H  H277  1  0.141900  0.363300  0.341500  1.0
  H  H278  1  0.641900  0.136700  0.408500  1.0
  H  H279  1  0.136700  0.641900  0.591500  1.0
  H  H280  1  0.858100  0.636700  0.841500  1.0
  H  H281  1  0.388600  0.068500  0.639900  1.0
  H  H282  1  0.431500  0.888600  0.889900  1.0
  H  H283  1  0.888600  0.431500  0.110100  1.0
  H  H284  1  0.611400  0.931500  0.139900  1.0
  H  H285  1  0.068500  0.388600  0.360100  1.0
  H  H286  1  0.568500  0.111400  0.389900  1.0
  H  H287  1  0.111400  0.568500  0.610100  1.0
  H  H288  1  0.931500  0.611400  0.860100  1.0
  H  H289  1  0.060200  0.930500  0.458000  1.0
  H  H290  1  0.569500  0.560200  0.708000  1.0
  H  H291  1  0.560200  0.569500  0.292000  1.0
  H  H292  1  0.939800  0.069500  0.958000  1.0
  H  H293  1  0.930500  0.060200  0.542000  1.0
  H  H294  1  0.430500  0.439800  0.208000  1.0
  H  H295  1  0.439800  0.430500  0.792000  1.0
  H  H296  1  0.069500  0.939800  0.042000  1.0
  H  H297  1  0.975100  0.829100  0.455400  1.0
  H  H298  1  0.670900  0.475100  0.705400  1.0
  H  H299  1  0.475100  0.670900  0.294600  1.0
  H  H300  1  0.024900  0.170900  0.955400  1.0
  H  H301  1  0.829100  0.975100  0.544600  1.0
  H  H302  1  0.329100  0.524900  0.205400  1.0
  H  H303  1  0.524900  0.329100  0.794600  1.0
  H  H304  1  0.170900  0.024900  0.044600  1.0
  H  H305  1  0.301200  0.073400  0.209600  1.0
  H  H306  1  0.426600  0.801200  0.459600  1.0
  H  H307  1  0.801200  0.426600  0.540400  1.0
  H  H308  1  0.698800  0.926600  0.709600  1.0
  H  H309  1  0.073400  0.301200  0.790400  1.0
  H  H310  1  0.573400  0.198800  0.959600  1.0
  H  H311  1  0.198800  0.573400  0.040400  1.0
  H  H312  1  0.926600  0.698800  0.290400  1.0
  H  H313  1  0.353400  0.030900  0.101000  1.0
  H  H314  1  0.469100  0.853400  0.351000  1.0
  H  H315  1  0.853400  0.469100  0.649000  1.0
  H  H316  1  0.646600  0.969100  0.601000  1.0
  H  H317  1  0.030900  0.353400  0.899000  1.0
  H  H318  1  0.530900  0.146600  0.851000  1.0
  H  H319  1  0.146600  0.530900  0.149000  1.0
  H  H320  1  0.969100  0.646600  0.399000  1.0
  H  H321  1  0.345400  0.175000  0.061000  1.0
  H  H322  1  0.325000  0.845400  0.311000  1.0
  H  H323  1  0.845400  0.325000  0.689000  1.0
  H  H324  1  0.654600  0.825000  0.561000  1.0
  H  H325  1  0.175000  0.345400  0.939000  1.0
  H  H326  1  0.675000  0.154600  0.811000  1.0
  H  H327  1  0.154600  0.675000  0.189000  1.0
  H  H328  1  0.825000  0.654600  0.439000  1.0
  H  H329  1  0.336800  0.309300  0.105400  1.0
  H  H330  1  0.190700  0.836800  0.355400  1.0
  H  H331  1  0.836800  0.190700  0.644600  1.0
  H  H332  1  0.663200  0.690700  0.605400  1.0
  H  H333  1  0.309300  0.336800  0.894600  1.0
  H  H334  1  0.809300  0.163200  0.855400  1.0
  H  H335  1  0.163200  0.809300  0.144600  1.0
  H  H336  1  0.690700  0.663200  0.394600  1.0
  H  H337  1  0.511000  0.441400  0.585900  1.0
  H  H338  1  0.058600  0.011000  0.835900  1.0
  H  H339  1  0.011000  0.058600  0.164100  1.0
  H  H340  1  0.489000  0.558600  0.085900  1.0
  H  H341  1  0.441400  0.511000  0.414100  1.0
  H  H342  1  0.941400  0.989000  0.335900  1.0
  H  H343  1  0.989000  0.941400  0.664100  1.0
  H  H344  1  0.558600  0.489000  0.914100  1.0
  H  H345  1  0.609800  0.536600  0.595700  1.0
  H  H346  1  0.963400  0.109800  0.845700  1.0
  H  H347  1  0.109800  0.963400  0.154300  1.0
  H  H348  1  0.390200  0.463400  0.095700  1.0
  H  H349  1  0.536600  0.609800  0.404300  1.0
  H  H350  1  0.036600  0.890200  0.345700  1.0
  H  H351  1  0.890200  0.036600  0.654300  1.0
  H  H352  1  0.463400  0.390200  0.904300  1.0
  H  H353  1  0.502400  0.084200  0.643200  1.0
  H  H354  1  0.415800  0.002400  0.893200  1.0
  H  H355  1  0.002400  0.415800  0.106800  1.0
  H  H356  1  0.497600  0.915800  0.143200  1.0
  H  H357  1  0.084200  0.502400  0.356800  1.0
  H  H358  1  0.584200  0.997600  0.393200  1.0
  H  H359  1  0.997600  0.584200  0.606800  1.0
  H  H360  1  0.915800  0.497600  0.856800  1.0
  H  H361  1  0.586300  0.005600  0.708300  1.0
  H  H362  1  0.494400  0.086300  0.958300  1.0
  H  H363  1  0.086300  0.494400  0.041700  1.0
  H  H364  1  0.413700  0.994400  0.208300  1.0
  H  H365  1  0.005600  0.586300  0.291700  1.0
  H  H366  1  0.505600  0.913700  0.458300  1.0
  H  H367  1  0.913700  0.505600  0.541700  1.0
  H  H368  1  0.994400  0.413700  0.791700  1.0
  H  H369  1  0.537600  0.891000  0.626500  1.0
  H  H370  1  0.609000  0.037600  0.876500  1.0
  H  H371  1  0.037600  0.609000  0.123500  1.0
  H  H372  1  0.462400  0.109000  0.126500  1.0
  H  H373  1  0.891000  0.537600  0.373500  1.0
  H  H374  1  0.391000  0.962400  0.376500  1.0
  H  H375  1  0.962400  0.391000  0.623500  1.0
  H  H376  1  0.109000  0.462400  0.873500  1.0
  H  H377  1  0.455400  0.858500  0.519800  1.0
  H  H378  1  0.641500  0.955400  0.769800  1.0
  H  H379  1  0.955400  0.641500  0.230200  1.0
  H  H380  1  0.544600  0.141500  0.019800  1.0
  H  H381  1  0.858500  0.455400  0.480200  1.0
  H  H382  1  0.358500  0.044600  0.269800  1.0
  H  H383  1  0.044600  0.358500  0.730200  1.0
  H  H384  1  0.141500  0.544600  0.980200  1.0
  H  H385  1  0.052200  0.034200  0.419500  1.0
  H  H386  1  0.465800  0.552200  0.669500  1.0
  H  H387  1  0.552200  0.465800  0.330500  1.0
  H  H388  1  0.947800  0.965800  0.919500  1.0
  H  H389  1  0.034200  0.052200  0.580500  1.0
  H  H390  1  0.534200  0.447800  0.169500  1.0
  H  H391  1  0.447800  0.534200  0.830500  1.0
  H  H392  1  0.965800  0.947800  0.080500  1.0
  H  H393  1  0.125900  0.048500  0.392600  1.0
  H  H394  1  0.451500  0.625900  0.642600  1.0
  H  H395  1  0.625900  0.451500  0.357400  1.0
  H  H396  1  0.874100  0.951500  0.892600  1.0
  H  H397  1  0.048500  0.125900  0.607400  1.0
  H  H398  1  0.548500  0.374100  0.142600  1.0
  H  H399  1  0.374100  0.548500  0.857400  1.0
  H  H400  1  0.951500  0.874100  0.107400  1.0
  H  H401  1  0.179700  0.009700  0.507800  1.0
  H  H402  1  0.490300  0.679700  0.757800  1.0
  H  H403  1  0.679700  0.490300  0.242200  1.0
  H  H404  1  0.820300  0.990300  0.007800  1.0
  H  H405  1  0.009700  0.179700  0.492200  1.0
  H  H406  1  0.509700  0.320300  0.257800  1.0
  H  H407  1  0.320300  0.509700  0.742200  1.0
  H  H408  1  0.990300  0.820300  0.992200  1.0
  H  H409  1  0.105800  0.004600  0.532300  1.0
  H  H410  1  0.495400  0.605800  0.782300  1.0
  H  H411  1  0.605800  0.495400  0.217700  1.0
  H  H412  1  0.894200  0.995400  0.032300  1.0
  H  H413  1  0.004600  0.105800  0.467700  1.0
  H  H414  1  0.504600  0.394200  0.282300  1.0
  H  H415  1  0.394200  0.504600  0.717700  1.0
  H  H416  1  0.995400  0.894200  0.967700  1.0
  H  H417  1  0.362100  0.483000  0.489400  1.0
  H  H418  1  0.017000  0.862100  0.739400  1.0
  H  H419  1  0.862100  0.017000  0.260600  1.0
  H  H420  1  0.637900  0.517000  0.989400  1.0
  H  H421  1  0.483000  0.362100  0.510600  1.0
  H  H422  1  0.983000  0.137900  0.239400  1.0
  H  H423  1  0.137900  0.983000  0.760600  1.0
  H  H424  1  0.517000  0.637900  0.010600  1.0
  H  H425  1  0.303800  0.461000  0.446100  1.0
  H  H426  1  0.039000  0.803800  0.696100  1.0
  H  H427  1  0.803800  0.039000  0.303900  1.0
  H  H428  1  0.696200  0.539000  0.946100  1.0
  H  H429  1  0.461000  0.303800  0.553900  1.0
  H  H430  1  0.961000  0.196200  0.196100  1.0
  H  H431  1  0.196200  0.961000  0.803900  1.0
  H  H432  1  0.539000  0.696200  0.053900  1.0
  H  H433  1  0.386600  0.372900  0.382100  1.0
  H  H434  1  0.127100  0.886600  0.632100  1.0
  H  H435  1  0.886600  0.127100  0.367900  1.0
  H  H436  1  0.613400  0.627100  0.882100  1.0
  H  H437  1  0.372900  0.386600  0.617900  1.0
  H  H438  1  0.872900  0.113400  0.132100  1.0
  H  H439  1  0.113400  0.872900  0.867900  1.0
  H  H440  1  0.627100  0.613400  0.117900  1.0
  H  H441  1  0.444500  0.396400  0.432000  1.0
  H  H442  1  0.103600  0.944500  0.682000  1.0
  H  H443  1  0.944500  0.103600  0.318000  1.0
  H  H444  1  0.555500  0.603600  0.932000  1.0
  H  H445  1  0.396400  0.444500  0.568000  1.0
  H  H446  1  0.896400  0.055500  0.182000  1.0
  H  H447  1  0.055500  0.896400  0.818000  1.0
  H  H448  1  0.603600  0.555500  0.068000  1.0
  H  H449  1  0.439100  0.043200  0.485900  1.0
  H  H450  1  0.456800  0.939100  0.735900  1.0
  H  H451  1  0.939100  0.456800  0.264100  1.0
  H  H452  1  0.560900  0.956800  0.985900  1.0
  H  H453  1  0.043200  0.439100  0.514100  1.0
  H  H454  1  0.543200  0.060900  0.235900  1.0
  H  H455  1  0.060900  0.543200  0.764100  1.0
  H  H456  1  0.956800  0.560900  0.014100  1.0
  H  H457  1  0.453200  0.189000  0.569700  1.0
  H  H458  1  0.311000  0.953200  0.819700  1.0
  H  H459  1  0.953200  0.311000  0.180300  1.0
  H  H460  1  0.546800  0.811000  0.069700  1.0
  H  H461  1  0.189000  0.453200  0.430300  1.0
  H  H462  1  0.689000  0.046800  0.319700  1.0
  H  H463  1  0.046800  0.689000  0.680300  1.0
  H  H464  1  0.811000  0.546800  0.930300  1.0
  H  H465  1  0.291900  0.010800  0.520800  1.0
  H  H466  1  0.489200  0.791900  0.770800  1.0
  H  H467  1  0.791900  0.489200  0.229200  1.0
  H  H468  1  0.708100  0.989200  0.020800  1.0
  H  H469  1  0.010800  0.291900  0.479200  1.0
  H  H470  1  0.510800  0.208100  0.270800  1.0
  H  H471  1  0.208100  0.510800  0.729200  1.0
  H  H472  1  0.989200  0.708100  0.979200  1.0
  H  H473  1  0.347600  0.001800  0.573600  1.0
  H  H474  1  0.498200  0.847600  0.823600  1.0
  H  H475  1  0.847600  0.498200  0.176400  1.0
  H  H476  1  0.652400  0.998200  0.073600  1.0
  H  H477  1  0.001800  0.347600  0.426400  1.0
  H  H478  1  0.501800  0.152400  0.323600  1.0
  H  H479  1  0.152400  0.501800  0.676400  1.0
  H  H480  1  0.998200  0.652400  0.926400  1.0
  H  H481  1  0.042200  0.857400  0.428700  1.0
  H  H482  1  0.642600  0.542200  0.678700  1.0
  H  H483  1  0.542200  0.642600  0.321300  1.0
  H  H484  1  0.957800  0.142600  0.928700  1.0
  H  H485  1  0.857400  0.042200  0.571300  1.0
  H  H486  1  0.357400  0.457800  0.178700  1.0
  H  H487  1  0.457800  0.357400  0.821300  1.0
  H  H488  1  0.142600  0.957800  0.071300  1.0
  H  H489  1  0.921500  0.872900  0.477100  1.0
  H  H490  1  0.627100  0.421500  0.727100  1.0
  H  H491  1  0.421500  0.627100  0.272900  1.0
  H  H492  1  0.078500  0.127100  0.977100  1.0
  H  H493  1  0.872900  0.921500  0.522900  1.0
  H  H494  1  0.372900  0.578500  0.227100  1.0
  H  H495  1  0.578500  0.372900  0.772900  1.0
  H  H496  1  0.127100  0.078500  0.022900  1.0
  H  H497  1  0.310200  0.015000  0.163000  1.0
  H  H498  1  0.485000  0.810200  0.413000  1.0
  H  H499  1  0.810200  0.485000  0.587000  1.0
  H  H500  1  0.689800  0.985000  0.663000  1.0
  H  H501  1  0.015000  0.310200  0.837000  1.0
  H  H502  1  0.515000  0.189800  0.913000  1.0
  H  H503  1  0.189800  0.515000  0.087000  1.0
  H  H504  1  0.985000  0.689800  0.337000  1.0
  H  H505  1  0.359900  0.107800  0.077600  1.0
  H  H506  1  0.392200  0.859900  0.327600  1.0
  H  H507  1  0.859900  0.392200  0.672400  1.0
  H  H508  1  0.640100  0.892200  0.577600  1.0
  H  H509  1  0.107800  0.359900  0.922400  1.0
  H  H510  1  0.607800  0.140100  0.827600  1.0
  H  H511  1  0.140100  0.607800  0.172400  1.0
  H  H512  1  0.892200  0.640100  0.422400  1.0
  H  H513  1  0.362700  0.243300  0.051200  1.0
  H  H514  1  0.256700  0.862700  0.301200  1.0
  H  H515  1  0.862700  0.256700  0.698800  1.0
  H  H516  1  0.637300  0.756700  0.551200  1.0
  H  H517  1  0.243300  0.362700  0.948800  1.0
  H  H518  1  0.743300  0.137300  0.801200  1.0
  H  H519  1  0.137300  0.743300  0.198800  1.0
  H  H520  1  0.756700  0.637300  0.448800  1.0
  H  H521  1  0.310500  0.277600  0.170500  1.0
  H  H522  1  0.222400  0.810500  0.420500  1.0
  H  H523  1  0.810500  0.222400  0.579500  1.0
  H  H524  1  0.689500  0.722400  0.670500  1.0
  H  H525  1  0.277600  0.310500  0.829500  1.0
  H  H526  1  0.777600  0.189500  0.920500  1.0
  H  H527  1  0.189500  0.777600  0.079500  1.0
  H  H528  1  0.722400  0.689500  0.329500  1.0
  H  H529  1  0.573900  0.466900  0.621500  1.0
  H  H530  1  0.033100  0.073900  0.871500  1.0
  H  H531  1  0.073900  0.033100  0.128500  1.0
  H  H532  1  0.426100  0.533100  0.121500  1.0
  H  H533  1  0.466900  0.573900  0.378500  1.0
  H  H534  1  0.966900  0.926100  0.371500  1.0
  H  H535  1  0.926100  0.966900  0.628500  1.0
  H  H536  1  0.533100  0.426100  0.878500  1.0
  H  H537  1  0.588600  0.560300  0.526700  1.0
  H  H538  1  0.939700  0.088600  0.776700  1.0
  H  H539  1  0.088600  0.939700  0.223300  1.0
  H  H540  1  0.411400  0.439700  0.026700  1.0
  H  H541  1  0.560300  0.588600  0.473300  1.0
  H  H542  1  0.060300  0.911400  0.276700  1.0
  H  H543  1  0.911400  0.060300  0.723300  1.0
  H  H544  1  0.439700  0.411400  0.973300  1.0
  H  H545  1  0.556000  0.075300  0.690600  1.0
  H  H546  1  0.424700  0.056000  0.940600  1.0
  H  H547  1  0.056000  0.424700  0.059400  1.0
  H  H548  1  0.444000  0.924700  0.190600  1.0
  H  H549  1  0.075300  0.556000  0.309400  1.0
  H  H550  1  0.575300  0.944000  0.440600  1.0
  H  H551  1  0.944000  0.575300  0.559400  1.0
  H  H552  1  0.924700  0.444000  0.809400  1.0
  H  H553  1  0.567700  0.943000  0.668900  1.0
  H  H554  1  0.557000  0.067700  0.918900  1.0
  H  H555  1  0.067700  0.557000  0.081100  1.0
  H  H556  1  0.432300  0.057000  0.168900  1.0
  H  H557  1  0.943000  0.567700  0.331100  1.0
  H  H558  1  0.443000  0.932300  0.418900  1.0
  H  H559  1  0.932300  0.443000  0.581100  1.0
  H  H560  1  0.057000  0.432300  0.831100  1.0
  H  H561  1  0.510000  0.838600  0.569700  1.0
  H  H562  1  0.661400  0.010000  0.819700  1.0
  H  H563  1  0.010000  0.661400  0.180300  1.0
  H  H564  1  0.490000  0.161400  0.069700  1.0
  H  H565  1  0.838600  0.510000  0.430300  1.0
  H  H566  1  0.338600  0.990000  0.319700  1.0
  H  H567  1  0.990000  0.338600  0.680300  1.0
  H  H568  1  0.161400  0.490000  0.930300  1.0
  H  H569  1  0.431900  0.936800  0.521000  1.0
  H  H570  1  0.563200  0.931900  0.771000  1.0
  H  H571  1  0.931900  0.563200  0.229000  1.0
  H  H572  1  0.568100  0.063200  0.021000  1.0
  H  H573  1  0.936800  0.431900  0.479000  1.0
  H  H574  1  0.436800  0.068100  0.271000  1.0
  H  H575  1  0.068100  0.436800  0.729000  1.0
  H  H576  1  0.063200  0.568100  0.979000  1.0
  Pd  Pd577  1  0.010600  0.010600  0.500000  1
  Pd  Pd578  1  0.489400  0.510600  0.750000  1
  Pd  Pd579  1  0.510600  0.489400  0.250000  1
  Pd  Pd580  1  0.989400  0.989400  0.000000  1
  Pd  Pd581  1  0.461600  0.461600  0.500000  1
  Pd  Pd582  1  0.038400  0.961600  0.750000  1
  Pd  Pd583  1  0.961600  0.038400  0.250000  1
  Pd  Pd584  1  0.538400  0.538400  0.000000  1
  Pd  Pd585  1  0.299000  0.177600  0.209500  1.0
  Pd  Pd586  1  0.322400  0.799000  0.459500  1.0
  Pd  Pd587  1  0.799000  0.322400  0.540500  1.0
  Pd  Pd588  1  0.701000  0.822400  0.709500  1.0
  Pd  Pd589  1  0.177600  0.299000  0.790500  1.0
  Pd  Pd590  1  0.677600  0.201000  0.959500  1.0
  Pd  Pd591  1  0.201000  0.677600  0.040500  1.0
  Pd  Pd592  1  0.822400  0.701000  0.290500  1.0
  Pd  Pd593  1  0.449200  0.021100  0.579000  1.0
  Pd  Pd594  1  0.478900  0.949200  0.829000  1.0
  Pd  Pd595  1  0.949200  0.478900  0.171000  1.0
  Pd  Pd596  1  0.550800  0.978900  0.079000  1.0
  Pd  Pd597  1  0.021100  0.449200  0.421000  1.0
  Pd  Pd598  1  0.521100  0.050800  0.329000  1.0
  Pd  Pd599  1  0.050800  0.521100  0.671000  1.0
  Pd  Pd600  1  0.978900  0.550800  0.921000  1.0
  C  C601  1  0.078200  0.029700  0.436500  1.0
  C  C602  1  0.470300  0.578200  0.686500  1.0
  C  C603  1  0.578200  0.470300  0.313500  1.0
  C  C604  1  0.921800  0.970300  0.936500  1.0
  C  C605  1  0.029700  0.078200  0.563500  1.0
  C  C606  1  0.529700  0.421800  0.186500  1.0
  C  C607  1  0.421800  0.529700  0.813500  1.0
  C  C608  1  0.970300  0.921800  0.063500  1.0
  C  C609  1  0.122700  0.037500  0.420900  1.0
  C  C610  1  0.462500  0.622700  0.670900  1.0
  C  C611  1  0.622700  0.462500  0.329100  1.0
  C  C612  1  0.877300  0.962500  0.920900  1.0
  C  C613  1  0.037500  0.122700  0.579100  1.0
  C  C614  1  0.537500  0.377300  0.170900  1.0
  C  C615  1  0.377300  0.537500  0.829100  1.0
  C  C616  1  0.962500  0.877300  0.079100  1.0
  C  C617  1  0.276600  0.303700  0.302900  1.0
  C  C618  1  0.196300  0.776600  0.552900  1.0
  C  C619  1  0.776600  0.196300  0.447100  1.0
  C  C620  1  0.723400  0.696300  0.802900  1.0
  C  C621  1  0.303700  0.276600  0.697100  1.0
  C  C622  1  0.803700  0.223400  0.052900  1.0
  C  C623  1  0.223400  0.803700  0.947100  1.0
  C  C624  1  0.696300  0.723400  0.197100  1.0
  C  C625  1  0.324600  0.254100  0.266900  1.0
  C  C626  1  0.245900  0.824600  0.516900  1.0
  C  C627  1  0.824600  0.245900  0.483100  1.0
  C  C628  1  0.675400  0.745900  0.766900  1.0
  C  C629  1  0.254100  0.324600  0.733100  1.0
  C  C630  1  0.754100  0.175400  0.016900  1.0
  C  C631  1  0.175400  0.754100  0.983100  1.0
  C  C632  1  0.745900  0.675400  0.233100  1.0
  C  C633  1  0.318600  0.290400  0.296700  1.0
  C  C634  1  0.209600  0.818600  0.546700  1.0
  C  C635  1  0.818600  0.209600  0.453300  1.0
  C  C636  1  0.681400  0.709600  0.796700  1.0
  C  C637  1  0.290400  0.318600  0.703300  1.0
  C  C638  1  0.790400  0.181400  0.046700  1.0
  C  C639  1  0.181400  0.790400  0.953300  1.0
  C  C640  1  0.709600  0.681400  0.203300  1.0
  C  C641  1  0.163600  0.029800  0.445500  1.0
  C  C642  1  0.470200  0.663600  0.695500  1.0
  C  C643  1  0.663600  0.470200  0.304500  1.0
  C  C644  1  0.836400  0.970200  0.945500  1.0
  C  C645  1  0.029800  0.163600  0.554500  1.0
  C  C646  1  0.529800  0.336400  0.195500  1.0
  C  C647  1  0.336400  0.529800  0.804500  1.0
  C  C648  1  0.970200  0.836400  0.054500  1.0
  C  C649  1  0.239600  0.285300  0.284000  1.0
  C  C650  1  0.214700  0.739600  0.534000  1.0
  C  C651  1  0.739600  0.214700  0.466000  1.0
  C  C652  1  0.760400  0.714700  0.784000  1.0
  C  C653  1  0.285300  0.239600  0.716000  1.0
  C  C654  1  0.785300  0.260400  0.034000  1.0
  C  C655  1  0.260400  0.785300  0.966000  1.0
  C  C656  1  0.714700  0.760400  0.216000  1.0
  C  C657  1  0.155300  0.015700  0.489100  1.0
  C  C658  1  0.484300  0.655300  0.739100  1.0
  C  C659  1  0.655300  0.484300  0.260900  1.0
  C  C660  1  0.844700  0.984300  0.989100  1.0
  C  C661  1  0.015700  0.155300  0.510900  1.0
  C  C662  1  0.515700  0.344700  0.239100  1.0
  C  C663  1  0.344700  0.515700  0.760900  1.0
  C  C664  1  0.984300  0.844700  0.010900  1.0
  C  C665  1  0.111300  0.011100  0.503100  1.0
  C  C666  1  0.488900  0.611300  0.753100  1.0
  C  C667  1  0.611300  0.488900  0.246900  1.0
  C  C668  1  0.888700  0.988900  0.003100  1.0
  C  C669  1  0.011100  0.111300  0.496900  1.0
  C  C670  1  0.511100  0.388700  0.253100  1.0
  C  C671  1  0.388700  0.511100  0.746900  1.0
  C  C672  1  0.988900  0.888700  0.996900  1.0
  C  C673  1  0.269800  0.342700  0.337200  1.0
  C  C674  1  0.157300  0.769800  0.587200  1.0
  C  C675  1  0.769800  0.157300  0.412800  1.0
  C  C676  1  0.730200  0.657300  0.837200  1.0
  C  C677  1  0.342700  0.269800  0.662800  1.0
  C  C678  1  0.842700  0.230200  0.087200  1.0
  C  C679  1  0.230200  0.842700  0.912800  1.0
  C  C680  1  0.657300  0.730200  0.162800  1.0
  C  C681  1  0.366900  0.461100  0.467800  1.0
  C  C682  1  0.038900  0.866900  0.717800  1.0
  C  C683  1  0.866900  0.038900  0.282200  1.0
  C  C684  1  0.633100  0.538900  0.967800  1.0
  C  C685  1  0.461100  0.366900  0.532200  1.0
  C  C686  1  0.961100  0.133100  0.217800  1.0
  C  C687  1  0.133100  0.961100  0.782200  1.0
  C  C688  1  0.538900  0.633100  0.032200  1.0
  C  C689  1  0.332300  0.447000  0.443000  1.0
  C  C690  1  0.053000  0.832300  0.693000  1.0
  C  C691  1  0.832300  0.053000  0.307000  1.0
  C  C692  1  0.667700  0.553000  0.943000  1.0
  C  C693  1  0.447000  0.332300  0.557000  1.0
  C  C694  1  0.947000  0.167700  0.193000  1.0
  C  C695  1  0.167700  0.947000  0.807000  1.0
  C  C696  1  0.553000  0.667700  0.057000  1.0
  C  C697  1  0.269200  0.093200  0.340900  1.0
  C  C698  1  0.406800  0.769200  0.590900  1.0
  C  C699  1  0.769200  0.406800  0.409100  1.0
  C  C700  1  0.730800  0.906800  0.840900  1.0
  C  C701  1  0.093200  0.269200  0.659100  1.0
  C  C702  1  0.593200  0.230800  0.090900  1.0
  C  C703  1  0.230800  0.593200  0.909100  1.0
  C  C704  1  0.906800  0.730800  0.159100  1.0
  C  C705  1  0.380700  0.393800  0.404300  1.0
  C  C706  1  0.106200  0.880700  0.654300  1.0
  C  C707  1  0.880700  0.106200  0.345700  1.0
  C  C708  1  0.619300  0.606200  0.904300  1.0
  C  C709  1  0.393800  0.380700  0.595700  1.0
  C  C710  1  0.893800  0.119300  0.154300  1.0
  C  C711  1  0.119300  0.893800  0.845700  1.0
  C  C712  1  0.606200  0.619300  0.095700  1.0
  C  C713  1  0.415600  0.409800  0.433000  1.0
  C  C714  1  0.090200  0.915600  0.683000  1.0
  C  C715  1  0.915600  0.090200  0.317000  1.0
  C  C716  1  0.584400  0.590200  0.933000  1.0
  C  C717  1  0.409800  0.415600  0.567000  1.0
  C  C718  1  0.909800  0.084400  0.183000  1.0
  C  C719  1  0.084400  0.909800  0.817000  1.0
  C  C720  1  0.590200  0.584400  0.067000  1.0
  C  C721  1  0.297700  0.394600  0.385400  1.0
  C  C722  1  0.105400  0.797700  0.635400  1.0
  C  C723  1  0.797700  0.105400  0.364600  1.0
  C  C724  1  0.702300  0.605400  0.885400  1.0
  C  C725  1  0.394600  0.297700  0.614600  1.0
  C  C726  1  0.894600  0.202300  0.135400  1.0
  C  C727  1  0.202300  0.894600  0.864600  1.0
  C  C728  1  0.605400  0.702300  0.114600  1.0
  C  C729  1  0.408800  0.037000  0.493500  1.0
  C  C730  1  0.463000  0.908800  0.743500  1.0
  C  C731  1  0.908800  0.463000  0.256500  1.0
  C  C732  1  0.591200  0.963000  0.993500  1.0
  C  C733  1  0.037000  0.408800  0.506500  1.0
  C  C734  1  0.537000  0.091200  0.243500  1.0
  C  C735  1  0.091200  0.537000  0.756500  1.0
  C  C736  1  0.963000  0.591200  0.006500  1.0
  C  C737  1  0.437600  0.165700  0.584100  1.0
  C  C738  1  0.334300  0.937600  0.834100  1.0
  C  C739  1  0.937600  0.334300  0.165900  1.0
  C  C740  1  0.562400  0.834300  0.084100  1.0
  C  C741  1  0.165700  0.437600  0.415900  1.0
  C  C742  1  0.665700  0.062400  0.334100  1.0
  C  C743  1  0.062400  0.665700  0.665900  1.0
  C  C744  1  0.834300  0.562400  0.915900  1.0
  C  C745  1  0.326000  0.033300  0.474900  1.0
  C  C746  1  0.466700  0.826000  0.724900  1.0
  C  C747  1  0.826000  0.466700  0.275100  1.0
  C  C748  1  0.674000  0.966700  0.974900  1.0
  C  C749  1  0.033300  0.326000  0.525100  1.0
  C  C750  1  0.533300  0.174000  0.224900  1.0
  C  C751  1  0.174000  0.533300  0.775100  1.0
  C  C752  1  0.966700  0.674000  0.025100  1.0
  C  C753  1  0.321700  0.018600  0.512900  1.0
  C  C754  1  0.481400  0.821700  0.762900  1.0
  C  C755  1  0.821700  0.481400  0.237100  1.0
  C  C756  1  0.678300  0.981400  0.012900  1.0
  C  C757  1  0.018600  0.321700  0.487100  1.0
  C  C758  1  0.518600  0.178300  0.262900  1.0
  C  C759  1  0.178300  0.518600  0.737100  1.0
  C  C760  1  0.981400  0.678300  0.987100  1.0
  C  C761  1  0.354800  0.012100  0.545700  1.0
  C  C762  1  0.487900  0.854800  0.795700  1.0
  C  C763  1  0.854800  0.487900  0.204300  1.0
  C  C764  1  0.645200  0.987900  0.045700  1.0
  C  C765  1  0.012100  0.354800  0.454300  1.0
  C  C766  1  0.512100  0.145200  0.295700  1.0
  C  C767  1  0.145200  0.512100  0.704300  1.0
  C  C768  1  0.987900  0.645200  0.954300  1.0
  C  C769  1  0.285500  0.041400  0.446800  1.0
  C  C770  1  0.458600  0.785500  0.696800  1.0
  C  C771  1  0.785500  0.458600  0.303200  1.0
  C  C772  1  0.714500  0.958600  0.946800  1.0
  C  C773  1  0.041400  0.285500  0.553200  1.0
  C  C774  1  0.541400  0.214500  0.196800  1.0
  C  C775  1  0.214500  0.541400  0.803200  1.0
  C  C776  1  0.958600  0.714500  0.053200  1.0
  C  C777  1  0.022000  0.874300  0.445600  1.0
  C  C778  1  0.625700  0.522000  0.695600  1.0
  C  C779  1  0.522000  0.625700  0.304400  1.0
  C  C780  1  0.978000  0.125700  0.945600  1.0
  C  C781  1  0.874300  0.022000  0.554400  1.0
  C  C782  1  0.374300  0.478000  0.195600  1.0
  C  C783  1  0.478000  0.374300  0.804400  1.0
  C  C784  1  0.125700  0.978000  0.054400  1.0
  C  C785  1  0.951100  0.884500  0.474800  1.0
  C  C786  1  0.615500  0.451100  0.724800  1.0
  C  C787  1  0.451100  0.615500  0.275200  1.0
  C  C788  1  0.048900  0.115500  0.974800  1.0
  C  C789  1  0.884500  0.951100  0.525200  1.0
  C  C790  1  0.384500  0.548900  0.224800  1.0
  C  C791  1  0.548900  0.384500  0.775200  1.0
  C  C792  1  0.115500  0.048900  0.025200  1.0
  C  C793  1  0.310300  0.080300  0.181400  1.0
  C  C794  1  0.419700  0.810300  0.431400  1.0
  C  C795  1  0.810300  0.419700  0.568600  1.0
  C  C796  1  0.689700  0.919700  0.681400  1.0
  C  C797  1  0.080300  0.310300  0.818600  1.0
  C  C798  1  0.580300  0.189700  0.931400  1.0
  C  C799  1  0.189700  0.580300  0.068600  1.0
  C  C800  1  0.919700  0.689700  0.318600  1.0
  C  C801  1  0.341400  0.054500  0.117900  1.0
  C  C802  1  0.445500  0.841400  0.367900  1.0
  C  C803  1  0.841400  0.445500  0.632100  1.0
  C  C804  1  0.658600  0.945500  0.617900  1.0
  C  C805  1  0.054500  0.341400  0.882100  1.0
  C  C806  1  0.554500  0.158600  0.867900  1.0
  C  C807  1  0.158600  0.554500  0.132100  1.0
  C  C808  1  0.945500  0.658600  0.382100  1.0
  C  C809  1  0.331100  0.136100  0.132300  1.0
  C  C810  1  0.363900  0.831100  0.382300  1.0
  C  C811  1  0.831100  0.363900  0.617700  1.0
  C  C812  1  0.668900  0.863900  0.632300  1.0
  C  C813  1  0.136100  0.331100  0.867700  1.0
  C  C814  1  0.636100  0.168900  0.882300  1.0
  C  C815  1  0.168900  0.636100  0.117700  1.0
  C  C816  1  0.863900  0.668900  0.367700  1.0
  C  C817  1  0.343000  0.196000  0.083700  1.0
  C  C818  1  0.304000  0.843000  0.333700  1.0
  C  C819  1  0.843000  0.304000  0.666300  1.0
  C  C820  1  0.657000  0.804000  0.583700  1.0
  C  C821  1  0.196000  0.343000  0.916300  1.0
  C  C822  1  0.696000  0.157000  0.833700  1.0
  C  C823  1  0.157000  0.696000  0.166300  1.0
  C  C824  1  0.804000  0.657000  0.416300  1.0
  C  C825  1  0.334800  0.278000  0.111200  1.0
  C  C826  1  0.222000  0.834800  0.361200  1.0
  C  C827  1  0.834800  0.222000  0.638800  1.0
  C  C828  1  0.665200  0.722000  0.611200  1.0
  C  C829  1  0.278000  0.334800  0.888800  1.0
  C  C830  1  0.778000  0.165200  0.861200  1.0
  C  C831  1  0.165200  0.778000  0.138800  1.0
  C  C832  1  0.722000  0.665200  0.388800  1.0
  C  C833  1  0.527600  0.465700  0.574200  1.0
  C  C834  1  0.034300  0.027600  0.824200  1.0
  C  C835  1  0.027600  0.034300  0.175800  1.0
  C  C836  1  0.472400  0.534300  0.074200  1.0
  C  C837  1  0.465700  0.527600  0.425800  1.0
  C  C838  1  0.965700  0.972400  0.324200  1.0
  C  C839  1  0.972400  0.965700  0.675800  1.0
  C  C840  1  0.534300  0.472400  0.925800  1.0
  C  C841  1  0.587000  0.521700  0.580000  1.0
  C  C842  1  0.978300  0.087000  0.830000  1.0
  C  C843  1  0.087000  0.978300  0.170000  1.0
  C  C844  1  0.413000  0.478300  0.080000  1.0
  C  C845  1  0.521700  0.587000  0.420000  1.0
  C  C846  1  0.021700  0.913000  0.330000  1.0
  C  C847  1  0.913000  0.021700  0.670000  1.0
  C  C848  1  0.478300  0.413000  0.920000  1.0
  C  C849  1  0.538500  0.517000  0.520600  1.0
  C  C850  1  0.983000  0.038500  0.770600  1.0
  C  C851  1  0.038500  0.983000  0.229400  1.0
  C  C852  1  0.461500  0.483000  0.020600  1.0
  C  C853  1  0.517000  0.538500  0.479400  1.0
  C  C854  1  0.017000  0.961500  0.270600  1.0
  C  C855  1  0.961500  0.017000  0.729400  1.0
  C  C856  1  0.483000  0.461500  0.979400  1.0
  C  C857  1  0.545500  0.049500  0.675800  1.0
  C  C858  1  0.450500  0.045500  0.925800  1.0
  C  C859  1  0.045500  0.450500  0.074200  1.0
  C  C860  1  0.454500  0.950500  0.175800  1.0
  C  C861  1  0.049500  0.545500  0.324200  1.0
  C  C862  1  0.549500  0.954500  0.425800  1.0
  C  C863  1  0.954500  0.549500  0.574200  1.0
  C  C864  1  0.950500  0.454500  0.824200  1.0
  C  C865  1  0.554000  0.971300  0.664000  1.0
  C  C866  1  0.528700  0.054000  0.914000  1.0
  C  C867  1  0.054000  0.528700  0.086000  1.0
  C  C868  1  0.446000  0.028700  0.164000  1.0
  C  C869  1  0.971300  0.554000  0.336000  1.0
  C  C870  1  0.471300  0.946000  0.414000  1.0
  C  C871  1  0.946000  0.471300  0.586000  1.0
  C  C872  1  0.028700  0.446000  0.836000  1.0
  C  C873  1  0.501400  0.941900  0.600100  1.0
  C  C874  1  0.558100  0.001400  0.850100  1.0
  C  C875  1  0.001400  0.558100  0.149900  1.0
  C  C876  1  0.498600  0.058100  0.100100  1.0
  C  C877  1  0.941900  0.501400  0.399900  1.0
  C  C878  1  0.441900  0.998600  0.350100  1.0
  C  C879  1  0.998600  0.441900  0.649900  1.0
  C  C880  1  0.058100  0.498600  0.899900  1.0
  C  C881  1  0.498700  0.868400  0.570200  1.0
  C  C882  1  0.631600  0.998700  0.820200  1.0
  C  C883  1  0.998700  0.631600  0.179800  1.0
  C  C884  1  0.501300  0.131600  0.070200  1.0
  C  C885  1  0.868400  0.498700  0.429800  1.0
  C  C886  1  0.368400  0.001300  0.320200  1.0
  C  C887  1  0.001300  0.368400  0.679800  1.0
  C  C888  1  0.131600  0.501300  0.929800  1.0
  C  C889  1  0.452800  0.926200  0.541500  1.0
  C  C890  1  0.573800  0.952800  0.791500  1.0
  C  C891  1  0.952800  0.573800  0.208500  1.0
  C  C892  1  0.547200  0.073800  0.041500  1.0
  C  C893  1  0.926200  0.452800  0.458500  1.0
  C  C894  1  0.426200  0.047200  0.291500  1.0
  C  C895  1  0.047200  0.426200  0.708500  1.0
  C  C896  1  0.073800  0.547200  0.958500  1.0
  C  C897  1  0.247300  0.249900  0.257600  1.0
  C  C898  1  0.250100  0.747300  0.507600  1.0
  C  C899  1  0.747300  0.250100  0.492400  1.0
  C  C900  1  0.752700  0.750100  0.757600  1.0
  C  C901  1  0.249900  0.247300  0.742400  1.0
  C  C902  1  0.749900  0.252700  0.007600  1.0
  C  C903  1  0.252700  0.749900  0.992400  1.0
  C  C904  1  0.750100  0.752700  0.242400  1.0
  C  C905  1  0.212300  0.042000  0.432800  1.0
  C  C906  1  0.458000  0.712300  0.682800  1.0
  C  C907  1  0.712300  0.458000  0.317200  1.0
  C  C908  1  0.787700  0.958000  0.932800  1.0
  C  C909  1  0.042000  0.212300  0.567200  1.0
  C  C910  1  0.542000  0.287700  0.182800  1.0
  C  C911  1  0.287700  0.542000  0.817200  1.0
  C  C912  1  0.958000  0.787700  0.067200  1.0
  C  C913  1  0.317500  0.134000  0.292100  1.0
  C  C914  1  0.366000  0.817500  0.542100  1.0
  C  C915  1  0.817500  0.366000  0.457900  1.0
  C  C916  1  0.682500  0.866000  0.792100  1.0
  C  C917  1  0.134000  0.317500  0.707900  1.0
  C  C918  1  0.634000  0.182500  0.042100  1.0
  C  C919  1  0.182500  0.634000  0.957900  1.0
  C  C920  1  0.866000  0.682500  0.207900  1.0
  C  C921  1  0.311000  0.112100  0.330600  1.0
  C  C922  1  0.387900  0.811000  0.580600  1.0
  C  C923  1  0.811000  0.387900  0.419400  1.0
  C  C924  1  0.689000  0.887900  0.830600  1.0
  C  C925  1  0.112100  0.311000  0.669400  1.0
  C  C926  1  0.612100  0.189000  0.080600  1.0
  C  C927  1  0.189000  0.612100  0.919400  1.0
  C  C928  1  0.887900  0.689000  0.169400  1.0
  C  C929  1  0.337200  0.411600  0.412000  1.0
  C  C930  1  0.088400  0.837200  0.662000  1.0
  C  C931  1  0.837200  0.088400  0.338000  1.0
  C  C932  1  0.662800  0.588400  0.912000  1.0
  C  C933  1  0.411600  0.337200  0.588000  1.0
  C  C934  1  0.911600  0.162800  0.162000  1.0
  C  C935  1  0.162800  0.911600  0.838000  1.0
  C  C936  1  0.588400  0.662800  0.088000  1.0
  C  C937  1  0.234100  0.098700  0.307900  1.0
  C  C938  1  0.401300  0.734100  0.557900  1.0
  C  C939  1  0.734100  0.401300  0.442100  1.0
  C  C940  1  0.765900  0.901300  0.807900  1.0
  C  C941  1  0.098700  0.234100  0.692100  1.0
  C  C942  1  0.598700  0.265900  0.057900  1.0
  C  C943  1  0.265900  0.598700  0.942100  1.0
  C  C944  1  0.901300  0.765900  0.192100  1.0
  C  C945  1  0.242200  0.122500  0.272600  1.0
  C  C946  1  0.377500  0.742200  0.522600  1.0
  C  C947  1  0.742200  0.377500  0.477400  1.0
  C  C948  1  0.757800  0.877500  0.772600  1.0
  C  C949  1  0.122500  0.242200  0.727400  1.0
  C  C950  1  0.622500  0.257800  0.022600  1.0
  C  C951  1  0.257800  0.622500  0.977400  1.0
  C  C952  1  0.877500  0.757800  0.227400  1.0
  C  C953  1  0.258800  0.068500  0.381800  1.0
  C  C954  1  0.431500  0.758800  0.631800  1.0
  C  C955  1  0.758800  0.431500  0.368200  1.0
  C  C956  1  0.741200  0.931500  0.881800  1.0
  C  C957  1  0.068500  0.258800  0.618200  1.0
  C  C958  1  0.568500  0.241200  0.131800  1.0
  C  C959  1  0.241200  0.568500  0.868200  1.0
  C  C960  1  0.931500  0.741200  0.118200  1.0
  C  C961  1  0.446400  0.118000  0.574900  1.0
  C  C962  1  0.382000  0.946400  0.824900  1.0
  C  C963  1  0.946400  0.382000  0.175100  1.0
  C  C964  1  0.553600  0.882000  0.074900  1.0
  C  C965  1  0.118000  0.446400  0.425100  1.0
  C  C966  1  0.618000  0.053600  0.324900  1.0
  C  C967  1  0.053600  0.618000  0.675100  1.0
  C  C968  1  0.882000  0.553600  0.925100  1.0
  C  C969  1  0.371400  0.043200  0.463300  1.0
  C  C970  1  0.456800  0.871400  0.713300  1.0
  C  C971  1  0.871400  0.456800  0.286700  1.0
  C  C972  1  0.628600  0.956800  0.963300  1.0
  C  C973  1  0.043200  0.371400  0.536700  1.0
  C  C974  1  0.543200  0.128600  0.213300  1.0
  C  C975  1  0.128600  0.543200  0.786700  1.0
  C  C976  1  0.956800  0.628600  0.036700  1.0
  C  C977  1  0.404700  0.175200  0.615600  1.0
  C  C978  1  0.324800  0.904700  0.865600  1.0
  C  C979  1  0.904700  0.324800  0.134400  1.0
  C  C980  1  0.595300  0.824800  0.115600  1.0
  C  C981  1  0.175200  0.404700  0.384400  1.0
  C  C982  1  0.675200  0.095300  0.365600  1.0
  C  C983  1  0.095300  0.675200  0.634400  1.0
  C  C984  1  0.824800  0.595300  0.884400  1.0
  C  C985  1  0.385400  0.137800  0.637000  1.0
  C  C986  1  0.362200  0.885400  0.887000  1.0
  C  C987  1  0.885400  0.362200  0.113000  1.0
  C  C988  1  0.614600  0.862200  0.137000  1.0
  C  C989  1  0.137800  0.385400  0.363000  1.0
  C  C990  1  0.637800  0.114600  0.387000  1.0
  C  C991  1  0.114600  0.637800  0.613000  1.0
  C  C992  1  0.862200  0.614600  0.863000  1.0
  C  C993  1  0.400600  0.093500  0.624900  1.0
  C  C994  1  0.406500  0.900600  0.874900  1.0
  C  C995  1  0.900600  0.406500  0.125100  1.0
  C  C996  1  0.599400  0.906500  0.124900  1.0
  C  C997  1  0.093500  0.400600  0.375100  1.0
  C  C998  1  0.593500  0.099400  0.374900  1.0
  C  C999  1  0.099400  0.593500  0.625100  1.0
  C  C1000  1  0.906500  0.599400  0.875100  1.0
  C  C1001  1  0.220400  0.390300  0.373400  1.0
  C  C1002  1  0.109700  0.720400  0.623400  1.0
  C  C1003  1  0.720400  0.109700  0.376600  1.0
  C  C1004  1  0.779600  0.609700  0.873400  1.0
  C  C1005  1  0.390300  0.220400  0.626600  1.0
  C  C1006  1  0.890300  0.279600  0.123400  1.0
  C  C1007  1  0.279600  0.890300  0.876600  1.0
  C  C1008  1  0.609700  0.779600  0.126600  1.0
  C  C1009  1  0.030400  0.919700  0.461400  1.0
  C  C1010  1  0.580300  0.530400  0.711400  1.0
  C  C1011  1  0.530400  0.580300  0.288600  1.0
  C  C1012  1  0.969600  0.080300  0.961400  1.0
  C  C1013  1  0.919700  0.030400  0.538600  1.0
  C  C1014  1  0.419700  0.469600  0.211400  1.0
  C  C1015  1  0.469600  0.419700  0.788600  1.0
  C  C1016  1  0.080300  0.969600  0.038600  1.0
  C  C1017  1  0.981600  0.860200  0.458600  1.0
  C  C1018  1  0.639800  0.481600  0.708600  1.0
  C  C1019  1  0.481600  0.639800  0.291400  1.0
  C  C1020  1  0.018400  0.139800  0.958600  1.0
  C  C1021  1  0.860200  0.981600  0.541400  1.0
  C  C1022  1  0.360200  0.518400  0.208600  1.0
  C  C1023  1  0.518400  0.360200  0.791400  1.0
  C  C1024  1  0.139800  0.018400  0.041400  1.0
  C  C1025  1  0.959600  0.926800  0.489000  1.0
  C  C1026  1  0.573200  0.459600  0.739000  1.0
  C  C1027  1  0.459600  0.573200  0.261000  1.0
  C  C1028  1  0.040400  0.073200  0.989000  1.0
  C  C1029  1  0.926800  0.959600  0.511000  1.0
  C  C1030  1  0.426800  0.540400  0.239000  1.0
  C  C1031  1  0.540400  0.426800  0.761000  1.0
  C  C1032  1  0.073200  0.040400  0.011000  1.0
  C  C1033  1  0.318900  0.044700  0.155700  1.0
  C  C1034  1  0.455300  0.818900  0.405700  1.0
  C  C1035  1  0.818900  0.455300  0.594300  1.0
  C  C1036  1  0.681100  0.955300  0.655700  1.0
  C  C1037  1  0.044700  0.318900  0.844300  1.0
  C  C1038  1  0.544700  0.181100  0.905700  1.0
  C  C1039  1  0.181100  0.544700  0.094300  1.0
  C  C1040  1  0.955300  0.681100  0.344300  1.0
  C  C1041  1  0.346600  0.100900  0.104300  1.0
  C  C1042  1  0.399100  0.846600  0.354300  1.0
  C  C1043  1  0.846600  0.399100  0.645700  1.0
  C  C1044  1  0.653400  0.899100  0.604300  1.0
  C  C1045  1  0.100900  0.346600  0.895700  1.0
  C  C1046  1  0.600900  0.153400  0.854300  1.0
  C  C1047  1  0.153400  0.600900  0.145700  1.0
  C  C1048  1  0.899100  0.653400  0.395700  1.0
  C  C1049  1  0.333100  0.182200  0.123000  1.0
  C  C1050  1  0.317800  0.833100  0.373000  1.0
  C  C1051  1  0.833100  0.317800  0.627000  1.0
  C  C1052  1  0.666900  0.817800  0.623000  1.0
  C  C1053  1  0.182200  0.333100  0.877000  1.0
  C  C1054  1  0.682200  0.166900  0.873000  1.0
  C  C1055  1  0.166900  0.682200  0.127000  1.0
  C  C1056  1  0.817800  0.666900  0.377000  1.0
  C  C1057  1  0.348900  0.235000  0.077400  1.0
  C  C1058  1  0.265000  0.848900  0.327400  1.0
  C  C1059  1  0.848900  0.265000  0.672600  1.0
  C  C1060  1  0.651100  0.765000  0.577400  1.0
  C  C1061  1  0.235000  0.348900  0.922600  1.0
  C  C1062  1  0.735000  0.151100  0.827400  1.0
  C  C1063  1  0.151100  0.735000  0.172600  1.0
  C  C1064  1  0.765000  0.651100  0.422600  1.0
  C  C1065  1  0.320200  0.258200  0.148400  1.0
  C  C1066  1  0.241800  0.820200  0.398400  1.0
  C  C1067  1  0.820200  0.241800  0.601600  1.0
  C  C1068  1  0.679800  0.741800  0.648400  1.0
  C  C1069  1  0.258200  0.320200  0.851600  1.0
  C  C1070  1  0.758200  0.179800  0.898400  1.0
  C  C1071  1  0.179800  0.758200  0.101600  1.0
  C  C1072  1  0.741800  0.679800  0.351600  1.0
  C  C1073  1  0.563800  0.481400  0.596300  1.0
  C  C1074  1  0.018600  0.063800  0.846300  1.0
  C  C1075  1  0.063800  0.018600  0.153700  1.0
  C  C1076  1  0.436200  0.518600  0.096300  1.0
  C  C1077  1  0.481400  0.563800  0.403700  1.0
  C  C1078  1  0.981400  0.936200  0.346300  1.0
  C  C1079  1  0.936200  0.981400  0.653700  1.0
  C  C1080  1  0.518600  0.436200  0.903700  1.0
  C  C1081  1  0.573100  0.536300  0.540100  1.0
  C  C1082  1  0.963700  0.073100  0.790100  1.0
  C  C1083  1  0.073100  0.963700  0.209900  1.0
  C  C1084  1  0.426900  0.463700  0.040100  1.0
  C  C1085  1  0.536300  0.573100  0.459900  1.0
  C  C1086  1  0.036300  0.926900  0.290100  1.0
  C  C1087  1  0.926900  0.036300  0.709900  1.0
  C  C1088  1  0.463700  0.426900  0.959900  1.0
  C  C1089  1  0.514300  0.055000  0.647900  1.0
  C  C1090  1  0.445000  0.014300  0.897900  1.0
  C  C1091  1  0.014300  0.445000  0.102100  1.0
  C  C1092  1  0.485700  0.945000  0.147900  1.0
  C  C1093  1  0.055000  0.514300  0.352100  1.0
  C  C1094  1  0.555000  0.985700  0.397900  1.0
  C  C1095  1  0.985700  0.555000  0.602100  1.0
  C  C1096  1  0.945000  0.485700  0.852100  1.0
  C  C1097  1  0.565000  0.008000  0.685700  1.0
  C  C1098  1  0.492000  0.065000  0.935700  1.0
  C  C1099  1  0.065000  0.492000  0.064300  1.0
  C  C1100  1  0.435000  0.992000  0.185700  1.0
  C  C1101  1  0.008000  0.565000  0.314300  1.0
  C  C1102  1  0.508000  0.935000  0.435700  1.0
  C  C1103  1  0.935000  0.508000  0.564300  1.0
  C  C1104  1  0.992000  0.435000  0.814300  1.0
  C  C1105  1  0.517600  0.978400  0.630300  1.0
  C  C1106  1  0.521600  0.017600  0.880300  1.0
  C  C1107  1  0.017600  0.521600  0.119700  1.0
  C  C1108  1  0.482400  0.021600  0.130300  1.0
  C  C1109  1  0.978400  0.517600  0.369700  1.0
  C  C1110  1  0.478400  0.982400  0.380300  1.0
  C  C1111  1  0.982400  0.478400  0.619700  1.0
  C  C1112  1  0.021600  0.482400  0.869700  1.0
  C  C1113  1  0.517400  0.900000  0.604700  1.0
  C  C1114  1  0.600000  0.017400  0.854700  1.0
  C  C1115  1  0.017400  0.600000  0.145300  1.0
  C  C1116  1  0.482600  0.100000  0.104700  1.0
  C  C1117  1  0.900000  0.517400  0.395300  1.0
  C  C1118  1  0.400000  0.982600  0.354700  1.0
  C  C1119  1  0.982600  0.400000  0.645300  1.0
  C  C1120  1  0.100000  0.482600  0.895300  1.0
  C  C1121  1  0.466900  0.879500  0.539800  1.0
  C  C1122  1  0.620500  0.966900  0.789800  1.0
  C  C1123  1  0.966900  0.620500  0.210200  1.0
  C  C1124  1  0.533100  0.120500  0.039800  1.0
  C  C1125  1  0.879500  0.466900  0.460200  1.0
  C  C1126  1  0.379500  0.033100  0.289800  1.0
  C  C1127  1  0.033100  0.379500  0.710200  1.0
  C  C1128  1  0.120500  0.533100  0.960200  1.0
  N  N1129  1  0.346200  0.917400  0.454900  1
  N  N1130  1  0.582600  0.846200  0.704900  1
  N  N1131  1  0.846200  0.582600  0.295100  1
  N  N1132  1  0.653800  0.082600  0.954900  1
  N  N1133  1  0.917400  0.346200  0.545100  1
  N  N1134  1  0.417400  0.153800  0.204900  1
  N  N1135  1  0.153800  0.417400  0.795100  1
  N  N1136  1  0.082600  0.653800  0.045100  1
  N  N1137  1  0.525900  0.950800  0.277300  1
  N  N1138  1  0.549200  0.025900  0.527300  1
  N  N1139  1  0.025900  0.549200  0.472700  1
  N  N1140  1  0.474100  0.049200  0.777300  1
  N  N1141  1  0.950800  0.525900  0.722700  1
  N  N1142  1  0.450800  0.974100  0.027300  1
  N  N1143  1  0.974100  0.450800  0.972700  1
  N  N1144  1  0.049200  0.474100  0.222700  1
  N  N1145  1  0.954700  0.386700  0.355700  1
  N  N1146  1  0.113300  0.454700  0.605700  1
  N  N1147  1  0.454700  0.113300  0.394300  1
  N  N1148  1  0.045300  0.613300  0.855700  1
  N  N1149  1  0.386700  0.954700  0.644300  1
  N  N1150  1  0.886700  0.545300  0.105700  1
  N  N1151  1  0.545300  0.886700  0.894300  1
  N  N1152  1  0.613300  0.045300  0.144300  1
  N  N1153  1  0.076400  0.015800  0.476600  1.0
  N  N1154  1  0.484200  0.576400  0.726600  1.0
  N  N1155  1  0.576400  0.484200  0.273400  1.0
  N  N1156  1  0.923600  0.984200  0.976600  1.0
  N  N1157  1  0.015800  0.076400  0.523400  1.0
  N  N1158  1  0.515800  0.423600  0.226600  1.0
  N  N1159  1  0.423600  0.515800  0.773400  1.0
  N  N1160  1  0.984200  0.923600  0.023400  1.0
  N  N1161  1  0.407500  0.444100  0.461600  1.0
  N  N1162  1  0.055900  0.907500  0.711600  1.0
  N  N1163  1  0.907500  0.055900  0.288400  1.0
  N  N1164  1  0.592500  0.555900  0.961600  1.0
  N  N1165  1  0.444100  0.407500  0.538400  1.0
  N  N1166  1  0.944100  0.092500  0.211600  1.0
  N  N1167  1  0.092500  0.944100  0.788400  1.0
  N  N1168  1  0.555900  0.592500  0.038400  1.0
  N  N1169  1  0.430600  0.085300  0.593700  1.0
  N  N1170  1  0.414700  0.930600  0.843700  1.0
  N  N1171  1  0.930600  0.414700  0.156300  1.0
  N  N1172  1  0.569400  0.914700  0.093700  1.0
  N  N1173  1  0.085300  0.430600  0.406300  1.0
  N  N1174  1  0.585300  0.069400  0.343700  1.0
  N  N1175  1  0.069400  0.585300  0.656300  1.0
  N  N1176  1  0.914700  0.569400  0.906300  1.0
  N  N1177  1  0.305200  0.361000  0.359400  1.0
  N  N1178  1  0.139000  0.805200  0.609400  1.0
  N  N1179  1  0.805200  0.139000  0.390600  1.0
  N  N1180  1  0.694800  0.639000  0.859400  1.0
  N  N1181  1  0.361000  0.305200  0.640600  1.0
  N  N1182  1  0.861000  0.194800  0.109400  1.0
  N  N1183  1  0.194800  0.861000  0.890600  1.0
  N  N1184  1  0.639000  0.694800  0.140600  1.0
  N  N1185  1  0.296600  0.060400  0.407100  1.0
  N  N1186  1  0.439600  0.796600  0.657100  1.0
  N  N1187  1  0.796600  0.439600  0.342900  1.0
  N  N1188  1  0.703400  0.939600  0.907100  1.0
  N  N1189  1  0.060400  0.296600  0.592900  1.0
  N  N1190  1  0.560400  0.203400  0.157100  1.0
  N  N1191  1  0.203400  0.560400  0.842900  1.0
  N  N1192  1  0.939600  0.703400  0.092900  1.0
  N  N1193  1  0.246000  0.030600  0.460600  1.0
  N  N1194  1  0.469400  0.746000  0.710600  1.0
  N  N1195  1  0.746000  0.469400  0.289400  1.0
  N  N1196  1  0.754000  0.969400  0.960600  1.0
  N  N1197  1  0.030600  0.246000  0.539400  1.0
  N  N1198  1  0.530600  0.254000  0.210600  1.0
  N  N1199  1  0.254000  0.530600  0.789400  1.0
  N  N1200  1  0.969400  0.754000  0.039400  1.0
  N  N1201  1  0.312900  0.123500  0.171900  1.0
  N  N1202  1  0.376500  0.812900  0.421900  1.0
  N  N1203  1  0.812900  0.376500  0.578100  1.0
  N  N1204  1  0.687100  0.876500  0.671900  1.0
  N  N1205  1  0.123500  0.312900  0.828100  1.0
  N  N1206  1  0.623500  0.187100  0.921900  1.0
  N  N1207  1  0.187100  0.623500  0.078100  1.0
  N  N1208  1  0.876500  0.687100  0.328100  1.0
  N  N1209  1  0.513800  0.483500  0.535400  1.0
  N  N1210  1  0.016500  0.013800  0.785400  1.0
  N  N1211  1  0.013800  0.016500  0.214600  1.0
  N  N1212  1  0.486200  0.516500  0.035400  1.0
  N  N1213  1  0.483500  0.513800  0.464600  1.0
  N  N1214  1  0.983500  0.986200  0.285400  1.0
  N  N1215  1  0.986200  0.983500  0.714600  1.0
  N  N1216  1  0.516500  0.486200  0.964600  1.0
  N  N1217  1  0.467900  0.954100  0.570300  1.0
  N  N1218  1  0.545900  0.967900  0.820300  1.0
  N  N1219  1  0.967900  0.545900  0.179700  1.0
  N  N1220  1  0.532100  0.045900  0.070300  1.0
  N  N1221  1  0.954100  0.467900  0.429700  1.0
  N  N1222  1  0.454100  0.032100  0.320300  1.0
  N  N1223  1  0.032100  0.454100  0.679700  1.0
  N  N1224  1  0.045900  0.532100  0.929700  1.0
  N  N1225  1  0.288900  0.234900  0.247700  1.0
  N  N1226  1  0.265100  0.788900  0.497700  1.0
  N  N1227  1  0.788900  0.265100  0.502300  1.0
  N  N1228  1  0.711100  0.765100  0.747700  1.0
  N  N1229  1  0.234900  0.288900  0.752300  1.0
  N  N1230  1  0.734900  0.211100  0.997700  1.0
  N  N1231  1  0.211100  0.734900  0.002300  1.0
  N  N1232  1  0.765100  0.711100  0.252300  1.0
  N  N1233  1  0.285100  0.140400  0.263700  1.0
  N  N1234  1  0.359600  0.785100  0.513700  1.0
  N  N1235  1  0.785100  0.359600  0.486300  1.0
  N  N1236  1  0.714900  0.859600  0.763700  1.0
  N  N1237  1  0.140400  0.285100  0.736300  1.0
  N  N1238  1  0.640400  0.214900  0.013700  1.0
  N  N1239  1  0.214900  0.640400  0.986300  1.0
  N  N1240  1  0.859600  0.714900  0.236300  1.0
  N  N1241  1  0.397500  0.022100  0.532900  1.0
  N  N1242  1  0.477900  0.897500  0.782900  1.0
  N  N1243  1  0.897500  0.477900  0.217100  1.0
  N  N1244  1  0.602500  0.977900  0.032900  1.0
  N  N1245  1  0.022100  0.397500  0.467100  1.0
  N  N1246  1  0.522100  0.102500  0.282900  1.0
  N  N1247  1  0.102500  0.522100  0.717100  1.0
  N  N1248  1  0.977900  0.602500  0.967100  1.0
  N  N1249  1  0.216700  0.059000  0.392600  1.0
  N  N1250  1  0.441000  0.716700  0.642600  1.0
  N  N1251  1  0.716700  0.441000  0.357400  1.0
  N  N1252  1  0.783300  0.941000  0.892600  1.0
  N  N1253  1  0.059000  0.216700  0.607400  1.0
  N  N1254  1  0.559000  0.283300  0.142600  1.0
  N  N1255  1  0.283300  0.559000  0.857400  1.0
  N  N1256  1  0.941000  0.783300  0.107400  1.0
  N  N1257  1  0.256800  0.409200  0.395200  1.0
  N  N1258  1  0.090800  0.756800  0.645200  1.0
  N  N1259  1  0.756800  0.090800  0.354800  1.0
  N  N1260  1  0.743200  0.590800  0.895200  1.0
  N  N1261  1  0.409200  0.256800  0.604800  1.0
  N  N1262  1  0.909200  0.243200  0.145200  1.0
  N  N1263  1  0.243200  0.909200  0.854800  1.0
  N  N1264  1  0.590800  0.743200  0.104800  1.0
  N  N1265  1  0.225900  0.355800  0.343300  1.0
  N  N1266  1  0.144200  0.725900  0.593300  1.0
  N  N1267  1  0.725900  0.144200  0.406700  1.0
  N  N1268  1  0.774100  0.644200  0.843300  1.0
  N  N1269  1  0.355800  0.225900  0.656700  1.0
  N  N1270  1  0.855800  0.274100  0.093300  1.0
  N  N1271  1  0.274100  0.855800  0.906700  1.0
  N  N1272  1  0.644200  0.774100  0.156700  1.0
  N  N1273  1  0.002000  0.947800  0.479700  1.0
  N  N1274  1  0.552200  0.502000  0.729700  1.0
  N  N1275  1  0.502000  0.552200  0.270300  1.0
  N  N1276  1  0.998000  0.052200  0.979700  1.0
  N  N1277  1  0.947800  0.002000  0.520300  1.0
  N  N1278  1  0.447800  0.498000  0.229700  1.0
  N  N1279  1  0.498000  0.447800  0.770300  1.0
  N  N1280  1  0.052200  0.998000  0.020300  1.0
  N  N1281  1  0.318300  0.211700  0.156400  1.0
  N  N1282  1  0.288300  0.818300  0.406400  1.0
  N  N1283  1  0.818300  0.288300  0.593600  1.0
  N  N1284  1  0.681700  0.788300  0.656400  1.0
  N  N1285  1  0.211700  0.318300  0.843600  1.0
  N  N1286  1  0.711700  0.181700  0.906400  1.0
  N  N1287  1  0.181700  0.711700  0.093600  1.0
  N  N1288  1  0.788300  0.681700  0.343600  1.0
  N  N1289  1  0.498100  0.019400  0.624900  1.0
  N  N1290  1  0.480600  0.998100  0.874900  1.0
  N  N1291  1  0.998100  0.480600  0.125100  1.0
  N  N1292  1  0.501900  0.980600  0.124900  1.0
  N  N1293  1  0.019400  0.498100  0.375100  1.0
  N  N1294  1  0.519400  0.001900  0.374900  1.0
  N  N1295  1  0.001900  0.519400  0.625100  1.0
  N  N1296  1  0.980600  0.501900  0.875100  1.0
  O  O1297  1  0.381400  0.912700  0.469800  1
  O  O1298  1  0.587300  0.881400  0.719800  1
  O  O1299  1  0.881400  0.587300  0.280200  1
  O  O1300  1  0.618600  0.087300  0.969800  1
  O  O1301  1  0.912700  0.381400  0.530200  1
  O  O1302  1  0.412700  0.118600  0.219800  1
  O  O1303  1  0.118600  0.412700  0.780200  1
  O  O1304  1  0.087300  0.618600  0.030200  1
  O  O1305  1  0.312900  0.906200  0.480800  1
  O  O1306  1  0.593800  0.812900  0.730800  1
  O  O1307  1  0.812900  0.593800  0.269200  1
  O  O1308  1  0.687100  0.093800  0.980800  1
  O  O1309  1  0.906200  0.312900  0.519200  1
  O  O1310  1  0.406200  0.187100  0.230800  1
  O  O1311  1  0.187100  0.406200  0.769200  1
  O  O1312  1  0.093800  0.687100  0.019200  1
  O  O1313  1  0.332800  0.929700  0.422000  1
  O  O1314  1  0.570300  0.832800  0.672000  1
  O  O1315  1  0.832800  0.570300  0.328000  1
  O  O1316  1  0.667200  0.070300  0.922000  1
  O  O1317  1  0.929700  0.332800  0.578000  1
  O  O1318  1  0.429700  0.167200  0.172000  1
  O  O1319  1  0.167200  0.429700  0.828000  1
  O  O1320  1  0.070300  0.667200  0.078000  1
  O  O1321  1  0.542100  0.981300  0.256100  1
  O  O1322  1  0.518700  0.042100  0.506100  1
  O  O1323  1  0.042100  0.518700  0.493900  1
  O  O1324  1  0.457900  0.018700  0.756100  1
  O  O1325  1  0.981300  0.542100  0.743900  1
  O  O1326  1  0.481300  0.957900  0.006100  1
  O  O1327  1  0.957900  0.481300  0.993900  1
  O  O1328  1  0.018700  0.457900  0.243900  1
  O  O1329  1  0.581000  0.951000  0.280000  1
  O  O1330  1  0.549000  0.081000  0.530000  1
  O  O1331  1  0.081000  0.549000  0.470000  1
  O  O1332  1  0.419000  0.049000  0.780000  1
  O  O1333  1  0.951000  0.581000  0.720000  1
  O  O1334  1  0.451000  0.919000  0.030000  1
  O  O1335  1  0.919000  0.451000  0.970000  1
  O  O1336  1  0.049000  0.419000  0.220000  1
  O  O1337  1  0.494400  0.922600  0.298700  1
  O  O1338  1  0.577400  0.994400  0.548700  1
  O  O1339  1  0.994400  0.577400  0.451300  1
  O  O1340  1  0.505600  0.077400  0.798700  1
  O  O1341  1  0.922600  0.494400  0.701300  1
  O  O1342  1  0.422600  0.005600  0.048700  1
  O  O1343  1  0.005600  0.422600  0.951300  1
  O  O1344  1  0.077400  0.505600  0.201300  1
  O  O1345  1  0.416000  0.196300  0.321900  1
  O  O1346  1  0.303700  0.916000  0.571900  1
  O  O1347  1  0.916000  0.303700  0.428100  1
  O  O1348  1  0.584000  0.803700  0.821900  1
  O  O1349  1  0.196300  0.416000  0.678100  1
  O  O1350  1  0.696300  0.084000  0.071900  1
  O  O1351  1  0.084000  0.696300  0.928100  1
  O  O1352  1  0.803700  0.584000  0.178100  1
  O  O1353  1  0.638600  0.697300  0.309000  1
  O  O1354  1  0.802700  0.138600  0.559000  1
  O  O1355  1  0.138600  0.802700  0.441000  1
  O  O1356  1  0.361400  0.302700  0.809000  1
  O  O1357  1  0.697300  0.638600  0.691000  1
  O  O1358  1  0.197300  0.861400  0.059000  1
  O  O1359  1  0.861400  0.197300  0.941000  1
  O  O1360  1  0.302700  0.361400  0.191000  1
  O  O1361  1  0.627800  0.181800  0.482500  1
  O  O1362  1  0.318200  0.127800  0.732500  1
  O  O1363  1  0.127800  0.318200  0.267500  1
  O  O1364  1  0.372200  0.818200  0.982500  1
  O  O1365  1  0.181800  0.627800  0.517500  1
  O  O1366  1  0.681800  0.872200  0.232500  1
  O  O1367  1  0.872200  0.681800  0.767500  1
  O  O1368  1  0.818200  0.372200  0.017500  1
  O  O1369  1  0.781000  0.462000  0.164000  1
  O  O1370  1  0.038000  0.281000  0.414000  1
  O  O1371  1  0.281000  0.038000  0.586000  1
  O  O1372  1  0.219000  0.538000  0.664000  1
  O  O1373  1  0.462000  0.781000  0.836000  1
  O  O1374  1  0.962000  0.719000  0.914000  1
  O  O1375  1  0.719000  0.962000  0.086000  1
  O  O1376  1  0.538000  0.219000  0.336000  1
  O  O1377  1  0.661000  0.111000  0.495000  1
  O  O1378  1  0.389000  0.161000  0.745000  1
  O  O1379  1  0.161000  0.389000  0.255000  1
  O  O1380  1  0.339000  0.889000  0.995000  1
  O  O1381  1  0.111000  0.661000  0.505000  1
  O  O1382  1  0.611000  0.839000  0.245000  1
  O  O1383  1  0.839000  0.611000  0.755000  1
  O  O1384  1  0.889000  0.339000  0.005000  1
  O  O1385  1  0.029700  0.361800  0.273300  1
  O  O1386  1  0.138200  0.529700  0.523300  1
  O  O1387  1  0.529700  0.138200  0.476700  1
  O  O1388  1  0.970300  0.638200  0.773300  1
  O  O1389  1  0.361800  0.029700  0.726700  1
  O  O1390  1  0.861800  0.470300  0.023300  1
  O  O1391  1  0.470300  0.861800  0.976700  1
  O  O1392  1  0.638200  0.970300  0.226700  1
  O  O1393  1  0.759000  0.541000  0.665800  1
  O  O1394  1  0.959000  0.259000  0.915800  1
  O  O1395  1  0.259000  0.959000  0.084200  1
  O  O1396  1  0.241000  0.459000  0.165800  1
  O  O1397  1  0.541000  0.759000  0.334200  1
  O  O1398  1  0.041000  0.741000  0.415800  1
  O  O1399  1  0.741000  0.041000  0.584200  1
  O  O1400  1  0.459000  0.241000  0.834200  1
  O  O1401  1  0.662000  0.338000  0.750000  1
  O  O1402  1  0.162000  0.162000  0.000000  1
  O  O1403  1  0.338000  0.662000  0.250000  1
  O  O1404  1  0.838000  0.838000  0.500000  1
  O  O1405  1  0.656000  0.013000  0.444600  1
  O  O1406  1  0.487000  0.156000  0.694600  1
  O  O1407  1  0.156000  0.487000  0.305400  1
  O  O1408  1  0.344000  0.987000  0.944600  1
  O  O1409  1  0.013000  0.656000  0.555400  1
  O  O1410  1  0.513000  0.844000  0.194600  1
  O  O1411  1  0.844000  0.513000  0.805400  1
  O  O1412  1  0.987000  0.344000  0.055400  1
  O  O1413  1  0.157300  0.892800  0.274200  1
  O  O1414  1  0.607200  0.657300  0.524200  1
  O  O1415  1  0.657300  0.607200  0.475800  1
  O  O1416  1  0.842700  0.107200  0.774200  1
  O  O1417  1  0.892800  0.157300  0.725800  1
  O  O1418  1  0.392800  0.342700  0.024200  1
  O  O1419  1  0.342700  0.392800  0.975800  1
  O  O1420  1  0.107200  0.842700  0.225800  1
  O  O1421  1  0.764000  0.470200  0.713700  1
  O  O1422  1  0.029800  0.264000  0.963700  1
  O  O1423  1  0.264000  0.029800  0.036300  1
  O  O1424  1  0.236000  0.529800  0.213700  1
  O  O1425  1  0.470200  0.764000  0.286300  1
  O  O1426  1  0.970200  0.736000  0.463700  1
  O  O1427  1  0.736000  0.970200  0.536300  1
  O  O1428  1  0.529800  0.236000  0.786300  1
  O  O1429  1  0.440000  0.847000  0.247000  1
  O  O1430  1  0.653000  0.940000  0.497000  1
  O  O1431  1  0.940000  0.653000  0.503000  1
  O  O1432  1  0.560000  0.153000  0.747000  1
  O  O1433  1  0.847000  0.440000  0.753000  1
  O  O1434  1  0.347000  0.060000  0.997000  1
  O  O1435  1  0.060000  0.347000  0.003000  1
  O  O1436  1  0.153000  0.560000  0.253000  1
  O  O1437  1  0.232200  0.510500  0.479800  1
  O  O1438  1  0.989500  0.732200  0.729800  1
  O  O1439  1  0.732200  0.989500  0.270200  1
  O  O1440  1  0.767800  0.489500  0.979800  1
  O  O1441  1  0.510500  0.232200  0.520200  1
  O  O1442  1  0.010500  0.267800  0.229800  1
  O  O1443  1  0.267800  0.010500  0.770200  1
  O  O1444  1  0.489500  0.767800  0.020200  1
  O  O1445  1  0.851000  0.359000  0.804000  1
  O  O1446  1  0.141000  0.351000  0.054000  1
  O  O1447  1  0.351000  0.141000  0.946000  1
  O  O1448  1  0.149000  0.641000  0.304000  1
  O  O1449  1  0.359000  0.851000  0.196000  1
  O  O1450  1  0.859000  0.649000  0.554000  1
  O  O1451  1  0.649000  0.859000  0.446000  1
  O  O1452  1  0.641000  0.149000  0.696000  1
  O  O1453  1  0.789300  0.082900  0.487900  1
  O  O1454  1  0.417100  0.289300  0.737900  1
  O  O1455  1  0.289300  0.417100  0.262100  1
  O  O1456  1  0.210700  0.917100  0.987900  1
  O  O1457  1  0.082900  0.789300  0.512100  1
  O  O1458  1  0.582900  0.710700  0.237900  1
  O  O1459  1  0.710700  0.582900  0.762100  1
  O  O1460  1  0.917100  0.210700  0.012100  1
  O  O1461  1  0.277000  0.169000  0.997000  1
  O  O1462  1  0.331000  0.777000  0.247000  1
  O  O1463  1  0.777000  0.331000  0.753000  1
  O  O1464  1  0.723000  0.831000  0.497000  1
  O  O1465  1  0.169000  0.277000  0.003000  1
  O  O1466  1  0.669000  0.223000  0.747000  1
  O  O1467  1  0.223000  0.669000  0.253000  1
  O  O1468  1  0.831000  0.723000  0.503000  1
  O  O1469  1  0.966100  0.419500  0.330800  1
  O  O1470  1  0.080500  0.466100  0.580800  1
  O  O1471  1  0.466100  0.080500  0.419200  1
  O  O1472  1  0.033900  0.580500  0.830800  1
  O  O1473  1  0.419500  0.966100  0.669200  1
  O  O1474  1  0.919500  0.533900  0.080800  1
  O  O1475  1  0.533900  0.919500  0.919200  1
  O  O1476  1  0.580500  0.033900  0.169200  1
  O  O1477  1  0.918200  0.384600  0.377400  1
  O  O1478  1  0.115400  0.418200  0.627400  1
  O  O1479  1  0.418200  0.115400  0.372600  1
  O  O1480  1  0.081800  0.615400  0.877400  1
  O  O1481  1  0.384600  0.918200  0.622600  1
  O  O1482  1  0.884600  0.581800  0.127400  1
  O  O1483  1  0.581800  0.884600  0.872600  1
  O  O1484  1  0.615400  0.081800  0.122600  1
  O  O1485  1  0.983300  0.350600  0.353800  1
  O  O1486  1  0.149400  0.483300  0.603800  1
  O  O1487  1  0.483300  0.149400  0.396200  1
  O  O1488  1  0.016700  0.649400  0.853800  1
  O  O1489  1  0.350600  0.983300  0.646200  1
  O  O1490  1  0.850600  0.516700  0.103800  1
  O  O1491  1  0.516700  0.850600  0.896200  1
  O  O1492  1  0.649400  0.016700  0.146200  1
  O  O1493  1  0.120400  0.912400  0.388900  1
  O  O1494  1  0.587600  0.620400  0.638900  1
  O  O1495  1  0.620400  0.587600  0.361100  1
  O  O1496  1  0.879600  0.087600  0.888900  1
  O  O1497  1  0.912400  0.120400  0.611100  1
  O  O1498  1  0.412400  0.379600  0.138900  1
  O  O1499  1  0.379600  0.412400  0.861100  1
  O  O1500  1  0.087600  0.879600  0.111100  1
  O  O1501  1  0.812000  0.032800  0.435100  1
  O  O1502  1  0.467200  0.312000  0.685100  1
  O  O1503  1  0.312000  0.467200  0.314900  1
  O  O1504  1  0.188000  0.967200  0.935100  1
  O  O1505  1  0.032800  0.812000  0.564900  1
  O  O1506  1  0.532800  0.688000  0.185100  1
  O  O1507  1  0.688000  0.532800  0.814900  1
  O  O1508  1  0.967200  0.188000  0.064900  1
  O  O1509  1  0.673000  0.945000  0.366000  1
  O  O1510  1  0.555000  0.173000  0.616000  1
  O  O1511  1  0.173000  0.555000  0.384000  1
  O  O1512  1  0.327000  0.055000  0.866000  1
  O  O1513  1  0.945000  0.673000  0.634000  1
  O  O1514  1  0.445000  0.827000  0.116000  1
  O  O1515  1  0.827000  0.445000  0.884000  1
  O  O1516  1  0.055000  0.327000  0.134000  1
  O  O1517  1  0.804000  0.269000  0.794000  1
  O  O1518  1  0.231000  0.304000  0.044000  1
  O  O1519  1  0.304000  0.231000  0.956000  1
  O  O1520  1  0.196000  0.731000  0.294000  1
  O  O1521  1  0.269000  0.804000  0.206000  1
  O  O1522  1  0.769000  0.696000  0.544000  1
  O  O1523  1  0.696000  0.769000  0.456000  1
  O  O1524  1  0.731000  0.196000  0.706000  1
  O  O1525  1  0.723000  0.168000  0.593000  1
  O  O1526  1  0.332000  0.223000  0.843000  1
  O  O1527  1  0.223000  0.332000  0.157000  1
  O  O1528  1  0.277000  0.832000  0.093000  1
  O  O1529  1  0.168000  0.723000  0.407000  1
  O  O1530  1  0.668000  0.777000  0.343000  1
  O  O1531  1  0.777000  0.668000  0.657000  1
  O  O1532  1  0.832000  0.277000  0.907000  1
  O  O1533  1  0.601800  0.665300  0.382200  1
  O  O1534  1  0.834700  0.101800  0.632200  1
  O  O1535  1  0.101800  0.834700  0.367800  1
  O  O1536  1  0.398200  0.334700  0.882200  1
  O  O1537  1  0.665300  0.601800  0.617800  1
  O  O1538  1  0.165300  0.898200  0.132200  1
  O  O1539  1  0.898200  0.165300  0.867800  1
  O  O1540  1  0.334700  0.398200  0.117800  1
  O  O1541  1  0.261000  0.261000  0.000000  1
  O  O1542  1  0.239000  0.761000  0.250000  1
  O  O1543  1  0.761000  0.239000  0.750000  1
  O  O1544  1  0.739000  0.739000  0.500000  1
  O  O1545  1  0.576000  0.879000  0.343000  1
  O  O1546  1  0.621000  0.076000  0.593000  1
  O  O1547  1  0.076000  0.621000  0.407000  1
  O  O1548  1  0.424000  0.121000  0.843000  1
  O  O1549  1  0.879000  0.576000  0.657000  1
  O  O1550  1  0.379000  0.924000  0.093000  1
  O  O1551  1  0.924000  0.379000  0.907000  1
  O  O1552  1  0.121000  0.424000  0.157000  1
  O  O1553  1  0.887000  0.201000  0.791000  1
  O  O1554  1  0.299000  0.387000  0.041000  1
  O  O1555  1  0.387000  0.299000  0.959000  1
  O  O1556  1  0.113000  0.799000  0.291000  1
  O  O1557  1  0.201000  0.887000  0.209000  1
  O  O1558  1  0.701000  0.613000  0.541000  1
  O  O1559  1  0.613000  0.701000  0.459000  1
  O  O1560  1  0.799000  0.113000  0.709000  1
  O  O1561  1  0.693700  0.254000  0.607200  1
  O  O1562  1  0.246000  0.193700  0.857200  1
  O  O1563  1  0.193700  0.246000  0.142800  1
  O  O1564  1  0.306300  0.746000  0.107200  1
  O  O1565  1  0.254000  0.693700  0.392800  1
  O  O1566  1  0.754000  0.806300  0.357200  1
  O  O1567  1  0.806300  0.754000  0.642800  1
  O  O1568  1  0.746000  0.306300  0.892800  1
  O  O1569  1  0.791000  0.376000  0.852000  1
  O  O1570  1  0.124000  0.291000  0.102000  1
  O  O1571  1  0.291000  0.124000  0.898000  1
  O  O1572  1  0.209000  0.624000  0.352000  1
  O  O1573  1  0.376000  0.791000  0.148000  1
  O  O1574  1  0.876000  0.709000  0.602000  1
  O  O1575  1  0.709000  0.876000  0.398000  1
  O  O1576  1  0.624000  0.209000  0.648000  1
  O  O1577  1  0.004000  0.210000  0.319800  1
  O  O1578  1  0.290000  0.504000  0.569800  1
  O  O1579  1  0.504000  0.290000  0.430200  1
  O  O1580  1  0.996000  0.790000  0.819800  1
  O  O1581  1  0.210000  0.004000  0.680200  1
  O  O1582  1  0.710000  0.496000  0.069800  1
  O  O1583  1  0.496000  0.710000  0.930200  1
  O  O1584  1  0.790000  0.996000  0.180200  1
  O  O1585  1  0.696000  0.083000  0.514000  1
  O  O1586  1  0.417000  0.196000  0.764000  1
  O  O1587  1  0.196000  0.417000  0.236000  1
  O  O1588  1  0.304000  0.917000  0.014000  1
  O  O1589  1  0.083000  0.696000  0.486000  1
  O  O1590  1  0.583000  0.804000  0.264000  1
  O  O1591  1  0.804000  0.583000  0.736000  1
  O  O1592  1  0.917000  0.304000  0.986000  1
