# generated using pymatgen
data_H96Pd6C172N42O79
_symmetry_space_group_name_H-M   'P 1'
_cell_length_a   29.18900000
_cell_length_b   29.18900000
_cell_length_c   30.33700000
_cell_angle_alpha   90.00000000
_cell_angle_beta   90.00000000
_cell_angle_gamma   90.00000000
_symmetry_Int_Tables_number   1
_chemical_formula_structural   H96Pd6C172N42O79
_chemical_formula_sum   'H384 Pd24 C688 N168 O316'
_cell_volume   25847.05486198
_cell_formula_units_Z   4
loop_
 _symmetry_equiv_pos_site_id
 _symmetry_equiv_pos_as_xyz
  1  'x, y, z'
loop_
 _atom_site_type_symbol
 _atom_site_label
 _atom_site_symmetry_multiplicity
 _atom_site_fract_x
 _atom_site_fract_y
 _atom_site_fract_z
 _atom_site_occupancy
  H  H1  1  0.499600  0.604000  0.718100  1.0
  H  H2  1  0.896000  0.999600  0.468100  1.0
  H  H3  1  0.999600  0.896000  0.531900  1.0
  H  H4  1  0.500400  0.396000  0.218100  1.0
  H  H5  1  0.604000  0.499600  0.281900  1.0
  H  H6  1  0.104000  0.000400  0.968100  1.0
  H  H7  1  0.000400  0.104000  0.031900  1.0
  H  H8  1  0.396000  0.500400  0.781900  1.0
  H  H9  1  0.448800  0.628700  0.860700  1.0
  H  H10  1  0.871300  0.948800  0.610700  1.0
  H  H11  1  0.948800  0.871300  0.389300  1.0
  H  H12  1  0.551200  0.371300  0.360700  1.0
  H  H13  1  0.628700  0.448800  0.139300  1.0
  H  H14  1  0.128700  0.051200  0.110700  1.0
  H  H15  1  0.051200  0.128700  0.889300  1.0
  H  H16  1  0.371300  0.551200  0.639300  1.0
  H  H17  1  0.364800  0.717700  0.996800  1.0
  H  H18  1  0.782300  0.864800  0.746800  1.0
  H  H19  1  0.864800  0.782300  0.253200  1.0
  H  H20  1  0.635200  0.282300  0.496800  1.0
  H  H21  1  0.717700  0.364800  0.003200  1.0
  H  H22  1  0.217700  0.135200  0.246800  1.0
  H  H23  1  0.135200  0.217700  0.753200  1.0
  H  H24  1  0.282300  0.635200  0.503200  1.0
  H  H25  1  0.390700  0.835900  0.899100  1.0
  H  H26  1  0.664100  0.890700  0.649100  1.0
  H  H27  1  0.890700  0.664100  0.350900  1.0
  H  H28  1  0.609300  0.164100  0.399100  1.0
  H  H29  1  0.835900  0.390700  0.100900  1.0
  H  H30  1  0.335900  0.109300  0.149100  1.0
  H  H31  1  0.109300  0.335900  0.850900  1.0
  H  H32  1  0.164100  0.609300  0.600900  1.0
  H  H33  1  0.505800  0.849800  0.677600  1.0
  H  H34  1  0.650200  0.005800  0.427600  1.0
  H  H35  1  0.005800  0.650200  0.572400  1.0
  H  H36  1  0.494200  0.150200  0.177600  1.0
  H  H37  1  0.849800  0.505800  0.322400  1.0
  H  H38  1  0.349800  0.994200  0.927600  1.0
  H  H39  1  0.994200  0.349800  0.072400  1.0
  H  H40  1  0.150200  0.494200  0.822400  1.0
  H  H41  1  0.445500  0.878600  0.815400  1.0
  H  H42  1  0.621400  0.945500  0.565400  1.0
  H  H43  1  0.945500  0.621400  0.434600  1.0
  H  H44  1  0.554500  0.121400  0.315400  1.0
  H  H45  1  0.878600  0.445500  0.184600  1.0
  H  H46  1  0.378600  0.054500  0.065400  1.0
  H  H47  1  0.054500  0.378600  0.934600  1.0
  H  H48  1  0.121400  0.554500  0.684600  1.0
  H  H49  1  0.248200  0.854100  0.996900  1.0
  H  H50  1  0.645900  0.748200  0.746900  1.0
  H  H51  1  0.748200  0.645900  0.253100  1.0
  H  H52  1  0.751800  0.145900  0.496900  1.0
  H  H53  1  0.854100  0.248200  0.003100  1.0
  H  H54  1  0.354100  0.251800  0.246900  1.0
  H  H55  1  0.251800  0.354100  0.753100  1.0
  H  H56  1  0.145900  0.751800  0.503100  1.0
  H  H57  1  0.202400  0.708400  0.961500  1.0
  H  H58  1  0.791600  0.702400  0.711500  1.0
  H  H59  1  0.702400  0.791600  0.288500  1.0
  H  H60  1  0.797600  0.291600  0.461500  1.0
  H  H61  1  0.708400  0.202400  0.038500  1.0
  H  H62  1  0.208400  0.297600  0.211500  1.0
  H  H63  1  0.297600  0.208400  0.788500  1.0
  H  H64  1  0.291600  0.797600  0.538500  1.0
  H  H65  1  0.382700  0.967600  0.703100  1.0
  H  H66  1  0.532400  0.882700  0.453100  1.0
  H  H67  1  0.882700  0.532400  0.546900  1.0
  H  H68  1  0.617300  0.032400  0.203100  1.0
  H  H69  1  0.967600  0.382700  0.296900  1.0
  H  H70  1  0.467600  0.117300  0.953100  1.0
  H  H71  1  0.117300  0.467600  0.046900  1.0
  H  H72  1  0.032400  0.617300  0.796900  1.0
  H  H73  1  0.359100  0.863700  0.591700  1.0
  H  H74  1  0.636300  0.859100  0.341700  1.0
  H  H75  1  0.859100  0.636300  0.658300  1.0
  H  H76  1  0.640900  0.136300  0.091700  1.0
  H  H77  1  0.863700  0.359100  0.408300  1.0
  H  H78  1  0.363700  0.140900  0.841700  1.0
  H  H79  1  0.140900  0.363700  0.158300  1.0
  H  H80  1  0.136300  0.640900  0.908300  1.0
  H  H81  1  0.098400  0.945000  0.824200  1.0
  H  H82  1  0.555000  0.598400  0.574200  1.0
  H  H83  1  0.598400  0.555000  0.425800  1.0
  H  H84  1  0.901600  0.055000  0.324200  1.0
  H  H85  1  0.945000  0.098400  0.175800  1.0
  H  H86  1  0.445000  0.401600  0.074200  1.0
  H  H87  1  0.401600  0.445000  0.925800  1.0
  H  H88  1  0.055000  0.901600  0.675800  1.0
  H  H89  1  0.041600  0.801600  0.797700  1.0
  H  H90  1  0.698400  0.541600  0.547700  1.0
  H  H91  1  0.541600  0.698400  0.452300  1.0
  H  H92  1  0.958400  0.198400  0.297700  1.0
  H  H93  1  0.801600  0.041600  0.202300  1.0
  H  H94  1  0.301600  0.458400  0.047700  1.0
  H  H95  1  0.458400  0.301600  0.952300  1.0
  H  H96  1  0.198400  0.958400  0.702300  1.0
  H  H97  1  0.571400  0.561600  0.792500  1.0
  H  H98  1  0.938400  0.071400  0.542500  1.0
  H  H99  1  0.071400  0.938400  0.457500  1.0
  H  H100  1  0.428600  0.438400  0.292500  1.0
  H  H101  1  0.561600  0.571400  0.207500  1.0
  H  H102  1  0.061600  0.928600  0.042500  1.0
  H  H103  1  0.928600  0.061600  0.957500  1.0
  H  H104  1  0.438400  0.428600  0.707500  1.0
  H  H105  1  0.673100  0.477900  0.803200  1.0
  H  H106  1  0.022100  0.173100  0.553200  1.0
  H  H107  1  0.173100  0.022100  0.446800  1.0
  H  H108  1  0.326900  0.522100  0.303200  1.0
  H  H109  1  0.477900  0.673100  0.196800  1.0
  H  H110  1  0.977900  0.826900  0.053200  1.0
  H  H111  1  0.826900  0.977900  0.946800  1.0
  H  H112  1  0.522100  0.326900  0.696800  1.0
  H  H113  1  0.224000  0.814900  0.078700  1.0
  H  H114  1  0.685100  0.724000  0.828700  1.0
  H  H115  1  0.724000  0.685100  0.171300  1.0
  H  H116  1  0.776000  0.185100  0.578700  1.0
  H  H117  1  0.814900  0.224000  0.921300  1.0
  H  H118  1  0.314900  0.276000  0.328700  1.0
  H  H119  1  0.276000  0.314900  0.671300  1.0
  H  H120  1  0.185100  0.776000  0.421300  1.0
  H  H121  1  0.239700  0.861100  0.203900  1.0
  H  H122  1  0.638900  0.739700  0.953900  1.0
  H  H123  1  0.739700  0.638900  0.046100  1.0
  H  H124  1  0.760300  0.138900  0.703900  1.0
  H  H125  1  0.861100  0.239700  0.796100  1.0
  H  H126  1  0.361100  0.260300  0.453900  1.0
  H  H127  1  0.260300  0.361100  0.546100  1.0
  H  H128  1  0.138900  0.760300  0.296100  1.0
  H  H129  1  0.392600  0.867800  0.177000  1.0
  H  H130  1  0.632200  0.892600  0.927000  1.0
  H  H131  1  0.892600  0.632200  0.073000  1.0
  H  H132  1  0.607400  0.132200  0.677000  1.0
  H  H133  1  0.867800  0.392600  0.823000  1.0
  H  H134  1  0.367800  0.107400  0.427000  1.0
  H  H135  1  0.107400  0.367800  0.573000  1.0
  H  H136  1  0.132200  0.607400  0.323000  1.0
  H  H137  1  0.484400  0.816400  0.086400  1.0
  H  H138  1  0.683600  0.984400  0.836400  1.0
  H  H139  1  0.984400  0.683600  0.163600  1.0
  H  H140  1  0.515600  0.183600  0.586400  1.0
  H  H141  1  0.816400  0.484400  0.913600  1.0
  H  H142  1  0.316400  0.015600  0.336400  1.0
  H  H143  1  0.015600  0.316400  0.663600  1.0
  H  H144  1  0.183600  0.515600  0.413600  1.0
  H  H145  1  0.420700  0.996200  0.603900  1.0
  H  H146  1  0.503800  0.920700  0.353900  1.0
  H  H147  1  0.920700  0.503800  0.646100  1.0
  H  H148  1  0.579300  0.003800  0.103900  1.0
  H  H149  1  0.996200  0.420700  0.396100  1.0
  H  H150  1  0.496200  0.079300  0.853900  1.0
  H  H151  1  0.079300  0.496200  0.146100  1.0
  H  H152  1  0.003800  0.579300  0.896100  1.0
  H  H153  1  0.471000  0.077400  0.532900  1.0
  H  H154  1  0.422600  0.971000  0.282900  1.0
  H  H155  1  0.971000  0.422600  0.717100  1.0
  H  H156  1  0.529000  0.922600  0.032900  1.0
  H  H157  1  0.077400  0.471000  0.467100  1.0
  H  H158  1  0.577400  0.029000  0.782900  1.0
  H  H159  1  0.029000  0.577400  0.217100  1.0
  H  H160  1  0.922600  0.529000  0.967100  1.0
  H  H161  1  0.612800  0.037700  0.623700  1.0
  H  H162  1  0.462300  0.112800  0.373700  1.0
  H  H163  1  0.112800  0.462300  0.626300  1.0
  H  H164  1  0.387200  0.962300  0.123700  1.0
  H  H165  1  0.037700  0.612800  0.376300  1.0
  H  H166  1  0.537700  0.887200  0.873700  1.0
  H  H167  1  0.887200  0.537700  0.126300  1.0
  H  H168  1  0.962300  0.387200  0.876300  1.0
  H  H169  1  0.644000  0.959100  0.727800  1.0
  H  H170  1  0.540900  0.144000  0.477800  1.0
  H  H171  1  0.144000  0.540900  0.522200  1.0
  H  H172  1  0.356000  0.040900  0.227800  1.0
  H  H173  1  0.959100  0.644000  0.272200  1.0
  H  H174  1  0.459100  0.856000  0.977800  1.0
  H  H175  1  0.856000  0.459100  0.022200  1.0
  H  H176  1  0.040900  0.356000  0.772200  1.0
  H  H177  1  0.906600  0.063700  0.782100  1.0
  H  H178  1  0.436300  0.406600  0.532100  1.0
  H  H179  1  0.406600  0.436300  0.467900  1.0
  H  H180  1  0.093400  0.936300  0.282100  1.0
  H  H181  1  0.063700  0.906600  0.217900  1.0
  H  H182  1  0.563700  0.593400  0.032100  1.0
  H  H183  1  0.593400  0.563700  0.967900  1.0
  H  H184  1  0.936300  0.093400  0.717900  1.0
  H  H185  1  0.923900  0.969200  0.876800  1.0
  H  H186  1  0.530800  0.423900  0.626800  1.0
  H  H187  1  0.423900  0.530800  0.373200  1.0
  H  H188  1  0.076100  0.030800  0.376800  1.0
  H  H189  1  0.969200  0.923900  0.123200  1.0
  H  H190  1  0.469200  0.576100  0.126800  1.0
  H  H191  1  0.576100  0.469200  0.873200  1.0
  H  H192  1  0.030800  0.076100  0.623200  1.0
  H  H193  1  0.488300  0.680400  0.742300  1.0
  H  H194  1  0.819600  0.988300  0.492300  1.0
  H  H195  1  0.988300  0.819600  0.507700  1.0
  H  H196  1  0.511700  0.319600  0.242300  1.0
  H  H197  1  0.680400  0.488300  0.257700  1.0
  H  H198  1  0.180400  0.011700  0.992300  1.0
  H  H199  1  0.011700  0.180400  0.007700  1.0
  H  H200  1  0.319600  0.511700  0.757700  1.0
  H  H201  1  0.468800  0.556200  0.834300  1.0
  H  H202  1  0.943800  0.968800  0.584300  1.0
  H  H203  1  0.968800  0.943800  0.415700  1.0
  H  H204  1  0.531200  0.443800  0.334300  1.0
  H  H205  1  0.556200  0.468800  0.165700  1.0
  H  H206  1  0.056200  0.031200  0.084300  1.0
  H  H207  1  0.031200  0.056200  0.915700  1.0
  H  H208  1  0.443800  0.531200  0.665700  1.0
  H  H209  1  0.408400  0.704700  0.938400  1.0
  H  H210  1  0.795300  0.908400  0.688400  1.0
  H  H211  1  0.908400  0.795300  0.311600  1.0
  H  H212  1  0.591600  0.295300  0.438400  1.0
  H  H213  1  0.704700  0.408400  0.061600  1.0
  H  H214  1  0.204700  0.091600  0.188400  1.0
  H  H215  1  0.091600  0.204700  0.811600  1.0
  H  H216  1  0.295300  0.591600  0.561600  1.0
  H  H217  1  0.353200  0.848700  0.962600  1.0
  H  H218  1  0.651300  0.853200  0.712600  1.0
  H  H219  1  0.853200  0.651300  0.287400  1.0
  H  H220  1  0.646800  0.151300  0.462600  1.0
  H  H221  1  0.848700  0.353200  0.037400  1.0
  H  H222  1  0.348700  0.146800  0.212600  1.0
  H  H223  1  0.146800  0.348700  0.787400  1.0
  H  H224  1  0.151300  0.646800  0.537400  1.0
  H  H225  1  0.495400  0.790600  0.725900  1.0
  H  H226  1  0.709400  0.995400  0.475900  1.0
  H  H227  1  0.995400  0.709400  0.524100  1.0
  H  H228  1  0.504600  0.209400  0.225900  1.0
  H  H229  1  0.790600  0.495400  0.274100  1.0
  H  H230  1  0.290600  0.004600  0.975900  1.0
  H  H231  1  0.004600  0.290600  0.024100  1.0
  H  H232  1  0.209400  0.504600  0.774100  1.0
  H  H233  1  0.458700  0.937600  0.763400  1.0
  H  H234  1  0.562400  0.958700  0.513400  1.0
  H  H235  1  0.958700  0.562400  0.486600  1.0
  H  H236  1  0.541300  0.062400  0.263400  1.0
  H  H237  1  0.937600  0.458700  0.236600  1.0
  H  H238  1  0.437600  0.041300  0.013400  1.0
  H  H239  1  0.041300  0.437600  0.986600  1.0
  H  H240  1  0.062400  0.541300  0.736600  1.0
  H  H241  1  0.194400  0.845000  0.940500  1.0
  H  H242  1  0.655000  0.694400  0.690500  1.0
  H  H243  1  0.694400  0.655000  0.309500  1.0
  H  H244  1  0.805600  0.155000  0.440500  1.0
  H  H245  1  0.845000  0.194400  0.059500  1.0
  H  H246  1  0.345000  0.305600  0.190500  1.0
  H  H247  1  0.305600  0.345000  0.809500  1.0
  H  H248  1  0.155000  0.805600  0.559500  1.0
  H  H249  1  0.264400  0.722400  0.007700  1.0
  H  H250  1  0.777600  0.764400  0.757700  1.0
  H  H251  1  0.764400  0.777600  0.242300  1.0
  H  H252  1  0.735600  0.277600  0.507700  1.0
  H  H253  1  0.722400  0.264400  0.992300  1.0
  H  H254  1  0.222400  0.235600  0.257700  1.0
  H  H255  1  0.235600  0.222400  0.742300  1.0
  H  H256  1  0.277600  0.735600  0.492300  1.0
  H  H257  1  0.310600  0.948000  0.684200  1.0
  H  H258  1  0.552000  0.810600  0.434200  1.0
  H  H259  1  0.810600  0.552000  0.565800  1.0
  H  H260  1  0.689400  0.052000  0.184200  1.0
  H  H261  1  0.948000  0.310600  0.315800  1.0
  H  H262  1  0.448000  0.189400  0.934200  1.0
  H  H263  1  0.189400  0.448000  0.065800  1.0
  H  H264  1  0.052000  0.689400  0.815800  1.0
  H  H265  1  0.433300  0.887400  0.612900  1.0
  H  H266  1  0.612600  0.933300  0.362900  1.0
  H  H267  1  0.933300  0.612600  0.637100  1.0
  H  H268  1  0.566700  0.112600  0.112900  1.0
  H  H269  1  0.887400  0.433300  0.387100  1.0
  H  H270  1  0.387400  0.066700  0.862900  1.0
  H  H271  1  0.066700  0.387400  0.137100  1.0
  H  H272  1  0.112600  0.566700  0.887100  1.0
  H  H273  1  0.124500  0.887400  0.868900  1.0
  H  H274  1  0.612600  0.624500  0.618900  1.0
  H  H275  1  0.624500  0.612600  0.381100  1.0
  H  H276  1  0.875500  0.112600  0.368900  1.0
  H  H277  1  0.887400  0.124500  0.131100  1.0
  H  H278  1  0.387400  0.375500  0.118900  1.0
  H  H279  1  0.375500  0.387400  0.881100  1.0
  H  H280  1  0.112600  0.875500  0.631100  1.0
  H  H281  1  0.015600  0.863500  0.761200  1.0
  H  H282  1  0.636500  0.515600  0.511200  1.0
  H  H283  1  0.515600  0.636500  0.488800  1.0
  H  H284  1  0.984400  0.136500  0.261200  1.0
  H  H285  1  0.863500  0.015600  0.238800  1.0
  H  H286  1  0.363500  0.484400  0.011200  1.0
  H  H287  1  0.484400  0.363500  0.988800  1.0
  H  H288  1  0.136500  0.984400  0.738800  1.0
  H  H289  1  0.643000  0.547200  0.816500  1.0
  H  H290  1  0.952800  0.143000  0.566500  1.0
  H  H291  1  0.143000  0.952800  0.433500  1.0
  H  H292  1  0.357000  0.452800  0.316500  1.0
  H  H293  1  0.547200  0.643000  0.183500  1.0
  H  H294  1  0.047200  0.857000  0.066500  1.0
  H  H295  1  0.857000  0.047200  0.933500  1.0
  H  H296  1  0.452800  0.357000  0.683500  1.0
  H  H297  1  0.629400  0.420900  0.776300  1.0
  H  H298  1  0.079100  0.129400  0.526300  1.0
  H  H299  1  0.129400  0.079100  0.473700  1.0
  H  H300  1  0.370600  0.579100  0.276300  1.0
  H  H301  1  0.420900  0.629400  0.223700  1.0
  H  H302  1  0.920900  0.870600  0.026300  1.0
  H  H303  1  0.870600  0.920900  0.973700  1.0
  H  H304  1  0.579100  0.370600  0.723700  1.0
  H  H305  1  0.187500  0.835100  0.141500  1.0
  H  H306  1  0.664900  0.687500  0.891500  1.0
  H  H307  1  0.687500  0.664900  0.108500  1.0
  H  H308  1  0.812500  0.164900  0.641500  1.0
  H  H309  1  0.835100  0.187500  0.858500  1.0
  H  H310  1  0.335100  0.312500  0.391500  1.0
  H  H311  1  0.312500  0.335100  0.608500  1.0
  H  H312  1  0.164900  0.812500  0.358500  1.0
  H  H313  1  0.316400  0.862100  0.192600  1.0
  H  H314  1  0.637900  0.816400  0.942600  1.0
  H  H315  1  0.816400  0.637900  0.057400  1.0
  H  H316  1  0.683600  0.137900  0.692600  1.0
  H  H317  1  0.862100  0.316400  0.807400  1.0
  H  H318  1  0.362100  0.183600  0.442600  1.0
  H  H319  1  0.183600  0.362100  0.557400  1.0
  H  H320  1  0.137900  0.683600  0.307400  1.0
  H  H321  1  0.471200  0.852500  0.150300  1.0
  H  H322  1  0.647500  0.971200  0.900300  1.0
  H  H323  1  0.971200  0.647500  0.099700  1.0
  H  H324  1  0.528800  0.147500  0.650300  1.0
  H  H325  1  0.852500  0.471200  0.849700  1.0
  H  H326  1  0.352500  0.028800  0.400300  1.0
  H  H327  1  0.028800  0.352500  0.599700  1.0
  H  H328  1  0.147500  0.528800  0.349700  1.0
  H  H329  1  0.425300  0.798600  0.043100  1.0
  H  H330  1  0.701400  0.925300  0.793100  1.0
  H  H331  1  0.925300  0.701400  0.206900  1.0
  H  H332  1  0.574700  0.201400  0.543100  1.0
  H  H333  1  0.798600  0.425300  0.956900  1.0
  H  H334  1  0.298600  0.074700  0.293100  1.0
  H  H335  1  0.074700  0.298600  0.706900  1.0
  H  H336  1  0.201400  0.574700  0.456900  1.0
  H  H337  1  0.416600  0.058500  0.567600  1.0
  H  H338  1  0.441500  0.916600  0.317600  1.0
  H  H339  1  0.916600  0.441500  0.682400  1.0
  H  H340  1  0.583400  0.941500  0.067600  1.0
  H  H341  1  0.058500  0.416600  0.432400  1.0
  H  H342  1  0.558500  0.083400  0.817600  1.0
  H  H343  1  0.083400  0.558500  0.182400  1.0
  H  H344  1  0.941500  0.583400  0.932400  1.0
  H  H345  1  0.544800  0.074100  0.573300  1.0
  H  H346  1  0.425900  0.044800  0.323300  1.0
  H  H347  1  0.044800  0.425900  0.676700  1.0
  H  H348  1  0.455200  0.925900  0.073300  1.0
  H  H349  1  0.074100  0.544800  0.426700  1.0
  H  H350  1  0.574100  0.955200  0.823300  1.0
  H  H351  1  0.955200  0.574100  0.176700  1.0
  H  H352  1  0.925900  0.455200  0.926700  1.0
  H  H353  1  0.663900  0.015400  0.668800  1.0
  H  H354  1  0.484600  0.163900  0.418800  1.0
  H  H355  1  0.163900  0.484600  0.581200  1.0
  H  H356  1  0.336100  0.984600  0.168800  1.0
  H  H357  1  0.015400  0.663900  0.331200  1.0
  H  H358  1  0.515400  0.836100  0.918800  1.0
  H  H359  1  0.836100  0.515400  0.081200  1.0
  H  H360  1  0.984600  0.336100  0.831200  1.0
  H  H361  1  0.564700  0.934700  0.725600  1.0
  H  H362  1  0.565300  0.064700  0.475600  1.0
  H  H363  1  0.064700  0.565300  0.524400  1.0
  H  H364  1  0.435300  0.065300  0.225600  1.0
  H  H365  1  0.934700  0.564700  0.274400  1.0
  H  H366  1  0.434700  0.935300  0.975600  1.0
  H  H367  1  0.935300  0.434700  0.024400  1.0
  H  H368  1  0.065300  0.435300  0.774400  1.0
  H  H369  1  0.884400  0.031500  0.848600  1.0
  H  H370  1  0.468500  0.384400  0.598600  1.0
  H  H371  1  0.384400  0.468500  0.401400  1.0
  H  H372  1  0.115600  0.968500  0.348600  1.0
  H  H373  1  0.031500  0.884400  0.151400  1.0
  H  H374  1  0.531500  0.615600  0.098600  1.0
  H  H375  1  0.615600  0.531500  0.901400  1.0
  H  H376  1  0.968500  0.115600  0.651400  1.0
  H  H377  1  0.985700  0.939000  0.838500  1.0
  H  H378  1  0.561000  0.485700  0.588500  1.0
  H  H379  1  0.485700  0.561000  0.411500  1.0
  H  H380  1  0.014300  0.061000  0.338500  1.0
  H  H381  1  0.939000  0.985700  0.161500  1.0
  H  H382  1  0.439000  0.514300  0.088500  1.0
  H  H383  1  0.514300  0.439000  0.911500  1.0
  H  H384  1  0.061000  0.014300  0.661500  1.0
  Pd  Pd385  1  0.490100  0.510000  0.750000  1
  Pd  Pd386  1  0.990000  0.990100  0.500000  1
  Pd  Pd387  1  0.509900  0.490000  0.250000  1
  Pd  Pd388  1  0.010000  0.009900  0.000000  1
  Pd  Pd389  1  0.036700  0.963300  0.750000  1
  Pd  Pd390  1  0.536700  0.536700  0.500000  1
  Pd  Pd391  1  0.963300  0.036700  0.250000  1
  Pd  Pd392  1  0.463300  0.463300  0.000000  1
  Pd  Pd393  1  0.480800  0.949800  0.670800  1.0
  Pd  Pd394  1  0.550200  0.980800  0.420800  1.0
  Pd  Pd395  1  0.980800  0.550200  0.579200  1.0
  Pd  Pd396  1  0.519200  0.050200  0.170800  1.0
  Pd  Pd397  1  0.949800  0.480800  0.329200  1.0
  Pd  Pd398  1  0.449800  0.019200  0.920800  1.0
  Pd  Pd399  1  0.019200  0.449800  0.079200  1.0
  Pd  Pd400  1  0.050200  0.519200  0.829200  1.0
  Pd  Pd401  1  0.320200  0.800800  0.043000  1.0
  Pd  Pd402  1  0.699200  0.820200  0.793000  1.0
  Pd  Pd403  1  0.820200  0.699200  0.207000  1.0
  Pd  Pd404  1  0.679800  0.199200  0.543000  1.0
  Pd  Pd405  1  0.800800  0.320200  0.957000  1.0
  Pd  Pd406  1  0.300800  0.179800  0.293000  1.0
  Pd  Pd407  1  0.179800  0.300800  0.707000  1.0
  Pd  Pd408  1  0.199200  0.679800  0.457000  1.0
  C  C409  1  0.272000  0.904300  0.828600  1
  C  C410  1  0.595700  0.772000  0.578600  1
  C  C411  1  0.772000  0.595700  0.421400  1
  C  C412  1  0.728000  0.095700  0.328600  1
  C  C413  1  0.904300  0.272000  0.171400  1
  C  C414  1  0.404300  0.228000  0.078600  1
  C  C415  1  0.228000  0.404300  0.921400  1
  C  C416  1  0.095700  0.728000  0.671400  1
  C  C417  1  0.288000  0.869400  0.864400  1
  C  C418  1  0.630600  0.788000  0.614400  1
  C  C419  1  0.788000  0.630600  0.385600  1
  C  C420  1  0.712000  0.130600  0.364400  1
  C  C421  1  0.869400  0.288000  0.135600  1
  C  C422  1  0.369400  0.212000  0.114400  1
  C  C423  1  0.212000  0.369400  0.885600  1
  C  C424  1  0.130600  0.712000  0.635600  1
  C  C425  1  0.224000  0.890700  0.816800  1
  C  C426  1  0.609300  0.724000  0.566800  1
  C  C427  1  0.724000  0.609300  0.433200  1
  C  C428  1  0.776000  0.109300  0.316800  1
  C  C429  1  0.890700  0.224000  0.183200  1
  C  C430  1  0.390700  0.276000  0.066800  1
  C  C431  1  0.276000  0.390700  0.933200  1
  C  C432  1  0.109300  0.776000  0.683200  1
  C  C433  1  0.303400  0.907900  0.791900  1
  C  C434  1  0.592100  0.803400  0.541900  1
  C  C435  1  0.803400  0.592100  0.458100  1
  C  C436  1  0.696600  0.092100  0.291900  1
  C  C437  1  0.907900  0.303400  0.208100  1
  C  C438  1  0.407900  0.196600  0.041900  1
  C  C439  1  0.196600  0.407900  0.958100  1
  C  C440  1  0.092100  0.696600  0.708100  1
  C  C441  1  0.221700  0.846500  0.799500  1
  C  C442  1  0.653500  0.721700  0.549500  1
  C  C443  1  0.721700  0.653500  0.450500  1
  C  C444  1  0.778300  0.153500  0.299500  1
  C  C445  1  0.846500  0.221700  0.200500  1
  C  C446  1  0.346500  0.278300  0.049500  1
  C  C447  1  0.278300  0.346500  0.950500  1
  C  C448  1  0.153500  0.778300  0.700500  1
  C  C449  1  0.306000  0.855700  0.771400  1
  C  C450  1  0.644300  0.806000  0.521400  1
  C  C451  1  0.806000  0.644300  0.478600  1
  C  C452  1  0.694000  0.144300  0.271400  1
  C  C453  1  0.855700  0.306000  0.228600  1
  C  C454  1  0.355700  0.194000  0.021400  1
  C  C455  1  0.194000  0.355700  0.978600  1
  C  C456  1  0.144300  0.694000  0.728600  1
  C  C457  1  0.319900  0.823100  0.801600  1
  C  C458  1  0.676900  0.819900  0.551600  1
  C  C459  1  0.819900  0.676900  0.448400  1
  C  C460  1  0.680100  0.176900  0.301600  1
  C  C461  1  0.823100  0.319900  0.198400  1
  C  C462  1  0.323100  0.180100  0.051600  1
  C  C463  1  0.180100  0.323100  0.948400  1
  C  C464  1  0.176900  0.680100  0.698400  1
  C  C465  1  0.291700  0.824400  0.842200  1
  C  C466  1  0.675600  0.791700  0.592200  1
  C  C467  1  0.791700  0.675600  0.407800  1
  C  C468  1  0.708300  0.175600  0.342200  1
  C  C469  1  0.824400  0.291700  0.157800  1
  C  C470  1  0.324400  0.208300  0.092200  1
  C  C471  1  0.208300  0.324400  0.907800  1
  C  C472  1  0.175600  0.708300  0.657800  1
  C  C473  1  0.242400  0.810800  0.827400  1
  C  C474  1  0.689200  0.742400  0.577400  1
  C  C475  1  0.742400  0.689200  0.422600  1
  C  C476  1  0.757600  0.189200  0.327400  1
  C  C477  1  0.810800  0.242400  0.172600  1
  C  C478  1  0.310800  0.257600  0.077400  1
  C  C479  1  0.257600  0.310800  0.922600  1
  C  C480  1  0.189200  0.757600  0.672600  1
  C  C481  1  0.252000  0.846000  0.754100  1
  C  C482  1  0.654000  0.752000  0.504100  1
  C  C483  1  0.752000  0.654000  0.495900  1
  C  C484  1  0.748000  0.154000  0.254100  1
  C  C485  1  0.846000  0.252000  0.245900  1
  C  C486  1  0.346000  0.248000  0.004100  1
  C  C487  1  0.248000  0.346000  0.995900  1
  C  C488  1  0.154000  0.748000  0.745900  1
  C  C489  1  0.297200  0.646700  0.900100  1
  C  C490  1  0.853300  0.797200  0.650100  1
  C  C491  1  0.797200  0.853300  0.349900  1
  C  C492  1  0.702800  0.353300  0.400100  1
  C  C493  1  0.646700  0.297200  0.099900  1
  C  C494  1  0.146700  0.202800  0.150100  1
  C  C495  1  0.202800  0.146700  0.849900  1
  C  C496  1  0.353300  0.702800  0.599900  1
  C  C497  1  0.249600  0.586500  0.867200  1
  C  C498  1  0.913500  0.749600  0.617200  1
  C  C499  1  0.749600  0.913500  0.382800  1
  C  C500  1  0.750400  0.413500  0.367200  1
  C  C501  1  0.586500  0.249600  0.132800  1
  C  C502  1  0.086500  0.250400  0.117200  1
  C  C503  1  0.250400  0.086500  0.882800  1
  C  C504  1  0.413500  0.750400  0.632800  1
  C  C505  1  0.317100  0.630000  0.809700  1
  C  C506  1  0.870000  0.817100  0.559700  1
  C  C507  1  0.817100  0.870000  0.440300  1
  C  C508  1  0.682900  0.370000  0.309700  1
  C  C509  1  0.630000  0.317100  0.190300  1
  C  C510  1  0.130000  0.182900  0.059700  1
  C  C511  1  0.182900  0.130000  0.940300  1
  C  C512  1  0.370000  0.682900  0.690300  1
  C  C513  1  0.317700  0.679300  0.830000  1
  C  C514  1  0.820700  0.817700  0.580000  1
  C  C515  1  0.817700  0.820700  0.420000  1
  C  C516  1  0.682300  0.320700  0.330000  1
  C  C517  1  0.679300  0.317700  0.170000  1
  C  C518  1  0.179300  0.182300  0.080000  1
  C  C519  1  0.182300  0.179300  0.920000  1
  C  C520  1  0.320700  0.682300  0.670000  1
  C  C521  1  0.236700  0.673300  0.848500  1
  C  C522  1  0.826700  0.736700  0.598500  1
  C  C523  1  0.736700  0.826700  0.401500  1
  C  C524  1  0.763300  0.326700  0.348500  1
  C  C525  1  0.673300  0.236700  0.151500  1
  C  C526  1  0.173300  0.263300  0.098500  1
  C  C527  1  0.263300  0.173300  0.901500  1
  C  C528  1  0.326700  0.763300  0.651500  1
  C  C529  1  0.294900  0.599500  0.881300  1
  C  C530  1  0.900500  0.794900  0.631300  1
  C  C531  1  0.794900  0.900500  0.368700  1
  C  C532  1  0.705100  0.400500  0.381300  1
  C  C533  1  0.599500  0.294900  0.118700  1
  C  C534  1  0.099500  0.205100  0.131300  1
  C  C535  1  0.205100  0.099500  0.868700  1
  C  C536  1  0.400500  0.705100  0.618700  1
  C  C537  1  0.331000  0.596200  0.843500  1
  C  C538  1  0.903800  0.831000  0.593500  1
  C  C539  1  0.831000  0.903800  0.406500  1
  C  C540  1  0.669000  0.403800  0.343500  1
  C  C541  1  0.596200  0.331000  0.156500  1
  C  C542  1  0.096200  0.169000  0.093500  1
  C  C543  1  0.169000  0.096200  0.906500  1
  C  C544  1  0.403800  0.669000  0.656500  1
  C  C545  1  0.287100  0.681500  0.869200  1
  C  C546  1  0.818500  0.787100  0.619200  1
  C  C547  1  0.787100  0.818500  0.380800  1
  C  C548  1  0.712900  0.318500  0.369200  1
  C  C549  1  0.681500  0.287100  0.130800  1
  C  C550  1  0.181500  0.212900  0.119200  1
  C  C551  1  0.212900  0.181500  0.880800  1
  C  C552  1  0.318500  0.712900  0.630800  1
  C  C553  1  0.238800  0.620700  0.825700  1
  C  C554  1  0.879300  0.738800  0.575700  1
  C  C555  1  0.738800  0.879300  0.424300  1
  C  C556  1  0.761200  0.379300  0.325700  1
  C  C557  1  0.620700  0.238800  0.174300  1
  C  C558  1  0.120700  0.261200  0.075700  1
  C  C559  1  0.261200  0.120700  0.924300  1
  C  C560  1  0.379300  0.761200  0.674300  1
  C  C561  1  0.270100  0.619400  0.792100  1
  C  C562  1  0.880600  0.770100  0.542100  1
  C  C563  1  0.770100  0.880600  0.457900  1
  C  C564  1  0.729900  0.380600  0.292100  1
  C  C565  1  0.619400  0.270100  0.207900  1
  C  C566  1  0.119400  0.229900  0.042100  1
  C  C567  1  0.229900  0.119400  0.957900  1
  C  C568  1  0.380600  0.729900  0.707900  1
  C  C569  1  0.489800  0.609700  0.746800  1.0
  C  C570  1  0.890300  0.989800  0.496800  1.0
  C  C571  1  0.989800  0.890300  0.503200  1.0
  C  C572  1  0.510200  0.390300  0.246800  1.0
  C  C573  1  0.609700  0.489800  0.253200  1.0
  C  C574  1  0.109700  0.010200  0.996800  1.0
  C  C575  1  0.010200  0.109700  0.003200  1.0
  C  C576  1  0.390300  0.510200  0.753200  1.0
  C  C577  1  0.467100  0.663000  0.802400  1.0
  C  C578  1  0.837000  0.967100  0.552400  1.0
  C  C579  1  0.967100  0.837000  0.447600  1.0
  C  C580  1  0.532900  0.337000  0.302400  1.0
  C  C581  1  0.663000  0.467100  0.197600  1.0
  C  C582  1  0.163000  0.032900  0.052400  1.0
  C  C583  1  0.032900  0.163000  0.947600  1.0
  C  C584  1  0.337000  0.532900  0.697600  1.0
  C  C585  1  0.470400  0.581400  0.815500  1.0
  C  C586  1  0.918600  0.970400  0.565500  1.0
  C  C587  1  0.970400  0.918600  0.434500  1.0
  C  C588  1  0.529600  0.418600  0.315500  1.0
  C  C589  1  0.581400  0.470400  0.184500  1.0
  C  C590  1  0.081400  0.029600  0.065500  1.0
  C  C591  1  0.029600  0.081400  0.934500  1.0
  C  C592  1  0.418600  0.529600  0.684500  1.0
  C  C593  1  0.371900  0.741700  0.977800  1.0
  C  C594  1  0.758300  0.871900  0.727800  1.0
  C  C595  1  0.871900  0.758300  0.272200  1.0
  C  C596  1  0.628100  0.258300  0.477800  1.0
  C  C597  1  0.741700  0.371900  0.022200  1.0
  C  C598  1  0.241700  0.128100  0.227800  1.0
  C  C599  1  0.128100  0.241700  0.772200  1.0
  C  C600  1  0.258300  0.628100  0.522200  1.0
  C  C601  1  0.405300  0.769300  0.909900  1.0
  C  C602  1  0.730700  0.905300  0.659900  1.0
  C  C603  1  0.905300  0.730700  0.340100  1.0
  C  C604  1  0.594700  0.230700  0.409900  1.0
  C  C605  1  0.769300  0.405300  0.090100  1.0
  C  C606  1  0.269300  0.094700  0.159900  1.0
  C  C607  1  0.094700  0.269300  0.840100  1.0
  C  C608  1  0.230700  0.594700  0.590100  1.0
  C  C609  1  0.364100  0.819400  0.956800  1.0
  C  C610  1  0.680600  0.864100  0.706800  1.0
  C  C611  1  0.864100  0.680600  0.293200  1.0
  C  C612  1  0.635900  0.180600  0.456800  1.0
  C  C613  1  0.819400  0.364100  0.043200  1.0
  C  C614  1  0.319400  0.135900  0.206800  1.0
  C  C615  1  0.135900  0.319400  0.793200  1.0
  C  C616  1  0.180600  0.635900  0.543200  1.0
  C  C617  1  0.493700  0.855900  0.705300  1.0
  C  C618  1  0.644100  0.993700  0.455300  1.0
  C  C619  1  0.993700  0.644100  0.544700  1.0
  C  C620  1  0.506300  0.144100  0.205300  1.0
  C  C621  1  0.855900  0.493700  0.294700  1.0
  C  C622  1  0.355900  0.006300  0.955300  1.0
  C  C623  1  0.006300  0.355900  0.044700  1.0
  C  C624  1  0.144100  0.506300  0.794700  1.0
  C  C625  1  0.468800  0.826400  0.775400  1.0
  C  C626  1  0.673600  0.968800  0.525400  1.0
  C  C627  1  0.968800  0.673600  0.474600  1.0
  C  C628  1  0.531200  0.173600  0.275400  1.0
  C  C629  1  0.826400  0.468800  0.224600  1.0
  C  C630  1  0.326400  0.031200  0.025400  1.0
  C  C631  1  0.031200  0.326400  0.974600  1.0
  C  C632  1  0.173600  0.531200  0.724600  1.0
  C  C633  1  0.465700  0.907500  0.756000  1.0
  C  C634  1  0.592500  0.965700  0.506000  1.0
  C  C635  1  0.965700  0.592500  0.494000  1.0
  C  C636  1  0.534300  0.092500  0.256000  1.0
  C  C637  1  0.907500  0.465700  0.244000  1.0
  C  C638  1  0.407500  0.034300  0.006000  1.0
  C  C639  1  0.034300  0.407500  0.994000  1.0
  C  C640  1  0.092500  0.534300  0.744000  1.0
  C  C641  1  0.241000  0.824800  0.987200  1.0
  C  C642  1  0.675200  0.741000  0.737200  1.0
  C  C643  1  0.741000  0.675200  0.262800  1.0
  C  C644  1  0.759000  0.175200  0.487200  1.0
  C  C645  1  0.824800  0.241000  0.012800  1.0
  C  C646  1  0.324800  0.259000  0.237200  1.0
  C  C647  1  0.259000  0.324800  0.762800  1.0
  C  C648  1  0.175200  0.759000  0.512800  1.0
  C  C649  1  0.192900  0.776200  0.947600  1.0
  C  C650  1  0.723800  0.692900  0.697600  1.0
  C  C651  1  0.692900  0.723800  0.302400  1.0
  C  C652  1  0.807100  0.223800  0.447600  1.0
  C  C653  1  0.776200  0.192900  0.052400  1.0
  C  C654  1  0.276200  0.307100  0.197600  1.0
  C  C655  1  0.307100  0.276200  0.802400  1.0
  C  C656  1  0.223800  0.807100  0.552400  1.0
  C  C657  1  0.249000  0.746900  0.994700  1.0
  C  C658  1  0.753100  0.749000  0.744700  1.0
  C  C659  1  0.749000  0.753100  0.255300  1.0
  C  C660  1  0.751000  0.253100  0.494700  1.0
  C  C661  1  0.746900  0.249000  0.005300  1.0
  C  C662  1  0.246900  0.251000  0.244700  1.0
  C  C663  1  0.251000  0.246900  0.755300  1.0
  C  C664  1  0.253100  0.751000  0.505300  1.0
  C  C665  1  0.378200  0.947200  0.680000  1.0
  C  C666  1  0.552800  0.878200  0.430000  1.0
  C  C667  1  0.878200  0.552800  0.570000  1.0
  C  C668  1  0.621800  0.052800  0.180000  1.0
  C  C669  1  0.947200  0.378200  0.320000  1.0
  C  C670  1  0.447200  0.121800  0.930000  1.0
  C  C671  1  0.121800  0.447200  0.070000  1.0
  C  C672  1  0.052800  0.621800  0.820000  1.0
  C  C673  1  0.325600  0.904800  0.636700  1.0
  C  C674  1  0.595200  0.825600  0.386700  1.0
  C  C675  1  0.825600  0.595200  0.613300  1.0
  C  C676  1  0.674400  0.095200  0.136700  1.0
  C  C677  1  0.904800  0.325600  0.363300  1.0
  C  C678  1  0.404800  0.174400  0.886700  1.0
  C  C679  1  0.174400  0.404800  0.113300  1.0
  C  C680  1  0.095200  0.674400  0.863300  1.0
  C  C681  1  0.408000  0.899900  0.627000  1.0
  C  C682  1  0.600100  0.908000  0.377000  1.0
  C  C683  1  0.908000  0.600100  0.623000  1.0
  C  C684  1  0.592000  0.100100  0.127000  1.0
  C  C685  1  0.899900  0.408000  0.373000  1.0
  C  C686  1  0.399900  0.092000  0.877000  1.0
  C  C687  1  0.092000  0.399900  0.123000  1.0
  C  C688  1  0.100100  0.592000  0.873000  1.0
  C  C689  1  0.086900  0.915500  0.820400  1.0
  C  C690  1  0.584500  0.586900  0.570400  1.0
  C  C691  1  0.586900  0.584500  0.429600  1.0
  C  C692  1  0.913100  0.084500  0.320400  1.0
  C  C693  1  0.915500  0.086900  0.179600  1.0
  C  C694  1  0.415500  0.413100  0.070400  1.0
  C  C695  1  0.413100  0.415500  0.929600  1.0
  C  C696  1  0.084500  0.913100  0.679600  1.0
  C  C697  1  0.088200  0.835500  0.837500  1.0
  C  C698  1  0.664500  0.588200  0.587500  1.0
  C  C699  1  0.588200  0.664500  0.412500  1.0
  C  C700  1  0.911800  0.164500  0.337500  1.0
  C  C701  1  0.835500  0.088200  0.162500  1.0
  C  C702  1  0.335500  0.411800  0.087500  1.0
  C  C703  1  0.411800  0.335500  0.912500  1.0
  C  C704  1  0.164500  0.911800  0.662500  1.0
  C  C705  1  0.038400  0.866900  0.782500  1.0
  C  C706  1  0.633100  0.538400  0.532500  1.0
  C  C707  1  0.538400  0.633100  0.467500  1.0
  C  C708  1  0.961600  0.133100  0.282500  1.0
  C  C709  1  0.866900  0.038400  0.217500  1.0
  C  C710  1  0.366900  0.461600  0.032500  1.0
  C  C711  1  0.461600  0.366900  0.967500  1.0
  C  C712  1  0.133100  0.961600  0.717500  1.0
  C  C713  1  0.582900  0.532100  0.788700  1.0
  C  C714  1  0.967900  0.082900  0.538700  1.0
  C  C715  1  0.082900  0.967900  0.461300  1.0
  C  C716  1  0.417100  0.467900  0.288700  1.0
  C  C717  1  0.532100  0.582900  0.211300  1.0
  C  C718  1  0.032100  0.917100  0.038700  1.0
  C  C719  1  0.917100  0.032100  0.961300  1.0
  C  C720  1  0.467900  0.417100  0.711300  1.0
  C  C721  1  0.642800  0.483800  0.795600  1.0
  C  C722  1  0.016200  0.142800  0.545600  1.0
  C  C723  1  0.142800  0.016200  0.454400  1.0
  C  C724  1  0.357200  0.516200  0.295600  1.0
  C  C725  1  0.483800  0.642800  0.204400  1.0
  C  C726  1  0.983800  0.857200  0.045600  1.0
  C  C727  1  0.857200  0.983800  0.954400  1.0
  C  C728  1  0.516200  0.357200  0.704400  1.0
  C  C729  1  0.571500  0.459900  0.760300  1.0
  C  C730  1  0.040100  0.071500  0.510300  1.0
  C  C731  1  0.071500  0.040100  0.489700  1.0
  C  C732  1  0.428500  0.540100  0.260300  1.0
  C  C733  1  0.459900  0.571500  0.239700  1.0
  C  C734  1  0.959900  0.928500  0.010300  1.0
  C  C735  1  0.928500  0.959900  0.989700  1.0
  C  C736  1  0.540100  0.428500  0.739700  1.0
  C  C737  1  0.219200  0.835700  0.139000  1.0
  C  C738  1  0.664300  0.719200  0.889000  1.0
  C  C739  1  0.719200  0.664300  0.111000  1.0
  C  C740  1  0.780800  0.164300  0.639000  1.0
  C  C741  1  0.835700  0.219200  0.861000  1.0
  C  C742  1  0.335700  0.280800  0.389000  1.0
  C  C743  1  0.280800  0.335700  0.611000  1.0
  C  C744  1  0.164300  0.780800  0.361000  1.0
  C  C745  1  0.296500  0.851900  0.170700  1.0
  C  C746  1  0.648100  0.796500  0.920700  1.0
  C  C747  1  0.796500  0.648100  0.079300  1.0
  C  C748  1  0.703500  0.148100  0.670700  1.0
  C  C749  1  0.851900  0.296500  0.829300  1.0
  C  C750  1  0.351900  0.203500  0.420700  1.0
  C  C751  1  0.203500  0.351900  0.579300  1.0
  C  C752  1  0.148100  0.703500  0.329300  1.0
  C  C753  1  0.361500  0.834300  0.121400  1.0
  C  C754  1  0.665700  0.861500  0.871400  1.0
  C  C755  1  0.861500  0.665700  0.128600  1.0
  C  C756  1  0.638500  0.165700  0.621400  1.0
  C  C757  1  0.834300  0.361500  0.878600  1.0
  C  C758  1  0.334300  0.138500  0.371400  1.0
  C  C759  1  0.138500  0.334300  0.628600  1.0
  C  C760  1  0.165700  0.638500  0.378600  1.0
  C  C761  1  0.446400  0.843200  0.133300  1.0
  C  C762  1  0.656800  0.946400  0.883300  1.0
  C  C763  1  0.946400  0.656800  0.116700  1.0
  C  C764  1  0.553600  0.156800  0.633300  1.0
  C  C765  1  0.843200  0.446400  0.866700  1.0
  C  C766  1  0.343200  0.053600  0.383300  1.0
  C  C767  1  0.053600  0.343200  0.616700  1.0
  C  C768  1  0.156800  0.553600  0.366700  1.0
  C  C769  1  0.418800  0.811400  0.070500  1.0
  C  C770  1  0.688600  0.918800  0.820500  1.0
  C  C771  1  0.918800  0.688600  0.179500  1.0
  C  C772  1  0.581200  0.188600  0.570500  1.0
  C  C773  1  0.811400  0.418800  0.929500  1.0
  C  C774  1  0.311400  0.081200  0.320500  1.0
  C  C775  1  0.081200  0.311400  0.679500  1.0
  C  C776  1  0.188600  0.581200  0.429500  1.0
  C  C777  1  0.445300  0.046600  0.574100  1.0
  C  C778  1  0.453400  0.945300  0.324100  1.0
  C  C779  1  0.945300  0.453400  0.675900  1.0
  C  C780  1  0.554700  0.953400  0.074100  1.0
  C  C781  1  0.046600  0.445300  0.425900  1.0
  C  C782  1  0.546600  0.054700  0.824100  1.0
  C  C783  1  0.054700  0.546600  0.175900  1.0
  C  C784  1  0.953400  0.554700  0.925900  1.0
  C  C785  1  0.519500  0.056200  0.580700  1.0
  C  C786  1  0.443800  0.019500  0.330700  1.0
  C  C787  1  0.019500  0.443800  0.669300  1.0
  C  C788  1  0.480500  0.943800  0.080700  1.0
  C  C789  1  0.056200  0.519500  0.419300  1.0
  C  C790  1  0.556200  0.980500  0.830700  1.0
  C  C791  1  0.980500  0.556200  0.169300  1.0
  C  C792  1  0.943800  0.480500  0.919300  1.0
  C  C793  1  0.559000  0.003400  0.646100  1.0
  C  C794  1  0.496600  0.059000  0.396100  1.0
  C  C795  1  0.059000  0.496600  0.603900  1.0
  C  C796  1  0.441000  0.996600  0.146100  1.0
  C  C797  1  0.003400  0.559000  0.353900  1.0
  C  C798  1  0.503400  0.941000  0.896100  1.0
  C  C799  1  0.941000  0.503400  0.103900  1.0
  C  C800  1  0.996600  0.441000  0.853900  1.0
  C  C801  1  0.634200  0.004100  0.671400  1.0
  C  C802  1  0.495900  0.134200  0.421400  1.0
  C  C803  1  0.134200  0.495900  0.578600  1.0
  C  C804  1  0.365800  0.995900  0.171400  1.0
  C  C805  1  0.004100  0.634200  0.328600  1.0
  C  C806  1  0.504100  0.865800  0.921400  1.0
  C  C807  1  0.865800  0.504100  0.078600  1.0
  C  C808  1  0.995900  0.365800  0.828600  1.0
  C  C809  1  0.574900  0.956200  0.705200  1.0
  C  C810  1  0.543800  0.074900  0.455200  1.0
  C  C811  1  0.074900  0.543800  0.544800  1.0
  C  C812  1  0.425100  0.043800  0.205200  1.0
  C  C813  1  0.956200  0.574900  0.294800  1.0
  C  C814  1  0.456200  0.925100  0.955200  1.0
  C  C815  1  0.925100  0.456200  0.044800  1.0
  C  C816  1  0.043800  0.425100  0.794800  1.0
  C  C817  1  0.482500  0.655900  0.761100  1.0
  C  C818  1  0.844100  0.982500  0.511100  1.0
  C  C819  1  0.982500  0.844100  0.488900  1.0
  C  C820  1  0.517500  0.344100  0.261100  1.0
  C  C821  1  0.655900  0.482500  0.238900  1.0
  C  C822  1  0.155900  0.017500  0.011100  1.0
  C  C823  1  0.017500  0.155900  0.988900  1.0
  C  C824  1  0.344100  0.517500  0.738900  1.0
  C  C825  1  0.459800  0.624600  0.832200  1.0
  C  C826  1  0.875400  0.959800  0.582200  1.0
  C  C827  1  0.959800  0.875400  0.417800  1.0
  C  C828  1  0.540200  0.375400  0.332200  1.0
  C  C829  1  0.624600  0.459800  0.167800  1.0
  C  C830  1  0.124600  0.040200  0.082200  1.0
  C  C831  1  0.040200  0.124600  0.917800  1.0
  C  C832  1  0.375400  0.540200  0.667800  1.0
  C  C833  1  0.456100  0.711400  0.817100  1.0
  C  C834  1  0.788600  0.956100  0.567100  1.0
  C  C835  1  0.956100  0.788600  0.432900  1.0
  C  C836  1  0.543900  0.288600  0.317100  1.0
  C  C837  1  0.711400  0.456100  0.182900  1.0
  C  C838  1  0.211400  0.043900  0.067100  1.0
  C  C839  1  0.043900  0.211400  0.932900  1.0
  C  C840  1  0.288600  0.543900  0.682900  1.0
  C  C841  1  0.396300  0.733900  0.942700  1.0
  C  C842  1  0.766100  0.896300  0.692700  1.0
  C  C843  1  0.896300  0.766100  0.307300  1.0
  C  C844  1  0.603700  0.266100  0.442700  1.0
  C  C845  1  0.733900  0.396300  0.057300  1.0
  C  C846  1  0.233900  0.103700  0.192700  1.0
  C  C847  1  0.103700  0.233900  0.807300  1.0
  C  C848  1  0.266100  0.603700  0.557300  1.0
  C  C849  1  0.387000  0.812100  0.919100  1.0
  C  C850  1  0.687900  0.887000  0.669100  1.0
  C  C851  1  0.887000  0.687900  0.330900  1.0
  C  C852  1  0.613000  0.187900  0.419100  1.0
  C  C853  1  0.812100  0.387000  0.080900  1.0
  C  C854  1  0.312100  0.113000  0.169100  1.0
  C  C855  1  0.113000  0.312100  0.830900  1.0
  C  C856  1  0.187900  0.613000  0.580900  1.0
  C  C857  1  0.429700  0.760000  0.869300  1.0
  C  C858  1  0.740000  0.929700  0.619300  1.0
  C  C859  1  0.929700  0.740000  0.380700  1.0
  C  C860  1  0.570300  0.240000  0.369300  1.0
  C  C861  1  0.760000  0.429700  0.130700  1.0
  C  C862  1  0.260000  0.070300  0.119300  1.0
  C  C863  1  0.070300  0.260000  0.880700  1.0
  C  C864  1  0.240000  0.570300  0.630700  1.0
  C  C865  1  0.487000  0.820100  0.734500  1.0
  C  C866  1  0.679900  0.987000  0.484500  1.0
  C  C867  1  0.987000  0.679900  0.515500  1.0
  C  C868  1  0.513000  0.179900  0.234500  1.0
  C  C869  1  0.820100  0.487000  0.265500  1.0
  C  C870  1  0.320100  0.013000  0.984500  1.0
  C  C871  1  0.013000  0.320100  0.015500  1.0
  C  C872  1  0.179900  0.513000  0.765500  1.0
  C  C873  1  0.457600  0.872000  0.787700  1.0
  C  C874  1  0.628000  0.957600  0.537700  1.0
  C  C875  1  0.957600  0.628000  0.462300  1.0
  C  C876  1  0.542400  0.128000  0.287700  1.0
  C  C877  1  0.872000  0.457600  0.212300  1.0
  C  C878  1  0.372000  0.042400  0.037700  1.0
  C  C879  1  0.042400  0.372000  0.962300  1.0
  C  C880  1  0.128000  0.542400  0.712300  1.0
  C  C881  1  0.459300  0.785900  0.804800  1.0
  C  C882  1  0.714100  0.959300  0.554800  1.0
  C  C883  1  0.959300  0.714100  0.445200  1.0
  C  C884  1  0.540700  0.214100  0.304800  1.0
  C  C885  1  0.785900  0.459300  0.195200  1.0
  C  C886  1  0.285900  0.040700  0.054800  1.0
  C  C887  1  0.040700  0.285900  0.945200  1.0
  C  C888  1  0.214100  0.540700  0.695200  1.0
  C  C889  1  0.206800  0.820000  0.955300  1.0
  C  C890  1  0.680000  0.706800  0.705300  1.0
  C  C891  1  0.706800  0.680000  0.294700  1.0
  C  C892  1  0.793200  0.180000  0.455300  1.0
  C  C893  1  0.820000  0.206800  0.044700  1.0
  C  C894  1  0.320000  0.293200  0.205300  1.0
  C  C895  1  0.293200  0.320000  0.794700  1.0
  C  C896  1  0.180000  0.793200  0.544700  1.0
  C  C897  1  0.212800  0.738000  0.966900  1.0
  C  C898  1  0.762000  0.712800  0.716900  1.0
  C  C899  1  0.712800  0.762000  0.283100  1.0
  C  C900  1  0.787200  0.262000  0.466900  1.0
  C  C901  1  0.738000  0.212800  0.033100  1.0
  C  C902  1  0.238000  0.287200  0.216900  1.0
  C  C903  1  0.287200  0.238000  0.783100  1.0
  C  C904  1  0.262000  0.787200  0.533100  1.0
  C  C905  1  0.154700  0.769800  0.913000  1.0
  C  C906  1  0.730200  0.654700  0.663000  1.0
  C  C907  1  0.654700  0.730200  0.337000  1.0
  C  C908  1  0.845300  0.230200  0.413000  1.0
  C  C909  1  0.769800  0.154700  0.087000  1.0
  C  C910  1  0.269800  0.345300  0.163000  1.0
  C  C911  1  0.345300  0.269800  0.837000  1.0
  C  C912  1  0.230200  0.845300  0.587000  1.0
  C  C913  1  0.334900  0.934900  0.668800  1.0
  C  C914  1  0.565100  0.834900  0.418800  1.0
  C  C915  1  0.834900  0.565100  0.581200  1.0
  C  C916  1  0.665100  0.065100  0.168800  1.0
  C  C917  1  0.934900  0.334900  0.331200  1.0
  C  C918  1  0.434900  0.165100  0.918800  1.0
  C  C919  1  0.165100  0.434900  0.081200  1.0
  C  C920  1  0.065100  0.665100  0.831200  1.0
  C  C921  1  0.363300  0.885100  0.614000  1.0
  C  C922  1  0.614900  0.863300  0.364000  1.0
  C  C923  1  0.863300  0.614900  0.636000  1.0
  C  C924  1  0.636700  0.114900  0.114000  1.0
  C  C925  1  0.885100  0.363300  0.386000  1.0
  C  C926  1  0.385100  0.136700  0.864000  1.0
  C  C927  1  0.136700  0.385100  0.136000  1.0
  C  C928  1  0.114900  0.636700  0.886000  1.0
  C  C929  1  0.110400  0.721000  0.875800  1.0
  C  C930  1  0.779000  0.610400  0.625800  1.0
  C  C931  1  0.610400  0.779000  0.374200  1.0
  C  C932  1  0.889600  0.279000  0.375800  1.0
  C  C933  1  0.721000  0.110400  0.124200  1.0
  C  C934  1  0.221000  0.389600  0.125800  1.0
  C  C935  1  0.389600  0.221000  0.874200  1.0
  C  C936  1  0.279000  0.889600  0.624200  1.0
  C  C937  1  0.103700  0.881300  0.846400  1.0
  C  C938  1  0.618700  0.603700  0.596400  1.0
  C  C939  1  0.603700  0.618700  0.403600  1.0
  C  C940  1  0.896300  0.118700  0.346400  1.0
  C  C941  1  0.881300  0.103700  0.153600  1.0
  C  C942  1  0.381300  0.396300  0.096400  1.0
  C  C943  1  0.396300  0.381300  0.903600  1.0
  C  C944  1  0.118700  0.896300  0.653600  1.0
  C  C945  1  0.053500  0.830400  0.804100  1.0
  C  C946  1  0.669600  0.553500  0.554100  1.0
  C  C947  1  0.553500  0.669600  0.445900  1.0
  C  C948  1  0.946500  0.169600  0.304100  1.0
  C  C949  1  0.830400  0.053500  0.195900  1.0
  C  C950  1  0.330400  0.446500  0.054100  1.0
  C  C951  1  0.446500  0.330400  0.945900  1.0
  C  C952  1  0.169600  0.946500  0.695900  1.0
  C  C953  1  0.105300  0.798400  0.862600  1.0
  C  C954  1  0.701600  0.605300  0.612600  1.0
  C  C955  1  0.605300  0.701600  0.387400  1.0
  C  C956  1  0.894700  0.201600  0.362600  1.0
  C  C957  1  0.798400  0.105300  0.137400  1.0
  C  C958  1  0.298400  0.394700  0.112600  1.0
  C  C959  1  0.394700  0.298400  0.887400  1.0
  C  C960  1  0.201600  0.894700  0.637400  1.0
  C  C961  1  0.626000  0.524500  0.802500  1.0
  C  C962  1  0.975500  0.126000  0.552500  1.0
  C  C963  1  0.126000  0.975500  0.447500  1.0
  C  C964  1  0.374000  0.475500  0.302500  1.0
  C  C965  1  0.524500  0.626000  0.197500  1.0
  C  C966  1  0.024500  0.874000  0.052500  1.0
  C  C967  1  0.874000  0.024500  0.947500  1.0
  C  C968  1  0.475500  0.374000  0.697500  1.0
  C  C969  1  0.617700  0.450500  0.777700  1.0
  C  C970  1  0.049500  0.117700  0.527700  1.0
  C  C971  1  0.117700  0.049500  0.472300  1.0
  C  C972  1  0.382300  0.549500  0.277700  1.0
  C  C973  1  0.450500  0.617700  0.222300  1.0
  C  C974  1  0.950500  0.882300  0.027700  1.0
  C  C975  1  0.882300  0.950500  0.972300  1.0
  C  C976  1  0.549500  0.382300  0.722300  1.0
  C  C977  1  0.241600  0.823000  0.103000  1.0
  C  C978  1  0.677000  0.741600  0.853000  1.0
  C  C979  1  0.741600  0.677000  0.147000  1.0
  C  C980  1  0.758400  0.177000  0.603000  1.0
  C  C981  1  0.823000  0.241600  0.897000  1.0
  C  C982  1  0.323000  0.258400  0.353000  1.0
  C  C983  1  0.258400  0.323000  0.647000  1.0
  C  C984  1  0.177000  0.758400  0.397000  1.0
  C  C985  1  0.251800  0.851700  0.177000  1.0
  C  C986  1  0.648300  0.751800  0.927000  1.0
  C  C987  1  0.751800  0.648300  0.073000  1.0
  C  C988  1  0.748200  0.148300  0.677000  1.0
  C  C989  1  0.851700  0.251800  0.823000  1.0
  C  C990  1  0.351700  0.248200  0.427000  1.0
  C  C991  1  0.248200  0.351700  0.573000  1.0
  C  C992  1  0.148300  0.748200  0.323000  1.0
  C  C993  1  0.313000  0.836600  0.130700  1.0
  C  C994  1  0.663400  0.813000  0.880700  1.0
  C  C995  1  0.813000  0.663400  0.119300  1.0
  C  C996  1  0.687000  0.163400  0.630700  1.0
  C  C997  1  0.836600  0.313000  0.869300  1.0
  C  C998  1  0.336600  0.187000  0.380700  1.0
  C  C999  1  0.187000  0.336600  0.619300  1.0
  C  C1000  1  0.163400  0.687000  0.369300  1.0
  C  C1001  1  0.398400  0.852400  0.150700  1.0
  C  C1002  1  0.647600  0.898400  0.900700  1.0
  C  C1003  1  0.898400  0.647600  0.099300  1.0
  C  C1004  1  0.601600  0.147600  0.650700  1.0
  C  C1005  1  0.852400  0.398400  0.849300  1.0
  C  C1006  1  0.352400  0.101600  0.400700  1.0
  C  C1007  1  0.101600  0.352400  0.599300  1.0
  C  C1008  1  0.147600  0.601600  0.349300  1.0
  C  C1009  1  0.454700  0.822700  0.095400  1.0
  C  C1010  1  0.677300  0.954700  0.845400  1.0
  C  C1011  1  0.954700  0.677300  0.154600  1.0
  C  C1012  1  0.545300  0.177300  0.595400  1.0
  C  C1013  1  0.822700  0.454700  0.904600  1.0
  C  C1014  1  0.322700  0.045300  0.345400  1.0
  C  C1015  1  0.045300  0.322700  0.654600  1.0
  C  C1016  1  0.177300  0.545300  0.404600  1.0
  C  C1017  1  0.447800  0.012700  0.601100  1.0
  C  C1018  1  0.487300  0.947800  0.351100  1.0
  C  C1019  1  0.947800  0.487300  0.648900  1.0
  C  C1020  1  0.552200  0.987300  0.101100  1.0
  C  C1021  1  0.012700  0.447800  0.398900  1.0
  C  C1022  1  0.512700  0.052200  0.851100  1.0
  C  C1023  1  0.052200  0.512700  0.148900  1.0
  C  C1024  1  0.987300  0.552200  0.898900  1.0
  C  C1025  1  0.474000  0.061300  0.559200  1.0
  C  C1026  1  0.438700  0.974000  0.309200  1.0
  C  C1027  1  0.974000  0.438700  0.690800  1.0
  C  C1028  1  0.526000  0.938700  0.059200  1.0
  C  C1029  1  0.061300  0.474000  0.440800  1.0
  C  C1030  1  0.561300  0.026000  0.809200  1.0
  C  C1031  1  0.026000  0.561300  0.190800  1.0
  C  C1032  1  0.938700  0.526000  0.940800  1.0
  C  C1033  1  0.521100  0.018300  0.616500  1.0
  C  C1034  1  0.481700  0.021100  0.366500  1.0
  C  C1035  1  0.021100  0.481700  0.633500  1.0
  C  C1036  1  0.478900  0.981700  0.116500  1.0
  C  C1037  1  0.018300  0.521100  0.383500  1.0
  C  C1038  1  0.518300  0.978900  0.866500  1.0
  C  C1039  1  0.978900  0.518300  0.133500  1.0
  C  C1040  1  0.981700  0.478900  0.883500  1.0
  C  C1041  1  0.604100  0.017000  0.645500  1.0
  C  C1042  1  0.483000  0.104100  0.395500  1.0
  C  C1043  1  0.104100  0.483000  0.604500  1.0
  C  C1044  1  0.395900  0.983000  0.145500  1.0
  C  C1045  1  0.017000  0.604100  0.354500  1.0
  C  C1046  1  0.517000  0.895900  0.895500  1.0
  C  C1047  1  0.895900  0.517000  0.104500  1.0
  C  C1048  1  0.983000  0.395900  0.854500  1.0
  C  C1049  1  0.623100  0.970000  0.707200  1.0
  C  C1050  1  0.530000  0.123100  0.457200  1.0
  C  C1051  1  0.123100  0.530000  0.542800  1.0
  C  C1052  1  0.376900  0.030000  0.207200  1.0
  C  C1053  1  0.970000  0.623100  0.292800  1.0
  C  C1054  1  0.470000  0.876900  0.957200  1.0
  C  C1055  1  0.876900  0.470000  0.042800  1.0
  C  C1056  1  0.030000  0.376900  0.792800  1.0
  C  C1057  1  0.959500  0.020700  0.770400  1.0
  C  C1058  1  0.479300  0.459500  0.520400  1.0
  C  C1059  1  0.459500  0.479300  0.479600  1.0
  C  C1060  1  0.040500  0.979300  0.270400  1.0
  C  C1061  1  0.020700  0.959500  0.229600  1.0
  C  C1062  1  0.520700  0.540500  0.020400  1.0
  C  C1063  1  0.540500  0.520700  0.979600  1.0
  C  C1064  1  0.979300  0.040500  0.729600  1.0
  C  C1065  1  0.909100  0.019400  0.833200  1.0
  C  C1066  1  0.480600  0.409100  0.583200  1.0
  C  C1067  1  0.409100  0.480600  0.416800  1.0
  C  C1068  1  0.090900  0.980600  0.333200  1.0
  C  C1069  1  0.019400  0.909100  0.166800  1.0
  C  C1070  1  0.519400  0.590900  0.083200  1.0
  C  C1071  1  0.590900  0.519400  0.916800  1.0
  C  C1072  1  0.980600  0.090900  0.666800  1.0
  C  C1073  1  0.969900  0.964000  0.827200  1.0
  C  C1074  1  0.536000  0.469900  0.577200  1.0
  C  C1075  1  0.469900  0.536000  0.422800  1.0
  C  C1076  1  0.030100  0.036000  0.327200  1.0
  C  C1077  1  0.964000  0.969900  0.172800  1.0
  C  C1078  1  0.464000  0.530100  0.077200  1.0
  C  C1079  1  0.530100  0.464000  0.922800  1.0
  C  C1080  1  0.036000  0.030100  0.672800  1.0
  C  C1081  1  0.922500  0.038700  0.793400  1.0
  C  C1082  1  0.461300  0.422500  0.543400  1.0
  C  C1083  1  0.422500  0.461300  0.456600  1.0
  C  C1084  1  0.077500  0.961300  0.293400  1.0
  C  C1085  1  0.038700  0.922500  0.206600  1.0
  C  C1086  1  0.538700  0.577500  0.043400  1.0
  C  C1087  1  0.577500  0.538700  0.956600  1.0
  C  C1088  1  0.961300  0.077500  0.706600  1.0
  C  C1089  1  0.932900  0.982100  0.850200  1.0
  C  C1090  1  0.517900  0.432900  0.600200  1.0
  C  C1091  1  0.432900  0.517900  0.399800  1.0
  C  C1092  1  0.067100  0.017900  0.350200  1.0
  C  C1093  1  0.982100  0.932900  0.149800  1.0
  C  C1094  1  0.482100  0.567100  0.100200  1.0
  C  C1095  1  0.567100  0.482100  0.899800  1.0
  C  C1096  1  0.017900  0.067100  0.649800  1.0
  N  N1097  1  0.581400  0.840500  0.792800  1
  N  N1098  1  0.659500  0.081400  0.542800  1
  N  N1099  1  0.081400  0.659500  0.457200  1
  N  N1100  1  0.418600  0.159500  0.292800  1
  N  N1101  1  0.840500  0.581400  0.207200  1
  N  N1102  1  0.340500  0.918600  0.042800  1
  N  N1103  1  0.918600  0.340500  0.957200  1
  N  N1104  1  0.159500  0.418600  0.707200  1
  N  N1105  1  0.577700  0.528500  0.674300  1
  N  N1106  1  0.971500  0.077700  0.424300  1
  N  N1107  1  0.077700  0.971500  0.575700  1
  N  N1108  1  0.422300  0.471500  0.174300  1
  N  N1109  1  0.528500  0.577700  0.325700  1
  N  N1110  1  0.028500  0.922300  0.924300  1
  N  N1111  1  0.922300  0.028500  0.075700  1
  N  N1112  1  0.471500  0.422300  0.825700  1
  N  N1113  1  0.387200  0.960100  0.850200  1
  N  N1114  1  0.539900  0.887200  0.600200  1
  N  N1115  1  0.887200  0.539900  0.399800  1
  N  N1116  1  0.612800  0.039900  0.350200  1
  N  N1117  1  0.960100  0.387200  0.149800  1
  N  N1118  1  0.460100  0.112800  0.100200  1
  N  N1119  1  0.112800  0.460100  0.899800  1
  N  N1120  1  0.039900  0.612800  0.649800  1
  N  N1121  1  0.435900  0.717200  0.857300  1.0
  N  N1122  1  0.782800  0.935900  0.607300  1.0
  N  N1123  1  0.935900  0.782800  0.392700  1.0
  N  N1124  1  0.564100  0.282800  0.357300  1.0
  N  N1125  1  0.717200  0.435900  0.142700  1.0
  N  N1126  1  0.217200  0.064100  0.107300  1.0
  N  N1127  1  0.064100  0.217200  0.892700  1.0
  N  N1128  1  0.282800  0.564100  0.642700  1.0
  N  N1129  1  0.468300  0.745100  0.789800  1.0
  N  N1130  1  0.754900  0.968300  0.539800  1.0
  N  N1131  1  0.968300  0.754900  0.460200  1.0
  N  N1132  1  0.531700  0.254900  0.289800  1.0
  N  N1133  1  0.745100  0.468300  0.210200  1.0
  N  N1134  1  0.245100  0.031700  0.039800  1.0
  N  N1135  1  0.031700  0.245100  0.960200  1.0
  N  N1136  1  0.254900  0.531700  0.710200  1.0
  N  N1137  1  0.414500  0.930700  0.658400  1.0
  N  N1138  1  0.569300  0.914500  0.408400  1.0
  N  N1139  1  0.914500  0.569300  0.591600  1.0
  N  N1140  1  0.585500  0.069300  0.158400  1.0
  N  N1141  1  0.930700  0.414500  0.341600  1.0
  N  N1142  1  0.430700  0.085500  0.908400  1.0
  N  N1143  1  0.085500  0.430700  0.091600  1.0
  N  N1144  1  0.069300  0.585500  0.841600  1.0
  N  N1145  1  0.142300  0.725900  0.905200  1.0
  N  N1146  1  0.774100  0.642300  0.655200  1.0
  N  N1147  1  0.642300  0.774100  0.344800  1.0
  N  N1148  1  0.857700  0.274100  0.405200  1.0
  N  N1149  1  0.725900  0.142300  0.094800  1.0
  N  N1150  1  0.225900  0.357700  0.155200  1.0
  N  N1151  1  0.357700  0.225900  0.844800  1.0
  N  N1152  1  0.274100  0.857700  0.594800  1.0
  N  N1153  1  0.138600  0.804300  0.890600  1.0
  N  N1154  1  0.695700  0.638600  0.640600  1.0
  N  N1155  1  0.638600  0.695700  0.359400  1.0
  N  N1156  1  0.861400  0.195700  0.390600  1.0
  N  N1157  1  0.804300  0.138600  0.109400  1.0
  N  N1158  1  0.304300  0.361400  0.140600  1.0
  N  N1159  1  0.361400  0.304300  0.859400  1.0
  N  N1160  1  0.195700  0.861400  0.609400  1.0
  N  N1161  1  0.286300  0.820900  0.098300  1.0
  N  N1162  1  0.679100  0.786300  0.848300  1.0
  N  N1163  1  0.786300  0.679100  0.151700  1.0
  N  N1164  1  0.713700  0.179100  0.598300  1.0
  N  N1165  1  0.820900  0.286300  0.901700  1.0
  N  N1166  1  0.320900  0.213700  0.348300  1.0
  N  N1167  1  0.213700  0.320900  0.651700  1.0
  N  N1168  1  0.179100  0.713700  0.401700  1.0
  N  N1169  1  0.546300  0.971300  0.678000  1.0
  N  N1170  1  0.528700  0.046300  0.428000  1.0
  N  N1171  1  0.046300  0.528700  0.572000  1.0
  N  N1172  1  0.453700  0.028700  0.178000  1.0
  N  N1173  1  0.971300  0.546300  0.322000  1.0
  N  N1174  1  0.471300  0.953700  0.928000  1.0
  N  N1175  1  0.953700  0.471300  0.072000  1.0
  N  N1176  1  0.028700  0.453700  0.822000  1.0
  N  N1177  1  0.482500  0.574800  0.774200  1.0
  N  N1178  1  0.925200  0.982500  0.524200  1.0
  N  N1179  1  0.982500  0.925200  0.475800  1.0
  N  N1180  1  0.517500  0.425200  0.274200  1.0
  N  N1181  1  0.574800  0.482500  0.225800  1.0
  N  N1182  1  0.074800  0.017500  0.024200  1.0
  N  N1183  1  0.017500  0.074800  0.975800  1.0
  N  N1184  1  0.425200  0.517500  0.725800  1.0
  N  N1185  1  0.356200  0.785500  0.986900  1.0
  N  N1186  1  0.714500  0.856200  0.736900  1.0
  N  N1187  1  0.856200  0.714500  0.263100  1.0
  N  N1188  1  0.643800  0.214500  0.486900  1.0
  N  N1189  1  0.785500  0.356200  0.013100  1.0
  N  N1190  1  0.285500  0.143800  0.236900  1.0
  N  N1191  1  0.143800  0.285500  0.763100  1.0
  N  N1192  1  0.214500  0.643800  0.513100  1.0
  N  N1193  1  0.483200  0.898600  0.715700  1.0
  N  N1194  1  0.601400  0.983200  0.465700  1.0
  N  N1195  1  0.983200  0.601400  0.534300  1.0
  N  N1196  1  0.516800  0.101400  0.215700  1.0
  N  N1197  1  0.898600  0.483200  0.284300  1.0
  N  N1198  1  0.398600  0.016800  0.965700  1.0
  N  N1199  1  0.016800  0.398600  0.034300  1.0
  N  N1200  1  0.101400  0.516800  0.784300  1.0
  N  N1201  1  0.438900  0.796700  0.844000  1.0
  N  N1202  1  0.703300  0.938900  0.594000  1.0
  N  N1203  1  0.938900  0.703300  0.406000  1.0
  N  N1204  1  0.561100  0.203300  0.344000  1.0
  N  N1205  1  0.796700  0.438900  0.156000  1.0
  N  N1206  1  0.296700  0.061100  0.094000  1.0
  N  N1207  1  0.061100  0.296700  0.906000  1.0
  N  N1208  1  0.203300  0.561100  0.656000  1.0
  N  N1209  1  0.263200  0.790500  0.004000  1.0
  N  N1210  1  0.709500  0.763200  0.754000  1.0
  N  N1211  1  0.763200  0.709500  0.246000  1.0
  N  N1212  1  0.736800  0.209500  0.504000  1.0
  N  N1213  1  0.790500  0.263200  0.996000  1.0
  N  N1214  1  0.290500  0.236800  0.254000  1.0
  N  N1215  1  0.236800  0.290500  0.746000  1.0
  N  N1216  1  0.209500  0.736800  0.496000  1.0
  N  N1217  1  0.056000  0.909400  0.790900  1.0
  N  N1218  1  0.590600  0.556000  0.540900  1.0
  N  N1219  1  0.556000  0.590600  0.459100  1.0
  N  N1220  1  0.944000  0.090600  0.290900  1.0
  N  N1221  1  0.909400  0.056000  0.209100  1.0
  N  N1222  1  0.409400  0.444000  0.040900  1.0
  N  N1223  1  0.444000  0.409400  0.959100  1.0
  N  N1224  1  0.090600  0.944000  0.709100  1.0
  N  N1225  1  0.090000  0.755700  0.851800  1.0
  N  N1226  1  0.744300  0.590000  0.601800  1.0
  N  N1227  1  0.590000  0.744300  0.398200  1.0
  N  N1228  1  0.910000  0.244300  0.351800  1.0
  N  N1229  1  0.755700  0.090000  0.148200  1.0
  N  N1230  1  0.255700  0.410000  0.101800  1.0
  N  N1231  1  0.410000  0.255700  0.898200  1.0
  N  N1232  1  0.244300  0.910000  0.648200  1.0
  N  N1233  1  0.554200  0.500700  0.769500  1.0
  N  N1234  1  0.999300  0.054200  0.519500  1.0
  N  N1235  1  0.054200  0.999300  0.480500  1.0
  N  N1236  1  0.445800  0.499300  0.269500  1.0
  N  N1237  1  0.500700  0.554200  0.230500  1.0
  N  N1238  1  0.000700  0.945800  0.019500  1.0
  N  N1239  1  0.945800  0.000700  0.980500  1.0
  N  N1240  1  0.499300  0.445800  0.730500  1.0
  N  N1241  1  0.374600  0.816400  0.080500  1.0
  N  N1242  1  0.683600  0.874600  0.830500  1.0
  N  N1243  1  0.874600  0.683600  0.169500  1.0
  N  N1244  1  0.625400  0.183600  0.580500  1.0
  N  N1245  1  0.816400  0.374600  0.919500  1.0
  N  N1246  1  0.316400  0.125400  0.330500  1.0
  N  N1247  1  0.125400  0.316400  0.669500  1.0
  N  N1248  1  0.183600  0.625400  0.419500  1.0
  N  N1249  1  0.481100  0.997600  0.625100  1.0
  N  N1250  1  0.502400  0.981100  0.375100  1.0
  N  N1251  1  0.981100  0.502400  0.624900  1.0
  N  N1252  1  0.518900  0.002400  0.125100  1.0
  N  N1253  1  0.997600  0.481100  0.374900  1.0
  N  N1254  1  0.497600  0.018900  0.875100  1.0
  N  N1255  1  0.018900  0.497600  0.124900  1.0
  N  N1256  1  0.002400  0.518900  0.874900  1.0
  N  N1257  1  0.983200  0.983300  0.787300  1.0
  N  N1258  1  0.516700  0.483200  0.537300  1.0
  N  N1259  1  0.483200  0.516700  0.462700  1.0
  N  N1260  1  0.016800  0.016700  0.287300  1.0
  N  N1261  1  0.983300  0.983200  0.212700  1.0
  N  N1262  1  0.483300  0.516800  0.037300  1.0
  N  N1263  1  0.516800  0.483300  0.962700  1.0
  N  N1264  1  0.016700  0.016800  0.712700  1.0
  O  O1265  1  0.586600  0.880600  0.782500  1
  O  O1266  1  0.619400  0.086600  0.532500  1
  O  O1267  1  0.086600  0.619400  0.467500  1
  O  O1268  1  0.413400  0.119400  0.282500  1
  O  O1269  1  0.880600  0.586600  0.217500  1
  O  O1270  1  0.380600  0.913400  0.032500  1
  O  O1271  1  0.913400  0.380600  0.967500  1
  O  O1272  1  0.119400  0.413400  0.717500  1
  O  O1273  1  0.594100  0.811800  0.762900  1
  O  O1274  1  0.688200  0.094100  0.512900  1
  O  O1275  1  0.094100  0.688200  0.487100  1
  O  O1276  1  0.405900  0.188200  0.262900  1
  O  O1277  1  0.811800  0.594100  0.237100  1
  O  O1278  1  0.311800  0.905900  0.012900  1
  O  O1279  1  0.905900  0.311800  0.987100  1
  O  O1280  1  0.188200  0.405900  0.737100  1
  O  O1281  1  0.568400  0.827100  0.826500  1
  O  O1282  1  0.672900  0.068400  0.576500  1
  O  O1283  1  0.068400  0.672900  0.423500  1
  O  O1284  1  0.431600  0.172900  0.326500  1
  O  O1285  1  0.827100  0.568400  0.173500  1
  O  O1286  1  0.327100  0.931600  0.076500  1
  O  O1287  1  0.931600  0.327100  0.923500  1
  O  O1288  1  0.172900  0.431600  0.673500  1
  O  O1289  1  0.532800  0.548400  0.662100  1
  O  O1290  1  0.951600  0.032800  0.412100  1
  O  O1291  1  0.032800  0.951600  0.587900  1
  O  O1292  1  0.467200  0.451600  0.162100  1
  O  O1293  1  0.548400  0.532800  0.337900  1
  O  O1294  1  0.048400  0.967200  0.912100  1
  O  O1295  1  0.967200  0.048400  0.087900  1
  O  O1296  1  0.451600  0.467200  0.837900  1
  O  O1297  1  0.603300  0.563200  0.693800  1
  O  O1298  1  0.936800  0.103300  0.443800  1
  O  O1299  1  0.103300  0.936800  0.556200  1
  O  O1300  1  0.396700  0.436800  0.193800  1
  O  O1301  1  0.563200  0.603300  0.306200  1
  O  O1302  1  0.063200  0.896700  0.943800  1
  O  O1303  1  0.896700  0.063200  0.056200  1
  O  O1304  1  0.436800  0.396700  0.806200  1
  O  O1305  1  0.590000  0.494500  0.661200  1
  O  O1306  1  0.005500  0.090000  0.411200  1
  O  O1307  1  0.090000  0.005500  0.588800  1
  O  O1308  1  0.410000  0.505500  0.161200  1
  O  O1309  1  0.494500  0.590000  0.338800  1
  O  O1310  1  0.994500  0.910000  0.911200  1
  O  O1311  1  0.910000  0.994500  0.088800  1
  O  O1312  1  0.505500  0.410000  0.838800  1
  O  O1313  1  0.353300  0.987800  0.851500  1
  O  O1314  1  0.512200  0.853300  0.601500  1
  O  O1315  1  0.853300  0.512200  0.398500  1
  O  O1316  1  0.646700  0.012200  0.351500  1
  O  O1317  1  0.987800  0.353300  0.148500  1
  O  O1318  1  0.487800  0.146700  0.101500  1
  O  O1319  1  0.146700  0.487800  0.898500  1
  O  O1320  1  0.012200  0.646700  0.648500  1
  O  O1321  1  0.420000  0.970400  0.826000  1
  O  O1322  1  0.529600  0.920000  0.576000  1
  O  O1323  1  0.920000  0.529600  0.424000  1
  O  O1324  1  0.580000  0.029600  0.326000  1
  O  O1325  1  0.970400  0.420000  0.174000  1
  O  O1326  1  0.470400  0.080000  0.076000  1
  O  O1327  1  0.080000  0.470400  0.924000  1
  O  O1328  1  0.029600  0.580000  0.674000  1
  O  O1329  1  0.387700  0.924400  0.874100  1
  O  O1330  1  0.575600  0.887700  0.624100  1
  O  O1331  1  0.887700  0.575600  0.375900  1
  O  O1332  1  0.612300  0.075600  0.374100  1
  O  O1333  1  0.924400  0.387700  0.125900  1
  O  O1334  1  0.424400  0.112300  0.124100  1
  O  O1335  1  0.112300  0.424400  0.875900  1
  O  O1336  1  0.075600  0.612300  0.625900  1
  O  O1337  1  0.271000  0.949100  0.851900  1
  O  O1338  1  0.550900  0.771000  0.601900  1
  O  O1339  1  0.771000  0.550900  0.398100  1
  O  O1340  1  0.729000  0.050900  0.351900  1
  O  O1341  1  0.949100  0.271000  0.148100  1
  O  O1342  1  0.449100  0.229000  0.101900  1
  O  O1343  1  0.229000  0.449100  0.898100  1
  O  O1344  1  0.050900  0.729000  0.648100  1
  O  O1345  1  0.307800  0.564800  0.914800  1
  O  O1346  1  0.935200  0.807800  0.664800  1
  O  O1347  1  0.807800  0.935200  0.335200  1
  O  O1348  1  0.692200  0.435200  0.414800  1
  O  O1349  1  0.564800  0.307800  0.085200  1
  O  O1350  1  0.064800  0.192200  0.164800  1
  O  O1351  1  0.192200  0.064800  0.835200  1
  O  O1352  1  0.435200  0.692200  0.585200  1
  O  O1353  1  0.084800  0.766200  0.005400  1
  O  O1354  1  0.733800  0.584800  0.755400  1
  O  O1355  1  0.584800  0.733800  0.244600  1
  O  O1356  1  0.915200  0.233800  0.505400  1
  O  O1357  1  0.766200  0.084800  0.994600  1
  O  O1358  1  0.266200  0.415200  0.255400  1
  O  O1359  1  0.415200  0.266200  0.744600  1
  O  O1360  1  0.233800  0.915200  0.494600  1
  O  O1361  1  0.523800  0.745300  0.905900  1
  O  O1362  1  0.754700  0.023800  0.655900  1
  O  O1363  1  0.023800  0.754700  0.344100  1
  O  O1364  1  0.476200  0.254700  0.405900  1
  O  O1365  1  0.745300  0.523800  0.094100  1
  O  O1366  1  0.245300  0.976200  0.155900  1
  O  O1367  1  0.976200  0.245300  0.844100  1
  O  O1368  1  0.254700  0.476200  0.594100  1
  O  O1369  1  0.465900  0.299900  0.814600  1
  O  O1370  1  0.200100  0.965900  0.564600  1
  O  O1371  1  0.965900  0.200100  0.435400  1
  O  O1372  1  0.534100  0.700100  0.314600  1
  O  O1373  1  0.299900  0.465900  0.185400  1
  O  O1374  1  0.799900  0.034100  0.064600  1
  O  O1375  1  0.034100  0.799900  0.935400  1
  O  O1376  1  0.700100  0.534100  0.685400  1
  O  O1377  1  0.315700  0.705200  0.083300  1
  O  O1378  1  0.794800  0.815700  0.833300  1
  O  O1379  1  0.815700  0.794800  0.166700  1
  O  O1380  1  0.684300  0.294800  0.583300  1
  O  O1381  1  0.705200  0.315700  0.916700  1
  O  O1382  1  0.205200  0.184300  0.333300  1
  O  O1383  1  0.184300  0.205200  0.666700  1
  O  O1384  1  0.294800  0.684300  0.416700  1
  O  O1385  1  0.209200  0.883900  0.290900  1
  O  O1386  1  0.616100  0.709200  0.040900  1
  O  O1387  1  0.709200  0.616100  0.959100  1
  O  O1388  1  0.790800  0.116100  0.790900  1
  O  O1389  1  0.883900  0.209200  0.709100  1
  O  O1390  1  0.383900  0.290800  0.540900  1
  O  O1391  1  0.290800  0.383900  0.459100  1
  O  O1392  1  0.116100  0.790800  0.209100  1
  O  O1393  1  0.324000  0.899100  0.491300  1
  O  O1394  1  0.600900  0.824000  0.241300  1
  O  O1395  1  0.824000  0.600900  0.758700  1
  O  O1396  1  0.676000  0.100900  0.991300  1
  O  O1397  1  0.899100  0.324000  0.508700  1
  O  O1398  1  0.399100  0.176000  0.741300  1
  O  O1399  1  0.176000  0.399100  0.258700  1
  O  O1400  1  0.100900  0.676000  0.008700  1
  O  O1401  1  0.790900  0.024000  0.855300  1
  O  O1402  1  0.476000  0.290900  0.605300  1
  O  O1403  1  0.290900  0.476000  0.394700  1
  O  O1404  1  0.209100  0.976000  0.355300  1
  O  O1405  1  0.024000  0.790900  0.144700  1
  O  O1406  1  0.524000  0.709100  0.105300  1
  O  O1407  1  0.709100  0.524000  0.894700  1
  O  O1408  1  0.976000  0.209100  0.644700  1
  O  O1409  1  0.447900  0.696600  0.060600  1
  O  O1410  1  0.803400  0.947900  0.810600  1
  O  O1411  1  0.947900  0.803400  0.189400  1
  O  O1412  1  0.552100  0.303400  0.560600  1
  O  O1413  1  0.696600  0.447900  0.939400  1
  O  O1414  1  0.196600  0.052100  0.310600  1
  O  O1415  1  0.052100  0.196600  0.689400  1
  O  O1416  1  0.303400  0.552100  0.439400  1
  O  O1417  1  0.577000  0.835500  0.139300  1
  O  O1418  1  0.664500  0.077000  0.889300  1
  O  O1419  1  0.077000  0.664500  0.110700  1
  O  O1420  1  0.423000  0.164500  0.639300  1
  O  O1421  1  0.835500  0.577000  0.860700  1
  O  O1422  1  0.335500  0.923000  0.389300  1
  O  O1423  1  0.923000  0.335500  0.610700  1
  O  O1424  1  0.164500  0.423000  0.360700  1
  O  O1425  1  0.443000  0.078000  0.776600  1
  O  O1426  1  0.422000  0.943000  0.526600  1
  O  O1427  1  0.943000  0.422000  0.473400  1
  O  O1428  1  0.557000  0.922000  0.276600  1
  O  O1429  1  0.078000  0.443000  0.223400  1
  O  O1430  1  0.578000  0.057000  0.026600  1
  O  O1431  1  0.057000  0.578000  0.973400  1
  O  O1432  1  0.922000  0.557000  0.723400  1
  O  O1433  1  0.182000  0.731000  0.204000  1
  O  O1434  1  0.769000  0.682000  0.954000  1
  O  O1435  1  0.682000  0.769000  0.046000  1
  O  O1436  1  0.818000  0.269000  0.704000  1
  O  O1437  1  0.731000  0.182000  0.796000  1
  O  O1438  1  0.231000  0.318000  0.454000  1
  O  O1439  1  0.318000  0.231000  0.546000  1
  O  O1440  1  0.269000  0.818000  0.296000  1
  O  O1441  1  0.280000  0.505000  0.954000  1
  O  O1442  1  0.995000  0.780000  0.704000  1
  O  O1443  1  0.780000  0.995000  0.296000  1
  O  O1444  1  0.720000  0.495000  0.454000  1
  O  O1445  1  0.505000  0.280000  0.046000  1
  O  O1446  1  0.005000  0.220000  0.204000  1
  O  O1447  1  0.220000  0.005000  0.796000  1
  O  O1448  1  0.495000  0.720000  0.546000  1
  O  O1449  1  0.359500  0.035900  0.766700  1
  O  O1450  1  0.464100  0.859500  0.516700  1
  O  O1451  1  0.859500  0.464100  0.483300  1
  O  O1452  1  0.640500  0.964100  0.266700  1
  O  O1453  1  0.035900  0.359500  0.233300  1
  O  O1454  1  0.535900  0.140500  0.016700  1
  O  O1455  1  0.140500  0.535900  0.983300  1
  O  O1456  1  0.964100  0.640500  0.733300  1
  O  O1457  1  0.687900  0.639700  0.808200  1
  O  O1458  1  0.860300  0.187900  0.558200  1
  O  O1459  1  0.187900  0.860300  0.441800  1
  O  O1460  1  0.312100  0.360300  0.308200  1
  O  O1461  1  0.639700  0.687900  0.191800  1
  O  O1462  1  0.139700  0.812100  0.058200  1
  O  O1463  1  0.812100  0.139700  0.941800  1
  O  O1464  1  0.360300  0.312100  0.691800  1
  O  O1465  1  0.722800  0.997500  0.749500  1
  O  O1466  1  0.502500  0.222800  0.499500  1
  O  O1467  1  0.222800  0.502500  0.500500  1
  O  O1468  1  0.277200  0.002500  0.249500  1
  O  O1469  1  0.997500  0.722800  0.250500  1
  O  O1470  1  0.497500  0.777200  0.999500  1
  O  O1471  1  0.777200  0.497500  0.000500  1
  O  O1472  1  0.002500  0.277200  0.750500  1
  O  O1473  1  0.374700  0.817300  0.519600  1
  O  O1474  1  0.682700  0.874700  0.269600  1
  O  O1475  1  0.874700  0.682700  0.730400  1
  O  O1476  1  0.625300  0.182700  0.019600  1
  O  O1477  1  0.817300  0.374700  0.480400  1
  O  O1478  1  0.317300  0.125300  0.769600  1
  O  O1479  1  0.125300  0.317300  0.230400  1
  O  O1480  1  0.182700  0.625300  0.980400  1
  O  O1481  1  0.673500  0.047000  0.779400  1
  O  O1482  1  0.453000  0.173500  0.529400  1
  O  O1483  1  0.173500  0.453000  0.470600  1
  O  O1484  1  0.326500  0.953000  0.279400  1
  O  O1485  1  0.047000  0.673500  0.220600  1
  O  O1486  1  0.547000  0.826500  0.029400  1
  O  O1487  1  0.826500  0.547000  0.970600  1
  O  O1488  1  0.953000  0.326500  0.720600  1
  O  O1489  1  0.097300  0.824200  0.127700  1
  O  O1490  1  0.675800  0.597300  0.877700  1
  O  O1491  1  0.597300  0.675800  0.122300  1
  O  O1492  1  0.902700  0.175800  0.627700  1
  O  O1493  1  0.824200  0.097300  0.872300  1
  O  O1494  1  0.324200  0.402700  0.377700  1
  O  O1495  1  0.402700  0.324200  0.622300  1
  O  O1496  1  0.175800  0.902700  0.372300  1
  O  O1497  1  0.672800  0.373000  0.709900  1
  O  O1498  1  0.127000  0.172800  0.459900  1
  O  O1499  1  0.172800  0.127000  0.540100  1
  O  O1500  1  0.327200  0.627000  0.209900  1
  O  O1501  1  0.373000  0.672800  0.290100  1
  O  O1502  1  0.873000  0.827200  0.959900  1
  O  O1503  1  0.827200  0.873000  0.040100  1
  O  O1504  1  0.627000  0.327200  0.790100  1
  O  O1505  1  0.516000  0.155000  0.750000  1
  O  O1506  1  0.345000  0.016000  0.500000  1
  O  O1507  1  0.016000  0.345000  0.500000  1
  O  O1508  1  0.484000  0.845000  0.250000  1
  O  O1509  1  0.155000  0.516000  0.250000  1
  O  O1510  1  0.655000  0.984000  0.000000  1
  O  O1511  1  0.984000  0.655000  0.000000  1
  O  O1512  1  0.845000  0.484000  0.750000  1
  O  O1513  1  0.649900  0.129000  0.766300  1
  O  O1514  1  0.371000  0.149900  0.516300  1
  O  O1515  1  0.149900  0.371000  0.483700  1
  O  O1516  1  0.350100  0.871000  0.266300  1
  O  O1517  1  0.129000  0.649900  0.233700  1
  O  O1518  1  0.629000  0.850100  0.016300  1
  O  O1519  1  0.850100  0.629000  0.983700  1
  O  O1520  1  0.871000  0.350100  0.733700  1
  O  O1521  1  0.526900  0.764900  0.174000  1
  O  O1522  1  0.735100  0.026900  0.924000  1
  O  O1523  1  0.026900  0.735100  0.076000  1
  O  O1524  1  0.473100  0.235100  0.674000  1
  O  O1525  1  0.764900  0.526900  0.826000  1
  O  O1526  1  0.264900  0.973100  0.424000  1
  O  O1527  1  0.973100  0.264900  0.576000  1
  O  O1528  1  0.235100  0.473100  0.326000  1
  O  O1529  1  0.339600  0.981800  0.556300  1
  O  O1530  1  0.518200  0.839600  0.306300  1
  O  O1531  1  0.839600  0.518200  0.693700  1
  O  O1532  1  0.660400  0.018200  0.056300  1
  O  O1533  1  0.981800  0.339600  0.443700  1
  O  O1534  1  0.481800  0.160400  0.806300  1
  O  O1535  1  0.160400  0.481800  0.193700  1
  O  O1536  1  0.018200  0.660400  0.943700  1
  O  O1537  1  0.588000  0.143000  0.756000  1
  O  O1538  1  0.357000  0.088000  0.506000  1
  O  O1539  1  0.088000  0.357000  0.494000  1
  O  O1540  1  0.412000  0.857000  0.256000  1
  O  O1541  1  0.143000  0.588000  0.244000  1
  O  O1542  1  0.643000  0.912000  0.006000  1
  O  O1543  1  0.912000  0.643000  0.994000  1
  O  O1544  1  0.857000  0.412000  0.744000  1
  O  O1545  1  0.155200  0.885000  0.228200  1
  O  O1546  1  0.615000  0.655200  0.978200  1
  O  O1547  1  0.655200  0.615000  0.021800  1
  O  O1548  1  0.844800  0.115000  0.728200  1
  O  O1549  1  0.885000  0.155200  0.771800  1
  O  O1550  1  0.385000  0.344800  0.478200  1
  O  O1551  1  0.344800  0.385000  0.521800  1
  O  O1552  1  0.115000  0.844800  0.271800  1
  O  O1553  1  0.244000  0.756000  0.250000  1
  O  O1554  1  0.744000  0.744000  0.000000  1
  O  O1555  1  0.756000  0.244000  0.750000  1
  O  O1556  1  0.256000  0.256000  0.500000  1
  O  O1557  1  0.559000  0.734800  0.841200  1
  O  O1558  1  0.765200  0.059000  0.591200  1
  O  O1559  1  0.059000  0.765200  0.408800  1
  O  O1560  1  0.441000  0.265200  0.341200  1
  O  O1561  1  0.734800  0.559000  0.158800  1
  O  O1562  1  0.234800  0.941000  0.091200  1
  O  O1563  1  0.941000  0.234800  0.908800  1
  O  O1564  1  0.265200  0.441000  0.658800  1
  O  O1565  1  0.269200  0.008300  0.730700  1
  O  O1566  1  0.491700  0.769200  0.480700  1
  O  O1567  1  0.769200  0.491700  0.519300  1
  O  O1568  1  0.730800  0.991700  0.230700  1
  O  O1569  1  0.008300  0.269200  0.269300  1
  O  O1570  1  0.508300  0.230800  0.980700  1
  O  O1571  1  0.230800  0.508300  0.019300  1
  O  O1572  1  0.991700  0.730800  0.769300  1
  O  O1573  1  0.582200  0.651100  0.706500  1
  O  O1574  1  0.848900  0.082200  0.456500  1
  O  O1575  1  0.082200  0.848900  0.543500  1
  O  O1576  1  0.417800  0.348900  0.206500  1
  O  O1577  1  0.651100  0.582200  0.293500  1
  O  O1578  1  0.151100  0.917800  0.956500  1
  O  O1579  1  0.917800  0.151100  0.043500  1
  O  O1580  1  0.348900  0.417800  0.793500  1
