
#######################################################################
#
#                 Cambridge Crystallographic Data Centre
#                                CCDC 
#
#######################################################################
#
# If this CIF has been generated from an entry in the Cambridge 
# Structural Database, then it will include bibliographic, chemical, 
# crystal, experimental, refinement or atomic coordinate data resulting 
# from the CCDC's data processing and validation procedures.
#
#######################################################################

data_LUWJIW
_chemical_formula_moiety         
'C132 H96 N36 Pd6 12+,12(N1 O3 1-),4(C2 H12 B10),29(H2 O1)'
_chemical_name_systematic        
"tetrakis(\m~3~-2,4,6-tris(Pyrid-4-yl)-1,3,5-triazine-N,N',N'')-hexakis(2,2-bipyridyl-N,N')-hexa-palladium tetrakis(o-carborane) clathrate dodecanitrate hydrate"
_symmetry_cell_setting           tetragonal
_symmetry_space_group_name_H-M   'P 41 21 2'
_symmetry_Int_Tables_number      92
_space_group_name_Hall           'P 4abw 2nw'
loop_
_symmetry_equiv_pos_site_id
_symmetry_equiv_pos_as_xyz
1 x,y,z
2 1/2-y,1/2+x,1/4+z
3 1/2+x,1/2-y,3/4-z
4 -x,-y,1/2+z
5 y,x,-z
6 1/2+y,1/2-x,3/4+z
7 1/2-x,1/2+y,1/4-z
8 -y,-x,1/2-z
_cell_length_a                   29.146(3)
_cell_length_b                   29.146(3)
_cell_length_c                   30.712(5)
_cell_angle_alpha                90
_cell_angle_beta                 90
_cell_angle_gamma                90
_cell_volume                     26089.5
_exptl_crystal_colour            'pale yellow'
_chemical_melting_point          'above 300deg.C'
_cell_formula_units_Z            4
loop_
_atom_site_label
_atom_site_type_symbol
_atom_site_fract_x
_atom_site_fract_y
_atom_site_fract_z
N1 N 0.3462(9) -0.0826(7) 0.4549(9)
O20 O 0.3814(7) -0.0873(6) 0.4698(6)
O21 O 0.3129(6) -0.0938(6) 0.4808(6)
O22 O 0.3328(8) -0.0703(8) 0.4220(8)
N5 N 0.5259(19) -0.0492(19) 0.2773(16)
O8 O 0.5421(17) -0.0187(18) 0.2561(15)
O9 O 0.5810(30) -0.0490(30) 0.2800(30)
O26 O 0.4944(17) -0.0774(16) 0.2987(15)
B1 B 0.7050(20) 0.3870(20) 0.1022(19)
B2 B 0.7405(10) 0.4097(10) 0.1308(10)
B3 B 0.7025(17) 0.3191(17) 0.1109(17)
B4 B 0.7205(8) 0.3417(9) 0.1940(8)
B5 B 0.6850(16) 0.3215(17) 0.1526(16)
B6 B 0.7444(11) 0.3143(9) 0.1486(11)
B13 B 0.7568(10) 0.3563(10) 0.1095(10)
B14 B 0.7615(15) 0.3747(15) 0.1684(14)
B15 B 0.7181(10) 0.4007(9) 0.1831(9)
B16 B 0.6581(11) 0.3592(11) 0.1259(11)
B17 B 0.6757(18) 0.4037(19) 0.1587(17)
B18 B 0.6688(15) 0.3590(16) 0.1786(15)
B7 B 0.3976(10) 0.2358(12) 0.4893(8)
B8 B 0.3483(12) 0.2592(11) 0.4943(10)
B9 B 0.3380(12) 0.1834(11) 0.4517(10)
B10 B 0.3120(20) 0.2280(20) 0.4260(20)
B11 B 0.3420(20) 0.1920(20) 0.4970(20)
B12 B 0.3666(11) 0.2617(11) 0.4100(11)
B19 B 0.3870(30) 0.2850(30) 0.4560(20)
B20 B 0.3271(18) 0.2693(18) 0.4446(17)
B21 B 0.3115(11) 0.2268(12) 0.4711(9)
B22 B 0.3912(11) 0.1889(10) 0.4630(10)
B23 B 0.3800(20) 0.2080(20) 0.4109(19)
B24 B 0.4079(18) 0.2435(18) 0.4351(16)
O1 O 0.4160(10) 0.1963(10) 0.3219(9)
O2 O 0.6386(12) 0.6973(12) 0.3090(11)
O3 O 0.6278(11) 0.1818(11) 0.4825(10)
O4 O 0.7810(30) 0.4620(30) 0.1640(20)
O5 O 0.6610(20) 0.1110(20) 0.4950(20)
O6 O 0.0297(12) 0.3618(13) 0.2733(12)
O7 O 0.7590(20) 0.5410(20) 0.6658(18)
O11 O 0.6620(20) 0.3380(20) 0.7500
O12 O 0.6560(20) 0.0130(20) 0.4446(19)
O13 O 0.1573(18) -0.1072(19) 0.2742(17)
O14 O 0.7640(20) 0.4702(19) 0.7137(18)
O15 O 0.4400(30) -0.1530(30) 0.2470(30)
O16 O 0.2322(17) 0.5105(17) 0.4798(16)
O17 O 0.8510(50) 0.3590(40) 0.8040(40)
O18 O 0.7893(19) 0.0829(18) 0.4879(18)
O19 O 0.2770(40) 0.1690(40) -0.0030(30)
N13 N 0.9547(9) 0.3867(9) 0.3557(8)
O23 O 0.9661(7) 0.4195(7) 0.3308(6)
O24 O 0.9182(7) 0.3846(7) 0.3774(6)
O25 O 0.9833(8) 0.3506(9) 0.3538(8)
O27 O 0.1204(15) -0.0876(14) 0.3889(13)
O28 O 0.8120(19) 0.0328(19) 0.4351(17)
O29 O 0.6730(30) -0.0550(30) 0.3660(30)
O30 O 0.8040(20) 0.2690(20) 0.7940(20)
O31 O 0.7230(40) 0.1680(40) 0.5930(40)
O32 O 0.6018(13) 0.6653(13) 0.3822(12)
O33 O 0.2610(30) 0.2610(30) 0.0000
O34 O 0.5760(40) -0.1210(40) 0.3430(40)
O35 O 0.8870(30) 0.2010(20) 0.7910(20)
O36 O 0.6937(19) 0.2540(20) 0.6072(18)
O37 O 0.7910(40) 0.3760(40) 0.8520(30)
O38 O 0.0040(20) 0.2100(20) 0.3198(19)
Pd1 Pd 0.0106(1) 0.0106(1) 0.5000
Pd2 Pd 0.4616(1) 0.4616(1) 0.5000
N2 N 0.0764(6) 0.0158(5) 0.4766(6)
N3 N 0.4075(8) 0.4441(7) 0.4616(5)
N4 N 0.4306(6) 0.0853(7) 0.5937(7)
N6 N 0.3052(5) 0.3610(6) 0.3594(6)
N7 N 0.2966(5) 0.0604(5) 0.4071(6)
N8 N 0.2460(7) 0.0306(5) 0.4606(5)
N9 N 0.3129(6) 0.1235(8) 0.1719(6)
N10 N 0.5138(8) 0.4835(8) 0.5354(7)
N11 N 0.4679(6) -0.0459(7) 0.5703(9)
C1 C 0.0782(7) 0.0297(8) 0.4365(8)
C2 C 0.1227(11) 0.0375(7) 0.4209(7)
C3 C 0.2766(7) 0.3037(5) 0.3029(6)
Pd3 Pd 0.2990(1) 0.1776(1) 0.2095(1)
Pd4 Pd 0.4492(1) 0.0211(1) 0.5790(1)
N12 N 0.2889(6) 0.2349(5) 0.2477(4)
N14 N 0.2851(6) 0.1404(6) 0.2637(6)
N15 N 0.3975(5) 0.0221(5) 0.5329(6)
N16 N 0.2167(6) 0.0590(5) 0.3926(5)
N17 N 0.2568(7) 0.4092(5) 0.3952(5)
N18 N 0.2259(6) 0.3558(6) 0.3433(6)
N19 N 0.0020(7) -0.0522(7) 0.4797(6)
N20 N 0.3183(6) 0.2117(8) 0.1564(5)
N21 N 0.4981(7) 0.0194(5) 0.6249(6)
C4 C 0.3246(7) 0.2541(8) 0.2669(6)
C5 C 0.3186(7) 0.2904(6) 0.2967(6)
C6 C 0.1636(6) 0.0298(7) 0.4455(7)
C7 C 0.2396(7) 0.2853(7) 0.2840(8)
C8 C 0.1553(9) 0.0157(7) 0.4891(7)
C9 C 0.1113(9) 0.0111(6) 0.5031(8)
C10 C 0.2698(8) 0.3427(6) 0.3372(6)
C11 C 0.3669(8) 0.4611(8) 0.4678(7)
C12 C 0.3323(9) 0.4470(8) 0.4430(8)
C13 C 0.2692(8) 0.0932(7) 0.3409(7)
C14 C 0.3807(8) 0.3938(6) 0.4043(7)
C15 C 0.4156(7) 0.4098(8) 0.4330(7)
C16 C 0.2977(7) 0.3946(7) 0.3854(6)
C17 C 0.4088(7) 0.0370(6) 0.4935(7)
C18 C 0.4376(7) 0.1657(8) 0.5841(8)
C19 C 0.3260(8) 0.0333(6) 0.4749(7)
C20 C 0.3217(7) 0.0186(8) 0.5129(11)
C21 C 0.3548(9) 0.0121(6) 0.5457(7)
C22 C 0.2855(10) 0.0414(6) 0.4468(7)
C23 C 0.0220(12) -0.1257(9) 0.4456(7)
C24 C -0.0489(11) -0.1155(10) 0.4748(10)
C25 C 0.3103(7) 0.0803(9) 0.1814(7)
C26 C 0.3414(10) 0.0545(15) 0.1179(13)
C27 C 0.3311(7) 0.1361(10) 0.1323(10)
C28 C 0.3430(20) 0.1960(13) 0.0837(15)
C29 C 0.3348(9) 0.2780(10) 0.1112(10)
C30 C 0.5276(9) 0.4657(11) 0.5742(13)
C31 C 0.5870(14) 0.5217(14) 0.5800(12)
C32 C 0.5385(10) 0.5170(10) 0.5206(6)
C33 C 0.5455(14) 0.0495(13) 0.6758(12)
C34 C 0.5540(14) -0.0287(9) 0.6640(12)
C35 C 0.5014(8) -0.0581(8) 0.6001(9)
C36 C 0.4987(10) -0.1316(12) 0.5702(16)
C37 C 0.4528(9) -0.0738(8) 0.5415(9)
C38 C 0.2473(7) 0.2499(7) 0.2576(6)
C39 C 0.2123(7) 0.0420(6) 0.4328(8)
C40 C 0.3175(7) 0.1340(6) 0.2921(7)
C41 C 0.3110(8) 0.1121(7) 0.3306(8)
C42 C 0.3372(7) 0.4116(7) 0.4120(7)
C43 C 0.2341(8) 0.0987(8) 0.3079(8)
C44 C 0.2422(8) 0.1225(8) 0.2726(7)
C45 C 0.2588(9) 0.0685(6) 0.3818(6)
C46 C 0.4464(10) 0.1180(7) 0.5749(10)
C47 C 0.3714(10) 0.0432(6) 0.4633(6)
C48 C 0.4047(7) 0.1752(7) 0.6156(6)
C49 C 0.3854(7) 0.1378(6) 0.6370(6)
C50 C 0.4006(9) 0.0935(8) 0.6249(8)
C51 C 0.2204(8) 0.3903(7) 0.3734(7)
C52 C 0.0304(10) -0.0803(8) 0.4614(7)
C53 C -0.0184(13) -0.1398(10) 0.4586(12)
C54 C -0.0404(11) -0.0732(11) 0.4890(7)
C55 C 0.3189(10) 0.0447(11) 0.1557(9)
C56 C 0.3466(10) 0.1009(15) 0.1043(10)
C57 C 0.3331(7) 0.1822(12) 0.1230(7)
C58 C 0.3489(11) 0.2350(30) 0.0774(12)
C59 C 0.3202(12) 0.2582(11) 0.1484(9)
C60 C 0.5638(14) 0.4814(12) 0.5963(9)
C61 C 0.5731(12) 0.5363(14) 0.5401(13)
C62 C 0.5143(12) 0.0550(9) 0.6479(8)
C63 C 0.5650(20) 0.0080(13) 0.6857(11)
C64 C 0.5176(11) -0.0216(8) 0.6303(10)
C65 C 0.5174(15) -0.1000(9) 0.6047(13)
C66 C 0.4669(9) -0.1205(10) 0.5398(11)
H1 H 0.3540 0.2436 0.2606
H2 H 0.3432 0.3041 0.3110
H3 H 0.2103 0.2966 0.2890
H4 H 0.2222 0.2350 0.2455
H5 H 0.3467 0.1451 0.2857
H6 H 0.3351 0.1098 0.3503
H7 H 0.2055 0.0852 0.3119
H8 H 0.2184 0.1275 0.2530
H9 H 0.4663 0.1119 0.5520
H10 H 0.3775 0.0541 0.4355
H11 H 0.3633 0.1419 0.6585
H12 H 0.3886 0.0685 0.6399
H13 H 0.0602 -0.0695 0.4580
H14 H -0.0249 -0.1709 0.4554
H15 H 0.3012 0.0734 0.2096
H16 H 0.3534 0.0309 0.1010
H17 H 0.3454 0.1750 0.0610
H18 H 0.3368 0.3093 0.1054
H19 H 0.5110 0.4414 0.5859
H20 H 0.6098 0.5366 0.5957
H21 H 0.5024 0.0842 0.6432
H22 H 0.5863 0.0056 0.7083
H23 H 0.5376 -0.1090 0.6265
H24 H 0.4554 -0.1415 0.5198
H25 H 0.0522 0.0342 0.4195
H26 H 0.1259 0.0485 0.3926
H27 H 0.1797 0.0097 0.5078
H28 H 0.1058 0.0046 0.5323
H29 H 0.3621 0.4830 0.4894
H30 H 0.3038 0.4610 0.4461
H31 H 0.3866 0.3729 0.3821
H32 H 0.4445 0.3964 0.4320
H33 H 0.4391 0.0432 0.4859
H34 H 0.4532 0.1890 0.5697
H35 H 0.2919 0.0108 0.5208
H36 H 0.3476 0.0018 0.5736
H37 H 0.0422 -0.1426 0.4287
H38 H -0.0785 -0.1271 0.4771
H39 H 0.3102 0.0150 0.1630
H40 H 0.3599 0.1078 0.0776
H41 H 0.3627 0.2433 0.0512
H42 H 0.3105 0.2776 0.1705
H43 H 0.5739 0.4669 0.6215
H44 H 0.5886 0.5603 0.5267
H45 H 0.5560 0.0753 0.6906
H46 H 0.5677 -0.0570 0.6689
H47 H 0.5100 -0.1614 0.5697
H48 H 0.4319 -0.0632 0.5210
C48D C 0.1752(7) 0.4047(7) 0.3844(6)
C18D C 0.1657(8) 0.4376(7) 0.4159(8)
C46D C 0.1180(7) 0.4464(10) 0.4251(10)
N4D N 0.0853(7) 0.4306(6) 0.4063(7)
Pd4D Pd 0.0211(1) 0.4492(1) 0.4210(1)
N11D N -0.0459(7) 0.4679(6) 0.4297(9)
C35D C -0.0581(8) 0.5014(8) 0.3999(9)
C64D C -0.0216(8) 0.5176(11) 0.3697(10)
N21D N 0.0194(5) 0.4981(7) 0.3751(6)
N15D N 0.0221(5) 0.3975(5) 0.4671(6)
C17D C 0.0370(6) 0.4088(7) 0.5065(7)
C47D C 0.0432(6) 0.3714(10) 0.5367(6)
C19D C 0.0333(6) 0.3260(8) 0.5251(7)
C20D C 0.0186(8) 0.3217(7) 0.4871(11)
C21D C 0.0121(6) 0.3548(9) 0.4543(7)
H36D H 0.0018 0.3476 0.4264
H35D H 0.0108 0.2919 0.4792
C22D C 0.0414(6) 0.2855(10) 0.5532(7)
N7D N 0.0604(5) 0.2966(5) 0.5929(6)
C45D C 0.0685(6) 0.2588(9) 0.6182(6)
N16D N 0.0590(5) 0.2167(6) 0.6074(5)
C39D C 0.0420(6) 0.2123(7) 0.5672(8)
N8D N 0.0306(5) 0.2460(7) 0.5394(5)
C6D C 0.0298(7) 0.1636(6) 0.5545(7)
C2D C 0.0375(7) 0.1227(11) 0.5791(7)
C1D C 0.0297(8) 0.0782(7) 0.5635(8)
N2D N 0.0158(5) 0.0764(6) 0.5234(6)
C54D C -0.0732(11) -0.0404(11) 0.5110(7)
N19D N -0.0522(7) 0.0020(7) 0.5203(6)
C52D C -0.0803(8) 0.0304(10) 0.5386(7)
C23D C -0.1257(9) 0.0220(12) 0.5544(7)
C53D C -0.1398(10) -0.0184(13) 0.5414(12)
C24D C -0.1155(10) -0.0489(11) 0.5252(10)
H38D H -0.1271 -0.0785 0.5229
H14D H -0.1709 -0.0249 0.5446
H37D H -0.1426 0.0422 0.5713
H13D H -0.0695 0.0602 0.5420
C9D C 0.0111(6) 0.1113(9) 0.4969(8)
C8D C 0.0157(7) 0.1553(9) 0.5109(7)
H27D H 0.0097 0.1797 0.4922
H28D H 0.0046 0.1058 0.4677
H25D H 0.0342 0.0522 0.5805
H26D H 0.0485 0.1259 0.6074
C13D C 0.0932(7) 0.2692(8) 0.6591(7)
C41D C 0.1121(7) 0.3110(8) 0.6694(8)
C40D C 0.1340(6) 0.3175(7) 0.7079(7)
N14D N 0.1404(6) 0.2851(6) 0.7363(6)
Pd3D Pd 0.1776(1) 0.2990(1) 0.7905(1)
N9D N 0.1235(8) 0.3129(6) 0.8281(6)
C25D C 0.0803(9) 0.3103(7) 0.8186(7)
C55D C 0.0447(11) 0.3189(10) 0.8443(9)
C26D C 0.0545(15) 0.3414(10) 0.8821(13)
C56D C 0.1009(15) 0.3466(10) 0.8957(10)
C27D C 0.1361(10) 0.3311(7) 0.8677(10)
C57D C 0.1822(12) 0.3331(7) 0.8770(7)
N20D N 0.2117(8) 0.3183(6) 0.8436(5)
N12D N 0.2349(5) 0.2889(6) 0.7523(4)
C4D C 0.2541(8) 0.3246(7) 0.7331(6)
C5D C 0.2904(6) 0.3186(7) 0.7033(6)
C3D C 0.3037(5) 0.2766(7) 0.6971(6)
C7D C 0.2853(7) 0.2396(7) 0.7160(8)
C38D C 0.2499(7) 0.2473(7) 0.7424(6)
H4D H 0.2350 0.2222 0.7545
H3D H 0.2966 0.2103 0.7110
C10D C 0.3427(6) 0.2698(8) 0.6628(6)
N6D N 0.3610(6) 0.3052(5) 0.6406(6)
C16D C 0.3946(7) 0.2977(7) 0.6146(6)
N17D N 0.4092(5) 0.2568(7) 0.6048(5)
C51D C 0.3903(7) 0.2204(8) 0.6266(7)
N18D N 0.3558(6) 0.2259(6) 0.6567(6)
C42D C 0.4116(7) 0.3372(7) 0.5880(7)
C12D C 0.4470(8) 0.3323(9) 0.5570(8)
C11D C 0.4611(8) 0.3669(8) 0.5322(7)
N3D N 0.4441(7) 0.4075(8) 0.5384(5)
C32D C 0.5170(10) 0.5385(10) 0.4794(6)
N10D N 0.4835(8) 0.5138(8) 0.4646(7)
C30D C 0.4657(11) 0.5276(9) 0.4258(13)
C60D C 0.4814(12) 0.5638(14) 0.4037(9)
C31D C 0.5217(14) 0.5870(14) 0.4200(12)
C61D C 0.5363(14) 0.5731(12) 0.4599(13)
H44D H 0.5603 0.5886 0.4733
H20D H 0.5366 0.6098 0.4043
H43D H 0.4669 0.5739 0.3785
H19D H 0.4414 0.5110 0.4141
C15D C 0.4098(8) 0.4156(7) 0.5670(7)
C14D C 0.3938(6) 0.3807(8) 0.5957(7)
H31D H 0.3729 0.3866 0.6179
H32D H 0.3964 0.4445 0.5680
H29D H 0.4830 0.3621 0.5106
H30D H 0.4610 0.3038 0.5539
H2D H 0.3041 0.3432 0.6890
H1D H 0.2436 0.3540 0.7394
C59D C 0.2582(11) 0.3202(12) 0.8516(9)
C29D C 0.2780(10) 0.3348(9) 0.8888(10)
C58D C 0.2350(30) 0.3489(11) 0.9226(12)
C28D C 0.1960(13) 0.3430(20) 0.9163(15)
H17D H 0.1750 0.3454 0.9390
H41D H 0.2433 0.3627 0.9488
H18D H 0.3093 0.3368 0.8946
H42D H 0.2776 0.3105 0.8295
H40D H 0.1078 0.3599 0.9224
H16D H 0.0309 0.3534 0.8990
H39D H 0.0150 0.3102 0.8370
H15D H 0.0734 0.3012 0.7904
C44D C 0.1225(8) 0.2422(8) 0.7274(7)
C43D C 0.0987(8) 0.2341(8) 0.6921(8)
H7D H 0.0852 0.2055 0.6881
H8D H 0.1275 0.2184 0.7470
H5D H 0.1451 0.3467 0.7143
H6D H 0.1098 0.3351 0.6497
H10D H 0.0541 0.3775 0.5645
H33D H 0.0432 0.4391 0.5141
C62D C 0.0550(9) 0.5143(12) 0.3521(8)
C33D C 0.0495(13) 0.5455(14) 0.3242(12)
C63D C 0.0080(13) 0.5650(20) 0.3143(11)
C34D C -0.0287(9) 0.5540(14) 0.3360(12)
H46D H -0.0570 0.5677 0.3311
H22D H 0.0056 0.5863 0.2917
H45D H 0.0753 0.5560 0.3094
H21D H 0.0842 0.5024 0.3568
C65D C -0.1000(9) 0.5174(15) 0.3953(13)
C36D C -0.1316(12) 0.4987(10) 0.4298(16)
C66D C -0.1205(10) 0.4669(9) 0.4602(11)
C37D C -0.0738(8) 0.4528(9) 0.4585(9)
H48D H -0.0632 0.4319 0.4790
H24D H -0.1415 0.4554 0.4802
H47D H -0.1614 0.5100 0.4303
H23D H -0.1090 0.5376 0.3735
C50D C 0.0935(8) 0.4006(9) 0.3751(8)
C49D C 0.1378(6) 0.3854(7) 0.3630(6)
H11D H 0.1419 0.3633 0.3415
H12D H 0.0685 0.3886 0.3601
H9D H 0.1119 0.4663 0.4480
H34D H 0.1890 0.4532 0.4303
O10? O 0.6960(50) 0.0830(50) 0.5140(40)
loop_
_geom_bond_atom_site_label_1
_geom_bond_atom_site_label_2
_geom_bond_site_symmetry_1
_geom_bond_site_symmetry_2
Pd1 N2 1_555 1_555
Pd2 N3 1_555 1_555
N1 O20 1_555 1_555
N2 C1 1_555 1_555
N3 C11 1_555 1_555
N4 Pd4 1_555 1_555
N5 O8 1_555 1_555
N6 C10 1_555 1_555
N7 C22 1_555 1_555
N8 C22 1_555 1_555
N9 Pd3 1_555 1_555
N10 Pd2 1_555 1_555
N11 Pd4 1_555 1_555
B1 B2 1_555 1_555
B2 B13 1_555 1_555
B3 B1 1_555 1_555
B4 B5 1_555 1_555
B5 B3 1_555 1_555
B6 B3 1_555 1_555
B7 B8 1_555 1_555
B8 B11 1_555 1_555
B9 B10 1_555 1_555
B10 B12 1_555 1_555
B11 B7 1_555 1_555
B12 B19 1_555 1_555
O9 N5 1_555 1_555
C1 C2 1_555 1_555
C2 C6 1_555 1_555
C3 C5 1_555 1_555
Pd3 N12 1_555 1_555
Pd4 N15 1_555 1_555
N12 C4 1_555 1_555
N13 O23 1_555 1_555
N14 Pd3 1_555 1_555
N15 C17 1_555 1_555
N16 C39 1_555 1_555
N17 C16 1_555 1_555
N18 C10 1_555 1_555
N19 Pd1 1_555 1_555
N20 Pd3 1_555 1_555
N21 Pd4 1_555 1_555
B13 B1 1_555 1_555
B14 B2 1_555 1_555
B15 B2 1_555 1_555
B16 B1 1_555 1_555
B17 B1 1_555 1_555
B18 B4 1_555 1_555
B19 B7 1_555 1_555
B20 B8 1_555 1_555
B21 B8 1_555 1_555
B22 B7 1_555 1_555
B23 B9 1_555 1_555
B24 B7 1_555 1_555
O21 N1 1_555 1_555
O22 N1 1_555 1_555
O24 N13 1_555 1_555
O25 N13 1_555 1_555
O26 N5 1_555 1_555
C4 C5 1_555 1_555
C5 H2 1_555 1_555
C6 C8 1_555 1_555
C7 C3 1_555 1_555
C8 C9 1_555 1_555
C9 N2 1_555 1_555
C10 C3 1_555 1_555
C11 C12 1_555 1_555
C12 C42 1_555 1_555
C13 C41 1_555 1_555
C14 C15 1_555 1_555
C15 N3 1_555 1_555
C16 N6 1_555 1_555
C17 C47 1_555 1_555
C18 C46 1_555 1_555
C19 C20 1_555 1_555
C20 C21 1_555 1_555
C21 N15 1_555 1_555
C22 C19 1_555 1_555
C23 C52 1_555 1_555
C24 C53 1_555 1_555
C25 N9 1_555 1_555
C26 C55 1_555 1_555
C27 N9 1_555 1_555
C28 C57 1_555 1_555
C29 C58 1_555 1_555
C30 N10 1_555 1_555
C31 C60 1_555 1_555
C32 N10 1_555 1_555
C33 C62 1_555 1_555
C34 C63 1_555 1_555
C35 N11 1_555 1_555
C36 C65 1_555 1_555
C37 N11 1_555 1_555
C38 N12 1_555 1_555
C39 N8 1_555 1_555
C40 N14 1_555 1_555
C41 C40 1_555 1_555
C42 C14 1_555 1_555
C43 C13 1_555 1_555
C44 N14 1_555 1_555
C45 N7 1_555 1_555
C46 N4 1_555 1_555
C47 C19 1_555 1_555
C48 C18 1_555 1_555
C49 C48 1_555 1_555
C50 N4 1_555 1_555
C51 N17 1_555 1_555
C52 N19 1_555 1_555
C53 C23 1_555 1_555
C54 N19 1_555 1_555
C55 C25 1_555 1_555
C56 C26 1_555 1_555
C57 N20 1_555 1_555
C58 C28 1_555 1_555
C59 N20 1_555 1_555
C60 C30 1_555 1_555
C61 C31 1_555 1_555
C62 N21 1_555 1_555
C63 C33 1_555 1_555
C64 N21 1_555 1_555
C65 C35 1_555 1_555
C66 C36 1_555 1_555
H1 C4 1_555 1_555
H3 C7 1_555 1_555
H4 C38 1_555 1_555
H5 C40 1_555 1_555
H6 C41 1_555 1_555
H7 C43 1_555 1_555
H8 C44 1_555 1_555
H9 C46 1_555 1_555
H10 C47 1_555 1_555
H11 C49 1_555 1_555
H12 C50 1_555 1_555
H13 C52 1_555 1_555
H14 C53 1_555 1_555
H15 C25 1_555 1_555
H16 C26 1_555 1_555
H17 C28 1_555 1_555
H18 C29 1_555 1_555
H19 C30 1_555 1_555
H20 C31 1_555 1_555
H21 C62 1_555 1_555
H22 C63 1_555 1_555
H23 C65 1_555 1_555
H24 C66 1_555 1_555
H25 C1 1_555 1_555
H26 C2 1_555 1_555
H27 C8 1_555 1_555
H28 C9 1_555 1_555
H29 C11 1_555 1_555
H30 C12 1_555 1_555
H31 C14 1_555 1_555
H32 C15 1_555 1_555
H33 C17 1_555 1_555
H34 C18 1_555 1_555
H35 C20 1_555 1_555
H36 C21 1_555 1_555
H37 C23 1_555 1_555
H38 C24 1_555 1_555
H39 C55 1_555 1_555
H40 C56 1_555 1_555
H41 C58 1_555 1_555
H42 C59 1_555 1_555
H43 C60 1_555 1_555
H44 C61 1_555 1_555
H45 C33 1_555 1_555
H46 C34 1_555 1_555
H47 C36 1_555 1_555
H48 C37 1_555 1_555
C48D C51 1_555 1_555
C18D C48D 1_555 1_555
C46D C18D 1_555 1_555
N4D C46D 1_555 1_555
Pd4D N4D 1_555 1_555
N11D Pd4D 1_555 1_555
C35D N11D 1_555 1_555
C64D C35D 1_555 1_555
N21D Pd4D 1_555 1_555
N15D Pd4D 1_555 1_555
C17D N15D 1_555 1_555
C47D C17D 1_555 1_555
C19D C47D 1_555 1_555
C20D C19D 1_555 1_555
C21D N15D 1_555 1_555
H36D C21D 1_555 1_555
H35D C20D 1_555 1_555
C22D C19D 1_555 1_555
N7D C22D 1_555 1_555
C45D N7D 1_555 1_555
N16D C45D 1_555 1_555
C39D N16D 1_555 1_555
N8D C22D 1_555 1_555
C6D C39D 1_555 1_555
C2D C6D 1_555 1_555
C1D C2D 1_555 1_555
N2D Pd1 1_555 1_555
C54D C54 1_555 1_555
N19D Pd1 1_555 1_555
C52D N19D 1_555 1_555
C23D C52D 1_555 1_555
C53D C23D 1_555 1_555
C24D C54D 1_555 1_555
H38D C24D 1_555 1_555
H14D C53D 1_555 1_555
H37D C23D 1_555 1_555
H13D C52D 1_555 1_555
C9D N2D 1_555 1_555
C8D C6D 1_555 1_555
H27D C8D 1_555 1_555
H28D C9D 1_555 1_555
H25D C1D 1_555 1_555
H26D C2D 1_555 1_555
C13D C45D 1_555 1_555
C41D C13D 1_555 1_555
C40D C41D 1_555 1_555
N14D C40D 1_555 1_555
Pd3D N14D 1_555 1_555
N9D Pd3D 1_555 1_555
C25D N9D 1_555 1_555
C55D C25D 1_555 1_555
C26D C55D 1_555 1_555
C56D C26D 1_555 1_555
C27D N9D 1_555 1_555
C57D C27D 1_555 1_555
N20D Pd3D 1_555 1_555
N12D Pd3D 1_555 1_555
C4D N12D 1_555 1_555
C5D C4D 1_555 1_555
C3D C5D 1_555 1_555
C7D C3D 1_555 1_555
C38D N12D 1_555 1_555
H4D C38D 1_555 1_555
H3D C7D 1_555 1_555
C10D C3D 1_555 1_555
N6D C10D 1_555 1_555
C16D N6D 1_555 1_555
N17D C16D 1_555 1_555
C51D C48 1_555 1_555
N18D C10D 1_555 1_555
C42D C16D 1_555 1_555
C12D C42D 1_555 1_555
C11D C12D 1_555 1_555
N3D Pd2 1_555 1_555
C32D C32 1_555 1_555
N10D Pd2 1_555 1_555
C30D N10D 1_555 1_555
C60D C30D 1_555 1_555
C31D C60D 1_555 1_555
C61D C32D 1_555 1_555
H44D C61D 1_555 1_555
H20D C31D 1_555 1_555
H43D C60D 1_555 1_555
H19D C30D 1_555 1_555
C15D N3D 1_555 1_555
C14D C42D 1_555 1_555
H31D C14D 1_555 1_555
H32D C15D 1_555 1_555
H29D C11D 1_555 1_555
H30D C12D 1_555 1_555
H2D C5D 1_555 1_555
H1D C4D 1_555 1_555
C59D N20D 1_555 1_555
C29D C59D 1_555 1_555
C58D C29D 1_555 1_555
C28D C57D 1_555 1_555
H17D C28D 1_555 1_555
H41D C58D 1_555 1_555
H18D C29D 1_555 1_555
H42D C59D 1_555 1_555
H40D C56D 1_555 1_555
H16D C26D 1_555 1_555
H39D C55D 1_555 1_555
H15D C25D 1_555 1_555
C44D N14D 1_555 1_555
C43D C13D 1_555 1_555
H7D C43D 1_555 1_555
H8D C44D 1_555 1_555
H5D C40D 1_555 1_555
H6D C41D 1_555 1_555
H10D C47D 1_555 1_555
H33D C17D 1_555 1_555
C62D N21D 1_555 1_555
C33D C62D 1_555 1_555
C63D C33D 1_555 1_555
C34D C64D 1_555 1_555
H46D C34D 1_555 1_555
H22D C63D 1_555 1_555
H45D C33D 1_555 1_555
H21D C62D 1_555 1_555
C65D C35D 1_555 1_555
C36D C65D 1_555 1_555
C66D C36D 1_555 1_555
C37D N11D 1_555 1_555
H48D C37D 1_555 1_555
H24D C66D 1_555 1_555
H47D C36D 1_555 1_555
H23D C65D 1_555 1_555
C50D N4D 1_555 1_555
C49D C48D 1_555 1_555
H11D C49D 1_555 1_555
H12D C50D 1_555 1_555
H9D C46D 1_555 1_555
H34D C18D 1_555 1_555
B2 B17 1_555 1_555
B3 B13 1_555 1_555
B3 B16 1_555 1_555
B4 B6 1_555 1_555
B4 B15 1_555 1_555
B4 B14 1_555 1_555
B5 B16 1_555 1_555
B5 B6 1_555 1_555
B5 B18 1_555 1_555
B6 B13 1_555 1_555
B6 B14 1_555 1_555
B8 B19 1_555 1_555
B9 B22 1_555 1_555
B9 B11 1_555 1_555
B9 B21 1_555 1_555
B10 B20 1_555 1_555
B10 B21 1_555 1_555
B10 B23 1_555 1_555
B11 B21 1_555 1_555
B11 B22 1_555 1_555
B12 B24 1_555 1_555
B12 B20 1_555 1_555
B12 B23 1_555 1_555
N16 C45 1_555 1_555
N18 C51 1_555 1_555
B13 B14 1_555 1_555
B14 B15 1_555 1_555
B15 B17 1_555 1_555
B15 B18 1_555 1_555
B16 B18 1_555 1_555
B16 B17 1_555 1_555
B17 B18 1_555 1_555
B19 B20 1_555 1_555
B19 B24 1_555 1_555
B20 B21 1_555 1_555
B22 B23 1_555 1_555
B22 B24 1_555 1_555
B23 B24 1_555 1_555
C6 C39 1_555 1_555
C7 C38 1_555 1_555
C13 C45 1_555 1_555
C16 C42 1_555 1_555
C24 C54 1_555 1_555
C27 C56 1_555 1_555
C27 C57 1_555 1_555
C29 C59 1_555 1_555
C32 C61 1_555 1_555
C34 C64 1_555 1_555
C35 C64 1_555 1_555
C37 C66 1_555 1_555
C43 C44 1_555 1_555
C49 C50 1_555 1_555
C64D N21D 1_555 1_555
C20D C21D 1_555 1_555
C39D N8D 1_555 1_555
C1D N2D 1_555 1_555
C54D N19D 1_555 1_555
C53D C24D 1_555 1_555
C9D C8D 1_555 1_555
C56D C27D 1_555 1_555
C57D N20D 1_555 1_555
C7D C38D 1_555 1_555
N17D C51D 1_555 1_555
C51D N18D 1_555 1_555
C11D N3D 1_555 1_555
C32D N10D 1_555 1_555
C31D C61D 1_555 1_555
C15D C14D 1_555 1_555
C58D C28D 1_555 1_555
C44D C43D 1_555 1_555
C63D C34D 1_555 1_555
C66D C37D 1_555 1_555
C50D C49D 1_555 1_555

#END
