# generated using pymatgen
data_H58Pd3C79(NO2)23
_symmetry_space_group_name_H-M   'P 1'
_cell_length_a   28.84230000
_cell_length_b   30.48100000
_cell_length_c   30.48100000
_cell_angle_alpha   90.00000000
_cell_angle_beta   90.00000000
_cell_angle_gamma   90.00000000
_symmetry_Int_Tables_number   1
_chemical_formula_structural   H58Pd3C79(NO2)23
_chemical_formula_sum   'H464 Pd24 C632 N184 O368'
_cell_volume   26797.13176137
_cell_formula_units_Z   8
loop_
 _symmetry_equiv_pos_site_id
 _symmetry_equiv_pos_as_xyz
  1  'x, y, z'
loop_
 _atom_site_type_symbol
 _atom_site_label
 _atom_site_symmetry_multiplicity
 _atom_site_fract_x
 _atom_site_fract_y
 _atom_site_fract_z
 _atom_site_occupancy
  H  H1  1  0.650700  0.345400  0.978000  1.0
  H  H2  1  0.900700  0.522000  0.845400  1.0
  H  H3  1  0.099300  0.845400  0.522000  1.0
  H  H4  1  0.150700  0.654600  0.022000  1.0
  H  H5  1  0.349300  0.978000  0.345400  1.0
  H  H6  1  0.400700  0.478000  0.154600  1.0
  H  H7  1  0.599300  0.154600  0.478000  1.0
  H  H8  1  0.849300  0.022000  0.654600  1.0
  H  H9  1  0.708200  0.293900  0.973100  1.0
  H  H10  1  0.958200  0.526900  0.793900  1.0
  H  H11  1  0.041800  0.793900  0.526900  1.0
  H  H12  1  0.208200  0.706100  0.026900  1.0
  H  H13  1  0.291800  0.973100  0.293900  1.0
  H  H14  1  0.458200  0.473100  0.206100  1.0
  H  H15  1  0.541800  0.206100  0.473100  1.0
  H  H16  1  0.791800  0.026900  0.706100  1.0
  H  H17  1  0.792400  0.387000  0.927500  1.0
  H  H18  1  0.042400  0.572500  0.887000  1.0
  H  H19  1  0.957600  0.887000  0.572500  1.0
  H  H20  1  0.292400  0.613000  0.072500  1.0
  H  H21  1  0.207600  0.927500  0.387000  1.0
  H  H22  1  0.542400  0.427500  0.113000  1.0
  H  H23  1  0.457600  0.113000  0.427500  1.0
  H  H24  1  0.707600  0.072500  0.613000  1.0
  H  H25  1  0.735000  0.436700  0.936700  1.0
  H  H26  1  0.985000  0.563300  0.936700  1.0
  H  H27  1  0.015000  0.936700  0.563300  1.0
  H  H28  1  0.235000  0.563300  0.063300  1.0
  H  H29  1  0.265000  0.936700  0.436700  1.0
  H  H30  1  0.485000  0.436700  0.063300  1.0
  H  H31  1  0.515000  0.063300  0.436700  1.0
  H  H32  1  0.765000  0.063300  0.563300  1.0
  H  H33  1  0.835100  0.081900  0.935800  1.0
  H  H34  1  0.085100  0.564200  0.581900  1.0
  H  H35  1  0.914900  0.581900  0.564200  1.0
  H  H36  1  0.335100  0.918100  0.064200  1.0
  H  H37  1  0.164900  0.935800  0.081900  1.0
  H  H38  1  0.585100  0.435800  0.418100  1.0
  H  H39  1  0.414900  0.418100  0.435800  1.0
  H  H40  1  0.664900  0.064200  0.918100  1.0
  H  H41  1  0.857000  0.153200  0.923500  1.0
  H  H42  1  0.107000  0.576500  0.653200  1.0
  H  H43  1  0.893000  0.653200  0.576500  1.0
  H  H44  1  0.357000  0.846800  0.076500  1.0
  H  H45  1  0.143000  0.923500  0.153200  1.0
  H  H46  1  0.607000  0.423500  0.346800  1.0
  H  H47  1  0.393000  0.346800  0.423500  1.0
  H  H48  1  0.643000  0.076500  0.846800  1.0
  H  H49  1  0.734900  0.193600  0.968600  1.0
  H  H50  1  0.984900  0.531400  0.693600  1.0
  H  H51  1  0.015100  0.693600  0.531400  1.0
  H  H52  1  0.234900  0.806400  0.031400  1.0
  H  H53  1  0.265100  0.968600  0.193600  1.0
  H  H54  1  0.484900  0.468600  0.306400  1.0
  H  H55  1  0.515100  0.306400  0.468600  1.0
  H  H56  1  0.765100  0.031400  0.806400  1.0
  H  H57  1  0.716700  0.123300  0.983500  1.0
  H  H58  1  0.966700  0.516500  0.623300  1.0
  H  H59  1  0.033300  0.623300  0.516500  1.0
  H  H60  1  0.216700  0.876700  0.016500  1.0
  H  H61  1  0.283300  0.983500  0.123300  1.0
  H  H62  1  0.466700  0.483500  0.376700  1.0
  H  H63  1  0.533300  0.376700  0.483500  1.0
  H  H64  1  0.783300  0.016500  0.876700  1.0
  H  H65  1  0.956700  0.373300  0.845400  1.0
  H  H66  1  0.206700  0.654600  0.873300  1.0
  H  H67  1  0.793300  0.873300  0.654600  1.0
  H  H68  1  0.456700  0.626700  0.154600  1.0
  H  H69  1  0.043300  0.845400  0.373300  1.0
  H  H70  1  0.706700  0.345400  0.126700  1.0
  H  H71  1  0.293300  0.126700  0.345400  1.0
  H  H72  1  0.543300  0.154600  0.626700  1.0
  H  H73  1  0.888100  0.354300  0.874400  1.0
  H  H74  1  0.138100  0.625600  0.854300  1.0
  H  H75  1  0.861900  0.854300  0.625600  1.0
  H  H76  1  0.388100  0.645700  0.125600  1.0
  H  H77  1  0.111900  0.874400  0.354300  1.0
  H  H78  1  0.638100  0.374400  0.145700  1.0
  H  H79  1  0.361900  0.145700  0.374400  1.0
  H  H80  1  0.611900  0.125600  0.645700  1.0
  H  H81  1  0.810900  0.309600  0.543700  1.0
  H  H82  1  0.060900  0.956300  0.809600  1.0
  H  H83  1  0.939100  0.809600  0.956300  1.0
  H  H84  1  0.310900  0.690400  0.456300  1.0
  H  H85  1  0.189100  0.543700  0.309600  1.0
  H  H86  1  0.560900  0.043700  0.190400  1.0
  H  H87  1  0.439100  0.190400  0.043700  1.0
  H  H88  1  0.689100  0.456300  0.690400  1.0
  H  H89  1  0.767300  0.365900  0.514900  1.0
  H  H90  1  0.017300  0.985100  0.865900  1.0
  H  H91  1  0.982700  0.865900  0.985100  1.0
  H  H92  1  0.267300  0.634100  0.485100  1.0
  H  H93  1  0.232700  0.514900  0.365900  1.0
  H  H94  1  0.517300  0.014900  0.134100  1.0
  H  H95  1  0.482700  0.134100  0.014900  1.0
  H  H96  1  0.732700  0.485100  0.634100  1.0
  H  H97  1  0.694200  0.420400  0.040500  1.0
  H  H98  1  0.944200  0.459500  0.920400  1.0
  H  H99  1  0.055800  0.920400  0.459500  1.0
  H  H100  1  0.194200  0.579600  0.959500  1.0
  H  H101  1  0.305800  0.040500  0.420400  1.0
  H  H102  1  0.444200  0.540500  0.079600  1.0
  H  H103  1  0.555800  0.079600  0.540500  1.0
  H  H104  1  0.805800  0.959500  0.579600  1.0
  H  H105  1  0.638200  0.493600  0.137300  1.0
  H  H106  1  0.888200  0.362700  0.993600  1.0
  H  H107  1  0.111800  0.993600  0.362700  1.0
  H  H108  1  0.138200  0.506400  0.862700  1.0
  H  H109  1  0.361800  0.137300  0.493600  1.0
  H  H110  1  0.388200  0.637300  0.006400  1.0
  H  H111  1  0.611800  0.006400  0.637300  1.0
  H  H112  1  0.861800  0.862700  0.506400  1.0
  H  H113  1  0.530800  0.537000  0.039300  1.0
  H  H114  1  0.780800  0.460700  0.037000  1.0
  H  H115  1  0.219200  0.037000  0.460700  1.0
  H  H116  1  0.030800  0.463000  0.960700  1.0
  H  H117  1  0.469200  0.039300  0.537000  1.0
  H  H118  1  0.280800  0.539300  0.963000  1.0
  H  H119  1  0.719200  0.963000  0.539300  1.0
  H  H120  1  0.969200  0.960700  0.463000  1.0
  H  H121  1  0.500100  0.529800  0.910700  1.0
  H  H122  1  0.750100  0.589300  0.029800  1.0
  H  H123  1  0.249900  0.029800  0.589300  1.0
  H  H124  1  0.000100  0.470200  0.089300  1.0
  H  H125  1  0.499900  0.910700  0.529800  1.0
  H  H126  1  0.250100  0.410700  0.970200  1.0
  H  H127  1  0.749900  0.970200  0.410700  1.0
  H  H128  1  0.999900  0.089300  0.470200  1.0
  H  H129  1  0.802400  0.081400  0.041700  1.0
  H  H130  1  0.052400  0.458300  0.581400  1.0
  H  H131  1  0.947600  0.581400  0.458300  1.0
  H  H132  1  0.302400  0.918600  0.958300  1.0
  H  H133  1  0.197600  0.041700  0.081400  1.0
  H  H134  1  0.552400  0.541700  0.418600  1.0
  H  H135  1  0.447600  0.418600  0.541700  1.0
  H  H136  1  0.697600  0.958300  0.918600  1.0
  H  H137  1  0.810300  0.996000  0.139100  1.0
  H  H138  1  0.060300  0.360900  0.496000  1.0
  H  H139  1  0.939700  0.496000  0.360900  1.0
  H  H140  1  0.310300  0.004000  0.860900  1.0
  H  H141  1  0.189700  0.139100  0.996000  1.0
  H  H142  1  0.560300  0.639100  0.504000  1.0
  H  H143  1  0.439700  0.504000  0.639100  1.0
  H  H144  1  0.689700  0.860900  0.004000  1.0
  H  H145  1  0.039500  0.341700  0.922300  1.0
  H  H146  1  0.289500  0.577700  0.841700  1.0
  H  H147  1  0.710500  0.841700  0.577700  1.0
  H  H148  1  0.539500  0.658300  0.077700  1.0
  H  H149  1  0.960500  0.922300  0.341700  1.0
  H  H150  1  0.789500  0.422300  0.158300  1.0
  H  H151  1  0.210500  0.158300  0.422300  1.0
  H  H152  1  0.460500  0.077700  0.658300  1.0
  H  H153  1  0.149700  0.403400  0.963900  1.0
  H  H154  1  0.399700  0.536100  0.903400  1.0
  H  H155  1  0.600300  0.903400  0.536100  1.0
  H  H156  1  0.649700  0.596600  0.036100  1.0
  H  H157  1  0.850300  0.963900  0.403400  1.0
  H  H158  1  0.899700  0.463900  0.096600  1.0
  H  H159  1  0.100300  0.096600  0.463900  1.0
  H  H160  1  0.350300  0.036100  0.596600  1.0
  H  H161  1  0.200100  0.406000  0.820500  1.0
  H  H162  1  0.450100  0.679500  0.906000  1.0
  H  H163  1  0.549900  0.906000  0.679500  1.0
  H  H164  1  0.700100  0.594000  0.179500  1.0
  H  H165  1  0.799900  0.820500  0.406000  1.0
  H  H166  1  0.950100  0.320500  0.094000  1.0
  H  H167  1  0.049900  0.094000  0.320500  1.0
  H  H168  1  0.299900  0.179500  0.594000  1.0
  H  H169  1  0.161200  0.367300  0.701700  1.0
  H  H170  1  0.411200  0.798300  0.867300  1.0
  H  H171  1  0.588800  0.867300  0.798300  1.0
  H  H172  1  0.661200  0.632700  0.298300  1.0
  H  H173  1  0.838800  0.701700  0.367300  1.0
  H  H174  1  0.911200  0.201700  0.132700  1.0
  H  H175  1  0.088800  0.132700  0.201700  1.0
  H  H176  1  0.338800  0.298300  0.632700  1.0
  H  H177  1  0.825800  0.425900  0.471900  1.0
  H  H178  1  0.075800  0.028100  0.925900  1.0
  H  H179  1  0.924200  0.925900  0.028100  1.0
  H  H180  1  0.325800  0.574100  0.528100  1.0
  H  H181  1  0.174200  0.471900  0.425900  1.0
  H  H182  1  0.575800  0.971900  0.074100  1.0
  H  H183  1  0.424200  0.074100  0.971900  1.0
  H  H184  1  0.674200  0.528100  0.574100  1.0
  H  H185  1  0.827300  0.507600  0.369000  1.0
  H  H186  1  0.077300  0.131000  0.007600  1.0
  H  H187  1  0.922700  0.007600  0.131000  1.0
  H  H188  1  0.327300  0.492400  0.631000  1.0
  H  H189  1  0.172700  0.369000  0.507600  1.0
  H  H190  1  0.577300  0.869000  0.992400  1.0
  H  H191  1  0.422700  0.992400  0.869000  1.0
  H  H192  1  0.672700  0.631000  0.492400  1.0
  H  H193  1  0.578400  0.378700  0.905300  1.0
  H  H194  1  0.828400  0.594700  0.878700  1.0
  H  H195  1  0.171600  0.878700  0.594700  1.0
  H  H196  1  0.078400  0.621300  0.094700  1.0
  H  H197  1  0.421600  0.905300  0.378700  1.0
  H  H198  1  0.328400  0.405300  0.121300  1.0
  H  H199  1  0.671600  0.121300  0.405300  1.0
  H  H200  1  0.921600  0.094700  0.621300  1.0
  H  H201  1  0.567700  0.356700  0.833100  1.0
  H  H202  1  0.817700  0.666900  0.856700  1.0
  H  H203  1  0.182300  0.856700  0.666900  1.0
  H  H204  1  0.067700  0.643300  0.166900  1.0
  H  H205  1  0.432300  0.833100  0.356700  1.0
  H  H206  1  0.317700  0.333100  0.143300  1.0
  H  H207  1  0.682300  0.143300  0.333100  1.0
  H  H208  1  0.932300  0.166900  0.643300  1.0
  H  H209  1  0.664500  0.444700  0.798200  1.0
  H  H210  1  0.914500  0.701800  0.944700  1.0
  H  H211  1  0.085500  0.944700  0.701800  1.0
  H  H212  1  0.164500  0.555300  0.201800  1.0
  H  H213  1  0.335500  0.798200  0.444700  1.0
  H  H214  1  0.414500  0.298200  0.055300  1.0
  H  H215  1  0.585500  0.055300  0.298200  1.0
  H  H216  1  0.835500  0.201800  0.555300  1.0
  H  H217  1  0.672800  0.465300  0.870100  1.0
  H  H218  1  0.922800  0.629900  0.965300  1.0
  H  H219  1  0.077200  0.965300  0.629900  1.0
  H  H220  1  0.172800  0.534700  0.129900  1.0
  H  H221  1  0.327200  0.870100  0.465300  1.0
  H  H222  1  0.422800  0.370100  0.034700  1.0
  H  H223  1  0.577200  0.034700  0.370100  1.0
  H  H224  1  0.827200  0.129900  0.534700  1.0
  H  H225  1  0.022000  0.255800  0.769100  1.0
  H  H226  1  0.272000  0.730900  0.755800  1.0
  H  H227  1  0.728000  0.755800  0.730900  1.0
  H  H228  1  0.522000  0.744200  0.230900  1.0
  H  H229  1  0.978000  0.769100  0.255800  1.0
  H  H230  1  0.772000  0.269100  0.244200  1.0
  H  H231  1  0.228000  0.244200  0.269100  1.0
  H  H232  1  0.478000  0.230900  0.744200  1.0
  H  H233  1  0.976400  0.236000  0.710700  1.0
  H  H234  1  0.226400  0.789300  0.736000  1.0
  H  H235  1  0.773600  0.736000  0.789300  1.0
  H  H236  1  0.476400  0.764000  0.289300  1.0
  H  H237  1  0.023600  0.710700  0.236000  1.0
  H  H238  1  0.726400  0.210700  0.264000  1.0
  H  H239  1  0.273600  0.264000  0.210700  1.0
  H  H240  1  0.523600  0.289300  0.764000  1.0
  H  H241  1  0.948000  0.364200  0.693400  1.0
  H  H242  1  0.198000  0.806600  0.864200  1.0
  H  H243  1  0.802000  0.864200  0.806600  1.0
  H  H244  1  0.448000  0.635800  0.306600  1.0
  H  H245  1  0.052000  0.693400  0.364200  1.0
  H  H246  1  0.698000  0.193400  0.135800  1.0
  H  H247  1  0.302000  0.135800  0.193400  1.0
  H  H248  1  0.552000  0.306600  0.635800  1.0
  H  H249  1  0.995600  0.380100  0.750900  1.0
  H  H250  1  0.245600  0.749100  0.880100  1.0
  H  H251  1  0.754400  0.880100  0.749100  1.0
  H  H252  1  0.495600  0.619900  0.249100  1.0
  H  H253  1  0.004400  0.750900  0.380100  1.0
  H  H254  1  0.745600  0.250900  0.119900  1.0
  H  H255  1  0.254400  0.119900  0.250900  1.0
  H  H256  1  0.504400  0.249100  0.619900  1.0
  H  H257  1  0.824000  0.448100  0.595600  1.0
  H  H258  1  0.074000  0.904400  0.948100  1.0
  H  H259  1  0.926000  0.948100  0.904400  1.0
  H  H260  1  0.324000  0.551900  0.404400  1.0
  H  H261  1  0.176000  0.595600  0.448100  1.0
  H  H262  1  0.574000  0.095600  0.051900  1.0
  H  H263  1  0.426000  0.051900  0.095600  1.0
  H  H264  1  0.676000  0.404400  0.551900  1.0
  H  H265  1  0.868800  0.394500  0.627300  1.0
  H  H266  1  0.118800  0.872700  0.894500  1.0
  H  H267  1  0.881200  0.894500  0.872700  1.0
  H  H268  1  0.368800  0.605500  0.372700  1.0
  H  H269  1  0.131200  0.627300  0.394500  1.0
  H  H270  1  0.618800  0.127300  0.105500  1.0
  H  H271  1  0.381200  0.105500  0.127300  1.0
  H  H272  1  0.631200  0.372700  0.605500  1.0
  H  H273  1  0.940000  0.235500  0.901000  1.0
  H  H274  1  0.190000  0.599000  0.735500  1.0
  H  H275  1  0.810000  0.735500  0.599000  1.0
  H  H276  1  0.440000  0.764500  0.099000  1.0
  H  H277  1  0.060000  0.901000  0.235500  1.0
  H  H278  1  0.690000  0.401000  0.264500  1.0
  H  H279  1  0.310000  0.264500  0.401000  1.0
  H  H280  1  0.560000  0.099000  0.764500  1.0
  H  H281  1  0.006800  0.256400  0.867400  1.0
  H  H282  1  0.256800  0.632600  0.756400  1.0
  H  H283  1  0.743200  0.756400  0.632600  1.0
  H  H284  1  0.506800  0.743600  0.132600  1.0
  H  H285  1  0.993200  0.867400  0.256400  1.0
  H  H286  1  0.756800  0.367400  0.243600  1.0
  H  H287  1  0.243200  0.243600  0.367400  1.0
  H  H288  1  0.493200  0.132600  0.743600  1.0
  H  H289  1  0.696400  0.444200  0.112300  1.0
  H  H290  1  0.946400  0.387700  0.944200  1.0
  H  H291  1  0.053600  0.944200  0.387700  1.0
  H  H292  1  0.196400  0.555800  0.887700  1.0
  H  H293  1  0.303600  0.112300  0.444200  1.0
  H  H294  1  0.446400  0.612300  0.055800  1.0
  H  H295  1  0.553600  0.055800  0.612300  1.0
  H  H296  1  0.803600  0.887700  0.555800  1.0
  H  H297  1  0.583800  0.517600  0.089400  1.0
  H  H298  1  0.833800  0.410600  0.017600  1.0
  H  H299  1  0.166200  0.017600  0.410600  1.0
  H  H300  1  0.083800  0.482400  0.910600  1.0
  H  H301  1  0.416200  0.089400  0.517600  1.0
  H  H302  1  0.333800  0.589400  0.982400  1.0
  H  H303  1  0.666200  0.982400  0.589400  1.0
  H  H304  1  0.916200  0.910600  0.482400  1.0
  H  H305  1  0.481800  0.554900  0.980200  1.0
  H  H306  1  0.731800  0.519800  0.054900  1.0
  H  H307  1  0.268200  0.054900  0.519800  1.0
  H  H308  1  0.981800  0.445100  0.019800  1.0
  H  H309  1  0.518200  0.980200  0.554900  1.0
  H  H310  1  0.231800  0.480200  0.945100  1.0
  H  H311  1  0.768200  0.945100  0.480200  1.0
  H  H312  1  0.018200  0.019800  0.445100  1.0
  H  H313  1  0.555400  0.480000  0.902500  1.0
  H  H314  1  0.805400  0.597500  0.980000  1.0
  H  H315  1  0.194600  0.980000  0.597500  1.0
  H  H316  1  0.055400  0.520000  0.097500  1.0
  H  H317  1  0.444600  0.902500  0.480000  1.0
  H  H318  1  0.305400  0.402500  0.020000  1.0
  H  H319  1  0.694600  0.020000  0.402500  1.0
  H  H320  1  0.944600  0.097500  0.520000  1.0
  H  H321  1  0.825100  0.063500  0.112400  1.0
  H  H322  1  0.075100  0.387600  0.563500  1.0
  H  H323  1  0.924900  0.563500  0.387600  1.0
  H  H324  1  0.325100  0.936500  0.887600  1.0
  H  H325  1  0.174900  0.112400  0.063500  1.0
  H  H326  1  0.575100  0.612400  0.436500  1.0
  H  H327  1  0.424900  0.436500  0.612400  1.0
  H  H328  1  0.674900  0.887600  0.936500  1.0
  H  H329  1  0.770600  0.946000  0.100000  1.0
  H  H330  1  0.020600  0.400000  0.446000  1.0
  H  H331  1  0.979400  0.446000  0.400000  1.0
  H  H332  1  0.270600  0.054000  0.900000  1.0
  H  H333  1  0.229400  0.100000  0.946000  1.0
  H  H334  1  0.520600  0.600000  0.554000  1.0
  H  H335  1  0.479400  0.554000  0.600000  1.0
  H  H336  1  0.729400  0.900000  0.054000  1.0
  H  H337  1  0.077900  0.373200  0.978000  1.0
  H  H338  1  0.327900  0.522000  0.873200  1.0
  H  H339  1  0.672100  0.873200  0.522000  1.0
  H  H340  1  0.577900  0.626800  0.022000  1.0
  H  H341  1  0.922100  0.978000  0.373200  1.0
  H  H342  1  0.827900  0.478000  0.126800  1.0
  H  H343  1  0.172100  0.126800  0.478000  1.0
  H  H344  1  0.422100  0.022000  0.626800  1.0
  H  H345  1  0.175600  0.408600  0.893200  1.0
  H  H346  1  0.425600  0.606800  0.908600  1.0
  H  H347  1  0.574400  0.908600  0.606800  1.0
  H  H348  1  0.675600  0.591400  0.106800  1.0
  H  H349  1  0.824400  0.893200  0.408600  1.0
  H  H350  1  0.925600  0.393200  0.091400  1.0
  H  H351  1  0.074400  0.091400  0.393200  1.0
  H  H352  1  0.324400  0.106800  0.591400  1.0
  H  H353  1  0.216100  0.391500  0.746200  1.0
  H  H354  1  0.466100  0.753800  0.891500  1.0
  H  H355  1  0.533900  0.891500  0.753800  1.0
  H  H356  1  0.716100  0.608500  0.253800  1.0
  H  H357  1  0.783900  0.746200  0.391500  1.0
  H  H358  1  0.966100  0.246200  0.108500  1.0
  H  H359  1  0.033900  0.108500  0.246200  1.0
  H  H360  1  0.283900  0.253800  0.608500  1.0
  H  H361  1  0.092200  0.341600  0.730400  1.0
  H  H362  1  0.342200  0.769600  0.841600  1.0
  H  H363  1  0.657800  0.841600  0.769600  1.0
  H  H364  1  0.592200  0.658400  0.269600  1.0
  H  H365  1  0.907800  0.730400  0.341600  1.0
  H  H366  1  0.842200  0.230400  0.158400  1.0
  H  H367  1  0.157800  0.158400  0.230400  1.0
  H  H368  1  0.407800  0.269600  0.658400  1.0
  H  H369  1  0.857100  0.451200  0.408100  1.0
  H  H370  1  0.107100  0.091900  0.951200  1.0
  H  H371  1  0.892900  0.951200  0.091900  1.0
  H  H372  1  0.357100  0.548800  0.591900  1.0
  H  H373  1  0.142900  0.408100  0.451200  1.0
  H  H374  1  0.607100  0.908100  0.048800  1.0
  H  H375  1  0.392900  0.048800  0.908100  1.0
  H  H376  1  0.642900  0.591900  0.548800  1.0
  H  H377  1  0.772600  0.552700  0.405000  1.0
  H  H378  1  0.022600  0.095000  0.052700  1.0
  H  H379  1  0.977400  0.052700  0.095000  1.0
  H  H380  1  0.272600  0.447300  0.595000  1.0
  H  H381  1  0.227400  0.405000  0.552700  1.0
  H  H382  1  0.522600  0.905000  0.947300  1.0
  H  H383  1  0.477400  0.947300  0.905000  1.0
  H  H384  1  0.727400  0.595000  0.447300  1.0
  H  H385  1  0.800200  0.258700  0.819400  1.0
  H  H386  1  0.050200  0.680600  0.758700  1.0
  H  H387  1  0.949800  0.758700  0.680600  1.0
  H  H388  1  0.300200  0.741300  0.180600  1.0
  H  H389  1  0.199800  0.819400  0.258700  1.0
  H  H390  1  0.550200  0.319400  0.241300  1.0
  H  H391  1  0.449800  0.241300  0.319400  1.0
  H  H392  1  0.699800  0.180600  0.741300  1.0
  H  H393  1  0.692200  0.336300  0.849800  1.0
  H  H394  1  0.942200  0.650200  0.836300  1.0
  H  H395  1  0.057800  0.836300  0.650200  1.0
  H  H396  1  0.192200  0.663700  0.150200  1.0
  H  H397  1  0.307800  0.849800  0.336300  1.0
  H  H398  1  0.442200  0.349800  0.163700  1.0
  H  H399  1  0.557800  0.163700  0.349800  1.0
  H  H400  1  0.807800  0.150200  0.663700  1.0
  H  H401  1  0.677300  0.205200  0.850800  1.0
  H  H402  1  0.927300  0.649200  0.705200  1.0
  H  H403  1  0.072700  0.705200  0.649200  1.0
  H  H404  1  0.177300  0.794800  0.149200  1.0
  H  H405  1  0.322700  0.850800  0.205200  1.0
  H  H406  1  0.427300  0.350800  0.294800  1.0
  H  H407  1  0.572700  0.294800  0.350800  1.0
  H  H408  1  0.822700  0.149200  0.794800  1.0
  H  H409  1  0.769200  0.328200  0.829200  1.0
  H  H410  1  0.019200  0.670800  0.828200  1.0
  H  H411  1  0.980800  0.828200  0.670800  1.0
  H  H412  1  0.269200  0.671800  0.170800  1.0
  H  H413  1  0.230800  0.829200  0.328200  1.0
  H  H414  1  0.519200  0.329200  0.171800  1.0
  H  H415  1  0.480800  0.171800  0.329200  1.0
  H  H416  1  0.730800  0.170800  0.671800  1.0
  H  H417  1  0.646300  0.274700  0.860600  1.0
  H  H418  1  0.896300  0.639400  0.774700  1.0
  H  H419  1  0.103700  0.774700  0.639400  1.0
  H  H420  1  0.146300  0.725300  0.139400  1.0
  H  H421  1  0.353700  0.860600  0.274700  1.0
  H  H422  1  0.396300  0.360600  0.225300  1.0
  H  H423  1  0.603700  0.225300  0.360600  1.0
  H  H424  1  0.853700  0.139400  0.725300  1.0
  H  H425  1  0.865800  0.357800  0.773100  1.0
  H  H426  1  0.115800  0.726900  0.857800  1.0
  H  H427  1  0.884200  0.857800  0.726900  1.0
  H  H428  1  0.365800  0.642200  0.226900  1.0
  H  H429  1  0.134200  0.773100  0.357800  1.0
  H  H430  1  0.615800  0.273100  0.142200  1.0
  H  H431  1  0.384200  0.142200  0.273100  1.0
  H  H432  1  0.634200  0.226900  0.642200  1.0
  H  H433  1  0.851700  0.233500  0.731300  1.0
  H  H434  1  0.101700  0.768700  0.733500  1.0
  H  H435  1  0.898300  0.733500  0.768700  1.0
  H  H436  1  0.351700  0.766500  0.268700  1.0
  H  H437  1  0.148300  0.731300  0.233500  1.0
  H  H438  1  0.601700  0.231300  0.266500  1.0
  H  H439  1  0.398300  0.266500  0.231300  1.0
  H  H440  1  0.648300  0.268700  0.766500  1.0
  H  H441  1  0.805700  0.379300  0.727400  1.0
  H  H442  1  0.055700  0.772600  0.879300  1.0
  H  H443  1  0.944300  0.879300  0.772600  1.0
  H  H444  1  0.305700  0.620700  0.272600  1.0
  H  H445  1  0.194300  0.727400  0.379300  1.0
  H  H446  1  0.555700  0.227400  0.120700  1.0
  H  H447  1  0.444300  0.120700  0.227400  1.0
  H  H448  1  0.694300  0.272600  0.620700  1.0
  H  H449  1  0.888800  0.284900  0.775100  1.0
  H  H450  1  0.138800  0.724900  0.784900  1.0
  H  H451  1  0.861200  0.784900  0.724900  1.0
  H  H452  1  0.388800  0.715100  0.224900  1.0
  H  H453  1  0.111200  0.775100  0.284900  1.0
  H  H454  1  0.638800  0.275100  0.215100  1.0
  H  H455  1  0.361200  0.215100  0.275100  1.0
  H  H456  1  0.611200  0.224900  0.715100  1.0
  H  H457  1  0.791500  0.254900  0.685600  1.0
  H  H458  1  0.041500  0.814400  0.754900  1.0
  H  H459  1  0.958500  0.754900  0.814400  1.0
  H  H460  1  0.291500  0.745100  0.314400  1.0
  H  H461  1  0.208500  0.685600  0.254900  1.0
  H  H462  1  0.541500  0.185600  0.245100  1.0
  H  H463  1  0.458500  0.245100  0.185600  1.0
  H  H464  1  0.708500  0.314400  0.745100  1.0
  Pd  Pd465  1  0.750000  0.033500  0.966500  1
  Pd  Pd466  1  0.000000  0.533500  0.533500  1
  Pd  Pd467  1  0.250000  0.966500  0.033500  1
  Pd  Pd468  1  0.500000  0.466500  0.466500  1
  Pd  Pd469  1  0.750000  0.463600  0.536400  1
  Pd  Pd470  1  0.000000  0.963600  0.963600  1
  Pd  Pd471  1  0.250000  0.536400  0.463600  1
  Pd  Pd472  1  0.500000  0.036400  0.036400  1
  Pd  Pd473  1  0.634300  0.439300  0.959100  1.0
  Pd  Pd474  1  0.884300  0.540900  0.939300  1.0
  Pd  Pd475  1  0.115700  0.939300  0.540900  1.0
  Pd  Pd476  1  0.134300  0.560700  0.040900  1.0
  Pd  Pd477  1  0.365700  0.959100  0.439300  1.0
  Pd  Pd478  1  0.384300  0.459100  0.060700  1.0
  Pd  Pd479  1  0.615700  0.060700  0.459100  1.0
  Pd  Pd480  1  0.865700  0.040900  0.560700  1.0
  Pd  Pd481  1  0.046900  0.335500  0.821300  1.0
  Pd  Pd482  1  0.296900  0.678700  0.835500  1.0
  Pd  Pd483  1  0.703100  0.835500  0.678700  1.0
  Pd  Pd484  1  0.546900  0.664500  0.178700  1.0
  Pd  Pd485  1  0.953100  0.821300  0.335500  1.0
  Pd  Pd486  1  0.796900  0.321300  0.164500  1.0
  Pd  Pd487  1  0.203100  0.164500  0.321300  1.0
  Pd  Pd488  1  0.453100  0.178700  0.664500  1.0
  C  C489  1  0.750000  0.168800  0.831200  1
  C  C490  1  0.000000  0.668800  0.668800  1
  C  C491  1  0.250000  0.831200  0.168800  1
  C  C492  1  0.500000  0.331200  0.331200  1
  C  C493  1  0.750000  0.323800  0.676200  1
  C  C494  1  0.000000  0.823800  0.823800  1
  C  C495  1  0.250000  0.676200  0.323800  1
  C  C496  1  0.500000  0.176200  0.176200  1
  C  C497  1  0.680000  0.353800  0.968600  1.0
  C  C498  1  0.930000  0.531400  0.853800  1.0
  C  C499  1  0.070000  0.853800  0.531400  1.0
  C  C500  1  0.180000  0.646200  0.031400  1.0
  C  C501  1  0.320000  0.968600  0.353800  1.0
  C  C502  1  0.430000  0.468600  0.146200  1.0
  C  C503  1  0.570000  0.146200  0.468600  1.0
  C  C504  1  0.820000  0.031400  0.646200  1.0
  C  C505  1  0.713900  0.322600  0.964200  1.0
  C  C506  1  0.963900  0.535800  0.822600  1.0
  C  C507  1  0.036100  0.822600  0.535800  1.0
  C  C508  1  0.213900  0.677400  0.035800  1.0
  C  C509  1  0.286100  0.964200  0.322600  1.0
  C  C510  1  0.463900  0.464200  0.177400  1.0
  C  C511  1  0.536100  0.177400  0.464200  1.0
  C  C512  1  0.786100  0.035800  0.677400  1.0
  C  C513  1  0.755500  0.333400  0.947100  1.0
  C  C514  1  0.005500  0.552900  0.833400  1.0
  C  C515  1  0.994500  0.833400  0.552900  1.0
  C  C516  1  0.255500  0.666600  0.052900  1.0
  C  C517  1  0.244500  0.947100  0.333400  1.0
  C  C518  1  0.505500  0.447100  0.166600  1.0
  C  C519  1  0.494500  0.166600  0.447100  1.0
  C  C520  1  0.744500  0.052900  0.666600  1.0
  C  C521  1  0.763500  0.378000  0.937800  1.0
  C  C522  1  0.013500  0.562200  0.878000  1.0
  C  C523  1  0.986500  0.878000  0.562200  1.0
  C  C524  1  0.263500  0.622000  0.062200  1.0
  C  C525  1  0.236500  0.937800  0.378000  1.0
  C  C526  1  0.513500  0.437800  0.122000  1.0
  C  C527  1  0.486500  0.122000  0.437800  1.0
  C  C528  1  0.736500  0.062200  0.622000  1.0
  C  C529  1  0.729500  0.407500  0.943800  1.0
  C  C530  1  0.979500  0.556200  0.907500  1.0
  C  C531  1  0.020500  0.907500  0.556200  1.0
  C  C532  1  0.229500  0.592500  0.056200  1.0
  C  C533  1  0.270500  0.943800  0.407500  1.0
  C  C534  1  0.479500  0.443800  0.092500  1.0
  C  C535  1  0.520500  0.092500  0.443800  1.0
  C  C536  1  0.770500  0.056200  0.592500  1.0
  C  C537  1  0.815000  0.104700  0.942700  1.0
  C  C538  1  0.065000  0.557300  0.604700  1.0
  C  C539  1  0.935000  0.604700  0.557300  1.0
  C  C540  1  0.315000  0.895300  0.057300  1.0
  C  C541  1  0.185000  0.942700  0.104700  1.0
  C  C542  1  0.565000  0.442700  0.395300  1.0
  C  C543  1  0.435000  0.395300  0.442700  1.0
  C  C544  1  0.685000  0.057300  0.895300  1.0
  C  C545  1  0.827900  0.147600  0.935400  1.0
  C  C546  1  0.077900  0.564600  0.647600  1.0
  C  C547  1  0.922100  0.647600  0.564600  1.0
  C  C548  1  0.327900  0.852400  0.064600  1.0
  C  C549  1  0.172100  0.935400  0.147600  1.0
  C  C550  1  0.577900  0.435400  0.352400  1.0
  C  C551  1  0.422100  0.352400  0.435400  1.0
  C  C552  1  0.672100  0.064600  0.852400  1.0
  C  C553  1  0.955900  0.298600  0.694600  1.0
  C  C554  1  0.205900  0.805400  0.798600  1.0
  C  C555  1  0.794100  0.798600  0.805400  1.0
  C  C556  1  0.455900  0.701400  0.305400  1.0
  C  C557  1  0.044100  0.694600  0.298600  1.0
  C  C558  1  0.705900  0.194600  0.201400  1.0
  C  C559  1  0.294100  0.201400  0.194600  1.0
  C  C560  1  0.544100  0.305400  0.701400  1.0
  C  C561  1  0.756100  0.171500  0.962400  1.0
  C  C562  1  0.006100  0.537600  0.671500  1.0
  C  C563  1  0.993900  0.671500  0.537600  1.0
  C  C564  1  0.256100  0.828500  0.037600  1.0
  C  C565  1  0.243900  0.962400  0.171500  1.0
  C  C566  1  0.506100  0.462400  0.328500  1.0
  C  C567  1  0.493900  0.328500  0.462400  1.0
  C  C568  1  0.743900  0.037600  0.828500  1.0
  C  C569  1  0.745100  0.129400  0.970300  1.0
  C  C570  1  0.995100  0.529700  0.629400  1.0
  C  C571  1  0.004900  0.629400  0.529700  1.0
  C  C572  1  0.245100  0.870600  0.029700  1.0
  C  C573  1  0.254900  0.970300  0.129400  1.0
  C  C574  1  0.495100  0.470300  0.370600  1.0
  C  C575  1  0.504900  0.370600  0.470300  1.0
  C  C576  1  0.754900  0.029700  0.870600  1.0
  C  C577  1  0.952900  0.345000  0.856100  1.0
  C  C578  1  0.202900  0.643900  0.845000  1.0
  C  C579  1  0.797100  0.845000  0.643900  1.0
  C  C580  1  0.452900  0.655000  0.143900  1.0
  C  C581  1  0.047100  0.856100  0.345000  1.0
  C  C582  1  0.702900  0.356100  0.155000  1.0
  C  C583  1  0.297100  0.155000  0.356100  1.0
  C  C584  1  0.547100  0.143900  0.655000  1.0
  C  C585  1  0.912100  0.333900  0.873700  1.0
  C  C586  1  0.162100  0.626300  0.833900  1.0
  C  C587  1  0.837900  0.833900  0.626300  1.0
  C  C588  1  0.412100  0.666100  0.126300  1.0
  C  C589  1  0.087900  0.873700  0.333900  1.0
  C  C590  1  0.662100  0.373700  0.166100  1.0
  C  C591  1  0.337900  0.166100  0.373700  1.0
  C  C592  1  0.587900  0.126300  0.666100  1.0
  C  C593  1  0.842700  0.344600  0.589800  1.0
  C  C594  1  0.092700  0.910200  0.844600  1.0
  C  C595  1  0.907300  0.844600  0.910200  1.0
  C  C596  1  0.342700  0.655400  0.410200  1.0
  C  C597  1  0.157300  0.589800  0.344600  1.0
  C  C598  1  0.592700  0.089800  0.155400  1.0
  C  C599  1  0.407300  0.155400  0.089800  1.0
  C  C600  1  0.657300  0.410200  0.655400  1.0
  C  C601  1  0.813400  0.337600  0.555600  1.0
  C  C602  1  0.063400  0.944400  0.837600  1.0
  C  C603  1  0.936600  0.837600  0.944400  1.0
  C  C604  1  0.313400  0.662400  0.444400  1.0
  C  C605  1  0.186600  0.555600  0.337600  1.0
  C  C606  1  0.563400  0.055600  0.162400  1.0
  C  C607  1  0.436600  0.162400  0.055600  1.0
  C  C608  1  0.686600  0.444400  0.662400  1.0
  C  C609  1  0.787400  0.371400  0.538100  1.0
  C  C610  1  0.037400  0.961900  0.871400  1.0
  C  C611  1  0.962600  0.871400  0.961900  1.0
  C  C612  1  0.287400  0.628600  0.461900  1.0
  C  C613  1  0.212600  0.538100  0.371400  1.0
  C  C614  1  0.537400  0.038100  0.128600  1.0
  C  C615  1  0.462600  0.128600  0.038100  1.0
  C  C616  1  0.712600  0.461900  0.628600  1.0
  C  C617  1  0.791000  0.299200  0.937900  1.0
  C  C618  1  0.041000  0.562100  0.799200  1.0
  C  C619  1  0.959000  0.799200  0.562100  1.0
  C  C620  1  0.291000  0.700800  0.062100  1.0
  C  C621  1  0.209000  0.937900  0.299200  1.0
  C  C622  1  0.541000  0.437900  0.200800  1.0
  C  C623  1  0.459000  0.200800  0.437900  1.0
  C  C624  1  0.709000  0.062100  0.700800  1.0
  C  C625  1  0.924100  0.287400  0.659400  1.0
  C  C626  1  0.174100  0.840600  0.787400  1.0
  C  C627  1  0.825900  0.787400  0.840600  1.0
  C  C628  1  0.424100  0.712600  0.340600  1.0
  C  C629  1  0.075900  0.659400  0.287400  1.0
  C  C630  1  0.674100  0.159400  0.212600  1.0
  C  C631  1  0.325900  0.212600  0.159400  1.0
  C  C632  1  0.575900  0.340600  0.712600  1.0
  C  C633  1  0.860900  0.279500  0.911000  1.0
  C  C634  1  0.110900  0.589000  0.779500  1.0
  C  C635  1  0.889100  0.779500  0.589000  1.0
  C  C636  1  0.360900  0.720500  0.089000  1.0
  C  C637  1  0.139100  0.911000  0.279500  1.0
  C  C638  1  0.610900  0.411000  0.220500  1.0
  C  C639  1  0.389100  0.220500  0.411000  1.0
  C  C640  1  0.639100  0.089000  0.720500  1.0
  C  C641  1  0.672200  0.440400  0.050500  1.0
  C  C642  1  0.922200  0.449500  0.940400  1.0
  C  C643  1  0.077800  0.940400  0.449500  1.0
  C  C644  1  0.172200  0.559600  0.949500  1.0
  C  C645  1  0.327800  0.050500  0.440400  1.0
  C  C646  1  0.422200  0.550500  0.059600  1.0
  C  C647  1  0.577800  0.059600  0.550500  1.0
  C  C648  1  0.827800  0.949500  0.559600  1.0
  C  C649  1  0.638500  0.484100  0.108300  1.0
  C  C650  1  0.888500  0.391700  0.984100  1.0
  C  C651  1  0.111500  0.984100  0.391700  1.0
  C  C652  1  0.138500  0.515900  0.891700  1.0
  C  C653  1  0.361500  0.108300  0.484100  1.0
  C  C654  1  0.388500  0.608300  0.015900  1.0
  C  C655  1  0.611500  0.015900  0.608300  1.0
  C  C656  1  0.861500  0.891700  0.515900  1.0
  C  C657  1  0.606800  0.484700  0.037300  1.0
  C  C658  1  0.856800  0.462700  0.984700  1.0
  C  C659  1  0.143200  0.984700  0.462700  1.0
  C  C660  1  0.106800  0.515300  0.962700  1.0
  C  C661  1  0.393200  0.037300  0.484700  1.0
  C  C662  1  0.356800  0.537300  0.015300  1.0
  C  C663  1  0.643200  0.015300  0.537300  1.0
  C  C664  1  0.893200  0.962700  0.515300  1.0
  C  C665  1  0.536200  0.525700  0.011400  1.0
  C  C666  1  0.786200  0.488600  0.025700  1.0
  C  C667  1  0.213800  0.025700  0.488600  1.0
  C  C668  1  0.036200  0.474300  0.988600  1.0
  C  C669  1  0.463800  0.011400  0.525700  1.0
  C  C670  1  0.286200  0.511400  0.974300  1.0
  C  C671  1  0.713800  0.974300  0.511400  1.0
  C  C672  1  0.963800  0.988600  0.474300  1.0
  C  C673  1  0.517300  0.520800  0.934900  1.0
  C  C674  1  0.767300  0.565100  0.020800  1.0
  C  C675  1  0.232700  0.020800  0.565100  1.0
  C  C676  1  0.017300  0.479200  0.065100  1.0
  C  C677  1  0.482700  0.934900  0.520800  1.0
  C  C678  1  0.267300  0.434900  0.979200  1.0
  C  C679  1  0.732700  0.979200  0.434900  1.0
  C  C680  1  0.982700  0.065100  0.479200  1.0
  C  C681  1  0.795900  0.053700  0.053100  1.0
  C  C682  1  0.045900  0.446900  0.553700  1.0
  C  C683  1  0.954100  0.553700  0.446900  1.0
  C  C684  1  0.295900  0.946300  0.946900  1.0
  C  C685  1  0.204100  0.053100  0.053700  1.0
  C  C686  1  0.545900  0.553100  0.446300  1.0
  C  C687  1  0.454100  0.446300  0.553100  1.0
  C  C688  1  0.704100  0.946900  0.946300  1.0
  C  C689  1  0.800200  0.003200  0.111000  1.0
  C  C690  1  0.050200  0.389000  0.503200  1.0
  C  C691  1  0.949800  0.503200  0.389000  1.0
  C  C692  1  0.300200  0.996800  0.889000  1.0
  C  C693  1  0.199800  0.111000  0.003200  1.0
  C  C694  1  0.550200  0.611000  0.496800  1.0
  C  C695  1  0.449800  0.496800  0.611000  1.0
  C  C696  1  0.699800  0.889000  0.996800  1.0
  C  C697  1  0.762900  0.984300  0.045500  1.0
  C  C698  1  0.012900  0.454500  0.484300  1.0
  C  C699  1  0.987100  0.484300  0.454500  1.0
  C  C700  1  0.262900  0.015700  0.954500  1.0
  C  C701  1  0.237100  0.045500  0.984300  1.0
  C  C702  1  0.512900  0.545500  0.515700  1.0
  C  C703  1  0.487100  0.515700  0.545500  1.0
  C  C704  1  0.737100  0.954500  0.015700  1.0
  C  C705  1  0.090100  0.373500  0.949700  1.0
  C  C706  1  0.340100  0.550300  0.873500  1.0
  C  C707  1  0.659900  0.873500  0.550300  1.0
  C  C708  1  0.590100  0.626500  0.050300  1.0
  C  C709  1  0.909900  0.949700  0.373500  1.0
  C  C710  1  0.840100  0.449700  0.126500  1.0
  C  C711  1  0.159900  0.126500  0.449700  1.0
  C  C712  1  0.409900  0.050300  0.626500  1.0
  C  C713  1  0.147800  0.394500  0.899300  1.0
  C  C714  1  0.397800  0.600700  0.894500  1.0
  C  C715  1  0.602200  0.894500  0.600700  1.0
  C  C716  1  0.647800  0.605500  0.100700  1.0
  C  C717  1  0.852200  0.899300  0.394500  1.0
  C  C718  1  0.897800  0.399300  0.105500  1.0
  C  C719  1  0.102200  0.105500  0.399300  1.0
  C  C720  1  0.352200  0.100700  0.605500  1.0
  C  C721  1  0.136200  0.374600  0.820000  1.0
  C  C722  1  0.386200  0.680000  0.874600  1.0
  C  C723  1  0.613800  0.874600  0.680000  1.0
  C  C724  1  0.636200  0.625400  0.180000  1.0
  C  C725  1  0.863800  0.820000  0.374600  1.0
  C  C726  1  0.886200  0.320000  0.125400  1.0
  C  C727  1  0.113800  0.125400  0.320000  1.0
  C  C728  1  0.363800  0.180000  0.625400  1.0
  C  C729  1  0.187200  0.384400  0.757700  1.0
  C  C730  1  0.437200  0.742300  0.884400  1.0
  C  C731  1  0.562800  0.884400  0.742300  1.0
  C  C732  1  0.687200  0.615600  0.242300  1.0
  C  C733  1  0.812800  0.757700  0.384400  1.0
  C  C734  1  0.937200  0.257700  0.115600  1.0
  C  C735  1  0.062800  0.115600  0.257700  1.0
  C  C736  1  0.312800  0.242300  0.615600  1.0
  C  C737  1  0.114300  0.353500  0.749200  1.0
  C  C738  1  0.364300  0.750800  0.853500  1.0
  C  C739  1  0.635700  0.853500  0.750800  1.0
  C  C740  1  0.614300  0.646500  0.250800  1.0
  C  C741  1  0.885700  0.749200  0.353500  1.0
  C  C742  1  0.864300  0.249200  0.146500  1.0
  C  C743  1  0.135700  0.146500  0.249200  1.0
  C  C744  1  0.385700  0.250800  0.646500  1.0
  C  C745  1  0.832500  0.466700  0.420200  1.0
  C  C746  1  0.082500  0.079800  0.966700  1.0
  C  C747  1  0.917500  0.966700  0.079800  1.0
  C  C748  1  0.332500  0.533300  0.579800  1.0
  C  C749  1  0.167500  0.420200  0.466700  1.0
  C  C750  1  0.582500  0.920200  0.033300  1.0
  C  C751  1  0.417500  0.033300  0.920200  1.0
  C  C752  1  0.667500  0.579800  0.533300  1.0
  C  C753  1  0.783700  0.527400  0.418200  1.0
  C  C754  1  0.033700  0.081800  0.027400  1.0
  C  C755  1  0.966300  0.027400  0.081800  1.0
  C  C756  1  0.283700  0.472600  0.581800  1.0
  C  C757  1  0.216300  0.418200  0.527400  1.0
  C  C758  1  0.533700  0.918200  0.972600  1.0
  C  C759  1  0.466300  0.972600  0.918200  1.0
  C  C760  1  0.716300  0.581800  0.472600  1.0
  C  C761  1  0.595800  0.392100  0.883300  1.0
  C  C762  1  0.845800  0.616700  0.892100  1.0
  C  C763  1  0.154200  0.892100  0.616700  1.0
  C  C764  1  0.095800  0.607900  0.116700  1.0
  C  C765  1  0.404200  0.883300  0.392100  1.0
  C  C766  1  0.345800  0.383300  0.107900  1.0
  C  C767  1  0.654200  0.107900  0.383300  1.0
  C  C768  1  0.904200  0.116700  0.607900  1.0
  C  C769  1  0.589200  0.378200  0.840400  1.0
  C  C770  1  0.839200  0.659600  0.878200  1.0
  C  C771  1  0.160800  0.878200  0.659600  1.0
  C  C772  1  0.089200  0.621800  0.159600  1.0
  C  C773  1  0.410800  0.840400  0.378200  1.0
  C  C774  1  0.339200  0.340400  0.121800  1.0
  C  C775  1  0.660800  0.121800  0.340400  1.0
  C  C776  1  0.910800  0.159600  0.621800  1.0
  C  C777  1  0.617100  0.398700  0.808800  1.0
  C  C778  1  0.867100  0.691200  0.898700  1.0
  C  C779  1  0.132900  0.898700  0.691200  1.0
  C  C780  1  0.117100  0.601300  0.191200  1.0
  C  C781  1  0.382900  0.808800  0.398700  1.0
  C  C782  1  0.367100  0.308800  0.101300  1.0
  C  C783  1  0.632900  0.101300  0.308800  1.0
  C  C784  1  0.882900  0.191200  0.601300  1.0
  C  C785  1  0.647000  0.430900  0.819800  1.0
  C  C786  1  0.897000  0.680200  0.930900  1.0
  C  C787  1  0.103000  0.930900  0.680200  1.0
  C  C788  1  0.147000  0.569100  0.180200  1.0
  C  C789  1  0.353000  0.819800  0.430900  1.0
  C  C790  1  0.397000  0.319800  0.069100  1.0
  C  C791  1  0.603000  0.069100  0.319800  1.0
  C  C792  1  0.853000  0.180200  0.569100  1.0
  C  C793  1  0.651700  0.443300  0.862900  1.0
  C  C794  1  0.901700  0.637100  0.943300  1.0
  C  C795  1  0.098300  0.943300  0.637100  1.0
  C  C796  1  0.151700  0.556700  0.137100  1.0
  C  C797  1  0.348300  0.862900  0.443300  1.0
  C  C798  1  0.401700  0.362900  0.056700  1.0
  C  C799  1  0.598300  0.056700  0.362900  1.0
  C  C800  1  0.848300  0.137100  0.556700  1.0
  C  C801  1  0.006800  0.277700  0.753400  1.0
  C  C802  1  0.256800  0.746600  0.777700  1.0
  C  C803  1  0.743200  0.777700  0.746600  1.0
  C  C804  1  0.506800  0.722300  0.246600  1.0
  C  C805  1  0.993200  0.753400  0.277700  1.0
  C  C806  1  0.756800  0.253400  0.222300  1.0
  C  C807  1  0.243200  0.222300  0.253400  1.0
  C  C808  1  0.493200  0.246600  0.722300  1.0
  C  C809  1  0.979400  0.265400  0.718500  1.0
  C  C810  1  0.229400  0.781500  0.765400  1.0
  C  C811  1  0.770600  0.765400  0.781500  1.0
  C  C812  1  0.479400  0.734600  0.281500  1.0
  C  C813  1  0.020600  0.718500  0.265400  1.0
  C  C814  1  0.729400  0.218500  0.234600  1.0
  C  C815  1  0.270600  0.234600  0.218500  1.0
  C  C816  1  0.520600  0.281500  0.734600  1.0
  C  C817  1  0.799600  0.182200  0.944800  1.0
  C  C818  1  0.049600  0.555200  0.682200  1.0
  C  C819  1  0.950400  0.682200  0.555200  1.0
  C  C820  1  0.299600  0.817800  0.055200  1.0
  C  C821  1  0.200400  0.944800  0.182200  1.0
  C  C822  1  0.549600  0.444800  0.317800  1.0
  C  C823  1  0.450400  0.317800  0.444800  1.0
  C  C824  1  0.700400  0.055200  0.817800  1.0
  C  C825  1  0.962900  0.341500  0.708200  1.0
  C  C826  1  0.212900  0.791800  0.841500  1.0
  C  C827  1  0.787100  0.841500  0.791800  1.0
  C  C828  1  0.462900  0.658500  0.291800  1.0
  C  C829  1  0.037100  0.708200  0.341500  1.0
  C  C830  1  0.712900  0.208200  0.158500  1.0
  C  C831  1  0.287100  0.158500  0.208200  1.0
  C  C832  1  0.537100  0.291800  0.658500  1.0
  C  C833  1  0.991100  0.351000  0.742800  1.0
  C  C834  1  0.241100  0.757200  0.851000  1.0
  C  C835  1  0.758900  0.851000  0.757200  1.0
  C  C836  1  0.491100  0.649000  0.257200  1.0
  C  C837  1  0.008900  0.742800  0.351000  1.0
  C  C838  1  0.741100  0.242800  0.149000  1.0
  C  C839  1  0.258900  0.149000  0.242800  1.0
  C  C840  1  0.508900  0.257200  0.649000  1.0
  C  C841  1  0.820800  0.419400  0.585700  1.0
  C  C842  1  0.070800  0.914300  0.919400  1.0
  C  C843  1  0.929200  0.919400  0.914300  1.0
  C  C844  1  0.320800  0.580600  0.414300  1.0
  C  C845  1  0.179200  0.585700  0.419400  1.0
  C  C846  1  0.570800  0.085700  0.080600  1.0
  C  C847  1  0.429200  0.080600  0.085700  1.0
  C  C848  1  0.679200  0.414300  0.580600  1.0
  C  C849  1  0.847900  0.387600  0.605100  1.0
  C  C850  1  0.097900  0.894900  0.887600  1.0
  C  C851  1  0.902100  0.887600  0.894900  1.0
  C  C852  1  0.347900  0.612400  0.394900  1.0
  C  C853  1  0.152100  0.605100  0.387600  1.0
  C  C854  1  0.597900  0.105100  0.112400  1.0
  C  C855  1  0.402100  0.112400  0.105100  1.0
  C  C856  1  0.652100  0.394900  0.612400  1.0
  C  C857  1  0.905300  0.292000  0.890800  1.0
  C  C858  1  0.155300  0.609200  0.792000  1.0
  C  C859  1  0.844700  0.792000  0.609200  1.0
  C  C860  1  0.405300  0.708000  0.109200  1.0
  C  C861  1  0.094700  0.890800  0.292000  1.0
  C  C862  1  0.655300  0.390800  0.208000  1.0
  C  C863  1  0.344700  0.208000  0.390800  1.0
  C  C864  1  0.594700  0.109200  0.708000  1.0
  C  C865  1  0.942400  0.263500  0.889000  1.0
  C  C866  1  0.192400  0.611000  0.763500  1.0
  C  C867  1  0.807600  0.763500  0.611000  1.0
  C  C868  1  0.442400  0.736500  0.111000  1.0
  C  C869  1  0.057600  0.889000  0.263500  1.0
  C  C870  1  0.692400  0.389000  0.236500  1.0
  C  C871  1  0.307600  0.236500  0.389000  1.0
  C  C872  1  0.557600  0.111000  0.736500  1.0
  C  C873  1  0.982600  0.276500  0.869500  1.0
  C  C874  1  0.232600  0.630500  0.776500  1.0
  C  C875  1  0.767400  0.776500  0.630500  1.0
  C  C876  1  0.482600  0.723500  0.130500  1.0
  C  C877  1  0.017400  0.869500  0.276500  1.0
  C  C878  1  0.732600  0.369500  0.223500  1.0
  C  C879  1  0.267400  0.223500  0.369500  1.0
  C  C880  1  0.517400  0.130500  0.723500  1.0
  C  C881  1  0.610400  0.384800  0.761000  1.0
  C  C882  1  0.860400  0.739000  0.884800  1.0
  C  C883  1  0.139600  0.884800  0.739000  1.0
  C  C884  1  0.110400  0.615200  0.239000  1.0
  C  C885  1  0.389600  0.761000  0.384800  1.0
  C  C886  1  0.360400  0.261000  0.115200  1.0
  C  C887  1  0.639600  0.115200  0.261000  1.0
  C  C888  1  0.889600  0.239000  0.615200  1.0
  C  C889  1  0.810900  0.227900  0.935900  1.0
  C  C890  1  0.060900  0.564100  0.727900  1.0
  C  C891  1  0.939100  0.727900  0.564100  1.0
  C  C892  1  0.310900  0.772100  0.064100  1.0
  C  C893  1  0.189100  0.935900  0.227900  1.0
  C  C894  1  0.560900  0.435900  0.272100  1.0
  C  C895  1  0.439100  0.272100  0.435900  1.0
  C  C896  1  0.689100  0.064100  0.772100  1.0
  C  C897  1  0.870200  0.309600  0.610300  1.0
  C  C898  1  0.120200  0.889700  0.809600  1.0
  C  C899  1  0.879800  0.809600  0.889700  1.0
  C  C900  1  0.370200  0.690400  0.389700  1.0
  C  C901  1  0.129800  0.610300  0.309600  1.0
  C  C902  1  0.620200  0.110300  0.190400  1.0
  C  C903  1  0.379800  0.190400  0.110300  1.0
  C  C904  1  0.629800  0.389700  0.690400  1.0
  C  C905  1  0.673500  0.454100  0.093400  1.0
  C  C906  1  0.923500  0.406600  0.954100  1.0
  C  C907  1  0.076500  0.954100  0.406600  1.0
  C  C908  1  0.173500  0.545900  0.906600  1.0
  C  C909  1  0.326500  0.093400  0.454100  1.0
  C  C910  1  0.423500  0.593400  0.045900  1.0
  C  C911  1  0.576500  0.045900  0.593400  1.0
  C  C912  1  0.826500  0.906600  0.545900  1.0
  C  C913  1  0.606600  0.498200  0.079900  1.0
  C  C914  1  0.856600  0.420100  0.998200  1.0
  C  C915  1  0.143400  0.998200  0.420100  1.0
  C  C916  1  0.106600  0.501800  0.920100  1.0
  C  C917  1  0.393400  0.079900  0.498200  1.0
  C  C918  1  0.356600  0.579900  0.001800  1.0
  C  C919  1  0.643400  0.001800  0.579900  1.0
  C  C920  1  0.893400  0.920100  0.501800  1.0
  C  C921  1  0.573000  0.497700  0.003700  1.0
  C  C922  1  0.823000  0.496300  0.997700  1.0
  C  C923  1  0.177000  0.997700  0.496300  1.0
  C  C924  1  0.073000  0.502300  0.996300  1.0
  C  C925  1  0.427000  0.003700  0.497700  1.0
  C  C926  1  0.323000  0.503700  0.002300  1.0
  C  C927  1  0.677000  0.002300  0.503700  1.0
  C  C928  1  0.927000  0.996300  0.502300  1.0
  C  C929  1  0.507400  0.536900  0.975900  1.0
  C  C930  1  0.757400  0.524100  0.036900  1.0
  C  C931  1  0.242600  0.036900  0.524100  1.0
  C  C932  1  0.007400  0.463100  0.024100  1.0
  C  C933  1  0.492600  0.975900  0.536900  1.0
  C  C934  1  0.257400  0.475900  0.963100  1.0
  C  C935  1  0.742600  0.963100  0.475900  1.0
  C  C936  1  0.992600  0.024100  0.463100  1.0
  C  C937  1  0.551300  0.492600  0.930000  1.0
  C  C938  1  0.801300  0.570000  0.992600  1.0
  C  C939  1  0.198700  0.992600  0.570000  1.0
  C  C940  1  0.051300  0.507400  0.070000  1.0
  C  C941  1  0.448700  0.930000  0.492600  1.0
  C  C942  1  0.301300  0.430000  0.007400  1.0
  C  C943  1  0.698700  0.007400  0.430000  1.0
  C  C944  1  0.948700  0.070000  0.507400  1.0
  C  C945  1  0.809500  0.043000  0.095200  1.0
  C  C946  1  0.059500  0.404800  0.543000  1.0
  C  C947  1  0.940500  0.543000  0.404800  1.0
  C  C948  1  0.309500  0.957000  0.904800  1.0
  C  C949  1  0.190500  0.095200  0.043000  1.0
  C  C950  1  0.559500  0.595200  0.457000  1.0
  C  C951  1  0.440500  0.457000  0.595200  1.0
  C  C952  1  0.690500  0.904800  0.957000  1.0
  C  C953  1  0.777200  0.973500  0.088100  1.0
  C  C954  1  0.027200  0.411900  0.473500  1.0
  C  C955  1  0.972800  0.473500  0.411900  1.0
  C  C956  1  0.277200  0.026500  0.911900  1.0
  C  C957  1  0.222800  0.088100  0.973500  1.0
  C  C958  1  0.527200  0.588100  0.526500  1.0
  C  C959  1  0.472800  0.526500  0.588100  1.0
  C  C960  1  0.722800  0.911900  0.026500  1.0
  C  C961  1  0.067400  0.355700  0.916300  1.0
  C  C962  1  0.317400  0.583700  0.855700  1.0
  C  C963  1  0.682600  0.855700  0.583700  1.0
  C  C964  1  0.567400  0.644300  0.083700  1.0
  C  C965  1  0.932600  0.916300  0.355700  1.0
  C  C966  1  0.817400  0.416300  0.144300  1.0
  C  C967  1  0.182600  0.144300  0.416300  1.0
  C  C968  1  0.432600  0.083700  0.644300  1.0
  C  C969  1  0.131900  0.392100  0.941100  1.0
  C  C970  1  0.381900  0.558900  0.892100  1.0
  C  C971  1  0.618100  0.892100  0.558900  1.0
  C  C972  1  0.631900  0.607900  0.058900  1.0
  C  C973  1  0.868100  0.941100  0.392100  1.0
  C  C974  1  0.881900  0.441100  0.107900  1.0
  C  C975  1  0.118100  0.107900  0.441100  1.0
  C  C976  1  0.368100  0.058900  0.607900  1.0
  C  C977  1  0.122700  0.376000  0.866700  1.0
  C  C978  1  0.372700  0.633300  0.876000  1.0
  C  C979  1  0.627300  0.876000  0.633300  1.0
  C  C980  1  0.622700  0.624000  0.133300  1.0
  C  C981  1  0.877300  0.866700  0.376000  1.0
  C  C982  1  0.872700  0.366700  0.124000  1.0
  C  C983  1  0.127300  0.124000  0.366700  1.0
  C  C984  1  0.377300  0.133300  0.624000  1.0
  C  C985  1  0.178900  0.391300  0.802800  1.0
  C  C986  1  0.428900  0.697200  0.891300  1.0
  C  C987  1  0.571100  0.891300  0.697200  1.0
  C  C988  1  0.678900  0.608700  0.197200  1.0
  C  C989  1  0.821100  0.802800  0.391300  1.0
  C  C990  1  0.928900  0.302800  0.108700  1.0
  C  C991  1  0.071100  0.108700  0.302800  1.0
  C  C992  1  0.321100  0.197200  0.608700  1.0
  C  C993  1  0.155900  0.368600  0.731700  1.0
  C  C994  1  0.405900  0.768300  0.868600  1.0
  C  C995  1  0.594100  0.868600  0.768300  1.0
  C  C996  1  0.655900  0.631400  0.268300  1.0
  C  C997  1  0.844100  0.731700  0.368600  1.0
  C  C998  1  0.905900  0.231700  0.131400  1.0
  C  C999  1  0.094100  0.131400  0.231700  1.0
  C  C1000  1  0.344100  0.268300  0.631400  1.0
  C  C1001  1  0.815800  0.452100  0.459600  1.0
  C  C1002  1  0.065800  0.040400  0.952100  1.0
  C  C1003  1  0.934200  0.952100  0.040400  1.0
  C  C1004  1  0.315800  0.547900  0.540400  1.0
  C  C1005  1  0.184200  0.459600  0.452100  1.0
  C  C1006  1  0.565800  0.959600  0.047900  1.0
  C  C1007  1  0.434200  0.047900  0.959600  1.0
  C  C1008  1  0.684200  0.540400  0.547900  1.0
  C  C1009  1  0.816800  0.501300  0.397200  1.0
  C  C1010  1  0.066800  0.102800  0.001300  1.0
  C  C1011  1  0.933200  0.001300  0.102800  1.0
  C  C1012  1  0.316800  0.498700  0.602800  1.0
  C  C1013  1  0.183200  0.397200  0.501300  1.0
  C  C1014  1  0.566800  0.897200  0.998700  1.0
  C  C1015  1  0.433200  0.998700  0.897200  1.0
  C  C1016  1  0.683200  0.602800  0.498700  1.0
  C  C1017  1  0.767300  0.514400  0.460400  1.0
  C  C1018  1  0.017300  0.039600  0.014400  1.0
  C  C1019  1  0.982700  0.014400  0.039600  1.0
  C  C1020  1  0.267300  0.485600  0.539600  1.0
  C  C1021  1  0.232700  0.460400  0.514400  1.0
  C  C1022  1  0.517300  0.960400  0.985600  1.0
  C  C1023  1  0.482700  0.985600  0.960400  1.0
  C  C1024  1  0.732700  0.539600  0.485600  1.0
  C  C1025  1  0.741800  0.225100  0.834100  1.0
  C  C1026  1  0.991800  0.665900  0.725100  1.0
  C  C1027  1  0.008200  0.725100  0.665900  1.0
  C  C1028  1  0.241800  0.774900  0.165900  1.0
  C  C1029  1  0.258200  0.834100  0.225100  1.0
  C  C1030  1  0.491800  0.334100  0.274900  1.0
  C  C1031  1  0.508200  0.274900  0.334100  1.0
  C  C1032  1  0.758200  0.165900  0.774900  1.0
  C  C1033  1  0.750800  0.303600  0.833500  1.0
  C  C1034  1  0.000800  0.666500  0.803600  1.0
  C  C1035  1  0.999200  0.803600  0.666500  1.0
  C  C1036  1  0.250800  0.696400  0.166500  1.0
  C  C1037  1  0.249200  0.833500  0.303600  1.0
  C  C1038  1  0.500800  0.333500  0.196400  1.0
  C  C1039  1  0.499200  0.196400  0.333500  1.0
  C  C1040  1  0.749200  0.166500  0.696400  1.0
  C  C1041  1  0.677100  0.271500  0.852300  1.0
  C  C1042  1  0.927100  0.647700  0.771500  1.0
  C  C1043  1  0.072900  0.771500  0.647700  1.0
  C  C1044  1  0.177100  0.728500  0.147700  1.0
  C  C1045  1  0.322900  0.852300  0.271500  1.0
  C  C1046  1  0.427100  0.352300  0.228500  1.0
  C  C1047  1  0.572900  0.228500  0.352300  1.0
  C  C1048  1  0.822900  0.147700  0.728500  1.0
  C  C1049  1  0.769400  0.261900  0.827700  1.0
  C  C1050  1  0.019400  0.672300  0.761900  1.0
  C  C1051  1  0.980600  0.761900  0.672300  1.0
  C  C1052  1  0.269400  0.738100  0.172300  1.0
  C  C1053  1  0.230600  0.827700  0.261900  1.0
  C  C1054  1  0.519400  0.327700  0.238100  1.0
  C  C1055  1  0.480600  0.238100  0.327700  1.0
  C  C1056  1  0.730600  0.172300  0.738100  1.0
  C  C1057  1  0.704700  0.308400  0.845900  1.0
  C  C1058  1  0.954700  0.654100  0.808400  1.0
  C  C1059  1  0.045300  0.808400  0.654100  1.0
  C  C1060  1  0.204700  0.691600  0.154100  1.0
  C  C1061  1  0.295300  0.845900  0.308400  1.0
  C  C1062  1  0.454700  0.345900  0.191600  1.0
  C  C1063  1  0.545300  0.191600  0.345900  1.0
  C  C1064  1  0.795300  0.154100  0.691600  1.0
  C  C1065  1  0.695700  0.229900  0.846500  1.0
  C  C1066  1  0.945700  0.653500  0.729900  1.0
  C  C1067  1  0.054300  0.729900  0.653500  1.0
  C  C1068  1  0.195700  0.770100  0.153500  1.0
  C  C1069  1  0.304300  0.846500  0.229900  1.0
  C  C1070  1  0.445700  0.346500  0.270100  1.0
  C  C1071  1  0.554300  0.270100  0.346500  1.0
  C  C1072  1  0.804300  0.153500  0.770100  1.0
  C  C1073  1  0.792600  0.319200  0.701900  1.0
  C  C1074  1  0.042600  0.798100  0.819200  1.0
  C  C1075  1  0.957400  0.819200  0.798100  1.0
  C  C1076  1  0.292600  0.680800  0.298100  1.0
  C  C1077  1  0.207400  0.701900  0.319200  1.0
  C  C1078  1  0.542600  0.201900  0.180800  1.0
  C  C1079  1  0.457400  0.180800  0.201900  1.0
  C  C1080  1  0.707400  0.298100  0.680800  1.0
  C  C1081  1  0.850900  0.337200  0.755500  1.0
  C  C1082  1  0.100900  0.744500  0.837200  1.0
  C  C1083  1  0.899100  0.837200  0.744500  1.0
  C  C1084  1  0.350900  0.662800  0.244500  1.0
  C  C1085  1  0.149100  0.755500  0.337200  1.0
  C  C1086  1  0.600900  0.255500  0.162800  1.0
  C  C1087  1  0.399100  0.162800  0.255500  1.0
  C  C1088  1  0.649100  0.244500  0.662800  1.0
  C  C1089  1  0.842500  0.262700  0.730500  1.0
  C  C1090  1  0.092500  0.769500  0.762700  1.0
  C  C1091  1  0.907500  0.762700  0.769500  1.0
  C  C1092  1  0.342500  0.737300  0.269500  1.0
  C  C1093  1  0.157500  0.730500  0.262700  1.0
  C  C1094  1  0.592500  0.230500  0.237300  1.0
  C  C1095  1  0.407500  0.237300  0.230500  1.0
  C  C1096  1  0.657500  0.269500  0.737300  1.0
  C  C1097  1  0.814900  0.350000  0.728200  1.0
  C  C1098  1  0.064900  0.771800  0.850000  1.0
  C  C1099  1  0.935100  0.850000  0.771800  1.0
  C  C1100  1  0.314900  0.650000  0.271800  1.0
  C  C1101  1  0.185100  0.728200  0.350000  1.0
  C  C1102  1  0.564900  0.228200  0.150000  1.0
  C  C1103  1  0.435100  0.150000  0.228200  1.0
  C  C1104  1  0.685100  0.271800  0.650000  1.0
  C  C1105  1  0.864700  0.293500  0.756700  1.0
  C  C1106  1  0.114700  0.743300  0.793500  1.0
  C  C1107  1  0.885300  0.793500  0.743300  1.0
  C  C1108  1  0.364700  0.706500  0.243300  1.0
  C  C1109  1  0.135300  0.756700  0.293500  1.0
  C  C1110  1  0.614700  0.256700  0.206500  1.0
  C  C1111  1  0.385300  0.206500  0.256700  1.0
  C  C1112  1  0.635300  0.243300  0.706500  1.0
  C  C1113  1  0.806400  0.275500  0.703100  1.0
  C  C1114  1  0.056400  0.796900  0.775500  1.0
  C  C1115  1  0.943600  0.775500  0.796900  1.0
  C  C1116  1  0.306400  0.724500  0.296900  1.0
  C  C1117  1  0.193600  0.703100  0.275500  1.0
  C  C1118  1  0.556400  0.203100  0.224500  1.0
  C  C1119  1  0.443600  0.224500  0.203100  1.0
  C  C1120  1  0.693600  0.296900  0.724500  1.0
  N  N1121  1  0.916200  0.460300  0.550700  1
  N  N1122  1  0.166200  0.949300  0.960300  1
  N  N1123  1  0.833800  0.960300  0.949300  1
  N  N1124  1  0.416200  0.539700  0.449300  1
  N  N1125  1  0.083800  0.550700  0.460300  1
  N  N1126  1  0.666200  0.050700  0.039700  1
  N  N1127  1  0.333800  0.039700  0.050700  1
  N  N1128  1  0.583800  0.449300  0.539700  1
  N  N1129  1  0.685300  0.543500  0.943100  1
  N  N1130  1  0.935300  0.556900  0.043500  1
  N  N1131  1  0.064700  0.043500  0.556900  1
  N  N1132  1  0.185300  0.456500  0.056900  1
  N  N1133  1  0.314700  0.943100  0.543500  1
  N  N1134  1  0.435300  0.443100  0.956500  1
  N  N1135  1  0.564700  0.956500  0.443100  1
  N  N1136  1  0.814700  0.056900  0.456500  1
  N  N1137  1  0.749800  0.510400  0.178000  1
  N  N1138  1  0.999800  0.322000  0.010400  1
  N  N1139  1  0.000200  0.010400  0.322000  1
  N  N1140  1  0.249800  0.489600  0.822000  1
  N  N1141  1  0.250200  0.178000  0.510400  1
  N  N1142  1  0.499800  0.678000  0.989600  1
  N  N1143  1  0.500200  0.989600  0.678000  1
  N  N1144  1  0.750200  0.822000  0.489600  1
  N  N1145  1  0.026500  0.445000  0.840800  1
  N  N1146  1  0.276500  0.659200  0.945000  1
  N  N1147  1  0.723500  0.945000  0.659200  1
  N  N1148  1  0.526500  0.555000  0.159200  1
  N  N1149  1  0.973500  0.840800  0.445000  1
  N  N1150  1  0.776500  0.340800  0.055000  1
  N  N1151  1  0.223500  0.055000  0.340800  1
  N  N1152  1  0.473500  0.159200  0.555000  1
  N  N1153  1  0.827600  0.454000  0.863200  1
  N  N1154  1  0.077600  0.636800  0.954000  1
  N  N1155  1  0.922400  0.954000  0.636800  1
  N  N1156  1  0.327600  0.546000  0.136800  1
  N  N1157  1  0.172400  0.863200  0.454000  1
  N  N1158  1  0.577600  0.363200  0.046000  1
  N  N1159  1  0.422400  0.046000  0.363200  1
  N  N1160  1  0.672400  0.136800  0.546000  1
  N  N1161  1  0.688200  0.396400  0.959500  1.0
  N  N1162  1  0.938200  0.540500  0.896400  1.0
  N  N1163  1  0.061800  0.896400  0.540500  1.0
  N  N1164  1  0.188200  0.603600  0.040500  1.0
  N  N1165  1  0.311800  0.959500  0.396400  1.0
  N  N1166  1  0.438200  0.459500  0.103600  1.0
  N  N1167  1  0.561800  0.103600  0.459500  1.0
  N  N1168  1  0.811800  0.040500  0.603600  1.0
  N  N1169  1  0.772800  0.095900  0.960100  1.0
  N  N1170  1  0.022800  0.539900  0.595900  1.0
  N  N1171  1  0.977200  0.595900  0.539900  1.0
  N  N1172  1  0.272800  0.904100  0.039900  1.0
  N  N1173  1  0.227200  0.960100  0.095900  1.0
  N  N1174  1  0.522800  0.460100  0.404100  1.0
  N  N1175  1  0.477200  0.404100  0.460100  1.0
  N  N1176  1  0.727200  0.039900  0.904100  1.0
  N  N1177  1  0.988800  0.316800  0.853200  1.0
  N  N1178  1  0.238800  0.646800  0.816800  1.0
  N  N1179  1  0.761200  0.816800  0.646800  1.0
  N  N1180  1  0.488800  0.683200  0.146800  1.0
  N  N1181  1  0.011200  0.853200  0.316800  1.0
  N  N1182  1  0.738800  0.353200  0.183200  1.0
  N  N1183  1  0.261200  0.183200  0.353200  1.0
  N  N1184  1  0.511200  0.146800  0.683200  1.0
  N  N1185  1  0.899800  0.320400  0.642000  1.0
  N  N1186  1  0.149800  0.858000  0.820400  1.0
  N  N1187  1  0.850200  0.820400  0.858000  1.0
  N  N1188  1  0.399800  0.679600  0.358000  1.0
  N  N1189  1  0.100200  0.642000  0.320400  1.0
  N  N1190  1  0.649800  0.142000  0.179600  1.0
  N  N1191  1  0.350200  0.179600  0.142000  1.0
  N  N1192  1  0.600200  0.358000  0.679600  1.0
  N  N1193  1  0.852700  0.236300  0.917500  1.0
  N  N1194  1  0.102700  0.582500  0.736300  1.0
  N  N1195  1  0.897300  0.736300  0.582500  1.0
  N  N1196  1  0.352700  0.763700  0.082500  1.0
  N  N1197  1  0.147300  0.917500  0.236300  1.0
  N  N1198  1  0.602700  0.417500  0.263700  1.0
  N  N1199  1  0.397300  0.263700  0.417500  1.0
  N  N1200  1  0.647300  0.082500  0.763700  1.0
  N  N1201  1  0.831700  0.311600  0.920400  1.0
  N  N1202  1  0.081700  0.579600  0.811600  1.0
  N  N1203  1  0.918300  0.811600  0.579600  1.0
  N  N1204  1  0.331700  0.688400  0.079600  1.0
  N  N1205  1  0.168300  0.920400  0.311600  1.0
  N  N1206  1  0.581700  0.420400  0.188400  1.0
  N  N1207  1  0.418300  0.188400  0.420400  1.0
  N  N1208  1  0.668300  0.079600  0.688400  1.0
  N  N1209  1  0.626400  0.424300  0.895200  1.0
  N  N1210  1  0.876400  0.604800  0.924300  1.0
  N  N1211  1  0.123600  0.924300  0.604800  1.0
  N  N1212  1  0.126400  0.575700  0.104800  1.0
  N  N1213  1  0.373600  0.895200  0.424300  1.0
  N  N1214  1  0.376400  0.395200  0.075700  1.0
  N  N1215  1  0.623600  0.075700  0.395200  1.0
  N  N1216  1  0.873600  0.104800  0.575700  1.0
  N  N1217  1  0.012600  0.318800  0.765600  1.0
  N  N1218  1  0.262600  0.734400  0.818800  1.0
  N  N1219  1  0.737400  0.818800  0.734400  1.0
  N  N1220  1  0.512600  0.681200  0.234400  1.0
  N  N1221  1  0.987400  0.765600  0.318800  1.0
  N  N1222  1  0.762600  0.265600  0.181200  1.0
  N  N1223  1  0.237400  0.181200  0.265600  1.0
  N  N1224  1  0.487400  0.234400  0.681200  1.0
  N  N1225  1  0.791100  0.412100  0.554500  1.0
  N  N1226  1  0.041100  0.945500  0.912100  1.0
  N  N1227  1  0.958900  0.912100  0.945500  1.0
  N  N1228  1  0.291100  0.587900  0.445500  1.0
  N  N1229  1  0.208900  0.554500  0.412100  1.0
  N  N1230  1  0.541100  0.054500  0.087900  1.0
  N  N1231  1  0.458900  0.087900  0.054500  1.0
  N  N1232  1  0.708900  0.445500  0.587900  1.0
  N  N1233  1  0.778600  0.258500  0.946400  1.0
  N  N1234  1  0.028600  0.553600  0.758500  1.0
  N  N1235  1  0.971400  0.758500  0.553600  1.0
  N  N1236  1  0.278600  0.741500  0.053600  1.0
  N  N1237  1  0.221400  0.946400  0.258500  1.0
  N  N1238  1  0.528600  0.446400  0.241500  1.0
  N  N1239  1  0.471400  0.241500  0.446400  1.0
  N  N1240  1  0.721400  0.053600  0.741500  1.0
  N  N1241  1  0.580000  0.352400  0.754100  1.0
  N  N1242  1  0.830000  0.745900  0.852400  1.0
  N  N1243  1  0.170000  0.852400  0.745900  1.0
  N  N1244  1  0.080000  0.647600  0.245900  1.0
  N  N1245  1  0.420000  0.754100  0.352400  1.0
  N  N1246  1  0.330000  0.254100  0.147600  1.0
  N  N1247  1  0.670000  0.147600  0.254100  1.0
  N  N1248  1  0.920000  0.245900  0.647600  1.0
  N  N1249  1  0.636600  0.404400  0.731900  1.0
  N  N1250  1  0.886600  0.768100  0.904400  1.0
  N  N1251  1  0.113400  0.904400  0.768100  1.0
  N  N1252  1  0.136600  0.595600  0.268100  1.0
  N  N1253  1  0.363400  0.731900  0.404400  1.0
  N  N1254  1  0.386600  0.231900  0.095600  1.0
  N  N1255  1  0.613400  0.095600  0.231900  1.0
  N  N1256  1  0.863400  0.268100  0.595600  1.0
  N  N1257  1  0.639100  0.455700  0.022200  1.0
  N  N1258  1  0.889100  0.477800  0.955700  1.0
  N  N1259  1  0.110900  0.955700  0.477800  1.0
  N  N1260  1  0.139100  0.544300  0.977800  1.0
  N  N1261  1  0.360900  0.022200  0.455700  1.0
  N  N1262  1  0.389100  0.522200  0.044300  1.0
  N  N1263  1  0.610900  0.044300  0.522200  1.0
  N  N1264  1  0.860900  0.977800  0.544300  1.0
  N  N1265  1  0.772900  0.023500  0.028200  1.0
  N  N1266  1  0.022900  0.471800  0.523500  1.0
  N  N1267  1  0.977100  0.523500  0.471800  1.0
  N  N1268  1  0.272900  0.976500  0.971800  1.0
  N  N1269  1  0.227100  0.028200  0.023500  1.0
  N  N1270  1  0.522900  0.528200  0.476500  1.0
  N  N1271  1  0.477100  0.476500  0.528200  1.0
  N  N1272  1  0.727100  0.971800  0.976500  1.0
  N  N1273  1  0.105200  0.355600  0.791900  1.0
  N  N1274  1  0.355200  0.708100  0.855600  1.0
  N  N1275  1  0.644800  0.855600  0.708100  1.0
  N  N1276  1  0.605200  0.644400  0.208100  1.0
  N  N1277  1  0.894800  0.791900  0.355600  1.0
  N  N1278  1  0.855200  0.291900  0.144400  1.0
  N  N1279  1  0.144800  0.144400  0.291900  1.0
  N  N1280  1  0.394800  0.208100  0.644400  1.0
  N  N1281  1  0.580800  0.480700  0.962300  1.0
  N  N1282  1  0.830800  0.537700  0.980700  1.0
  N  N1283  1  0.169200  0.980700  0.537700  1.0
  N  N1284  1  0.080800  0.519300  0.037700  1.0
  N  N1285  1  0.419200  0.962300  0.480700  1.0
  N  N1286  1  0.330800  0.462300  0.019300  1.0
  N  N1287  1  0.669200  0.019300  0.462300  1.0
  N  N1288  1  0.919200  0.037700  0.519300  1.0
  N  N1289  1  0.081700  0.356400  0.874800  1.0
  N  N1290  1  0.331700  0.625200  0.856400  1.0
  N  N1291  1  0.668300  0.856400  0.625200  1.0
  N  N1292  1  0.581700  0.643600  0.125200  1.0
  N  N1293  1  0.918300  0.874800  0.356400  1.0
  N  N1294  1  0.831700  0.374800  0.143600  1.0
  N  N1295  1  0.168300  0.143600  0.374800  1.0
  N  N1296  1  0.418300  0.125200  0.643600  1.0
  N  N1297  1  0.782300  0.479000  0.480700  1.0
  N  N1298  1  0.032300  0.019300  0.979000  1.0
  N  N1299  1  0.967700  0.979000  0.019300  1.0
  N  N1300  1  0.282300  0.521000  0.519300  1.0
  N  N1301  1  0.217700  0.480700  0.479000  1.0
  N  N1302  1  0.532300  0.980700  0.021000  1.0
  N  N1303  1  0.467700  0.021000  0.980700  1.0
  N  N1304  1  0.717700  0.519300  0.521000  1.0
  O  O1305  1  0.901500  0.456500  0.509300  1
  O  O1306  1  0.151500  0.990700  0.956500  1
  O  O1307  1  0.848500  0.956500  0.990700  1
  O  O1308  1  0.401500  0.543500  0.490700  1
  O  O1309  1  0.098500  0.509300  0.456500  1
  O  O1310  1  0.651500  0.009300  0.043500  1
  O  O1311  1  0.348500  0.043500  0.009300  1
  O  O1312  1  0.598500  0.490700  0.543500  1
  O  O1313  1  0.907300  0.490800  0.572200  1
  O  O1314  1  0.157300  0.927800  0.990800  1
  O  O1315  1  0.842700  0.990800  0.927800  1
  O  O1316  1  0.407300  0.509200  0.427800  1
  O  O1317  1  0.092700  0.572200  0.490800  1
  O  O1318  1  0.657300  0.072200  0.009200  1
  O  O1319  1  0.342700  0.009200  0.072200  1
  O  O1320  1  0.592700  0.427800  0.509200  1
  O  O1321  1  0.937500  0.420000  0.554700  1
  O  O1322  1  0.187500  0.945300  0.920000  1
  O  O1323  1  0.812500  0.920000  0.945300  1
  O  O1324  1  0.437500  0.580000  0.445300  1
  O  O1325  1  0.062500  0.554700  0.420000  1
  O  O1326  1  0.687500  0.054700  0.080000  1
  O  O1327  1  0.312500  0.080000  0.054700  1
  O  O1328  1  0.562500  0.445300  0.580000  1
  O  O1329  1  0.703600  0.508000  0.935500  1
  O  O1330  1  0.953600  0.564500  0.008000  1
  O  O1331  1  0.046400  0.008000  0.564500  1
  O  O1332  1  0.203600  0.492000  0.064500  1
  O  O1333  1  0.296400  0.935500  0.508000  1
  O  O1334  1  0.453600  0.435500  0.992000  1
  O  O1335  1  0.546400  0.992000  0.435500  1
  O  O1336  1  0.796400  0.064500  0.492000  1
  O  O1337  1  0.658100  0.553500  0.972300  1
  O  O1338  1  0.908100  0.527700  0.053500  1
  O  O1339  1  0.091900  0.053500  0.527700  1
  O  O1340  1  0.158100  0.446500  0.027700  1
  O  O1341  1  0.341900  0.972300  0.553500  1
  O  O1342  1  0.408100  0.472300  0.946500  1
  O  O1343  1  0.591900  0.946500  0.472300  1
  O  O1344  1  0.841900  0.027700  0.446500  1
  O  O1345  1  0.706700  0.579500  0.924300  1
  O  O1346  1  0.956700  0.575700  0.079500  1
  O  O1347  1  0.043300  0.079500  0.575700  1
  O  O1348  1  0.206700  0.420500  0.075700  1
  O  O1349  1  0.293300  0.924300  0.579500  1
  O  O1350  1  0.456700  0.424300  0.920500  1
  O  O1351  1  0.543300  0.920500  0.424300  1
  O  O1352  1  0.793300  0.075700  0.420500  1
  O  O1353  1  0.731500  0.477400  0.185400  1
  O  O1354  1  0.981500  0.314600  0.977400  1
  O  O1355  1  0.018500  0.977400  0.314600  1
  O  O1356  1  0.231500  0.522600  0.814600  1
  O  O1357  1  0.268500  0.185400  0.477400  1
  O  O1358  1  0.481500  0.685400  0.022600  1
  O  O1359  1  0.518500  0.022600  0.685400  1
  O  O1360  1  0.768500  0.814600  0.522600  1
  O  O1361  1  0.744500  0.530900  0.141800  1
  O  O1362  1  0.994500  0.358200  0.030900  1
  O  O1363  1  0.005500  0.030900  0.358200  1
  O  O1364  1  0.244500  0.469100  0.858200  1
  O  O1365  1  0.255500  0.141800  0.530900  1
  O  O1366  1  0.494500  0.641800  0.969100  1
  O  O1367  1  0.505500  0.969100  0.641800  1
  O  O1368  1  0.755500  0.858200  0.469100  1
  O  O1369  1  0.797400  0.539200  0.193000  1
  O  O1370  1  0.047400  0.307000  0.039200  1
  O  O1371  1  0.952600  0.039200  0.307000  1
  O  O1372  1  0.297400  0.460800  0.807000  1
  O  O1373  1  0.202600  0.193000  0.539200  1
  O  O1374  1  0.547400  0.693000  0.960800  1
  O  O1375  1  0.452600  0.960800  0.693000  1
  O  O1376  1  0.702600  0.807000  0.460800  1
  O  O1377  1  0.009500  0.442400  0.878400  1
  O  O1378  1  0.259500  0.621600  0.942400  1
  O  O1379  1  0.740500  0.942400  0.621600  1
  O  O1380  1  0.509500  0.557600  0.121600  1
  O  O1381  1  0.990500  0.878400  0.442400  1
  O  O1382  1  0.759500  0.378400  0.057600  1
  O  O1383  1  0.240500  0.057600  0.378400  1
  O  O1384  1  0.490500  0.121600  0.557600  1
  O  O1385  1  0.066300  0.459600  0.834400  1
  O  O1386  1  0.316300  0.665600  0.959600  1
  O  O1387  1  0.683700  0.959600  0.665600  1
  O  O1388  1  0.566300  0.540400  0.165600  1
  O  O1389  1  0.933700  0.834400  0.459600  1
  O  O1390  1  0.816300  0.334400  0.040400  1
  O  O1391  1  0.183700  0.040400  0.334400  1
  O  O1392  1  0.433700  0.165600  0.540400  1
  O  O1393  1  0.002500  0.433700  0.808700  1
  O  O1394  1  0.252500  0.691300  0.933700  1
  O  O1395  1  0.747500  0.933700  0.691300  1
  O  O1396  1  0.502500  0.566300  0.191300  1
  O  O1397  1  0.997500  0.808700  0.433700  1
  O  O1398  1  0.752500  0.308700  0.066300  1
  O  O1399  1  0.247500  0.066300  0.308700  1
  O  O1400  1  0.497500  0.191300  0.566300  1
  O  O1401  1  0.795700  0.466000  0.889500  1
  O  O1402  1  0.045700  0.610500  0.966000  1
  O  O1403  1  0.954300  0.966000  0.610500  1
  O  O1404  1  0.295700  0.534000  0.110500  1
  O  O1405  1  0.204300  0.889500  0.466000  1
  O  O1406  1  0.545700  0.389500  0.034000  1
  O  O1407  1  0.454300  0.034000  0.389500  1
  O  O1408  1  0.704300  0.110500  0.534000  1
  O  O1409  1  0.832900  0.480300  0.827700  1
  O  O1410  1  0.082900  0.672300  0.980300  1
  O  O1411  1  0.917100  0.980300  0.672300  1
  O  O1412  1  0.332900  0.519700  0.172300  1
  O  O1413  1  0.167100  0.827700  0.480300  1
  O  O1414  1  0.582900  0.327700  0.019700  1
  O  O1415  1  0.417100  0.019700  0.327700  1
  O  O1416  1  0.667100  0.172300  0.519700  1
  O  O1417  1  0.849300  0.429200  0.868000  1
  O  O1418  1  0.099300  0.632000  0.929200  1
  O  O1419  1  0.900700  0.929200  0.632000  1
  O  O1420  1  0.349300  0.570800  0.132000  1
  O  O1421  1  0.150700  0.868000  0.429200  1
  O  O1422  1  0.599300  0.368000  0.070800  1
  O  O1423  1  0.400700  0.070800  0.368000  1
  O  O1424  1  0.650700  0.132000  0.570800  1
  O  O1425  1  0.834700  0.240500  0.039900  1
  O  O1426  1  0.084700  0.460100  0.740500  1
  O  O1427  1  0.915300  0.740500  0.460100  1
  O  O1428  1  0.334700  0.759500  0.960100  1
  O  O1429  1  0.165300  0.039900  0.240500  1
  O  O1430  1  0.584700  0.539900  0.259500  1
  O  O1431  1  0.415300  0.259500  0.539900  1
  O  O1432  1  0.665300  0.960100  0.759500  1
  O  O1433  1  0.718100  0.145000  0.069600  1
  O  O1434  1  0.968100  0.430400  0.645000  1
  O  O1435  1  0.031900  0.645000  0.430400  1
  O  O1436  1  0.218100  0.855000  0.930400  1
  O  O1437  1  0.281900  0.069600  0.145000  1
  O  O1438  1  0.468100  0.569600  0.355000  1
  O  O1439  1  0.531900  0.355000  0.569600  1
  O  O1440  1  0.781900  0.930400  0.855000  1
  O  O1441  1  0.660700  0.285200  0.064500  1
  O  O1442  1  0.910700  0.435500  0.785200  1
  O  O1443  1  0.089300  0.785200  0.435500  1
  O  O1444  1  0.160700  0.714800  0.935500  1
  O  O1445  1  0.339300  0.064500  0.285200  1
  O  O1446  1  0.410700  0.564500  0.214800  1
  O  O1447  1  0.589300  0.214800  0.564500  1
  O  O1448  1  0.839300  0.935500  0.714800  1
  O  O1449  1  0.893500  0.049200  0.991900  1
  O  O1450  1  0.143500  0.508100  0.549200  1
  O  O1451  1  0.856500  0.549200  0.508100  1
  O  O1452  1  0.393500  0.950800  0.008100  1
  O  O1453  1  0.106500  0.991900  0.049200  1
  O  O1454  1  0.643500  0.491900  0.450800  1
  O  O1455  1  0.356500  0.450800  0.491900  1
  O  O1456  1  0.606500  0.008100  0.950800  1
  O  O1457  1  0.009900  0.140400  0.757000  1
  O  O1458  1  0.259900  0.743000  0.640400  1
  O  O1459  1  0.740100  0.640400  0.743000  1
  O  O1460  1  0.509900  0.859600  0.243000  1
  O  O1461  1  0.990100  0.757000  0.140400  1
  O  O1462  1  0.759900  0.257000  0.359600  1
  O  O1463  1  0.240100  0.359600  0.257000  1
  O  O1464  1  0.490100  0.243000  0.859600  1
  O  O1465  1  0.648700  0.643000  0.391600  1
  O  O1466  1  0.898700  0.108400  0.143000  1
  O  O1467  1  0.101300  0.143000  0.108400  1
  O  O1468  1  0.148700  0.357000  0.608400  1
  O  O1469  1  0.351300  0.391600  0.643000  1
  O  O1470  1  0.398700  0.891600  0.857000  1
  O  O1471  1  0.601300  0.857000  0.891600  1
  O  O1472  1  0.851300  0.608400  0.357000  1
  O  O1473  1  0.845700  0.906600  0.152100  1
  O  O1474  1  0.095700  0.347900  0.406600  1
  O  O1475  1  0.904300  0.406600  0.347900  1
  O  O1476  1  0.345700  0.093400  0.847900  1
  O  O1477  1  0.154300  0.152100  0.906600  1
  O  O1478  1  0.595700  0.652100  0.593400  1
  O  O1479  1  0.404300  0.593400  0.652100  1
  O  O1480  1  0.654300  0.847900  0.093400  1
  O  O1481  1  0.635100  0.799900  0.965100  1
  O  O1482  1  0.885100  0.534900  0.299900  1
  O  O1483  1  0.114900  0.299900  0.534900  1
  O  O1484  1  0.135100  0.200100  0.034900  1
  O  O1485  1  0.364900  0.965100  0.799900  1
  O  O1486  1  0.385100  0.465100  0.700100  1
  O  O1487  1  0.614900  0.700100  0.465100  1
  O  O1488  1  0.864900  0.034900  0.200100  1
  O  O1489  1  0.285700  0.409200  0.690400  1
  O  O1490  1  0.535700  0.809600  0.909200  1
  O  O1491  1  0.464300  0.909200  0.809600  1
  O  O1492  1  0.785700  0.590800  0.309600  1
  O  O1493  1  0.714300  0.690400  0.409200  1
  O  O1494  1  0.035700  0.190400  0.090800  1
  O  O1495  1  0.964300  0.090800  0.190400  1
  O  O1496  1  0.214300  0.309600  0.590800  1
  O  O1497  1  0.029000  0.191200  0.604600  1
  O  O1498  1  0.279000  0.895400  0.691200  1
  O  O1499  1  0.721000  0.691200  0.895400  1
  O  O1500  1  0.529000  0.808800  0.395400  1
  O  O1501  1  0.971000  0.604600  0.191200  1
  O  O1502  1  0.779000  0.104600  0.308800  1
  O  O1503  1  0.221000  0.308800  0.104600  1
  O  O1504  1  0.471000  0.395400  0.808800  1
  O  O1505  1  0.074300  0.197900  0.911200  1
  O  O1506  1  0.324300  0.588800  0.697900  1
  O  O1507  1  0.675700  0.697900  0.588800  1
  O  O1508  1  0.574300  0.802100  0.088800  1
  O  O1509  1  0.925700  0.911200  0.197900  1
  O  O1510  1  0.824300  0.411200  0.302100  1
  O  O1511  1  0.175700  0.302100  0.411200  1
  O  O1512  1  0.425700  0.088800  0.802100  1
  O  O1513  1  0.195700  0.241900  0.653400  1
  O  O1514  1  0.445700  0.846600  0.741900  1
  O  O1515  1  0.554300  0.741900  0.846600  1
  O  O1516  1  0.695700  0.758100  0.346600  1
  O  O1517  1  0.804300  0.653400  0.241900  1
  O  O1518  1  0.945700  0.153400  0.258100  1
  O  O1519  1  0.054300  0.258100  0.153400  1
  O  O1520  1  0.304300  0.346600  0.758100  1
  O  O1521  1  0.771500  0.951100  0.210400  1
  O  O1522  1  0.021500  0.289600  0.451100  1
  O  O1523  1  0.978500  0.451100  0.289600  1
  O  O1524  1  0.271500  0.048900  0.789600  1
  O  O1525  1  0.228500  0.210400  0.951100  1
  O  O1526  1  0.521500  0.710400  0.548900  1
  O  O1527  1  0.478500  0.548900  0.710400  1
  O  O1528  1  0.728500  0.789600  0.048900  1
  O  O1529  1  0.596800  0.510400  0.758000  1
  O  O1530  1  0.846800  0.742000  0.010400  1
  O  O1531  1  0.153200  0.010400  0.742000  1
  O  O1532  1  0.096800  0.489600  0.242000  1
  O  O1533  1  0.403200  0.758000  0.510400  1
  O  O1534  1  0.346800  0.258000  0.989600  1
  O  O1535  1  0.653200  0.989600  0.258000  1
  O  O1536  1  0.903200  0.242000  0.489600  1
  O  O1537  1  0.949600  0.311700  0.532100  1
  O  O1538  1  0.199600  0.967900  0.811700  1
  O  O1539  1  0.800400  0.811700  0.967900  1
  O  O1540  1  0.449600  0.688300  0.467900  1
  O  O1541  1  0.050400  0.532100  0.311700  1
  O  O1542  1  0.699600  0.032100  0.188300  1
  O  O1543  1  0.300400  0.188300  0.032100  1
  O  O1544  1  0.550400  0.467900  0.688300  1
  O  O1545  1  0.816600  0.326500  0.435800  1
  O  O1546  1  0.066600  0.064200  0.826500  1
  O  O1547  1  0.933400  0.826500  0.064200  1
  O  O1548  1  0.316600  0.673500  0.564200  1
  O  O1549  1  0.183400  0.435800  0.326500  1
  O  O1550  1  0.566600  0.935800  0.173500  1
  O  O1551  1  0.433400  0.173500  0.935800  1
  O  O1552  1  0.683400  0.564200  0.673500  1
  O  O1553  1  0.070400  0.329700  0.650100  1
  O  O1554  1  0.320400  0.849900  0.829700  1
  O  O1555  1  0.679600  0.829700  0.849900  1
  O  O1556  1  0.570400  0.670300  0.349900  1
  O  O1557  1  0.929600  0.650100  0.329700  1
  O  O1558  1  0.820400  0.150100  0.170300  1
  O  O1559  1  0.179600  0.170300  0.150100  1
  O  O1560  1  0.429600  0.349900  0.670300  1
  O  O1561  1  0.811000  0.163600  0.077500  1
  O  O1562  1  0.061000  0.422500  0.663600  1
  O  O1563  1  0.939000  0.663600  0.422500  1
  O  O1564  1  0.311000  0.836400  0.922500  1
  O  O1565  1  0.189000  0.077500  0.163600  1
  O  O1566  1  0.561000  0.577500  0.336400  1
  O  O1567  1  0.439000  0.336400  0.577500  1
  O  O1568  1  0.689000  0.922500  0.836400  1
  O  O1569  1  0.897500  0.122100  0.047900  1
  O  O1570  1  0.147500  0.452100  0.622100  1
  O  O1571  1  0.852500  0.622100  0.452100  1
  O  O1572  1  0.397500  0.877900  0.952100  1
  O  O1573  1  0.102500  0.047900  0.122100  1
  O  O1574  1  0.647500  0.547900  0.377900  1
  O  O1575  1  0.352500  0.377900  0.547900  1
  O  O1576  1  0.602500  0.952100  0.877900  1
  O  O1577  1  0.754200  0.547700  0.858400  1
  O  O1578  1  0.004200  0.641600  0.047700  1
  O  O1579  1  0.995800  0.047700  0.641600  1
  O  O1580  1  0.254200  0.452300  0.141600  1
  O  O1581  1  0.245800  0.858400  0.547700  1
  O  O1582  1  0.504200  0.358400  0.952300  1
  O  O1583  1  0.495800  0.952300  0.358400  1
  O  O1584  1  0.745800  0.141600  0.452300  1
  O  O1585  1  0.544300  0.488100  0.825900  1
  O  O1586  1  0.794300  0.674100  0.988100  1
  O  O1587  1  0.205700  0.988100  0.674100  1
  O  O1588  1  0.044300  0.511900  0.174100  1
  O  O1589  1  0.455700  0.825900  0.488100  1
  O  O1590  1  0.294300  0.325900  0.011900  1
  O  O1591  1  0.705700  0.011900  0.325900  1
  O  O1592  1  0.955700  0.174100  0.511900  1
  O  O1593  1  0.803200  0.239200  0.481100  1
  O  O1594  1  0.053200  0.018900  0.739200  1
  O  O1595  1  0.946800  0.739200  0.018900  1
  O  O1596  1  0.303200  0.760800  0.518900  1
  O  O1597  1  0.196800  0.481100  0.239200  1
  O  O1598  1  0.553200  0.981100  0.260800  1
  O  O1599  1  0.446800  0.260800  0.981100  1
  O  O1600  1  0.696800  0.518900  0.760800  1
  O  O1601  1  0.093500  0.245900  0.837200  1
  O  O1602  1  0.343500  0.662800  0.745900  1
  O  O1603  1  0.656500  0.745900  0.662800  1
  O  O1604  1  0.593500  0.754100  0.162800  1
  O  O1605  1  0.906500  0.837200  0.245900  1
  O  O1606  1  0.843500  0.337200  0.254100  1
  O  O1607  1  0.156500  0.254100  0.337200  1
  O  O1608  1  0.406500  0.162800  0.754100  1
  O  O1609  1  0.008300  0.296100  0.589300  1
  O  O1610  1  0.258300  0.910700  0.796100  1
  O  O1611  1  0.741700  0.796100  0.910700  1
  O  O1612  1  0.508300  0.703900  0.410700  1
  O  O1613  1  0.991700  0.589300  0.296100  1
  O  O1614  1  0.758300  0.089300  0.203900  1
  O  O1615  1  0.241700  0.203900  0.089300  1
  O  O1616  1  0.491700  0.410700  0.703900  1
  O  O1617  1  0.654900  0.196100  0.040700  1
  O  O1618  1  0.904900  0.459300  0.696100  1
  O  O1619  1  0.095100  0.696100  0.459300  1
  O  O1620  1  0.154900  0.803900  0.959300  1
  O  O1621  1  0.345100  0.040700  0.196100  1
  O  O1622  1  0.404900  0.540700  0.303900  1
  O  O1623  1  0.595100  0.303900  0.540700  1
  O  O1624  1  0.845100  0.959300  0.803900  1
  O  O1625  1  0.693400  0.311100  0.531400  1
  O  O1626  1  0.943400  0.968600  0.811100  1
  O  O1627  1  0.056600  0.811100  0.968600  1
  O  O1628  1  0.193400  0.688900  0.468600  1
  O  O1629  1  0.306600  0.531400  0.311100  1
  O  O1630  1  0.443400  0.031400  0.188900  1
  O  O1631  1  0.556600  0.188900  0.031400  1
  O  O1632  1  0.806600  0.468600  0.688900  1
  O  O1633  1  0.172000  0.280000  0.837000  1
  O  O1634  1  0.422000  0.663000  0.780000  1
  O  O1635  1  0.578000  0.780000  0.663000  1
  O  O1636  1  0.672000  0.720000  0.163000  1
  O  O1637  1  0.828000  0.837000  0.280000  1
  O  O1638  1  0.922000  0.337000  0.220000  1
  O  O1639  1  0.078000  0.220000  0.337000  1
  O  O1640  1  0.328000  0.163000  0.720000  1
  O  O1641  1  0.739400  0.236700  0.535400  1
  O  O1642  1  0.989400  0.964600  0.736700  1
  O  O1643  1  0.010600  0.736700  0.964600  1
  O  O1644  1  0.239400  0.763300  0.464600  1
  O  O1645  1  0.260600  0.535400  0.236700  1
  O  O1646  1  0.489400  0.035400  0.263300  1
  O  O1647  1  0.510600  0.263300  0.035400  1
  O  O1648  1  0.760600  0.464600  0.763300  1
  O  O1649  1  0.799200  0.611400  0.168100  1
  O  O1650  1  0.049200  0.331900  0.111400  1
  O  O1651  1  0.950800  0.111400  0.331900  1
  O  O1652  1  0.299200  0.388600  0.831900  1
  O  O1653  1  0.200800  0.168100  0.611400  1
  O  O1654  1  0.549200  0.668100  0.888600  1
  O  O1655  1  0.450800  0.888600  0.668100  1
  O  O1656  1  0.700800  0.831900  0.388600  1
  O  O1657  1  0.470300  0.540200  0.826400  1
  O  O1658  1  0.720300  0.673600  0.040200  1
  O  O1659  1  0.279700  0.040200  0.673600  1
  O  O1660  1  0.970300  0.459800  0.173600  1
  O  O1661  1  0.529700  0.826400  0.540200  1
  O  O1662  1  0.220300  0.326400  0.959800  1
  O  O1663  1  0.779700  0.959800  0.326400  1
  O  O1664  1  0.029700  0.173600  0.459800  1
  O  O1665  1  0.100300  0.152500  0.558300  1
  O  O1666  1  0.350300  0.941700  0.652500  1
  O  O1667  1  0.649700  0.652500  0.941700  1
  O  O1668  1  0.600300  0.847500  0.441700  1
  O  O1669  1  0.899700  0.558300  0.152500  1
  O  O1670  1  0.850300  0.058300  0.347500  1
  O  O1671  1  0.149700  0.347500  0.058300  1
  O  O1672  1  0.399700  0.441700  0.847500  1
