# generated using pymatgen
data_SiH96Pd7C160N44O65
_symmetry_space_group_name_H-M   'P 1'
_cell_length_a   29.00820000
_cell_length_b   29.00820000
_cell_length_c   29.75390000
_cell_angle_alpha   90.00000000
_cell_angle_beta   90.00000000
_cell_angle_gamma   90.00000000
_symmetry_Int_Tables_number   1
_chemical_formula_structural   SiH96Pd7C160N44O65
_chemical_formula_sum   'Si4 H384 Pd28 C640 N176 O260'
_cell_volume   25037.18285549
_cell_formula_units_Z   4
loop_
 _symmetry_equiv_pos_site_id
 _symmetry_equiv_pos_as_xyz
  1  'x, y, z'
loop_
 _atom_site_type_symbol
 _atom_site_label
 _atom_site_symmetry_multiplicity
 _atom_site_fract_x
 _atom_site_fract_y
 _atom_site_fract_z
 _atom_site_occupancy
  Si  Si1  1  0.280900  0.280900  0.500000  1
  Si  Si2  1  0.219100  0.780900  0.250000  1
  Si  Si3  1  0.780900  0.219100  0.750000  1
  Si  Si4  1  0.719100  0.719100  0.000000  1
  H  H5  1  0.588700  0.441100  0.277200  1.0
  H  H6  1  0.058900  0.088700  0.027200  1.0
  H  H7  1  0.088700  0.058900  0.972800  1.0
  H  H8  1  0.411300  0.558900  0.777200  1.0
  H  H9  1  0.441100  0.588700  0.722800  1.0
  H  H10  1  0.941100  0.911300  0.527200  1.0
  H  H11  1  0.911300  0.941100  0.472800  1.0
  H  H12  1  0.558900  0.411300  0.222800  1.0
  H  H13  1  0.574600  0.533100  0.377200  1.0
  H  H14  1  0.966900  0.074600  0.127200  1.0
  H  H15  1  0.074600  0.966900  0.872800  1.0
  H  H16  1  0.425400  0.466900  0.877200  1.0
  H  H17  1  0.533100  0.574600  0.622800  1.0
  H  H18  1  0.033100  0.925400  0.627200  1.0
  H  H19  1  0.925400  0.033100  0.372800  1.0
  H  H20  1  0.466900  0.425400  0.122800  1.0
  H  H21  1  0.388700  0.561900  0.320300  1.0
  H  H22  1  0.938100  0.888700  0.070300  1.0
  H  H23  1  0.888700  0.938100  0.929700  1.0
  H  H24  1  0.611300  0.438100  0.820300  1.0
  H  H25  1  0.561900  0.388700  0.679700  1.0
  H  H26  1  0.061900  0.111300  0.570300  1.0
  H  H27  1  0.111300  0.061900  0.429700  1.0
  H  H28  1  0.438100  0.611300  0.179700  1.0
  H  H29  1  0.457600  0.702600  0.304100  1.0
  H  H30  1  0.797400  0.957600  0.054100  1.0
  H  H31  1  0.957600  0.797400  0.945900  1.0
  H  H32  1  0.542400  0.297400  0.804100  1.0
  H  H33  1  0.702600  0.457600  0.695900  1.0
  H  H34  1  0.202600  0.042400  0.554100  1.0
  H  H35  1  0.042400  0.202600  0.445900  1.0
  H  H36  1  0.297400  0.542400  0.195900  1.0
  H  H37  1  0.248400  0.653000  0.500400  1.0
  H  H38  1  0.847000  0.748400  0.250400  1.0
  H  H39  1  0.748400  0.847000  0.749600  1.0
  H  H40  1  0.751600  0.347000  0.000400  1.0
  H  H41  1  0.653000  0.248400  0.499600  1.0
  H  H42  1  0.153000  0.251600  0.750400  1.0
  H  H43  1  0.251600  0.153000  0.249600  1.0
  H  H44  1  0.347000  0.751600  0.999600  1.0
  H  H45  1  0.285800  0.797600  0.458200  1.0
  H  H46  1  0.702400  0.785800  0.208200  1.0
  H  H47  1  0.785800  0.702400  0.791800  1.0
  H  H48  1  0.714200  0.202400  0.958200  1.0
  H  H49  1  0.797600  0.285800  0.541800  1.0
  H  H50  1  0.297600  0.214200  0.708200  1.0
  H  H51  1  0.214200  0.297600  0.291800  1.0
  H  H52  1  0.202400  0.714200  0.041800  1.0
  H  H53  1  0.277600  0.702700  0.583200  1.0
  H  H54  1  0.797300  0.777600  0.333200  1.0
  H  H55  1  0.777600  0.797300  0.666800  1.0
  H  H56  1  0.722400  0.297300  0.083200  1.0
  H  H57  1  0.702700  0.277600  0.416800  1.0
  H  H58  1  0.202700  0.222400  0.833200  1.0
  H  H59  1  0.222400  0.202700  0.166800  1.0
  H  H60  1  0.297300  0.722400  0.916800  1.0
  H  H61  1  0.272800  0.665200  0.704300  1.0
  H  H62  1  0.834800  0.772800  0.454300  1.0
  H  H63  1  0.772800  0.834800  0.545700  1.0
  H  H64  1  0.727200  0.334800  0.204300  1.0
  H  H65  1  0.665200  0.272800  0.295700  1.0
  H  H66  1  0.165200  0.227200  0.954300  1.0
  H  H67  1  0.227200  0.165200  0.045700  1.0
  H  H68  1  0.334800  0.727200  0.795700  1.0
  H  H69  1  0.110800  0.639500  0.683300  1.0
  H  H70  1  0.860500  0.610800  0.433300  1.0
  H  H71  1  0.610800  0.860500  0.566700  1.0
  H  H72  1  0.889200  0.360500  0.183300  1.0
  H  H73  1  0.639500  0.110800  0.316700  1.0
  H  H74  1  0.139500  0.389200  0.933300  1.0
  H  H75  1  0.389200  0.139500  0.066700  1.0
  H  H76  1  0.360500  0.889200  0.816700  1.0
  H  H77  1  0.013300  0.680000  0.595800  1.0
  H  H78  1  0.820000  0.513300  0.345800  1.0
  H  H79  1  0.513300  0.820000  0.654200  1.0
  H  H80  1  0.986700  0.320000  0.095800  1.0
  H  H81  1  0.680000  0.013300  0.404200  1.0
  H  H82  1  0.180000  0.486700  0.845800  1.0
  H  H83  1  0.486700  0.180000  0.154200  1.0
  H  H84  1  0.320000  0.986700  0.904200  1.0
  H  H85  1  0.119100  0.784700  0.506900  1.0
  H  H86  1  0.715300  0.619100  0.256900  1.0
  H  H87  1  0.619100  0.715300  0.743100  1.0
  H  H88  1  0.880900  0.215300  0.006900  1.0
  H  H89  1  0.784700  0.119100  0.493100  1.0
  H  H90  1  0.284700  0.380900  0.756900  1.0
  H  H91  1  0.380900  0.284700  0.243100  1.0
  H  H92  1  0.215300  0.880900  0.993100  1.0
  H  H93  1  0.108500  0.669800  0.400800  1.0
  H  H94  1  0.830200  0.608500  0.150800  1.0
  H  H95  1  0.608500  0.830200  0.849200  1.0
  H  H96  1  0.891500  0.330200  0.900800  1.0
  H  H97  1  0.669800  0.108500  0.599200  1.0
  H  H98  1  0.169800  0.391500  0.650800  1.0
  H  H99  1  0.391500  0.169800  0.349200  1.0
  H  H100  1  0.330200  0.891500  0.099200  1.0
  H  H101  1  0.000700  0.901200  0.215400  1.0
  H  H102  1  0.598800  0.500700  0.965400  1.0
  H  H103  1  0.500700  0.598800  0.034600  1.0
  H  H104  1  0.999300  0.098800  0.715400  1.0
  H  H105  1  0.901200  0.000700  0.784600  1.0
  H  H106  1  0.401200  0.499300  0.465400  1.0
  H  H107  1  0.499300  0.401200  0.534600  1.0
  H  H108  1  0.098800  0.999300  0.284600  1.0
  H  H109  1  0.036600  0.874600  0.363400  1.0
  H  H110  1  0.625400  0.536600  0.113400  1.0
  H  H111  1  0.536600  0.625400  0.886600  1.0
  H  H112  1  0.963400  0.125400  0.863400  1.0
  H  H113  1  0.874600  0.036600  0.636600  1.0
  H  H114  1  0.374600  0.463400  0.613400  1.0
  H  H115  1  0.463400  0.374600  0.386600  1.0
  H  H116  1  0.125400  0.963400  0.136600  1.0
  H  H117  1  0.925200  0.943400  0.290600  1.0
  H  H118  1  0.556600  0.425200  0.040600  1.0
  H  H119  1  0.425200  0.556600  0.959400  1.0
  H  H120  1  0.074800  0.056600  0.790600  1.0
  H  H121  1  0.943400  0.925200  0.709400  1.0
  H  H122  1  0.443400  0.574800  0.540600  1.0
  H  H123  1  0.574800  0.443400  0.459400  1.0
  H  H124  1  0.056600  0.074800  0.209400  1.0
  H  H125  1  0.821900  0.030000  0.300800  1.0
  H  H126  1  0.470000  0.321900  0.050800  1.0
  H  H127  1  0.321900  0.470000  0.949200  1.0
  H  H128  1  0.178100  0.970000  0.800800  1.0
  H  H129  1  0.030000  0.821900  0.699200  1.0
  H  H130  1  0.530000  0.678100  0.550800  1.0
  H  H131  1  0.678100  0.530000  0.449200  1.0
  H  H132  1  0.970000  0.178100  0.199200  1.0
  H  H133  1  0.037900  0.565700  0.267700  1.0
  H  H134  1  0.934300  0.537900  0.017700  1.0
  H  H135  1  0.537900  0.934300  0.982300  1.0
  H  H136  1  0.962100  0.434300  0.767700  1.0
  H  H137  1  0.565700  0.037900  0.732300  1.0
  H  H138  1  0.065700  0.462100  0.517700  1.0
  H  H139  1  0.462100  0.065700  0.482300  1.0
  H  H140  1  0.434300  0.962100  0.232300  1.0
  H  H141  1  0.993400  0.711300  0.228700  1.0
  H  H142  1  0.788700  0.493400  0.978700  1.0
  H  H143  1  0.493400  0.788700  0.021300  1.0
  H  H144  1  0.006600  0.288700  0.728700  1.0
  H  H145  1  0.711300  0.993400  0.771300  1.0
  H  H146  1  0.211300  0.506600  0.478700  1.0
  H  H147  1  0.506600  0.211300  0.521300  1.0
  H  H148  1  0.288700  0.006600  0.271300  1.0
  H  H149  1  0.927000  0.567100  0.227300  1.0
  H  H150  1  0.932900  0.427000  0.977300  1.0
  H  H151  1  0.427000  0.932900  0.022700  1.0
  H  H152  1  0.073000  0.432900  0.727300  1.0
  H  H153  1  0.567100  0.927000  0.772700  1.0
  H  H154  1  0.067100  0.573000  0.477300  1.0
  H  H155  1  0.573000  0.067100  0.522700  1.0
  H  H156  1  0.432900  0.073000  0.272700  1.0
  H  H157  1  0.840200  0.476400  0.163100  1.0
  H  H158  1  0.023600  0.340200  0.913100  1.0
  H  H159  1  0.340200  0.023600  0.086900  1.0
  H  H160  1  0.159800  0.523600  0.663100  1.0
  H  H161  1  0.476400  0.840200  0.836900  1.0
  H  H162  1  0.976400  0.659800  0.413100  1.0
  H  H163  1  0.659800  0.976400  0.586900  1.0
  H  H164  1  0.523600  0.159800  0.336900  1.0
  H  H165  1  0.387800  0.939000  0.393100  1.0
  H  H166  1  0.561000  0.887800  0.143100  1.0
  H  H167  1  0.887800  0.561000  0.856900  1.0
  H  H168  1  0.612200  0.061000  0.893100  1.0
  H  H169  1  0.939000  0.387800  0.606900  1.0
  H  H170  1  0.439000  0.112200  0.643100  1.0
  H  H171  1  0.112200  0.439000  0.356900  1.0
  H  H172  1  0.061000  0.612200  0.106900  1.0
  H  H173  1  0.439100  0.816300  0.308100  1.0
  H  H174  1  0.683700  0.939100  0.058100  1.0
  H  H175  1  0.939100  0.683700  0.941900  1.0
  H  H176  1  0.560900  0.183700  0.808100  1.0
  H  H177  1  0.816300  0.439100  0.691900  1.0
  H  H178  1  0.316300  0.060900  0.558100  1.0
  H  H179  1  0.060900  0.316300  0.441900  1.0
  H  H180  1  0.183700  0.560900  0.191900  1.0
  H  H181  1  0.999500  0.408400  0.041800  1.0
  H  H182  1  0.091600  0.499500  0.791800  1.0
  H  H183  1  0.499500  0.091600  0.208200  1.0
  H  H184  1  0.000500  0.591600  0.541800  1.0
  H  H185  1  0.408400  0.999500  0.958200  1.0
  H  H186  1  0.908400  0.500500  0.291800  1.0
  H  H187  1  0.500500  0.908400  0.708200  1.0
  H  H188  1  0.591600  0.000500  0.458200  1.0
  H  H189  1  0.080500  0.501100  0.103600  1.0
  H  H190  1  0.998900  0.580500  0.853600  1.0
  H  H191  1  0.580500  0.998900  0.146400  1.0
  H  H192  1  0.919500  0.498900  0.603600  1.0
  H  H193  1  0.501100  0.080500  0.896400  1.0
  H  H194  1  0.001100  0.419500  0.353600  1.0
  H  H195  1  0.419500  0.001100  0.646400  1.0
  H  H196  1  0.498900  0.919500  0.396400  1.0
  H  H197  1  0.617100  0.477100  0.347400  1.0
  H  H198  1  0.022900  0.117100  0.097400  1.0
  H  H199  1  0.117100  0.022900  0.902600  1.0
  H  H200  1  0.382900  0.522900  0.847400  1.0
  H  H201  1  0.477100  0.617100  0.652600  1.0
  H  H202  1  0.977100  0.882900  0.597400  1.0
  H  H203  1  0.882900  0.977100  0.402600  1.0
  H  H204  1  0.522900  0.382900  0.152600  1.0
  H  H205  1  0.512900  0.567900  0.335000  1.0
  H  H206  1  0.932100  0.012900  0.085000  1.0
  H  H207  1  0.012900  0.932100  0.915000  1.0
  H  H208  1  0.487100  0.432100  0.835000  1.0
  H  H209  1  0.567900  0.512900  0.665000  1.0
  H  H210  1  0.067900  0.987100  0.585000  1.0
  H  H211  1  0.987100  0.067900  0.415000  1.0
  H  H212  1  0.432100  0.487100  0.165000  1.0
  H  H213  1  0.362800  0.621400  0.359100  1.0
  H  H214  1  0.878600  0.862800  0.109100  1.0
  H  H215  1  0.862800  0.878600  0.890900  1.0
  H  H216  1  0.637200  0.378600  0.859100  1.0
  H  H217  1  0.621400  0.362800  0.640900  1.0
  H  H218  1  0.121400  0.137200  0.609100  1.0
  H  H219  1  0.137200  0.121400  0.390900  1.0
  H  H220  1  0.378600  0.637200  0.140900  1.0
  H  H221  1  0.484400  0.640800  0.265400  1.0
  H  H222  1  0.859200  0.984400  0.015400  1.0
  H  H223  1  0.984400  0.859200  0.984600  1.0
  H  H224  1  0.515600  0.359200  0.765400  1.0
  H  H225  1  0.640800  0.484400  0.734600  1.0
  H  H226  1  0.140800  0.015600  0.515400  1.0
  H  H227  1  0.015600  0.140800  0.484600  1.0
  H  H228  1  0.359200  0.515600  0.234600  1.0
  H  H229  1  0.301800  0.663700  0.445300  1.0
  H  H230  1  0.836300  0.801800  0.195300  1.0
  H  H231  1  0.801800  0.836300  0.804700  1.0
  H  H232  1  0.698200  0.336300  0.945300  1.0
  H  H233  1  0.663700  0.301800  0.554700  1.0
  H  H234  1  0.163700  0.198200  0.695300  1.0
  H  H235  1  0.198200  0.163700  0.304700  1.0
  H  H236  1  0.336300  0.698200  0.054700  1.0
  H  H237  1  0.229000  0.785800  0.508500  1.0
  H  H238  1  0.714200  0.729000  0.258500  1.0
  H  H239  1  0.729000  0.714200  0.741500  1.0
  H  H240  1  0.771000  0.214200  0.008500  1.0
  H  H241  1  0.785800  0.229000  0.491500  1.0
  H  H242  1  0.285800  0.271000  0.758500  1.0
  H  H243  1  0.271000  0.285800  0.241500  1.0
  H  H244  1  0.214200  0.771000  0.991500  1.0
  H  H245  1  0.311500  0.666800  0.645400  1.0
  H  H246  1  0.833200  0.811500  0.395400  1.0
  H  H247  1  0.811500  0.833200  0.604600  1.0
  H  H248  1  0.688500  0.333200  0.145400  1.0
  H  H249  1  0.666800  0.311500  0.354600  1.0
  H  H250  1  0.166800  0.188500  0.895400  1.0
  H  H251  1  0.188500  0.166800  0.104600  1.0
  H  H252  1  0.333200  0.688500  0.854600  1.0
  H  H253  1  0.197400  0.642500  0.702500  1.0
  H  H254  1  0.857500  0.697400  0.452500  1.0
  H  H255  1  0.697400  0.857500  0.547500  1.0
  H  H256  1  0.802600  0.357500  0.202500  1.0
  H  H257  1  0.642500  0.197400  0.297500  1.0
  H  H258  1  0.142500  0.302600  0.952500  1.0
  H  H259  1  0.302600  0.142500  0.047500  1.0
  H  H260  1  0.357500  0.802600  0.797500  1.0
  H  H261  1  0.033700  0.646000  0.663600  1.0
  H  H262  1  0.854000  0.533700  0.413600  1.0
  H  H263  1  0.533700  0.854000  0.586400  1.0
  H  H264  1  0.966300  0.354000  0.163600  1.0
  H  H265  1  0.646000  0.033700  0.336400  1.0
  H  H266  1  0.146000  0.466300  0.913600  1.0
  H  H267  1  0.466300  0.146000  0.086400  1.0
  H  H268  1  0.354000  0.966300  0.836400  1.0
  H  H269  1  0.070100  0.707600  0.547900  1.0
  H  H270  1  0.792400  0.570100  0.297900  1.0
  H  H271  1  0.570100  0.792400  0.702100  1.0
  H  H272  1  0.929900  0.292400  0.047900  1.0
  H  H273  1  0.707600  0.070100  0.452100  1.0
  H  H274  1  0.207600  0.429900  0.797900  1.0
  H  H275  1  0.429900  0.207600  0.202100  1.0
  H  H276  1  0.292400  0.929900  0.952100  1.0
  H  H277  1  0.077100  0.797800  0.441600  1.0
  H  H278  1  0.702200  0.577100  0.191600  1.0
  H  H279  1  0.577100  0.702200  0.808400  1.0
  H  H280  1  0.922900  0.202200  0.941600  1.0
  H  H281  1  0.797800  0.077100  0.558400  1.0
  H  H282  1  0.297800  0.422900  0.691600  1.0
  H  H283  1  0.422900  0.297800  0.308400  1.0
  H  H284  1  0.202200  0.922900  0.058400  1.0
  H  H285  1  0.149600  0.660100  0.463900  1.0
  H  H286  1  0.839900  0.649600  0.213900  1.0
  H  H287  1  0.649600  0.839900  0.786100  1.0
  H  H288  1  0.850400  0.339900  0.963900  1.0
  H  H289  1  0.660100  0.149600  0.536100  1.0
  H  H290  1  0.160100  0.350400  0.713900  1.0
  H  H291  1  0.350400  0.160100  0.286100  1.0
  H  H292  1  0.339900  0.850400  0.036100  1.0
  H  H293  1  0.014800  0.824200  0.237200  1.0
  H  H294  1  0.675800  0.514800  0.987200  1.0
  H  H295  1  0.514800  0.675800  0.012800  1.0
  H  H296  1  0.985200  0.175800  0.737200  1.0
  H  H297  1  0.824200  0.014800  0.762800  1.0
  H  H298  1  0.324200  0.485200  0.487200  1.0
  H  H299  1  0.485200  0.324200  0.512800  1.0
  H  H300  1  0.175800  0.985200  0.262800  1.0
  H  H301  1  0.023300  0.946300  0.333500  1.0
  H  H302  1  0.553700  0.523300  0.083500  1.0
  H  H303  1  0.523300  0.553700  0.916500  1.0
  H  H304  1  0.976700  0.053700  0.833500  1.0
  H  H305  1  0.946300  0.023300  0.666500  1.0
  H  H306  1  0.446300  0.476700  0.583500  1.0
  H  H307  1  0.476700  0.446300  0.416500  1.0
  H  H308  1  0.053700  0.976700  0.166500  1.0
  H  H309  1  0.847200  0.960000  0.315400  1.0
  H  H310  1  0.540000  0.347200  0.065400  1.0
  H  H311  1  0.347200  0.540000  0.934600  1.0
  H  H312  1  0.152800  0.040000  0.815400  1.0
  H  H313  1  0.960000  0.847200  0.684600  1.0
  H  H314  1  0.460000  0.652800  0.565400  1.0
  H  H315  1  0.652800  0.460000  0.434600  1.0
  H  H316  1  0.040000  0.152800  0.184600  1.0
  H  H317  1  0.864200  0.085300  0.267700  1.0
  H  H318  1  0.414700  0.364200  0.017700  1.0
  H  H319  1  0.364200  0.414700  0.982300  1.0
  H  H320  1  0.135800  0.914700  0.767700  1.0
  H  H321  1  0.085300  0.864200  0.732300  1.0
  H  H322  1  0.585300  0.635800  0.517700  1.0
  H  H323  1  0.635800  0.585300  0.482300  1.0
  H  H324  1  0.914700  0.135800  0.232300  1.0
  H  H325  1  0.046400  0.626000  0.317100  1.0
  H  H326  1  0.874000  0.546400  0.067100  1.0
  H  H327  1  0.546400  0.874000  0.932900  1.0
  H  H328  1  0.953600  0.374000  0.817100  1.0
  H  H329  1  0.626000  0.046400  0.682900  1.0
  H  H330  1  0.126000  0.453600  0.567100  1.0
  H  H331  1  0.453600  0.126000  0.432900  1.0
  H  H332  1  0.374000  0.953600  0.182900  1.0
  H  H333  1  0.984900  0.652000  0.179400  1.0
  H  H334  1  0.848000  0.484900  0.929400  1.0
  H  H335  1  0.484900  0.848000  0.070600  1.0
  H  H336  1  0.015100  0.348000  0.679400  1.0
  H  H337  1  0.652000  0.984900  0.820600  1.0
  H  H338  1  0.152000  0.515100  0.429400  1.0
  H  H339  1  0.515100  0.152000  0.570600  1.0
  H  H340  1  0.348000  0.015100  0.320600  1.0
  H  H341  1  0.848000  0.538000  0.231000  1.0
  H  H342  1  0.962000  0.348000  0.981000  1.0
  H  H343  1  0.348000  0.962000  0.019000  1.0
  H  H344  1  0.152000  0.462000  0.731000  1.0
  H  H345  1  0.538000  0.848000  0.769000  1.0
  H  H346  1  0.038000  0.652000  0.481000  1.0
  H  H347  1  0.652000  0.038000  0.519000  1.0
  H  H348  1  0.462000  0.152000  0.269000  1.0
  H  H349  1  0.894000  0.455600  0.120400  1.0
  H  H350  1  0.044400  0.394000  0.870400  1.0
  H  H351  1  0.394000  0.044400  0.129600  1.0
  H  H352  1  0.106000  0.544400  0.620400  1.0
  H  H353  1  0.455600  0.894000  0.879600  1.0
  H  H354  1  0.955600  0.606000  0.370400  1.0
  H  H355  1  0.606000  0.955600  0.629600  1.0
  H  H356  1  0.544400  0.106000  0.379600  1.0
  H  H357  1  0.363000  0.865700  0.408700  1.0
  H  H358  1  0.634300  0.863000  0.158700  1.0
  H  H359  1  0.863000  0.634300  0.841300  1.0
  H  H360  1  0.637000  0.134300  0.908700  1.0
  H  H361  1  0.865700  0.363000  0.591300  1.0
  H  H362  1  0.365700  0.137000  0.658700  1.0
  H  H363  1  0.137000  0.365700  0.341300  1.0
  H  H364  1  0.134300  0.637000  0.091300  1.0
  H  H365  1  0.937000  0.433400  0.083900  1.0
  H  H366  1  0.066600  0.437000  0.833900  1.0
  H  H367  1  0.437000  0.066600  0.166100  1.0
  H  H368  1  0.063000  0.566600  0.583900  1.0
  H  H369  1  0.433400  0.937000  0.916100  1.0
  H  H370  1  0.933400  0.563000  0.333900  1.0
  H  H371  1  0.563000  0.933400  0.666100  1.0
  H  H372  1  0.566600  0.063000  0.416100  1.0
  H  H373  1  0.071200  0.442200  0.051600  1.0
  H  H374  1  0.057800  0.571200  0.801600  1.0
  H  H375  1  0.571200  0.057800  0.198400  1.0
  H  H376  1  0.928800  0.557800  0.551600  1.0
  H  H377  1  0.442200  0.071200  0.948400  1.0
  H  H378  1  0.942200  0.428800  0.301600  1.0
  H  H379  1  0.428800  0.942200  0.698400  1.0
  H  H380  1  0.557800  0.928800  0.448400  1.0
  H  H381  1  0.109500  0.531000  0.201300  1.0
  H  H382  1  0.969000  0.609500  0.951300  1.0
  H  H383  1  0.609500  0.969000  0.048700  1.0
  H  H384  1  0.890500  0.469000  0.701300  1.0
  H  H385  1  0.531000  0.109500  0.798700  1.0
  H  H386  1  0.031000  0.390500  0.451300  1.0
  H  H387  1  0.390500  0.031000  0.548700  1.0
  H  H388  1  0.469000  0.890500  0.298700  1.0
  Pd  Pd389  1  0.459300  0.540700  0.250000  1
  Pd  Pd390  1  0.959300  0.959300  0.000000  1
  Pd  Pd391  1  0.540700  0.459300  0.750000  1
  Pd  Pd392  1  0.040700  0.040700  0.500000  1
  Pd  Pd393  1  0.176600  0.705900  0.547500  1.0
  Pd  Pd394  1  0.794100  0.676600  0.297500  1.0
  Pd  Pd395  1  0.676600  0.794100  0.702500  1.0
  Pd  Pd396  1  0.823400  0.294100  0.047500  1.0
  Pd  Pd397  1  0.705900  0.176600  0.452500  1.0
  Pd  Pd398  1  0.205900  0.323400  0.797500  1.0
  Pd  Pd399  1  0.323400  0.205900  0.202500  1.0
  Pd  Pd400  1  0.294100  0.823400  0.952500  1.0
  Pd  Pd401  1  0.006300  0.995800  0.244700  1.0
  Pd  Pd402  1  0.504200  0.506300  0.994700  1.0
  Pd  Pd403  1  0.506300  0.504200  0.005300  1.0
  Pd  Pd404  1  0.993700  0.004200  0.744700  1.0
  Pd  Pd405  1  0.995800  0.006300  0.755300  1.0
  Pd  Pd406  1  0.495800  0.493700  0.494700  1.0
  Pd  Pd407  1  0.493700  0.495800  0.505300  1.0
  Pd  Pd408  1  0.004200  0.993700  0.255300  1.0
  Pd  Pd409  1  0.012800  0.552000  0.171800  1.0
  Pd  Pd410  1  0.948000  0.512800  0.921800  1.0
  Pd  Pd411  1  0.512800  0.948000  0.078200  1.0
  Pd  Pd412  1  0.987200  0.448000  0.671800  1.0
  Pd  Pd413  1  0.552000  0.012800  0.828200  1.0
  Pd  Pd414  1  0.052000  0.487200  0.421800  1.0
  Pd  Pd415  1  0.487200  0.052000  0.578200  1.0
  Pd  Pd416  1  0.448000  0.987200  0.328200  1.0
  C  C417  1  0.230600  0.281600  0.457300  1.0
  C  C418  1  0.218400  0.730600  0.207300  1.0
  C  C419  1  0.730600  0.218400  0.792700  1.0
  C  C420  1  0.769400  0.718400  0.957300  1.0
  C  C421  1  0.281600  0.230600  0.542700  1.0
  C  C422  1  0.781600  0.269400  0.707300  1.0
  C  C423  1  0.269400  0.781600  0.292700  1.0
  C  C424  1  0.718400  0.769400  0.042700  1.0
  C  C425  1  0.340700  0.278900  0.461400  1.0
  C  C426  1  0.221100  0.840700  0.211400  1.0
  C  C427  1  0.840700  0.221100  0.788600  1.0
  C  C428  1  0.659300  0.721100  0.961400  1.0
  C  C429  1  0.278900  0.340700  0.538600  1.0
  C  C430  1  0.778900  0.159300  0.711400  1.0
  C  C431  1  0.159300  0.778900  0.288600  1.0
  C  C432  1  0.721100  0.659300  0.038600  1.0
  C  C433  1  0.157900  0.243600  0.492800  1.0
  C  C434  1  0.256400  0.657900  0.242800  1.0
  C  C435  1  0.657900  0.256400  0.757200  1.0
  C  C436  1  0.842100  0.756400  0.992800  1.0
  C  C437  1  0.243600  0.157900  0.507200  1.0
  C  C438  1  0.743600  0.342100  0.742800  1.0
  C  C439  1  0.342100  0.743600  0.257200  1.0
  C  C440  1  0.756400  0.842100  0.007200  1.0
  C  C441  1  0.100500  0.289500  0.530200  1.0
  C  C442  1  0.210500  0.600500  0.280200  1.0
  C  C443  1  0.600500  0.210500  0.719800  1.0
  C  C444  1  0.899500  0.710500  0.030200  1.0
  C  C445  1  0.289500  0.100500  0.469800  1.0
  C  C446  1  0.789500  0.399500  0.780200  1.0
  C  C447  1  0.399500  0.789500  0.219800  1.0
  C  C448  1  0.710500  0.899500  0.969800  1.0
  C  C449  1  0.168300  0.325600  0.499700  1.0
  C  C450  1  0.174400  0.668300  0.249700  1.0
  C  C451  1  0.668300  0.174400  0.750300  1.0
  C  C452  1  0.831700  0.674400  0.999700  1.0
  C  C453  1  0.325600  0.168300  0.500300  1.0
  C  C454  1  0.825600  0.331700  0.749700  1.0
  C  C455  1  0.331700  0.825600  0.250300  1.0
  C  C456  1  0.674400  0.831700  0.000300  1.0
  C  C457  1  0.353300  0.356200  0.435800  1.0
  C  C458  1  0.143800  0.853300  0.185800  1.0
  C  C459  1  0.853300  0.143800  0.814200  1.0
  C  C460  1  0.646700  0.643800  0.935800  1.0
  C  C461  1  0.356200  0.353300  0.564200  1.0
  C  C462  1  0.856200  0.146700  0.685800  1.0
  C  C463  1  0.146700  0.856200  0.314200  1.0
  C  C464  1  0.643800  0.646700  0.064200  1.0
  C  C465  1  0.336800  0.380500  0.360100  1.0
  C  C466  1  0.119500  0.836800  0.110100  1.0
  C  C467  1  0.836800  0.119500  0.889900  1.0
  C  C468  1  0.663200  0.619500  0.860100  1.0
  C  C469  1  0.380500  0.336800  0.639900  1.0
  C  C470  1  0.880500  0.163200  0.610100  1.0
  C  C471  1  0.163200  0.880500  0.389900  1.0
  C  C472  1  0.619500  0.663200  0.139900  1.0
  C  C473  1  0.321000  0.302400  0.382800  1.0
  C  C474  1  0.197600  0.821000  0.132800  1.0
  C  C475  1  0.821000  0.197600  0.867200  1.0
  C  C476  1  0.679000  0.697600  0.882800  1.0
  C  C477  1  0.302400  0.321000  0.617200  1.0
  C  C478  1  0.802400  0.179000  0.632800  1.0
  C  C479  1  0.179000  0.802400  0.367200  1.0
  C  C480  1  0.697600  0.679000  0.117200  1.0
  C  C481  1  0.184000  0.283000  0.485000  1.0
  C  C482  1  0.217000  0.684000  0.235000  1.0
  C  C483  1  0.684000  0.217000  0.765000  1.0
  C  C484  1  0.816000  0.717000  0.985000  1.0
  C  C485  1  0.283000  0.184000  0.515000  1.0
  C  C486  1  0.783000  0.316000  0.735000  1.0
  C  C487  1  0.316000  0.783000  0.265000  1.0
  C  C488  1  0.717000  0.816000  0.015000  1.0
  C  C489  1  0.116200  0.246900  0.515500  1.0
  C  C490  1  0.253100  0.616200  0.265500  1.0
  C  C491  1  0.616200  0.253100  0.734500  1.0
  C  C492  1  0.883800  0.753100  0.015500  1.0
  C  C493  1  0.246900  0.116200  0.484500  1.0
  C  C494  1  0.746900  0.383800  0.765500  1.0
  C  C495  1  0.383800  0.746900  0.234500  1.0
  C  C496  1  0.753100  0.883800  0.984500  1.0
  C  C497  1  0.126500  0.328900  0.522400  1.0
  C  C498  1  0.171100  0.626500  0.272400  1.0
  C  C499  1  0.626500  0.171100  0.727600  1.0
  C  C500  1  0.873500  0.671100  0.022400  1.0
  C  C501  1  0.328900  0.126500  0.477600  1.0
  C  C502  1  0.828900  0.373500  0.772400  1.0
  C  C503  1  0.373500  0.828900  0.227600  1.0
  C  C504  1  0.671100  0.873500  0.977600  1.0
  C  C505  1  0.337300  0.312300  0.425700  1.0
  C  C506  1  0.187700  0.837300  0.175700  1.0
  C  C507  1  0.837300  0.187700  0.824300  1.0
  C  C508  1  0.662700  0.687700  0.925700  1.0
  C  C509  1  0.312300  0.337300  0.574300  1.0
  C  C510  1  0.812300  0.162700  0.675700  1.0
  C  C511  1  0.162700  0.812300  0.324300  1.0
  C  C512  1  0.687700  0.662700  0.074300  1.0
  C  C513  1  0.353100  0.390300  0.403000  1.0
  C  C514  1  0.109700  0.853100  0.153000  1.0
  C  C515  1  0.853100  0.109700  0.847000  1.0
  C  C516  1  0.646900  0.609700  0.903000  1.0
  C  C517  1  0.390300  0.353100  0.597000  1.0
  C  C518  1  0.890300  0.146900  0.653000  1.0
  C  C519  1  0.146900  0.890300  0.347000  1.0
  C  C520  1  0.609700  0.646900  0.097000  1.0
  C  C521  1  0.320800  0.336500  0.350000  1.0
  C  C522  1  0.163500  0.820800  0.100000  1.0
  C  C523  1  0.820800  0.163500  0.900000  1.0
  C  C524  1  0.679200  0.663500  0.850000  1.0
  C  C525  1  0.336500  0.320800  0.650000  1.0
  C  C526  1  0.836500  0.179200  0.600000  1.0
  C  C527  1  0.179200  0.836500  0.400000  1.0
  C  C528  1  0.663500  0.679200  0.150000  1.0
  C  C529  1  0.573900  0.466400  0.290000  1.0
  C  C530  1  0.033600  0.073900  0.040000  1.0
  C  C531  1  0.073900  0.033600  0.960000  1.0
  C  C532  1  0.426100  0.533600  0.790000  1.0
  C  C533  1  0.466400  0.573900  0.710000  1.0
  C  C534  1  0.966400  0.926100  0.540000  1.0
  C  C535  1  0.926100  0.966400  0.460000  1.0
  C  C536  1  0.533600  0.426100  0.210000  1.0
  C  C537  1  0.566800  0.521200  0.349200  1.0
  C  C538  1  0.978800  0.066800  0.099200  1.0
  C  C539  1  0.066800  0.978800  0.900800  1.0
  C  C540  1  0.433200  0.478800  0.849200  1.0
  C  C541  1  0.521200  0.566800  0.650800  1.0
  C  C542  1  0.021200  0.933200  0.599200  1.0
  C  C543  1  0.933200  0.021200  0.400800  1.0
  C  C544  1  0.478800  0.433200  0.150800  1.0
  C  C545  1  0.403200  0.590400  0.317300  1.0
  C  C546  1  0.909600  0.903200  0.067300  1.0
  C  C547  1  0.903200  0.909600  0.932700  1.0
  C  C548  1  0.596800  0.409600  0.817300  1.0
  C  C549  1  0.590400  0.403200  0.682700  1.0
  C  C550  1  0.090400  0.096800  0.567300  1.0
  C  C551  1  0.096800  0.090400  0.432700  1.0
  C  C552  1  0.409600  0.596800  0.182700  1.0
  C  C553  1  0.406700  0.670500  0.335300  1.0
  C  C554  1  0.829500  0.906700  0.085300  1.0
  C  C555  1  0.906700  0.829500  0.914700  1.0
  C  C556  1  0.593300  0.329500  0.835300  1.0
  C  C557  1  0.670500  0.406700  0.664700  1.0
  C  C558  1  0.170500  0.093300  0.585300  1.0
  C  C559  1  0.093300  0.170500  0.414700  1.0
  C  C560  1  0.329500  0.593300  0.164700  1.0
  C  C561  1  0.459500  0.636800  0.284800  1.0
  C  C562  1  0.863200  0.959500  0.034800  1.0
  C  C563  1  0.959500  0.863200  0.965200  1.0
  C  C564  1  0.540500  0.363200  0.784800  1.0
  C  C565  1  0.636800  0.459500  0.715200  1.0
  C  C566  1  0.136800  0.040500  0.534800  1.0
  C  C567  1  0.040500  0.136800  0.465200  1.0
  C  C568  1  0.363200  0.540500  0.215200  1.0
  C  C569  1  0.382000  0.786700  0.368300  1.0
  C  C570  1  0.713300  0.882000  0.118300  1.0
  C  C571  1  0.882000  0.713300  0.881700  1.0
  C  C572  1  0.618000  0.213300  0.868300  1.0
  C  C573  1  0.786700  0.382000  0.631700  1.0
  C  C574  1  0.286700  0.118000  0.618300  1.0
  C  C575  1  0.118000  0.286700  0.381700  1.0
  C  C576  1  0.213300  0.618000  0.131700  1.0
  C  C577  1  0.336200  0.739300  0.407900  1.0
  C  C578  1  0.760700  0.836200  0.157900  1.0
  C  C579  1  0.836200  0.760700  0.842100  1.0
  C  C580  1  0.663800  0.260700  0.907900  1.0
  C  C581  1  0.739300  0.336200  0.592100  1.0
  C  C582  1  0.239300  0.163800  0.657900  1.0
  C  C583  1  0.163800  0.239300  0.342100  1.0
  C  C584  1  0.260700  0.663800  0.092100  1.0
  C  C585  1  0.287400  0.688900  0.458500  1.0
  C  C586  1  0.811100  0.787400  0.208500  1.0
  C  C587  1  0.787400  0.811100  0.791500  1.0
  C  C588  1  0.712600  0.311100  0.958500  1.0
  C  C589  1  0.688900  0.287400  0.541500  1.0
  C  C590  1  0.188900  0.212600  0.708500  1.0
  C  C591  1  0.212600  0.188900  0.291500  1.0
  C  C592  1  0.311100  0.712600  0.041500  1.0
  C  C593  1  0.277200  0.767600  0.465700  1.0
  C  C594  1  0.732400  0.777200  0.215700  1.0
  C  C595  1  0.777200  0.732400  0.784300  1.0
  C  C596  1  0.722800  0.232400  0.965700  1.0
  C  C597  1  0.767600  0.277200  0.534300  1.0
  C  C598  1  0.267600  0.222800  0.715700  1.0
  C  C599  1  0.222800  0.267600  0.284300  1.0
  C  C600  1  0.232400  0.722800  0.034300  1.0
  C  C601  1  0.259700  0.689900  0.605900  1.0
  C  C602  1  0.810100  0.759700  0.355900  1.0
  C  C603  1  0.759700  0.810100  0.644100  1.0
  C  C604  1  0.740300  0.310100  0.105900  1.0
  C  C605  1  0.689900  0.259700  0.394100  1.0
  C  C606  1  0.189900  0.240300  0.855900  1.0
  C  C607  1  0.240300  0.189900  0.144100  1.0
  C  C608  1  0.310100  0.740300  0.894100  1.0
  C  C609  1  0.257600  0.664900  0.676800  1.0
  C  C610  1  0.835100  0.757600  0.426800  1.0
  C  C611  1  0.757600  0.835100  0.573200  1.0
  C  C612  1  0.742400  0.335100  0.176800  1.0
  C  C613  1  0.664900  0.257600  0.323200  1.0
  C  C614  1  0.164900  0.242400  0.926800  1.0
  C  C615  1  0.242400  0.164900  0.073200  1.0
  C  C616  1  0.335100  0.742400  0.823200  1.0
  C  C617  1  0.184400  0.669000  0.634200  1.0
  C  C618  1  0.831000  0.684400  0.384200  1.0
  C  C619  1  0.684400  0.831000  0.615800  1.0
  C  C620  1  0.815600  0.331000  0.134200  1.0
  C  C621  1  0.669000  0.184400  0.365800  1.0
  C  C622  1  0.169000  0.315600  0.884200  1.0
  C  C623  1  0.315600  0.169000  0.115800  1.0
  C  C624  1  0.331000  0.815600  0.865800  1.0
  C  C625  1  0.136600  0.669700  0.627500  1.0
  C  C626  1  0.830300  0.636600  0.377500  1.0
  C  C627  1  0.636600  0.830300  0.622500  1.0
  C  C628  1  0.863400  0.330300  0.127500  1.0
  C  C629  1  0.669700  0.136600  0.372500  1.0
  C  C630  1  0.169700  0.363400  0.877500  1.0
  C  C631  1  0.363400  0.169700  0.122500  1.0
  C  C632  1  0.330300  0.863400  0.872500  1.0
  C  C633  1  0.056400  0.657000  0.644300  1.0
  C  C634  1  0.843000  0.556400  0.394300  1.0
  C  C635  1  0.556400  0.843000  0.605700  1.0
  C  C636  1  0.943600  0.343000  0.144300  1.0
  C  C637  1  0.657000  0.056400  0.355700  1.0
  C  C638  1  0.157000  0.443600  0.894300  1.0
  C  C639  1  0.443600  0.157000  0.105700  1.0
  C  C640  1  0.343000  0.943600  0.855700  1.0
  C  C641  1  0.078200  0.693900  0.575100  1.0
  C  C642  1  0.806100  0.578200  0.325100  1.0
  C  C643  1  0.578200  0.806100  0.674900  1.0
  C  C644  1  0.921800  0.306100  0.075100  1.0
  C  C645  1  0.693900  0.078200  0.424900  1.0
  C  C646  1  0.193900  0.421800  0.825100  1.0
  C  C647  1  0.421800  0.193900  0.174900  1.0
  C  C648  1  0.306100  0.921800  0.924900  1.0
  C  C649  1  0.092200  0.769800  0.445700  1.0
  C  C650  1  0.730200  0.592200  0.195700  1.0
  C  C651  1  0.592200  0.730200  0.804300  1.0
  C  C652  1  0.907800  0.230200  0.945700  1.0
  C  C653  1  0.769800  0.092200  0.554300  1.0
  C  C654  1  0.269800  0.407800  0.695700  1.0
  C  C655  1  0.407800  0.269800  0.304300  1.0
  C  C656  1  0.230200  0.907800  0.054300  1.0
  C  C657  1  0.111000  0.693800  0.421400  1.0
  C  C658  1  0.806200  0.611000  0.171400  1.0
  C  C659  1  0.611000  0.806200  0.828600  1.0
  C  C660  1  0.889000  0.306200  0.921400  1.0
  C  C661  1  0.693800  0.111000  0.578600  1.0
  C  C662  1  0.193800  0.389000  0.671400  1.0
  C  C663  1  0.389000  0.193800  0.328600  1.0
  C  C664  1  0.306200  0.889000  0.078600  1.0
  C  C665  1  0.064800  0.744300  0.372000  1.0
  C  C666  1  0.755700  0.564800  0.122000  1.0
  C  C667  1  0.564800  0.755700  0.878000  1.0
  C  C668  1  0.935200  0.255700  0.872000  1.0
  C  C669  1  0.744300  0.064800  0.628000  1.0
  C  C670  1  0.244300  0.435200  0.622000  1.0
  C  C671  1  0.435200  0.244300  0.378000  1.0
  C  C672  1  0.255700  0.935200  0.128000  1.0
  C  C673  1  0.036200  0.717000  0.305000  1.0
  C  C674  1  0.783000  0.536200  0.055000  1.0
  C  C675  1  0.536200  0.783000  0.945000  1.0
  C  C676  1  0.963800  0.283000  0.805000  1.0
  C  C677  1  0.717000  0.036200  0.695000  1.0
  C  C678  1  0.217000  0.463800  0.555000  1.0
  C  C679  1  0.463800  0.217000  0.445000  1.0
  C  C680  1  0.283000  0.963800  0.195000  1.0
  C  C681  1  0.016500  0.848100  0.258000  1.0
  C  C682  1  0.651900  0.516500  0.008000  1.0
  C  C683  1  0.516500  0.651900  0.992000  1.0
  C  C684  1  0.983500  0.151900  0.758000  1.0
  C  C685  1  0.848100  0.016500  0.742000  1.0
  C  C686  1  0.348100  0.483500  0.508000  1.0
  C  C687  1  0.483500  0.348100  0.492000  1.0
  C  C688  1  0.151900  0.983500  0.242000  1.0
  C  C689  1  0.029700  0.878300  0.333100  1.0
  C  C690  1  0.621700  0.529700  0.083100  1.0
  C  C691  1  0.529700  0.621700  0.916900  1.0
  C  C692  1  0.970300  0.121700  0.833100  1.0
  C  C693  1  0.878300  0.029700  0.666900  1.0
  C  C694  1  0.378300  0.470300  0.583100  1.0
  C  C695  1  0.470300  0.378300  0.416900  1.0
  C  C696  1  0.121700  0.970300  0.166900  1.0
  C  C697  1  0.913600  0.973100  0.286800  1.0
  C  C698  1  0.526900  0.413600  0.036800  1.0
  C  C699  1  0.413600  0.526900  0.963200  1.0
  C  C700  1  0.086400  0.026900  0.786800  1.0
  C  C701  1  0.973100  0.913600  0.713200  1.0
  C  C702  1  0.473100  0.586400  0.536800  1.0
  C  C703  1  0.586400  0.473100  0.463200  1.0
  C  C704  1  0.026900  0.086400  0.213200  1.0
  C  C705  1  0.852000  0.022800  0.292800  1.0
  C  C706  1  0.477200  0.352000  0.042800  1.0
  C  C707  1  0.352000  0.477200  0.957200  1.0
  C  C708  1  0.148000  0.977200  0.792800  1.0
  C  C709  1  0.022800  0.852000  0.707200  1.0
  C  C710  1  0.522800  0.648000  0.542800  1.0
  C  C711  1  0.648000  0.522800  0.457200  1.0
  C  C712  1  0.977200  0.148000  0.207200  1.0
  C  C713  1  0.924000  0.045600  0.261400  1.0
  C  C714  1  0.454400  0.424000  0.011400  1.0
  C  C715  1  0.424000  0.454400  0.988600  1.0
  C  C716  1  0.076000  0.954400  0.761400  1.0
  C  C717  1  0.045600  0.924000  0.738600  1.0
  C  C718  1  0.545600  0.576000  0.511400  1.0
  C  C719  1  0.576000  0.545600  0.488600  1.0
  C  C720  1  0.954400  0.076000  0.238600  1.0
  C  C721  1  0.035300  0.631600  0.288300  1.0
  C  C722  1  0.868400  0.535300  0.038300  1.0
  C  C723  1  0.535300  0.868400  0.961700  1.0
  C  C724  1  0.964700  0.368400  0.788300  1.0
  C  C725  1  0.631600  0.035300  0.711700  1.0
  C  C726  1  0.131600  0.464700  0.538300  1.0
  C  C727  1  0.464700  0.131600  0.461700  1.0
  C  C728  1  0.368400  0.964700  0.211700  1.0
  C  C729  1  0.004000  0.682000  0.236200  1.0
  C  C730  1  0.818000  0.504000  0.986200  1.0
  C  C731  1  0.504000  0.818000  0.013800  1.0
  C  C732  1  0.996000  0.318000  0.736200  1.0
  C  C733  1  0.682000  0.004000  0.763800  1.0
  C  C734  1  0.182000  0.496000  0.486200  1.0
  C  C735  1  0.496000  0.182000  0.513800  1.0
  C  C736  1  0.318000  0.996000  0.263800  1.0
  C  C737  1  0.917600  0.544500  0.207100  1.0
  C  C738  1  0.955500  0.417600  0.957100  1.0
  C  C739  1  0.417600  0.955500  0.042900  1.0
  C  C740  1  0.082400  0.455500  0.707100  1.0
  C  C741  1  0.544500  0.917600  0.792900  1.0
  C  C742  1  0.044500  0.582400  0.457100  1.0
  C  C743  1  0.582400  0.044500  0.542900  1.0
  C  C744  1  0.455500  0.082400  0.292900  1.0
  C  C745  1  0.868700  0.490300  0.167500  1.0
  C  C746  1  0.009700  0.368700  0.917500  1.0
  C  C747  1  0.368700  0.009700  0.082500  1.0
  C  C748  1  0.131300  0.509700  0.667500  1.0
  C  C749  1  0.490300  0.868700  0.832500  1.0
  C  C750  1  0.990300  0.631300  0.417500  1.0
  C  C751  1  0.631300  0.990300  0.582500  1.0
  C  C752  1  0.509700  0.131300  0.332500  1.0
  C  C753  1  0.936400  0.498300  0.146300  1.0
  C  C754  1  0.001700  0.436400  0.896300  1.0
  C  C755  1  0.436400  0.001700  0.103700  1.0
  C  C756  1  0.063600  0.501700  0.646300  1.0
  C  C757  1  0.498300  0.936400  0.853700  1.0
  C  C758  1  0.998300  0.563600  0.396300  1.0
  C  C759  1  0.563600  0.998300  0.603700  1.0
  C  C760  1  0.501700  0.063600  0.353700  1.0
  C  C761  1  0.383600  0.870600  0.385100  1.0
  C  C762  1  0.629400  0.883600  0.135100  1.0
  C  C763  1  0.883600  0.629400  0.864900  1.0
  C  C764  1  0.616400  0.129400  0.885100  1.0
  C  C765  1  0.870600  0.383600  0.614900  1.0
  C  C766  1  0.370600  0.116400  0.635100  1.0
  C  C767  1  0.116400  0.370600  0.364900  1.0
  C  C768  1  0.129400  0.616400  0.114900  1.0
  C  C769  1  0.538300  0.484600  0.271800  1.0
  C  C770  1  0.015400  0.038300  0.021800  1.0
  C  C771  1  0.038300  0.015400  0.978200  1.0
  C  C772  1  0.461700  0.515400  0.771800  1.0
  C  C773  1  0.484600  0.538300  0.728200  1.0
  C  C774  1  0.984600  0.961700  0.521800  1.0
  C  C775  1  0.961700  0.984600  0.478200  1.0
  C  C776  1  0.515400  0.461700  0.228200  1.0
  C  C777  1  0.590600  0.487700  0.333000  1.0
  C  C778  1  0.012300  0.090600  0.083000  1.0
  C  C779  1  0.090600  0.012300  0.917000  1.0
  C  C780  1  0.409400  0.512300  0.833000  1.0
  C  C781  1  0.487700  0.590600  0.667000  1.0
  C  C782  1  0.987700  0.909400  0.583000  1.0
  C  C783  1  0.909400  0.987700  0.417000  1.0
  C  C784  1  0.512300  0.409400  0.167000  1.0
  C  C785  1  0.527300  0.541200  0.324700  1.0
  C  C786  1  0.958800  0.027300  0.074700  1.0
  C  C787  1  0.027300  0.958800  0.925300  1.0
  C  C788  1  0.472700  0.458800  0.824700  1.0
  C  C789  1  0.541200  0.527300  0.675300  1.0
  C  C790  1  0.041200  0.972700  0.574700  1.0
  C  C791  1  0.972700  0.041200  0.425300  1.0
  C  C792  1  0.458800  0.472700  0.175300  1.0
  C  C793  1  0.387500  0.625700  0.339600  1.0
  C  C794  1  0.874300  0.887500  0.089600  1.0
  C  C795  1  0.887500  0.874300  0.910400  1.0
  C  C796  1  0.612500  0.374300  0.839600  1.0
  C  C797  1  0.625700  0.387500  0.660400  1.0
  C  C798  1  0.125700  0.112500  0.589600  1.0
  C  C799  1  0.112500  0.125700  0.410400  1.0
  C  C800  1  0.374300  0.612500  0.160400  1.0
  C  C801  1  0.443200  0.674100  0.307700  1.0
  C  C802  1  0.825900  0.943200  0.057700  1.0
  C  C803  1  0.943200  0.825900  0.942300  1.0
  C  C804  1  0.556800  0.325900  0.807700  1.0
  C  C805  1  0.674100  0.443200  0.692300  1.0
  C  C806  1  0.174100  0.056800  0.557700  1.0
  C  C807  1  0.056800  0.174100  0.442300  1.0
  C  C808  1  0.325900  0.556800  0.192300  1.0
  C  C809  1  0.387500  0.708500  0.358800  1.0
  C  C810  1  0.791500  0.887500  0.108800  1.0
  C  C811  1  0.887500  0.791500  0.891200  1.0
  C  C812  1  0.612500  0.291500  0.858800  1.0
  C  C813  1  0.708500  0.387500  0.641200  1.0
  C  C814  1  0.208500  0.112500  0.608800  1.0
  C  C815  1  0.112500  0.208500  0.391200  1.0
  C  C816  1  0.291500  0.612500  0.141200  1.0
  C  C817  1  0.398800  0.833100  0.360000  1.0
  C  C818  1  0.666900  0.898800  0.110000  1.0
  C  C819  1  0.898800  0.666900  0.890000  1.0
  C  C820  1  0.601200  0.166900  0.860000  1.0
  C  C821  1  0.833100  0.398800  0.640000  1.0
  C  C822  1  0.333100  0.101200  0.610000  1.0
  C  C823  1  0.101200  0.333100  0.390000  1.0
  C  C824  1  0.166900  0.601200  0.140000  1.0
  C  C825  1  0.254900  0.682500  0.490100  1.0
  C  C826  1  0.817500  0.754900  0.240100  1.0
  C  C827  1  0.754900  0.817500  0.759900  1.0
  C  C828  1  0.745100  0.317500  0.990100  1.0
  C  C829  1  0.682500  0.254900  0.509900  1.0
  C  C830  1  0.182500  0.245100  0.740100  1.0
  C  C831  1  0.245100  0.182500  0.259900  1.0
  C  C832  1  0.317500  0.745100  0.009900  1.0
  C  C833  1  0.298900  0.731600  0.446100  1.0
  C  C834  1  0.768400  0.798900  0.196100  1.0
  C  C835  1  0.798900  0.768400  0.803900  1.0
  C  C836  1  0.701100  0.268400  0.946100  1.0
  C  C837  1  0.731600  0.298900  0.553900  1.0
  C  C838  1  0.231600  0.201100  0.696100  1.0
  C  C839  1  0.201100  0.231600  0.303900  1.0
  C  C840  1  0.268400  0.701100  0.053900  1.0
  C  C841  1  0.243800  0.760700  0.495500  1.0
  C  C842  1  0.739300  0.743800  0.245500  1.0
  C  C843  1  0.743800  0.739300  0.754500  1.0
  C  C844  1  0.756200  0.239300  0.995500  1.0
  C  C845  1  0.760700  0.243800  0.504500  1.0
  C  C846  1  0.260700  0.256200  0.745500  1.0
  C  C847  1  0.256200  0.260700  0.254500  1.0
  C  C848  1  0.239300  0.756200  0.004500  1.0
  C  C849  1  0.280000  0.672400  0.644800  1.0
  C  C850  1  0.827600  0.780000  0.394800  1.0
  C  C851  1  0.780000  0.827600  0.605200  1.0
  C  C852  1  0.720000  0.327600  0.144800  1.0
  C  C853  1  0.672400  0.280000  0.355200  1.0
  C  C854  1  0.172400  0.220000  0.894800  1.0
  C  C855  1  0.220000  0.172400  0.105200  1.0
  C  C856  1  0.327600  0.720000  0.855200  1.0
  C  C857  1  0.211700  0.655700  0.677700  1.0
  C  C858  1  0.844300  0.711700  0.427700  1.0
  C  C859  1  0.711700  0.844300  0.572300  1.0
  C  C860  1  0.788300  0.344300  0.177700  1.0
  C  C861  1  0.655700  0.211700  0.322300  1.0
  C  C862  1  0.155700  0.288300  0.927700  1.0
  C  C863  1  0.288300  0.155700  0.072300  1.0
  C  C864  1  0.344300  0.788300  0.822300  1.0
  C  C865  1  0.102600  0.653200  0.656200  1.0
  C  C866  1  0.846800  0.602600  0.406200  1.0
  C  C867  1  0.602600  0.846800  0.593800  1.0
  C  C868  1  0.897400  0.346800  0.156200  1.0
  C  C869  1  0.653200  0.102600  0.343800  1.0
  C  C870  1  0.153200  0.397400  0.906200  1.0
  C  C871  1  0.397400  0.153200  0.093800  1.0
  C  C872  1  0.346800  0.897400  0.843800  1.0
  C  C873  1  0.044200  0.677400  0.603800  1.0
  C  C874  1  0.822600  0.544200  0.353800  1.0
  C  C875  1  0.544200  0.822600  0.646200  1.0
  C  C876  1  0.955800  0.322600  0.103800  1.0
  C  C877  1  0.677400  0.044200  0.396200  1.0
  C  C878  1  0.177400  0.455800  0.853800  1.0
  C  C879  1  0.455800  0.177400  0.146200  1.0
  C  C880  1  0.322600  0.955800  0.896200  1.0
  C  C881  1  0.116900  0.761600  0.485300  1.0
  C  C882  1  0.738400  0.616900  0.235300  1.0
  C  C883  1  0.616900  0.738400  0.764700  1.0
  C  C884  1  0.883100  0.238400  0.985300  1.0
  C  C885  1  0.761600  0.116900  0.514700  1.0
  C  C886  1  0.261600  0.383100  0.735300  1.0
  C  C887  1  0.383100  0.261600  0.264700  1.0
  C  C888  1  0.238400  0.883100  0.014700  1.0
  C  C889  1  0.090200  0.736200  0.412500  1.0
  C  C890  1  0.763800  0.590200  0.162500  1.0
  C  C891  1  0.590200  0.763800  0.837500  1.0
  C  C892  1  0.909800  0.263800  0.912500  1.0
  C  C893  1  0.736200  0.090200  0.587500  1.0
  C  C894  1  0.236200  0.409800  0.662500  1.0
  C  C895  1  0.409800  0.236200  0.337500  1.0
  C  C896  1  0.263800  0.909800  0.087500  1.0
  C  C897  1  0.134500  0.688000  0.459600  1.0
  C  C898  1  0.812000  0.634500  0.209600  1.0
  C  C899  1  0.634500  0.812000  0.790400  1.0
  C  C900  1  0.865500  0.312000  0.959600  1.0
  C  C901  1  0.688000  0.134500  0.540400  1.0
  C  C902  1  0.188000  0.365500  0.709600  1.0
  C  C903  1  0.365500  0.188000  0.290400  1.0
  C  C904  1  0.312000  0.865500  0.040400  1.0
  C  C905  1  0.036300  0.793300  0.317800  1.0
  C  C906  1  0.706700  0.536300  0.067800  1.0
  C  C907  1  0.536300  0.706700  0.932200  1.0
  C  C908  1  0.963700  0.206700  0.817800  1.0
  C  C909  1  0.793300  0.036300  0.682200  1.0
  C  C910  1  0.293300  0.463700  0.567800  1.0
  C  C911  1  0.463700  0.293300  0.432200  1.0
  C  C912  1  0.206700  0.963700  0.182200  1.0
  C  C913  1  0.008500  0.895200  0.245200  1.0
  C  C914  1  0.604800  0.508500  0.995200  1.0
  C  C915  1  0.508500  0.604800  0.004800  1.0
  C  C916  1  0.991500  0.104800  0.745200  1.0
  C  C917  1  0.895200  0.008500  0.754800  1.0
  C  C918  1  0.395200  0.491500  0.495200  1.0
  C  C919  1  0.491500  0.395200  0.504800  1.0
  C  C920  1  0.104800  0.991500  0.254800  1.0
  C  C921  1  0.026900  0.839900  0.302600  1.0
  C  C922  1  0.660100  0.526900  0.052600  1.0
  C  C923  1  0.526900  0.660100  0.947400  1.0
  C  C924  1  0.973100  0.160100  0.802600  1.0
  C  C925  1  0.839900  0.026900  0.697400  1.0
  C  C926  1  0.339900  0.473100  0.552600  1.0
  C  C927  1  0.473100  0.339900  0.447400  1.0
  C  C928  1  0.160100  0.973100  0.197400  1.0
  C  C929  1  0.021500  0.921100  0.314200  1.0
  C  C930  1  0.578900  0.521500  0.064200  1.0
  C  C931  1  0.521500  0.578900  0.935800  1.0
  C  C932  1  0.978500  0.078900  0.814200  1.0
  C  C933  1  0.921100  0.021500  0.685800  1.0
  C  C934  1  0.421100  0.478500  0.564200  1.0
  C  C935  1  0.478500  0.421100  0.435800  1.0
  C  C936  1  0.078900  0.978500  0.185800  1.0
  C  C937  1  0.865600  0.982000  0.301400  1.0
  C  C938  1  0.518000  0.365600  0.051400  1.0
  C  C939  1  0.365600  0.518000  0.948600  1.0
  C  C940  1  0.134400  0.018000  0.801400  1.0
  C  C941  1  0.982000  0.865600  0.698600  1.0
  C  C942  1  0.482000  0.634400  0.551400  1.0
  C  C943  1  0.634400  0.482000  0.448600  1.0
  C  C944  1  0.018000  0.134400  0.198600  1.0
  C  C945  1  0.876800  0.056400  0.273300  1.0
  C  C946  1  0.443600  0.376800  0.023300  1.0
  C  C947  1  0.376800  0.443600  0.976700  1.0
  C  C948  1  0.123200  0.943600  0.773300  1.0
  C  C949  1  0.056400  0.876800  0.726700  1.0
  C  C950  1  0.556400  0.623200  0.523300  1.0
  C  C951  1  0.623200  0.556400  0.476700  1.0
  C  C952  1  0.943600  0.123200  0.226700  1.0
  C  C953  1  0.029200  0.595300  0.259100  1.0
  C  C954  1  0.904700  0.529200  0.009100  1.0
  C  C955  1  0.529200  0.904700  0.990900  1.0
  C  C956  1  0.970800  0.404700  0.759100  1.0
  C  C957  1  0.595300  0.029200  0.740900  1.0
  C  C958  1  0.095300  0.470800  0.509100  1.0
  C  C959  1  0.470800  0.095300  0.490900  1.0
  C  C960  1  0.404700  0.970800  0.240900  1.0
  C  C961  1  0.025500  0.674900  0.275900  1.0
  C  C962  1  0.825100  0.525500  0.025900  1.0
  C  C963  1  0.525500  0.825100  0.974100  1.0
  C  C964  1  0.974500  0.325100  0.775900  1.0
  C  C965  1  0.674900  0.025500  0.724100  1.0
  C  C966  1  0.174900  0.474500  0.525900  1.0
  C  C967  1  0.474500  0.174900  0.474100  1.0
  C  C968  1  0.325100  0.974500  0.224100  1.0
  C  C969  1  0.998000  0.646400  0.207400  1.0
  C  C970  1  0.853600  0.498000  0.957400  1.0
  C  C971  1  0.498000  0.853600  0.042600  1.0
  C  C972  1  0.002000  0.353600  0.707400  1.0
  C  C973  1  0.646400  0.998000  0.792600  1.0
  C  C974  1  0.146400  0.502000  0.457400  1.0
  C  C975  1  0.502000  0.146400  0.542600  1.0
  C  C976  1  0.353600  0.002000  0.292600  1.0
  C  C977  1  0.870800  0.529300  0.210800  1.0
  C  C978  1  0.970700  0.370800  0.960800  1.0
  C  C979  1  0.370800  0.970700  0.039200  1.0
  C  C980  1  0.129200  0.470700  0.710800  1.0
  C  C981  1  0.529300  0.870800  0.789200  1.0
  C  C982  1  0.029300  0.629200  0.460800  1.0
  C  C983  1  0.629200  0.029300  0.539200  1.0
  C  C984  1  0.470700  0.129200  0.289200  1.0
  C  C985  1  0.898800  0.478300  0.142000  1.0
  C  C986  1  0.021700  0.398800  0.892000  1.0
  C  C987  1  0.398800  0.021700  0.108000  1.0
  C  C988  1  0.101200  0.521700  0.642000  1.0
  C  C989  1  0.478300  0.898800  0.858000  1.0
  C  C990  1  0.978300  0.601200  0.392000  1.0
  C  C991  1  0.601200  0.978300  0.608000  1.0
  C  C992  1  0.521700  0.101200  0.358000  1.0
  C  C993  1  0.398200  0.914300  0.375900  1.0
  C  C994  1  0.585700  0.898200  0.125900  1.0
  C  C995  1  0.898200  0.585700  0.874100  1.0
  C  C996  1  0.601800  0.085700  0.875900  1.0
  C  C997  1  0.914300  0.398200  0.624100  1.0
  C  C998  1  0.414300  0.101800  0.625900  1.0
  C  C999  1  0.101800  0.414300  0.374100  1.0
  C  C1000  1  0.085700  0.601800  0.124100  1.0
  C  C1001  1  0.429200  0.840400  0.326300  1.0
  C  C1002  1  0.659600  0.929200  0.076300  1.0
  C  C1003  1  0.929200  0.659600  0.923700  1.0
  C  C1004  1  0.570800  0.159600  0.826300  1.0
  C  C1005  1  0.840400  0.429200  0.673700  1.0
  C  C1006  1  0.340400  0.070800  0.576300  1.0
  C  C1007  1  0.070800  0.340400  0.423700  1.0
  C  C1008  1  0.159600  0.570800  0.173700  1.0
  C  C1009  1  0.965800  0.447000  0.087900  1.0
  C  C1010  1  0.053000  0.465800  0.837900  1.0
  C  C1011  1  0.465800  0.053000  0.162100  1.0
  C  C1012  1  0.034200  0.553000  0.587900  1.0
  C  C1013  1  0.447000  0.965800  0.912100  1.0
  C  C1014  1  0.947000  0.534200  0.337900  1.0
  C  C1015  1  0.534200  0.947000  0.662100  1.0
  C  C1016  1  0.553000  0.034200  0.412100  1.0
  C  C1017  1  0.046200  0.452200  0.068500  1.0
  C  C1018  1  0.047800  0.546200  0.818500  1.0
  C  C1019  1  0.546200  0.047800  0.181500  1.0
  C  C1020  1  0.953800  0.547800  0.568500  1.0
  C  C1021  1  0.452200  0.046200  0.931500  1.0
  C  C1022  1  0.952200  0.453800  0.318500  1.0
  C  C1023  1  0.453800  0.952200  0.681500  1.0
  C  C1024  1  0.547800  0.953800  0.431500  1.0
  C  C1025  1  0.114500  0.554500  0.180600  1.0
  C  C1026  1  0.945500  0.614500  0.930600  1.0
  C  C1027  1  0.614500  0.945500  0.069400  1.0
  C  C1028  1  0.885500  0.445500  0.680600  1.0
  C  C1029  1  0.554500  0.114500  0.819400  1.0
  C  C1030  1  0.054500  0.385500  0.430600  1.0
  C  C1031  1  0.385500  0.054500  0.569400  1.0
  C  C1032  1  0.445500  0.885500  0.319400  1.0
  C  C1033  1  0.971300  0.482200  0.119000  1.0
  C  C1034  1  0.017800  0.471300  0.869000  1.0
  C  C1035  1  0.471300  0.017800  0.131000  1.0
  C  C1036  1  0.028700  0.517800  0.619000  1.0
  C  C1037  1  0.482200  0.971300  0.881000  1.0
  C  C1038  1  0.982200  0.528700  0.369000  1.0
  C  C1039  1  0.528700  0.982200  0.631000  1.0
  C  C1040  1  0.517800  0.028700  0.381000  1.0
  C  C1041  1  0.003200  0.432000  0.062600  1.0
  C  C1042  1  0.068000  0.503200  0.812600  1.0
  C  C1043  1  0.503200  0.068000  0.187400  1.0
  C  C1044  1  0.996800  0.568000  0.562600  1.0
  C  C1045  1  0.432000  0.003200  0.937400  1.0
  C  C1046  1  0.932000  0.496800  0.312600  1.0
  C  C1047  1  0.496800  0.932000  0.687400  1.0
  C  C1048  1  0.568000  0.996800  0.437400  1.0
  C  C1049  1  0.051800  0.487500  0.099700  1.0
  C  C1050  1  0.012500  0.551800  0.849700  1.0
  C  C1051  1  0.551800  0.012500  0.150300  1.0
  C  C1052  1  0.948200  0.512500  0.599700  1.0
  C  C1053  1  0.487500  0.051800  0.900300  1.0
  C  C1054  1  0.987500  0.448200  0.349700  1.0
  C  C1055  1  0.448200  0.987500  0.650300  1.0
  C  C1056  1  0.512500  0.948200  0.400300  1.0
  N  N1057  1  0.161000  0.588200  0.542700  1
  N  N1058  1  0.911800  0.661000  0.292700  1
  N  N1059  1  0.661000  0.911800  0.707300  1
  N  N1060  1  0.839000  0.411800  0.042700  1
  N  N1061  1  0.588200  0.161000  0.457300  1
  N  N1062  1  0.088200  0.339000  0.792700  1
  N  N1063  1  0.339000  0.088200  0.207300  1
  N  N1064  1  0.411800  0.839000  0.957300  1
  N  N1065  1  0.947700  0.620100  0.099800  1
  N  N1066  1  0.879900  0.447700  0.849800  1
  N  N1067  1  0.447700  0.879900  0.150200  1
  N  N1068  1  0.052300  0.379900  0.599800  1
  N  N1069  1  0.620100  0.947700  0.900200  1
  N  N1070  1  0.120100  0.552300  0.349800  1
  N  N1071  1  0.552300  0.120100  0.650200  1
  N  N1072  1  0.379900  0.052300  0.400200  1
  N  N1073  1  0.919300  0.976200  0.171600  1
  N  N1074  1  0.523800  0.419300  0.921600  1
  N  N1075  1  0.419300  0.523800  0.078400  1
  N  N1076  1  0.080700  0.023800  0.671600  1
  N  N1077  1  0.976200  0.919300  0.828400  1
  N  N1078  1  0.476200  0.580700  0.421600  1
  N  N1079  1  0.580700  0.476200  0.578400  1
  N  N1080  1  0.023800  0.080700  0.328400  1
  N  N1081  1  0.073300  0.928900  0.044000  1
  N  N1082  1  0.571100  0.573300  0.794000  1
  N  N1083  1  0.573300  0.571100  0.206000  1
  N  N1084  1  0.926700  0.071100  0.544000  1
  N  N1085  1  0.928900  0.073300  0.956000  1
  N  N1086  1  0.428900  0.426700  0.294000  1
  N  N1087  1  0.426700  0.428900  0.706000  1
  N  N1088  1  0.071100  0.926700  0.456000  1
  N  N1089  1  0.441000  0.594200  0.289100  1.0
  N  N1090  1  0.905800  0.941000  0.039100  1.0
  N  N1091  1  0.941000  0.905800  0.960900  1.0
  N  N1092  1  0.559000  0.405800  0.789100  1.0
  N  N1093  1  0.594200  0.441000  0.710900  1.0
  N  N1094  1  0.094200  0.059000  0.539100  1.0
  N  N1095  1  0.059000  0.094200  0.460900  1.0
  N  N1096  1  0.405800  0.559000  0.210900  1.0
  N  N1097  1  0.354100  0.700200  0.389400  1.0
  N  N1098  1  0.799800  0.854100  0.139400  1.0
  N  N1099  1  0.854100  0.799800  0.860600  1.0
  N  N1100  1  0.645900  0.299800  0.889400  1.0
  N  N1101  1  0.700200  0.354100  0.610600  1.0
  N  N1102  1  0.200200  0.145900  0.639400  1.0
  N  N1103  1  0.145900  0.200200  0.360600  1.0
  N  N1104  1  0.299800  0.645900  0.110600  1.0
  N  N1105  1  0.231700  0.718700  0.506700  1.0
  N  N1106  1  0.781300  0.731700  0.256700  1.0
  N  N1107  1  0.731700  0.781300  0.743300  1.0
  N  N1108  1  0.768300  0.281300  0.006700  1.0
  N  N1109  1  0.718700  0.231700  0.493300  1.0
  N  N1110  1  0.218700  0.268300  0.756700  1.0
  N  N1111  1  0.268300  0.218700  0.243300  1.0
  N  N1112  1  0.281300  0.768300  0.993300  1.0
  N  N1113  1  0.137800  0.719900  0.492400  1.0
  N  N1114  1  0.780100  0.637800  0.242400  1.0
  N  N1115  1  0.637800  0.780100  0.757600  1.0
  N  N1116  1  0.862200  0.280100  0.992400  1.0
  N  N1117  1  0.719900  0.137800  0.507600  1.0
  N  N1118  1  0.219900  0.362200  0.742400  1.0
  N  N1119  1  0.362200  0.219900  0.257600  1.0
  N  N1120  1  0.280100  0.862200  0.007600  1.0
  N  N1121  1  0.056000  0.708500  0.347700  1.0
  N  N1122  1  0.791500  0.556000  0.097700  1.0
  N  N1123  1  0.556000  0.791500  0.902300  1.0
  N  N1124  1  0.944000  0.291500  0.847700  1.0
  N  N1125  1  0.708500  0.056000  0.652300  1.0
  N  N1126  1  0.208500  0.444000  0.597700  1.0
  N  N1127  1  0.444000  0.208500  0.402300  1.0
  N  N1128  1  0.291500  0.944000  0.152300  1.0
  N  N1129  1  0.011400  0.929900  0.272500  1.0
  N  N1130  1  0.570100  0.511400  0.022500  1.0
  N  N1131  1  0.511400  0.570100  0.977500  1.0
  N  N1132  1  0.988600  0.070100  0.772500  1.0
  N  N1133  1  0.929900  0.011400  0.727500  1.0
  N  N1134  1  0.429900  0.488600  0.522500  1.0
  N  N1135  1  0.488600  0.429900  0.477500  1.0
  N  N1136  1  0.070100  0.988600  0.227500  1.0
  N  N1137  1  0.010900  0.602200  0.218400  1.0
  N  N1138  1  0.897800  0.510900  0.968400  1.0
  N  N1139  1  0.510900  0.897800  0.031600  1.0
  N  N1140  1  0.989100  0.397800  0.718400  1.0
  N  N1141  1  0.602200  0.010900  0.781600  1.0
  N  N1142  1  0.102200  0.489100  0.468400  1.0
  N  N1143  1  0.489100  0.102200  0.531600  1.0
  N  N1144  1  0.397800  0.989100  0.281600  1.0
  N  N1145  1  0.078700  0.572200  0.158400  1.0
  N  N1146  1  0.927800  0.578700  0.908400  1.0
  N  N1147  1  0.578700  0.927800  0.091600  1.0
  N  N1148  1  0.921300  0.427800  0.658400  1.0
  N  N1149  1  0.572200  0.078700  0.841600  1.0
  N  N1150  1  0.072200  0.421300  0.408400  1.0
  N  N1151  1  0.421300  0.072200  0.591600  1.0
  N  N1152  1  0.427800  0.921300  0.341600  1.0
  N  N1153  1  0.512600  0.520200  0.287100  1.0
  N  N1154  1  0.979800  0.012600  0.037100  1.0
  N  N1155  1  0.012600  0.979800  0.962900  1.0
  N  N1156  1  0.487400  0.479800  0.787100  1.0
  N  N1157  1  0.520200  0.512600  0.712900  1.0
  N  N1158  1  0.020200  0.987400  0.537100  1.0
  N  N1159  1  0.987400  0.020200  0.462900  1.0
  N  N1160  1  0.479800  0.487400  0.212900  1.0
  N  N1161  1  0.402600  0.751100  0.349100  1.0
  N  N1162  1  0.748900  0.902600  0.099100  1.0
  N  N1163  1  0.902600  0.748900  0.900900  1.0
  N  N1164  1  0.597400  0.248900  0.849100  1.0
  N  N1165  1  0.751100  0.402600  0.650900  1.0
  N  N1166  1  0.251100  0.097400  0.599100  1.0
  N  N1167  1  0.097400  0.251100  0.400900  1.0
  N  N1168  1  0.248900  0.597400  0.150900  1.0
  N  N1169  1  0.347600  0.781800  0.400900  1.0
  N  N1170  1  0.718200  0.847600  0.150900  1.0
  N  N1171  1  0.847600  0.718200  0.849100  1.0
  N  N1172  1  0.652400  0.218200  0.900900  1.0
  N  N1173  1  0.781800  0.347600  0.599100  1.0
  N  N1174  1  0.281800  0.152400  0.650900  1.0
  N  N1175  1  0.152400  0.281800  0.349100  1.0
  N  N1176  1  0.218200  0.652400  0.099100  1.0
  N  N1177  1  0.212100  0.687500  0.601900  1.0
  N  N1178  1  0.812500  0.712100  0.351900  1.0
  N  N1179  1  0.712100  0.812500  0.648100  1.0
  N  N1180  1  0.787900  0.312500  0.101900  1.0
  N  N1181  1  0.687500  0.212100  0.398100  1.0
  N  N1182  1  0.187500  0.287900  0.851900  1.0
  N  N1183  1  0.287900  0.187500  0.148100  1.0
  N  N1184  1  0.312500  0.787900  0.898100  1.0
  N  N1185  1  0.055100  0.787500  0.360200  1.0
  N  N1186  1  0.712500  0.555100  0.110200  1.0
  N  N1187  1  0.555100  0.712500  0.889800  1.0
  N  N1188  1  0.944900  0.212500  0.860200  1.0
  N  N1189  1  0.787500  0.055100  0.639800  1.0
  N  N1190  1  0.287500  0.444900  0.610200  1.0
  N  N1191  1  0.444900  0.287500  0.389800  1.0
  N  N1192  1  0.212500  0.944900  0.139800  1.0
  N  N1193  1  0.026500  0.758200  0.291000  1.0
  N  N1194  1  0.741800  0.526500  0.041000  1.0
  N  N1195  1  0.526500  0.741800  0.959000  1.0
  N  N1196  1  0.973500  0.241800  0.791000  1.0
  N  N1197  1  0.758200  0.026500  0.709000  1.0
  N  N1198  1  0.258200  0.473500  0.541000  1.0
  N  N1199  1  0.473500  0.258200  0.459000  1.0
  N  N1200  1  0.241800  0.973500  0.209000  1.0
  N  N1201  1  0.940800  0.003900  0.268900  1.0
  N  N1202  1  0.496100  0.440800  0.018900  1.0
  N  N1203  1  0.440800  0.496100  0.981100  1.0
  N  N1204  1  0.059200  0.996100  0.768900  1.0
  N  N1205  1  0.003900  0.940800  0.731100  1.0
  N  N1206  1  0.503900  0.559200  0.518900  1.0
  N  N1207  1  0.559200  0.503900  0.481100  1.0
  N  N1208  1  0.996100  0.059200  0.231100  1.0
  N  N1209  1  0.947800  0.530200  0.178900  1.0
  N  N1210  1  0.969800  0.447800  0.928900  1.0
  N  N1211  1  0.447800  0.969800  0.071100  1.0
  N  N1212  1  0.052200  0.469800  0.678900  1.0
  N  N1213  1  0.530200  0.947800  0.821100  1.0
  N  N1214  1  0.030200  0.552200  0.428900  1.0
  N  N1215  1  0.552200  0.030200  0.571100  1.0
  N  N1216  1  0.469800  0.052200  0.321100  1.0
  N  N1217  1  0.124400  0.690100  0.586900  1.0
  N  N1218  1  0.809900  0.624400  0.336900  1.0
  N  N1219  1  0.624400  0.809900  0.663100  1.0
  N  N1220  1  0.875600  0.309900  0.086900  1.0
  N  N1221  1  0.690100  0.124400  0.413100  1.0
  N  N1222  1  0.190100  0.375600  0.836900  1.0
  N  N1223  1  0.375600  0.190100  0.163100  1.0
  N  N1224  1  0.309900  0.875600  0.913100  1.0
  N  N1225  1  0.014300  0.502500  0.124900  1.0
  N  N1226  1  0.997500  0.514300  0.874900  1.0
  N  N1227  1  0.514300  0.997500  0.125100  1.0
  N  N1228  1  0.985700  0.497500  0.624900  1.0
  N  N1229  1  0.502500  0.014300  0.875100  1.0
  N  N1230  1  0.002500  0.485700  0.374900  1.0
  N  N1231  1  0.485700  0.002500  0.625100  1.0
  N  N1232  1  0.497500  0.985700  0.375100  1.0
  O  O1233  1  0.029800  0.642100  0.019300  1
  O  O1234  1  0.857900  0.529800  0.769300  1
  O  O1235  1  0.529800  0.857900  0.230700  1
  O  O1236  1  0.970200  0.357900  0.519300  1
  O  O1237  1  0.642100  0.029800  0.980700  1
  O  O1238  1  0.142100  0.470200  0.269300  1
  O  O1239  1  0.470200  0.142100  0.730700  1
  O  O1240  1  0.357900  0.970200  0.480700  1
  O  O1241  1  0.200300  0.601500  0.415800  1
  O  O1242  1  0.898500  0.700300  0.165800  1
  O  O1243  1  0.700300  0.898500  0.834200  1
  O  O1244  1  0.799700  0.398500  0.915800  1
  O  O1245  1  0.601500  0.200300  0.584200  1
  O  O1246  1  0.101500  0.299700  0.665800  1
  O  O1247  1  0.299700  0.101500  0.334200  1
  O  O1248  1  0.398500  0.799700  0.084200  1
  O  O1249  1  0.530500  0.358700  0.310800  1
  O  O1250  1  0.141300  0.030500  0.060800  1
  O  O1251  1  0.030500  0.141300  0.939200  1
  O  O1252  1  0.469500  0.641300  0.810800  1
  O  O1253  1  0.358700  0.530500  0.689200  1
  O  O1254  1  0.858700  0.969500  0.560800  1
  O  O1255  1  0.969500  0.858700  0.439200  1
  O  O1256  1  0.641300  0.469500  0.189200  1
  O  O1257  1  0.993500  0.724700  0.512300  1
  O  O1258  1  0.775300  0.493500  0.262300  1
  O  O1259  1  0.493500  0.775300  0.737700  1
  O  O1260  1  0.006500  0.275300  0.012300  1
  O  O1261  1  0.724700  0.993500  0.487700  1
  O  O1262  1  0.224700  0.506500  0.762300  1
  O  O1263  1  0.506500  0.224700  0.237700  1
  O  O1264  1  0.275300  0.006500  0.987700  1
  O  O1265  1  0.261500  0.559900  0.591600  1
  O  O1266  1  0.940100  0.761500  0.341600  1
  O  O1267  1  0.761500  0.940100  0.658400  1
  O  O1268  1  0.738500  0.440100  0.091600  1
  O  O1269  1  0.559900  0.261500  0.408400  1
  O  O1270  1  0.059900  0.238500  0.841600  1
  O  O1271  1  0.238500  0.059900  0.158400  1
  O  O1272  1  0.440100  0.738500  0.908400  1
  O  O1273  1  0.967000  0.759600  0.415100  1
  O  O1274  1  0.740400  0.467000  0.165100  1
  O  O1275  1  0.467000  0.740400  0.834900  1
  O  O1276  1  0.033000  0.240400  0.915100  1
  O  O1277  1  0.759600  0.967000  0.584900  1
  O  O1278  1  0.259600  0.533000  0.665100  1
  O  O1279  1  0.533000  0.259600  0.334900  1
  O  O1280  1  0.240400  0.033000  0.084900  1
  O  O1281  1  0.914900  0.851500  0.211000  1
  O  O1282  1  0.648500  0.414900  0.961000  1
  O  O1283  1  0.414900  0.648500  0.039000  1
  O  O1284  1  0.085100  0.148500  0.711000  1
  O  O1285  1  0.851500  0.914900  0.789000  1
  O  O1286  1  0.351500  0.585100  0.461000  1
  O  O1287  1  0.585100  0.351500  0.539000  1
  O  O1288  1  0.148500  0.085100  0.289000  1
  O  O1289  1  0.013600  0.729700  0.967500  1
  O  O1290  1  0.770300  0.513600  0.717500  1
  O  O1291  1  0.513600  0.770300  0.282500  1
  O  O1292  1  0.986400  0.270300  0.467500  1
  O  O1293  1  0.729700  0.013600  0.032500  1
  O  O1294  1  0.229700  0.486400  0.217500  1
  O  O1295  1  0.486400  0.229700  0.782500  1
  O  O1296  1  0.270300  0.986400  0.532500  1
  O  O1297  1  0.000200  0.789400  0.614500  1
  O  O1298  1  0.710600  0.500200  0.364500  1
  O  O1299  1  0.500200  0.710600  0.635500  1
  O  O1300  1  0.999800  0.210600  0.114500  1
  O  O1301  1  0.789400  0.000200  0.385500  1
  O  O1302  1  0.289400  0.499800  0.864500  1
  O  O1303  1  0.499800  0.289400  0.135500  1
  O  O1304  1  0.210600  0.999800  0.885500  1
  O  O1305  1  0.769200  0.321000  0.295500  1
  O  O1306  1  0.179000  0.269200  0.045500  1
  O  O1307  1  0.269200  0.179000  0.954500  1
  O  O1308  1  0.230800  0.679000  0.795500  1
  O  O1309  1  0.321000  0.769200  0.704500  1
  O  O1310  1  0.821000  0.730800  0.545500  1
  O  O1311  1  0.730800  0.821000  0.454500  1
  O  O1312  1  0.679000  0.230800  0.204500  1
  O  O1313  1  0.962300  0.741700  0.662200  1
  O  O1314  1  0.758300  0.462300  0.412200  1
  O  O1315  1  0.462300  0.758300  0.587800  1
  O  O1316  1  0.037700  0.258300  0.162200  1
  O  O1317  1  0.741700  0.962300  0.337800  1
  O  O1318  1  0.241700  0.537700  0.912200  1
  O  O1319  1  0.537700  0.241700  0.087800  1
  O  O1320  1  0.258300  0.037700  0.837800  1
  O  O1321  1  0.176000  0.787000  0.603000  1
  O  O1322  1  0.713000  0.676000  0.353000  1
  O  O1323  1  0.676000  0.713000  0.647000  1
  O  O1324  1  0.824000  0.213000  0.103000  1
  O  O1325  1  0.787000  0.176000  0.397000  1
  O  O1326  1  0.287000  0.324000  0.853000  1
  O  O1327  1  0.324000  0.287000  0.147000  1
  O  O1328  1  0.213000  0.824000  0.897000  1
  O  O1329  1  0.105100  0.788700  0.640100  1
  O  O1330  1  0.711300  0.605100  0.390100  1
  O  O1331  1  0.605100  0.711300  0.609900  1
  O  O1332  1  0.894900  0.211300  0.140100  1
  O  O1333  1  0.788700  0.105100  0.359900  1
  O  O1334  1  0.288700  0.394900  0.890100  1
  O  O1335  1  0.394900  0.288700  0.109900  1
  O  O1336  1  0.211300  0.894900  0.859900  1
  O  O1337  1  0.055900  0.812700  0.587500  1
  O  O1338  1  0.687300  0.555900  0.337500  1
  O  O1339  1  0.555900  0.687300  0.662500  1
  O  O1340  1  0.944100  0.187300  0.087500  1
  O  O1341  1  0.812700  0.055900  0.412500  1
  O  O1342  1  0.312700  0.444100  0.837500  1
  O  O1343  1  0.444100  0.312700  0.162500  1
  O  O1344  1  0.187300  0.944100  0.912500  1
  O  O1345  1  0.170100  0.577300  0.580800  1
  O  O1346  1  0.922700  0.670100  0.330800  1
  O  O1347  1  0.670100  0.922700  0.669200  1
  O  O1348  1  0.829900  0.422700  0.080800  1
  O  O1349  1  0.577300  0.170100  0.419200  1
  O  O1350  1  0.077300  0.329900  0.830800  1
  O  O1351  1  0.329900  0.077300  0.169200  1
  O  O1352  1  0.422700  0.829900  0.919200  1
  O  O1353  1  0.193000  0.597900  0.514800  1
  O  O1354  1  0.902100  0.693000  0.264800  1
  O  O1355  1  0.693000  0.902100  0.735200  1
  O  O1356  1  0.807000  0.402100  0.014800  1
  O  O1357  1  0.597900  0.193000  0.485200  1
  O  O1358  1  0.097900  0.307000  0.764800  1
  O  O1359  1  0.307000  0.097900  0.235200  1
  O  O1360  1  0.402100  0.807000  0.985200  1
  O  O1361  1  0.122200  0.592400  0.531100  1
  O  O1362  1  0.907600  0.622200  0.281100  1
  O  O1363  1  0.622200  0.907600  0.718900  1
  O  O1364  1  0.877800  0.407600  0.031100  1
  O  O1365  1  0.592400  0.122200  0.468900  1
  O  O1366  1  0.092400  0.377800  0.781100  1
  O  O1367  1  0.377800  0.092400  0.218900  1
  O  O1368  1  0.407600  0.877800  0.968900  1
  O  O1369  1  0.964000  0.586500  0.075800  1
  O  O1370  1  0.913500  0.464000  0.825800  1
  O  O1371  1  0.464000  0.913500  0.174200  1
  O  O1372  1  0.036000  0.413500  0.575800  1
  O  O1373  1  0.586500  0.964000  0.924200  1
  O  O1374  1  0.086500  0.536000  0.325800  1
  O  O1375  1  0.536000  0.086500  0.674200  1
  O  O1376  1  0.413500  0.036000  0.424200  1
  O  O1377  1  0.915100  0.618700  0.123900  1
  O  O1378  1  0.881300  0.415100  0.873900  1
  O  O1379  1  0.415100  0.881300  0.126100  1
  O  O1380  1  0.084900  0.381300  0.623900  1
  O  O1381  1  0.618700  0.915100  0.876100  1
  O  O1382  1  0.118700  0.584900  0.373900  1
  O  O1383  1  0.584900  0.118700  0.626100  1
  O  O1384  1  0.381300  0.084900  0.376100  1
  O  O1385  1  0.977400  0.650700  0.102000  1
  O  O1386  1  0.849300  0.477400  0.852000  1
  O  O1387  1  0.477400  0.849300  0.148000  1
  O  O1388  1  0.022600  0.349300  0.602000  1
  O  O1389  1  0.650700  0.977400  0.898000  1
  O  O1390  1  0.150700  0.522600  0.352000  1
  O  O1391  1  0.522600  0.150700  0.648000  1
  O  O1392  1  0.349300  0.022600  0.398000  1
  O  O1393  1  0.884300  0.946300  0.186900  1
  O  O1394  1  0.553700  0.384300  0.936900  1
  O  O1395  1  0.384300  0.553700  0.063100  1
  O  O1396  1  0.115700  0.053700  0.686900  1
  O  O1397  1  0.946300  0.884300  0.813100  1
  O  O1398  1  0.446300  0.615700  0.436900  1
  O  O1399  1  0.615700  0.446300  0.563100  1
  O  O1400  1  0.053700  0.115700  0.313100  1
  O  O1401  1  0.895300  0.001500  0.159900  1
  O  O1402  1  0.498500  0.395300  0.909900  1
  O  O1403  1  0.395300  0.498500  0.090100  1
  O  O1404  1  0.104700  0.998500  0.659900  1
  O  O1405  1  0.001500  0.895300  0.840100  1
  O  O1406  1  0.501500  0.604700  0.409900  1
  O  O1407  1  0.604700  0.501500  0.590100  1
  O  O1408  1  0.998500  0.104700  0.340100  1
  O  O1409  1  0.964200  0.953200  0.161600  1
  O  O1410  1  0.546800  0.464200  0.911600  1
  O  O1411  1  0.464200  0.546800  0.088400  1
  O  O1412  1  0.035800  0.046800  0.661600  1
  O  O1413  1  0.953200  0.964200  0.838400  1
  O  O1414  1  0.453200  0.535800  0.411600  1
  O  O1415  1  0.535800  0.453200  0.588400  1
  O  O1416  1  0.046800  0.035800  0.338400  1
  O  O1417  1  0.033600  0.893900  0.048900  1
  O  O1418  1  0.606100  0.533600  0.798900  1
  O  O1419  1  0.533600  0.606100  0.201100  1
  O  O1420  1  0.966400  0.106100  0.548900  1
  O  O1421  1  0.893900  0.033600  0.951100  1
  O  O1422  1  0.393900  0.466400  0.298900  1
  O  O1423  1  0.466400  0.393900  0.701100  1
  O  O1424  1  0.106100  0.966400  0.451100  1
  O  O1425  1  0.105000  0.934500  0.021300  1
  O  O1426  1  0.565500  0.605000  0.771300  1
  O  O1427  1  0.605000  0.565500  0.228700  1
  O  O1428  1  0.895000  0.065500  0.521300  1
  O  O1429  1  0.934500  0.105000  0.978700  1
  O  O1430  1  0.434500  0.395000  0.271300  1
  O  O1431  1  0.395000  0.434500  0.728700  1
  O  O1432  1  0.065500  0.895000  0.478700  1
  O  O1433  1  0.060500  0.949700  0.078300  1
  O  O1434  1  0.550300  0.560500  0.828300  1
  O  O1435  1  0.560500  0.550300  0.171700  1
  O  O1436  1  0.939500  0.050300  0.578300  1
  O  O1437  1  0.949700  0.060500  0.921700  1
  O  O1438  1  0.449700  0.439500  0.328300  1
  O  O1439  1  0.439500  0.449700  0.671700  1
  O  O1440  1  0.050300  0.939500  0.421700  1
  O  O1441  1  0.118500  0.679600  0.013800  1
  O  O1442  1  0.820400  0.618500  0.763800  1
  O  O1443  1  0.618500  0.820400  0.236200  1
  O  O1444  1  0.881500  0.320400  0.513800  1
  O  O1445  1  0.679600  0.118500  0.986200  1
  O  O1446  1  0.179600  0.381500  0.263800  1
  O  O1447  1  0.381500  0.179600  0.736200  1
  O  O1448  1  0.320400  0.881500  0.486200  1
  O  O1449  1  0.334400  0.616600  0.543500  1
  O  O1450  1  0.883400  0.834400  0.293500  1
  O  O1451  1  0.834400  0.883400  0.706500  1
  O  O1452  1  0.665600  0.383400  0.043500  1
  O  O1453  1  0.616600  0.334400  0.456500  1
  O  O1454  1  0.116600  0.165600  0.793500  1
  O  O1455  1  0.165600  0.116600  0.206500  1
  O  O1456  1  0.383400  0.665600  0.956500  1
  O  O1457  1  0.597400  0.387400  0.379200  1
  O  O1458  1  0.112600  0.097400  0.129200  1
  O  O1459  1  0.097400  0.112600  0.870800  1
  O  O1460  1  0.402600  0.612600  0.879200  1
  O  O1461  1  0.387400  0.597400  0.620800  1
  O  O1462  1  0.887400  0.902600  0.629200  1
  O  O1463  1  0.902600  0.887400  0.370800  1
  O  O1464  1  0.612600  0.402600  0.120800  1
  O  O1465  1  0.288800  0.555100  0.440800  1
  O  O1466  1  0.944900  0.788800  0.190800  1
  O  O1467  1  0.788800  0.944900  0.809200  1
  O  O1468  1  0.711200  0.444900  0.940800  1
  O  O1469  1  0.555100  0.288800  0.559200  1
  O  O1470  1  0.055100  0.211200  0.690800  1
  O  O1471  1  0.211200  0.055100  0.309200  1
  O  O1472  1  0.444900  0.711200  0.059200  1
  O  O1473  1  0.247400  0.752600  0.750000  1
  O  O1474  1  0.747400  0.747400  0.500000  1
  O  O1475  1  0.752600  0.247400  0.250000  1
  O  O1476  1  0.252600  0.252600  0.000000  1
  O  O1477  1  0.922300  0.653700  0.639700  1
  O  O1478  1  0.846300  0.422300  0.389700  1
  O  O1479  1  0.422300  0.846300  0.610300  1
  O  O1480  1  0.077700  0.346300  0.139700  1
  O  O1481  1  0.653700  0.922300  0.360300  1
  O  O1482  1  0.153700  0.577700  0.889700  1
  O  O1483  1  0.577700  0.153700  0.110300  1
  O  O1484  1  0.346300  0.077700  0.860300  1
  O  O1485  1  0.355900  0.695200  0.559800  1
  O  O1486  1  0.804800  0.855900  0.309800  1
  O  O1487  1  0.855900  0.804800  0.690200  1
  O  O1488  1  0.644100  0.304800  0.059800  1
  O  O1489  1  0.695200  0.355900  0.440200  1
  O  O1490  1  0.195200  0.144100  0.809800  1
  O  O1491  1  0.144100  0.195200  0.190200  1
  O  O1492  1  0.304800  0.644100  0.940200  1
