
#######################################################################
#
#                 Cambridge Crystallographic Data Centre
#                                CCDC 
#
#######################################################################
#
# If this CIF has been generated from an entry in the Cambridge 
# Structural Database, then it will include bibliographic, chemical, 
# crystal, experimental, refinement or atomic coordinate data resulting 
# from the CCDC's data processing and validation procedures.
#
#######################################################################

data_LUWKET
_chemical_formula_moiety         
'C132 H96 N36 Pd6 12+,12(N1 O3 1-),C18 H30,10(H2 O1)'
_chemical_name_systematic        
"tetrakis(\m~3~-2,4,6-tris(Pyrid-4-yl)-1,3,5-triazine-N,N',N'')-hexakis(2,2-bipyridyl-N,N')-hexa-palladium (1,3,5-tri-t-butylbenzene) clathrate dodecanitrate decahydrate"
_symmetry_cell_setting           trigonal
_symmetry_space_group_name_H-M   'P -3 c 1'
_symmetry_Int_Tables_number      165
_space_group_name_Hall           '-P 3 2"c'
loop_
_symmetry_equiv_pos_site_id
_symmetry_equiv_pos_as_xyz
1 x,y,z
2 -y,x-y,z
3 y,x,1/2-z
4 -x+y,-x,z
5 -x,-x+y,1/2-z
6 x-y,-y,1/2-z
7 -x,-y,-z
8 y,-x+y,-z
9 -y,-x,1/2+z
10 x-y,x,-z
11 x,x-y,1/2+z
12 -x+y,y,1/2+z
_cell_length_a                   28.080(19)
_cell_length_b                   28.080(19)
_cell_length_c                   34.09(3)
_cell_angle_alpha                90
_cell_angle_beta                 90
_cell_angle_gamma                120
_cell_volume                     23278.3
_cell_formula_units_Z            4
loop_
_atom_site_label
_atom_site_type_symbol
_atom_site_fract_x
_atom_site_fract_y
_atom_site_fract_z
Pd1 Pd 0.0297(1) 0.4872(1) 0.5831(1)
N1 N 0.0769(2) 0.5595(2) 0.6108(1)
N2 N 0.0772(2) 0.4620(2) 0.6110(1)
N3 N 0.1547(2) 0.7728(2) 0.8428(1)
N4 N 0.2371(2) 0.8051(2) 0.7083(1)
N5 N 0.1890(2) 0.7481(2) 0.9116(1)
N6 N -0.0159(2) 0.5128(2) 0.5544(1)
N7 N 0.1064(2) 0.7697(2) 0.9542(2)
C1 C 0.0611(3) 0.5685(3) 0.6464(2)
C2 C 0.1403(2) 0.6582(2) 0.6493(2)
C3 C 0.1239(2) 0.5990(2) 0.5951(2)
C4 C 0.0696(2) 0.4464(3) 0.6483(2)
C5 C 0.1576(2) 0.4513(3) 0.6503(2)
C6 C 0.1235(2) 0.4713(3) 0.5926(2)
C7 C 0.1997(3) 0.8139(3) 0.8269(2)
C8 C 0.1811(3) 0.7670(3) 0.7658(2)
C9 C 0.1216(3) 0.7280(3) 0.8211(2)
C10 C 0.2426(2) 0.7824(3) 0.9187(2)
C11 C 0.2610(2) 0.7078(2) 0.9212(2)
C12 C 0.1714(2) 0.6940(2) 0.9093(2)
C13 C -0.0085(2) 0.5639(2) 0.5549(2)
C14 C -0.0874(2) 0.5362(3) 0.5159(2)
C15 C -0.0589(2) 0.4723(2) 0.5337(2)
C16 C -0.1006(2) 0.3727(2) 0.5142(2)
C17 C -0.0563(3) 0.3237(3) 0.5367(2)
C18 C 0.1291(2) 0.7640(3) 0.9866(2)
C19 C 0.0573(3) 0.7611(3) 1.0254(2)
C20 C 0.0586(2) 0.7720(3) 0.9564(2)
C21 C -0.0101(3) 0.7808(3) 0.9137(3)
C22 C 0.0089(4) 0.7989(3) 0.8468(3)
Pd2 Pd 0.1336(1) 0.7726(1) 0.8992(1)
N10 N 0.2162(2) 0.7512(2) 0.6507(1)
N11 N 0.1611(2) 0.7147(2) 0.7071(1)
N12 N 0.2776(2) 0.6311(2) 0.9242(1)
N13 N -0.0204(2) 0.4172(2) 0.5548(1)
N14 N 0.0713(2) 0.7873(2) 0.8876(2)
C30 C 0.0919(3) 0.6167(3) 0.6662(2)
C31 C 0.1562(7) 0.6484(3) 0.6130(2)
C32 C 0.1740(2) 0.7110(3) 0.6701(2)
C33 C 0.1092(3) 0.4412(3) 0.6695(2)
C34 C 0.1637(3) 0.4655(3) 0.6109(2)
C35 C 0.2458(2) 0.7972(3) 0.6710(2)
C36 C 0.2140(3) 0.8120(3) 0.7888(2)
C37 C 0.1339(3) 0.7234(3) 0.7829(2)
C38 C 0.1940(2) 0.7624(3) 0.7248(2)
C39 C 0.2798(3) 0.7640(3) 0.9230(2)
C40 C 0.2058(2) 0.6721(2) 0.9143(2)
C41 C 0.2989(2) 0.6856(2) 0.9239(2)
C42 C -0.0435(2) 0.5768(3) 0.5357(2)
C43 C -0.0959(2) 0.4830(3) 0.5146(2)
C44 C -0.0617(2) 0.4184(2) 0.5337(2)
C45 C -0.0981(3) 0.3249(3) 0.5153(2)
C46 C -0.0187(2) 0.3702(2) 0.5559(2)
C47 C 0.1047(3) 0.7596(3) 1.0227(2)
C48 C 0.0338(3) 0.7674(3) 0.9918(2)
C49 C 0.0384(3) 0.7800(3) 0.9185(2)
C50 C -0.0240(4) 0.7910(4) 0.8784(3)
C51 C 0.0577(3) 0.7979(3) 0.8532(2)
H1 H 0.0286 0.5412 0.6576
H2 H 0.1885 0.6751 0.6114
H3 H 0.0370 0.4387 0.6607
H4 H 0.1947 0.4710 0.5971
H5 H 0.2222 0.8447 0.8421
H6 H 0.1113 0.6919 0.7685
H7 H 0.2553 0.8199 0.9209
H8 H 0.1920 0.6344 0.9130
H9 H 0.0211 0.5913 0.5686
H10 H -0.1119 0.5443 0.5032
H11 H -0.1284 0.3739 0.5004
H12 H -0.0541 0.2918 0.5380
H13 H 0.1617 0.7630 0.9851
H14 H 0.0408 0.7579 1.0496
H15 H -0.0332 0.7741 0.9351
H16 H -0.0006 0.8048 0.8218
H17 H 0.0807 0.6219 0.6908
H18 H 0.1350 0.5925 0.5709
H19 H 0.1036 0.4313 0.6958
H20 H 0.1284 0.4820 0.5664
H21 H 0.2459 0.8411 0.7783
H22 H 0.0899 0.6997 0.8324
H23 H 0.3169 0.7888 0.9271
H24 H 0.1343 0.6700 0.9042
H25 H -0.0374 0.6126 0.5360
H26 H -0.1258 0.4553 0.5013
H27 H -0.1240 0.2938 0.5019
H28 H 0.0091 0.3693 0.5702
H29 H 0.1209 0.7555 1.0453
H30 H 0.0014 0.7686 0.9932
H31 H -0.0561 0.7926 0.8755
H32 H 0.0813 0.8049 0.8321
N12C N 0.3535(3) 0.7224(2) 0.9242(1)
C41C C 0.3867(3) 0.7011(2) 0.9239(2)
C11C C 0.4468(3) 0.7390(2) 0.9212(2)
C39C C 0.4842(4) 0.7202(3) 0.9230(2)
C10C C 0.5398(4) 0.7574(2) 0.9187(2)
N5C N 0.5591(3) 0.8110(2) 0.9116(1)
C12C C 0.5226(3) 0.8286(2) 0.9093(2)
C40C C 0.4663(3) 0.7942(2) 0.9143(2)
H8C H 0.4424 0.8080 0.9130
H24C H 0.5357 0.8657 0.9042
Pd2C Pd 0.6390(1) 0.8664(1) 0.8992(1)
N3C N 0.6181(3) 0.8453(2) 0.8428(1)
C7C C 0.6142(4) 0.8003(3) 0.8269(2)
C36C C 0.5980(4) 0.7860(3) 0.7888(2)
C8C C 0.5859(4) 0.8189(3) 0.7658(2)
C37C C 0.5895(4) 0.8661(3) 0.7829(2)
C9C C 0.6064(4) 0.8784(3) 0.8211(2)
H22C H 0.6098 0.9101 0.8324
H6C H 0.5806 0.8887 0.7685
C38C C 0.5684(4) 0.8060(2) 0.7248(2)
N4C N 0.5680(3) 0.7629(2) 0.7083(1)
C35C C 0.5514(4) 0.7542(2) 0.6710(2)
C5A C 0.5487(3) 0.7063(4) 0.6503(2)
C33A C 0.5588(3) 0.6680(4) 0.6695(2)
C4A C 0.5536(3) 0.6232(4) 0.6483(2)
N2A N 0.5380(2) 0.6152(3) 0.6110(1)
Pd1A Pd 0.5128(1) 0.5425(1) 0.5831(1)
N1A N 0.4405(2) 0.5174(3) 0.6108(1)
C1A C 0.4315(3) 0.4926(4) 0.6464(2)
C30A C 0.3833(3) 0.4752(4) 0.6662(2)
C2A C 0.3418(2) 0.4821(3) 0.6493(2)
C31A C 0.3516(3) 0.5078(8) 0.6130(2)
C3A C 0.4010(2) 0.5249(3) 0.5951(2)
H18A H 0.4075 0.5425 0.5709
H2A H 0.3249 0.5134 0.6114
C32A C 0.2890(3) 0.4630(4) 0.6701(2)
N10A N 0.2488(2) 0.4650(3) 0.6507(1)
C35A C 0.2028(3) 0.4486(4) 0.6710(2)
N4A N 0.1949(2) 0.4320(3) 0.7083(1)
C38A C 0.2376(3) 0.4316(4) 0.7248(2)
C8A C 0.2330(3) 0.4141(4) 0.7658(2)
C36A C 0.1880(3) 0.4020(4) 0.7888(2)
C7A C 0.1861(3) 0.3858(4) 0.8269(2)
N3A N 0.2272(2) 0.3819(3) 0.8428(1)
C9A C 0.2720(3) 0.3936(4) 0.8211(2)
C37A C 0.2766(3) 0.4105(4) 0.7829(2)
H6A H 0.3081 0.4194 0.7685
H22A H 0.3003 0.3902 0.8324
Pd2A Pd 0.2274(1) 0.3610(1) 0.8992(1)
N5A N 0.2519(2) 0.4409(3) 0.9116(1)
C10A C 0.2176(3) 0.4602(4) 0.9187(2)
C39A C 0.2360(3) 0.5158(4) 0.9230(2)
C11A C 0.2922(2) 0.5532(3) 0.9212(2)
C40A C 0.3279(2) 0.5337(3) 0.9143(2)
C12A C 0.3060(2) 0.4774(3) 0.9093(2)
H24A H 0.3300 0.4643 0.9042
H8A H 0.3656 0.5576 0.9130
C41A C 0.3144(2) 0.6133(3) 0.9239(2)
N12A N 0.3689(2) 0.6465(3) 0.9242(1)
H23A H 0.2112 0.5281 0.9271
H7A H 0.1801 0.4354 0.9209
N7A N 0.2303(2) 0.3367(3) 0.9542(2)
C18A C 0.2360(3) 0.3651(4) 0.9866(2)
C47A C 0.2404(3) 0.3451(4) 1.0227(2)
C19A C 0.2389(3) 0.2962(4) 1.0254(2)
C48A C 0.2326(3) 0.2664(4) 0.9918(2)
C20A C 0.2280(3) 0.2866(4) 0.9564(2)
C49A C 0.2200(3) 0.2584(4) 0.9185(2)
C21A C 0.2192(3) 0.2091(4) 0.9137(3)
C50A C 0.2090(4) 0.1850(6) 0.8784(3)
C22A C 0.2011(3) 0.2100(5) 0.8468(3)
C51A C 0.2021(3) 0.2598(4) 0.8532(2)
N14A N 0.2127(2) 0.2840(3) 0.8876(2)
H32A H 0.1951 0.2764 0.8321
H16A H 0.1952 0.1946 0.8218
H31A H 0.2074 0.1513 0.8755
H15A H 0.2259 0.1927 0.9351
H30A H 0.2314 0.2328 0.9932
H14A H 0.2421 0.2829 1.0496
H29A H 0.2445 0.3654 1.0453
H13A H 0.2370 0.3987 0.9851
H5A H 0.1553 0.3775 0.8421
H21A H 0.1589 0.4048 0.7783
N11A N 0.2853(2) 0.4464(3) 0.7071(1)
H17A H 0.3781 0.4588 0.6908
H1A H 0.4588 0.4874 0.6576
N6A N 0.4872(2) 0.4713(3) 0.5544(1)
C13A C 0.4361(2) 0.4276(3) 0.5549(2)
C42A C 0.4232(3) 0.3797(4) 0.5357(2)
C14A C 0.4638(3) 0.3764(4) 0.5159(2)
C43A C 0.5170(3) 0.4211(4) 0.5146(2)
C15A C 0.5277(2) 0.4688(3) 0.5337(2)
C44A C 0.5816(2) 0.5199(3) 0.5337(2)
C16A C 0.6273(2) 0.5267(3) 0.5142(2)
C45A C 0.6751(3) 0.5770(4) 0.5153(2)
C17A C 0.6763(3) 0.6200(4) 0.5367(2)
C46A C 0.6298(2) 0.6111(3) 0.5559(2)
N13A N 0.5828(2) 0.5624(3) 0.5548(1)
H28A H 0.6307 0.6398 0.5702
H12A H 0.7082 0.6541 0.5380
H27A H 0.7062 0.5822 0.5019
H11A H 0.6261 0.4977 0.5004
H26A H 0.5447 0.4189 0.5013
H10A H 0.4557 0.3438 0.5032
H25A H 0.3874 0.3500 0.5360
H9A H 0.4087 0.4298 0.5686
C6A C 0.5287(3) 0.6522(4) 0.5926(2)
C34A C 0.5345(3) 0.6982(4) 0.6109(2)
H4A H 0.5290 0.7237 0.5971
H20A H 0.5180 0.6464 0.5664
H3A H 0.5613 0.5983 0.6607
H19A H 0.5687 0.6723 0.6958
N10C N 0.5350(3) 0.7838(2) 0.6507(1)
C32C C 0.5370(4) 0.8260(2) 0.6701(2)
C2C C 0.5179(3) 0.8597(2) 0.6493(2)
C30C C 0.5248(4) 0.9081(3) 0.6662(2)
C1C C 0.5074(4) 0.9389(3) 0.6464(2)
N1C N 0.4826(3) 0.9231(2) 0.6108(1)
Pd1C Pd 0.4575(1) 0.9703(1) 0.5831(1)
N2C N 0.3848(3) 0.9228(2) 0.6110(1)
C4C C 0.3768(4) 0.9304(2) 0.6483(2)
C33C C 0.3320(4) 0.8908(3) 0.6695(2)
C5C C 0.2937(4) 0.8424(2) 0.6503(2)
C34C C 0.3018(4) 0.8363(3) 0.6109(2)
C6C C 0.3478(4) 0.8765(2) 0.5926(2)
H20C H 0.3536 0.8716 0.5664
H4C H 0.2763 0.8053 0.5971
H19C H 0.3277 0.8964 0.6958
H3C H 0.4017 0.9630 0.6607
N6C N 0.5287(3) 1.0159(2) 0.5544(1)
C13C C 0.5724(3) 1.0085(2) 0.5549(2)
C42C C 0.6203(4) 1.0435(2) 0.5357(2)
C14C C 0.6236(4) 1.0874(2) 0.5159(2)
C43C C 0.5789(4) 1.0959(2) 0.5146(2)
C15C C 0.5312(3) 1.0589(2) 0.5337(2)
C44C C 0.4801(3) 1.0617(2) 0.5337(2)
C16C C 0.4733(3) 1.1006(2) 0.5142(2)
C45C C 0.4230(4) 1.0981(3) 0.5153(2)
C17C C 0.3800(4) 1.0563(3) 0.5367(2)
C46C C 0.3889(3) 1.0187(2) 0.5559(2)
N13C N 0.4376(3) 1.0204(2) 0.5548(1)
H28C H 0.3602 0.9909 0.5702
H12C H 0.3459 1.0541 0.5380
H27C H 0.4178 1.1240 0.5019
H11C H 0.5023 1.1284 0.5004
H26C H 0.5811 1.1258 0.5013
H10C H 0.6562 1.1119 0.5032
H25C H 0.6500 1.0374 0.5360
H9C H 0.5702 0.9789 0.5686
C3C C 0.4751(3) 0.8761(2) 0.5951(2)
C31C C 0.4922(8) 0.8438(7) 0.6130(2)
H2C H 0.4866 0.8115 0.6114
H18C H 0.4575 0.8650 0.5709
H1C H 0.5126 0.9714 0.6576
H17C H 0.5412 0.9193 0.6908
N11C N 0.5536(3) 0.8389(2) 0.7071(1)
H21C H 0.5952 0.7541 0.7783
H5C H 0.6225 0.7778 0.8421
N7C N 0.6633(3) 0.8936(2) 0.9542(2)
C18C C 0.6349(4) 0.8709(2) 0.9866(2)
C47C C 0.6549(4) 0.8953(3) 1.0227(2)
C19C C 0.7038(4) 0.9427(3) 1.0254(2)
C48C C 0.7336(4) 0.9662(3) 0.9918(2)
C20C C 0.7134(4) 0.9414(2) 0.9564(2)
C49C C 0.7416(4) 0.9616(3) 0.9185(2)
C21C C 0.7909(4) 1.0101(3) 0.9137(3)
C50C C 0.8150(6) 1.0240(4) 0.8784(3)
C22C C 0.7900(5) 0.9911(4) 0.8468(3)
C51C C 0.7402(4) 0.9423(3) 0.8532(2)
N14C N 0.7160(3) 0.9287(2) 0.8876(2)
H32C H 0.7236 0.9187 0.8321
H16C H 0.8054 1.0006 0.8218
H31C H 0.8487 1.0561 0.8755
H15C H 0.8073 1.0332 0.9351
H30C H 0.7672 0.9986 0.9932
H14C H 0.7171 0.9592 1.0496
H29C H 0.6346 0.8791 1.0453
H13C H 0.6013 0.8383 0.9851
H7C H 0.5646 0.7447 0.9209
H23C H 0.4719 0.6831 0.9271
O1 O 0.1500(20) 0.2580(20) 0.2846(14)
O2 O 0.2102(2) 0.4860(2) 0.0338(1)
O3 O 0.2827(2) 0.5619(2) 0.0175(1)
N8 N 0.2591(2) 0.5115(2) 0.0241(2)
O11 O 0.2851(2) 0.4862(2) 0.0197(1)
O4 O 0.0657(16) 0.1798(17) 0.2609(13)
O5 O 0.1929(9) 0.2534(10) 0.4297(7)
O6 O 0.2124(6) 0.3286(7) 0.4170(4)
O7 O 0.1843(7) 0.2717(7) 0.3703(6)
N9 N 0.1961(6) 0.2899(7) 0.4108(4)
O8 O 0.0607(10) 0.1725(10) 0.6789(7)
C23 C 0.5589(18) 0.3946(19) 0.2651(13)
C24 C 0.6298(12) 0.4269(12) 0.2026(9)
C25 C 0.5450(20) 0.3404(19) 0.2015(15)
C26 C 0.5933(9) 0.3864(8) 0.2314(6)
C27 C 0.6044(12) 0.2983(14) 0.2276(9)
C55 C 0.6274(14) 0.3663(14) 0.2476(10)
C55A C 0.6337(14) 0.2611(20) 0.2476(10)
C26A C 0.6136(8) 0.2069(12) 0.2314(6)
C23A C 0.6054(19) 0.1643(26) 0.2651(13)
C24A C 0.5731(12) 0.2029(17) 0.2026(9)
C25A C 0.6596(19) 0.2046(28) 0.2015(15)
C27A C 0.7017(14) 0.3061(18) 0.2276(9)
C55C C 0.7389(20) 0.3726(14) 0.2476(10)
C26C C 0.7931(12) 0.4067(9) 0.2314(6)
C23C C 0.8357(26) 0.4411(18) 0.2651(13)
C24C C 0.7971(17) 0.3702(12) 0.2026(9)
C25C C 0.7954(28) 0.4550(20) 0.2015(15)
C27C C 0.6939(18) 0.3956(12) 0.2276(9)
O9 O 0.5996(2) 0.3938(2) -0.0273(1)
O10 O 0.1340(20) 0.1670(20) 0.2991(18)
O12 O 0.1060(20) 0.1990(20) 0.3973(17)
O13 O 0.0878(3) 0.1798(3) 0.5249(2)
O14 O 0.5870(5) 0.5386(5) 0.2083(4)
O15 O -0.0143(10) 0.0813(10) 0.3115(7)
O16 O 0.0430(9) 0.1004(9) 0.3960(6)
C28? C 0.6667 0.3333 0.3545(6)
C29? C 0.6820(30) 0.3682(13) 0.3141(11)
C52? C 0.5915(18) 0.4320(18) 0.2545(13)
C53? C 0.5992(16) 0.3697(15) 0.1819(11)
C54? C 0.5310(20) 0.3530(20) 0.2341(17)
C56? C 0.6263(8) 0.3587(8) 0.2917(5)
C57? C 0.6137(6) 0.3312(6) 0.3711(4)
loop_
_geom_bond_atom_site_label_1
_geom_bond_atom_site_label_2
_geom_bond_site_symmetry_1
_geom_bond_site_symmetry_2
Pd1 N1 1_555 1_555
N1 C1 1_555 1_555
N2 Pd1 1_555 1_555
N3 C7 1_555 1_555
N4 C35 1_555 1_555
N5 C10 1_555 1_555
N6 Pd1 1_555 1_555
N7 C18 1_555 1_555
O2 N8 1_555 1_555
O3 N8 1_555 1_555
O5 N9 1_555 1_555
O6 N9 1_555 1_555
O7 N9 1_555 1_555
C1 C30 1_555 1_555
C2 C30 1_555 1_555
C3 N1 1_555 1_555
C4 N2 1_555 1_555
C5 C33 1_555 1_555
C6 N2 1_555 1_555
C7 C36 1_555 1_555
C8 C36 1_555 1_555
C9 N3 1_555 1_555
C10 C39 1_555 1_555
C11 C39 1_555 1_555
C12 N5 1_555 1_555
C13 N6 1_555 1_555
C14 C42 1_555 1_555
C15 N6 1_555 1_555
C16 C44 1_555 1_555
C17 C45 1_555 1_555
C18 C47 1_555 1_555
C19 C47 1_555 1_555
C20 N7 1_555 1_555
C21 C49 1_555 1_555
C22 C50 1_555 1_555
C23 C26 1_555 1_555
C24 C26 1_555 1_555
C25 C26 1_555 1_555
C26 C55 1_555 1_555
C27 C55 1_555 1_555
Pd2 N3 1_555 1_555
N8 O11 1_555 1_555
N10 C32 1_555 1_555
N11 C32 1_555 1_555
N12 C41 1_555 1_555
N13 Pd1 1_555 1_555
N14 Pd2 1_555 1_555
C30 H17 1_555 1_555
C31 C2 1_555 1_555
C32 C2 1_555 1_555
C33 C4 1_555 1_555
C34 C5 1_555 1_555
C35 N10 1_555 1_555
C36 H21 1_555 1_555
C37 C8 1_555 1_555
C38 N4 1_555 1_555
C39 H23 1_555 1_555
C40 C11 1_555 1_555
C41 C11 1_555 1_555
C42 C13 1_555 1_555
C43 C14 1_555 1_555
C44 C15 1_555 1_555
C45 C16 1_555 1_555
C46 C17 1_555 1_555
C47 H29 1_555 1_555
C48 C19 1_555 1_555
C49 C20 1_555 1_555
C50 C21 1_555 1_555
C51 C22 1_555 1_555
C55 C27C 1_555 1_555
H1 C1 1_555 1_555
H2 C31 1_555 1_555
H3 C4 1_555 1_555
H4 C34 1_555 1_555
H5 C7 1_555 1_555
H6 C37 1_555 1_555
H7 C10 1_555 1_555
H8 C40 1_555 1_555
H9 C13 1_555 1_555
H10 C14 1_555 1_555
H11 C16 1_555 1_555
H12 C17 1_555 1_555
H13 C18 1_555 1_555
H14 C19 1_555 1_555
H15 C21 1_555 1_555
H16 C22 1_555 1_555
H18 C3 1_555 1_555
H19 C33 1_555 1_555
H20 C6 1_555 1_555
H22 C9 1_555 1_555
H24 C12 1_555 1_555
H25 C42 1_555 1_555
H26 C43 1_555 1_555
H27 C45 1_555 1_555
H28 C46 1_555 1_555
H30 C48 1_555 1_555
H31 C50 1_555 1_555
H32 C51 1_555 1_555
N12C C41 1_555 1_555
C41C N12C 1_555 1_555
C11C C41C 1_555 1_555
C39C C11C 1_555 1_555
C10C C39C 1_555 1_555
N5C C10C 1_555 1_555
C12C N5C 1_555 1_555
C40C C11C 1_555 1_555
H8C C40C 1_555 1_555
H24C C12C 1_555 1_555
Pd2C N5C 1_555 1_555
N3C Pd2C 1_555 1_555
C7C N3C 1_555 1_555
C36C C7C 1_555 1_555
C8C C36C 1_555 1_555
C37C C8C 1_555 1_555
C9C N3C 1_555 1_555
H22C C9C 1_555 1_555
H6C C37C 1_555 1_555
C38C C8C 1_555 1_555
N4C C38C 1_555 1_555
C35C N4C 1_555 1_555
C5A C35C 1_555 1_555
C33A C5A 1_555 1_555
C4A C33A 1_555 1_555
N2A C4A 1_555 1_555
Pd1A N2A 1_555 1_555
N1A Pd1A 1_555 1_555
C1A N1A 1_555 1_555
C30A C1A 1_555 1_555
C2A C30A 1_555 1_555
C31A C2A 1_555 1_555
C3A N1A 1_555 1_555
H18A C3A 1_555 1_555
H2A C31A 1_555 1_555
C32A C2A 1_555 1_555
N10A C32A 1_555 1_555
C35A C5 1_555 1_555
N4A C35A 1_555 1_555
C38A N4A 1_555 1_555
C8A C38A 1_555 1_555
C36A C8A 1_555 1_555
C7A C36A 1_555 1_555
N3A C7A 1_555 1_555
C9A N3A 1_555 1_555
C37A C8A 1_555 1_555
H6A C37A 1_555 1_555
H22A C9A 1_555 1_555
Pd2A N3A 1_555 1_555
N5A Pd2A 1_555 1_555
C10A N5A 1_555 1_555
C39A C10A 1_555 1_555
C11A C39A 1_555 1_555
C40A C11A 1_555 1_555
C12A N5A 1_555 1_555
H24A C12A 1_555 1_555
H8A C40A 1_555 1_555
C41A N12 1_555 1_555
N12A C41C 1_555 1_555
H23A C39A 1_555 1_555
H7A C10A 1_555 1_555
N7A Pd2A 1_555 1_555
C18A N7A 1_555 1_555
C47A C18A 1_555 1_555
C19A C47A 1_555 1_555
C48A C19A 1_555 1_555
C20A N7A 1_555 1_555
C49A C20A 1_555 1_555
C21A C49A 1_555 1_555
C50A C21A 1_555 1_555
C22A C50A 1_555 1_555
C51A C22A 1_555 1_555
N14A Pd2A 1_555 1_555
H32A C51A 1_555 1_555
H16A C22A 1_555 1_555
H31A C50A 1_555 1_555
H15A C21A 1_555 1_555
H30A C48A 1_555 1_555
H14A C19A 1_555 1_555
H29A C47A 1_555 1_555
H13A C18A 1_555 1_555
H5A C7A 1_555 1_555
H21A C36A 1_555 1_555
N11A C32A 1_555 1_555
H17A C30A 1_555 1_555
H1A C1A 1_555 1_555
N6A Pd1A 1_555 1_555
C13A N6A 1_555 1_555
C42A C13A 1_555 1_555
C14A C42A 1_555 1_555
C43A C14A 1_555 1_555
C15A N6A 1_555 1_555
C44A C15A 1_555 1_555
C16A C44A 1_555 1_555
C45A C16A 1_555 1_555
C17A C45A 1_555 1_555
C46A C17A 1_555 1_555
N13A Pd1A 1_555 1_555
H28A C46A 1_555 1_555
H12A C17A 1_555 1_555
H27A C45A 1_555 1_555
H11A C16A 1_555 1_555
H26A C43A 1_555 1_555
H10A C14A 1_555 1_555
H25A C42A 1_555 1_555
H9A C13A 1_555 1_555
C6A N2A 1_555 1_555
C34A C5A 1_555 1_555
H4A C34A 1_555 1_555
H20A C6A 1_555 1_555
H3A C4A 1_555 1_555
H19A C33A 1_555 1_555
N10C C35C 1_555 1_555
C32C N10C 1_555 1_555
C2C C32C 1_555 1_555
C30C C2C 1_555 1_555
C1C C30C 1_555 1_555
N1C C1C 1_555 1_555
Pd1C N1C 1_555 1_555
N2C Pd1C 1_555 1_555
C4C N2C 1_555 1_555
C33C C4C 1_555 1_555
C5C C35 1_555 1_555
C34C C5C 1_555 1_555
C6C N2C 1_555 1_555
H20C C6C 1_555 1_555
H4C C34C 1_555 1_555
H19C C33C 1_555 1_555
H3C C4C 1_555 1_555
N6C Pd1C 1_555 1_555
C13C N6C 1_555 1_555
C42C C13C 1_555 1_555
C14C C42C 1_555 1_555
C43C C14C 1_555 1_555
C15C N6C 1_555 1_555
C44C C15C 1_555 1_555
C16C C44C 1_555 1_555
C45C C16C 1_555 1_555
C17C C45C 1_555 1_555
C46C C17C 1_555 1_555
N13C Pd1C 1_555 1_555
H28C C46C 1_555 1_555
H12C C17C 1_555 1_555
H27C C45C 1_555 1_555
H11C C16C 1_555 1_555
H26C C43C 1_555 1_555
H10C C14C 1_555 1_555
H25C C42C 1_555 1_555
H9C C13C 1_555 1_555
C3C N1C 1_555 1_555
C31C C2C 1_555 1_555
H2C C31C 1_555 1_555
H18C C3C 1_555 1_555
H1C C1C 1_555 1_555
H17C C30C 1_555 1_555
N11C C38C 1_555 1_555
H21C C36C 1_555 1_555
H5C C7C 1_555 1_555
N7C Pd2C 1_555 1_555
C18C N7C 1_555 1_555
C47C C18C 1_555 1_555
C19C C47C 1_555 1_555
C48C C19C 1_555 1_555
C20C N7C 1_555 1_555
C49C C20C 1_555 1_555
C21C C49C 1_555 1_555
C50C C21C 1_555 1_555
C22C C50C 1_555 1_555
C51C C22C 1_555 1_555
N14C Pd2C 1_555 1_555
H32C C51C 1_555 1_555
H16C C22C 1_555 1_555
H31C C50C 1_555 1_555
H15C C21C 1_555 1_555
H30C C48C 1_555 1_555
H14C C19C 1_555 1_555
H29C C47C 1_555 1_555
H13C C18C 1_555 1_555
H7C C10C 1_555 1_555
H23C C39C 1_555 1_555
C55A C27 1_555 1_555
C26A C55A 1_555 1_555
C23A C26A 1_555 1_555
C24A C26A 1_555 1_555
C25A C26A 1_555 1_555
C27A C55A 1_555 1_555
C55C C27A 1_555 1_555
C26C C55C 1_555 1_555
C23C C26C 1_555 1_555
C24C C26C 1_555 1_555
C25C C26C 1_555 1_555
C27C C55C 1_555 1_555
N5 Pd2 1_555 1_555
N7 Pd2 1_555 1_555
C3 C31 1_555 1_555
C6 C34 1_555 1_555
C8 C38 1_555 1_555
C9 C37 1_555 1_555
C12 C40 1_555 1_555
C15 C43 1_555 1_555
C20 C48 1_555 1_555
N11 C38 1_555 1_555
N13 C46 1_555 1_555
N13 C44 1_555 1_555
N14 C51 1_555 1_555
N14 C49 1_555 1_555
C12C C40C 1_555 1_555
C37C C9C 1_555 1_555
C31A C3A 1_555 1_555
N10A C35A 1_555 1_555
C38A N11A 1_555 1_555
C9A C37A 1_555 1_555
C11A C41A 1_555 1_555
C40A C12A 1_555 1_555
C41A N12A 1_555 1_555
C48A C20A 1_555 1_555
C49A N14A 1_555 1_555
C51A N14A 1_555 1_555
C43A C15A 1_555 1_555
C44A N13A 1_555 1_555
C46A N13A 1_555 1_555
C6A C34A 1_555 1_555
C32C N11C 1_555 1_555
C33C C5C 1_555 1_555
C34C C6C 1_555 1_555
C43C C15C 1_555 1_555
C44C N13C 1_555 1_555
C46C N13C 1_555 1_555
C3C C31C 1_555 1_555
C48C C20C 1_555 1_555
C49C N14C 1_555 1_555
C51C N14C 1_555 1_555

#END
