
#######################################################################
#
#                 Cambridge Crystallographic Data Centre
#                                CCDC 
#
#######################################################################
#
# If this CIF has been generated from an entry in the Cambridge 
# Structural Database, then it will include bibliographic, chemical, 
# crystal, experimental, refinement or atomic coordinate data resulting 
# from the CCDC's data processing and validation procedures.
#
#######################################################################

data_LUWKIX
_chemical_formula_moiety         
'C132 H96 N36 Pd6 12+,12(N1 O3 1-),C28 H28 Si1,22(H2 O1)'
_chemical_name_systematic        
"tetrakis(\m~3~-2,4,6-tris(Pyrid-4-yl)-1,3,5-triazine-N,N',N'')-hexakis(2,2-bipyridyl-N,N')-hexa-palladium (tetrabenzylsilane) clathrate dodecanitrate hydrate"
_symmetry_cell_setting           tetragonal
_symmetry_space_group_name_H-M   'P 43 21 2'
_symmetry_Int_Tables_number      96
_space_group_name_Hall           'P 4nw 2abw'
loop_
_symmetry_equiv_pos_site_id
_symmetry_equiv_pos_as_xyz
1 x,y,z
2 1/2-y,1/2+x,3/4+z
3 1/2+x,1/2-y,1/4-z
4 -x,-y,1/2+z
5 y,x,-z
6 1/2+y,1/2-x,1/4+z
7 1/2-x,1/2+y,3/4-z
8 -y,-x,1/2-z
_cell_length_a                   29.0082(8)
_cell_length_b                   29.0082(8)
_cell_length_c                   29.7539(12)
_cell_angle_alpha                90
_cell_angle_beta                 90
_cell_angle_gamma                90
_cell_volume                     25037.2
_cell_formula_units_Z            4
loop_
_atom_site_label
_atom_site_type_symbol
_atom_site_fract_x
_atom_site_fract_y
_atom_site_fract_z
Si1 Si 1.2809(2) 0.2809(2) 0.5000
C31 C 1.2306(7) 0.2816(7) 0.4573(6)
C62 C 1.3407(8) 0.2789(8) 0.4614(8)
C66 C 1.1579(6) 0.2436(4) 0.4928(6)
C67 C 1.1005(4) 0.2895(6) 0.5302(5)
C68 C 1.1683(5) 0.3256(5) 0.4997(5)
C69 C 1.3533(5) 0.3562(6) 0.4358(4)
C70 C 1.3368(6) 0.3805(6) 0.3601(5)
C71 C 1.3210(5) 0.3024(5) 0.3828(6)
C75 C 1.1840(4) 0.2830(6) 0.4850(4)
C76 C 1.1162(6) 0.2469(5) 0.5155(7)
C77 C 1.1265(5) 0.3289(5) 0.5224(4)
C78 C 1.3373(5) 0.3123(5) 0.4257(5)
C79 C 1.3531(5) 0.3903(4) 0.4030(7)
C80 C 1.3208(6) 0.3365(7) 0.3500(4)
C31D C 1.2816(7) 0.2306(7) 0.5427(6)
C75D C 1.2830(6) 0.1840(4) 0.5150(4)
C66D C 1.2436(4) 0.1579(6) 0.5072(6)
C76D C 1.2469(5) 0.1162(6) 0.4845(7)
C67D C 1.2895(6) 0.1005(4) 0.4698(5)
C77D C 1.3289(5) 0.1265(5) 0.4776(4)
C68D C 1.3256(5) 0.1683(5) 0.5003(5)
C62D C 1.2789(8) 0.3407(8) 0.5386(8)
C78D C 1.3123(5) 0.3373(5) 0.5743(5)
C69D C 1.3562(6) 0.3533(5) 0.5642(4)
C79D C 1.3903(4) 0.3531(5) 0.5970(7)
C70D C 1.3805(6) 0.3368(6) 0.6399(5)
C80D C 1.3365(7) 0.3208(6) 0.6500(4)
C71D C 1.3024(5) 0.3210(5) 0.6172(6)
O1 O 1.0298(5) 0.6421(5) 0.0193(4)
O2 O 1.2003(5) 0.6015(5) 0.4158(4)
O3 O 1.5305(7) 0.3587(7) 0.3108(6)
O4 O 0.9935(7) 0.7247(7) 0.5123(6)
O5 O 1.2615(8) 0.5599(7) 0.5916(7)
O6 O 0.9670(6) 0.7596(6) 0.4151(6)
O7 O 0.9149(7) 0.8515(7) 0.2110(6)
O8 O 1.0136(7) 0.7297(7) -0.0325(6)
O9 O 1.0002(10) 0.7894(10) 0.6145(9)
O10 O 1.7692(8) 0.3210(8) 0.2955(7)
O11 O 0.9623(8) 0.7417(8) 0.6622(7)
O12 O 1.1760(20) 0.7870(20) 0.6030(19)
O13 O 1.1051(11) 0.7887(10) 0.6401(9)
O14 O 1.0559(13) 0.8127(12) 0.5875(11)
O15 O 1.1701(4) 0.5773(4) 0.5808(4)
O16 O 1.1930(3) 0.5979(3) 0.5148(3)
N20 N 1.1610(4) 0.5882(3) 0.5427(4)
O29 O 1.1222(4) 0.5924(4) 0.5311(3)
O17 O 0.9640(5) 0.5865(5) 0.0758(4)
O18 O 0.9151(4) 0.6187(3) 0.1239(3)
N21 N 0.9477(5) 0.6201(4) 0.0998(4)
O30 O 0.9774(3) 0.6507(3) 0.1020(3)
O19 O 0.8843(8) 0.9463(8) 0.1869(7)
O28 O 0.8953(7) 1.0015(7) 0.1599(6)
N22 N 0.9193(9) 0.9762(8) 0.1716(7)
O31 O 0.9642(7) 0.9532(7) 0.1616(6)
N19 N 1.0733(10) 0.9289(10) 0.0440(10)
O20 O 1.0336(6) 0.8939(6) 0.0489(5)
O32 O 1.1050(9) 0.9345(9) 0.0213(8)
O33 O 1.0605(6) 0.9497(6) 0.0783(6)
O21 O 1.1185(8) 0.6796(8) 0.0138(8)
O22 O 1.3344(7) 0.6166(8) 0.5435(7)
O23 O 1.5974(7) 0.3874(7) 0.3792(6)
O24 O 1.2888(13) 0.5551(14) 0.4408(12)
O25 O 1.2474(10) 0.7526(10) 0.7500
O26 O 0.9223(9) 0.6537(10) 0.6397(9)
O27 O 1.3559(7) 0.6952(7) 0.5598(6)
Pd1 Pd 1.4593(1) 0.5407(1) 0.2500
Pd2 Pd 1.1766(1) 0.7059(1) 0.5475(1)
N1 N 1.4410(3) 0.5942(3) 0.2891(3)
N2 N 1.3541(3) 0.7002(3) 0.3894(3)
N3 N 1.2317(3) 0.7187(3) 0.5067(3)
N4 N 1.1378(3) 0.7199(3) 0.4924(3)
N5 N 1.0560(3) 0.7085(3) 0.3477(3)
N6 N 1.0114(3) 0.9299(3) 0.2725(3)
N7 N 1.0109(3) 0.6022(3) 0.2184(3)
N8 N 1.0787(3) 0.5722(3) 0.1584(3)
C1 C 1.5739(4) 0.4664(5) 0.2900(5)
C2 C 1.5668(6) 0.5212(7) 0.3492(5)
C3 C 1.4032(4) 0.5904(4) 0.3173(4)
C4 C 1.4067(3) 0.6705(4) 0.3353(3)
C5 C 1.4595(4) 0.6368(5) 0.2848(4)
C6 C 1.3820(4) 0.7867(4) 0.3683(4)
C7 C 1.3362(3) 0.7393(4) 0.4079(4)
C8 C 1.2874(4) 0.6889(4) 0.4585(4)
C9 C 1.2772(4) 0.7676(4) 0.4657(4)
C10 C 1.2597(5) 0.6899(5) 0.6059(6)
C11 C 1.2576(9) 0.6649(13) 0.6768(12)
C12 C 1.1844(6) 0.6690(5) 0.6342(5)
C13 C 1.1366(3) 0.6697(3) 0.6275(3)
C14 C 1.0564(4) 0.6570(4) 0.6443(4)
C15 C 1.0782(3) 0.6939(3) 0.5751(3)
C16 C 1.0922(4) 0.7698(4) 0.4457(4)
C17 C 1.1110(3) 0.6938(3) 0.4214(4)
C18 C 1.0648(3) 0.7443(3) 0.3720(3)
C19 C 1.0362(3) 0.7170(4) 0.3050(4)
C20 C 1.0165(4) 0.8481(3) 0.2580(4)
C21 C 1.0297(4) 0.8783(4) 0.3331(5)
C22 C 0.9136(4) 0.9731(6) 0.2868(4)
C23 C 0.8520(6) 1.0228(7) 0.2928(8)
C24 C 0.9240(4) 1.0456(5) 0.2614(4)
C25 C 1.0353(3) 0.6316(4) 0.2883(3)
C26 C 1.0040(4) 0.6820(4) 0.2362(4)
C27 C 0.9176(4) 0.5445(5) 0.2071(6)
C28 C 0.8687(8) 0.4903(6) 0.1675(9)
C29 C 0.9364(6) 0.4983(5) 0.1463(7)
C30 C 1.3836(5) 0.8706(5) 0.3851(4)
Pd3 Pd 1.0063(6) 0.9958(6) 0.2447(4)
Pd4 Pd 1.0128(1) 0.5520(1) 0.1718(1)
N9 N 1.5126(3) 0.5202(3) 0.2871(3)
N10 N 1.4026(3) 0.7511(4) 0.3491(3)
N11 N 1.3476(3) 0.7818(3) 0.4009(3)
N12 N 1.2121(4) 0.6875(3) 0.6019(3)
N13 N 1.0551(3) 0.7875(3) 0.3602(3)
N14 N 1.0265(3) 0.7582(3) 0.2910(3)
N15 N 0.9408(3) 1.0039(3) 0.2689(3)
N16 N 0.9478(4) 0.5302(3) 0.1789(4)
C32 C 1.5383(4) 0.4846(4) 0.2718(4)
C33 C 1.5906(5) 0.4877(6) 0.3330(6)
C34 C 1.5273(4) 0.5412(5) 0.3247(4)
C35 C 1.3875(4) 0.6257(4) 0.3396(4)
C36 C 1.4432(4) 0.6741(4) 0.3077(4)
C37 C 1.3875(4) 0.7085(3) 0.3588(3)
C38 C 1.3988(4) 0.8331(4) 0.3600(4)
C39 C 1.2549(4) 0.6825(4) 0.4901(4)
C40 C 1.2989(4) 0.7316(4) 0.4461(4)
C41 C 1.2438(4) 0.7607(3) 0.4955(3)
C42 C 1.2800(8) 0.6724(8) 0.6448(8)
C43 C 1.2117(11) 0.6557(6) 0.6777(4)
N17 N 1.1244(2) 0.6901(2) 0.5869(2)
C44 C 1.1026(4) 0.6532(3) 0.6562(2)
C45 C 1.0442(2) 0.6774(4) 0.6038(4)
C46 C 1.1169(4) 0.7616(4) 0.4853(4)
C47 C 1.0902(3) 0.7362(3) 0.4125(3)
C48 C 1.1345(4) 0.6880(3) 0.4596(3)
C49 C 1.0363(3) 0.7933(4) 0.3178(3)
C50 C 1.0085(4) 0.8952(4) 0.2452(4)
C51 C 1.0269(3) 0.8399(3) 0.3026(3)
C52 C 1.0215(4) 0.9211(3) 0.3142(4)
C53 C 0.8656(5) 0.9820(6) 0.3014(5)
C54 C 0.8768(6) 1.0564(8) 0.2733(7)
C55 C 1.0292(3) 0.5953(4) 0.2591(4)
C56 C 1.0255(3) 0.6749(3) 0.2759(4)
C57 C 0.9980(4) 0.6464(4) 0.2074(5)
C58 C 0.8708(5) 0.5293(6) 0.2108(6)
C59 C 0.8988(11) 0.4783(11) 0.1420(13)
C60 C 1.3982(5) 0.9143(5) 0.3759(5)
C61 C 1.4292(4) 0.8404(4) 0.3263(5)
N18 N 1.0143(3) 0.5025(2) 0.1249(3)
C63 C 0.9658(3) 0.4470(2) 0.0879(3)
C64 C 1.0462(3) 0.4522(3) 0.0685(4)
C65 C 1.1145(3) 0.5545(4) 0.1806(4)
C72 C 0.9713(3) 0.4822(3) 0.1190(3)
C73 C 1.0032(4) 0.4320(3) 0.0626(3)
C74 C 1.0518(3) 0.4875(2) 0.0997(3)
H1 H 1.5887 0.4411 0.2772
H2 H 1.5746 0.5331 0.3772
H3 H 1.3887 0.5619 0.3203
H4 H 1.4576 0.7026 0.3041
H5 H 1.2484 0.6530 0.5004
H6 H 1.2858 0.7976 0.4582
H7 H 1.2776 0.7027 0.5832
H8 H 1.2728 0.6652 0.7043
H9 H 1.1108 0.6395 0.6833
H10 H 1.0133 0.6800 0.5958
H11 H 1.1191 0.7847 0.5069
H12 H 1.1085 0.6698 0.4008
H13 H 1.0007 0.9012 0.2154
H14 H 1.0366 0.8746 0.3634
H15 H 0.9252 0.9434 0.2906
H16 H 0.8219 1.0300 0.3008
H17 H 1.0379 0.5657 0.2677
H18 H 0.9934 0.7113 0.2287
H19 H 0.9270 0.5671 0.2273
H20 H 0.8402 0.4764 0.1631
H21 H 1.3878 0.9390 0.3931
H22 H 1.4391 0.8163 0.3081
H23 H 0.9995 0.4084 0.0418
H24 H 1.0805 0.5011 0.1036
H25 H 1.6171 0.4771 0.3474
H26 H 1.5129 0.5679 0.3350
H27 H 1.3628 0.6214 0.3591
H28 H 1.4844 0.6408 0.2654
H29 H 1.3018 0.6637 0.4453
H30 H 1.2290 0.7858 0.5085
H31 H 1.3115 0.6668 0.6454
H32 H 1.1974 0.6425 0.7025
H33 H 1.0337 0.6460 0.6636
H34 H 1.0701 0.7076 0.5479
H35 H 1.0771 0.7978 0.4416
H36 H 1.1496 0.6601 0.4639
H37 H 1.0148 0.8242 0.2372
H38 H 1.0233 0.9463 0.3335
H39 H 0.8472 0.9600 0.3154
H40 H 0.8642 1.0853 0.2677
H41 H 1.0464 0.6260 0.3171
H42 H 0.9849 0.6520 0.1794
H43 H 0.8480 0.5380 0.2310
H44 H 0.8940 0.4556 0.1204
H45 H 1.3630 0.8657 0.4087
H46 H 0.9370 0.4334 0.0839
H47 H 1.0712 0.4422 0.0516
H48 H 1.1095 0.5310 0.2013
N8G N 1.4278(3) 0.9213(3) 0.3416(3)
Pd4G Pd 1.4480(1) 0.9872(1) 0.3282(1)
N7G N 1.3978(3) 0.9891(3) 0.2816(3)
C55G C 1.4047(4) 0.9708(3) 0.2409(4)
C25G C 1.3684(4) 0.9647(3) 0.2117(3)
C56G C 1.3251(3) 0.9745(3) 0.2241(4)
C19G C 1.2830(4) 0.9638(3) 0.1950(4)
N5G N 1.2915(3) 0.9440(3) 0.1523(3)
C18G C 1.2557(3) 0.9352(3) 0.1280(3)
N13G N 1.2125(3) 0.9449(3) 0.1398(3)
C49G C 1.2067(4) 0.9637(3) 0.1822(3)
N14G N 1.2418(3) 0.9735(3) 0.2090(3)
C51G C 1.1601(3) 0.9731(3) 0.1974(3)
C20G C 1.1519(3) 0.9835(4) 0.2420(4)
C50G C 1.1048(4) 0.9915(4) 0.2548(4)
N6G N 1.0701(3) 0.9886(3) 0.2275(3)
Pd3G Pd 1.0042(6) 0.9937(6) 0.2553(4)
C52G C 1.0789(3) 0.9785(4) 0.1858(4)
C21G C 1.1217(4) 0.9703(4) 0.1669(5)
H14G H 1.1254 0.9634 0.1366
H38G H 1.0537 0.9767 0.1665
N15G N 0.9961(3) 1.0592(3) 0.2311(3)
C22G C 1.0269(6) 1.0864(4) 0.2132(4)
C53G C 1.0180(6) 1.1344(5) 0.1986(5)
C23G C 0.9772(7) 1.1480(6) 0.2072(8)
C54G C 0.9436(8) 1.1232(6) 0.2267(7)
C24G C 0.9544(5) 1.0760(4) 0.2386(4)
H40G H 0.9147 1.1358 0.2323
H16G H 0.9700 1.1781 0.1992
H39G H 1.0400 1.1528 0.1846
H15G H 1.0566 1.0748 0.2094
C60G C 1.0857(5) 0.6018(5) 0.1241(5)
C30G C 1.1294(5) 0.6164(5) 0.1149(4)
C38G C 1.1669(4) 0.6012(4) 0.1400(4)
C6G C 1.2133(4) 0.6180(4) 0.1317(4)
N10G N 1.2489(4) 0.5974(3) 0.1509(3)
C37G C 1.2915(3) 0.6125(4) 0.1412(3)
N2G N 1.2998(3) 0.6459(3) 0.1106(3)
C7G C 1.2607(4) 0.6638(3) 0.0921(4)
N11G N 1.2182(3) 0.6524(3) 0.0991(3)
C40G C 1.2684(4) 0.7011(4) 0.0539(4)
C8G C 1.3111(4) 0.7126(4) 0.0415(4)
C39G C 1.3175(4) 0.7451(4) 0.0099(4)
N3G N 1.2813(3) 0.7683(3) -0.0067(3)
Pd2G Pd 1.2941(1) 0.8234(1) -0.0475(1)
N4G N 1.2801(3) 0.8622(3) 0.0076(3)
C46G C 1.2384(4) 0.8831(4) 0.0147(4)
C16G C 1.2302(4) 0.9078(4) 0.0543(4)
C47G C 1.2638(3) 0.9098(3) 0.0875(3)
C17G C 1.3062(3) 0.8890(3) 0.0786(4)
C48G C 1.3120(3) 0.8655(4) 0.0404(3)
H36G H 1.3399 0.8504 0.0361
H12G H 1.3302 0.8915 0.0992
H35G H 1.2022 0.9229 0.0584
H11G H 1.2153 0.8809 -0.0069
N12G N 1.3125(3) 0.7879(4) -0.1019(3)
C10G C 1.3101(5) 0.7403(5) -0.1059(6)
C42G C 1.3276(8) 0.7200(8) -0.1448(8)
C11G C 1.3351(13) 0.7424(9) -0.1768(12)
C43G C 1.3443(6) 0.7883(11) -0.1777(4)
C12G C 1.3310(5) 0.8156(6) -0.1342(5)
C13G C 1.3303(3) 0.8634(3) -0.1275(3)
N17G N 1.3099(2) 0.8756(2) -0.0869(2)
C15G C 1.3061(3) 0.9218(3) -0.0751(3)
C45G C 1.3226(4) 0.9558(2) -0.1038(4)
C14G C 1.3430(4) 0.9436(4) -0.1443(4)
C44G C 1.3468(3) 0.8974(4) -0.1562(2)
H9G H 1.3605 0.8892 -0.1833
H33G H 1.3540 0.9663 -0.1636
H10G H 1.3200 0.9867 -0.0958
H34G H 1.2924 0.9299 -0.0479
H32G H 1.3575 0.8026 -0.2025
H8G H 1.3348 0.7272 -0.2043
H31G H 1.3332 0.6885 -0.1454
H7G H 1.2973 0.7224 -0.0832
C41G C 1.2393(3) 0.7562(4) 0.0045(3)
C9G C 1.2324(4) 0.7228(4) 0.0343(4)
H6G H 1.2024 0.7142 0.0418
H30G H 1.2142 0.7710 -0.0085
H5G H 1.3470 0.7516 -0.0004
H29G H 1.3363 0.6982 0.0547
C4G C 1.3295(4) 0.5933(3) 0.1647(3)
C35G C 1.3743(4) 0.6125(4) 0.1604(4)
C3G C 1.4096(4) 0.5968(4) 0.1827(4)
N1G N 1.4058(3) 0.5590(3) 0.2109(3)
C32G C 1.5154(4) 0.4617(4) 0.2282(4)
C1G C 1.5336(5) 0.4261(4) 0.2100(5)
C33G C 1.5123(6) 0.4094(5) 0.1670(6)
C2G C 1.4788(7) 0.4332(6) 0.1508(5)
C34G C 1.4588(5) 0.4727(4) 0.1753(4)
N9G N 1.4798(3) 0.4874(3) 0.2129(3)
H26G H 1.4321 0.4871 0.1650
H2G H 1.4669 0.4254 0.1228
H25G H 1.5229 0.3829 0.1526
H1G H 1.5589 0.4113 0.2228
C5G C 1.3632(5) 0.5405(4) 0.2152(4)
C36G C 1.3259(4) 0.5568(4) 0.1923(4)
H4G H 1.2974 0.5424 0.1959
H28G H 1.3592 0.5156 0.2346
H3G H 1.4381 0.6113 0.1797
H27G H 1.3786 0.6372 0.1409
C61G C 1.1596(4) 0.5708(4) 0.1737(5)
H22G H 1.1837 0.5609 0.1919
H45G H 1.1343 0.6370 0.0913
H21G H 1.0610 0.6122 0.1069
H13G H 1.0988 0.9993 0.2846
H37G H 1.1758 0.9852 0.2628
C26G C 1.3180(4) 0.9960(4) 0.2638(4)
C57G C 1.3536(4) 1.0020(4) 0.2926(5)
H42G H 1.3480 1.0151 0.3206
H18G H 1.2887 1.0066 0.2713
H41G H 1.3740 0.9536 0.1829
H17G H 1.4343 0.9621 0.2323
N16G N 1.4698(3) 1.0522(4) 0.3211(4)
C27G C 1.4555(5) 1.0824(4) 0.2929(6)
C58G C 1.4707(6) 1.1292(5) 0.2892(6)
C28G C 1.5097(6) 1.1313(8) 0.3325(9)
C59G C 1.5217(11) 1.1012(11) 0.3580(13)
C29G C 1.5017(5) 1.0636(6) 0.3537(7)
C72G C 1.5178(3) 1.0287(3) 0.3810(3)
N18G N 1.4975(2) 0.9857(3) 0.3751(3)
C74G C 1.5125(2) 0.9482(3) 0.4003(3)
C64G C 1.5478(3) 0.9538(3) 0.4315(4)
C73G C 1.5680(3) 0.9968(4) 0.4374(3)
C63G C 1.5530(2) 1.0342(3) 0.4121(3)
H46G H 1.5666 1.0630 0.4161
H23G H 1.5916 1.0005 0.4582
H47G H 1.5578 0.9288 0.4484
H24G H 1.4989 0.9195 0.3964
H44G H 1.5444 1.1060 0.3796
H20G H 1.5236 1.1598 0.3369
H43G H 1.4620 1.1520 0.2690
H19G H 1.4329 1.0730 0.2727
C65G C 1.4455(4) 0.8855(3) 0.3194(4)
H48G H 1.4690 0.8905 0.2987
loop_
_geom_bond_atom_site_label_1
_geom_bond_atom_site_label_2
_geom_bond_site_symmetry_1
_geom_bond_site_symmetry_2
Pd1 N1 1_555 1_555
Pd2 N3 1_555 1_555
Si1 C31 1_555 1_555
N1 C3 1_555 1_555
N2 C7 1_555 1_555
N3 C39 1_555 1_555
N4 Pd2 1_555 1_555
N5 C18 1_555 1_555
N6 Pd3 1_555 1_555
N7 Pd4 1_555 1_555
N8 Pd4 1_555 1_555
C1 C32 1_555 1_555
C2 C33 1_555 1_555
C3 C35 1_555 1_555
C4 C35 1_555 1_555
C5 N1 1_555 1_555
C6 N10 1_555 1_555
C7 N11 1_555 1_555
C8 C39 1_555 1_555
C9 C40 1_555 1_555
C10 N12 1_555 1_555
C11 C42 1_555 1_555
C12 C13 1_555 1_555
C13 N17 1_555 1_555
C14 C44 1_555 1_555
C15 N17 1_555 1_555
C16 C46 1_555 1_555
C17 C47 1_555 1_555
C18 N13 1_555 1_555
C19 N5 1_555 1_555
C20 C50 1_555 1_555
C21 C51 1_555 1_555
C22 N15 1_555 1_555
C23 C53 1_555 1_555
C24 N15 1_555 1_555
C25 C55 1_555 1_555
C26 C56 1_555 1_555
C27 N16 1_555 1_555
C28 C58 1_555 1_555
C29 N16 1_555 1_555
C30 C38 1_555 1_555
C31 C75 1_555 1_555
Pd3 N15 1_555 1_555
Pd4 N16 1_555 1_555
N9 Pd1 1_555 1_555
N10 C37 1_555 1_555
N11 C6 1_555 1_555
N12 Pd2 1_555 1_555
N13 C49 1_555 1_555
N14 C19 1_555 1_555
N15 Pd3G 1_555 1_555
C32 N9 1_555 1_555
C33 C1 1_555 1_555
C34 C2 1_555 1_555
C35 H27 1_555 1_555
C36 C4 1_555 1_555
C37 N2 1_555 1_555
C38 C6 1_555 1_555
C39 H5 1_555 1_555
C40 C7 1_555 1_555
C41 N3 1_555 1_555
C42 C10 1_555 1_555
C43 C11 1_555 1_555
N17 Pd2 1_555 1_555
C44 C13 1_555 1_555
C45 C14 1_555 1_555
C46 N4 1_555 1_555
C47 C16 1_555 1_555
C48 N4 1_555 1_555
C49 N14 1_555 1_555
C50 N6 1_555 1_555
C51 C20 1_555 1_555
C52 N6 1_555 1_555
C53 C22 1_555 1_555
C54 C23 1_555 1_555
C55 N7 1_555 1_555
C56 C19 1_555 1_555
C57 N7 1_555 1_555
C58 C27 1_555 1_555
C59 C28 1_555 1_555
C60 C30 1_555 1_555
C61 C38 1_555 1_555
C62 Si1 1_555 1_555
N18 Pd4 1_555 1_555
C63 C72 1_555 1_555
C64 C73 1_555 1_555
C65 N8 1_555 1_555
C66 C75 1_555 1_555
C67 C76 1_555 1_555
C68 C75 1_555 1_555
C69 C78 1_555 1_555
C70 C79 1_555 1_555
C71 C78 1_555 1_555
O15 N20 1_555 1_555
O16 N20 1_555 1_555
O17 N21 1_555 1_555
O18 N21 1_555 1_555
O19 N22 1_555 1_555
N19 O20 1_555 1_555
O28 N22 1_555 1_555
C72 C29 1_555 1_555
C73 C63 1_555 1_555
C74 N18 1_555 1_555
C76 C66 1_555 1_555
C77 C67 1_555 1_555
C78 C62 1_555 1_555
C79 C69 1_555 1_555
C80 C70 1_555 1_555
N20 O29 1_555 1_555
N21 O30 1_555 1_555
N22 O31 1_555 1_555
O32 N19 1_555 1_555
O33 N19 1_555 1_555
H1 C1 1_555 1_555
H2 C2 1_555 1_555
H3 C3 1_555 1_555
H4 C36 1_555 1_555
H6 C9 1_555 1_555
H7 C10 1_555 1_555
H8 C11 1_555 1_555
H9 C44 1_555 1_555
H10 C45 1_555 1_555
H11 C46 1_555 1_555
H12 C17 1_555 1_555
H13 C50 1_555 1_555
H14 C21 1_555 1_555
H15 C22 1_555 1_555
H16 C23 1_555 1_555
H17 C55 1_555 1_555
H18 C26 1_555 1_555
H19 C27 1_555 1_555
H20 C28 1_555 1_555
H21 C60 1_555 1_555
H22 C61 1_555 1_555
H23 C73 1_555 1_555
H24 C74 1_555 1_555
H25 C33 1_555 1_555
H26 C34 1_555 1_555
H28 C5 1_555 1_555
H29 C8 1_555 1_555
H30 C41 1_555 1_555
H31 C42 1_555 1_555
H32 C43 1_555 1_555
H33 C14 1_555 1_555
H34 C15 1_555 1_555
H35 C16 1_555 1_555
H36 C48 1_555 1_555
H37 C20 1_555 1_555
H38 C52 1_555 1_555
H39 C53 1_555 1_555
H40 C54 1_555 1_555
H41 C25 1_555 1_555
H42 C57 1_555 1_555
H43 C58 1_555 1_555
H44 C59 1_555 1_555
H45 C30 1_555 1_555
H46 C63 1_555 1_555
H47 C64 1_555 1_555
H48 C65 1_555 1_555
N8G C60 1_555 1_555
Pd4G N8G 1_555 1_555
N7G Pd4G 1_555 1_555
C55G N7G 1_555 1_555
C25G C55G 1_555 1_555
C56G C25G 1_555 1_555
C19G C56G 1_555 1_555
N5G C19G 1_555 1_555
C18G N5G 1_555 1_555
N13G C18G 1_555 1_555
C49G N13G 1_555 1_555
N14G C19G 1_555 1_555
C51G C49G 1_555 1_555
C20G C51G 1_555 1_555
C50G C20G 1_555 1_555
N6G Pd3 1_555 1_555
Pd3G N6 1_555 1_555
C52G N6G 1_555 1_555
C21G C51G 1_555 1_555
H14G C21G 1_555 1_555
H38G C52G 1_555 1_555
N15G Pd3 1_555 1_555
C22G N15G 1_555 1_555
C53G C22G 1_555 1_555
C23G C53G 1_555 1_555
C54G C23G 1_555 1_555
C24G C24 1_555 1_555
H40G C54G 1_555 1_555
H16G C23G 1_555 1_555
H39G C53G 1_555 1_555
H15G C22G 1_555 1_555
C60G N8 1_555 1_555
C30G C60G 1_555 1_555
C38G C30G 1_555 1_555
C6G C38G 1_555 1_555
N10G C6G 1_555 1_555
C37G N10G 1_555 1_555
N2G C37G 1_555 1_555
C7G N2G 1_555 1_555
N11G C6G 1_555 1_555
C40G C7G 1_555 1_555
C8G C40G 1_555 1_555
C39G C8G 1_555 1_555
N3G C39G 1_555 1_555
Pd2G N3G 1_555 1_555
N4G Pd2G 1_555 1_555
C46G N4G 1_555 1_555
C16G C46G 1_555 1_555
C47G C18G 1_555 1_555
C17G C47G 1_555 1_555
C48G N4G 1_555 1_555
H36G C48G 1_555 1_555
H12G C17G 1_555 1_555
H35G C16G 1_555 1_555
H11G C46G 1_555 1_555
N12G Pd2G 1_555 1_555
C10G N12G 1_555 1_555
C42G C10G 1_555 1_555
C11G C42G 1_555 1_555
C43G C11G 1_555 1_555
C12G N12G 1_555 1_555
C13G C12G 1_555 1_555
N17G Pd2G 1_555 1_555
C15G N17G 1_555 1_555
C45G C15G 1_555 1_555
C14G C45G 1_555 1_555
C44G C13G 1_555 1_555
H9G C44G 1_555 1_555
H33G C14G 1_555 1_555
H10G C45G 1_555 1_555
H34G C15G 1_555 1_555
H32G C43G 1_555 1_555
H8G C11G 1_555 1_555
H31G C42G 1_555 1_555
H7G C10G 1_555 1_555
C41G N3G 1_555 1_555
C9G C40G 1_555 1_555
H6G C9G 1_555 1_555
H30G C41G 1_555 1_555
H5G C39G 1_555 1_555
H29G C8G 1_555 1_555
C4G C37G 1_555 1_555
C35G C4G 1_555 1_555
C3G C35G 1_555 1_555
N1G Pd1 1_555 1_555
C32G C32 1_555 1_555
C1G C32G 1_555 1_555
C33G C1G 1_555 1_555
C2G C33G 1_555 1_555
C34G C2G 1_555 1_555
N9G Pd1 1_555 1_555
H26G C34G 1_555 1_555
H2G C2G 1_555 1_555
H25G C33G 1_555 1_555
H1G C1G 1_555 1_555
C5G N1G 1_555 1_555
C36G C4G 1_555 1_555
H4G C36G 1_555 1_555
H28G C5G 1_555 1_555
H3G C3G 1_555 1_555
H27G C35G 1_555 1_555
C61G C65 1_555 1_555
H22G C61G 1_555 1_555
H45G C30G 1_555 1_555
H21G C60G 1_555 1_555
H13G C50G 1_555 1_555
H37G C20G 1_555 1_555
C26G C56G 1_555 1_555
C57G N7G 1_555 1_555
H42G C57G 1_555 1_555
H18G C26G 1_555 1_555
H41G C25G 1_555 1_555
H17G C55G 1_555 1_555
N16G Pd4G 1_555 1_555
C27G N16G 1_555 1_555
C58G C27G 1_555 1_555
C28G C58G 1_555 1_555
C59G C28G 1_555 1_555
C29G N16G 1_555 1_555
C72G C29G 1_555 1_555
N18G Pd4G 1_555 1_555
C74G N18G 1_555 1_555
C64G C74G 1_555 1_555
C73G C64G 1_555 1_555
C63G C72G 1_555 1_555
H46G C63G 1_555 1_555
H23G C73G 1_555 1_555
H47G C64G 1_555 1_555
H24G C74G 1_555 1_555
H44G C59G 1_555 1_555
H20G C28G 1_555 1_555
H43G C58G 1_555 1_555
H19G C27G 1_555 1_555
C65G C61 1_555 1_555
H48G C65G 1_555 1_555
C31D Si1 1_555 1_555
C75D C31D 1_555 1_555
C66D C75D 1_555 1_555
C76D C66D 1_555 1_555
C67D C76D 1_555 1_555
C77D C67D 1_555 1_555
C68D C75D 1_555 1_555
C62D Si1 1_555 1_555
C78D C62D 1_555 1_555
C69D C78D 1_555 1_555
C79D C69D 1_555 1_555
C70D C79D 1_555 1_555
C80D C70D 1_555 1_555
C71D C78D 1_555 1_555
C4 C37 1_555 1_555
C5 C36 1_555 1_555
C8 C40 1_555 1_555
C9 C41 1_555 1_555
C12 C43 1_555 1_555
C12 N12 1_555 1_555
C15 C45 1_555 1_555
C17 C48 1_555 1_555
C18 C47 1_555 1_555
C21 C52 1_555 1_555
C24 C54 1_555 1_555
C25 C56 1_555 1_555
C26 C57 1_555 1_555
C29 C59 1_555 1_555
Pd3 Pd3G 1_555 1_555
N9 C34 1_555 1_555
C49 C51 1_555 1_555
N18 C72 1_555 1_555
C64 C74 1_555 1_555
C68 C77 1_555 1_555
C71 C80 1_555 1_555
N8G C65G 1_555 1_555
C49G N14G 1_555 1_555
C50G N6G 1_555 1_555
N6G Pd3G 1_555 1_555
Pd3G N15G 1_555 1_555
C52G C21G 1_555 1_555
N15G C24G 1_555 1_555
C54G C24G 1_555 1_555
C38G C61G 1_555 1_555
C7G N11G 1_555 1_555
C16G C47G 1_555 1_555
C17G C48G 1_555 1_555
C43G C12G 1_555 1_555
C13G N17G 1_555 1_555
C14G C44G 1_555 1_555
C41G C9G 1_555 1_555
C3G N1G 1_555 1_555
C32G N9G 1_555 1_555
C34G N9G 1_555 1_555
C5G C36G 1_555 1_555
C26G C57G 1_555 1_555
C59G C29G 1_555 1_555
C72G N18G 1_555 1_555
C73G C63G 1_555 1_555
C77D C68D 1_555 1_555
C80D C71D 1_555 1_555

#END
