# generated using pymatgen
data_H96Pd6C169(N7O8)6
_symmetry_space_group_name_H-M   'P 1'
_cell_length_a   28.08000000
_cell_length_b   28.08000000
_cell_length_c   34.09000000
_cell_angle_alpha   90.00000000
_cell_angle_beta   90.00000000
_cell_angle_gamma   120.00000000
_symmetry_Int_Tables_number   1
_chemical_formula_structural   H96Pd6C169(N7O8)6
_chemical_formula_sum   'H384 Pd24 C676 N168 O192'
_cell_volume   23278.33103267
_cell_formula_units_Z   4
loop_
 _symmetry_equiv_pos_site_id
 _symmetry_equiv_pos_as_xyz
  1  'x, y, z'
loop_
 _atom_site_type_symbol
 _atom_site_label
 _atom_site_symmetry_multiplicity
 _atom_site_fract_x
 _atom_site_fract_y
 _atom_site_fract_z
 _atom_site_occupancy
  H  H1  1  0.971400  0.512600  0.342400  1.0
  H  H2  1  0.541200  0.028600  0.342400  1.0
  H  H3  1  0.458800  0.487400  0.157600  1.0
  H  H4  1  0.487400  0.458800  0.342400  1.0
  H  H5  1  0.028600  0.541200  0.157600  1.0
  H  H6  1  0.512600  0.971400  0.157600  1.0
  H  H7  1  0.028600  0.487400  0.657600  1.0
  H  H8  1  0.458800  0.971400  0.657600  1.0
  H  H9  1  0.541200  0.512600  0.842400  1.0
  H  H10  1  0.512600  0.541200  0.657600  1.0
  H  H11  1  0.971400  0.458800  0.842400  1.0
  H  H12  1  0.487400  0.028600  0.842400  1.0
  H  H13  1  0.811500  0.486600  0.388600  1.0
  H  H14  1  0.675100  0.188500  0.388600  1.0
  H  H15  1  0.324900  0.513400  0.111400  1.0
  H  H16  1  0.513400  0.324900  0.388600  1.0
  H  H17  1  0.188500  0.675100  0.111400  1.0
  H  H18  1  0.486600  0.811500  0.111400  1.0
  H  H19  1  0.188500  0.513400  0.611400  1.0
  H  H20  1  0.324900  0.811500  0.611400  1.0
  H  H21  1  0.675100  0.486600  0.888600  1.0
  H  H22  1  0.486600  0.675100  0.611400  1.0
  H  H23  1  0.811500  0.324900  0.888600  1.0
  H  H24  1  0.513400  0.188500  0.888600  1.0
  H  H25  1  0.963000  0.401700  0.339300  1.0
  H  H26  1  0.438700  0.037000  0.339300  1.0
  H  H27  1  0.561300  0.598300  0.160700  1.0
  H  H28  1  0.598300  0.561300  0.339300  1.0
  H  H29  1  0.037000  0.438700  0.160700  1.0
  H  H30  1  0.401700  0.963000  0.160700  1.0
  H  H31  1  0.037000  0.598300  0.660700  1.0
  H  H32  1  0.561300  0.963000  0.660700  1.0
  H  H33  1  0.438700  0.401700  0.839300  1.0
  H  H34  1  0.401700  0.438700  0.660700  1.0
  H  H35  1  0.963000  0.561300  0.839300  1.0
  H  H36  1  0.598300  0.037000  0.839300  1.0
  H  H37  1  0.805300  0.276300  0.402900  1.0
  H  H38  1  0.471000  0.194700  0.402900  1.0
  H  H39  1  0.529000  0.723700  0.097100  1.0
  H  H40  1  0.723700  0.529000  0.402900  1.0
  H  H41  1  0.194700  0.471000  0.097100  1.0
  H  H42  1  0.276300  0.805300  0.097100  1.0
  H  H43  1  0.194700  0.723700  0.597100  1.0
  H  H44  1  0.529000  0.805300  0.597100  1.0
  H  H45  1  0.471000  0.276300  0.902900  1.0
  H  H46  1  0.276300  0.471000  0.597100  1.0
  H  H47  1  0.805300  0.529000  0.902900  1.0
  H  H48  1  0.723700  0.194700  0.902900  1.0
  H  H49  1  0.777800  0.622500  0.157900  1.0
  H  H50  1  0.844700  0.222200  0.157900  1.0
  H  H51  1  0.155300  0.377500  0.342100  1.0
  H  H52  1  0.377500  0.155300  0.157900  1.0
  H  H53  1  0.222200  0.844700  0.342100  1.0
  H  H54  1  0.622500  0.777800  0.342100  1.0
  H  H55  1  0.222200  0.377500  0.842100  1.0
  H  H56  1  0.155300  0.777800  0.842100  1.0
  H  H57  1  0.844700  0.622500  0.657900  1.0
  H  H58  1  0.622500  0.844700  0.842100  1.0
  H  H59  1  0.777800  0.155300  0.657900  1.0
  H  H60  1  0.377500  0.222200  0.657900  1.0
  H  H61  1  0.888700  0.580600  0.231500  1.0
  H  H62  1  0.691900  0.111300  0.231500  1.0
  H  H63  1  0.308100  0.419400  0.268500  1.0
  H  H64  1  0.419400  0.308100  0.231500  1.0
  H  H65  1  0.111300  0.691900  0.268500  1.0
  H  H66  1  0.580600  0.888700  0.268500  1.0
  H  H67  1  0.111300  0.419400  0.768500  1.0
  H  H68  1  0.308100  0.888700  0.768500  1.0
  H  H69  1  0.691900  0.580600  0.731500  1.0
  H  H70  1  0.580600  0.691900  0.768500  1.0
  H  H71  1  0.888700  0.308100  0.731500  1.0
  H  H72  1  0.419400  0.111300  0.731500  1.0
  H  H73  1  0.744700  0.564600  0.079100  1.0
  H  H74  1  0.819900  0.255300  0.079100  1.0
  H  H75  1  0.180100  0.435400  0.420900  1.0
  H  H76  1  0.435400  0.180100  0.079100  1.0
  H  H77  1  0.255300  0.819900  0.420900  1.0
  H  H78  1  0.564600  0.744700  0.420900  1.0
  H  H79  1  0.255300  0.435400  0.920900  1.0
  H  H80  1  0.180100  0.744700  0.920900  1.0
  H  H81  1  0.819900  0.564600  0.579100  1.0
  H  H82  1  0.564600  0.819900  0.920900  1.0
  H  H83  1  0.744700  0.180100  0.579100  1.0
  H  H84  1  0.435400  0.255300  0.579100  1.0
  H  H85  1  0.808000  0.442400  0.087000  1.0
  H  H86  1  0.634400  0.192000  0.087000  1.0
  H  H87  1  0.365600  0.557600  0.413000  1.0
  H  H88  1  0.557600  0.365600  0.087000  1.0
  H  H89  1  0.192000  0.634400  0.413000  1.0
  H  H90  1  0.442400  0.808000  0.413000  1.0
  H  H91  1  0.192000  0.557600  0.913000  1.0
  H  H92  1  0.365600  0.808000  0.913000  1.0
  H  H93  1  0.634400  0.442400  0.587000  1.0
  H  H94  1  0.442400  0.634400  0.913000  1.0
  H  H95  1  0.808000  0.365600  0.587000  1.0
  H  H96  1  0.557600  0.192000  0.587000  1.0
  H  H97  1  0.978900  0.570200  0.431400  1.0
  H  H98  1  0.591300  0.021100  0.431400  1.0
  H  H99  1  0.408700  0.429800  0.068600  1.0
  H  H100  1  0.429800  0.408700  0.431400  1.0
  H  H101  1  0.021100  0.591300  0.068600  1.0
  H  H102  1  0.570200  0.978900  0.068600  1.0
  H  H103  1  0.021100  0.429800  0.568600  1.0
  H  H104  1  0.408700  0.978900  0.568600  1.0
  H  H105  1  0.591300  0.570200  0.931400  1.0
  H  H106  1  0.570200  0.591300  0.568600  1.0
  H  H107  1  0.978900  0.408700  0.931400  1.0
  H  H108  1  0.429800  0.021100  0.931400  1.0
  H  H109  1  0.111900  0.656200  0.496800  1.0
  H  H110  1  0.544300  0.888100  0.496800  1.0
  H  H111  1  0.455700  0.343800  0.003200  1.0
  H  H112  1  0.343800  0.455700  0.496800  1.0
  H  H113  1  0.888100  0.544300  0.003200  1.0
  H  H114  1  0.656200  0.111900  0.003200  1.0
  H  H115  1  0.888100  0.343800  0.503200  1.0
  H  H116  1  0.455700  0.111900  0.503200  1.0
  H  H117  1  0.544300  0.656200  0.996800  1.0
  H  H118  1  0.656200  0.544300  0.503200  1.0
  H  H119  1  0.111900  0.455700  0.996800  1.0
  H  H120  1  0.343800  0.888100  0.996800  1.0
  H  H121  1  0.128400  0.502300  0.499600  1.0
  H  H122  1  0.373900  0.871600  0.499600  1.0
  H  H123  1  0.626100  0.497700  0.000400  1.0
  H  H124  1  0.497700  0.626100  0.499600  1.0
  H  H125  1  0.871600  0.373900  0.000400  1.0
  H  H126  1  0.502300  0.128400  0.000400  1.0
  H  H127  1  0.871600  0.497700  0.500400  1.0
  H  H128  1  0.626100  0.128400  0.500400  1.0
  H  H129  1  0.373900  0.502300  0.999600  1.0
  H  H130  1  0.502300  0.373900  0.500400  1.0
  H  H131  1  0.128400  0.626100  0.999600  1.0
  H  H132  1  0.497700  0.871600  0.999600  1.0
  H  H133  1  0.054100  0.345900  0.462000  1.0
  H  H134  1  0.291800  0.945900  0.462000  1.0
  H  H135  1  0.708200  0.654100  0.038000  1.0
  H  H136  1  0.654100  0.708200  0.462000  1.0
  H  H137  1  0.945900  0.291800  0.038000  1.0
  H  H138  1  0.345900  0.054100  0.038000  1.0
  H  H139  1  0.945900  0.654100  0.538000  1.0
  H  H140  1  0.708200  0.054100  0.538000  1.0
  H  H141  1  0.291800  0.345900  0.962000  1.0
  H  H142  1  0.345900  0.291800  0.538000  1.0
  H  H143  1  0.054100  0.708200  0.962000  1.0
  H  H144  1  0.654100  0.945900  0.962000  1.0
  H  H145  1  0.838300  0.601300  0.014900  1.0
  H  H146  1  0.763000  0.161700  0.014900  1.0
  H  H147  1  0.237000  0.398700  0.485100  1.0
  H  H148  1  0.398700  0.237000  0.014900  1.0
  H  H149  1  0.161700  0.763000  0.485100  1.0
  H  H150  1  0.601300  0.838300  0.485100  1.0
  H  H151  1  0.161700  0.398700  0.985100  1.0
  H  H152  1  0.237000  0.838300  0.985100  1.0
  H  H153  1  0.763000  0.601300  0.514900  1.0
  H  H154  1  0.601300  0.763000  0.985100  1.0
  H  H155  1  0.838300  0.237000  0.514900  1.0
  H  H156  1  0.398700  0.161700  0.514900  1.0
  H  H157  1  0.959200  0.717100  0.950400  1.0
  H  H158  1  0.757900  0.040800  0.950400  1.0
  H  H159  1  0.242100  0.282900  0.549600  1.0
  H  H160  1  0.282900  0.242100  0.950400  1.0
  H  H161  1  0.040800  0.757900  0.549600  1.0
  H  H162  1  0.717100  0.959200  0.549600  1.0
  H  H163  1  0.040800  0.282900  0.049600  1.0
  H  H164  1  0.242100  0.959200  0.049600  1.0
  H  H165  1  0.757900  0.717100  0.450400  1.0
  H  H166  1  0.717100  0.757900  0.049600  1.0
  H  H167  1  0.959200  0.242100  0.450400  1.0
  H  H168  1  0.282900  0.040800  0.450400  1.0
  H  H169  1  0.033200  0.807300  0.064900  1.0
  H  H170  1  0.774100  0.966800  0.064900  1.0
  H  H171  1  0.225900  0.192700  0.435100  1.0
  H  H172  1  0.192700  0.225900  0.064900  1.0
  H  H173  1  0.966800  0.774100  0.435100  1.0
  H  H174  1  0.807300  0.033200  0.435100  1.0
  H  H175  1  0.966800  0.192700  0.935100  1.0
  H  H176  1  0.225900  0.033200  0.935100  1.0
  H  H177  1  0.774100  0.807300  0.564900  1.0
  H  H178  1  0.807300  0.774100  0.935100  1.0
  H  H179  1  0.033200  0.225900  0.564900  1.0
  H  H180  1  0.192700  0.966800  0.564900  1.0
  H  H181  1  0.000600  0.805400  0.178200  1.0
  H  H182  1  0.804800  0.999400  0.178200  1.0
  H  H183  1  0.195200  0.194600  0.321800  1.0
  H  H184  1  0.194600  0.195200  0.178200  1.0
  H  H185  1  0.999400  0.804800  0.321800  1.0
  H  H186  1  0.805400  0.000600  0.321800  1.0
  H  H187  1  0.999400  0.194600  0.821800  1.0
  H  H188  1  0.195200  0.000600  0.821800  1.0
  H  H189  1  0.804800  0.805400  0.678200  1.0
  H  H190  1  0.805400  0.804800  0.821800  1.0
  H  H191  1  0.000600  0.195200  0.678200  1.0
  H  H192  1  0.194600  0.999400  0.678200  1.0
  H  H193  1  0.919300  0.541200  0.309200  1.0
  H  H194  1  0.621900  0.080700  0.309200  1.0
  H  H195  1  0.378100  0.458800  0.190800  1.0
  H  H196  1  0.458800  0.378100  0.309200  1.0
  H  H197  1  0.080700  0.621900  0.190800  1.0
  H  H198  1  0.541200  0.919300  0.190800  1.0
  H  H199  1  0.080700  0.458800  0.690800  1.0
  H  H200  1  0.378100  0.919300  0.690800  1.0
  H  H201  1  0.621900  0.541200  0.809200  1.0
  H  H202  1  0.541200  0.621900  0.690800  1.0
  H  H203  1  0.919300  0.378100  0.809200  1.0
  H  H204  1  0.458800  0.080700  0.809200  1.0
  H  H205  1  0.865000  0.457500  0.429100  1.0
  H  H206  1  0.592500  0.135000  0.429100  1.0
  H  H207  1  0.407500  0.542500  0.070900  1.0
  H  H208  1  0.542500  0.407500  0.429100  1.0
  H  H209  1  0.135000  0.592500  0.070900  1.0
  H  H210  1  0.457500  0.865000  0.070900  1.0
  H  H211  1  0.135000  0.542500  0.570900  1.0
  H  H212  1  0.407500  0.865000  0.570900  1.0
  H  H213  1  0.592500  0.457500  0.929100  1.0
  H  H214  1  0.457500  0.592500  0.570900  1.0
  H  H215  1  0.865000  0.407500  0.929100  1.0
  H  H216  1  0.542500  0.135000  0.929100  1.0
  H  H217  1  0.896400  0.327700  0.304200  1.0
  H  H218  1  0.431300  0.103600  0.304200  1.0
  H  H219  1  0.568700  0.672300  0.195800  1.0
  H  H220  1  0.672300  0.568700  0.304200  1.0
  H  H221  1  0.103600  0.431300  0.195800  1.0
  H  H222  1  0.327700  0.896400  0.195800  1.0
  H  H223  1  0.103600  0.672300  0.695800  1.0
  H  H224  1  0.568700  0.896400  0.695800  1.0
  H  H225  1  0.431300  0.327700  0.804200  1.0
  H  H226  1  0.327700  0.431300  0.695800  1.0
  H  H227  1  0.896400  0.568700  0.804200  1.0
  H  H228  1  0.672300  0.103600  0.804200  1.0
  H  H229  1  0.871600  0.353600  0.433600  1.0
  H  H230  1  0.482000  0.128400  0.433600  1.0
  H  H231  1  0.518000  0.646400  0.066400  1.0
  H  H232  1  0.646400  0.518000  0.433600  1.0
  H  H233  1  0.128400  0.482000  0.066400  1.0
  H  H234  1  0.353600  0.871600  0.066400  1.0
  H  H235  1  0.128400  0.646400  0.566400  1.0
  H  H236  1  0.518000  0.871600  0.566400  1.0
  H  H237  1  0.482000  0.353600  0.933600  1.0
  H  H238  1  0.353600  0.482000  0.566400  1.0
  H  H239  1  0.871600  0.518000  0.933600  1.0
  H  H240  1  0.646400  0.128400  0.933600  1.0
  H  H241  1  0.754100  0.595200  0.221700  1.0
  H  H242  1  0.841100  0.245900  0.221700  1.0
  H  H243  1  0.158900  0.404800  0.278300  1.0
  H  H244  1  0.404800  0.158900  0.221700  1.0
  H  H245  1  0.245900  0.841100  0.278300  1.0
  H  H246  1  0.595200  0.754100  0.278300  1.0
  H  H247  1  0.245900  0.404800  0.778300  1.0
  H  H248  1  0.158900  0.754100  0.778300  1.0
  H  H249  1  0.841100  0.595200  0.721700  1.0
  H  H250  1  0.595200  0.841100  0.778300  1.0
  H  H251  1  0.754100  0.158900  0.721700  1.0
  H  H252  1  0.404800  0.245900  0.721700  1.0
  H  H253  1  0.910100  0.609800  0.167600  1.0
  H  H254  1  0.699700  0.089900  0.167600  1.0
  H  H255  1  0.300300  0.390200  0.332400  1.0
  H  H256  1  0.390200  0.300300  0.167600  1.0
  H  H257  1  0.089900  0.699700  0.332400  1.0
  H  H258  1  0.609800  0.910100  0.332400  1.0
  H  H259  1  0.089900  0.390200  0.832400  1.0
  H  H260  1  0.300300  0.910100  0.832400  1.0
  H  H261  1  0.699700  0.609800  0.667600  1.0
  H  H262  1  0.609800  0.699700  0.832400  1.0
  H  H263  1  0.910100  0.300300  0.667600  1.0
  H  H264  1  0.390200  0.089900  0.667600  1.0
  H  H265  1  0.683100  0.471900  0.072900  1.0
  H  H266  1  0.788800  0.316900  0.072900  1.0
  H  H267  1  0.211200  0.528100  0.427100  1.0
  H  H268  1  0.528100  0.211200  0.072900  1.0
  H  H269  1  0.316900  0.788800  0.427100  1.0
  H  H270  1  0.471900  0.683100  0.427100  1.0
  H  H271  1  0.316900  0.528100  0.927100  1.0
  H  H272  1  0.211200  0.683100  0.927100  1.0
  H  H273  1  0.788800  0.471900  0.572900  1.0
  H  H274  1  0.471900  0.788800  0.927100  1.0
  H  H275  1  0.683100  0.211200  0.572900  1.0
  H  H276  1  0.528100  0.316900  0.572900  1.0
  H  H277  1  0.865700  0.535700  0.095800  1.0
  H  H278  1  0.670000  0.134300  0.095800  1.0
  H  H279  1  0.330000  0.464300  0.404200  1.0
  H  H280  1  0.464300  0.330000  0.095800  1.0
  H  H281  1  0.134300  0.670000  0.404200  1.0
  H  H282  1  0.535700  0.865700  0.404200  1.0
  H  H283  1  0.134300  0.464300  0.904200  1.0
  H  H284  1  0.330000  0.865700  0.904200  1.0
  H  H285  1  0.670000  0.535700  0.595800  1.0
  H  H286  1  0.535700  0.670000  0.904200  1.0
  H  H287  1  0.865700  0.330000  0.595800  1.0
  H  H288  1  0.464300  0.134300  0.595800  1.0
  H  H289  1  0.037400  0.650000  0.464000  1.0
  H  H290  1  0.612600  0.962600  0.464000  1.0
  H  H291  1  0.387400  0.350000  0.036000  1.0
  H  H292  1  0.350000  0.387400  0.464000  1.0
  H  H293  1  0.962600  0.612600  0.036000  1.0
  H  H294  1  0.650000  0.037400  0.036000  1.0
  H  H295  1  0.962600  0.350000  0.536000  1.0
  H  H296  1  0.387400  0.037400  0.536000  1.0
  H  H297  1  0.612600  0.650000  0.964000  1.0
  H  H298  1  0.650000  0.612600  0.536000  1.0
  H  H299  1  0.037400  0.387400  0.964000  1.0
  H  H300  1  0.350000  0.962600  0.964000  1.0
  H  H301  1  0.125800  0.581100  0.498700  1.0
  H  H302  1  0.455300  0.874200  0.498700  1.0
  H  H303  1  0.544700  0.418900  0.001300  1.0
  H  H304  1  0.418900  0.544700  0.498700  1.0
  H  H305  1  0.874200  0.455300  0.001300  1.0
  H  H306  1  0.581100  0.125800  0.001300  1.0
  H  H307  1  0.874200  0.418900  0.501300  1.0
  H  H308  1  0.544700  0.125800  0.501300  1.0
  H  H309  1  0.455300  0.581100  0.998700  1.0
  H  H310  1  0.581100  0.455300  0.501300  1.0
  H  H311  1  0.125800  0.544700  0.998700  1.0
  H  H312  1  0.418900  0.874200  0.998700  1.0
  H  H313  1  0.124000  0.417800  0.498100  1.0
  H  H314  1  0.293800  0.876000  0.498100  1.0
  H  H315  1  0.706200  0.582200  0.001900  1.0
  H  H316  1  0.582200  0.706200  0.498100  1.0
  H  H317  1  0.876000  0.293800  0.001900  1.0
  H  H318  1  0.417800  0.124000  0.001900  1.0
  H  H319  1  0.876000  0.582200  0.501900  1.0
  H  H320  1  0.706200  0.124000  0.501900  1.0
  H  H321  1  0.293800  0.417800  0.998100  1.0
  H  H322  1  0.417800  0.293800  0.501900  1.0
  H  H323  1  0.124000  0.706200  0.998100  1.0
  H  H324  1  0.582200  0.876000  0.998100  1.0
  H  H325  1  0.990900  0.360200  0.429800  1.0
  H  H326  1  0.369300  0.009100  0.429800  1.0
  H  H327  1  0.630700  0.639800  0.070200  1.0
  H  H328  1  0.639800  0.630700  0.429800  1.0
  H  H329  1  0.009100  0.369300  0.070200  1.0
  H  H330  1  0.360200  0.990900  0.070200  1.0
  H  H331  1  0.009100  0.639800  0.570200  1.0
  H  H332  1  0.630700  0.990900  0.570200  1.0
  H  H333  1  0.369300  0.360200  0.929800  1.0
  H  H334  1  0.360200  0.369300  0.570200  1.0
  H  H335  1  0.990900  0.630700  0.929800  1.0
  H  H336  1  0.639800  0.009100  0.929800  1.0
  H  H337  1  0.879100  0.634600  0.954700  1.0
  H  H338  1  0.755500  0.120900  0.954700  1.0
  H  H339  1  0.244500  0.365400  0.545300  1.0
  H  H340  1  0.365400  0.244500  0.954700  1.0
  H  H341  1  0.120900  0.755500  0.545300  1.0
  H  H342  1  0.634600  0.879100  0.545300  1.0
  H  H343  1  0.120900  0.365400  0.045300  1.0
  H  H344  1  0.244500  0.879100  0.045300  1.0
  H  H345  1  0.755500  0.634600  0.454700  1.0
  H  H346  1  0.634600  0.755500  0.045300  1.0
  H  H347  1  0.879100  0.244500  0.454700  1.0
  H  H348  1  0.365400  0.120900  0.454700  1.0
  H  H349  1  0.998600  0.767200  0.006800  1.0
  H  H350  1  0.768600  0.001400  0.006800  1.0
  H  H351  1  0.231400  0.232800  0.493200  1.0
  H  H352  1  0.232800  0.231400  0.006800  1.0
  H  H353  1  0.001400  0.768600  0.493200  1.0
  H  H354  1  0.767200  0.998600  0.493200  1.0
  H  H355  1  0.001400  0.232800  0.993200  1.0
  H  H356  1  0.231400  0.998600  0.993200  1.0
  H  H357  1  0.768600  0.767200  0.506800  1.0
  H  H358  1  0.767200  0.768600  0.993200  1.0
  H  H359  1  0.998600  0.231400  0.506800  1.0
  H  H360  1  0.232800  0.001400  0.506800  1.0
  H  H361  1  0.056100  0.848700  0.124500  1.0
  H  H362  1  0.792600  0.943900  0.124500  1.0
  H  H363  1  0.207400  0.151300  0.375500  1.0
  H  H364  1  0.151300  0.207400  0.124500  1.0
  H  H365  1  0.943900  0.792600  0.375500  1.0
  H  H366  1  0.848700  0.056100  0.375500  1.0
  H  H367  1  0.943900  0.151300  0.875500  1.0
  H  H368  1  0.207400  0.056100  0.875500  1.0
  H  H369  1  0.792600  0.848700  0.624500  1.0
  H  H370  1  0.848700  0.792600  0.875500  1.0
  H  H371  1  0.056100  0.207400  0.624500  1.0
  H  H372  1  0.151300  0.943900  0.624500  1.0
  H  H373  1  0.918700  0.723600  0.167900  1.0
  H  H374  1  0.804900  0.081300  0.167900  1.0
  H  H375  1  0.195100  0.276400  0.332100  1.0
  H  H376  1  0.276400  0.195100  0.167900  1.0
  H  H377  1  0.081300  0.804900  0.332100  1.0
  H  H378  1  0.723600  0.918700  0.332100  1.0
  H  H379  1  0.081300  0.276400  0.832100  1.0
  H  H380  1  0.195100  0.918700  0.832100  1.0
  H  H381  1  0.804900  0.723600  0.667900  1.0
  H  H382  1  0.723600  0.804900  0.832100  1.0
  H  H383  1  0.918700  0.195100  0.667900  1.0
  H  H384  1  0.276400  0.081300  0.667900  1.0
  Pd  Pd385  1  0.970300  0.457500  0.416900  1.0
  Pd  Pd386  1  0.487200  0.029700  0.416900  1.0
  Pd  Pd387  1  0.512800  0.542500  0.083100  1.0
  Pd  Pd388  1  0.542500  0.512800  0.416900  1.0
  Pd  Pd389  1  0.029700  0.487200  0.083100  1.0
  Pd  Pd390  1  0.457500  0.970300  0.083100  1.0
  Pd  Pd391  1  0.029700  0.542500  0.583100  1.0
  Pd  Pd392  1  0.512800  0.970300  0.583100  1.0
  Pd  Pd393  1  0.487200  0.457500  0.916900  1.0
  Pd  Pd394  1  0.457500  0.487200  0.583100  1.0
  Pd  Pd395  1  0.970300  0.512800  0.916900  1.0
  Pd  Pd396  1  0.542500  0.029700  0.916900  1.0
  Pd  Pd397  1  0.866400  0.639000  0.100800  1.0
  Pd  Pd398  1  0.772600  0.133600  0.100800  1.0
  Pd  Pd399  1  0.227400  0.361000  0.399200  1.0
  Pd  Pd400  1  0.361000  0.227400  0.100800  1.0
  Pd  Pd401  1  0.133600  0.772600  0.399200  1.0
  Pd  Pd402  1  0.639000  0.866400  0.399200  1.0
  Pd  Pd403  1  0.133600  0.361000  0.899200  1.0
  Pd  Pd404  1  0.227400  0.866400  0.899200  1.0
  Pd  Pd405  1  0.772600  0.639000  0.600800  1.0
  Pd  Pd406  1  0.639000  0.772600  0.899200  1.0
  Pd  Pd407  1  0.866400  0.227400  0.600800  1.0
  Pd  Pd408  1  0.361000  0.133600  0.600800  1.0
  C  C409  1  0.333333  0.666667  0.645500  1
  C  C410  1  0.666667  0.333333  0.854500  1
  C  C411  1  0.666667  0.333333  0.354500  1
  C  C412  1  0.333333  0.666667  0.145500  1
  C  C413  1  0.318000  0.686200  0.685900  1
  C  C414  1  0.368200  0.682000  0.685900  1
  C  C415  1  0.631800  0.313800  0.814100  1
  C  C416  1  0.313800  0.631800  0.685900  1
  C  C417  1  0.682000  0.368200  0.814100  1
  C  C418  1  0.686200  0.318000  0.814100  1
  C  C419  1  0.682000  0.313800  0.314100  1
  C  C420  1  0.631800  0.318000  0.314100  1
  C  C421  1  0.368200  0.686200  0.185900  1
  C  C422  1  0.686200  0.368200  0.314100  1
  C  C423  1  0.318000  0.631800  0.185900  1
  C  C424  1  0.313800  0.682000  0.185900  1
  C  C425  1  0.408500  0.840500  0.745500  1
  C  C426  1  0.432000  0.591500  0.745500  1
  C  C427  1  0.568000  0.159500  0.754500  1
  C  C428  1  0.159500  0.568000  0.745500  1
  C  C429  1  0.591500  0.432000  0.754500  1
  C  C430  1  0.840500  0.408500  0.754500  1
  C  C431  1  0.591500  0.159500  0.254500  1
  C  C432  1  0.568000  0.408500  0.254500  1
  C  C433  1  0.432000  0.840500  0.245500  1
  C  C434  1  0.840500  0.432000  0.254500  1
  C  C435  1  0.408500  0.568000  0.245500  1
  C  C436  1  0.159500  0.591500  0.245500  1
  C  C437  1  0.400800  0.770500  0.818100  1
  C  C438  1  0.369700  0.599200  0.818100  1
  C  C439  1  0.630300  0.229500  0.681900  1
  C  C440  1  0.229500  0.630300  0.818100  1
  C  C441  1  0.599200  0.369700  0.681900  1
  C  C442  1  0.770500  0.400800  0.681900  1
  C  C443  1  0.599200  0.229500  0.181900  1
  C  C444  1  0.630300  0.400800  0.181900  1
  C  C445  1  0.369700  0.770500  0.318100  1
  C  C446  1  0.770500  0.369700  0.181900  1
  C  C447  1  0.400800  0.630300  0.318100  1
  C  C448  1  0.229500  0.599200  0.318100  1
  C  C449  1  0.469000  0.822000  0.765900  1
  C  C450  1  0.353000  0.531000  0.765900  1
  C  C451  1  0.647000  0.178000  0.734100  1
  C  C452  1  0.178000  0.647000  0.765900  1
  C  C453  1  0.531000  0.353000  0.734100  1
  C  C454  1  0.822000  0.469000  0.734100  1
  C  C455  1  0.531000  0.178000  0.234100  1
  C  C456  1  0.647000  0.469000  0.234100  1
  C  C457  1  0.353000  0.822000  0.265900  1
  C  C458  1  0.822000  0.353000  0.234100  1
  C  C459  1  0.469000  0.647000  0.265900  1
  C  C460  1  0.178000  0.531000  0.265900  1
  C  C461  1  0.373700  0.732400  0.708300  1
  C  C462  1  0.358700  0.626300  0.708300  1
  C  C463  1  0.641300  0.267600  0.791700  1
  C  C464  1  0.267600  0.641300  0.708300  1
  C  C465  1  0.626300  0.358700  0.791700  1
  C  C466  1  0.732400  0.373700  0.791700  1
  C  C467  1  0.626300  0.267600  0.291700  1
  C  C468  1  0.641300  0.373700  0.291700  1
  C  C469  1  0.358700  0.732400  0.208300  1
  C  C470  1  0.732400  0.358700  0.291700  1
  C  C471  1  0.373700  0.641300  0.208300  1
  C  C472  1  0.267600  0.626300  0.208300  1
  C  C473  1  0.386300  0.717500  0.628900  1
  C  C474  1  0.331200  0.613700  0.628900  1
  C  C475  1  0.668800  0.282500  0.871100  1
  C  C476  1  0.282500  0.668800  0.628900  1
  C  C477  1  0.613700  0.331200  0.871100  1
  C  C478  1  0.717500  0.386300  0.871100  1
  C  C479  1  0.613700  0.282500  0.371100  1
  C  C480  1  0.668800  0.386300  0.371100  1
  C  C481  1  0.331200  0.717500  0.128900  1
  C  C482  1  0.717500  0.331200  0.371100  1
  C  C483  1  0.386300  0.668800  0.128900  1
  C  C484  1  0.282500  0.613700  0.128900  1
  C  C485  1  0.938900  0.507400  0.353600  1.0
  C  C486  1  0.568500  0.061100  0.353600  1.0
  C  C487  1  0.431500  0.492600  0.146400  1.0
  C  C488  1  0.492600  0.431500  0.353600  1.0
  C  C489  1  0.061100  0.568500  0.146400  1.0
  C  C490  1  0.507400  0.938900  0.146400  1.0
  C  C491  1  0.061100  0.492600  0.646400  1.0
  C  C492  1  0.431500  0.938900  0.646400  1.0
  C  C493  1  0.568500  0.507400  0.853600  1.0
  C  C494  1  0.507400  0.568500  0.646400  1.0
  C  C495  1  0.938900  0.431500  0.853600  1.0
  C  C496  1  0.492600  0.061100  0.853600  1.0
  C  C497  1  0.859700  0.517900  0.350700  1.0
  C  C498  1  0.658200  0.140300  0.350700  1.0
  C  C499  1  0.341800  0.482100  0.149300  1.0
  C  C500  1  0.482100  0.341800  0.350700  1.0
  C  C501  1  0.140300  0.658200  0.149300  1.0
  C  C502  1  0.517900  0.859700  0.149300  1.0
  C  C503  1  0.140300  0.482100  0.649300  1.0
  C  C504  1  0.341800  0.859700  0.649300  1.0
  C  C505  1  0.658200  0.517900  0.850700  1.0
  C  C506  1  0.517900  0.658200  0.649300  1.0
  C  C507  1  0.859700  0.341800  0.850700  1.0
  C  C508  1  0.482100  0.140300  0.850700  1.0
  C  C509  1  0.876100  0.475100  0.404900  1.0
  C  C510  1  0.599000  0.123900  0.404900  1.0
  C  C511  1  0.401000  0.524900  0.095100  1.0
  C  C512  1  0.524900  0.401000  0.404900  1.0
  C  C513  1  0.123900  0.599000  0.095100  1.0
  C  C514  1  0.475100  0.876100  0.095100  1.0
  C  C515  1  0.123900  0.524900  0.595100  1.0
  C  C516  1  0.401000  0.876100  0.595100  1.0
  C  C517  1  0.599000  0.475100  0.904900  1.0
  C  C518  1  0.475100  0.599000  0.595100  1.0
  C  C519  1  0.876100  0.401000  0.904900  1.0
  C  C520  1  0.524900  0.123900  0.904900  1.0
  C  C521  1  0.930400  0.376800  0.351700  1.0
  C  C522  1  0.446400  0.069600  0.351700  1.0
  C  C523  1  0.553600  0.623200  0.148300  1.0
  C  C524  1  0.623200  0.553600  0.351700  1.0
  C  C525  1  0.069600  0.446400  0.148300  1.0
  C  C526  1  0.376800  0.930400  0.148300  1.0
  C  C527  1  0.069600  0.623200  0.648300  1.0
  C  C528  1  0.553600  0.930400  0.648300  1.0
  C  C529  1  0.446400  0.376800  0.851700  1.0
  C  C530  1  0.376800  0.446400  0.648300  1.0
  C  C531  1  0.930400  0.553600  0.851700  1.0
  C  C532  1  0.623200  0.069600  0.851700  1.0
  C  C533  1  0.842400  0.293700  0.349700  1.0
  C  C534  1  0.451300  0.157600  0.349700  1.0
  C  C535  1  0.548700  0.706300  0.150300  1.0
  C  C536  1  0.706300  0.548700  0.349700  1.0
  C  C537  1  0.157600  0.451300  0.150300  1.0
  C  C538  1  0.293700  0.842400  0.150300  1.0
  C  C539  1  0.157600  0.706300  0.650300  1.0
  C  C540  1  0.548700  0.842400  0.650300  1.0
  C  C541  1  0.451300  0.293700  0.849700  1.0
  C  C542  1  0.293700  0.451300  0.650300  1.0
  C  C543  1  0.842400  0.548700  0.849700  1.0
  C  C544  1  0.706300  0.157600  0.849700  1.0
  C  C545  1  0.876500  0.347800  0.407400  1.0
  C  C546  1  0.471300  0.123500  0.407400  1.0
  C  C547  1  0.528700  0.652200  0.092600  1.0
  C  C548  1  0.652200  0.528700  0.407400  1.0
  C  C549  1  0.123500  0.471300  0.092600  1.0
  C  C550  1  0.347800  0.876500  0.092600  1.0
  C  C551  1  0.123500  0.652200  0.592600  1.0
  C  C552  1  0.528700  0.876500  0.592600  1.0
  C  C553  1  0.471300  0.347800  0.907400  1.0
  C  C554  1  0.347800  0.471300  0.592600  1.0
  C  C555  1  0.876500  0.528700  0.907400  1.0
  C  C556  1  0.652200  0.123500  0.907400  1.0
  C  C557  1  0.800300  0.614200  0.173100  1.0
  C  C558  1  0.813900  0.199700  0.173100  1.0
  C  C559  1  0.186100  0.385800  0.326900  1.0
  C  C560  1  0.385800  0.186100  0.173100  1.0
  C  C561  1  0.199700  0.813900  0.326900  1.0
  C  C562  1  0.614200  0.800300  0.326900  1.0
  C  C563  1  0.199700  0.385800  0.826900  1.0
  C  C564  1  0.186100  0.800300  0.826900  1.0
  C  C565  1  0.813900  0.614200  0.673100  1.0
  C  C566  1  0.614200  0.813900  0.826900  1.0
  C  C567  1  0.800300  0.186100  0.673100  1.0
  C  C568  1  0.385800  0.199700  0.673100  1.0
  C  C569  1  0.818900  0.585900  0.234200  1.0
  C  C570  1  0.767000  0.181100  0.234200  1.0
  C  C571  1  0.233000  0.414100  0.265800  1.0
  C  C572  1  0.414100  0.233000  0.234200  1.0
  C  C573  1  0.181100  0.767000  0.265800  1.0
  C  C574  1  0.585900  0.818900  0.265800  1.0
  C  C575  1  0.181100  0.414100  0.765800  1.0
  C  C576  1  0.233000  0.818900  0.765800  1.0
  C  C577  1  0.767000  0.585900  0.734200  1.0
  C  C578  1  0.585900  0.767000  0.765800  1.0
  C  C579  1  0.818900  0.233000  0.734200  1.0
  C  C580  1  0.414100  0.181100  0.734200  1.0
  C  C581  1  0.878400  0.606400  0.178900  1.0
  C  C582  1  0.728000  0.121600  0.178900  1.0
  C  C583  1  0.272000  0.393600  0.321100  1.0
  C  C584  1  0.393600  0.272000  0.178900  1.0
  C  C585  1  0.121600  0.728000  0.321100  1.0
  C  C586  1  0.606400  0.878400  0.321100  1.0
  C  C587  1  0.121600  0.393600  0.821100  1.0
  C  C588  1  0.272000  0.878400  0.821100  1.0
  C  C589  1  0.728000  0.606400  0.678900  1.0
  C  C590  1  0.606400  0.728000  0.821100  1.0
  C  C591  1  0.878400  0.272000  0.678900  1.0
  C  C592  1  0.393600  0.121600  0.678900  1.0
  C  C593  1  0.757400  0.539800  0.081300  1.0
  C  C594  1  0.782400  0.242600  0.081300  1.0
  C  C595  1  0.217600  0.460200  0.418700  1.0
  C  C596  1  0.460200  0.217600  0.081300  1.0
  C  C597  1  0.242600  0.782400  0.418700  1.0
  C  C598  1  0.539800  0.757400  0.418700  1.0
  C  C599  1  0.242600  0.460200  0.918700  1.0
  C  C600  1  0.217600  0.757400  0.918700  1.0
  C  C601  1  0.782400  0.539800  0.581300  1.0
  C  C602  1  0.539800  0.782400  0.918700  1.0
  C  C603  1  0.757400  0.217600  0.581300  1.0
  C  C604  1  0.460200  0.242600  0.581300  1.0
  C  C605  1  0.739000  0.446800  0.078800  1.0
  C  C606  1  0.707800  0.261000  0.078800  1.0
  C  C607  1  0.292200  0.553200  0.421200  1.0
  C  C608  1  0.553200  0.292200  0.078800  1.0
  C  C609  1  0.261000  0.707800  0.421200  1.0
  C  C610  1  0.446800  0.739000  0.421200  1.0
  C  C611  1  0.261000  0.553200  0.921200  1.0
  C  C612  1  0.292200  0.739000  0.921200  1.0
  C  C613  1  0.707800  0.446800  0.578800  1.0
  C  C614  1  0.446800  0.707800  0.921200  1.0
  C  C615  1  0.739000  0.292200  0.578800  1.0
  C  C616  1  0.553200  0.261000  0.578800  1.0
  C  C617  1  0.828600  0.522600  0.090700  1.0
  C  C618  1  0.694000  0.171400  0.090700  1.0
  C  C619  1  0.306000  0.477400  0.409300  1.0
  C  C620  1  0.477400  0.306000  0.090700  1.0
  C  C621  1  0.171400  0.694000  0.409300  1.0
  C  C622  1  0.522600  0.828600  0.409300  1.0
  C  C623  1  0.171400  0.477400  0.909300  1.0
  C  C624  1  0.306000  0.828600  0.909300  1.0
  C  C625  1  0.694000  0.522600  0.590700  1.0
  C  C626  1  0.522600  0.694000  0.909300  1.0
  C  C627  1  0.828600  0.306000  0.590700  1.0
  C  C628  1  0.477400  0.171400  0.590700  1.0
  C  C629  1  0.008500  0.572400  0.445100  1.0
  C  C630  1  0.563900  0.991500  0.445100  1.0
  C  C631  1  0.436100  0.427600  0.054900  1.0
  C  C632  1  0.427600  0.436100  0.445100  1.0
  C  C633  1  0.991500  0.563900  0.054900  1.0
  C  C634  1  0.572400  0.008500  0.054900  1.0
  C  C635  1  0.991500  0.427600  0.554900  1.0
  C  C636  1  0.436100  0.008500  0.554900  1.0
  C  C637  1  0.563900  0.572400  0.945100  1.0
  C  C638  1  0.572400  0.563900  0.554900  1.0
  C  C639  1  0.008500  0.436100  0.945100  1.0
  C  C640  1  0.427600  0.991500  0.945100  1.0
  C  C641  1  0.087400  0.623600  0.484100  1.0
  C  C642  1  0.536200  0.912600  0.484100  1.0
  C  C643  1  0.463800  0.376400  0.015900  1.0
  C  C644  1  0.376400  0.463800  0.484100  1.0
  C  C645  1  0.912600  0.536200  0.015900  1.0
  C  C646  1  0.623600  0.087400  0.015900  1.0
  C  C647  1  0.912600  0.376400  0.515900  1.0
  C  C648  1  0.463800  0.087400  0.515900  1.0
  C  C649  1  0.536200  0.623600  0.984100  1.0
  C  C650  1  0.623600  0.536200  0.515900  1.0
  C  C651  1  0.087400  0.463800  0.984100  1.0
  C  C652  1  0.376400  0.912600  0.984100  1.0
  C  C653  1  0.058900  0.531200  0.466300  1.0
  C  C654  1  0.472300  0.941100  0.466300  1.0
  C  C655  1  0.527700  0.468800  0.033700  1.0
  C  C656  1  0.468800  0.527700  0.466300  1.0
  C  C657  1  0.941100  0.472300  0.033700  1.0
  C  C658  1  0.531200  0.058900  0.033700  1.0
  C  C659  1  0.941100  0.468800  0.533700  1.0
  C  C660  1  0.527700  0.058900  0.533700  1.0
  C  C661  1  0.472300  0.531200  0.966300  1.0
  C  C662  1  0.531200  0.472300  0.533700  1.0
  C  C663  1  0.058900  0.527700  0.966300  1.0
  C  C664  1  0.468800  0.941100  0.966300  1.0
  C  C665  1  0.100600  0.473300  0.485800  1.0
  C  C666  1  0.372700  0.899400  0.485800  1.0
  C  C667  1  0.627300  0.526700  0.014200  1.0
  C  C668  1  0.526700  0.627300  0.485800  1.0
  C  C669  1  0.899400  0.372700  0.014200  1.0
  C  C670  1  0.473300  0.100600  0.014200  1.0
  C  C671  1  0.899400  0.526700  0.514200  1.0
  C  C672  1  0.627300  0.100600  0.514200  1.0
  C  C673  1  0.372700  0.473300  0.985800  1.0
  C  C674  1  0.473300  0.372700  0.514200  1.0
  C  C675  1  0.100600  0.627300  0.985800  1.0
  C  C676  1  0.526700  0.899400  0.985800  1.0
  C  C677  1  0.056300  0.380000  0.463300  1.0
  C  C678  1  0.323700  0.943700  0.463300  1.0
  C  C679  1  0.676300  0.620000  0.036700  1.0
  C  C680  1  0.620000  0.676300  0.463300  1.0
  C  C681  1  0.943700  0.323700  0.036700  1.0
  C  C682  1  0.380000  0.056300  0.036700  1.0
  C  C683  1  0.943700  0.620000  0.536700  1.0
  C  C684  1  0.676300  0.056300  0.536700  1.0
  C  C685  1  0.323700  0.380000  0.963300  1.0
  C  C686  1  0.380000  0.323700  0.536700  1.0
  C  C687  1  0.056300  0.676300  0.963300  1.0
  C  C688  1  0.620000  0.943700  0.963300  1.0
  C  C689  1  0.870900  0.634900  0.013400  1.0
  C  C690  1  0.764000  0.129100  0.013400  1.0
  C  C691  1  0.236000  0.365100  0.486600  1.0
  C  C692  1  0.365100  0.236000  0.013400  1.0
  C  C693  1  0.129100  0.764000  0.486600  1.0
  C  C694  1  0.634900  0.870900  0.486600  1.0
  C  C695  1  0.129100  0.365100  0.986600  1.0
  C  C696  1  0.236000  0.870900  0.986600  1.0
  C  C697  1  0.764000  0.634900  0.513400  1.0
  C  C698  1  0.634900  0.764000  0.986600  1.0
  C  C699  1  0.870900  0.236000  0.513400  1.0
  C  C700  1  0.365100  0.129100  0.513400  1.0
  C  C701  1  0.942700  0.703800  0.974600  1.0
  C  C702  1  0.761100  0.057300  0.974600  1.0
  C  C703  1  0.238900  0.296200  0.525400  1.0
  C  C704  1  0.296200  0.238900  0.974600  1.0
  C  C705  1  0.057300  0.761100  0.525400  1.0
  C  C706  1  0.703800  0.942700  0.525400  1.0
  C  C707  1  0.057300  0.296200  0.025400  1.0
  C  C708  1  0.238900  0.942700  0.025400  1.0
  C  C709  1  0.761100  0.703800  0.474600  1.0
  C  C710  1  0.703800  0.761100  0.025400  1.0
  C  C711  1  0.942700  0.238900  0.474600  1.0
  C  C712  1  0.296200  0.057300  0.474600  1.0
  C  C713  1  0.941400  0.713400  0.043600  1.0
  C  C714  1  0.772000  0.058600  0.043600  1.0
  C  C715  1  0.228000  0.286600  0.456400  1.0
  C  C716  1  0.286600  0.228000  0.043600  1.0
  C  C717  1  0.058600  0.772000  0.456400  1.0
  C  C718  1  0.713400  0.941400  0.456400  1.0
  C  C719  1  0.058600  0.286600  0.956400  1.0
  C  C720  1  0.228000  0.941400  0.956400  1.0
  C  C721  1  0.772000  0.713400  0.543600  1.0
  C  C722  1  0.713400  0.772000  0.956400  1.0
  C  C723  1  0.941400  0.228000  0.543600  1.0
  C  C724  1  0.286600  0.058600  0.543600  1.0
  C  C725  1  0.010100  0.790900  0.086300  1.0
  C  C726  1  0.780800  0.989900  0.086300  1.0
  C  C727  1  0.219200  0.209100  0.413700  1.0
  C  C728  1  0.209100  0.219200  0.086300  1.0
  C  C729  1  0.989900  0.780800  0.413700  1.0
  C  C730  1  0.790900  0.010100  0.413700  1.0
  C  C731  1  0.989900  0.209100  0.913700  1.0
  C  C732  1  0.219200  0.010100  0.913700  1.0
  C  C733  1  0.780800  0.790900  0.586300  1.0
  C  C734  1  0.790900  0.780800  0.913700  1.0
  C  C735  1  0.010100  0.219200  0.586300  1.0
  C  C736  1  0.209100  0.989900  0.586300  1.0
  C  C737  1  0.991100  0.790000  0.153200  1.0
  C  C738  1  0.798900  0.008900  0.153200  1.0
  C  C739  1  0.201100  0.210000  0.346800  1.0
  C  C740  1  0.210000  0.201100  0.153200  1.0
  C  C741  1  0.008900  0.798900  0.346800  1.0
  C  C742  1  0.790000  0.991100  0.346800  1.0
  C  C743  1  0.008900  0.210000  0.846800  1.0
  C  C744  1  0.201100  0.991100  0.846800  1.0
  C  C745  1  0.798900  0.790000  0.653200  1.0
  C  C746  1  0.790000  0.798900  0.846800  1.0
  C  C747  1  0.991100  0.201100  0.653200  1.0
  C  C748  1  0.210000  0.008900  0.653200  1.0
  C  C749  1  0.908100  0.524800  0.333800  1.0
  C  C750  1  0.616700  0.091900  0.333800  1.0
  C  C751  1  0.383300  0.475200  0.166200  1.0
  C  C752  1  0.475200  0.383300  0.333800  1.0
  C  C753  1  0.091900  0.616700  0.166200  1.0
  C  C754  1  0.524800  0.908100  0.166200  1.0
  C  C755  1  0.091900  0.475200  0.666200  1.0
  C  C756  1  0.383300  0.908100  0.666200  1.0
  C  C757  1  0.616700  0.524800  0.833800  1.0
  C  C758  1  0.524800  0.616700  0.666200  1.0
  C  C759  1  0.908100  0.383300  0.833800  1.0
  C  C760  1  0.475200  0.091900  0.833800  1.0
  C  C761  1  0.843800  0.492200  0.387000  1.0
  C  C762  1  0.648400  0.156200  0.387000  1.0
  C  C763  1  0.351600  0.507800  0.113000  1.0
  C  C764  1  0.507800  0.351600  0.387000  1.0
  C  C765  1  0.156200  0.648400  0.113000  1.0
  C  C766  1  0.492200  0.843800  0.113000  1.0
  C  C767  1  0.156200  0.507800  0.613000  1.0
  C  C768  1  0.351600  0.843800  0.613000  1.0
  C  C769  1  0.648400  0.492200  0.887000  1.0
  C  C770  1  0.492200  0.648400  0.613000  1.0
  C  C771  1  0.843800  0.351600  0.887000  1.0
  C  C772  1  0.507800  0.156200  0.887000  1.0
  C  C773  1  0.826000  0.537000  0.329900  1.0
  C  C774  1  0.711000  0.174000  0.329900  1.0
  C  C775  1  0.289000  0.463000  0.170100  1.0
  C  C776  1  0.463000  0.289000  0.329900  1.0
  C  C777  1  0.174000  0.711000  0.170100  1.0
  C  C778  1  0.537000  0.826000  0.170100  1.0
  C  C779  1  0.174000  0.463000  0.670100  1.0
  C  C780  1  0.289000  0.826000  0.670100  1.0
  C  C781  1  0.711000  0.537000  0.829900  1.0
  C  C782  1  0.537000  0.711000  0.670100  1.0
  C  C783  1  0.826000  0.289000  0.829900  1.0
  C  C784  1  0.463000  0.174000  0.829900  1.0
  C  C785  1  0.890800  0.332000  0.330500  1.0
  C  C786  1  0.441200  0.109200  0.330500  1.0
  C  C787  1  0.558800  0.668000  0.169500  1.0
  C  C788  1  0.668000  0.558800  0.330500  1.0
  C  C789  1  0.109200  0.441200  0.169500  1.0
  C  C790  1  0.332000  0.890800  0.169500  1.0
  C  C791  1  0.109200  0.668000  0.669500  1.0
  C  C792  1  0.558800  0.890800  0.669500  1.0
  C  C793  1  0.441200  0.332000  0.830500  1.0
  C  C794  1  0.332000  0.441200  0.669500  1.0
  C  C795  1  0.890800  0.558800  0.830500  1.0
  C  C796  1  0.668000  0.109200  0.830500  1.0
  C  C797  1  0.836300  0.301800  0.389100  1.0
  C  C798  1  0.465500  0.163700  0.389100  1.0
  C  C799  1  0.534500  0.698200  0.110900  1.0
  C  C800  1  0.698200  0.534500  0.389100  1.0
  C  C801  1  0.163700  0.465500  0.110900  1.0
  C  C802  1  0.301800  0.836300  0.110900  1.0
  C  C803  1  0.163700  0.698200  0.610900  1.0
  C  C804  1  0.534500  0.836300  0.610900  1.0
  C  C805  1  0.465500  0.301800  0.889100  1.0
  C  C806  1  0.301800  0.465500  0.610900  1.0
  C  C807  1  0.836300  0.534500  0.889100  1.0
  C  C808  1  0.698200  0.163700  0.889100  1.0
  C  C809  1  0.754200  0.551400  0.329000  1.0
  C  C810  1  0.797200  0.245800  0.329000  1.0
  C  C811  1  0.202800  0.448600  0.171000  1.0
  C  C812  1  0.448600  0.202800  0.329000  1.0
  C  C813  1  0.245800  0.797200  0.171000  1.0
  C  C814  1  0.551400  0.754200  0.171000  1.0
  C  C815  1  0.245800  0.448600  0.671000  1.0
  C  C816  1  0.202800  0.754200  0.671000  1.0
  C  C817  1  0.797200  0.551400  0.829000  1.0
  C  C818  1  0.551400  0.797200  0.671000  1.0
  C  C819  1  0.754200  0.202800  0.829000  1.0
  C  C820  1  0.448600  0.245800  0.829000  1.0
  C  C821  1  0.786000  0.598000  0.211200  1.0
  C  C822  1  0.812000  0.214000  0.211200  1.0
  C  C823  1  0.188000  0.402000  0.288800  1.0
  C  C824  1  0.402000  0.188000  0.211200  1.0
  C  C825  1  0.214000  0.812000  0.288800  1.0
  C  C826  1  0.598000  0.786000  0.288800  1.0
  C  C827  1  0.214000  0.402000  0.788800  1.0
  C  C828  1  0.188000  0.786000  0.788800  1.0
  C  C829  1  0.812000  0.598000  0.711200  1.0
  C  C830  1  0.598000  0.812000  0.788800  1.0
  C  C831  1  0.786000  0.188000  0.711200  1.0
  C  C832  1  0.402000  0.214000  0.711200  1.0
  C  C833  1  0.866100  0.589500  0.217100  1.0
  C  C834  1  0.723400  0.133900  0.217100  1.0
  C  C835  1  0.276600  0.410500  0.282900  1.0
  C  C836  1  0.410500  0.276600  0.217100  1.0
  C  C837  1  0.133900  0.723400  0.282900  1.0
  C  C838  1  0.589500  0.866100  0.282900  1.0
  C  C839  1  0.133900  0.410500  0.782900  1.0
  C  C840  1  0.276600  0.866100  0.782900  1.0
  C  C841  1  0.723400  0.589500  0.717100  1.0
  C  C842  1  0.589500  0.723400  0.782900  1.0
  C  C843  1  0.866100  0.276600  0.717100  1.0
  C  C844  1  0.410500  0.133900  0.717100  1.0
  C  C845  1  0.806000  0.568400  0.275200  1.0
  C  C846  1  0.762400  0.194000  0.275200  1.0
  C  C847  1  0.237600  0.431600  0.224800  1.0
  C  C848  1  0.431600  0.237600  0.275200  1.0
  C  C849  1  0.194000  0.762400  0.224800  1.0
  C  C850  1  0.568400  0.806000  0.224800  1.0
  C  C851  1  0.194000  0.431600  0.724800  1.0
  C  C852  1  0.237600  0.806000  0.724800  1.0
  C  C853  1  0.762400  0.568400  0.775200  1.0
  C  C854  1  0.568400  0.762400  0.724800  1.0
  C  C855  1  0.806000  0.237600  0.775200  1.0
  C  C856  1  0.431600  0.194000  0.775200  1.0
  C  C857  1  0.720200  0.484200  0.077000  1.0
  C  C858  1  0.764000  0.279800  0.077000  1.0
  C  C859  1  0.236000  0.515800  0.423000  1.0
  C  C860  1  0.515800  0.236000  0.077000  1.0
  C  C861  1  0.279800  0.764000  0.423000  1.0
  C  C862  1  0.484200  0.720200  0.423000  1.0
  C  C863  1  0.279800  0.515800  0.923000  1.0
  C  C864  1  0.236000  0.720200  0.923000  1.0
  C  C865  1  0.764000  0.484200  0.577000  1.0
  C  C866  1  0.484200  0.764000  0.923000  1.0
  C  C867  1  0.720200  0.236000  0.577000  1.0
  C  C868  1  0.515800  0.279800  0.577000  1.0
  C  C869  1  0.794200  0.466300  0.085700  1.0
  C  C870  1  0.672100  0.205800  0.085700  1.0
  C  C871  1  0.327900  0.533700  0.414300  1.0
  C  C872  1  0.533700  0.327900  0.085700  1.0
  C  C873  1  0.205800  0.672100  0.414300  1.0
  C  C874  1  0.466300  0.794200  0.414300  1.0
  C  C875  1  0.205800  0.533700  0.914300  1.0
  C  C876  1  0.327900  0.794200  0.914300  1.0
  C  C877  1  0.672100  0.466300  0.585700  1.0
  C  C878  1  0.466300  0.672100  0.914300  1.0
  C  C879  1  0.794200  0.327900  0.585700  1.0
  C  C880  1  0.533700  0.205800  0.585700  1.0
  C  C881  1  0.701100  0.386700  0.076100  1.0
  C  C882  1  0.685600  0.298900  0.076100  1.0
  C  C883  1  0.314400  0.613300  0.423900  1.0
  C  C884  1  0.613300  0.314400  0.076100  1.0
  C  C885  1  0.298900  0.685600  0.423900  1.0
  C  C886  1  0.386700  0.701100  0.423900  1.0
  C  C887  1  0.298900  0.613300  0.923900  1.0
  C  C888  1  0.314400  0.701100  0.923900  1.0
  C  C889  1  0.685600  0.386700  0.576100  1.0
  C  C890  1  0.386700  0.685600  0.923900  1.0
  C  C891  1  0.701100  0.314400  0.576100  1.0
  C  C892  1  0.613300  0.298900  0.576100  1.0
  C  C893  1  0.043500  0.620300  0.464300  1.0
  C  C894  1  0.576800  0.956500  0.464300  1.0
  C  C895  1  0.423200  0.379700  0.035700  1.0
  C  C896  1  0.379700  0.423200  0.464300  1.0
  C  C897  1  0.956500  0.576800  0.035700  1.0
  C  C898  1  0.620300  0.043500  0.035700  1.0
  C  C899  1  0.956500  0.379700  0.535700  1.0
  C  C900  1  0.423200  0.043500  0.535700  1.0
  C  C901  1  0.576800  0.620300  0.964300  1.0
  C  C902  1  0.620300  0.576800  0.535700  1.0
  C  C903  1  0.043500  0.423200  0.964300  1.0
  C  C904  1  0.379700  0.956500  0.964300  1.0
  C  C905  1  0.095900  0.578900  0.485400  1.0
  C  C906  1  0.483000  0.904100  0.485400  1.0
  C  C907  1  0.517000  0.421100  0.014600  1.0
  C  C908  1  0.421100  0.517000  0.485400  1.0
  C  C909  1  0.904100  0.483000  0.014600  1.0
  C  C910  1  0.578900  0.095900  0.014600  1.0
  C  C911  1  0.904100  0.421100  0.514600  1.0
  C  C912  1  0.517000  0.095900  0.514600  1.0
  C  C913  1  0.483000  0.578900  0.985400  1.0
  C  C914  1  0.578900  0.483000  0.514600  1.0
  C  C915  1  0.095900  0.517000  0.985400  1.0
  C  C916  1  0.421100  0.904100  0.985400  1.0
  C  C917  1  0.061700  0.480100  0.466300  1.0
  C  C918  1  0.418400  0.938300  0.466300  1.0
  C  C919  1  0.581600  0.519900  0.033700  1.0
  C  C920  1  0.519900  0.581600  0.466300  1.0
  C  C921  1  0.938300  0.418400  0.033700  1.0
  C  C922  1  0.480100  0.061700  0.033700  1.0
  C  C923  1  0.938300  0.519900  0.533700  1.0
  C  C924  1  0.581600  0.061700  0.533700  1.0
  C  C925  1  0.418400  0.480100  0.966300  1.0
  C  C926  1  0.480100  0.418400  0.533700  1.0
  C  C927  1  0.061700  0.581600  0.966300  1.0
  C  C928  1  0.519900  0.938300  0.966300  1.0
  C  C929  1  0.098100  0.423000  0.484700  1.0
  C  C930  1  0.324900  0.901900  0.484700  1.0
  C  C931  1  0.675100  0.577000  0.015300  1.0
  C  C932  1  0.577000  0.675100  0.484700  1.0
  C  C933  1  0.901900  0.324900  0.015300  1.0
  C  C934  1  0.423000  0.098100  0.015300  1.0
  C  C935  1  0.901900  0.577000  0.515300  1.0
  C  C936  1  0.675100  0.098100  0.515300  1.0
  C  C937  1  0.324900  0.423000  0.984700  1.0
  C  C938  1  0.423000  0.324900  0.515300  1.0
  C  C939  1  0.098100  0.675100  0.984700  1.0
  C  C940  1  0.577000  0.901900  0.984700  1.0
  C  C941  1  0.018700  0.388900  0.444100  1.0
  C  C942  1  0.370200  0.981300  0.444100  1.0
  C  C943  1  0.629800  0.611100  0.055900  1.0
  C  C944  1  0.611100  0.629800  0.444100  1.0
  C  C945  1  0.981300  0.370200  0.055900  1.0
  C  C946  1  0.388900  0.018700  0.055900  1.0
  C  C947  1  0.981300  0.611100  0.555900  1.0
  C  C948  1  0.629800  0.018700  0.555900  1.0
  C  C949  1  0.370200  0.388900  0.944100  1.0
  C  C950  1  0.388900  0.370200  0.555900  1.0
  C  C951  1  0.018700  0.629800  0.944100  1.0
  C  C952  1  0.611100  0.981300  0.944100  1.0
  C  C953  1  0.895300  0.654900  0.977300  1.0
  C  C954  1  0.759600  0.104700  0.977300  1.0
  C  C955  1  0.240400  0.345100  0.522700  1.0
  C  C956  1  0.345100  0.240400  0.977300  1.0
  C  C957  1  0.104700  0.759600  0.522700  1.0
  C  C958  1  0.654900  0.895300  0.522700  1.0
  C  C959  1  0.104700  0.345100  0.022700  1.0
  C  C960  1  0.240400  0.895300  0.022700  1.0
  C  C961  1  0.759600  0.654900  0.477300  1.0
  C  C962  1  0.654900  0.759600  0.022700  1.0
  C  C963  1  0.895300  0.240400  0.477300  1.0
  C  C964  1  0.345100  0.104700  0.477300  1.0
  C  C965  1  0.966200  0.733600  0.008200  1.0
  C  C966  1  0.767400  0.033800  0.008200  1.0
  C  C967  1  0.232600  0.266400  0.491800  1.0
  C  C968  1  0.266400  0.232600  0.008200  1.0
  C  C969  1  0.033800  0.767400  0.491800  1.0
  C  C970  1  0.733600  0.966200  0.491800  1.0
  C  C971  1  0.033800  0.266400  0.991800  1.0
  C  C972  1  0.232600  0.966200  0.991800  1.0
  C  C973  1  0.767400  0.733600  0.508200  1.0
  C  C974  1  0.733600  0.767400  0.991800  1.0
  C  C975  1  0.966200  0.232600  0.508200  1.0
  C  C976  1  0.266400  0.033800  0.508200  1.0
  C  C977  1  0.961600  0.741600  0.081500  1.0
  C  C978  1  0.780000  0.038400  0.081500  1.0
  C  C979  1  0.220000  0.258400  0.418500  1.0
  C  C980  1  0.258400  0.220000  0.081500  1.0
  C  C981  1  0.038400  0.780000  0.418500  1.0
  C  C982  1  0.741600  0.961600  0.418500  1.0
  C  C983  1  0.038400  0.258400  0.918500  1.0
  C  C984  1  0.220000  0.961600  0.918500  1.0
  C  C985  1  0.780000  0.741600  0.581500  1.0
  C  C986  1  0.741600  0.780000  0.918500  1.0
  C  C987  1  0.961600  0.220000  0.581500  1.0
  C  C988  1  0.258400  0.038400  0.581500  1.0
  C  C989  1  0.024000  0.815000  0.121600  1.0
  C  C990  1  0.791000  0.976000  0.121600  1.0
  C  C991  1  0.209000  0.185000  0.378400  1.0
  C  C992  1  0.185000  0.209000  0.121600  1.0
  C  C993  1  0.976000  0.791000  0.378400  1.0
  C  C994  1  0.815000  0.024000  0.378400  1.0
  C  C995  1  0.976000  0.185000  0.878400  1.0
  C  C996  1  0.209000  0.024000  0.878400  1.0
  C  C997  1  0.791000  0.815000  0.621600  1.0
  C  C998  1  0.815000  0.791000  0.878400  1.0
  C  C999  1  0.024000  0.209000  0.621600  1.0
  C  C1000  1  0.185000  0.976000  0.621600  1.0
  C  C1001  1  0.942300  0.740200  0.146800  1.0
  C  C1002  1  0.797900  0.057700  0.146800  1.0
  C  C1003  1  0.202100  0.259800  0.353200  1.0
  C  C1004  1  0.259800  0.202100  0.146800  1.0
  C  C1005  1  0.057700  0.797900  0.353200  1.0
  C  C1006  1  0.740200  0.942300  0.353200  1.0
  C  C1007  1  0.057700  0.259800  0.853200  1.0
  C  C1008  1  0.202100  0.942300  0.853200  1.0
  C  C1009  1  0.797900  0.740200  0.646800  1.0
  C  C1010  1  0.740200  0.797900  0.853200  1.0
  C  C1011  1  0.942300  0.202100  0.646800  1.0
  C  C1012  1  0.259800  0.057700  0.646800  1.0
  C  C1013  1  0.441100  0.835700  0.734900  1.0
  C  C1014  1  0.394600  0.558900  0.734900  1.0
  C  C1015  1  0.605400  0.164300  0.765100  1.0
  C  C1016  1  0.164300  0.605400  0.734900  1.0
  C  C1017  1  0.558900  0.394600  0.765100  1.0
  C  C1018  1  0.835700  0.441100  0.765100  1.0
  C  C1019  1  0.558900  0.164300  0.265100  1.0
  C  C1020  1  0.605400  0.441100  0.265100  1.0
  C  C1021  1  0.394600  0.835700  0.234900  1.0
  C  C1022  1  0.835700  0.394600  0.265100  1.0
  C  C1023  1  0.441100  0.605400  0.234900  1.0
  C  C1024  1  0.164300  0.558900  0.234900  1.0
  C  C1025  1  0.370200  0.797100  0.797400  1.0
  C  C1026  1  0.426900  0.629800  0.797400  1.0
  C  C1027  1  0.573100  0.202900  0.702600  1.0
  C  C1028  1  0.202900  0.573100  0.797400  1.0
  C  C1029  1  0.629800  0.426900  0.702600  1.0
  C  C1030  1  0.797100  0.370200  0.702600  1.0
  C  C1031  1  0.629800  0.202900  0.202600  1.0
  C  C1032  1  0.573100  0.370200  0.202600  1.0
  C  C1033  1  0.426900  0.797100  0.297400  1.0
  C  C1034  1  0.797100  0.426900  0.202600  1.0
  C  C1035  1  0.370200  0.573100  0.297400  1.0
  C  C1036  1  0.202900  0.629800  0.297400  1.0
  C  C1037  1  0.455000  0.795400  0.798500  1.0
  C  C1038  1  0.340400  0.545000  0.798500  1.0
  C  C1039  1  0.659600  0.204600  0.701500  1.0
  C  C1040  1  0.204600  0.659600  0.798500  1.0
  C  C1041  1  0.545000  0.340400  0.701500  1.0
  C  C1042  1  0.795400  0.455000  0.701500  1.0
  C  C1043  1  0.545000  0.204600  0.201500  1.0
  C  C1044  1  0.659600  0.455000  0.201500  1.0
  C  C1045  1  0.340400  0.795400  0.298500  1.0
  C  C1046  1  0.795400  0.340400  0.201500  1.0
  C  C1047  1  0.455000  0.659600  0.298500  1.0
  C  C1048  1  0.204600  0.545000  0.298500  1.0
  C  C1049  1  0.406700  0.793100  0.768600  1.0
  C  C1050  1  0.386400  0.593300  0.768600  1.0
  C  C1051  1  0.613600  0.206900  0.731400  1.0
  C  C1052  1  0.206900  0.613600  0.768600  1.0
  C  C1053  1  0.593300  0.386400  0.731400  1.0
  C  C1054  1  0.793100  0.406700  0.731400  1.0
  C  C1055  1  0.593300  0.206900  0.231400  1.0
  C  C1056  1  0.613600  0.406700  0.231400  1.0
  C  C1057  1  0.386400  0.793100  0.268600  1.0
  C  C1058  1  0.793100  0.386400  0.231400  1.0
  C  C1059  1  0.406700  0.613600  0.268600  1.0
  C  C1060  1  0.206900  0.593300  0.268600  1.0
  C  C1061  1  0.395600  0.693900  0.772400  1.0
  C  C1062  1  0.298300  0.604400  0.772400  1.0
  C  C1063  1  0.701700  0.306100  0.727600  1.0
  C  C1064  1  0.306100  0.701700  0.772400  1.0
  C  C1065  1  0.604400  0.298300  0.727600  1.0
  C  C1066  1  0.693900  0.395600  0.727600  1.0
  C  C1067  1  0.604400  0.306100  0.227600  1.0
  C  C1068  1  0.701700  0.395600  0.227600  1.0
  C  C1069  1  0.298300  0.693900  0.272400  1.0
  C  C1070  1  0.693900  0.298300  0.227600  1.0
  C  C1071  1  0.395600  0.701700  0.272400  1.0
  C  C1072  1  0.306100  0.604400  0.272400  1.0
  C  C1073  1  0.372600  0.738900  0.752400  1.0
  C  C1074  1  0.366300  0.627400  0.752400  1.0
  C  C1075  1  0.633700  0.261100  0.747600  1.0
  C  C1076  1  0.261100  0.633700  0.752400  1.0
  C  C1077  1  0.627400  0.366300  0.747600  1.0
  C  C1078  1  0.738900  0.372600  0.747600  1.0
  C  C1079  1  0.627400  0.261100  0.247600  1.0
  C  C1080  1  0.633700  0.372600  0.247600  1.0
  C  C1081  1  0.366300  0.738900  0.252400  1.0
  C  C1082  1  0.738900  0.366300  0.247600  1.0
  C  C1083  1  0.372600  0.633700  0.252400  1.0
  C  C1084  1  0.261100  0.627400  0.252400  1.0
  N  N1085  1  0.740900  0.252400  0.975900  1
  N  N1086  1  0.511500  0.259100  0.975900  1
  N  N1087  1  0.488500  0.747600  0.524100  1
  N  N1088  1  0.747600  0.488500  0.975900  1
  N  N1089  1  0.259100  0.511500  0.524100  1
  N  N1090  1  0.252400  0.740900  0.524100  1
  N  N1091  1  0.259100  0.747600  0.024100  1
  N  N1092  1  0.488500  0.740900  0.024100  1
  N  N1093  1  0.511500  0.252400  0.475900  1
  N  N1094  1  0.252400  0.511500  0.024100  1
  N  N1095  1  0.740900  0.488500  0.475900  1
  N  N1096  1  0.747600  0.259100  0.475900  1
  N  N1097  1  0.803900  0.093800  0.589200  1
  N  N1098  1  0.289900  0.196100  0.589200  1
  N  N1099  1  0.710100  0.906200  0.910800  1
  N  N1100  1  0.906200  0.710100  0.589200  1
  N  N1101  1  0.196100  0.289900  0.910800  1
  N  N1102  1  0.093800  0.803900  0.910800  1
  N  N1103  1  0.196100  0.906200  0.410800  1
  N  N1104  1  0.710100  0.803900  0.410800  1
  N  N1105  1  0.289900  0.093800  0.089200  1
  N  N1106  1  0.093800  0.289900  0.410800  1
  N  N1107  1  0.803900  0.710100  0.089200  1
  N  N1108  1  0.906200  0.196100  0.089200  1
  N  N1109  1  0.923100  0.482600  0.389200  1.0
  N  N1110  1  0.559500  0.076900  0.389200  1.0
  N  N1111  1  0.440500  0.517400  0.110800  1.0
  N  N1112  1  0.517400  0.440500  0.389200  1.0
  N  N1113  1  0.076900  0.559500  0.110800  1.0
  N  N1114  1  0.482600  0.923100  0.110800  1.0
  N  N1115  1  0.076900  0.517400  0.610800  1.0
  N  N1116  1  0.440500  0.923100  0.610800  1.0
  N  N1117  1  0.559500  0.482600  0.889200  1.0
  N  N1118  1  0.482600  0.559500  0.610800  1.0
  N  N1119  1  0.923100  0.440500  0.889200  1.0
  N  N1120  1  0.517400  0.076900  0.889200  1.0
  N  N1121  1  0.922800  0.384800  0.389000  1.0
  N  N1122  1  0.462000  0.077200  0.389000  1.0
  N  N1123  1  0.538000  0.615200  0.111000  1.0
  N  N1124  1  0.615200  0.538000  0.389000  1.0
  N  N1125  1  0.077200  0.462000  0.111000  1.0
  N  N1126  1  0.384800  0.922800  0.111000  1.0
  N  N1127  1  0.077200  0.615200  0.611000  1.0
  N  N1128  1  0.538000  0.922800  0.611000  1.0
  N  N1129  1  0.462000  0.384800  0.889000  1.0
  N  N1130  1  0.384800  0.462000  0.611000  1.0
  N  N1131  1  0.922800  0.538000  0.889000  1.0
  N  N1132  1  0.615200  0.077200  0.889000  1.0
  N  N1133  1  0.845300  0.618100  0.157200  1.0
  N  N1134  1  0.772800  0.154700  0.157200  1.0
  N  N1135  1  0.227200  0.381900  0.342800  1.0
  N  N1136  1  0.381900  0.227200  0.157200  1.0
  N  N1137  1  0.154700  0.772800  0.342800  1.0
  N  N1138  1  0.618100  0.845300  0.342800  1.0
  N  N1139  1  0.154700  0.381900  0.842800  1.0
  N  N1140  1  0.227200  0.845300  0.842800  1.0
  N  N1141  1  0.772800  0.618100  0.657200  1.0
  N  N1142  1  0.618100  0.772800  0.842800  1.0
  N  N1143  1  0.845300  0.227200  0.657200  1.0
  N  N1144  1  0.381900  0.154700  0.657200  1.0
  N  N1145  1  0.762900  0.568000  0.291700  1.0
  N  N1146  1  0.805100  0.237100  0.291700  1.0
  N  N1147  1  0.194900  0.432000  0.208300  1.0
  N  N1148  1  0.432000  0.194900  0.291700  1.0
  N  N1149  1  0.237100  0.805100  0.208300  1.0
  N  N1150  1  0.568000  0.762900  0.208300  1.0
  N  N1151  1  0.237100  0.432000  0.708300  1.0
  N  N1152  1  0.194900  0.762900  0.708300  1.0
  N  N1153  1  0.805100  0.568000  0.791700  1.0
  N  N1154  1  0.568000  0.805100  0.708300  1.0
  N  N1155  1  0.762900  0.194900  0.791700  1.0
  N  N1156  1  0.432000  0.237100  0.791700  1.0
  N  N1157  1  0.811000  0.559100  0.088400  1.0
  N  N1158  1  0.748100  0.189000  0.088400  1.0
  N  N1159  1  0.251900  0.440900  0.411600  1.0
  N  N1160  1  0.440900  0.251900  0.088400  1.0
  N  N1161  1  0.189000  0.748100  0.411600  1.0
  N  N1162  1  0.559100  0.811000  0.411600  1.0
  N  N1163  1  0.189000  0.440900  0.911600  1.0
  N  N1164  1  0.251900  0.811000  0.911600  1.0
  N  N1165  1  0.748100  0.559100  0.588400  1.0
  N  N1166  1  0.559100  0.748100  0.911600  1.0
  N  N1167  1  0.811000  0.251900  0.588400  1.0
  N  N1168  1  0.440900  0.189000  0.588400  1.0
  N  N1169  1  0.015900  0.528700  0.445600  1.0
  N  N1170  1  0.512800  0.984100  0.445600  1.0
  N  N1171  1  0.487200  0.471300  0.054400  1.0
  N  N1172  1  0.471300  0.487200  0.445600  1.0
  N  N1173  1  0.984100  0.512800  0.054400  1.0
  N  N1174  1  0.528700  0.015900  0.054400  1.0
  N  N1175  1  0.984100  0.471300  0.554400  1.0
  N  N1176  1  0.487200  0.015900  0.554400  1.0
  N  N1177  1  0.512800  0.528700  0.945600  1.0
  N  N1178  1  0.528700  0.512800  0.554400  1.0
  N  N1179  1  0.015900  0.487200  0.945600  1.0
  N  N1180  1  0.471300  0.984100  0.945600  1.0
  N  N1181  1  0.893600  0.663300  0.045800  1.0
  N  N1182  1  0.769700  0.106400  0.045800  1.0
  N  N1183  1  0.230300  0.336700  0.454200  1.0
  N  N1184  1  0.336700  0.230300  0.045800  1.0
  N  N1185  1  0.106400  0.769700  0.454200  1.0
  N  N1186  1  0.663300  0.893600  0.454200  1.0
  N  N1187  1  0.106400  0.336700  0.954200  1.0
  N  N1188  1  0.230300  0.893600  0.954200  1.0
  N  N1189  1  0.769700  0.663300  0.545800  1.0
  N  N1190  1  0.663300  0.769700  0.954200  1.0
  N  N1191  1  0.893600  0.230300  0.545800  1.0
  N  N1192  1  0.336700  0.106400  0.545800  1.0
  N  N1193  1  0.783800  0.535000  0.349300  1.0
  N  N1194  1  0.751200  0.216200  0.349300  1.0
  N  N1195  1  0.248800  0.465000  0.150700  1.0
  N  N1196  1  0.465000  0.248800  0.349300  1.0
  N  N1197  1  0.216200  0.751200  0.150700  1.0
  N  N1198  1  0.535000  0.783800  0.150700  1.0
  N  N1199  1  0.216200  0.465000  0.650700  1.0
  N  N1200  1  0.248800  0.783800  0.650700  1.0
  N  N1201  1  0.751200  0.535000  0.849300  1.0
  N  N1202  1  0.535000  0.751200  0.650700  1.0
  N  N1203  1  0.783800  0.248800  0.849300  1.0
  N  N1204  1  0.465000  0.216200  0.849300  1.0
  N  N1205  1  0.838900  0.553600  0.292900  1.0
  N  N1206  1  0.714700  0.161100  0.292900  1.0
  N  N1207  1  0.285300  0.446400  0.207100  1.0
  N  N1208  1  0.446400  0.285300  0.292900  1.0
  N  N1209  1  0.161100  0.714700  0.207100  1.0
  N  N1210  1  0.553600  0.838900  0.207100  1.0
  N  N1211  1  0.161100  0.446400  0.707100  1.0
  N  N1212  1  0.285300  0.838900  0.707100  1.0
  N  N1213  1  0.714700  0.553600  0.792900  1.0
  N  N1214  1  0.553600  0.714700  0.707100  1.0
  N  N1215  1  0.838900  0.285300  0.792900  1.0
  N  N1216  1  0.446400  0.161100  0.792900  1.0
  N  N1217  1  0.722400  0.353500  0.075800  1.0
  N  N1218  1  0.631100  0.277600  0.075800  1.0
  N  N1219  1  0.368900  0.646500  0.424200  1.0
  N  N1220  1  0.646500  0.368900  0.075800  1.0
  N  N1221  1  0.277600  0.631100  0.424200  1.0
  N  N1222  1  0.353500  0.722400  0.424200  1.0
  N  N1223  1  0.277600  0.646500  0.924200  1.0
  N  N1224  1  0.368900  0.722400  0.924200  1.0
  N  N1225  1  0.631100  0.353500  0.575800  1.0
  N  N1226  1  0.353500  0.631100  0.924200  1.0
  N  N1227  1  0.722400  0.368900  0.575800  1.0
  N  N1228  1  0.646500  0.277600  0.575800  1.0
  N  N1229  1  0.020400  0.437600  0.445200  1.0
  N  N1230  1  0.417200  0.979600  0.445200  1.0
  N  N1231  1  0.582800  0.562400  0.054800  1.0
  N  N1232  1  0.562400  0.582800  0.445200  1.0
  N  N1233  1  0.979600  0.417200  0.054800  1.0
  N  N1234  1  0.437600  0.020400  0.054800  1.0
  N  N1235  1  0.979600  0.562400  0.554800  1.0
  N  N1236  1  0.582800  0.020400  0.554800  1.0
  N  N1237  1  0.417200  0.437600  0.945200  1.0
  N  N1238  1  0.437600  0.417200  0.554800  1.0
  N  N1239  1  0.020400  0.582800  0.945200  1.0
  N  N1240  1  0.562400  0.979600  0.945200  1.0
  N  N1241  1  0.928700  0.716000  0.112400  1.0
  N  N1242  1  0.787300  0.071300  0.112400  1.0
  N  N1243  1  0.212700  0.284000  0.387600  1.0
  N  N1244  1  0.284000  0.212700  0.112400  1.0
  N  N1245  1  0.071300  0.787300  0.387600  1.0
  N  N1246  1  0.716000  0.928700  0.387600  1.0
  N  N1247  1  0.071300  0.284000  0.887600  1.0
  N  N1248  1  0.212700  0.928700  0.887600  1.0
  N  N1249  1  0.787300  0.716000  0.612400  1.0
  N  N1250  1  0.716000  0.787300  0.887600  1.0
  N  N1251  1  0.928700  0.212700  0.612400  1.0
  N  N1252  1  0.284000  0.071300  0.612400  1.0
  O  O1253  1  0.850000  0.108000  0.715400  1
  O  O1254  1  0.258000  0.150000  0.715400  1
  O  O1255  1  0.742000  0.892000  0.784600  1
  O  O1256  1  0.892000  0.742000  0.715400  1
  O  O1257  1  0.150000  0.258000  0.784600  1
  O  O1258  1  0.108000  0.850000  0.784600  1
  O  O1259  1  0.150000  0.892000  0.284600  1
  O  O1260  1  0.742000  0.850000  0.284600  1
  O  O1261  1  0.258000  0.108000  0.215400  1
  O  O1262  1  0.108000  0.258000  0.284600  1
  O  O1263  1  0.850000  0.742000  0.215400  1
  O  O1264  1  0.892000  0.150000  0.215400  1
  O  O1265  1  0.789800  0.275800  0.966200  1
  O  O1266  1  0.486000  0.210200  0.966200  1
  O  O1267  1  0.514000  0.724200  0.533800  1
  O  O1268  1  0.724200  0.514000  0.966200  1
  O  O1269  1  0.210200  0.486000  0.533800  1
  O  O1270  1  0.275800  0.789800  0.533800  1
  O  O1271  1  0.210200  0.724200  0.033800  1
  O  O1272  1  0.514000  0.789800  0.033800  1
  O  O1273  1  0.486000  0.275800  0.466200  1
  O  O1274  1  0.275800  0.486000  0.033800  1
  O  O1275  1  0.789800  0.514000  0.466200  1
  O  O1276  1  0.724200  0.210200  0.466200  1
  O  O1277  1  0.717300  0.279200  0.982500  1
  O  O1278  1  0.561900  0.282700  0.982500  1
  O  O1279  1  0.438100  0.720800  0.517500  1
  O  O1280  1  0.720800  0.438100  0.982500  1
  O  O1281  1  0.282700  0.561900  0.517500  1
  O  O1282  1  0.279200  0.717300  0.517500  1
  O  O1283  1  0.282700  0.720800  0.017500  1
  O  O1284  1  0.438100  0.717300  0.017500  1
  O  O1285  1  0.561900  0.279200  0.482500  1
  O  O1286  1  0.279200  0.561900  0.017500  1
  O  O1287  1  0.717300  0.438100  0.482500  1
  O  O1288  1  0.720800  0.282700  0.482500  1
  O  O1289  1  0.714900  0.201100  0.980300  1
  O  O1290  1  0.486200  0.285100  0.980300  1
  O  O1291  1  0.513800  0.798900  0.519700  1
  O  O1292  1  0.798900  0.513800  0.980300  1
  O  O1293  1  0.285100  0.486200  0.519700  1
  O  O1294  1  0.201100  0.714900  0.519700  1
  O  O1295  1  0.285100  0.798900  0.019700  1
  O  O1296  1  0.513800  0.714900  0.019700  1
  O  O1297  1  0.486200  0.201100  0.480300  1
  O  O1298  1  0.201100  0.486200  0.019700  1
  O  O1299  1  0.714900  0.513800  0.480300  1
  O  O1300  1  0.798900  0.285100  0.480300  1
  O  O1301  1  0.934300  0.114100  0.739100  1
  O  O1302  1  0.179800  0.065700  0.739100  1
  O  O1303  1  0.820200  0.885900  0.760900  1
  O  O1304  1  0.885900  0.820200  0.739100  1
  O  O1305  1  0.065700  0.179800  0.760900  1
  O  O1306  1  0.114100  0.934300  0.760900  1
  O  O1307  1  0.065700  0.885900  0.260900  1
  O  O1308  1  0.820200  0.934300  0.260900  1
  O  O1309  1  0.179800  0.114100  0.239100  1
  O  O1310  1  0.114100  0.179800  0.260900  1
  O  O1311  1  0.934300  0.820200  0.239100  1
  O  O1312  1  0.885900  0.065700  0.239100  1
  O  O1313  1  0.807100  0.060500  0.570300  1
  O  O1314  1  0.253400  0.192900  0.570300  1
  O  O1315  1  0.746600  0.939500  0.929700  1
  O  O1316  1  0.939500  0.746600  0.570300  1
  O  O1317  1  0.192900  0.253400  0.929700  1
  O  O1318  1  0.060500  0.807100  0.929700  1
  O  O1319  1  0.192900  0.939500  0.429700  1
  O  O1320  1  0.746600  0.807100  0.429700  1
  O  O1321  1  0.253400  0.060500  0.070300  1
  O  O1322  1  0.060500  0.253400  0.429700  1
  O  O1323  1  0.807100  0.746600  0.070300  1
  O  O1324  1  0.939500  0.192900  0.070300  1
  O  O1325  1  0.787600  0.116200  0.583000  1
  O  O1326  1  0.328600  0.212400  0.583000  1
  O  O1327  1  0.671400  0.883800  0.917000  1
  O  O1328  1  0.883800  0.671400  0.583000  1
  O  O1329  1  0.212400  0.328600  0.917000  1
  O  O1330  1  0.116200  0.787600  0.917000  1
  O  O1331  1  0.212400  0.883800  0.417000  1
  O  O1332  1  0.671400  0.787600  0.417000  1
  O  O1333  1  0.328600  0.116200  0.083000  1
  O  O1334  1  0.116200  0.328600  0.417000  1
  O  O1335  1  0.787600  0.671400  0.083000  1
  O  O1336  1  0.883800  0.212400  0.083000  1
  O  O1337  1  0.815700  0.087400  0.629700  1
  O  O1338  1  0.271700  0.184300  0.629700  1
  O  O1339  1  0.728300  0.912600  0.870300  1
  O  O1340  1  0.912600  0.728300  0.629700  1
  O  O1341  1  0.184300  0.271700  0.870300  1
  O  O1342  1  0.087400  0.815700  0.870300  1
  O  O1343  1  0.184300  0.912600  0.370300  1
  O  O1344  1  0.728300  0.815700  0.370300  1
  O  O1345  1  0.271700  0.087400  0.129700  1
  O  O1346  1  0.087400  0.271700  0.370300  1
  O  O1347  1  0.815700  0.728300  0.129700  1
  O  O1348  1  0.912600  0.184300  0.129700  1
  O  O1349  1  0.939300  0.111800  0.321100  1
  O  O1350  1  0.172500  0.060700  0.321100  1
  O  O1351  1  0.827500  0.888200  0.178900  1
  O  O1352  1  0.888200  0.827500  0.321100  1
  O  O1353  1  0.060700  0.172500  0.178900  1
  O  O1354  1  0.111800  0.939300  0.178900  1
  O  O1355  1  0.060700  0.888200  0.678900  1
  O  O1356  1  0.827500  0.939300  0.678900  1
  O  O1357  1  0.172500  0.111800  0.821100  1
  O  O1358  1  0.111800  0.172500  0.678900  1
  O  O1359  1  0.939300  0.827500  0.821100  1
  O  O1360  1  0.888200  0.060700  0.821100  1
  O  O1361  1  0.400400  0.794200  0.027300  1
  O  O1362  1  0.393800  0.599600  0.027300  1
  O  O1363  1  0.606200  0.205800  0.472700  1
  O  O1364  1  0.205800  0.606200  0.027300  1
  O  O1365  1  0.599600  0.393800  0.472700  1
  O  O1366  1  0.794200  0.400400  0.472700  1
  O  O1367  1  0.599600  0.205800  0.972700  1
  O  O1368  1  0.606200  0.400400  0.972700  1
  O  O1369  1  0.393800  0.794200  0.527300  1
  O  O1370  1  0.794200  0.393800  0.972700  1
  O  O1371  1  0.400400  0.606200  0.527300  1
  O  O1372  1  0.205800  0.599600  0.527300  1
  O  O1373  1  0.866000  0.033000  0.700900  1
  O  O1374  1  0.167000  0.134000  0.700900  1
  O  O1375  1  0.833000  0.967000  0.799100  1
  O  O1376  1  0.967000  0.833000  0.700900  1
  O  O1377  1  0.134000  0.167000  0.799100  1
  O  O1378  1  0.033000  0.866000  0.799100  1
  O  O1379  1  0.134000  0.967000  0.299100  1
  O  O1380  1  0.833000  0.866000  0.299100  1
  O  O1381  1  0.167000  0.033000  0.200900  1
  O  O1382  1  0.033000  0.167000  0.299100  1
  O  O1383  1  0.866000  0.833000  0.200900  1
  O  O1384  1  0.967000  0.134000  0.200900  1
  O  O1385  1  0.894000  0.093000  0.602700  1
  O  O1386  1  0.199000  0.106000  0.602700  1
  O  O1387  1  0.801000  0.907000  0.897300  1
  O  O1388  1  0.907000  0.801000  0.602700  1
  O  O1389  1  0.106000  0.199000  0.897300  1
  O  O1390  1  0.093000  0.894000  0.897300  1
  O  O1391  1  0.106000  0.907000  0.397300  1
  O  O1392  1  0.801000  0.894000  0.397300  1
  O  O1393  1  0.199000  0.093000  0.102700  1
  O  O1394  1  0.093000  0.199000  0.397300  1
  O  O1395  1  0.894000  0.801000  0.102700  1
  O  O1396  1  0.907000  0.106000  0.102700  1
  O  O1397  1  0.912200  0.092000  0.475100  1
  O  O1398  1  0.179800  0.087800  0.475100  1
  O  O1399  1  0.820200  0.908000  0.024900  1
  O  O1400  1  0.908000  0.820200  0.475100  1
  O  O1401  1  0.087800  0.179800  0.024900  1
  O  O1402  1  0.092000  0.912200  0.024900  1
  O  O1403  1  0.087800  0.908000  0.524900  1
  O  O1404  1  0.820200  0.912200  0.524900  1
  O  O1405  1  0.179800  0.092000  0.975100  1
  O  O1406  1  0.092000  0.179800  0.524900  1
  O  O1407  1  0.912200  0.820200  0.975100  1
  O  O1408  1  0.908000  0.087800  0.975100  1
  O  O1409  1  0.413000  0.951600  0.791700  1
  O  O1410  1  0.538600  0.587000  0.791700  1
  O  O1411  1  0.461400  0.048400  0.708300  1
  O  O1412  1  0.048400  0.461400  0.791700  1
  O  O1413  1  0.587000  0.538600  0.708300  1
  O  O1414  1  0.951600  0.413000  0.708300  1
  O  O1415  1  0.587000  0.048400  0.208300  1
  O  O1416  1  0.461400  0.413000  0.208300  1
  O  O1417  1  0.538600  0.951600  0.291700  1
  O  O1418  1  0.951600  0.538600  0.208300  1
  O  O1419  1  0.413000  0.461400  0.291700  1
  O  O1420  1  0.048400  0.587000  0.291700  1
  O  O1421  1  0.014300  0.095600  0.688500  1
  O  O1422  1  0.081300  0.985700  0.688500  1
  O  O1423  1  0.918700  0.904400  0.811500  1
  O  O1424  1  0.904400  0.918700  0.688500  1
  O  O1425  1  0.985700  0.081300  0.811500  1
  O  O1426  1  0.095600  0.014300  0.811500  1
  O  O1427  1  0.985700  0.904400  0.311500  1
  O  O1428  1  0.918700  0.014300  0.311500  1
  O  O1429  1  0.081300  0.095600  0.188500  1
  O  O1430  1  0.095600  0.081300  0.311500  1
  O  O1431  1  0.014300  0.918700  0.188500  1
  O  O1432  1  0.904400  0.985700  0.188500  1
  O  O1433  1  0.957000  0.057400  0.604000  1
  O  O1434  1  0.100400  0.043000  0.604000  1
  O  O1435  1  0.899600  0.942600  0.896000  1
  O  O1436  1  0.942600  0.899600  0.604000  1
  O  O1437  1  0.043000  0.100400  0.896000  1
  O  O1438  1  0.057400  0.957000  0.896000  1
  O  O1439  1  0.043000  0.942600  0.396000  1
  O  O1440  1  0.899600  0.957000  0.396000  1
  O  O1441  1  0.100400  0.057400  0.104000  1
  O  O1442  1  0.057400  0.100400  0.396000  1
  O  O1443  1  0.957000  0.899600  0.104000  1
  O  O1444  1  0.942600  0.043000  0.104000  1
