
#######################################################################
#
#                 Cambridge Crystallographic Data Centre
#                                CCDC 
#
#######################################################################
#
# If this CIF has been generated from an entry in the Cambridge 
# Structural Database, then it will include bibliographic, chemical, 
# crystal, experimental, refinement or atomic coordinate data resulting 
# from the CCDC's data processing and validation procedures.
#
#######################################################################

data_LUXGAN
_chemical_formula_moiety         
'8(C1 H6 N3 1+),C60 H12 In8 N24 O48 8-,3.96(C3 H7 N1 O1),15(H2 O1)'
_chemical_name_systematic        
'octakis(Guanidinium) dodecakis(\m~2~-imidazole-4,5-dicarboxylato)-octa-indium dimethylformamide solvate pentadecahydrate'
_symmetry_cell_setting           cubic
_symmetry_space_group_name_H-M   'F m -3'
_symmetry_Int_Tables_number      202
_space_group_name_Hall           '-F 2 2 3'
loop_
_symmetry_equiv_pos_site_id
_symmetry_equiv_pos_as_xyz
1 x,y,z
2 -x,-y,z
3 -x,y,-z
4 x,-y,-z
5 z,x,y
6 z,-x,-y
7 -z,-x,y
8 -z,x,-y
9 y,z,x
10 -y,z,-x
11 y,-z,-x
12 -y,-z,x
13 x,1/2+y,1/2+z
14 -x,1/2-y,1/2+z
15 -x,1/2+y,1/2-z
16 x,1/2-y,1/2-z
17 z,1/2+x,1/2+y
18 z,1/2-x,1/2-y
19 -z,1/2-x,1/2+y
20 -z,1/2+x,1/2-y
21 y,1/2+z,1/2+x
22 -y,1/2+z,1/2-x
23 y,1/2-z,1/2-x
24 -y,1/2-z,1/2+x
25 1/2+x,y,1/2+z
26 1/2-x,-y,1/2+z
27 1/2-x,y,1/2-z
28 1/2+x,-y,1/2-z
29 1/2+z,x,1/2+y
30 1/2+z,-x,1/2-y
31 1/2-z,-x,1/2+y
32 1/2-z,x,1/2-y
33 1/2+y,z,1/2+x
34 1/2-y,z,1/2-x
35 1/2+y,-z,1/2-x
36 1/2-y,-z,1/2+x
37 1/2+x,1/2+y,z
38 1/2-x,1/2-y,z
39 1/2-x,1/2+y,-z
40 1/2+x,1/2-y,-z
41 1/2+z,1/2+x,y
42 1/2+z,1/2-x,-y
43 1/2-z,1/2-x,y
44 1/2-z,1/2+x,-y
45 1/2+y,1/2+z,x
46 1/2-y,1/2+z,-x
47 1/2+y,1/2-z,-x
48 1/2-y,1/2-z,x
49 -x,-y,-z
50 x,y,-z
51 x,-y,z
52 -x,y,z
53 -z,-x,-y
54 -z,x,y
55 z,x,-y
56 z,-x,y
57 -y,-z,-x
58 y,-z,x
59 -y,z,x
60 y,z,-x
61 -x,1/2-y,1/2-z
62 x,1/2+y,1/2-z
63 x,1/2-y,1/2+z
64 -x,1/2+y,1/2+z
65 -z,1/2-x,1/2-y
66 -z,1/2+x,1/2+y
67 z,1/2+x,1/2-y
68 z,1/2-x,1/2+y
69 -y,1/2-z,1/2-x
70 y,1/2-z,1/2+x
71 -y,1/2+z,1/2+x
72 y,1/2+z,1/2-x
73 1/2-x,-y,1/2-z
74 1/2+x,y,1/2-z
75 1/2+x,-y,1/2+z
76 1/2-x,y,1/2+z
77 1/2-z,-x,1/2-y
78 1/2-z,x,1/2+y
79 1/2+z,x,1/2-y
80 1/2+z,-x,1/2+y
81 1/2-y,-z,1/2-x
82 1/2+y,-z,1/2+x
83 1/2-y,z,1/2+x
84 1/2+y,z,1/2-x
85 1/2-x,1/2-y,-z
86 1/2+x,1/2+y,-z
87 1/2+x,1/2-y,z
88 1/2-x,1/2+y,z
89 1/2-z,1/2-x,-y
90 1/2-z,1/2+x,y
91 1/2+z,1/2+x,-y
92 1/2+z,1/2-x,y
93 1/2-y,1/2-z,-x
94 1/2+y,1/2-z,x
95 1/2-y,1/2+z,x
96 1/2+y,1/2+z,-x
_cell_length_a                   26.123(4)
_cell_length_b                   26.123(4)
_cell_length_c                   26.123(4)
_cell_angle_alpha                90
_cell_angle_beta                 90
_cell_angle_gamma                90
_cell_volume                     17826.6
_exptl_crystal_colour            colorless
_exptl_crystal_description       polyhedra
_cell_formula_units_Z            4
loop_
_atom_site_label
_atom_site_type_symbol
_atom_site_fract_x
_atom_site_fract_y
_atom_site_fract_z
N2 N 0.1762(14) 0.3570(13) 1.0000
H3 H 0.1598 0.3258 1.0000
H4 H 0.2111 0.3526 1.0000
C2 C 0.1585 0.3907 0.9600
H5 H 0.1664 0.3756 0.9266
H6 H 0.1758 0.4239 0.9631
H7 H 0.1215 0.3955 0.9632
O1 O 0.1424(19) 0.4216(19) 0.9154(19)
C2WA C 0.1585 0.3907 1.0400
H5WA H 0.1664 0.3756 1.0734
H6WA H 0.1758 0.4239 1.0369
H7WA H 0.1215 0.3955 1.0368
O1WA O 0.1424(19) 0.4216(19) 1.0846(19)
O2 O 0.0000 0.0000 1.0000
O3 O 0.223(4) 0.430(4) 1.0000
O4 O 0.075(4) 0.310(4) 1.0000
In1 In 0.12546(2) 0.12546(2) 0.87454(2)
N3 N 0.1275(2) 0.1334(3) 0.9581(3)
C3 C 0.1399(3) 0.1816(3) 0.9736(3)
O5 O 0.1435(3) 0.2044(2) 0.8871(2)
C4 C 0.1203(4) 0.1055(5) 1.0000
H8 H 0.1112 0.0703 1.0000
C5 C 0.1519(4) 0.2196(4) 0.9335(4)
O6 O 0.1685(4) 0.2624(3) 0.9444(3)
In1WA In 0.12546(2) 0.12546(2) 1.12546(2)
In1B In -0.12546(2) 0.12546(2) 1.12546(2)
In1VA In -0.12546(2) -0.12546(2) 1.12546(2)
In1A In -0.12546(2) -0.12546(2) 0.87454(2)
In1XA In 0.12546(2) -0.12546(2) 0.87454(2)
In1YA In -0.12546(2) 0.12546(2) 0.87454(2)
In1C In 0.12546(2) -0.12546(2) 1.12546(2)
N3WA N 0.1275(2) 0.1334(3) 1.0419(3)
N3AB N 0.0419(3) 0.1275(2) 1.1334(3)
N3D N -0.0419(3) 0.1275(2) 1.1334(3)
N3K N -0.1334(3) 0.0419(3) 1.1275(2)
N3FB N -0.1334(3) -0.0419(3) 1.1275(2)
N3VA N -0.1275(2) -0.1334(3) 1.0419(3)
N3A N -0.1275(2) -0.1334(3) 0.9581(3)
N3E N -0.0419(3) -0.1275(2) 0.8666(3)
N3ZA N 0.0419(3) -0.1275(2) 0.8666(3)
N3GB N 0.1334(3) -0.0419(3) 0.8725(2)
N3J N 0.1334(3) 0.0419(3) 0.8725(2)
N3G N 0.0419(3) 0.1275(2) 0.8666(3)
N3BB N -0.0419(3) 0.1275(2) 0.8666(3)
N3DB N -0.1334(3) 0.0419(3) 0.8725(2)
N3YA N -0.1275(2) 0.1334(3) 0.9581(3)
N3B N -0.1275(2) 0.1334(3) 1.0419(3)
N3I N -0.1334(3) -0.0419(3) 0.8725(2)
N3XA N 0.1275(2) -0.1334(3) 0.9581(3)
N3C N 0.1275(2) -0.1334(3) 1.0419(3)
N3F N 0.0419(3) -0.1275(2) 1.1334(3)
N3H N 0.1334(3) -0.0419(3) 1.1275(2)
N3EB N 0.1334(3) 0.0419(3) 1.1275(2)
N3CB N -0.0419(3) -0.1275(2) 1.1334(3)
C3WA C 0.1399(3) 0.1816(3) 1.0264(3)
C3AB C 0.0264(3) 0.1399(3) 1.1816(3)
C3D C -0.0264(3) 0.1399(3) 1.1816(3)
C3K C -0.1816(3) 0.0264(3) 1.1399(3)
C3FB C -0.1816(3) -0.0264(3) 1.1399(3)
C3VA C -0.1399(3) -0.1816(3) 1.0264(3)
C3A C -0.1399(3) -0.1816(3) 0.9736(3)
C3E C -0.0264(3) -0.1399(3) 0.8184(3)
C3ZA C 0.0264(3) -0.1399(3) 0.8184(3)
C3GB C 0.1816(3) -0.0264(3) 0.8601(3)
C3J C 0.1816(3) 0.0264(3) 0.8601(3)
C3G C 0.0264(3) 0.1399(3) 0.8184(3)
C3BB C -0.0264(3) 0.1399(3) 0.8184(3)
C3DB C -0.1816(3) 0.0264(3) 0.8601(3)
C3I C -0.1816(3) -0.0264(3) 0.8601(3)
C3YA C -0.1399(3) 0.1816(3) 0.9736(3)
C3B C -0.1399(3) 0.1816(3) 1.0264(3)
C3XA C 0.1399(3) -0.1816(3) 0.9736(3)
C3C C 0.1399(3) -0.1816(3) 1.0264(3)
C3F C 0.0264(3) -0.1399(3) 1.1816(3)
C3CB C -0.0264(3) -0.1399(3) 1.1816(3)
C3H C 0.1816(3) -0.0264(3) 1.1399(3)
C3EB C 0.1816(3) 0.0264(3) 1.1399(3)
O5G O 0.1129(2) 0.1435(3) 0.7956(2)
O5J O 0.2044(2) 0.1129(2) 0.8565(3)
O5DB O -0.2044(2) 0.1129(2) 0.8565(3)
O5YA O -0.1435(3) 0.2044(2) 0.8871(2)
O5BB O -0.1129(2) 0.1435(3) 0.7956(2)
O5D O -0.1129(2) 0.1435(3) 1.2044(2)
O5K O -0.2044(2) 0.1129(2) 1.1435(3)
O5B O -0.1435(3) 0.2044(2) 1.1129(2)
O5A O -0.1435(3) -0.2044(2) 0.8871(2)
O5E O -0.1129(2) -0.1435(3) 0.7956(2)
O5I O -0.2044(2) -0.1129(2) 0.8565(3)
O5GB O 0.2044(2) -0.1129(2) 0.8565(3)
O5XA O 0.1435(3) -0.2044(2) 0.8871(2)
O5ZA O 0.1129(2) -0.1435(3) 0.7956(2)
O5F O 0.1129(2) -0.1435(3) 1.2044(2)
O5H O 0.2044(2) -0.1129(2) 1.1435(3)
O5C O 0.1435(3) -0.2044(2) 1.1129(2)
O5WA O 0.1435(3) 0.2044(2) 1.1129(2)
O5AB O 0.1129(2) 0.1435(3) 1.2044(2)
O5EB O 0.2044(2) 0.1129(2) 1.1435(3)
O5FB O -0.2044(2) -0.1129(2) 1.1435(3)
O5VA O -0.1435(3) -0.2044(2) 1.1129(2)
O5CB O -0.1129(2) -0.1435(3) 1.2044(2)
C4G C 0.0000 0.1203(4) 0.8945(5)
C4B C -0.1203(4) 0.1055(5) 1.0000
C4I C -0.1055(5) 0.0000 0.8797(4)
C4J C 0.1055(5) 0.0000 0.8797(4)
C4C C 0.1203(4) -0.1055(5) 1.0000
C4H C 0.1055(5) 0.0000 1.1203(4)
C4F C 0.0000 -0.1203(4) 1.1055(5)
C4E C 0.0000 -0.1203(4) 0.8945(5)
C4A C -0.1203(4) -0.1055(5) 1.0000
C4K C -0.1055(5) 0.0000 1.1203(4)
C4D C 0.0000 0.1203(4) 1.1055(5)
H8B H -0.1112 0.0703 1.0000
H8I H -0.0703 0.0000 0.8888
H8G H 0.0000 0.1112 0.9297
H8J H 0.0703 0.0000 0.8888
H8H H 0.0703 0.0000 1.1112
H8F H 0.0000 -0.1112 1.0703
H8C H 0.1112 -0.0703 1.0000
H8E H 0.0000 -0.1112 0.9297
H8A H -0.1112 -0.0703 1.0000
H8K H -0.0703 0.0000 1.1112
H8D H 0.0000 0.1112 1.0703
C5G C 0.0665(4) 0.1519(4) 0.7804(4)
C5J C 0.2196(4) 0.0665(4) 0.8481(4)
C5DB C -0.2196(4) 0.0665(4) 0.8481(4)
C5YA C -0.1519(4) 0.2196(4) 0.9335(4)
C5BB C -0.0665(4) 0.1519(4) 0.7804(4)
C5D C -0.0665(4) 0.1519(4) 1.2196(4)
C5K C -0.2196(4) 0.0665(4) 1.1519(4)
C5B C -0.1519(4) 0.2196(4) 1.0665(4)
C5A C -0.1519(4) -0.2196(4) 0.9335(4)
C5E C -0.0665(4) -0.1519(4) 0.7804(4)
C5I C -0.2196(4) -0.0665(4) 0.8481(4)
C5GB C 0.2196(4) -0.0665(4) 0.8481(4)
C5XA C 0.1519(4) -0.2196(4) 0.9335(4)
C5ZA C 0.0665(4) -0.1519(4) 0.7804(4)
C5F C 0.0665(4) -0.1519(4) 1.2196(4)
C5H C 0.2196(4) -0.0665(4) 1.1519(4)
C5C C 0.1519(4) -0.2196(4) 1.0665(4)
C5WA C 0.1519(4) 0.2196(4) 1.0665(4)
C5AB C 0.0665(4) 0.1519(4) 1.2196(4)
C5EB C 0.2196(4) 0.0665(4) 1.1519(4)
C5FB C -0.2196(4) -0.0665(4) 1.1519(4)
C5VA C -0.1519(4) -0.2196(4) 1.0665(4)
C5CB C -0.0665(4) -0.1519(4) 1.2196(4)
O6J O 0.2624(3) 0.0556(3) 0.8315(4)
O6G O 0.0556(3) 0.1685(4) 0.7376(3)
O6BB O -0.0556(3) 0.1685(4) 0.7376(3)
O6YA O -0.1685(4) 0.2624(3) 0.9444(3)
O6D O -0.0556(3) 0.1685(4) 1.2624(3)
O6K O -0.2624(3) 0.0556(3) 1.1685(4)
O6B O -0.1685(4) 0.2624(3) 1.0556(3)
O6DB O -0.2624(3) 0.0556(3) 0.8315(4)
O6A O -0.1685(4) -0.2624(3) 0.9444(3)
O6E O -0.0556(3) -0.1685(4) 0.7376(3)
O6I O -0.2624(3) -0.0556(3) 0.8315(4)
O6ZA O 0.0556(3) -0.1685(4) 0.7376(3)
O6XA O 0.1685(4) -0.2624(3) 0.9444(3)
O6C O 0.1685(4) -0.2624(3) 1.0556(3)
O6H O 0.2624(3) -0.0556(3) 1.1685(4)
O6WA O 0.1685(4) 0.2624(3) 1.0556(3)
O6AB O 0.0556(3) 0.1685(4) 1.2624(3)
O6EB O 0.2624(3) 0.0556(3) 1.1685(4)
O6F O 0.0556(3) -0.1685(4) 1.2624(3)
O6FB O -0.2624(3) -0.0556(3) 1.1685(4)
O6VA O -0.1685(4) -0.2624(3) 1.0556(3)
O6CB O -0.0556(3) -0.1685(4) 1.2624(3)
O6GB O 0.2624(3) -0.0556(3) 0.8315(4)
N1 N 0.1444(3) 0.2859(3) 0.8134(3)
H1 H 0.1427 0.2592 0.8338
H2 H 0.1216 0.2899 0.7890
C1 C 0.1805(4) 0.3195(4) 0.8195(4)
N1SA N 0.2141(3) 0.3134(3) 0.8556(3)
N1R N 0.1866(3) 0.3556(3) 0.7859(3)
H1SA H 0.2408 0.3338 0.8573
H1R H 0.1662 0.3573 0.7592
H2SA H 0.2101 0.2890 0.8784
H2R H 0.2110 0.3784 0.7899
O7? O 0.2325(11) 0.3662(10) 1.0000
O8? O 0.203(3) 0.0000 1.0000
loop_
_geom_bond_atom_site_label_1
_geom_bond_atom_site_label_2
_geom_bond_site_symmetry_1
_geom_bond_site_symmetry_2
N1 H1 1_555 1_555
H2 N1 1_555 1_555
C1 N1 1_555 1_555
N2 H3 1_555 1_555
H4 N2 1_555 1_555
C2 N2 1_555 1_555
H5 C2 1_555 1_555
H6 C2 1_555 1_555
H7 C2 1_555 1_555
O1 C2 1_555 1_555
In1 N3 1_555 1_555
N3 C3 1_555 1_555
C3 C5 1_555 1_555
O5 In1 1_555 1_555
C4 N3 1_555 1_555
H8 C4 1_555 1_555
C5 O5 1_555 1_555
O6 C5 1_555 1_555
N1SA C1 1_555 1_555
N1R C1 1_555 1_555
H1SA N1SA 1_555 1_555
H1R N1R 1_555 1_555
H2SA N1SA 1_555 1_555
H2R N1R 1_555 1_555
C2WA N2 1_555 1_555
H5WA C2WA 1_555 1_555
H6WA C2WA 1_555 1_555
H7WA C2WA 1_555 1_555
O1WA C2WA 1_555 1_555
In1WA N3WA 1_555 1_555
In1B N3D 1_555 1_555
In1VA N3FB 1_555 1_555
In1A N3A 1_555 1_555
In1XA N3ZA 1_555 1_555
In1YA N3BB 1_555 1_555
In1C N3C 1_555 1_555
N3WA C4 1_555 1_555
N3AB In1WA 1_555 1_555
N3D C3D 1_555 1_555
N3K In1B 1_555 1_555
N3FB C3FB 1_555 1_555
N3VA In1VA 1_555 1_555
N3A C3A 1_555 1_555
N3E In1A 1_555 1_555
N3ZA C3ZA 1_555 1_555
N3GB In1XA 1_555 1_555
N3J In1 1_555 1_555
N3G In1 1_555 1_555
N3BB C3BB 1_555 1_555
N3DB In1YA 1_555 1_555
N3YA In1YA 1_555 1_555
N3B In1B 1_555 1_555
N3I In1A 1_555 1_555
N3XA In1XA 1_555 1_555
N3C C3C 1_555 1_555
N3F In1C 1_555 1_555
N3H In1C 1_555 1_555
N3EB In1WA 1_555 1_555
N3CB In1VA 1_555 1_555
C3WA C3 1_555 1_555
C3AB N3AB 1_555 1_555
C3D C3AB 1_555 1_555
C3K N3K 1_555 1_555
C3FB C3K 1_555 1_555
C3VA N3VA 1_555 1_555
C3A C3VA 1_555 1_555
C3E N3E 1_555 1_555
C3ZA C3E 1_555 1_555
C3GB N3GB 1_555 1_555
C3J N3J 1_555 1_555
C3G N3G 1_555 1_555
C3BB C3G 1_555 1_555
C3DB N3DB 1_555 1_555
C3I N3I 1_555 1_555
C3YA N3YA 1_555 1_555
C3B N3B 1_555 1_555
C3XA N3XA 1_555 1_555
C3C C3XA 1_555 1_555
C3F N3F 1_555 1_555
C3CB N3CB 1_555 1_555
C3H N3H 1_555 1_555
C3EB N3EB 1_555 1_555
O5G In1 1_555 1_555
O5J In1 1_555 1_555
O5DB In1YA 1_555 1_555
O5YA In1YA 1_555 1_555
O5BB In1YA 1_555 1_555
O5D In1B 1_555 1_555
O5K In1B 1_555 1_555
O5B In1B 1_555 1_555
O5A In1A 1_555 1_555
O5E In1A 1_555 1_555
O5I In1A 1_555 1_555
O5GB In1XA 1_555 1_555
O5XA In1XA 1_555 1_555
O5ZA In1XA 1_555 1_555
O5F In1C 1_555 1_555
O5H In1C 1_555 1_555
O5C In1C 1_555 1_555
O5WA In1WA 1_555 1_555
O5AB In1WA 1_555 1_555
O5EB In1WA 1_555 1_555
O5FB In1VA 1_555 1_555
O5VA In1VA 1_555 1_555
O5CB In1VA 1_555 1_555
C4G N3G 1_555 1_555
C4B N3YA 1_555 1_555
C4I N3DB 1_555 1_555
C4J N3GB 1_555 1_555
C4C N3XA 1_555 1_555
C4H N3H 1_555 1_555
C4F N3F 1_555 1_555
C4E N3E 1_555 1_555
C4A N3VA 1_555 1_555
C4K N3K 1_555 1_555
C4D N3AB 1_555 1_555
H8B C4B 1_555 1_555
H8I C4I 1_555 1_555
H8G C4G 1_555 1_555
H8J C4J 1_555 1_555
H8H C4H 1_555 1_555
H8F C4F 1_555 1_555
H8C C4C 1_555 1_555
H8E C4E 1_555 1_555
H8A C4A 1_555 1_555
H8K C4K 1_555 1_555
H8D C4D 1_555 1_555
C5G C3G 1_555 1_555
C5J C3J 1_555 1_555
C5DB C3DB 1_555 1_555
C5YA C3YA 1_555 1_555
C5BB C3BB 1_555 1_555
C5D C3D 1_555 1_555
C5K C3K 1_555 1_555
C5B C3B 1_555 1_555
C5A C3A 1_555 1_555
C5E C3E 1_555 1_555
C5I C3I 1_555 1_555
C5GB C3GB 1_555 1_555
C5XA C3XA 1_555 1_555
C5ZA C3ZA 1_555 1_555
C5F C3F 1_555 1_555
C5H C3H 1_555 1_555
C5C C3C 1_555 1_555
C5WA C3WA 1_555 1_555
C5AB C3AB 1_555 1_555
C5EB C3EB 1_555 1_555
C5FB C3FB 1_555 1_555
C5VA C3VA 1_555 1_555
C5CB C3CB 1_555 1_555
O6J C5J 1_555 1_555
O6G C5G 1_555 1_555
O6BB C5BB 1_555 1_555
O6YA C5YA 1_555 1_555
O6D C5D 1_555 1_555
O6K C5K 1_555 1_555
O6B C5B 1_555 1_555
O6DB C5DB 1_555 1_555
O6A C5A 1_555 1_555
O6E C5E 1_555 1_555
O6I C5I 1_555 1_555
O6ZA C5ZA 1_555 1_555
O6XA C5XA 1_555 1_555
O6C C5C 1_555 1_555
O6H C5H 1_555 1_555
O6WA C5WA 1_555 1_555
O6AB C5AB 1_555 1_555
O6EB C5EB 1_555 1_555
O6F C5F 1_555 1_555
O6FB C5FB 1_555 1_555
O6VA C5VA 1_555 1_555
O6CB C5CB 1_555 1_555
O6GB C5GB 1_555 1_555
N3WA C3WA 1_555 1_555
N3D C4D 1_555 1_555
N3FB C4K 1_555 1_555
N3A C4A 1_555 1_555
N3ZA C4E 1_555 1_555
N3J C4J 1_555 1_555
N3BB C4G 1_555 1_555
N3B C4B 1_555 1_555
N3I C4I 1_555 1_555
N3C C4C 1_555 1_555
N3EB C4H 1_555 1_555
N3CB C4F 1_555 1_555
C3GB C3J 1_555 1_555
C3DB C3I 1_555 1_555
C3YA C3B 1_555 1_555
C3F C3CB 1_555 1_555
C3H C3EB 1_555 1_555
O5G C5G 1_555 1_555
O5J C5J 1_555 1_555
O5DB C5DB 1_555 1_555
O5YA C5YA 1_555 1_555
O5BB C5BB 1_555 1_555
O5D C5D 1_555 1_555
O5K C5K 1_555 1_555
O5B C5B 1_555 1_555
O5A C5A 1_555 1_555
O5E C5E 1_555 1_555
O5I C5I 1_555 1_555
O5GB C5GB 1_555 1_555
O5XA C5XA 1_555 1_555
O5ZA C5ZA 1_555 1_555
O5F C5F 1_555 1_555
O5H C5H 1_555 1_555
O5C C5C 1_555 1_555
O5WA C5WA 1_555 1_555
O5AB C5AB 1_555 1_555
O5EB C5EB 1_555 1_555
O5FB C5FB 1_555 1_555
O5VA C5VA 1_555 1_555
O5CB C5CB 1_555 1_555

#END
