# generated using pymatgen
data_H316Pd6C228N72O157
_symmetry_space_group_name_H-M   'P 1'
_cell_length_a   26.31300000
_cell_length_b   26.31300000
_cell_length_c   31.70900000
_cell_angle_alpha   90.00000000
_cell_angle_beta   90.00000000
_cell_angle_gamma   90.00000000
_symmetry_Int_Tables_number   1
_chemical_formula_structural   H316Pd6C228N72O157
_chemical_formula_sum   'H1264 Pd24 C912 N288 O628'
_cell_volume   21954.48618302
_cell_formula_units_Z   4
loop_
 _symmetry_equiv_pos_site_id
 _symmetry_equiv_pos_as_xyz
  1  'x, y, z'
loop_
 _atom_site_type_symbol
 _atom_site_label
 _atom_site_symmetry_multiplicity
 _atom_site_fract_x
 _atom_site_fract_y
 _atom_site_fract_z
 _atom_site_occupancy
  H  H1  1  0.066500  0.360800  0.028000  1
  H  H2  1  0.433500  0.639200  0.528000  1
  H  H3  1  0.389200  0.316500  0.278000  1
  H  H4  1  0.110800  0.683500  0.778000  1
  H  H5  1  0.566500  0.860800  0.528000  1
  H  H6  1  0.933500  0.139200  0.028000  1
  H  H7  1  0.889200  0.816500  0.778000  1
  H  H8  1  0.610800  0.183500  0.278000  1
  H  H9  1  0.933500  0.639200  0.972000  1
  H  H10  1  0.566500  0.360800  0.472000  1
  H  H11  1  0.610800  0.683500  0.722000  1
  H  H12  1  0.889200  0.316500  0.222000  1
  H  H13  1  0.433500  0.139200  0.472000  1
  H  H14  1  0.066500  0.860800  0.972000  1
  H  H15  1  0.110800  0.183500  0.222000  1
  H  H16  1  0.389200  0.816500  0.722000  1
  H  H17  1  0.023700  0.442700  0.032400  1
  H  H18  1  0.476300  0.557300  0.532400  1
  H  H19  1  0.307300  0.273700  0.282400  1
  H  H20  1  0.192700  0.726300  0.782400  1
  H  H21  1  0.523700  0.942700  0.532400  1
  H  H22  1  0.976300  0.057300  0.032400  1
  H  H23  1  0.807300  0.773700  0.782400  1
  H  H24  1  0.692700  0.226300  0.282400  1
  H  H25  1  0.976300  0.557300  0.967600  1
  H  H26  1  0.523700  0.442700  0.467600  1
  H  H27  1  0.692700  0.726300  0.717600  1
  H  H28  1  0.807300  0.273700  0.217600  1
  H  H29  1  0.476300  0.057300  0.467600  1
  H  H30  1  0.023700  0.942700  0.967600  1
  H  H31  1  0.192700  0.226300  0.217600  1
  H  H32  1  0.307300  0.773700  0.717600  1
  H  H33  1  0.957700  0.445100  0.084000  1
  H  H34  1  0.542300  0.554900  0.584000  1
  H  H35  1  0.304900  0.207700  0.334000  1
  H  H36  1  0.195100  0.792300  0.834000  1
  H  H37  1  0.457700  0.945100  0.584000  1
  H  H38  1  0.042300  0.054900  0.084000  1
  H  H39  1  0.804900  0.707700  0.834000  1
  H  H40  1  0.695100  0.292300  0.334000  1
  H  H41  1  0.042300  0.554900  0.916000  1
  H  H42  1  0.457700  0.445100  0.416000  1
  H  H43  1  0.695100  0.792300  0.666000  1
  H  H44  1  0.804900  0.207700  0.166000  1
  H  H45  1  0.542300  0.054900  0.416000  1
  H  H46  1  0.957700  0.945100  0.916000  1
  H  H47  1  0.195100  0.292300  0.166000  1
  H  H48  1  0.304900  0.707700  0.666000  1
  H  H49  1  0.919600  0.367400  0.109600  1
  H  H50  1  0.580400  0.632600  0.609600  1
  H  H51  1  0.382600  0.169600  0.359600  1
  H  H52  1  0.117400  0.830400  0.859600  1
  H  H53  1  0.419600  0.867400  0.609600  1
  H  H54  1  0.080400  0.132600  0.109600  1
  H  H55  1  0.882600  0.669600  0.859600  1
  H  H56  1  0.617400  0.330400  0.359600  1
  H  H57  1  0.080400  0.632600  0.890400  1
  H  H58  1  0.419600  0.367400  0.390400  1
  H  H59  1  0.617400  0.830400  0.640400  1
  H  H60  1  0.882600  0.169600  0.140400  1
  H  H61  1  0.580400  0.132600  0.390400  1
  H  H62  1  0.919600  0.867400  0.890400  1
  H  H63  1  0.117400  0.330400  0.140400  1
  H  H64  1  0.382600  0.669600  0.640400  1
  H  H65  1  0.161000  0.281100  0.144500  1
  H  H66  1  0.339000  0.718900  0.644500  1
  H  H67  1  0.468900  0.411000  0.394500  1
  H  H68  1  0.031100  0.589000  0.894500  1
  H  H69  1  0.661000  0.781100  0.644500  1
  H  H70  1  0.839000  0.218900  0.144500  1
  H  H71  1  0.968900  0.911000  0.894500  1
  H  H72  1  0.531100  0.089000  0.394500  1
  H  H73  1  0.839000  0.718900  0.855500  1
  H  H74  1  0.661000  0.281100  0.355500  1
  H  H75  1  0.531100  0.589000  0.605500  1
  H  H76  1  0.968900  0.411000  0.105500  1
  H  H77  1  0.339000  0.218900  0.355500  1
  H  H78  1  0.161000  0.781100  0.855500  1
  H  H79  1  0.031100  0.089000  0.105500  1
  H  H80  1  0.468900  0.911000  0.605500  1
  H  H81  1  0.156000  0.323700  0.180200  1
  H  H82  1  0.344000  0.676300  0.680200  1
  H  H83  1  0.426300  0.406000  0.430200  1
  H  H84  1  0.073700  0.594000  0.930200  1
  H  H85  1  0.656000  0.823700  0.680200  1
  H  H86  1  0.844000  0.176300  0.180200  1
  H  H87  1  0.926300  0.906000  0.930200  1
  H  H88  1  0.573700  0.094000  0.430200  1
  H  H89  1  0.844000  0.676300  0.819800  1
  H  H90  1  0.656000  0.323700  0.319800  1
  H  H91  1  0.573700  0.594000  0.569800  1
  H  H92  1  0.926300  0.406000  0.069800  1
  H  H93  1  0.344000  0.176300  0.319800  1
  H  H94  1  0.156000  0.823700  0.819800  1
  H  H95  1  0.073700  0.094000  0.069800  1
  H  H96  1  0.426300  0.906000  0.569800  1
  H  H97  1  0.022600  0.301100  0.237700  1
  H  H98  1  0.477400  0.698900  0.737700  1
  H  H99  1  0.448900  0.272600  0.487700  1
  H  H100  1  0.051100  0.727400  0.987700  1
  H  H101  1  0.522600  0.801100  0.737700  1
  H  H102  1  0.977400  0.198900  0.237700  1
  H  H103  1  0.948900  0.772600  0.987700  1
  H  H104  1  0.551100  0.227400  0.487700  1
  H  H105  1  0.977400  0.698900  0.762300  1
  H  H106  1  0.522600  0.301100  0.262300  1
  H  H107  1  0.551100  0.727400  0.512300  1
  H  H108  1  0.948900  0.272600  0.012300  1
  H  H109  1  0.477400  0.198900  0.262300  1
  H  H110  1  0.022600  0.801100  0.762300  1
  H  H111  1  0.051100  0.227400  0.012300  1
  H  H112  1  0.448900  0.772600  0.512300  1
  H  H113  1  0.018900  0.249500  0.210900  1
  H  H114  1  0.481100  0.750500  0.710900  1
  H  H115  1  0.500500  0.268900  0.460900  1
  H  H116  1  0.999500  0.731100  0.960900  1
  H  H117  1  0.518900  0.749500  0.710900  1
  H  H118  1  0.981100  0.250500  0.210900  1
  H  H119  1  0.000500  0.768900  0.960900  1
  H  H120  1  0.499500  0.231100  0.460900  1
  H  H121  1  0.981100  0.750500  0.789100  1
  H  H122  1  0.518900  0.249500  0.289100  1
  H  H123  1  0.499500  0.731100  0.539100  1
  H  H124  1  0.000500  0.268900  0.039100  1
  H  H125  1  0.481100  0.250500  0.289100  1
  H  H126  1  0.018900  0.749500  0.789100  1
  H  H127  1  0.999500  0.231100  0.039100  1
  H  H128  1  0.500500  0.768900  0.539100  1
  H  H129  1  0.087000  0.233900  0.249700  1
  H  H130  1  0.413000  0.766100  0.749700  1
  H  H131  1  0.516100  0.337000  0.499700  1
  H  H132  1  0.983900  0.663000  0.999700  1
  H  H133  1  0.587000  0.733900  0.749700  1
  H  H134  1  0.913000  0.266100  0.249700  1
  H  H135  1  0.016100  0.837000  0.999700  1
  H  H136  1  0.483900  0.163000  0.499700  1
  H  H137  1  0.913000  0.766100  0.750300  1
  H  H138  1  0.587000  0.233900  0.250300  1
  H  H139  1  0.483900  0.663000  0.500300  1
  H  H140  1  0.016100  0.337000  0.000300  1
  H  H141  1  0.413000  0.266100  0.250300  1
  H  H142  1  0.087000  0.733900  0.750300  1
  H  H143  1  0.983900  0.163000  0.000300  1
  H  H144  1  0.516100  0.837000  0.500300  1
  H  H145  1  0.104100  0.291900  0.250600  1
  H  H146  1  0.395900  0.708100  0.750600  1
  H  H147  1  0.458100  0.354100  0.500600  1
  H  H148  1  0.041900  0.645900  0.000600  1
  H  H149  1  0.604100  0.791900  0.750600  1
  H  H150  1  0.895900  0.208100  0.250600  1
  H  H151  1  0.958100  0.854100  0.000600  1
  H  H152  1  0.541900  0.145900  0.500600  1
  H  H153  1  0.895900  0.708100  0.749400  1
  H  H154  1  0.604100  0.291900  0.249400  1
  H  H155  1  0.541900  0.645900  0.499400  1
  H  H156  1  0.958100  0.354100  0.999400  1
  H  H157  1  0.395900  0.208100  0.249400  1
  H  H158  1  0.104100  0.791900  0.749400  1
  H  H159  1  0.041900  0.145900  0.999400  1
  H  H160  1  0.458100  0.854100  0.499400  1
  H  H161  1  0.167200  0.249800  0.216600  1
  H  H162  1  0.332800  0.750200  0.716600  1
  H  H163  1  0.500200  0.417200  0.466600  1
  H  H164  1  0.999800  0.582800  0.966600  1
  H  H165  1  0.667200  0.749800  0.716600  1
  H  H166  1  0.832800  0.250200  0.216600  1
  H  H167  1  0.000200  0.917200  0.966600  1
  H  H168  1  0.499800  0.082800  0.466600  1
  H  H169  1  0.832800  0.750200  0.783400  1
  H  H170  1  0.667200  0.249800  0.283400  1
  H  H171  1  0.499800  0.582800  0.533400  1
  H  H172  1  0.000200  0.417200  0.033400  1
  H  H173  1  0.332800  0.250200  0.283400  1
  H  H174  1  0.167200  0.749800  0.783400  1
  H  H175  1  0.999800  0.082800  0.033400  1
  H  H176  1  0.500200  0.917200  0.533400  1
  H  H177  1  0.128100  0.219400  0.187200  1
  H  H178  1  0.371900  0.780600  0.687200  1
  H  H179  1  0.530600  0.378100  0.437200  1
  H  H180  1  0.969400  0.621900  0.937200  1
  H  H181  1  0.628100  0.719400  0.687200  1
  H  H182  1  0.871900  0.280600  0.187200  1
  H  H183  1  0.030600  0.878100  0.937200  1
  H  H184  1  0.469400  0.121900  0.437200  1
  H  H185  1  0.871900  0.780600  0.812800  1
  H  H186  1  0.628100  0.219400  0.312800  1
  H  H187  1  0.469400  0.621900  0.562800  1
  H  H188  1  0.030600  0.378100  0.062800  1
  H  H189  1  0.371900  0.280600  0.312800  1
  H  H190  1  0.128100  0.719400  0.812800  1
  H  H191  1  0.969400  0.121900  0.062800  1
  H  H192  1  0.530600  0.878100  0.562800  1
  H  H193  1  0.116800  0.326700  0.090600  1
  H  H194  1  0.383200  0.673300  0.590600  1
  H  H195  1  0.423300  0.366800  0.340600  1
  H  H196  1  0.076700  0.633200  0.840600  1
  H  H197  1  0.616800  0.826700  0.590600  1
  H  H198  1  0.883200  0.173300  0.090600  1
  H  H199  1  0.923300  0.866800  0.840600  1
  H  H200  1  0.576700  0.133200  0.340600  1
  H  H201  1  0.883200  0.673300  0.909400  1
  H  H202  1  0.616800  0.326700  0.409400  1
  H  H203  1  0.576700  0.633200  0.659400  1
  H  H204  1  0.923300  0.366800  0.159400  1
  H  H205  1  0.383200  0.173300  0.409400  1
  H  H206  1  0.116800  0.826700  0.909400  1
  H  H207  1  0.076700  0.133200  0.159400  1
  H  H208  1  0.423300  0.866800  0.659400  1
  H  H209  1  0.972800  0.334800  0.173600  1
  H  H210  1  0.527200  0.665200  0.673600  1
  H  H211  1  0.415200  0.222800  0.423600  1
  H  H212  1  0.084800  0.777200  0.923600  1
  H  H213  1  0.472800  0.834800  0.673600  1
  H  H214  1  0.027200  0.165200  0.173600  1
  H  H215  1  0.915200  0.722800  0.923600  1
  H  H216  1  0.584800  0.277200  0.423600  1
  H  H217  1  0.027200  0.665200  0.826400  1
  H  H218  1  0.472800  0.334800  0.326400  1
  H  H219  1  0.584800  0.777200  0.576400  1
  H  H220  1  0.915200  0.222800  0.076400  1
  H  H221  1  0.527200  0.165200  0.326400  1
  H  H222  1  0.972800  0.834800  0.826400  1
  H  H223  1  0.084800  0.277200  0.076400  1
  H  H224  1  0.415200  0.722800  0.576400  1
  H  H225  1  0.985400  0.337900  0.992000  1
  H  H226  1  0.514600  0.662100  0.492000  1
  H  H227  1  0.412100  0.235400  0.242000  1
  H  H228  1  0.087900  0.764600  0.742000  1
  H  H229  1  0.485400  0.837900  0.492000  1
  H  H230  1  0.014600  0.162100  0.992000  1
  H  H231  1  0.912100  0.735400  0.742000  1
  H  H232  1  0.587900  0.264600  0.242000  1
  H  H233  1  0.014600  0.662100  0.008000  1
  H  H234  1  0.485400  0.337900  0.508000  1
  H  H235  1  0.587900  0.764600  0.758000  1
  H  H236  1  0.912100  0.235400  0.258000  1
  H  H237  1  0.514600  0.162100  0.508000  1
  H  H238  1  0.985400  0.837900  0.008000  1
  H  H239  1  0.087900  0.264600  0.258000  1
  H  H240  1  0.412100  0.735400  0.758000  1
  H  H241  1  0.912100  0.341000  0.034500  1
  H  H242  1  0.587900  0.659000  0.534500  1
  H  H243  1  0.409000  0.162100  0.284500  1
  H  H244  1  0.091000  0.837900  0.784500  1
  H  H245  1  0.412100  0.841000  0.534500  1
  H  H246  1  0.087900  0.159000  0.034500  1
  H  H247  1  0.909000  0.662100  0.784500  1
  H  H248  1  0.591000  0.337900  0.284500  1
  H  H249  1  0.087900  0.659000  0.965500  1
  H  H250  1  0.412100  0.341000  0.465500  1
  H  H251  1  0.591000  0.837900  0.715500  1
  H  H252  1  0.909000  0.162100  0.215500  1
  H  H253  1  0.587900  0.159000  0.465500  1
  H  H254  1  0.912100  0.841000  0.965500  1
  H  H255  1  0.091000  0.337900  0.215500  1
  H  H256  1  0.409000  0.662100  0.715500  1
  H  H257  1  0.934700  0.189000  0.064000  1
  H  H258  1  0.565300  0.811000  0.564000  1
  H  H259  1  0.561000  0.184700  0.314000  1
  H  H260  1  0.939000  0.815300  0.814000  1
  H  H261  1  0.434700  0.689000  0.564000  1
  H  H262  1  0.065300  0.311000  0.064000  1
  H  H263  1  0.061000  0.684700  0.814000  1
  H  H264  1  0.439000  0.315300  0.314000  1
  H  H265  1  0.065300  0.811000  0.936000  1
  H  H266  1  0.434700  0.189000  0.436000  1
  H  H267  1  0.439000  0.815300  0.686000  1
  H  H268  1  0.061000  0.184700  0.186000  1
  H  H269  1  0.565300  0.311000  0.436000  1
  H  H270  1  0.934700  0.689000  0.936000  1
  H  H271  1  0.939000  0.315300  0.186000  1
  H  H272  1  0.561000  0.684700  0.686000  1
  H  H273  1  0.972200  0.127800  0.028300  1
  H  H274  1  0.527800  0.872200  0.528300  1
  H  H275  1  0.622200  0.222200  0.278300  1
  H  H276  1  0.877800  0.777800  0.778300  1
  H  H277  1  0.472200  0.627800  0.528300  1
  H  H278  1  0.027800  0.372200  0.028300  1
  H  H279  1  0.122200  0.722200  0.778300  1
  H  H280  1  0.377800  0.277800  0.278300  1
  H  H281  1  0.027800  0.872200  0.971700  1
  H  H282  1  0.472200  0.127800  0.471700  1
  H  H283  1  0.377800  0.777800  0.721700  1
  H  H284  1  0.122200  0.222200  0.221700  1
  H  H285  1  0.527800  0.372200  0.471700  1
  H  H286  1  0.972200  0.627800  0.971700  1
  H  H287  1  0.877800  0.277800  0.221700  1
  H  H288  1  0.622200  0.722200  0.721700  1
  H  H289  1  0.979100  0.180000  0.002500  1
  H  H290  1  0.520900  0.820000  0.502500  1
  H  H291  1  0.570000  0.229100  0.252500  1
  H  H292  1  0.930000  0.770900  0.752500  1
  H  H293  1  0.479100  0.680000  0.502500  1
  H  H294  1  0.020900  0.320000  0.002500  1
  H  H295  1  0.070000  0.729100  0.752500  1
  H  H296  1  0.430000  0.270900  0.252500  1
  H  H297  1  0.020900  0.820000  0.997500  1
  H  H298  1  0.479100  0.180000  0.497500  1
  H  H299  1  0.430000  0.770900  0.747500  1
  H  H300  1  0.070000  0.229100  0.247500  1
  H  H301  1  0.520900  0.320000  0.497500  1
  H  H302  1  0.979100  0.680000  0.997500  1
  H  H303  1  0.930000  0.270900  0.247500  1
  H  H304  1  0.570000  0.729100  0.747500  1
  H  H305  1  0.062700  0.189300  0.038700  1
  H  H306  1  0.437300  0.810700  0.538700  1
  H  H307  1  0.560700  0.312700  0.288700  1
  H  H308  1  0.939300  0.687300  0.788700  1
  H  H309  1  0.562700  0.689300  0.538700  1
  H  H310  1  0.937300  0.310700  0.038700  1
  H  H311  1  0.060700  0.812700  0.788700  1
  H  H312  1  0.439300  0.187300  0.288700  1
  H  H313  1  0.937300  0.810700  0.961300  1
  H  H314  1  0.562700  0.189300  0.461300  1
  H  H315  1  0.439300  0.687300  0.711300  1
  H  H316  1  0.060700  0.312700  0.211300  1
  H  H317  1  0.437300  0.310700  0.461300  1
  H  H318  1  0.062700  0.689300  0.961300  1
  H  H319  1  0.939300  0.187300  0.211300  1
  H  H320  1  0.560700  0.812700  0.711300  1
  H  H321  1  0.061100  0.143600  0.004800  1
  H  H322  1  0.438900  0.856400  0.504800  1
  H  H323  1  0.606400  0.311100  0.254800  1
  H  H324  1  0.893600  0.688900  0.754800  1
  H  H325  1  0.561100  0.643600  0.504800  1
  H  H326  1  0.938900  0.356400  0.004800  1
  H  H327  1  0.106400  0.811100  0.754800  1
  H  H328  1  0.393600  0.188900  0.254800  1
  H  H329  1  0.938900  0.856400  0.995200  1
  H  H330  1  0.561100  0.143600  0.495200  1
  H  H331  1  0.393600  0.688900  0.745200  1
  H  H332  1  0.106400  0.311100  0.245200  1
  H  H333  1  0.438900  0.356400  0.495200  1
  H  H334  1  0.061100  0.643600  0.995200  1
  H  H335  1  0.893600  0.188900  0.245200  1
  H  H336  1  0.606400  0.811100  0.745200  1
  H  H337  1  0.040300  0.084100  0.058900  1
  H  H338  1  0.459700  0.915900  0.558900  1
  H  H339  1  0.665900  0.290300  0.308900  1
  H  H340  1  0.834100  0.709700  0.808900  1
  H  H341  1  0.540300  0.584100  0.558900  1
  H  H342  1  0.959700  0.415900  0.058900  1
  H  H343  1  0.165900  0.790300  0.808900  1
  H  H344  1  0.334100  0.209700  0.308900  1
  H  H345  1  0.959700  0.915900  0.941100  1
  H  H346  1  0.540300  0.084100  0.441100  1
  H  H347  1  0.334100  0.709700  0.691100  1
  H  H348  1  0.165900  0.290300  0.191100  1
  H  H349  1  0.459700  0.415900  0.441100  1
  H  H350  1  0.040300  0.584100  0.941100  1
  H  H351  1  0.834100  0.209700  0.191100  1
  H  H352  1  0.665900  0.790300  0.691100  1
  H  H353  1  0.091900  0.112000  0.071600  1
  H  H354  1  0.408100  0.888000  0.571600  1
  H  H355  1  0.638000  0.341900  0.321600  1
  H  H356  1  0.862000  0.658100  0.821600  1
  H  H357  1  0.591900  0.612000  0.571600  1
  H  H358  1  0.908100  0.388000  0.071600  1
  H  H359  1  0.138000  0.841900  0.821600  1
  H  H360  1  0.362000  0.158100  0.321600  1
  H  H361  1  0.908100  0.888000  0.928400  1
  H  H362  1  0.591900  0.112000  0.428400  1
  H  H363  1  0.362000  0.658100  0.678400  1
  H  H364  1  0.138000  0.341900  0.178400  1
  H  H365  1  0.408100  0.388000  0.428400  1
  H  H366  1  0.091900  0.612000  0.928400  1
  H  H367  1  0.862000  0.158100  0.178400  1
  H  H368  1  0.638000  0.841900  0.678400  1
  H  H369  1  0.030000  0.101700  0.129500  1
  H  H370  1  0.470000  0.898300  0.629500  1
  H  H371  1  0.648300  0.280000  0.379500  1
  H  H372  1  0.851700  0.720000  0.879500  1
  H  H373  1  0.530000  0.601700  0.629500  1
  H  H374  1  0.970000  0.398300  0.129500  1
  H  H375  1  0.148300  0.780000  0.879500  1
  H  H376  1  0.351700  0.220000  0.379500  1
  H  H377  1  0.970000  0.898300  0.870500  1
  H  H378  1  0.530000  0.101700  0.370500  1
  H  H379  1  0.351700  0.720000  0.620500  1
  H  H380  1  0.148300  0.280000  0.120500  1
  H  H381  1  0.470000  0.398300  0.370500  1
  H  H382  1  0.030000  0.601700  0.870500  1
  H  H383  1  0.851700  0.220000  0.120500  1
  H  H384  1  0.648300  0.780000  0.620500  1
  H  H385  1  0.053200  0.157800  0.124800  1
  H  H386  1  0.446800  0.842200  0.624800  1
  H  H387  1  0.592200  0.303200  0.374800  1
  H  H388  1  0.907800  0.696800  0.874800  1
  H  H389  1  0.553200  0.657800  0.624800  1
  H  H390  1  0.946800  0.342200  0.124800  1
  H  H391  1  0.092200  0.803200  0.874800  1
  H  H392  1  0.407800  0.196800  0.374800  1
  H  H393  1  0.946800  0.842200  0.875200  1
  H  H394  1  0.553200  0.157800  0.375200  1
  H  H395  1  0.407800  0.696800  0.625200  1
  H  H396  1  0.092200  0.303200  0.125200  1
  H  H397  1  0.446800  0.342200  0.375200  1
  H  H398  1  0.053200  0.657800  0.875200  1
  H  H399  1  0.907800  0.196800  0.125200  1
  H  H400  1  0.592200  0.803200  0.625200  1
  H  H401  1  0.966700  0.170600  0.131300  1
  H  H402  1  0.533300  0.829400  0.631300  1
  H  H403  1  0.579400  0.216700  0.381300  1
  H  H404  1  0.920600  0.783300  0.881300  1
  H  H405  1  0.466700  0.670600  0.631300  1
  H  H406  1  0.033300  0.329400  0.131300  1
  H  H407  1  0.079400  0.716700  0.881300  1
  H  H408  1  0.420600  0.283300  0.381300  1
  H  H409  1  0.033300  0.829400  0.868700  1
  H  H410  1  0.466700  0.170600  0.368700  1
  H  H411  1  0.420600  0.783300  0.618700  1
  H  H412  1  0.079400  0.216700  0.118700  1
  H  H413  1  0.533300  0.329400  0.368700  1
  H  H414  1  0.966700  0.670600  0.868700  1
  H  H415  1  0.920600  0.283300  0.118700  1
  H  H416  1  0.579400  0.716700  0.618700  1
  H  H417  1  0.953600  0.125100  0.099800  1
  H  H418  1  0.546400  0.874900  0.599800  1
  H  H419  1  0.624900  0.203600  0.349800  1
  H  H420  1  0.875100  0.796400  0.849800  1
  H  H421  1  0.453600  0.625100  0.599800  1
  H  H422  1  0.046400  0.374900  0.099800  1
  H  H423  1  0.124900  0.703600  0.849800  1
  H  H424  1  0.375100  0.296400  0.349800  1
  H  H425  1  0.046400  0.874900  0.900200  1
  H  H426  1  0.453600  0.125100  0.400200  1
  H  H427  1  0.375100  0.796400  0.650200  1
  H  H428  1  0.124900  0.203600  0.150200  1
  H  H429  1  0.546400  0.374900  0.400200  1
  H  H430  1  0.953600  0.625100  0.900200  1
  H  H431  1  0.875100  0.296400  0.150200  1
  H  H432  1  0.624900  0.703600  0.650200  1
  H  H433  1  0.722000  0.594900  0.176400  1
  H  H434  1  0.778000  0.405100  0.676400  1
  H  H435  1  0.155100  0.972000  0.426400  1
  H  H436  1  0.344900  0.028000  0.926400  1
  H  H437  1  0.222000  0.094900  0.676400  1
  H  H438  1  0.278000  0.905100  0.176400  1
  H  H439  1  0.655100  0.472000  0.926400  1
  H  H440  1  0.844900  0.528000  0.426400  1
  H  H441  1  0.278000  0.405100  0.823600  1
  H  H442  1  0.222000  0.594900  0.323600  1
  H  H443  1  0.844900  0.028000  0.573600  1
  H  H444  1  0.655100  0.972000  0.073600  1
  H  H445  1  0.778000  0.905100  0.323600  1
  H  H446  1  0.722000  0.094900  0.823600  1
  H  H447  1  0.344900  0.528000  0.073600  1
  H  H448  1  0.155100  0.472000  0.573600  1
  H  H449  1  0.746500  0.575400  0.133100  1
  H  H450  1  0.753500  0.424600  0.633100  1
  H  H451  1  0.174600  0.996500  0.383100  1
  H  H452  1  0.325400  0.003500  0.883100  1
  H  H453  1  0.246500  0.075400  0.633100  1
  H  H454  1  0.253500  0.924600  0.133100  1
  H  H455  1  0.674600  0.496500  0.883100  1
  H  H456  1  0.825400  0.503500  0.383100  1
  H  H457  1  0.253500  0.424600  0.866900  1
  H  H458  1  0.246500  0.575400  0.366900  1
  H  H459  1  0.825400  0.003500  0.616900  1
  H  H460  1  0.674600  0.996500  0.116900  1
  H  H461  1  0.753500  0.924600  0.366900  1
  H  H462  1  0.746500  0.075400  0.866900  1
  H  H463  1  0.325400  0.503500  0.116900  1
  H  H464  1  0.174600  0.496500  0.616900  1
  H  H465  1  0.764100  0.551000  0.177000  1
  H  H466  1  0.735900  0.449000  0.677000  1
  H  H467  1  0.199000  0.014100  0.427000  1
  H  H468  1  0.301000  0.985900  0.927000  1
  H  H469  1  0.264100  0.051000  0.677000  1
  H  H470  1  0.235900  0.949000  0.177000  1
  H  H471  1  0.699000  0.514100  0.927000  1
  H  H472  1  0.801000  0.485900  0.427000  1
  H  H473  1  0.235900  0.449000  0.823000  1
  H  H474  1  0.264100  0.551000  0.323000  1
  H  H475  1  0.801000  0.985900  0.573000  1
  H  H476  1  0.699000  0.014100  0.073000  1
  H  H477  1  0.735900  0.949000  0.323000  1
  H  H478  1  0.764100  0.051000  0.823000  1
  H  H479  1  0.301000  0.485900  0.073000  1
  H  H480  1  0.199000  0.514100  0.573000  1
  H  H481  1  0.659000  0.564100  0.114300  1
  H  H482  1  0.841000  0.435900  0.614300  1
  H  H483  1  0.185900  0.909000  0.364300  1
  H  H484  1  0.314100  0.091000  0.864300  1
  H  H485  1  0.159000  0.064100  0.614300  1
  H  H486  1  0.341000  0.935900  0.114300  1
  H  H487  1  0.685900  0.409000  0.864300  1
  H  H488  1  0.814100  0.591000  0.364300  1
  H  H489  1  0.341000  0.435900  0.885700  1
  H  H490  1  0.159000  0.564100  0.385700  1
  H  H491  1  0.814100  0.091000  0.635700  1
  H  H492  1  0.685900  0.909000  0.135700  1
  H  H493  1  0.841000  0.935900  0.385700  1
  H  H494  1  0.659000  0.064100  0.885700  1
  H  H495  1  0.314100  0.591000  0.135700  1
  H  H496  1  0.185900  0.409000  0.635700  1
  H  H497  1  0.629600  0.563400  0.158400  1
  H  H498  1  0.870400  0.436600  0.658400  1
  H  H499  1  0.186600  0.879600  0.408400  1
  H  H500  1  0.313400  0.120400  0.908400  1
  H  H501  1  0.129600  0.063400  0.658400  1
  H  H502  1  0.370400  0.936600  0.158400  1
  H  H503  1  0.686600  0.379600  0.908400  1
  H  H504  1  0.813400  0.620400  0.408400  1
  H  H505  1  0.370400  0.436600  0.841600  1
  H  H506  1  0.129600  0.563400  0.341600  1
  H  H507  1  0.813400  0.120400  0.591600  1
  H  H508  1  0.686600  0.879600  0.091600  1
  H  H509  1  0.870400  0.936600  0.341600  1
  H  H510  1  0.629600  0.063400  0.841600  1
  H  H511  1  0.313400  0.620400  0.091600  1
  H  H512  1  0.186600  0.379600  0.591600  1
  H  H513  1  0.589300  0.519500  0.103300  1
  H  H514  1  0.910700  0.480500  0.603300  1
  H  H515  1  0.230500  0.839300  0.353300  1
  H  H516  1  0.269500  0.160700  0.853300  1
  H  H517  1  0.089300  0.019500  0.603300  1
  H  H518  1  0.410700  0.980500  0.103300  1
  H  H519  1  0.730500  0.339300  0.853300  1
  H  H520  1  0.769500  0.660700  0.353300  1
  H  H521  1  0.410700  0.480500  0.896700  1
  H  H522  1  0.089300  0.519500  0.396700  1
  H  H523  1  0.769500  0.160700  0.646700  1
  H  H524  1  0.730500  0.839300  0.146700  1
  H  H525  1  0.910700  0.980500  0.396700  1
  H  H526  1  0.589300  0.019500  0.896700  1
  H  H527  1  0.269500  0.660700  0.146700  1
  H  H528  1  0.230500  0.339300  0.646700  1
  H  H529  1  0.596600  0.487600  0.145900  1
  H  H530  1  0.903400  0.512400  0.645900  1
  H  H531  1  0.262400  0.846600  0.395900  1
  H  H532  1  0.237600  0.153400  0.895900  1
  H  H533  1  0.096600  0.987600  0.645900  1
  H  H534  1  0.403400  0.012400  0.145900  1
  H  H535  1  0.762400  0.346600  0.895900  1
  H  H536  1  0.737600  0.653400  0.395900  1
  H  H537  1  0.403400  0.512400  0.854100  1
  H  H538  1  0.096600  0.487600  0.354100  1
  H  H539  1  0.737600  0.153400  0.604100  1
  H  H540  1  0.762400  0.846600  0.104100  1
  H  H541  1  0.903400  0.012400  0.354100  1
  H  H542  1  0.596600  0.987600  0.854100  1
  H  H543  1  0.237600  0.653400  0.104100  1
  H  H544  1  0.262400  0.346600  0.604100  1
  H  H545  1  0.581100  0.414600  0.103900  1
  H  H546  1  0.918900  0.585400  0.603900  1
  H  H547  1  0.335400  0.831100  0.353900  1
  H  H548  1  0.164600  0.168900  0.853900  1
  H  H549  1  0.081100  0.914600  0.603900  1
  H  H550  1  0.418900  0.085400  0.103900  1
  H  H551  1  0.835400  0.331100  0.853900  1
  H  H552  1  0.664600  0.668900  0.353900  1
  H  H553  1  0.418900  0.585400  0.896100  1
  H  H554  1  0.081100  0.414600  0.396100  1
  H  H555  1  0.664600  0.168900  0.646100  1
  H  H556  1  0.835400  0.831100  0.146100  1
  H  H557  1  0.918900  0.085400  0.396100  1
  H  H558  1  0.581100  0.914600  0.896100  1
  H  H559  1  0.164600  0.668900  0.146100  1
  H  H560  1  0.335400  0.331100  0.646100  1
  H  H561  1  0.611200  0.422400  0.147300  1
  H  H562  1  0.888800  0.577600  0.647300  1
  H  H563  1  0.327600  0.861200  0.397300  1
  H  H564  1  0.172400  0.138800  0.897300  1
  H  H565  1  0.111200  0.922400  0.647300  1
  H  H566  1  0.388800  0.077600  0.147300  1
  H  H567  1  0.827600  0.361200  0.897300  1
  H  H568  1  0.672400  0.638800  0.397300  1
  H  H569  1  0.388800  0.577600  0.852700  1
  H  H570  1  0.111200  0.422400  0.352700  1
  H  H571  1  0.672400  0.138800  0.602700  1
  H  H572  1  0.827600  0.861200  0.102700  1
  H  H573  1  0.888800  0.077600  0.352700  1
  H  H574  1  0.611200  0.922400  0.852700  1
  H  H575  1  0.172400  0.638800  0.102700  1
  H  H576  1  0.327600  0.361200  0.602700  1
  H  H577  1  0.632300  0.383500  0.112700  1
  H  H578  1  0.867700  0.616500  0.612700  1
  H  H579  1  0.366500  0.882300  0.362700  1
  H  H580  1  0.133500  0.117700  0.862700  1
  H  H581  1  0.132300  0.883500  0.612700  1
  H  H582  1  0.367700  0.116500  0.112700  1
  H  H583  1  0.866500  0.382300  0.862700  1
  H  H584  1  0.633500  0.617700  0.362700  1
  H  H585  1  0.367700  0.616500  0.887300  1
  H  H586  1  0.132300  0.383500  0.387300  1
  H  H587  1  0.633500  0.117700  0.637300  1
  H  H588  1  0.866500  0.882300  0.137300  1
  H  H589  1  0.867700  0.116500  0.387300  1
  H  H590  1  0.632300  0.883500  0.887300  1
  H  H591  1  0.133500  0.617700  0.137300  1
  H  H592  1  0.366500  0.382300  0.637300  1
  H  H593  1  0.618300  0.477500  0.041000  1
  H  H594  1  0.881700  0.522500  0.541000  1
  H  H595  1  0.272500  0.868300  0.291000  1
  H  H596  1  0.227500  0.131700  0.791000  1
  H  H597  1  0.118300  0.977500  0.541000  1
  H  H598  1  0.381700  0.022500  0.041000  1
  H  H599  1  0.772500  0.368300  0.791000  1
  H  H600  1  0.727500  0.631700  0.291000  1
  H  H601  1  0.381700  0.522500  0.959000  1
  H  H602  1  0.118300  0.477500  0.459000  1
  H  H603  1  0.727500  0.131700  0.709000  1
  H  H604  1  0.772500  0.868300  0.209000  1
  H  H605  1  0.881700  0.022500  0.459000  1
  H  H606  1  0.618300  0.977500  0.959000  1
  H  H607  1  0.227500  0.631700  0.209000  1
  H  H608  1  0.272500  0.368300  0.709000  1
  H  H609  1  0.674500  0.454400  0.038900  1
  H  H610  1  0.825500  0.545600  0.538900  1
  H  H611  1  0.295600  0.924500  0.288900  1
  H  H612  1  0.204400  0.075500  0.788900  1
  H  H613  1  0.174500  0.954400  0.538900  1
  H  H614  1  0.325500  0.045600  0.038900  1
  H  H615  1  0.795600  0.424500  0.788900  1
  H  H616  1  0.704400  0.575500  0.288900  1
  H  H617  1  0.325500  0.545600  0.961100  1
  H  H618  1  0.174500  0.454400  0.461100  1
  H  H619  1  0.704400  0.075500  0.711100  1
  H  H620  1  0.795600  0.924500  0.211100  1
  H  H621  1  0.825500  0.045600  0.461100  1
  H  H622  1  0.674500  0.954400  0.961100  1
  H  H623  1  0.204400  0.575500  0.211100  1
  H  H624  1  0.295600  0.424500  0.711100  1
  H  H625  1  0.666000  0.511800  0.054100  1
  H  H626  1  0.834000  0.488200  0.554100  1
  H  H627  1  0.238200  0.916000  0.304100  1
  H  H628  1  0.261800  0.084000  0.804100  1
  H  H629  1  0.166000  0.011800  0.554100  1
  H  H630  1  0.334000  0.988200  0.054100  1
  H  H631  1  0.738200  0.416000  0.804100  1
  H  H632  1  0.761800  0.584000  0.304100  1
  H  H633  1  0.334000  0.488200  0.945900  1
  H  H634  1  0.166000  0.511800  0.445900  1
  H  H635  1  0.761800  0.084000  0.695900  1
  H  H636  1  0.738200  0.916000  0.195900  1
  H  H637  1  0.834000  0.988200  0.445900  1
  H  H638  1  0.666000  0.011800  0.945900  1
  H  H639  1  0.261800  0.584000  0.195900  1
  H  H640  1  0.238200  0.416000  0.695900  1
  H  H641  1  0.670900  0.539200  0.219600  1
  H  H642  1  0.829100  0.460800  0.719600  1
  H  H643  1  0.210800  0.920900  0.469600  1
  H  H644  1  0.289200  0.079100  0.969600  1
  H  H645  1  0.170900  0.039200  0.719600  1
  H  H646  1  0.329100  0.960800  0.219600  1
  H  H647  1  0.710800  0.420900  0.969600  1
  H  H648  1  0.789200  0.579100  0.469600  1
  H  H649  1  0.329100  0.460800  0.780400  1
  H  H650  1  0.170900  0.539200  0.280400  1
  H  H651  1  0.789200  0.079100  0.530400  1
  H  H652  1  0.710800  0.920900  0.030400  1
  H  H653  1  0.829100  0.960800  0.280400  1
  H  H654  1  0.670900  0.039200  0.780400  1
  H  H655  1  0.289200  0.579100  0.030400  1
  H  H656  1  0.210800  0.420900  0.530400  1
  H  H657  1  0.715100  0.497600  0.216500  1
  H  H658  1  0.784900  0.502400  0.716500  1
  H  H659  1  0.252400  0.965100  0.466500  1
  H  H660  1  0.247600  0.034900  0.966500  1
  H  H661  1  0.215100  0.997600  0.716500  1
  H  H662  1  0.284900  0.002400  0.216500  1
  H  H663  1  0.752400  0.465100  0.966500  1
  H  H664  1  0.747600  0.534900  0.466500  1
  H  H665  1  0.284900  0.502400  0.783500  1
  H  H666  1  0.215100  0.497600  0.283500  1
  H  H667  1  0.747600  0.034900  0.533500  1
  H  H668  1  0.752400  0.965100  0.033500  1
  H  H669  1  0.784900  0.002400  0.283500  1
  H  H670  1  0.715100  0.997600  0.783500  1
  H  H671  1  0.247600  0.534900  0.033500  1
  H  H672  1  0.252400  0.465100  0.533500  1
  H  H673  1  0.657600  0.481900  0.206500  1
  H  H674  1  0.842400  0.518100  0.706500  1
  H  H675  1  0.268100  0.907600  0.456500  1
  H  H676  1  0.231900  0.092400  0.956500  1
  H  H677  1  0.157600  0.981900  0.706500  1
  H  H678  1  0.342400  0.018100  0.206500  1
  H  H679  1  0.768100  0.407600  0.956500  1
  H  H680  1  0.731900  0.592400  0.456500  1
  H  H681  1  0.342400  0.518100  0.793500  1
  H  H682  1  0.157600  0.481900  0.293500  1
  H  H683  1  0.731900  0.092400  0.543500  1
  H  H684  1  0.768100  0.907600  0.043500  1
  H  H685  1  0.842400  0.018100  0.293500  1
  H  H686  1  0.657600  0.981900  0.793500  1
  H  H687  1  0.231900  0.592400  0.043500  1
  H  H688  1  0.268100  0.407600  0.543500  1
  H  H689  1  0.065700  0.315600  0.363400  1.0
  H  H690  1  0.434300  0.684400  0.863400  1.0
  H  H691  1  0.434400  0.315700  0.613400  1.0
  H  H692  1  0.065600  0.684300  0.113400  1.0
  H  H693  1  0.565700  0.815600  0.863400  1.0
  H  H694  1  0.934300  0.184400  0.363400  1.0
  H  H695  1  0.934400  0.815700  0.113400  1.0
  H  H696  1  0.565600  0.184300  0.613400  1.0
  H  H697  1  0.934300  0.684400  0.636600  1.0
  H  H698  1  0.565700  0.315600  0.136600  1.0
  H  H699  1  0.565600  0.684300  0.386600  1.0
  H  H700  1  0.934400  0.315700  0.886600  1.0
  H  H701  1  0.434300  0.184400  0.136600  1.0
  H  H702  1  0.065700  0.815600  0.636600  1.0
  H  H703  1  0.065600  0.184300  0.886600  1.0
  H  H704  1  0.434400  0.815700  0.386600  1.0
  H  H705  1  0.059600  0.366200  0.303900  1.0
  H  H706  1  0.440400  0.633800  0.803900  1.0
  H  H707  1  0.383800  0.309600  0.553900  1.0
  H  H708  1  0.116200  0.690400  0.053900  1.0
  H  H709  1  0.559600  0.866200  0.803900  1.0
  H  H710  1  0.940400  0.133800  0.303900  1.0
  H  H711  1  0.883800  0.809600  0.053900  1.0
  H  H712  1  0.616200  0.190400  0.553900  1.0
  H  H713  1  0.940400  0.633800  0.696100  1.0
  H  H714  1  0.559600  0.366200  0.196100  1.0
  H  H715  1  0.616200  0.690400  0.446100  1.0
  H  H716  1  0.883800  0.309600  0.946100  1.0
  H  H717  1  0.440400  0.133800  0.196100  1.0
  H  H718  1  0.059600  0.866200  0.696100  1.0
  H  H719  1  0.116200  0.190400  0.946100  1.0
  H  H720  1  0.383800  0.809600  0.446100  1.0
  H  H721  1  0.907600  0.348200  0.306600  1.0
  H  H722  1  0.592400  0.651800  0.806600  1.0
  H  H723  1  0.401800  0.157600  0.556600  1.0
  H  H724  1  0.098200  0.842400  0.056600  1.0
  H  H725  1  0.407600  0.848200  0.806600  1.0
  H  H726  1  0.092400  0.151800  0.306600  1.0
  H  H727  1  0.901800  0.657600  0.056600  1.0
  H  H728  1  0.598200  0.342400  0.556600  1.0
  H  H729  1  0.092400  0.651800  0.693400  1.0
  H  H730  1  0.407600  0.348200  0.193400  1.0
  H  H731  1  0.598200  0.842400  0.443400  1.0
  H  H732  1  0.901800  0.157600  0.943400  1.0
  H  H733  1  0.592400  0.151800  0.193400  1.0
  H  H734  1  0.907600  0.848200  0.693400  1.0
  H  H735  1  0.098200  0.342400  0.943400  1.0
  H  H736  1  0.401800  0.657600  0.443400  1.0
  H  H737  1  0.916900  0.297400  0.365300  1.0
  H  H738  1  0.583100  0.702600  0.865300  1.0
  H  H739  1  0.452600  0.166900  0.615300  1.0
  H  H740  1  0.047400  0.833100  0.115300  1.0
  H  H741  1  0.416900  0.797400  0.865300  1.0
  H  H742  1  0.083100  0.202600  0.365300  1.0
  H  H743  1  0.952600  0.666900  0.115300  1.0
  H  H744  1  0.547400  0.333100  0.615300  1.0
  H  H745  1  0.083100  0.702600  0.634700  1.0
  H  H746  1  0.416900  0.297400  0.134700  1.0
  H  H747  1  0.547400  0.833100  0.384700  1.0
  H  H748  1  0.952600  0.166900  0.884700  1.0
  H  H749  1  0.583100  0.202600  0.134700  1.0
  H  H750  1  0.916900  0.797400  0.634700  1.0
  H  H751  1  0.047400  0.333100  0.884700  1.0
  H  H752  1  0.452600  0.666900  0.384700  1.0
  H  H753  1  0.096100  0.538300  0.114600  1.0
  H  H754  1  0.403900  0.461700  0.614600  1.0
  H  H755  1  0.211700  0.346100  0.364600  1.0
  H  H756  1  0.288300  0.653900  0.864600  1.0
  H  H757  1  0.596100  0.038300  0.614600  1.0
  H  H758  1  0.903900  0.961700  0.114600  1.0
  H  H759  1  0.711700  0.846100  0.864600  1.0
  H  H760  1  0.788300  0.153900  0.364600  1.0
  H  H761  1  0.903900  0.461700  0.885400  1.0
  H  H762  1  0.596100  0.538300  0.385400  1.0
  H  H763  1  0.788300  0.653900  0.635400  1.0
  H  H764  1  0.711700  0.346100  0.135400  1.0
  H  H765  1  0.403900  0.961700  0.385400  1.0
  H  H766  1  0.096100  0.038300  0.885400  1.0
  H  H767  1  0.288300  0.153900  0.135400  1.0
  H  H768  1  0.211700  0.846100  0.635400  1.0
  H  H769  1  0.024600  0.502700  0.143500  1.0
  H  H770  1  0.475400  0.497300  0.643500  1.0
  H  H771  1  0.247300  0.274600  0.393500  1.0
  H  H772  1  0.252700  0.725400  0.893500  1.0
  H  H773  1  0.524600  0.002700  0.643500  1.0
  H  H774  1  0.975400  0.997300  0.143500  1.0
  H  H775  1  0.747300  0.774600  0.893500  1.0
  H  H776  1  0.752700  0.225400  0.393500  1.0
  H  H777  1  0.975400  0.497300  0.856500  1.0
  H  H778  1  0.524600  0.502700  0.356500  1.0
  H  H779  1  0.752700  0.725400  0.606500  1.0
  H  H780  1  0.747300  0.274600  0.106500  1.0
  H  H781  1  0.475400  0.997300  0.356500  1.0
  H  H782  1  0.024600  0.002700  0.856500  1.0
  H  H783  1  0.252700  0.225400  0.106500  1.0
  H  H784  1  0.247300  0.774600  0.606500  1.0
  H  H785  1  0.112400  0.436700  0.233100  1.0
  H  H786  1  0.387600  0.563300  0.733100  1.0
  H  H787  1  0.313300  0.362400  0.483100  1.0
  H  H788  1  0.186700  0.637600  0.983100  1.0
  H  H789  1  0.612400  0.936700  0.733100  1.0
  H  H790  1  0.887600  0.063300  0.233100  1.0
  H  H791  1  0.813300  0.862400  0.983100  1.0
  H  H792  1  0.686700  0.137600  0.483100  1.0
  H  H793  1  0.887600  0.563300  0.766900  1.0
  H  H794  1  0.612400  0.436700  0.266900  1.0
  H  H795  1  0.686700  0.637600  0.516900  1.0
  H  H796  1  0.813300  0.362400  0.016900  1.0
  H  H797  1  0.387600  0.063300  0.266900  1.0
  H  H798  1  0.112400  0.936700  0.766900  1.0
  H  H799  1  0.186700  0.137600  0.016900  1.0
  H  H800  1  0.313300  0.862400  0.516900  1.0
  H  H801  1  0.183000  0.473400  0.200500  1.0
  H  H802  1  0.317000  0.526600  0.700500  1.0
  H  H803  1  0.276600  0.433000  0.450500  1.0
  H  H804  1  0.223400  0.567000  0.950500  1.0
  H  H805  1  0.683000  0.973400  0.700500  1.0
  H  H806  1  0.817000  0.026600  0.200500  1.0
  H  H807  1  0.776600  0.933000  0.950500  1.0
  H  H808  1  0.723400  0.067000  0.450500  1.0
  H  H809  1  0.817000  0.526600  0.799500  1.0
  H  H810  1  0.683000  0.473400  0.299500  1.0
  H  H811  1  0.723400  0.567000  0.549500  1.0
  H  H812  1  0.776600  0.433000  0.049500  1.0
  H  H813  1  0.317000  0.026600  0.299500  1.0
  H  H814  1  0.183000  0.973400  0.799500  1.0
  H  H815  1  0.223400  0.067000  0.049500  1.0
  H  H816  1  0.276600  0.933000  0.549500  1.0
  H  H817  1  0.822600  0.496500  0.113500  1.0
  H  H818  1  0.677400  0.503500  0.613500  1.0
  H  H819  1  0.253500  0.072600  0.363500  1.0
  H  H820  1  0.246500  0.927400  0.863500  1.0
  H  H821  1  0.322600  0.996500  0.613500  1.0
  H  H822  1  0.177400  0.003500  0.113500  1.0
  H  H823  1  0.753500  0.572600  0.863500  1.0
  H  H824  1  0.746500  0.427400  0.363500  1.0
  H  H825  1  0.177400  0.503500  0.886500  1.0
  H  H826  1  0.322600  0.496500  0.386500  1.0
  H  H827  1  0.746500  0.927400  0.636500  1.0
  H  H828  1  0.753500  0.072600  0.136500  1.0
  H  H829  1  0.677400  0.003500  0.386500  1.0
  H  H830  1  0.822600  0.996500  0.886500  1.0
  H  H831  1  0.246500  0.427400  0.136500  1.0
  H  H832  1  0.253500  0.572600  0.636500  1.0
  H  H833  1  0.903200  0.484900  0.143400  1.0
  H  H834  1  0.596800  0.515100  0.643400  1.0
  H  H835  1  0.265100  0.153200  0.393400  1.0
  H  H836  1  0.234900  0.846800  0.893400  1.0
  H  H837  1  0.403200  0.984900  0.643400  1.0
  H  H838  1  0.096800  0.015100  0.143400  1.0
  H  H839  1  0.765100  0.653200  0.893400  1.0
  H  H840  1  0.734900  0.346800  0.393400  1.0
  H  H841  1  0.096800  0.515100  0.856600  1.0
  H  H842  1  0.403200  0.484900  0.356600  1.0
  H  H843  1  0.734900  0.846800  0.606600  1.0
  H  H844  1  0.765100  0.153200  0.106600  1.0
  H  H845  1  0.596800  0.015100  0.356600  1.0
  H  H846  1  0.903200  0.984900  0.856600  1.0
  H  H847  1  0.234900  0.346800  0.106600  1.0
  H  H848  1  0.265100  0.653200  0.606600  1.0
  H  H849  1  0.837800  0.401800  0.235300  1.0
  H  H850  1  0.662200  0.598200  0.735300  1.0
  H  H851  1  0.348200  0.087800  0.485300  1.0
  H  H852  1  0.151800  0.912200  0.985300  1.0
  H  H853  1  0.337800  0.901800  0.735300  1.0
  H  H854  1  0.162200  0.098200  0.235300  1.0
  H  H855  1  0.848200  0.587800  0.985300  1.0
  H  H856  1  0.651800  0.412200  0.485300  1.0
  H  H857  1  0.162200  0.598200  0.764700  1.0
  H  H858  1  0.337800  0.401800  0.264700  1.0
  H  H859  1  0.651800  0.912200  0.514700  1.0
  H  H860  1  0.848200  0.087800  0.014700  1.0
  H  H861  1  0.662200  0.098200  0.264700  1.0
  H  H862  1  0.837800  0.901800  0.764700  1.0
  H  H863  1  0.151800  0.412200  0.014700  1.0
  H  H864  1  0.348200  0.587800  0.514700  1.0
  H  H865  1  0.760200  0.415400  0.204600  1.0
  H  H866  1  0.739800  0.584600  0.704600  1.0
  H  H867  1  0.334600  0.010200  0.454600  1.0
  H  H868  1  0.165400  0.989800  0.954600  1.0
  H  H869  1  0.260200  0.915400  0.704600  1.0
  H  H870  1  0.239800  0.084600  0.204600  1.0
  H  H871  1  0.834600  0.510200  0.954600  1.0
  H  H872  1  0.665400  0.489800  0.454600  1.0
  H  H873  1  0.239800  0.584600  0.795400  1.0
  H  H874  1  0.260200  0.415400  0.295400  1.0
  H  H875  1  0.665400  0.989800  0.545400  1.0
  H  H876  1  0.834600  0.010200  0.045400  1.0
  H  H877  1  0.739800  0.084600  0.295400  1.0
  H  H878  1  0.760200  0.915400  0.795400  1.0
  H  H879  1  0.165400  0.489800  0.045400  1.0
  H  H880  1  0.334600  0.510200  0.545400  1.0
  H  H881  1  0.704300  0.598200  0.155300  1.0
  H  H882  1  0.795700  0.401800  0.655300  1.0
  H  H883  1  0.151800  0.954300  0.405300  1.0
  H  H884  1  0.348200  0.045700  0.905300  1.0
  H  H885  1  0.204300  0.098200  0.655300  1.0
  H  H886  1  0.295700  0.901800  0.155300  1.0
  H  H887  1  0.651800  0.454300  0.905300  1.0
  H  H888  1  0.848200  0.545700  0.405300  1.0
  H  H889  1  0.295700  0.401800  0.844700  1.0
  H  H890  1  0.204300  0.598200  0.344700  1.0
  H  H891  1  0.848200  0.045700  0.594700  1.0
  H  H892  1  0.651800  0.954300  0.094700  1.0
  H  H893  1  0.795700  0.901800  0.344700  1.0
  H  H894  1  0.704300  0.098200  0.844700  1.0
  H  H895  1  0.348200  0.545700  0.094700  1.0
  H  H896  1  0.151800  0.454300  0.594700  1.0
  H  H897  1  0.708600  0.571200  0.110200  1.0
  H  H898  1  0.791400  0.428800  0.610200  1.0
  H  H899  1  0.178800  0.958600  0.360200  1.0
  H  H900  1  0.321200  0.041400  0.860200  1.0
  H  H901  1  0.208600  0.071200  0.610200  1.0
  H  H902  1  0.291400  0.928800  0.110200  1.0
  H  H903  1  0.678800  0.458600  0.860200  1.0
  H  H904  1  0.821200  0.541400  0.360200  1.0
  H  H905  1  0.291400  0.428800  0.889800  1.0
  H  H906  1  0.208600  0.571200  0.389800  1.0
  H  H907  1  0.821200  0.041400  0.639800  1.0
  H  H908  1  0.678800  0.958600  0.139800  1.0
  H  H909  1  0.791400  0.928800  0.389800  1.0
  H  H910  1  0.708600  0.071200  0.889800  1.0
  H  H911  1  0.321200  0.541400  0.139800  1.0
  H  H912  1  0.178800  0.458600  0.639800  1.0
  H  H913  1  0.753200  0.564700  0.144100  1.0
  H  H914  1  0.746800  0.435300  0.644100  1.0
  H  H915  1  0.185300  0.003200  0.394100  1.0
  H  H916  1  0.314700  0.996800  0.894100  1.0
  H  H917  1  0.253200  0.064700  0.644100  1.0
  H  H918  1  0.246800  0.935300  0.144100  1.0
  H  H919  1  0.685300  0.503200  0.894100  1.0
  H  H920  1  0.814700  0.496800  0.394100  1.0
  H  H921  1  0.246800  0.435300  0.855900  1.0
  H  H922  1  0.253200  0.564700  0.355900  1.0
  H  H923  1  0.814700  0.996800  0.605900  1.0
  H  H924  1  0.685300  0.003200  0.105900  1.0
  H  H925  1  0.746800  0.935300  0.355900  1.0
  H  H926  1  0.753200  0.064700  0.855900  1.0
  H  H927  1  0.314700  0.496800  0.105900  1.0
  H  H928  1  0.185300  0.503200  0.605900  1.0
  H  H929  1  0.684400  0.553400  0.214000  1.0
  H  H930  1  0.815600  0.446600  0.714000  1.0
  H  H931  1  0.196600  0.934400  0.464000  1.0
  H  H932  1  0.303400  0.065600  0.964000  1.0
  H  H933  1  0.184400  0.053400  0.714000  1.0
  H  H934  1  0.315600  0.946600  0.214000  1.0
  H  H935  1  0.696600  0.434400  0.964000  1.0
  H  H936  1  0.803400  0.565600  0.464000  1.0
  H  H937  1  0.315600  0.446600  0.786000  1.0
  H  H938  1  0.184400  0.553400  0.286000  1.0
  H  H939  1  0.803400  0.065600  0.536000  1.0
  H  H940  1  0.696600  0.934400  0.036000  1.0
  H  H941  1  0.815600  0.946600  0.286000  1.0
  H  H942  1  0.684400  0.053400  0.786000  1.0
  H  H943  1  0.303400  0.565600  0.036000  1.0
  H  H944  1  0.196600  0.434400  0.536000  1.0
  H  H945  1  0.733200  0.517700  0.208800  1.0
  H  H946  1  0.766800  0.482300  0.708800  1.0
  H  H947  1  0.232300  0.983200  0.458800  1.0
  H  H948  1  0.267700  0.016800  0.958800  1.0
  H  H949  1  0.233200  0.017700  0.708800  1.0
  H  H950  1  0.266800  0.982300  0.208800  1.0
  H  H951  1  0.732300  0.483200  0.958800  1.0
  H  H952  1  0.767700  0.516800  0.458800  1.0
  H  H953  1  0.266800  0.482300  0.791200  1.0
  H  H954  1  0.233200  0.517700  0.291200  1.0
  H  H955  1  0.767700  0.016800  0.541200  1.0
  H  H956  1  0.732300  0.983200  0.041200  1.0
  H  H957  1  0.766800  0.982300  0.291200  1.0
  H  H958  1  0.733200  0.017700  0.791200  1.0
  H  H959  1  0.267700  0.516800  0.041200  1.0
  H  H960  1  0.232300  0.483200  0.541200  1.0
  H  H961  1  0.678000  0.492900  0.213500  1.0
  H  H962  1  0.822000  0.507100  0.713500  1.0
  H  H963  1  0.257100  0.928000  0.463500  1.0
  H  H964  1  0.242900  0.072000  0.963500  1.0
  H  H965  1  0.178000  0.992900  0.713500  1.0
  H  H966  1  0.322000  0.007100  0.213500  1.0
  H  H967  1  0.757100  0.428000  0.963500  1.0
  H  H968  1  0.742900  0.572000  0.463500  1.0
  H  H969  1  0.322000  0.507100  0.786500  1.0
  H  H970  1  0.178000  0.492900  0.286500  1.0
  H  H971  1  0.742900  0.072000  0.536500  1.0
  H  H972  1  0.757100  0.928000  0.036500  1.0
  H  H973  1  0.822000  0.007100  0.286500  1.0
  H  H974  1  0.678000  0.992900  0.786500  1.0
  H  H975  1  0.242900  0.572000  0.036500  1.0
  H  H976  1  0.257100  0.428000  0.536500  1.0
  H  H977  1  0.614900  0.496600  0.164800  1.0
  H  H978  1  0.885100  0.503400  0.664800  1.0
  H  H979  1  0.253400  0.864900  0.414800  1.0
  H  H980  1  0.246600  0.135100  0.914800  1.0
  H  H981  1  0.114900  0.996600  0.664800  1.0
  H  H982  1  0.385100  0.003400  0.164800  1.0
  H  H983  1  0.753400  0.364900  0.914800  1.0
  H  H984  1  0.746600  0.635100  0.414800  1.0
  H  H985  1  0.385100  0.503400  0.835200  1.0
  H  H986  1  0.114900  0.496600  0.335200  1.0
  H  H987  1  0.746600  0.135100  0.585200  1.0
  H  H988  1  0.753400  0.864900  0.085200  1.0
  H  H989  1  0.885100  0.003400  0.335200  1.0
  H  H990  1  0.614900  0.996600  0.835200  1.0
  H  H991  1  0.246600  0.635100  0.085200  1.0
  H  H992  1  0.253400  0.364900  0.585200  1.0
  H  H993  1  0.617300  0.556100  0.153700  1.0
  H  H994  1  0.882700  0.443900  0.653700  1.0
  H  H995  1  0.193900  0.867300  0.403700  1.0
  H  H996  1  0.306100  0.132700  0.903700  1.0
  H  H997  1  0.117300  0.056100  0.653700  1.0
  H  H998  1  0.382700  0.943900  0.153700  1.0
  H  H999  1  0.693900  0.367300  0.903700  1.0
  H  H1000  1  0.806100  0.632700  0.403700  1.0
  H  H1001  1  0.382700  0.443900  0.846300  1.0
  H  H1002  1  0.117300  0.556100  0.346300  1.0
  H  H1003  1  0.806100  0.132700  0.596300  1.0
  H  H1004  1  0.693900  0.867300  0.096300  1.0
  H  H1005  1  0.882700  0.943900  0.346300  1.0
  H  H1006  1  0.617300  0.056100  0.846300  1.0
  H  H1007  1  0.306100  0.632700  0.096300  1.0
  H  H1008  1  0.193900  0.367300  0.596300  1.0
  H  H1009  1  0.589800  0.510600  0.093400  1.0
  H  H1010  1  0.910200  0.489400  0.593400  1.0
  H  H1011  1  0.239400  0.839800  0.343400  1.0
  H  H1012  1  0.260600  0.160200  0.843400  1.0
  H  H1013  1  0.089800  0.010600  0.593400  1.0
  H  H1014  1  0.410200  0.989400  0.093400  1.0
  H  H1015  1  0.739400  0.339800  0.843400  1.0
  H  H1016  1  0.760600  0.660200  0.343400  1.0
  H  H1017  1  0.410200  0.489400  0.906600  1.0
  H  H1018  1  0.089800  0.510600  0.406600  1.0
  H  H1019  1  0.760600  0.160200  0.656600  1.0
  H  H1020  1  0.739400  0.839800  0.156600  1.0
  H  H1021  1  0.910200  0.989400  0.406600  1.0
  H  H1022  1  0.589800  0.010600  0.906600  1.0
  H  H1023  1  0.260600  0.660200  0.156600  1.0
  H  H1024  1  0.239400  0.339800  0.656600  1.0
  H  H1025  1  0.644500  0.535300  0.083800  1.0
  H  H1026  1  0.855500  0.464700  0.583800  1.0
  H  H1027  1  0.214700  0.894500  0.333800  1.0
  H  H1028  1  0.285300  0.105500  0.833800  1.0
  H  H1029  1  0.144500  0.035300  0.583800  1.0
  H  H1030  1  0.355500  0.964700  0.083800  1.0
  H  H1031  1  0.714700  0.394500  0.833800  1.0
  H  H1032  1  0.785300  0.605500  0.333800  1.0
  H  H1033  1  0.355500  0.464700  0.916200  1.0
  H  H1034  1  0.144500  0.535300  0.416200  1.0
  H  H1035  1  0.785300  0.105500  0.666200  1.0
  H  H1036  1  0.714700  0.894500  0.166200  1.0
  H  H1037  1  0.855500  0.964700  0.416200  1.0
  H  H1038  1  0.644500  0.035300  0.916200  1.0
  H  H1039  1  0.285300  0.605500  0.166200  1.0
  H  H1040  1  0.214700  0.394500  0.666200  1.0
  H  H1041  1  0.584000  0.421100  0.091200  1.0
  H  H1042  1  0.916000  0.578900  0.591200  1.0
  H  H1043  1  0.328900  0.834000  0.341200  1.0
  H  H1044  1  0.171100  0.166000  0.841200  1.0
  H  H1045  1  0.084000  0.921100  0.591200  1.0
  H  H1046  1  0.416000  0.078900  0.091200  1.0
  H  H1047  1  0.828900  0.334000  0.841200  1.0
  H  H1048  1  0.671100  0.666000  0.341200  1.0
  H  H1049  1  0.416000  0.578900  0.908800  1.0
  H  H1050  1  0.084000  0.421100  0.408800  1.0
  H  H1051  1  0.671100  0.166000  0.658800  1.0
  H  H1052  1  0.828900  0.834000  0.158800  1.0
  H  H1053  1  0.916000  0.078900  0.408800  1.0
  H  H1054  1  0.584000  0.921100  0.908800  1.0
  H  H1055  1  0.171100  0.666000  0.158800  1.0
  H  H1056  1  0.328900  0.334000  0.658800  1.0
  H  H1057  1  0.610200  0.418100  0.136700  1.0
  H  H1058  1  0.889800  0.581900  0.636700  1.0
  H  H1059  1  0.331900  0.860200  0.386700  1.0
  H  H1060  1  0.168100  0.139800  0.886700  1.0
  H  H1061  1  0.110200  0.918100  0.636700  1.0
  H  H1062  1  0.389800  0.081900  0.136700  1.0
  H  H1063  1  0.831900  0.360200  0.886700  1.0
  H  H1064  1  0.668100  0.639800  0.386700  1.0
  H  H1065  1  0.389800  0.581900  0.863300  1.0
  H  H1066  1  0.110200  0.418100  0.363300  1.0
  H  H1067  1  0.668100  0.139800  0.613300  1.0
  H  H1068  1  0.831900  0.860200  0.113300  1.0
  H  H1069  1  0.889800  0.081900  0.363300  1.0
  H  H1070  1  0.610200  0.918100  0.863300  1.0
  H  H1071  1  0.168100  0.639800  0.113300  1.0
  H  H1072  1  0.331900  0.360200  0.613300  1.0
  H  H1073  1  0.633900  0.387100  0.098000  1.0
  H  H1074  1  0.866100  0.612900  0.598000  1.0
  H  H1075  1  0.362900  0.883900  0.348000  1.0
  H  H1076  1  0.137100  0.116100  0.848000  1.0
  H  H1077  1  0.133900  0.887100  0.598000  1.0
  H  H1078  1  0.366100  0.112900  0.098000  1.0
  H  H1079  1  0.862900  0.383900  0.848000  1.0
  H  H1080  1  0.637100  0.616100  0.348000  1.0
  H  H1081  1  0.366100  0.612900  0.902000  1.0
  H  H1082  1  0.133900  0.387100  0.402000  1.0
  H  H1083  1  0.637100  0.116100  0.652000  1.0
  H  H1084  1  0.862900  0.883900  0.152000  1.0
  H  H1085  1  0.866100  0.112900  0.402000  1.0
  H  H1086  1  0.633900  0.887100  0.902000  1.0
  H  H1087  1  0.137100  0.616100  0.152000  1.0
  H  H1088  1  0.362900  0.383900  0.652000  1.0
  H  H1089  1  0.618300  0.450800  0.034900  1.0
  H  H1090  1  0.881700  0.549200  0.534900  1.0
  H  H1091  1  0.299200  0.868300  0.284900  1.0
  H  H1092  1  0.200800  0.131700  0.784900  1.0
  H  H1093  1  0.118300  0.950800  0.534900  1.0
  H  H1094  1  0.381700  0.049200  0.034900  1.0
  H  H1095  1  0.799200  0.368300  0.784900  1.0
  H  H1096  1  0.700800  0.631700  0.284900  1.0
  H  H1097  1  0.381700  0.549200  0.965100  1.0
  H  H1098  1  0.118300  0.450800  0.465100  1.0
  H  H1099  1  0.700800  0.131700  0.715100  1.0
  H  H1100  1  0.799200  0.868300  0.215100  1.0
  H  H1101  1  0.881700  0.049200  0.465100  1.0
  H  H1102  1  0.618300  0.950800  0.965100  1.0
  H  H1103  1  0.200800  0.631700  0.215100  1.0
  H  H1104  1  0.299200  0.368300  0.715100  1.0
  H  H1105  1  0.667100  0.416000  0.043700  1.0
  H  H1106  1  0.832900  0.584000  0.543700  1.0
  H  H1107  1  0.334000  0.917100  0.293700  1.0
  H  H1108  1  0.166000  0.082900  0.793700  1.0
  H  H1109  1  0.167100  0.916000  0.543700  1.0
  H  H1110  1  0.332900  0.084000  0.043700  1.0
  H  H1111  1  0.834000  0.417100  0.793700  1.0
  H  H1112  1  0.666000  0.582900  0.293700  1.0
  H  H1113  1  0.332900  0.584000  0.956300  1.0
  H  H1114  1  0.167100  0.416000  0.456300  1.0
  H  H1115  1  0.666000  0.082900  0.706300  1.0
  H  H1116  1  0.834000  0.917100  0.206300  1.0
  H  H1117  1  0.832900  0.084000  0.456300  1.0
  H  H1118  1  0.667100  0.916000  0.956300  1.0
  H  H1119  1  0.166000  0.582900  0.206300  1.0
  H  H1120  1  0.334000  0.417100  0.706300  1.0
  H  H1121  1  0.673900  0.475500  0.034900  1.0
  H  H1122  1  0.826100  0.524500  0.534900  1.0
  H  H1123  1  0.274500  0.923900  0.284900  1.0
  H  H1124  1  0.225500  0.076100  0.784900  1.0
  H  H1125  1  0.173900  0.975500  0.534900  1.0
  H  H1126  1  0.326100  0.024500  0.034900  1.0
  H  H1127  1  0.774500  0.423900  0.784900  1.0
  H  H1128  1  0.725500  0.576100  0.284900  1.0
  H  H1129  1  0.326100  0.524500  0.965100  1.0
  H  H1130  1  0.173900  0.475500  0.465100  1.0
  H  H1131  1  0.725500  0.076100  0.715100  1.0
  H  H1132  1  0.774500  0.923900  0.215100  1.0
  H  H1133  1  0.826100  0.024500  0.465100  1.0
  H  H1134  1  0.673900  0.975500  0.965100  1.0
  H  H1135  1  0.225500  0.576100  0.215100  1.0
  H  H1136  1  0.274500  0.423900  0.715100  1.0
  H  H1137  1  0.995400  0.295400  0.529000  1.0
  H  H1138  1  0.504600  0.704600  0.029000  1.0
  H  H1139  1  0.454600  0.245400  0.779000  1.0
  H  H1140  1  0.045400  0.754600  0.279000  1.0
  H  H1141  1  0.495400  0.795400  0.029000  1.0
  H  H1142  1  0.004600  0.204600  0.529000  1.0
  H  H1143  1  0.954600  0.745400  0.279000  1.0
  H  H1144  1  0.545400  0.254600  0.779000  1.0
  H  H1145  1  0.004600  0.704600  0.471000  1.0
  H  H1146  1  0.495400  0.295400  0.971000  1.0
  H  H1147  1  0.545400  0.754600  0.221000  1.0
  H  H1148  1  0.954600  0.245400  0.721000  1.0
  H  H1149  1  0.504600  0.204600  0.971000  1.0
  H  H1150  1  0.995400  0.795400  0.471000  1.0
  H  H1151  1  0.045400  0.254600  0.721000  1.0
  H  H1152  1  0.454600  0.745400  0.221000  1.0
  H  H1153  1  0.046600  0.278400  0.505300  1.0
  H  H1154  1  0.453400  0.721600  0.005300  1.0
  H  H1155  1  0.471600  0.296600  0.755300  1.0
  H  H1156  1  0.028400  0.703400  0.255300  1.0
  H  H1157  1  0.546600  0.778400  0.005300  1.0
  H  H1158  1  0.953400  0.221600  0.505300  1.0
  H  H1159  1  0.971600  0.796600  0.255300  1.0
  H  H1160  1  0.528400  0.203400  0.755300  1.0
  H  H1161  1  0.953400  0.721600  0.494700  1.0
  H  H1162  1  0.546600  0.278400  0.994700  1.0
  H  H1163  1  0.528400  0.703400  0.244700  1.0
  H  H1164  1  0.971600  0.296600  0.744700  1.0
  H  H1165  1  0.453400  0.221600  0.994700  1.0
  H  H1166  1  0.046600  0.778400  0.494700  1.0
  H  H1167  1  0.028400  0.203400  0.744700  1.0
  H  H1168  1  0.471600  0.796600  0.244700  1.0
  H  H1169  1  0.932600  0.342600  0.490000  1.0
  H  H1170  1  0.567400  0.657400  0.990000  1.0
  H  H1171  1  0.407400  0.182600  0.740000  1.0
  H  H1172  1  0.092600  0.817400  0.240000  1.0
  H  H1173  1  0.432600  0.842600  0.990000  1.0
  H  H1174  1  0.067400  0.157400  0.490000  1.0
  H  H1175  1  0.907400  0.682600  0.240000  1.0
  H  H1176  1  0.592600  0.317400  0.740000  1.0
  H  H1177  1  0.067400  0.657400  0.510000  1.0
  H  H1178  1  0.432600  0.342600  0.010000  1.0
  H  H1179  1  0.592600  0.817400  0.260000  1.0
  H  H1180  1  0.907400  0.182600  0.760000  1.0
  H  H1181  1  0.567400  0.157400  0.010000  1.0
  H  H1182  1  0.932600  0.842600  0.510000  1.0
  H  H1183  1  0.092600  0.317400  0.760000  1.0
  H  H1184  1  0.407400  0.682600  0.260000  1.0
  H  H1185  1  0.916200  0.287600  0.473400  1.0
  H  H1186  1  0.583800  0.712400  0.973400  1.0
  H  H1187  1  0.462400  0.166200  0.723400  1.0
  H  H1188  1  0.037600  0.833800  0.223400  1.0
  H  H1189  1  0.416200  0.787600  0.973400  1.0
  H  H1190  1  0.083800  0.212400  0.473400  1.0
  H  H1191  1  0.962400  0.666200  0.223400  1.0
  H  H1192  1  0.537600  0.333800  0.723400  1.0
  H  H1193  1  0.083800  0.712400  0.526600  1.0
  H  H1194  1  0.416200  0.287600  0.026600  1.0
  H  H1195  1  0.537600  0.833800  0.276600  1.0
  H  H1196  1  0.962400  0.166200  0.776600  1.0
  H  H1197  1  0.583800  0.212400  0.026600  1.0
  H  H1198  1  0.916200  0.787600  0.526600  1.0
  H  H1199  1  0.037600  0.333800  0.776600  1.0
  H  H1200  1  0.462400  0.666200  0.276600  1.0
  H  H1201  1  0.926300  0.332600  0.440500  1.0
  H  H1202  1  0.573700  0.667400  0.940500  1.0
  H  H1203  1  0.417400  0.176300  0.690500  1.0
  H  H1204  1  0.082600  0.823700  0.190500  1.0
  H  H1205  1  0.426300  0.832600  0.940500  1.0
  H  H1206  1  0.073700  0.167400  0.440500  1.0
  H  H1207  1  0.917400  0.676300  0.190500  1.0
  H  H1208  1  0.582600  0.323700  0.690500  1.0
  H  H1209  1  0.073700  0.667400  0.559500  1.0
  H  H1210  1  0.426300  0.332600  0.059500  1.0
  H  H1211  1  0.582600  0.823700  0.309500  1.0
  H  H1212  1  0.917400  0.176300  0.809500  1.0
  H  H1213  1  0.573700  0.167400  0.059500  1.0
  H  H1214  1  0.926300  0.832600  0.559500  1.0
  H  H1215  1  0.082600  0.323700  0.809500  1.0
  H  H1216  1  0.417400  0.676300  0.309500  1.0
  H  H1217  1  0.016200  0.373100  0.481400  1.0
  H  H1218  1  0.483800  0.626900  0.981400  1.0
  H  H1219  1  0.376900  0.266200  0.731400  1.0
  H  H1220  1  0.123100  0.733800  0.231400  1.0
  H  H1221  1  0.516200  0.873100  0.981400  1.0
  H  H1222  1  0.983800  0.126900  0.481400  1.0
  H  H1223  1  0.876900  0.766200  0.231400  1.0
  H  H1224  1  0.623100  0.233800  0.731400  1.0
  H  H1225  1  0.983800  0.626900  0.518600  1.0
  H  H1226  1  0.516200  0.373100  0.018600  1.0
  H  H1227  1  0.623100  0.733800  0.268600  1.0
  H  H1228  1  0.876900  0.266200  0.768600  1.0
  H  H1229  1  0.483800  0.126900  0.018600  1.0
  H  H1230  1  0.016200  0.873100  0.518600  1.0
  H  H1231  1  0.123100  0.233800  0.768600  1.0
  H  H1232  1  0.376900  0.766200  0.268600  1.0
  H  H1233  1  0.011100  0.365900  0.431500  1.0
  H  H1234  1  0.488900  0.634100  0.931500  1.0
  H  H1235  1  0.384100  0.261100  0.681500  1.0
  H  H1236  1  0.115900  0.738900  0.181500  1.0
  H  H1237  1  0.511100  0.865900  0.931500  1.0
  H  H1238  1  0.988900  0.134100  0.431500  1.0
  H  H1239  1  0.884100  0.761100  0.181500  1.0
  H  H1240  1  0.615900  0.238900  0.681500  1.0
  H  H1241  1  0.988900  0.634100  0.568500  1.0
  H  H1242  1  0.511100  0.365900  0.068500  1.0
  H  H1243  1  0.615900  0.738900  0.318500  1.0
  H  H1244  1  0.884100  0.261100  0.818500  1.0
  H  H1245  1  0.488900  0.134100  0.068500  1.0
  H  H1246  1  0.011100  0.865900  0.568500  1.0
  H  H1247  1  0.115900  0.238900  0.818500  1.0
  H  H1248  1  0.384100  0.761100  0.318500  1.0
  H  H1249  1  0.057800  0.340700  0.456200  1.0
  H  H1250  1  0.442200  0.659300  0.956200  1.0
  H  H1251  1  0.409300  0.307800  0.706200  1.0
  H  H1252  1  0.090700  0.692200  0.206200  1.0
  H  H1253  1  0.557800  0.840700  0.956200  1.0
  H  H1254  1  0.942200  0.159300  0.456200  1.0
  H  H1255  1  0.909300  0.807800  0.206200  1.0
  H  H1256  1  0.590700  0.192200  0.706200  1.0
  H  H1257  1  0.942200  0.659300  0.543800  1.0
  H  H1258  1  0.557800  0.340700  0.043800  1.0
  H  H1259  1  0.590700  0.692200  0.293800  1.0
  H  H1260  1  0.909300  0.307800  0.793800  1.0
  H  H1261  1  0.442200  0.159300  0.043800  1.0
  H  H1262  1  0.057800  0.840700  0.543800  1.0
  H  H1263  1  0.090700  0.192200  0.793800  1.0
  H  H1264  1  0.409300  0.807800  0.293800  1.0
  Pd  Pd1265  1  0.000000  0.250000  0.416859  1.0
  Pd  Pd1266  1  0.500000  0.750000  0.916859  1.0
  Pd  Pd1267  1  0.500000  0.250000  0.666859  1.0
  Pd  Pd1268  1  0.000000  0.750000  0.166859  1.0
  Pd  Pd1269  1  0.000000  0.750000  0.583141  1.0
  Pd  Pd1270  1  0.500000  0.250000  0.083141  1.0
  Pd  Pd1271  1  0.500000  0.750000  0.333141  1.0
  Pd  Pd1272  1  0.000000  0.250000  0.833141  1.0
  Pd  Pd1273  1  0.716519  0.459279  0.125911  1.0
  Pd  Pd1274  1  0.783481  0.540721  0.625911  1.0
  Pd  Pd1275  1  0.290721  0.966519  0.375911  1.0
  Pd  Pd1276  1  0.209279  0.033481  0.875911  1.0
  Pd  Pd1277  1  0.216519  0.959279  0.625911  1.0
  Pd  Pd1278  1  0.283481  0.040721  0.125911  1.0
  Pd  Pd1279  1  0.790721  0.466519  0.875911  1.0
  Pd  Pd1280  1  0.709279  0.533481  0.375911  1.0
  Pd  Pd1281  1  0.283481  0.540721  0.874089  1.0
  Pd  Pd1282  1  0.216519  0.459279  0.374089  1.0
  Pd  Pd1283  1  0.709279  0.033481  0.624089  1.0
  Pd  Pd1284  1  0.790721  0.966519  0.124089  1.0
  Pd  Pd1285  1  0.783481  0.040721  0.374089  1.0
  Pd  Pd1286  1  0.716519  0.959279  0.874089  1.0
  Pd  Pd1287  1  0.209279  0.533481  0.124089  1.0
  Pd  Pd1288  1  0.290721  0.466519  0.624089  1.0
  C  C1289  1  0.034000  0.361000  0.044400  1
  C  C1290  1  0.466000  0.639000  0.544400  1
  C  C1291  1  0.389000  0.284000  0.294400  1
  C  C1292  1  0.111000  0.716000  0.794400  1
  C  C1293  1  0.534000  0.861000  0.544400  1
  C  C1294  1  0.966000  0.139000  0.044400  1
  C  C1295  1  0.889000  0.784000  0.794400  1
  C  C1296  1  0.611000  0.216000  0.294400  1
  C  C1297  1  0.966000  0.639000  0.955600  1
  C  C1298  1  0.534000  0.361000  0.455600  1
  C  C1299  1  0.611000  0.716000  0.705600  1
  C  C1300  1  0.889000  0.284000  0.205600  1
  C  C1301  1  0.466000  0.139000  0.455600  1
  C  C1302  1  0.034000  0.861000  0.955600  1
  C  C1303  1  0.111000  0.216000  0.205600  1
  C  C1304  1  0.389000  0.784000  0.705600  1
  C  C1305  1  0.011800  0.413800  0.047500  1
  C  C1306  1  0.488200  0.586200  0.547500  1
  C  C1307  1  0.336200  0.261800  0.297500  1
  C  C1308  1  0.163800  0.738200  0.797500  1
  C  C1309  1  0.511800  0.913800  0.547500  1
  C  C1310  1  0.988200  0.086200  0.047500  1
  C  C1311  1  0.836200  0.761800  0.797500  1
  C  C1312  1  0.663800  0.238200  0.297500  1
  C  C1313  1  0.988200  0.586200  0.952500  1
  C  C1314  1  0.511800  0.413800  0.452500  1
  C  C1315  1  0.663800  0.738200  0.702500  1
  C  C1316  1  0.836200  0.261800  0.202500  1
  C  C1317  1  0.488200  0.086200  0.452500  1
  C  C1318  1  0.011800  0.913800  0.952500  1
  C  C1319  1  0.163800  0.238200  0.202500  1
  C  C1320  1  0.336200  0.761800  0.702500  1
  C  C1321  1  0.972100  0.413800  0.075000  1
  C  C1322  1  0.527900  0.586200  0.575000  1
  C  C1323  1  0.336200  0.222100  0.325000  1
  C  C1324  1  0.163800  0.777900  0.825000  1
  C  C1325  1  0.472100  0.913800  0.575000  1
  C  C1326  1  0.027900  0.086200  0.075000  1
  C  C1327  1  0.836200  0.722100  0.825000  1
  C  C1328  1  0.663800  0.277900  0.325000  1
  C  C1329  1  0.027900  0.586200  0.925000  1
  C  C1330  1  0.472100  0.413800  0.425000  1
  C  C1331  1  0.663800  0.777900  0.675000  1
  C  C1332  1  0.836200  0.222100  0.175000  1
  C  C1333  1  0.527900  0.086200  0.425000  1
  C  C1334  1  0.972100  0.913800  0.925000  1
  C  C1335  1  0.163800  0.277900  0.175000  1
  C  C1336  1  0.336200  0.722100  0.675000  1
  C  C1337  1  0.950600  0.363900  0.091500  1
  C  C1338  1  0.549400  0.636100  0.591500  1
  C  C1339  1  0.386100  0.200600  0.341500  1
  C  C1340  1  0.113900  0.799400  0.841500  1
  C  C1341  1  0.450600  0.863900  0.591500  1
  C  C1342  1  0.049400  0.136100  0.091500  1
  C  C1343  1  0.886100  0.700600  0.841500  1
  C  C1344  1  0.613900  0.299400  0.341500  1
  C  C1345  1  0.049400  0.636100  0.908500  1
  C  C1346  1  0.450600  0.363900  0.408500  1
  C  C1347  1  0.613900  0.799400  0.658500  1
  C  C1348  1  0.886100  0.200600  0.158500  1
  C  C1349  1  0.549400  0.136100  0.408500  1
  C  C1350  1  0.950600  0.863900  0.908500  1
  C  C1351  1  0.113900  0.299400  0.158500  1
  C  C1352  1  0.386100  0.700600  0.658500  1
  C  C1353  1  0.998000  0.347300  0.114600  1
  C  C1354  1  0.502000  0.652700  0.614600  1
  C  C1355  1  0.402700  0.248000  0.364600  1
  C  C1356  1  0.097300  0.752000  0.864600  1
  C  C1357  1  0.498000  0.847300  0.614600  1
  C  C1358  1  0.002000  0.152700  0.114600  1
  C  C1359  1  0.902700  0.748000  0.864600  1
  C  C1360  1  0.597300  0.252000  0.364600  1
  C  C1361  1  0.002000  0.652700  0.885400  1
  C  C1362  1  0.498000  0.347300  0.385400  1
  C  C1363  1  0.597300  0.752000  0.635400  1
  C  C1364  1  0.902700  0.248000  0.135400  1
  C  C1365  1  0.502000  0.152700  0.385400  1
  C  C1366  1  0.998000  0.847300  0.885400  1
  C  C1367  1  0.097300  0.252000  0.135400  1
  C  C1368  1  0.402700  0.748000  0.635400  1
  C  C1369  1  0.043700  0.354000  0.091900  1
  C  C1370  1  0.456300  0.646000  0.591900  1
  C  C1371  1  0.396000  0.293700  0.341900  1
  C  C1372  1  0.104000  0.706300  0.841900  1
  C  C1373  1  0.543700  0.854000  0.591900  1
  C  C1374  1  0.956300  0.146000  0.091900  1
  C  C1375  1  0.896000  0.793700  0.841900  1
  C  C1376  1  0.604000  0.206300  0.341900  1
  C  C1377  1  0.956300  0.646000  0.908100  1
  C  C1378  1  0.543700  0.354000  0.408100  1
  C  C1379  1  0.604000  0.706300  0.658100  1
  C  C1380  1  0.896000  0.293700  0.158100  1
  C  C1381  1  0.456300  0.146000  0.408100  1
  C  C1382  1  0.043700  0.854000  0.908100  1
  C  C1383  1  0.104000  0.206300  0.158100  1
  C  C1384  1  0.396000  0.793700  0.658100  1
  C  C1385  1  0.139100  0.294000  0.167600  1
  C  C1386  1  0.360900  0.706000  0.667600  1
  C  C1387  1  0.456000  0.389100  0.417600  1
  C  C1388  1  0.044000  0.610900  0.917600  1
  C  C1389  1  0.639100  0.794000  0.667600  1
  C  C1390  1  0.860900  0.206000  0.167600  1
  C  C1391  1  0.956000  0.889100  0.917600  1
  C  C1392  1  0.544000  0.110900  0.417600  1
  C  C1393  1  0.860900  0.706000  0.832400  1
  C  C1394  1  0.639100  0.294000  0.332400  1
  C  C1395  1  0.544000  0.610900  0.582400  1
  C  C1396  1  0.956000  0.389100  0.082400  1
  C  C1397  1  0.360900  0.206000  0.332400  1
  C  C1398  1  0.139100  0.794000  0.832400  1
  C  C1399  1  0.044000  0.110900  0.082400  1
  C  C1400  1  0.456000  0.889100  0.582400  1
  C  C1401  1  0.088200  0.310000  0.149100  1
  C  C1402  1  0.411800  0.690000  0.649100  1
  C  C1403  1  0.440000  0.338200  0.399100  1
  C  C1404  1  0.060000  0.661800  0.899100  1
  C  C1405  1  0.588200  0.810000  0.649100  1
  C  C1406  1  0.911800  0.190000  0.149100  1
  C  C1407  1  0.940000  0.838200  0.899100  1
  C  C1408  1  0.560000  0.161800  0.399100  1
  C  C1409  1  0.911800  0.690000  0.850900  1
  C  C1410  1  0.588200  0.310000  0.350900  1
  C  C1411  1  0.560000  0.661800  0.600900  1
  C  C1412  1  0.940000  0.338200  0.100900  1
  C  C1413  1  0.411800  0.190000  0.350900  1
  C  C1414  1  0.088200  0.810000  0.850900  1
  C  C1415  1  0.060000  0.161800  0.100900  1
  C  C1416  1  0.440000  0.838200  0.600900  1
  C  C1417  1  0.045900  0.310000  0.175700  1
  C  C1418  1  0.454100  0.690000  0.675700  1
  C  C1419  1  0.440000  0.295900  0.425700  1
  C  C1420  1  0.060000  0.704100  0.925700  1
  C  C1421  1  0.545900  0.810000  0.675700  1
  C  C1422  1  0.954100  0.190000  0.175700  1
  C  C1423  1  0.940000  0.795900  0.925700  1
  C  C1424  1  0.560000  0.204100  0.425700  1
  C  C1425  1  0.954100  0.690000  0.824300  1
  C  C1426  1  0.545900  0.310000  0.324300  1
  C  C1427  1  0.560000  0.704100  0.574300  1
  C  C1428  1  0.940000  0.295900  0.074300  1
  C  C1429  1  0.454100  0.190000  0.324300  1
  C  C1430  1  0.045900  0.810000  0.824300  1
  C  C1431  1  0.060000  0.204100  0.074300  1
  C  C1432  1  0.440000  0.795900  0.574300  1
  C  C1433  1  0.039900  0.280000  0.216000  1
  C  C1434  1  0.460100  0.720000  0.716000  1
  C  C1435  1  0.470000  0.289900  0.466000  1
  C  C1436  1  0.030000  0.710100  0.966000  1
  C  C1437  1  0.539900  0.780000  0.716000  1
  C  C1438  1  0.960100  0.220000  0.216000  1
  C  C1439  1  0.970000  0.789900  0.966000  1
  C  C1440  1  0.530000  0.210100  0.466000  1
  C  C1441  1  0.960100  0.720000  0.784000  1
  C  C1442  1  0.539900  0.280000  0.284000  1
  C  C1443  1  0.530000  0.710100  0.534000  1
  C  C1444  1  0.970000  0.289900  0.034000  1
  C  C1445  1  0.460100  0.220000  0.284000  1
  C  C1446  1  0.039900  0.780000  0.784000  1
  C  C1447  1  0.030000  0.210100  0.034000  1
  C  C1448  1  0.470000  0.789900  0.534000  1
  C  C1449  1  0.091800  0.264000  0.231900  1
  C  C1450  1  0.408200  0.736000  0.731900  1
  C  C1451  1  0.486000  0.341800  0.481900  1
  C  C1452  1  0.014000  0.658200  0.981900  1
  C  C1453  1  0.591800  0.764000  0.731900  1
  C  C1454  1  0.908200  0.236000  0.231900  1
  C  C1455  1  0.986000  0.841800  0.981900  1
  C  C1456  1  0.514000  0.158200  0.481900  1
  C  C1457  1  0.908200  0.736000  0.768100  1
  C  C1458  1  0.591800  0.264000  0.268100  1
  C  C1459  1  0.514000  0.658200  0.518100  1
  C  C1460  1  0.986000  0.341800  0.018100  1
  C  C1461  1  0.408200  0.236000  0.268100  1
  C  C1462  1  0.091800  0.764000  0.768100  1
  C  C1463  1  0.014000  0.158200  0.018100  1
  C  C1464  1  0.486000  0.841800  0.518100  1
  C  C1465  1  0.135000  0.253000  0.201000  1
  C  C1466  1  0.365000  0.747000  0.701000  1
  C  C1467  1  0.497000  0.385000  0.451000  1
  C  C1468  1  0.003000  0.615000  0.951000  1
  C  C1469  1  0.635000  0.753000  0.701000  1
  C  C1470  1  0.865000  0.247000  0.201000  1
  C  C1471  1  0.997000  0.885000  0.951000  1
  C  C1472  1  0.503000  0.115000  0.451000  1
  C  C1473  1  0.865000  0.747000  0.799000  1
  C  C1474  1  0.635000  0.253000  0.299000  1
  C  C1475  1  0.503000  0.615000  0.549000  1
  C  C1476  1  0.997000  0.385000  0.049000  1
  C  C1477  1  0.365000  0.247000  0.299000  1
  C  C1478  1  0.135000  0.753000  0.799000  1
  C  C1479  1  0.003000  0.115000  0.049000  1
  C  C1480  1  0.497000  0.885000  0.549000  1
  C  C1481  1  0.087000  0.330000  0.107900  1
  C  C1482  1  0.413000  0.670000  0.607900  1
  C  C1483  1  0.420000  0.337000  0.357900  1
  C  C1484  1  0.080000  0.663000  0.857900  1
  C  C1485  1  0.587000  0.830000  0.607900  1
  C  C1486  1  0.913000  0.170000  0.107900  1
  C  C1487  1  0.920000  0.837000  0.857900  1
  C  C1488  1  0.580000  0.163000  0.357900  1
  C  C1489  1  0.913000  0.670000  0.892100  1
  C  C1490  1  0.587000  0.330000  0.392100  1
  C  C1491  1  0.580000  0.663000  0.642100  1
  C  C1492  1  0.920000  0.337000  0.142100  1
  C  C1493  1  0.413000  0.170000  0.392100  1
  C  C1494  1  0.087000  0.830000  0.892100  1
  C  C1495  1  0.080000  0.163000  0.142100  1
  C  C1496  1  0.420000  0.837000  0.642100  1
  C  C1497  1  0.002000  0.331000  0.156400  1
  C  C1498  1  0.498000  0.669000  0.656400  1
  C  C1499  1  0.419000  0.252000  0.406400  1
  C  C1500  1  0.081000  0.748000  0.906400  1
  C  C1501  1  0.502000  0.831000  0.656400  1
  C  C1502  1  0.998000  0.169000  0.156400  1
  C  C1503  1  0.919000  0.752000  0.906400  1
  C  C1504  1  0.581000  0.248000  0.406400  1
  C  C1505  1  0.998000  0.669000  0.843600  1
  C  C1506  1  0.502000  0.331000  0.343600  1
  C  C1507  1  0.581000  0.748000  0.593600  1
  C  C1508  1  0.919000  0.252000  0.093600  1
  C  C1509  1  0.498000  0.169000  0.343600  1
  C  C1510  1  0.002000  0.831000  0.843600  1
  C  C1511  1  0.081000  0.248000  0.093600  1
  C  C1512  1  0.419000  0.752000  0.593600  1
  C  C1513  1  0.991600  0.328400  0.022100  1
  C  C1514  1  0.508400  0.671600  0.522100  1
  C  C1515  1  0.421600  0.241600  0.272100  1
  C  C1516  1  0.078400  0.758400  0.772100  1
  C  C1517  1  0.491600  0.828400  0.522100  1
  C  C1518  1  0.008400  0.171600  0.022100  1
  C  C1519  1  0.921600  0.741600  0.772100  1
  C  C1520  1  0.578400  0.258400  0.272100  1
  C  C1521  1  0.008400  0.671600  0.977900  1
  C  C1522  1  0.491600  0.328400  0.477900  1
  C  C1523  1  0.578400  0.758400  0.727900  1
  C  C1524  1  0.921600  0.241600  0.227900  1
  C  C1525  1  0.508400  0.171600  0.477900  1
  C  C1526  1  0.991600  0.828400  0.977900  1
  C  C1527  1  0.078400  0.258400  0.227900  1
  C  C1528  1  0.421600  0.741600  0.727900  1
  C  C1529  1  0.943000  0.330800  0.050700  1
  C  C1530  1  0.557000  0.669200  0.550700  1
  C  C1531  1  0.419200  0.193000  0.300700  1
  C  C1532  1  0.080800  0.807000  0.800700  1
  C  C1533  1  0.443000  0.830800  0.550700  1
  C  C1534  1  0.057000  0.169200  0.050700  1
  C  C1535  1  0.919200  0.693000  0.800700  1
  C  C1536  1  0.580800  0.307000  0.300700  1
  C  C1537  1  0.057000  0.669200  0.949300  1
  C  C1538  1  0.443000  0.330800  0.449300  1
  C  C1539  1  0.580800  0.807000  0.699300  1
  C  C1540  1  0.919200  0.193000  0.199300  1
  C  C1541  1  0.557000  0.169200  0.449300  1
  C  C1542  1  0.943000  0.830800  0.949300  1
  C  C1543  1  0.080800  0.307000  0.199300  1
  C  C1544  1  0.419200  0.693000  0.699300  1
  C  C1545  1  0.009400  0.274500  0.028100  1
  C  C1546  1  0.490600  0.725500  0.528100  1
  C  C1547  1  0.475500  0.259400  0.278100  1
  C  C1548  1  0.024500  0.740600  0.778100  1
  C  C1549  1  0.509400  0.774500  0.528100  1
  C  C1550  1  0.990600  0.225500  0.028100  1
  C  C1551  1  0.975500  0.759400  0.778100  1
  C  C1552  1  0.524500  0.240600  0.278100  1
  C  C1553  1  0.990600  0.725500  0.971900  1
  C  C1554  1  0.509400  0.274500  0.471900  1
  C  C1555  1  0.524500  0.740600  0.721900  1
  C  C1556  1  0.975500  0.259400  0.221900  1
  C  C1557  1  0.490600  0.225500  0.471900  1
  C  C1558  1  0.009400  0.774500  0.971900  1
  C  C1559  1  0.024500  0.240600  0.221900  1
  C  C1560  1  0.475500  0.759400  0.721900  1
  C  C1561  1  0.939700  0.277400  0.066500  1
  C  C1562  1  0.560300  0.722600  0.566500  1
  C  C1563  1  0.472600  0.189700  0.316500  1
  C  C1564  1  0.027400  0.810300  0.816500  1
  C  C1565  1  0.439700  0.777400  0.566500  1
  C  C1566  1  0.060300  0.222600  0.066500  1
  C  C1567  1  0.972600  0.689700  0.816500  1
  C  C1568  1  0.527400  0.310300  0.316500  1
  C  C1569  1  0.060300  0.722600  0.933500  1
  C  C1570  1  0.439700  0.277400  0.433500  1
  C  C1571  1  0.527400  0.810300  0.683500  1
  C  C1572  1  0.972600  0.189700  0.183500  1
  C  C1573  1  0.560300  0.222600  0.433500  1
  C  C1574  1  0.939700  0.777400  0.933500  1
  C  C1575  1  0.027400  0.310300  0.183500  1
  C  C1576  1  0.472600  0.689700  0.683500  1
  C  C1577  1  0.972200  0.192100  0.068000  1
  C  C1578  1  0.527800  0.807900  0.568000  1
  C  C1579  1  0.557900  0.222200  0.318000  1
  C  C1580  1  0.942100  0.777800  0.818000  1
  C  C1581  1  0.472200  0.692100  0.568000  1
  C  C1582  1  0.027800  0.307900  0.068000  1
  C  C1583  1  0.057900  0.722200  0.818000  1
  C  C1584  1  0.442100  0.277800  0.318000  1
  C  C1585  1  0.027800  0.807900  0.932000  1
  C  C1586  1  0.472200  0.192100  0.432000  1
  C  C1587  1  0.442100  0.777800  0.682000  1
  C  C1588  1  0.057900  0.222200  0.182000  1
  C  C1589  1  0.527800  0.307900  0.432000  1
  C  C1590  1  0.972200  0.692100  0.932000  1
  C  C1591  1  0.942100  0.277800  0.182000  1
  C  C1592  1  0.557900  0.722200  0.682000  1
  C  C1593  1  0.988600  0.161600  0.028600  1
  C  C1594  1  0.511400  0.838400  0.528600  1
  C  C1595  1  0.588400  0.238600  0.278600  1
  C  C1596  1  0.911600  0.761400  0.778600  1
  C  C1597  1  0.488600  0.661600  0.528600  1
  C  C1598  1  0.011400  0.338400  0.028600  1
  C  C1599  1  0.088400  0.738600  0.778600  1
  C  C1600  1  0.411600  0.261400  0.278600  1
  C  C1601  1  0.011400  0.838400  0.971400  1
  C  C1602  1  0.488600  0.161600  0.471400  1
  C  C1603  1  0.411600  0.761400  0.721400  1
  C  C1604  1  0.088400  0.238600  0.221400  1
  C  C1605  1  0.511400  0.338400  0.471400  1
  C  C1606  1  0.988600  0.661600  0.971400  1
  C  C1607  1  0.911600  0.261400  0.221400  1
  C  C1608  1  0.588400  0.738600  0.721400  1
  C  C1609  1  0.046700  0.156000  0.031700  1
  C  C1610  1  0.453300  0.844000  0.531700  1
  C  C1611  1  0.594000  0.296700  0.281700  1
  C  C1612  1  0.906000  0.703300  0.781700  1
  C  C1613  1  0.546700  0.656000  0.531700  1
  C  C1614  1  0.953300  0.344000  0.031700  1
  C  C1615  1  0.094000  0.796700  0.781700  1
  C  C1616  1  0.406000  0.203300  0.281700  1
  C  C1617  1  0.953300  0.844000  0.968300  1
  C  C1618  1  0.546700  0.156000  0.468300  1
  C  C1619  1  0.406000  0.703300  0.718300  1
  C  C1620  1  0.094000  0.296700  0.218300  1
  C  C1621  1  0.453300  0.344000  0.468300  1
  C  C1622  1  0.046700  0.656000  0.968300  1
  C  C1623  1  0.906000  0.203300  0.218300  1
  C  C1624  1  0.594000  0.796700  0.718300  1
  C  C1625  1  0.055000  0.117000  0.067800  1
  C  C1626  1  0.445000  0.883000  0.567800  1
  C  C1627  1  0.633000  0.305000  0.317800  1
  C  C1628  1  0.867000  0.695000  0.817800  1
  C  C1629  1  0.555000  0.617000  0.567800  1
  C  C1630  1  0.945000  0.383000  0.067800  1
  C  C1631  1  0.133000  0.805000  0.817800  1
  C  C1632  1  0.367000  0.195000  0.317800  1
  C  C1633  1  0.945000  0.883000  0.932200  1
  C  C1634  1  0.555000  0.117000  0.432200  1
  C  C1635  1  0.367000  0.695000  0.682200  1
  C  C1636  1  0.133000  0.305000  0.182200  1
  C  C1637  1  0.445000  0.383000  0.432200  1
  C  C1638  1  0.055000  0.617000  0.932200  1
  C  C1639  1  0.867000  0.195000  0.182200  1
  C  C1640  1  0.633000  0.805000  0.682200  1
  C  C1641  1  0.031000  0.132000  0.111000  1
  C  C1642  1  0.469000  0.868000  0.611000  1
  C  C1643  1  0.618000  0.281000  0.361000  1
  C  C1644  1  0.882000  0.719000  0.861000  1
  C  C1645  1  0.531000  0.632000  0.611000  1
  C  C1646  1  0.969000  0.368000  0.111000  1
  C  C1647  1  0.118000  0.781000  0.861000  1
  C  C1648  1  0.382000  0.219000  0.361000  1
  C  C1649  1  0.969000  0.868000  0.889000  1
  C  C1650  1  0.531000  0.132000  0.389000  1
  C  C1651  1  0.382000  0.719000  0.639000  1
  C  C1652  1  0.118000  0.281000  0.139000  1
  C  C1653  1  0.469000  0.368000  0.389000  1
  C  C1654  1  0.031000  0.632000  0.889000  1
  C  C1655  1  0.882000  0.219000  0.139000  1
  C  C1656  1  0.618000  0.781000  0.639000  1
  C  C1657  1  0.977000  0.154000  0.104900  1
  C  C1658  1  0.523000  0.846000  0.604900  1
  C  C1659  1  0.596000  0.227000  0.354900  1
  C  C1660  1  0.904000  0.773000  0.854900  1
  C  C1661  1  0.477000  0.654000  0.604900  1
  C  C1662  1  0.023000  0.346000  0.104900  1
  C  C1663  1  0.096000  0.727000  0.854900  1
  C  C1664  1  0.404000  0.273000  0.354900  1
  C  C1665  1  0.023000  0.846000  0.895100  1
  C  C1666  1  0.477000  0.154000  0.395100  1
  C  C1667  1  0.404000  0.773000  0.645100  1
  C  C1668  1  0.096000  0.227000  0.145100  1
  C  C1669  1  0.523000  0.346000  0.395100  1
  C  C1670  1  0.977000  0.654000  0.895100  1
  C  C1671  1  0.904000  0.273000  0.145100  1
  C  C1672  1  0.596000  0.727000  0.645100  1
  C  C1673  1  0.735300  0.565200  0.161300  1
  C  C1674  1  0.764700  0.434800  0.661300  1
  C  C1675  1  0.184800  0.985300  0.411300  1
  C  C1676  1  0.315200  0.014700  0.911300  1
  C  C1677  1  0.235300  0.065200  0.661300  1
  C  C1678  1  0.264700  0.934800  0.161300  1
  C  C1679  1  0.684800  0.485300  0.911300  1
  C  C1680  1  0.815200  0.514700  0.411300  1
  C  C1681  1  0.264700  0.434800  0.838700  1
  C  C1682  1  0.235300  0.565200  0.338700  1
  C  C1683  1  0.815200  0.014700  0.588700  1
  C  C1684  1  0.684800  0.985300  0.088700  1
  C  C1685  1  0.764700  0.934800  0.338700  1
  C  C1686  1  0.735300  0.065200  0.838700  1
  C  C1687  1  0.315200  0.514700  0.088700  1
  C  C1688  1  0.184800  0.485300  0.588700  1
  C  C1689  1  0.648400  0.542000  0.137900  1
  C  C1690  1  0.851600  0.458000  0.637900  1
  C  C1691  1  0.208000  0.898400  0.387900  1
  C  C1692  1  0.292000  0.101600  0.887900  1
  C  C1693  1  0.148400  0.042000  0.637900  1
  C  C1694  1  0.351600  0.958000  0.137900  1
  C  C1695  1  0.708000  0.398400  0.887900  1
  C  C1696  1  0.792000  0.601600  0.387900  1
  C  C1697  1  0.351600  0.458000  0.862100  1
  C  C1698  1  0.148400  0.542000  0.362100  1
  C  C1699  1  0.792000  0.101600  0.612100  1
  C  C1700  1  0.708000  0.898400  0.112100  1
  C  C1701  1  0.851600  0.958000  0.362100  1
  C  C1702  1  0.648400  0.042000  0.862100  1
  C  C1703  1  0.292000  0.601600  0.112100  1
  C  C1704  1  0.208000  0.398400  0.612100  1
  C  C1705  1  0.614900  0.503800  0.122200  1
  C  C1706  1  0.885100  0.496200  0.622200  1
  C  C1707  1  0.246200  0.864900  0.372200  1
  C  C1708  1  0.253800  0.135100  0.872200  1
  C  C1709  1  0.114900  0.003800  0.622200  1
  C  C1710  1  0.385100  0.996200  0.122200  1
  C  C1711  1  0.746200  0.364900  0.872200  1
  C  C1712  1  0.753800  0.635100  0.372200  1
  C  C1713  1  0.385100  0.496200  0.877800  1
  C  C1714  1  0.114900  0.503800  0.377800  1
  C  C1715  1  0.753800  0.135100  0.627800  1
  C  C1716  1  0.746200  0.864900  0.127800  1
  C  C1717  1  0.885100  0.996200  0.377800  1
  C  C1718  1  0.614900  0.003800  0.877800  1
  C  C1719  1  0.253800  0.635100  0.127800  1
  C  C1720  1  0.246200  0.364900  0.627800  1
  C  C1721  1  0.614800  0.416000  0.117000  1
  C  C1722  1  0.885200  0.584000  0.617000  1
  C  C1723  1  0.334000  0.864800  0.367000  1
  C  C1724  1  0.166000  0.135200  0.867000  1
  C  C1725  1  0.114800  0.916000  0.617000  1
  C  C1726  1  0.385200  0.084000  0.117000  1
  C  C1727  1  0.834000  0.364800  0.867000  1
  C  C1728  1  0.666000  0.635200  0.367000  1
  C  C1729  1  0.385200  0.584000  0.883000  1
  C  C1730  1  0.114800  0.416000  0.383000  1
  C  C1731  1  0.666000  0.135200  0.633000  1
  C  C1732  1  0.834000  0.864800  0.133000  1
  C  C1733  1  0.885200  0.084000  0.383000  1
  C  C1734  1  0.614800  0.916000  0.883000  1
  C  C1735  1  0.166000  0.635200  0.133000  1
  C  C1736  1  0.334000  0.364800  0.633000  1
  C  C1737  1  0.651800  0.477300  0.054400  1
  C  C1738  1  0.848200  0.522700  0.554400  1
  C  C1739  1  0.272700  0.901800  0.304400  1
  C  C1740  1  0.227300  0.098200  0.804400  1
  C  C1741  1  0.151800  0.977300  0.554400  1
  C  C1742  1  0.348200  0.022700  0.054400  1
  C  C1743  1  0.772700  0.401800  0.804400  1
  C  C1744  1  0.727300  0.598200  0.304400  1
  C  C1745  1  0.348200  0.522700  0.945600  1
  C  C1746  1  0.151800  0.477300  0.445600  1
  C  C1747  1  0.727300  0.098200  0.695600  1
  C  C1748  1  0.772700  0.901800  0.195600  1
  C  C1749  1  0.848200  0.022700  0.445600  1
  C  C1750  1  0.651800  0.977300  0.945600  1
  C  C1751  1  0.227300  0.598200  0.195600  1
  C  C1752  1  0.272700  0.401800  0.695600  1
  C  C1753  1  0.682900  0.509100  0.204280  1
  C  C1754  1  0.817100  0.490900  0.704280  1
  C  C1755  1  0.240900  0.932900  0.454280  1
  C  C1756  1  0.259100  0.067100  0.954280  1
  C  C1757  1  0.182900  0.009100  0.704280  1
  C  C1758  1  0.317100  0.990900  0.204280  1
  C  C1759  1  0.740900  0.432900  0.954280  1
  C  C1760  1  0.759100  0.567100  0.454280  1
  C  C1761  1  0.317100  0.490900  0.795720  1
  C  C1762  1  0.182900  0.509100  0.295720  1
  C  C1763  1  0.759100  0.067100  0.545720  1
  C  C1764  1  0.740900  0.932900  0.045720  1
  C  C1765  1  0.817100  0.990900  0.295720  1
  C  C1766  1  0.682900  0.009100  0.795720  1
  C  C1767  1  0.259100  0.567100  0.045720  1
  C  C1768  1  0.240900  0.432900  0.545720  1
  C  C1769  1  0.033200  0.322200  0.351510  1.0
  C  C1770  1  0.466800  0.677800  0.851510  1.0
  C  C1771  1  0.427800  0.283200  0.601510  1.0
  C  C1772  1  0.072200  0.716800  0.101510  1.0
  C  C1773  1  0.533200  0.822200  0.851510  1.0
  C  C1774  1  0.966800  0.177800  0.351510  1.0
  C  C1775  1  0.927800  0.783200  0.101510  1.0
  C  C1776  1  0.572200  0.216800  0.601510  1.0
  C  C1777  1  0.966800  0.677800  0.648490  1.0
  C  C1778  1  0.533200  0.322200  0.148490  1.0
  C  C1779  1  0.572200  0.716800  0.398490  1.0
  C  C1780  1  0.927800  0.283200  0.898490  1.0
  C  C1781  1  0.466800  0.177800  0.148490  1.0
  C  C1782  1  0.033200  0.822200  0.648490  1.0
  C  C1783  1  0.072200  0.216800  0.898490  1.0
  C  C1784  1  0.427800  0.783200  0.398490  1.0
  C  C1785  1  0.029800  0.352600  0.316320  1.0
  C  C1786  1  0.470200  0.647400  0.816320  1.0
  C  C1787  1  0.397400  0.279800  0.566320  1.0
  C  C1788  1  0.102600  0.720200  0.066320  1.0
  C  C1789  1  0.529800  0.852600  0.816320  1.0
  C  C1790  1  0.970200  0.147400  0.316320  1.0
  C  C1791  1  0.897400  0.779800  0.066320  1.0
  C  C1792  1  0.602600  0.220200  0.566320  1.0
  C  C1793  1  0.970200  0.647400  0.683680  1.0
  C  C1794  1  0.529800  0.352600  0.183680  1.0
  C  C1795  1  0.602600  0.720200  0.433680  1.0
  C  C1796  1  0.897400  0.279800  0.933680  1.0
  C  C1797  1  0.470200  0.147400  0.183680  1.0
  C  C1798  1  0.029800  0.852600  0.683680  1.0
  C  C1799  1  0.102600  0.220200  0.933680  1.0
  C  C1800  1  0.397400  0.779800  0.433680  1.0
  C  C1801  1  0.982800  0.363100  0.299270  1.0
  C  C1802  1  0.517200  0.636900  0.799270  1.0
  C  C1803  1  0.386900  0.232800  0.549270  1.0
  C  C1804  1  0.113100  0.767200  0.049270  1.0
  C  C1805  1  0.482800  0.863100  0.799270  1.0
  C  C1806  1  0.017200  0.136900  0.299270  1.0
  C  C1807  1  0.886900  0.732800  0.049270  1.0
  C  C1808  1  0.613100  0.267200  0.549270  1.0
  C  C1809  1  0.017200  0.636900  0.700730  1.0
  C  C1810  1  0.482800  0.363100  0.200730  1.0
  C  C1811  1  0.613100  0.767200  0.450730  1.0
  C  C1812  1  0.886900  0.232800  0.950730  1.0
  C  C1813  1  0.517200  0.136900  0.200730  1.0
  C  C1814  1  0.982800  0.863100  0.700730  1.0
  C  C1815  1  0.113100  0.267200  0.950730  1.0
  C  C1816  1  0.386900  0.732800  0.450730  1.0
  C  C1817  1  0.940400  0.341900  0.317800  1.0
  C  C1818  1  0.559600  0.658100  0.817800  1.0
  C  C1819  1  0.408100  0.190400  0.567800  1.0
  C  C1820  1  0.091900  0.809600  0.067800  1.0
  C  C1821  1  0.440400  0.841900  0.817800  1.0
  C  C1822  1  0.059600  0.158100  0.317800  1.0
  C  C1823  1  0.908100  0.690400  0.067800  1.0
  C  C1824  1  0.591900  0.309600  0.567800  1.0
  C  C1825  1  0.059600  0.658100  0.682200  1.0
  C  C1826  1  0.440400  0.341900  0.182200  1.0
  C  C1827  1  0.591900  0.809600  0.432200  1.0
  C  C1828  1  0.908100  0.190400  0.932200  1.0
  C  C1829  1  0.559600  0.158100  0.182200  1.0
  C  C1830  1  0.940400  0.841900  0.682200  1.0
  C  C1831  1  0.091900  0.309600  0.932200  1.0
  C  C1832  1  0.408100  0.690400  0.432200  1.0
  C  C1833  1  0.946300  0.311700  0.352630  1.0
  C  C1834  1  0.553700  0.688300  0.852630  1.0
  C  C1835  1  0.438300  0.196300  0.602630  1.0
  C  C1836  1  0.061700  0.803700  0.102630  1.0
  C  C1837  1  0.446300  0.811700  0.852630  1.0
  C  C1838  1  0.053700  0.188300  0.352630  1.0
  C  C1839  1  0.938300  0.696300  0.102630  1.0
  C  C1840  1  0.561700  0.303700  0.602630  1.0
  C  C1841  1  0.053700  0.688300  0.647370  1.0
  C  C1842  1  0.446300  0.311700  0.147370  1.0
  C  C1843  1  0.561700  0.803700  0.397370  1.0
  C  C1844  1  0.938300  0.196300  0.897370  1.0
  C  C1845  1  0.553700  0.188300  0.147370  1.0
  C  C1846  1  0.946300  0.811700  0.647370  1.0
  C  C1847  1  0.061700  0.303700  0.897370  1.0
  C  C1848  1  0.438300  0.696300  0.397370  1.0
  C  C1849  1  0.978600  0.395600  0.261060  1.0
  C  C1850  1  0.521400  0.604400  0.761060  1.0
  C  C1851  1  0.354400  0.228600  0.511060  1.0
  C  C1852  1  0.145600  0.771400  0.011060  1.0
  C  C1853  1  0.478600  0.895600  0.761060  1.0
  C  C1854  1  0.021400  0.104400  0.261060  1.0
  C  C1855  1  0.854400  0.728600  0.011060  1.0
  C  C1856  1  0.645600  0.271400  0.511060  1.0
  C  C1857  1  0.021400  0.604400  0.738940  1.0
  C  C1858  1  0.478600  0.395600  0.238940  1.0
  C  C1859  1  0.645600  0.771400  0.488940  1.0
  C  C1860  1  0.854400  0.228600  0.988940  1.0
  C  C1861  1  0.521400  0.104400  0.238940  1.0
  C  C1862  1  0.978600  0.895600  0.738940  1.0
  C  C1863  1  0.145600  0.271400  0.988940  1.0
  C  C1864  1  0.354400  0.728600  0.488940  1.0
  C  C1865  1  0.099300  0.517200  0.138800  1.0
  C  C1866  1  0.400700  0.482800  0.638800  1.0
  C  C1867  1  0.232800  0.349300  0.388800  1.0
  C  C1868  1  0.267200  0.650700  0.888800  1.0
  C  C1869  1  0.599300  0.017200  0.638800  1.0
  C  C1870  1  0.900700  0.982800  0.138800  1.0
  C  C1871  1  0.732800  0.849300  0.888800  1.0
  C  C1872  1  0.767200  0.150700  0.388800  1.0
  C  C1873  1  0.900700  0.482800  0.861200  1.0
  C  C1874  1  0.599300  0.517200  0.361200  1.0
  C  C1875  1  0.767200  0.650700  0.611200  1.0
  C  C1876  1  0.732800  0.349300  0.111200  1.0
  C  C1877  1  0.400700  0.982800  0.361200  1.0
  C  C1878  1  0.099300  0.017200  0.861200  1.0
  C  C1879  1  0.267200  0.150700  0.111200  1.0
  C  C1880  1  0.232800  0.849300  0.611200  1.0
  C  C1881  1  0.056800  0.496400  0.156000  1.0
  C  C1882  1  0.443200  0.503600  0.656000  1.0
  C  C1883  1  0.253600  0.306800  0.406000  1.0
  C  C1884  1  0.246400  0.693200  0.906000  1.0
  C  C1885  1  0.556800  0.996400  0.656000  1.0
  C  C1886  1  0.943200  0.003600  0.156000  1.0
  C  C1887  1  0.753600  0.806800  0.906000  1.0
  C  C1888  1  0.746400  0.193200  0.406000  1.0
  C  C1889  1  0.943200  0.503600  0.844000  1.0
  C  C1890  1  0.556800  0.496400  0.344000  1.0
  C  C1891  1  0.746400  0.693200  0.594000  1.0
  C  C1892  1  0.753600  0.306800  0.094000  1.0
  C  C1893  1  0.443200  0.003600  0.344000  1.0
  C  C1894  1  0.056800  0.996400  0.844000  1.0
  C  C1895  1  0.246400  0.193200  0.094000  1.0
  C  C1896  1  0.253600  0.806800  0.594000  1.0
  C  C1897  1  0.060300  0.466100  0.191550  1.0
  C  C1898  1  0.439700  0.533900  0.691550  1.0
  C  C1899  1  0.283900  0.310300  0.441550  1.0
  C  C1900  1  0.216100  0.689700  0.941550  1.0
  C  C1901  1  0.560300  0.966100  0.691550  1.0
  C  C1902  1  0.939700  0.033900  0.191550  1.0
  C  C1903  1  0.783900  0.810300  0.941550  1.0
  C  C1904  1  0.716100  0.189700  0.441550  1.0
  C  C1905  1  0.939700  0.533900  0.808450  1.0
  C  C1906  1  0.560300  0.466100  0.308450  1.0
  C  C1907  1  0.716100  0.689700  0.558450  1.0
  C  C1908  1  0.783900  0.310300  0.058450  1.0
  C  C1909  1  0.439700  0.033900  0.308450  1.0
  C  C1910  1  0.060300  0.966100  0.808450  1.0
  C  C1911  1  0.216100  0.189700  0.058450  1.0
  C  C1912  1  0.283900  0.810300  0.558450  1.0
  C  C1913  1  0.108400  0.457300  0.208730  1.0
  C  C1914  1  0.391600  0.542700  0.708730  1.0
  C  C1915  1  0.292700  0.358400  0.458730  1.0
  C  C1916  1  0.207300  0.641600  0.958730  1.0
  C  C1917  1  0.608400  0.957300  0.708730  1.0
  C  C1918  1  0.891600  0.042700  0.208730  1.0
  C  C1919  1  0.792700  0.858400  0.958730  1.0
  C  C1920  1  0.707300  0.141600  0.458730  1.0
  C  C1921  1  0.891600  0.542700  0.791270  1.0
  C  C1922  1  0.608400  0.457300  0.291270  1.0
  C  C1923  1  0.707300  0.641600  0.541270  1.0
  C  C1924  1  0.792700  0.358400  0.041270  1.0
  C  C1925  1  0.391600  0.042700  0.291270  1.0
  C  C1926  1  0.108400  0.957300  0.791270  1.0
  C  C1927  1  0.207300  0.141600  0.041270  1.0
  C  C1928  1  0.292700  0.858400  0.541270  1.0
  C  C1929  1  0.150200  0.479500  0.189090  1.0
  C  C1930  1  0.349800  0.520500  0.689090  1.0
  C  C1931  1  0.270500  0.400200  0.439090  1.0
  C  C1932  1  0.229500  0.599800  0.939090  1.0
  C  C1933  1  0.650200  0.979500  0.689090  1.0
  C  C1934  1  0.849800  0.020500  0.189090  1.0
  C  C1935  1  0.770500  0.900200  0.939090  1.0
  C  C1936  1  0.729500  0.099800  0.439090  1.0
  C  C1937  1  0.849800  0.520500  0.810910  1.0
  C  C1938  1  0.650200  0.479500  0.310910  1.0
  C  C1939  1  0.729500  0.599800  0.560910  1.0
  C  C1940  1  0.770500  0.400200  0.060910  1.0
  C  C1941  1  0.349800  0.020500  0.310910  1.0
  C  C1942  1  0.150200  0.979500  0.810910  1.0
  C  C1943  1  0.229500  0.099800  0.060910  1.0
  C  C1944  1  0.270500  0.900200  0.560910  1.0
  C  C1945  1  0.014100  0.443600  0.210750  1.0
  C  C1946  1  0.485900  0.556400  0.710750  1.0
  C  C1947  1  0.306400  0.264100  0.460750  1.0
  C  C1948  1  0.193600  0.735900  0.960750  1.0
  C  C1949  1  0.514100  0.943600  0.710750  1.0
  C  C1950  1  0.985900  0.056400  0.210750  1.0
  C  C1951  1  0.806400  0.764100  0.960750  1.0
  C  C1952  1  0.693600  0.235900  0.460750  1.0
  C  C1953  1  0.985900  0.556400  0.789250  1.0
  C  C1954  1  0.514100  0.443600  0.289250  1.0
  C  C1955  1  0.693600  0.735900  0.539250  1.0
  C  C1956  1  0.806400  0.264100  0.039250  1.0
  C  C1957  1  0.485900  0.056400  0.289250  1.0
  C  C1958  1  0.014100  0.943600  0.789250  1.0
  C  C1959  1  0.193600  0.235900  0.039250  1.0
  C  C1960  1  0.306400  0.764100  0.539250  1.0
  C  C1961  1  0.826000  0.477000  0.138600  1.0
  C  C1962  1  0.674000  0.523000  0.638600  1.0
  C  C1963  1  0.273000  0.076000  0.388600  1.0
  C  C1964  1  0.227000  0.924000  0.888600  1.0
  C  C1965  1  0.326000  0.977000  0.638600  1.0
  C  C1966  1  0.174000  0.023000  0.138600  1.0
  C  C1967  1  0.773000  0.576000  0.888600  1.0
  C  C1968  1  0.727000  0.424000  0.388600  1.0
  C  C1969  1  0.174000  0.523000  0.861400  1.0
  C  C1970  1  0.326000  0.477000  0.361400  1.0
  C  C1971  1  0.727000  0.924000  0.611400  1.0
  C  C1972  1  0.773000  0.076000  0.111400  1.0
  C  C1973  1  0.674000  0.023000  0.361400  1.0
  C  C1974  1  0.826000  0.977000  0.861400  1.0
  C  C1975  1  0.227000  0.424000  0.111400  1.0
  C  C1976  1  0.273000  0.576000  0.611400  1.0
  C  C1977  1  0.874300  0.469800  0.156200  1.0
  C  C1978  1  0.625700  0.530200  0.656200  1.0
  C  C1979  1  0.280200  0.124300  0.406200  1.0
  C  C1980  1  0.219800  0.875700  0.906200  1.0
  C  C1981  1  0.374300  0.969800  0.656200  1.0
  C  C1982  1  0.125700  0.030200  0.156200  1.0
  C  C1983  1  0.780200  0.624300  0.906200  1.0
  C  C1984  1  0.719800  0.375700  0.406200  1.0
  C  C1985  1  0.125700  0.530200  0.843800  1.0
  C  C1986  1  0.374300  0.469800  0.343800  1.0
  C  C1987  1  0.719800  0.875700  0.593800  1.0
  C  C1988  1  0.780200  0.124300  0.093800  1.0
  C  C1989  1  0.625700  0.030200  0.343800  1.0
  C  C1990  1  0.874300  0.969800  0.843800  1.0
  C  C1991  1  0.219800  0.375700  0.093800  1.0
  C  C1992  1  0.280200  0.624300  0.593800  1.0
  C  C1993  1  0.879600  0.440900  0.192150  1.0
  C  C1994  1  0.620400  0.559100  0.692150  1.0
  C  C1995  1  0.309100  0.129600  0.442150  1.0
  C  C1996  1  0.190900  0.870400  0.942150  1.0
  C  C1997  1  0.379600  0.940900  0.692150  1.0
  C  C1998  1  0.120400  0.059100  0.192150  1.0
  C  C1999  1  0.809100  0.629600  0.942150  1.0
  C  C2000  1  0.690900  0.370400  0.442150  1.0
  C  C2001  1  0.120400  0.559100  0.807850  1.0
  C  C2002  1  0.379600  0.440900  0.307850  1.0
  C  C2003  1  0.690900  0.870400  0.557850  1.0
  C  C2004  1  0.809100  0.129600  0.057850  1.0
  C  C2005  1  0.620400  0.059100  0.307850  1.0
  C  C2006  1  0.879600  0.940900  0.807850  1.0
  C  C2007  1  0.190900  0.370400  0.057850  1.0
  C  C2008  1  0.309100  0.629600  0.557850  1.0
  C  C2009  1  0.835700  0.421200  0.210090  1.0
  C  C2010  1  0.664300  0.578800  0.710090  1.0
  C  C2011  1  0.328800  0.085700  0.460090  1.0
  C  C2012  1  0.171200  0.914300  0.960090  1.0
  C  C2013  1  0.335700  0.921200  0.710090  1.0
  C  C2014  1  0.164300  0.078800  0.210090  1.0
  C  C2015  1  0.828800  0.585700  0.960090  1.0
  C  C2016  1  0.671200  0.414300  0.460090  1.0
  C  C2017  1  0.164300  0.578800  0.789910  1.0
  C  C2018  1  0.335700  0.421200  0.289910  1.0
  C  C2019  1  0.671200  0.914300  0.539910  1.0
  C  C2020  1  0.828800  0.085700  0.039910  1.0
  C  C2021  1  0.664300  0.078800  0.289910  1.0
  C  C2022  1  0.835700  0.921200  0.789910  1.0
  C  C2023  1  0.171200  0.414300  0.039910  1.0
  C  C2024  1  0.328800  0.585700  0.539910  1.0
  C  C2025  1  0.789700  0.429400  0.191890  1.0
  C  C2026  1  0.710300  0.570600  0.691890  1.0
  C  C2027  1  0.320600  0.039700  0.441890  1.0
  C  C2028  1  0.179400  0.960300  0.941890  1.0
  C  C2029  1  0.289700  0.929400  0.691890  1.0
  C  C2030  1  0.210300  0.070600  0.191890  1.0
  C  C2031  1  0.820600  0.539700  0.941890  1.0
  C  C2032  1  0.679400  0.460300  0.441890  1.0
  C  C2033  1  0.210300  0.570600  0.808110  1.0
  C  C2034  1  0.289700  0.429400  0.308110  1.0
  C  C2035  1  0.679400  0.960300  0.558110  1.0
  C  C2036  1  0.820600  0.039700  0.058110  1.0
  C  C2037  1  0.710300  0.070600  0.308110  1.0
  C  C2038  1  0.789700  0.929400  0.808110  1.0
  C  C2039  1  0.179400  0.460300  0.058110  1.0
  C  C2040  1  0.320600  0.539700  0.558110  1.0
  C  C2041  1  0.930100  0.432000  0.211310  1.0
  C  C2042  1  0.569900  0.568000  0.711310  1.0
  C  C2043  1  0.318000  0.180100  0.461310  1.0
  C  C2044  1  0.182000  0.819900  0.961310  1.0
  C  C2045  1  0.430100  0.932000  0.711310  1.0
  C  C2046  1  0.069900  0.068000  0.211310  1.0
  C  C2047  1  0.818000  0.680100  0.961310  1.0
  C  C2048  1  0.682000  0.319900  0.461310  1.0
  C  C2049  1  0.069900  0.568000  0.788690  1.0
  C  C2050  1  0.430100  0.432000  0.288690  1.0
  C  C2051  1  0.682000  0.819900  0.538690  1.0
  C  C2052  1  0.818000  0.180100  0.038690  1.0
  C  C2053  1  0.569900  0.068000  0.288690  1.0
  C  C2054  1  0.930100  0.932000  0.788690  1.0
  C  C2055  1  0.182000  0.319900  0.038690  1.0
  C  C2056  1  0.318000  0.680100  0.538690  1.0
  C  C2057  1  0.716400  0.567900  0.140300  1.0
  C  C2058  1  0.783600  0.432100  0.640300  1.0
  C  C2059  1  0.182100  0.966400  0.390300  1.0
  C  C2060  1  0.317900  0.033600  0.890300  1.0
  C  C2061  1  0.216400  0.067900  0.640300  1.0
  C  C2062  1  0.283600  0.932100  0.140300  1.0
  C  C2063  1  0.682100  0.466400  0.890300  1.0
  C  C2064  1  0.817900  0.533600  0.390300  1.0
  C  C2065  1  0.283600  0.432100  0.859700  1.0
  C  C2066  1  0.216400  0.567900  0.359700  1.0
  C  C2067  1  0.817900  0.033600  0.609700  1.0
  C  C2068  1  0.682100  0.966400  0.109700  1.0
  C  C2069  1  0.783600  0.932100  0.359700  1.0
  C  C2070  1  0.716400  0.067900  0.859700  1.0
  C  C2071  1  0.317900  0.533600  0.109700  1.0
  C  C2072  1  0.182100  0.466400  0.609700  1.0
  C  C2073  1  0.697100  0.521600  0.201900  1.0
  C  C2074  1  0.802900  0.478400  0.701900  1.0
  C  C2075  1  0.228400  0.947100  0.451900  1.0
  C  C2076  1  0.271600  0.052900  0.951900  1.0
  C  C2077  1  0.197100  0.021600  0.701900  1.0
  C  C2078  1  0.302900  0.978400  0.201900  1.0
  C  C2079  1  0.728400  0.447100  0.951900  1.0
  C  C2080  1  0.771600  0.552900  0.451900  1.0
  C  C2081  1  0.302900  0.478400  0.798100  1.0
  C  C2082  1  0.197100  0.521600  0.298100  1.0
  C  C2083  1  0.771600  0.052900  0.548100  1.0
  C  C2084  1  0.728400  0.947100  0.048100  1.0
  C  C2085  1  0.802900  0.978400  0.298100  1.0
  C  C2086  1  0.697100  0.021600  0.798100  1.0
  C  C2087  1  0.271600  0.552900  0.048100  1.0
  C  C2088  1  0.228400  0.447100  0.548100  1.0
  C  C2089  1  0.632300  0.522500  0.147300  1.0
  C  C2090  1  0.867700  0.477500  0.647300  1.0
  C  C2091  1  0.227500  0.882300  0.397300  1.0
  C  C2092  1  0.272500  0.117700  0.897300  1.0
  C  C2093  1  0.132300  0.022500  0.647300  1.0
  C  C2094  1  0.367700  0.977500  0.147300  1.0
  C  C2095  1  0.727500  0.382300  0.897300  1.0
  C  C2096  1  0.772500  0.617700  0.397300  1.0
  C  C2097  1  0.367700  0.477500  0.852700  1.0
  C  C2098  1  0.132300  0.522500  0.352700  1.0
  C  C2099  1  0.772500  0.117700  0.602700  1.0
  C  C2100  1  0.727500  0.882300  0.102700  1.0
  C  C2101  1  0.867700  0.977500  0.352700  1.0
  C  C2102  1  0.632300  0.022500  0.852700  1.0
  C  C2103  1  0.272500  0.617700  0.102700  1.0
  C  C2104  1  0.227500  0.382300  0.602700  1.0
  C  C2105  1  0.626100  0.510300  0.101400  1.0
  C  C2106  1  0.873900  0.489700  0.601400  1.0
  C  C2107  1  0.239700  0.876100  0.351400  1.0
  C  C2108  1  0.260300  0.123900  0.851400  1.0
  C  C2109  1  0.126100  0.010300  0.601400  1.0
  C  C2110  1  0.373900  0.989700  0.101400  1.0
  C  C2111  1  0.739700  0.376100  0.851400  1.0
  C  C2112  1  0.760300  0.623900  0.351400  1.0
  C  C2113  1  0.373900  0.489700  0.898600  1.0
  C  C2114  1  0.126100  0.510300  0.398600  1.0
  C  C2115  1  0.760300  0.123900  0.648600  1.0
  C  C2116  1  0.739700  0.876100  0.148600  1.0
  C  C2117  1  0.873900  0.989700  0.398600  1.0
  C  C2118  1  0.626100  0.010300  0.898600  1.0
  C  C2119  1  0.260300  0.623900  0.148600  1.0
  C  C2120  1  0.239700  0.376100  0.648600  1.0
  C  C2121  1  0.616500  0.418500  0.106300  1.0
  C  C2122  1  0.883500  0.581500  0.606300  1.0
  C  C2123  1  0.331500  0.866500  0.356300  1.0
  C  C2124  1  0.168500  0.133500  0.856300  1.0
  C  C2125  1  0.116500  0.918500  0.606300  1.0
  C  C2126  1  0.383500  0.081500  0.106300  1.0
  C  C2127  1  0.831500  0.366500  0.856300  1.0
  C  C2128  1  0.668500  0.633500  0.356300  1.0
  C  C2129  1  0.383500  0.581500  0.893700  1.0
  C  C2130  1  0.116500  0.418500  0.393700  1.0
  C  C2131  1  0.668500  0.133500  0.643700  1.0
  C  C2132  1  0.831500  0.866500  0.143700  1.0
  C  C2133  1  0.883500  0.081500  0.393700  1.0
  C  C2134  1  0.616500  0.918500  0.893700  1.0
  C  C2135  1  0.168500  0.633500  0.143700  1.0
  C  C2136  1  0.331500  0.366500  0.643700  1.0
  C  C2137  1  0.652100  0.449700  0.047900  1.0
  C  C2138  1  0.847900  0.550300  0.547900  1.0
  C  C2139  1  0.300300  0.902100  0.297900  1.0
  C  C2140  1  0.199700  0.097900  0.797900  1.0
  C  C2141  1  0.152100  0.949700  0.547900  1.0
  C  C2142  1  0.347900  0.050300  0.047900  1.0
  C  C2143  1  0.800300  0.402100  0.797900  1.0
  C  C2144  1  0.699700  0.597900  0.297900  1.0
  C  C2145  1  0.347900  0.550300  0.952100  1.0
  C  C2146  1  0.152100  0.449700  0.452100  1.0
  C  C2147  1  0.699700  0.097900  0.702100  1.0
  C  C2148  1  0.800300  0.902100  0.202100  1.0
  C  C2149  1  0.847900  0.050300  0.452100  1.0
  C  C2150  1  0.652100  0.949700  0.952100  1.0
  C  C2151  1  0.199700  0.597900  0.202100  1.0
  C  C2152  1  0.300300  0.402100  0.702100  1.0
  C  C2153  1  0.009100  0.277400  0.504000  1.0
  C  C2154  1  0.490900  0.722600  0.004000  1.0
  C  C2155  1  0.472600  0.259100  0.754000  1.0
  C  C2156  1  0.027400  0.740900  0.254000  1.0
  C  C2157  1  0.509100  0.777400  0.004000  1.0
  C  C2158  1  0.990900  0.222600  0.504000  1.0
  C  C2159  1  0.972600  0.759100  0.254000  1.0
  C  C2160  1  0.527400  0.240900  0.754000  1.0
  C  C2161  1  0.990900  0.722600  0.496000  1.0
  C  C2162  1  0.509100  0.277400  0.996000  1.0
  C  C2163  1  0.527400  0.740900  0.246000  1.0
  C  C2164  1  0.972600  0.259100  0.746000  1.0
  C  C2165  1  0.490900  0.222600  0.996000  1.0
  C  C2166  1  0.009100  0.777400  0.496000  1.0
  C  C2167  1  0.027400  0.240900  0.746000  1.0
  C  C2168  1  0.472600  0.759100  0.246000  1.0
  C  C2169  1  0.937000  0.317700  0.467400  1.0
  C  C2170  1  0.563000  0.682300  0.967400  1.0
  C  C2171  1  0.432300  0.187000  0.717400  1.0
  C  C2172  1  0.067700  0.813000  0.217400  1.0
  C  C2173  1  0.437000  0.817700  0.967400  1.0
  C  C2174  1  0.063000  0.182300  0.467400  1.0
  C  C2175  1  0.932300  0.687000  0.217400  1.0
  C  C2176  1  0.567700  0.313000  0.717400  1.0
  C  C2177  1  0.063000  0.682300  0.532600  1.0
  C  C2178  1  0.437000  0.317700  0.032600  1.0
  C  C2179  1  0.567700  0.813000  0.282600  1.0
  C  C2180  1  0.932300  0.187000  0.782600  1.0
  C  C2181  1  0.563000  0.182300  0.032600  1.0
  C  C2182  1  0.937000  0.817700  0.532600  1.0
  C  C2183  1  0.067700  0.313000  0.782600  1.0
  C  C2184  1  0.432300  0.687000  0.282600  1.0
  C  C2185  1  0.021700  0.349600  0.457900  1.0
  C  C2186  1  0.478300  0.650400  0.957900  1.0
  C  C2187  1  0.400400  0.271700  0.707900  1.0
  C  C2188  1  0.099600  0.728300  0.207900  1.0
  C  C2189  1  0.521700  0.849600  0.957900  1.0
  C  C2190  1  0.978300  0.150400  0.457900  1.0
  C  C2191  1  0.900400  0.771700  0.207900  1.0
  C  C2192  1  0.599600  0.228300  0.707900  1.0
  C  C2193  1  0.978300  0.650400  0.542100  1.0
  C  C2194  1  0.521700  0.349600  0.042100  1.0
  C  C2195  1  0.599600  0.728300  0.292100  1.0
  C  C2196  1  0.900400  0.271700  0.792100  1.0
  C  C2197  1  0.478300  0.150400  0.042100  1.0
  C  C2198  1  0.021700  0.849600  0.542100  1.0
  C  C2199  1  0.099600  0.228300  0.792100  1.0
  C  C2200  1  0.400400  0.771700  0.292100  1.0
  N  N2201  1  0.775400  0.571200  0.049600  1
  N  N2202  1  0.724600  0.428800  0.549600  1
  N  N2203  1  0.178800  0.025400  0.299600  1
  N  N2204  1  0.321200  0.974600  0.799600  1
  N  N2205  1  0.275400  0.071200  0.549600  1
  N  N2206  1  0.224600  0.928800  0.049600  1
  N  N2207  1  0.678800  0.525400  0.799600  1
  N  N2208  1  0.821200  0.474600  0.299600  1
  N  N2209  1  0.224600  0.428800  0.950400  1
  N  N2210  1  0.275400  0.571200  0.450400  1
  N  N2211  1  0.821200  0.974600  0.700400  1
  N  N2212  1  0.678800  0.025400  0.200400  1
  N  N2213  1  0.724600  0.928800  0.450400  1
  N  N2214  1  0.775400  0.071200  0.950400  1
  N  N2215  1  0.321200  0.474600  0.200400  1
  N  N2216  1  0.178800  0.525400  0.700400  1
  N  N2217  1  0.457200  0.493600  0.180000  1
  N  N2218  1  0.042800  0.506400  0.680000  1
  N  N2219  1  0.256400  0.707200  0.430000  1
  N  N2220  1  0.243600  0.292800  0.930000  1
  N  N2221  1  0.957200  0.993600  0.680000  1
  N  N2222  1  0.542800  0.006400  0.180000  1
  N  N2223  1  0.756400  0.207200  0.930000  1
  N  N2224  1  0.743600  0.792800  0.430000  1
  N  N2225  1  0.542800  0.506400  0.820000  1
  N  N2226  1  0.957200  0.493600  0.320000  1
  N  N2227  1  0.743600  0.292800  0.570000  1
  N  N2228  1  0.756400  0.707200  0.070000  1
  N  N2229  1  0.042800  0.006400  0.320000  1
  N  N2230  1  0.457200  0.993600  0.820000  1
  N  N2231  1  0.243600  0.792800  0.070000  1
  N  N2232  1  0.256400  0.207200  0.570000  1
  N  N2233  1  0.535000  0.614000  0.071800  1
  N  N2234  1  0.965000  0.386000  0.571800  1
  N  N2235  1  0.136000  0.785000  0.321800  1
  N  N2236  1  0.364000  0.215000  0.821800  1
  N  N2237  1  0.035000  0.114000  0.571800  1
  N  N2238  1  0.465000  0.886000  0.071800  1
  N  N2239  1  0.636000  0.285000  0.821800  1
  N  N2240  1  0.864000  0.715000  0.321800  1
  N  N2241  1  0.465000  0.386000  0.928200  1
  N  N2242  1  0.035000  0.614000  0.428200  1
  N  N2243  1  0.864000  0.215000  0.678200  1
  N  N2244  1  0.636000  0.785000  0.178200  1
  N  N2245  1  0.965000  0.886000  0.428200  1
  N  N2246  1  0.535000  0.114000  0.928200  1
  N  N2247  1  0.364000  0.715000  0.178200  1
  N  N2248  1  0.136000  0.285000  0.678200  1
  N  N2249  1  0.185300  0.362800  0.273300  1
  N  N2250  1  0.314700  0.637200  0.773300  1
  N  N2251  1  0.387200  0.435300  0.523300  1
  N  N2252  1  0.112800  0.564700  0.023300  1
  N  N2253  1  0.685300  0.862800  0.773300  1
  N  N2254  1  0.814700  0.137200  0.273300  1
  N  N2255  1  0.887200  0.935300  0.023300  1
  N  N2256  1  0.612800  0.064700  0.523300  1
  N  N2257  1  0.814700  0.637200  0.726700  1
  N  N2258  1  0.685300  0.362800  0.226700  1
  N  N2259  1  0.612800  0.564700  0.476700  1
  N  N2260  1  0.887200  0.435300  0.976700  1
  N  N2261  1  0.314700  0.137200  0.226700  1
  N  N2262  1  0.185300  0.862800  0.726700  1
  N  N2263  1  0.112800  0.064700  0.976700  1
  N  N2264  1  0.387200  0.935300  0.476700  1
  N  N2265  1  0.977600  0.245600  0.053000  1
  N  N2266  1  0.522400  0.754400  0.553000  1
  N  N2267  1  0.504400  0.227600  0.303000  1
  N  N2268  1  0.995600  0.772400  0.803000  1
  N  N2269  1  0.477600  0.745600  0.553000  1
  N  N2270  1  0.022400  0.254400  0.053000  1
  N  N2271  1  0.004400  0.727600  0.803000  1
  N  N2272  1  0.495600  0.272400  0.303000  1
  N  N2273  1  0.022400  0.754400  0.947000  1
  N  N2274  1  0.477600  0.245600  0.447000  1
  N  N2275  1  0.495600  0.772400  0.697000  1
  N  N2276  1  0.004400  0.227600  0.197000  1
  N  N2277  1  0.522400  0.254400  0.447000  1
  N  N2278  1  0.977600  0.745600  0.947000  1
  N  N2279  1  0.995600  0.272400  0.197000  1
  N  N2280  1  0.504400  0.727600  0.697000  1
  N  N2281  1  0.528400  0.599000  0.305400  1
  N  N2282  1  0.971600  0.401000  0.805400  1
  N  N2283  1  0.151000  0.778400  0.555400  1
  N  N2284  1  0.349000  0.221600  0.055400  1
  N  N2285  1  0.028400  0.099000  0.805400  1
  N  N2286  1  0.471600  0.901000  0.305400  1
  N  N2287  1  0.651000  0.278400  0.055400  1
  N  N2288  1  0.849000  0.721600  0.555400  1
  N  N2289  1  0.471600  0.401000  0.694600  1
  N  N2290  1  0.028400  0.599000  0.194600  1
  N  N2291  1  0.849000  0.221600  0.444600  1
  N  N2292  1  0.651000  0.778400  0.944600  1
  N  N2293  1  0.971600  0.901000  0.194600  1
  N  N2294  1  0.528400  0.099000  0.694600  1
  N  N2295  1  0.349000  0.721600  0.944600  1
  N  N2296  1  0.151000  0.278400  0.444600  1
  N  N2297  1  0.580600  0.618400  0.208900  1
  N  N2298  1  0.919400  0.381600  0.708900  1
  N  N2299  1  0.131600  0.830600  0.458900  1
  N  N2300  1  0.368400  0.169400  0.958900  1
  N  N2301  1  0.080600  0.118400  0.708900  1
  N  N2302  1  0.419400  0.881600  0.208900  1
  N  N2303  1  0.631600  0.330600  0.958900  1
  N  N2304  1  0.868400  0.669400  0.458900  1
  N  N2305  1  0.419400  0.381600  0.791100  1
  N  N2306  1  0.080600  0.618400  0.291100  1
  N  N2307  1  0.868400  0.169400  0.541100  1
  N  N2308  1  0.631600  0.830600  0.041100  1
  N  N2309  1  0.919400  0.881600  0.291100  1
  N  N2310  1  0.580600  0.118400  0.791100  1
  N  N2311  1  0.368400  0.669400  0.041100  1
  N  N2312  1  0.131600  0.330600  0.541100  1
  N  N2313  1  0.472700  0.460700  0.135400  1
  N  N2314  1  0.027300  0.539300  0.635400  1
  N  N2315  1  0.289300  0.722700  0.385400  1
  N  N2316  1  0.210700  0.277300  0.885400  1
  N  N2317  1  0.972700  0.960700  0.635400  1
  N  N2318  1  0.527300  0.039300  0.135400  1
  N  N2319  1  0.789300  0.222700  0.885400  1
  N  N2320  1  0.710700  0.777300  0.385400  1
  N  N2321  1  0.527300  0.539300  0.864600  1
  N  N2322  1  0.972700  0.460700  0.364600  1
  N  N2323  1  0.710700  0.277300  0.614600  1
  N  N2324  1  0.789300  0.722700  0.114600  1
  N  N2325  1  0.027300  0.039300  0.364600  1
  N  N2326  1  0.472700  0.960700  0.864600  1
  N  N2327  1  0.210700  0.777300  0.114600  1
  N  N2328  1  0.289300  0.222700  0.614600  1
  N  N2329  1  0.165100  0.347100  0.294600  1
  N  N2330  1  0.334900  0.652900  0.794600  1
  N  N2331  1  0.402900  0.415100  0.544600  1
  N  N2332  1  0.097100  0.584900  0.044600  1
  N  N2333  1  0.665100  0.847100  0.794600  1
  N  N2334  1  0.834900  0.152900  0.294600  1
  N  N2335  1  0.902900  0.915100  0.044600  1
  N  N2336  1  0.597100  0.084900  0.544600  1
  N  N2337  1  0.834900  0.652900  0.705400  1
  N  N2338  1  0.665100  0.347100  0.205400  1
  N  N2339  1  0.597100  0.584900  0.455400  1
  N  N2340  1  0.902900  0.415100  0.955400  1
  N  N2341  1  0.334900  0.152900  0.205400  1
  N  N2342  1  0.165100  0.847100  0.705400  1
  N  N2343  1  0.097100  0.084900  0.955400  1
  N  N2344  1  0.402900  0.915100  0.455400  1
  N  N2345  1  0.991810  0.301500  0.369580  1.0
  N  N2346  1  0.508190  0.698500  0.869580  1.0
  N  N2347  1  0.448500  0.241810  0.619580  1.0
  N  N2348  1  0.051500  0.758190  0.119580  1.0
  N  N2349  1  0.491810  0.801500  0.869580  1.0
  N  N2350  1  0.008190  0.198500  0.369580  1.0
  N  N2351  1  0.948500  0.741810  0.119580  1.0
  N  N2352  1  0.551500  0.258190  0.619580  1.0
  N  N2353  1  0.008190  0.698500  0.630420  1.0
  N  N2354  1  0.491810  0.301500  0.130420  1.0
  N  N2355  1  0.551500  0.758190  0.380420  1.0
  N  N2356  1  0.948500  0.241810  0.880420  1.0
  N  N2357  1  0.508190  0.198500  0.130420  1.0
  N  N2358  1  0.991810  0.801500  0.630420  1.0
  N  N2359  1  0.051500  0.258190  0.880420  1.0
  N  N2360  1  0.448500  0.741810  0.380420  1.0
  N  N2361  1  0.021040  0.414700  0.245180  1.0
  N  N2362  1  0.478960  0.585300  0.745180  1.0
  N  N2363  1  0.335300  0.271040  0.495180  1.0
  N  N2364  1  0.164700  0.728960  0.995180  1.0
  N  N2365  1  0.521040  0.914700  0.745180  1.0
  N  N2366  1  0.978960  0.085300  0.245180  1.0
  N  N2367  1  0.835300  0.771040  0.995180  1.0
  N  N2368  1  0.664700  0.228960  0.495180  1.0
  N  N2369  1  0.978960  0.585300  0.754820  1.0
  N  N2370  1  0.521040  0.414700  0.254820  1.0
  N  N2371  1  0.664700  0.728960  0.504820  1.0
  N  N2372  1  0.835300  0.271040  0.004820  1.0
  N  N2373  1  0.478960  0.085300  0.254820  1.0
  N  N2374  1  0.021040  0.914700  0.754820  1.0
  N  N2375  1  0.164700  0.228960  0.004820  1.0
  N  N2376  1  0.335300  0.771040  0.504820  1.0
  N  N2377  1  0.931650  0.403300  0.245320  1.0
  N  N2378  1  0.568350  0.596700  0.745320  1.0
  N  N2379  1  0.346700  0.181650  0.495320  1.0
  N  N2380  1  0.153300  0.818350  0.995320  1.0
  N  N2381  1  0.431650  0.903300  0.745320  1.0
  N  N2382  1  0.068350  0.096700  0.245320  1.0
  N  N2383  1  0.846700  0.681650  0.995320  1.0
  N  N2384  1  0.653300  0.318350  0.495320  1.0
  N  N2385  1  0.068350  0.596700  0.754680  1.0
  N  N2386  1  0.431650  0.403300  0.254680  1.0
  N  N2387  1  0.653300  0.818350  0.504680  1.0
  N  N2388  1  0.846700  0.181650  0.004680  1.0
  N  N2389  1  0.568350  0.096700  0.254680  1.0
  N  N2390  1  0.931650  0.903300  0.754680  1.0
  N  N2391  1  0.153300  0.318350  0.004680  1.0
  N  N2392  1  0.346700  0.681650  0.504680  1.0
  N  N2393  1  0.970020  0.453000  0.192460  1.0
  N  N2394  1  0.529980  0.547000  0.692460  1.0
  N  N2395  1  0.297000  0.220020  0.442460  1.0
  N  N2396  1  0.203000  0.779980  0.942460  1.0
  N  N2397  1  0.470020  0.953000  0.692460  1.0
  N  N2398  1  0.029980  0.047000  0.192460  1.0
  N  N2399  1  0.797000  0.720020  0.942460  1.0
  N  N2400  1  0.703000  0.279980  0.442460  1.0
  N  N2401  1  0.029980  0.547000  0.807540  1.0
  N  N2402  1  0.470020  0.453000  0.307540  1.0
  N  N2403  1  0.703000  0.779980  0.557540  1.0
  N  N2404  1  0.797000  0.220020  0.057540  1.0
  N  N2405  1  0.529980  0.047000  0.307540  1.0
  N  N2406  1  0.970020  0.953000  0.807540  1.0
  N  N2407  1  0.203000  0.279980  0.057540  1.0
  N  N2408  1  0.297000  0.720020  0.557540  1.0
  N  N2409  1  0.784790  0.456850  0.156270  1.0
  N  N2410  1  0.715210  0.543150  0.656270  1.0
  N  N2411  1  0.293150  0.034790  0.406270  1.0
  N  N2412  1  0.206850  0.965210  0.906270  1.0
  N  N2413  1  0.284790  0.956850  0.656270  1.0
  N  N2414  1  0.215210  0.043150  0.156270  1.0
  N  N2415  1  0.793150  0.534790  0.906270  1.0
  N  N2416  1  0.706850  0.465210  0.406270  1.0
  N  N2417  1  0.215210  0.543150  0.843730  1.0
  N  N2418  1  0.284790  0.456850  0.343730  1.0
  N  N2419  1  0.706850  0.965210  0.593730  1.0
  N  N2420  1  0.793150  0.034790  0.093730  1.0
  N  N2421  1  0.715210  0.043150  0.343730  1.0
  N  N2422  1  0.784790  0.956850  0.843730  1.0
  N  N2423  1  0.206850  0.465210  0.093730  1.0
  N  N2424  1  0.293150  0.534790  0.593730  1.0
  N  N2425  1  0.741260  0.396210  0.094790  1.0
  N  N2426  1  0.758740  0.603790  0.594790  1.0
  N  N2427  1  0.353790  0.991260  0.344790  1.0
  N  N2428  1  0.146210  0.008740  0.844790  1.0
  N  N2429  1  0.241260  0.896210  0.594790  1.0
  N  N2430  1  0.258740  0.103790  0.094790  1.0
  N  N2431  1  0.853790  0.491260  0.844790  1.0
  N  N2432  1  0.646210  0.508740  0.344790  1.0
  N  N2433  1  0.258740  0.603790  0.905210  1.0
  N  N2434  1  0.241260  0.396210  0.405210  1.0
  N  N2435  1  0.646210  0.008740  0.655210  1.0
  N  N2436  1  0.853790  0.991260  0.155210  1.0
  N  N2437  1  0.758740  0.103790  0.405210  1.0
  N  N2438  1  0.741260  0.896210  0.905210  1.0
  N  N2439  1  0.146210  0.508740  0.155210  1.0
  N  N2440  1  0.353790  0.491260  0.655210  1.0
  N  N2441  1  0.691100  0.522800  0.157270  1.0
  N  N2442  1  0.808900  0.477200  0.657270  1.0
  N  N2443  1  0.227200  0.941100  0.407270  1.0
  N  N2444  1  0.272800  0.058900  0.907270  1.0
  N  N2445  1  0.191100  0.022800  0.657270  1.0
  N  N2446  1  0.308900  0.977200  0.157270  1.0
  N  N2447  1  0.727200  0.441100  0.907270  1.0
  N  N2448  1  0.772800  0.558900  0.407270  1.0
  N  N2449  1  0.308900  0.477200  0.842730  1.0
  N  N2450  1  0.191100  0.522800  0.342730  1.0
  N  N2451  1  0.772800  0.058900  0.592730  1.0
  N  N2452  1  0.727200  0.941100  0.092730  1.0
  N  N2453  1  0.808900  0.977200  0.342730  1.0
  N  N2454  1  0.691100  0.022800  0.842730  1.0
  N  N2455  1  0.272800  0.558900  0.092730  1.0
  N  N2456  1  0.227200  0.441100  0.592730  1.0
  N  N2457  1  0.647200  0.460600  0.096050  1.0
  N  N2458  1  0.852800  0.539400  0.596050  1.0
  N  N2459  1  0.289400  0.897200  0.346050  1.0
  N  N2460  1  0.210600  0.102800  0.846050  1.0
  N  N2461  1  0.147200  0.960600  0.596050  1.0
  N  N2462  1  0.352800  0.039400  0.096050  1.0
  N  N2463  1  0.789400  0.397200  0.846050  1.0
  N  N2464  1  0.710600  0.602800  0.346050  1.0
  N  N2465  1  0.352800  0.539400  0.903950  1.0
  N  N2466  1  0.147200  0.460600  0.403950  1.0
  N  N2467  1  0.710600  0.102800  0.653950  1.0
  N  N2468  1  0.789400  0.897200  0.153950  1.0
  N  N2469  1  0.852800  0.039400  0.403950  1.0
  N  N2470  1  0.647200  0.960600  0.903950  1.0
  N  N2471  1  0.210600  0.602800  0.153950  1.0
  N  N2472  1  0.289400  0.397200  0.653950  1.0
  N  N2473  1  0.991100  0.302600  0.464720  1.0
  N  N2474  1  0.508900  0.697400  0.964720  1.0
  N  N2475  1  0.447400  0.241100  0.714720  1.0
  N  N2476  1  0.052600  0.758900  0.214720  1.0
  N  N2477  1  0.491100  0.802600  0.964720  1.0
  N  N2478  1  0.008900  0.197400  0.464720  1.0
  N  N2479  1  0.947400  0.741100  0.214720  1.0
  N  N2480  1  0.552600  0.258900  0.714720  1.0
  N  N2481  1  0.008900  0.697400  0.535280  1.0
  N  N2482  1  0.491100  0.302600  0.035280  1.0
  N  N2483  1  0.552600  0.758900  0.285280  1.0
  N  N2484  1  0.947400  0.241100  0.785280  1.0
  N  N2485  1  0.508900  0.197400  0.035280  1.0
  N  N2486  1  0.991100  0.802600  0.535280  1.0
  N  N2487  1  0.052600  0.258900  0.785280  1.0
  N  N2488  1  0.447400  0.741100  0.285280  1.0
  O  O2489  1  0.292200  0.354000  0.195400  1
  O  O2490  1  0.207800  0.646000  0.695400  1
  O  O2491  1  0.396000  0.542200  0.445400  1
  O  O2492  1  0.104000  0.457800  0.945400  1
  O  O2493  1  0.792200  0.854000  0.695400  1
  O  O2494  1  0.707800  0.146000  0.195400  1
  O  O2495  1  0.896000  0.042200  0.945400  1
  O  O2496  1  0.604000  0.957800  0.445400  1
  O  O2497  1  0.707800  0.646000  0.804600  1
  O  O2498  1  0.792200  0.354000  0.304600  1
  O  O2499  1  0.604000  0.457800  0.554600  1
  O  O2500  1  0.896000  0.542200  0.054600  1
  O  O2501  1  0.207800  0.146000  0.304600  1
  O  O2502  1  0.292200  0.854000  0.804600  1
  O  O2503  1  0.104000  0.957800  0.054600  1
  O  O2504  1  0.396000  0.042200  0.554600  1
  O  O2505  1  0.172300  0.253500  0.330400  1
  O  O2506  1  0.327700  0.746500  0.830400  1
  O  O2507  1  0.496500  0.422300  0.580400  1
  O  O2508  1  0.003500  0.577700  0.080400  1
  O  O2509  1  0.672300  0.753500  0.830400  1
  O  O2510  1  0.827700  0.246500  0.330400  1
  O  O2511  1  0.996500  0.922300  0.080400  1
  O  O2512  1  0.503500  0.077700  0.580400  1
  O  O2513  1  0.827700  0.746500  0.669600  1
  O  O2514  1  0.672300  0.253500  0.169600  1
  O  O2515  1  0.503500  0.577700  0.419600  1
  O  O2516  1  0.996500  0.422300  0.919600  1
  O  O2517  1  0.327700  0.246500  0.169600  1
  O  O2518  1  0.172300  0.753500  0.669600  1
  O  O2519  1  0.003500  0.077700  0.919600  1
  O  O2520  1  0.496500  0.922300  0.419600  1
  O  O2521  1  0.759600  0.523700  0.044000  1
  O  O2522  1  0.740400  0.476300  0.544000  1
  O  O2523  1  0.226300  0.009600  0.294000  1
  O  O2524  1  0.273700  0.990400  0.794000  1
  O  O2525  1  0.259600  0.023700  0.544000  1
  O  O2526  1  0.240400  0.976300  0.044000  1
  O  O2527  1  0.726300  0.509600  0.794000  1
  O  O2528  1  0.773700  0.490400  0.294000  1
  O  O2529  1  0.240400  0.476300  0.956000  1
  O  O2530  1  0.259600  0.523700  0.456000  1
  O  O2531  1  0.773700  0.990400  0.706000  1
  O  O2532  1  0.726300  0.009600  0.206000  1
  O  O2533  1  0.740400  0.976300  0.456000  1
  O  O2534  1  0.759600  0.023700  0.956000  1
  O  O2535  1  0.273700  0.490400  0.206000  1
  O  O2536  1  0.226300  0.509600  0.706000  1
  O  O2537  1  0.746500  0.604700  0.038100  1
  O  O2538  1  0.753500  0.395300  0.538100  1
  O  O2539  1  0.145300  0.996500  0.288100  1
  O  O2540  1  0.354700  0.003500  0.788100  1
  O  O2541  1  0.246500  0.104700  0.538100  1
  O  O2542  1  0.253500  0.895300  0.038100  1
  O  O2543  1  0.645300  0.496500  0.788100  1
  O  O2544  1  0.854700  0.503500  0.288100  1
  O  O2545  1  0.253500  0.395300  0.961900  1
  O  O2546  1  0.246500  0.604700  0.461900  1
  O  O2547  1  0.854700  0.003500  0.711900  1
  O  O2548  1  0.645300  0.996500  0.211900  1
  O  O2549  1  0.753500  0.895300  0.461900  1
  O  O2550  1  0.746500  0.104700  0.961900  1
  O  O2551  1  0.354700  0.503500  0.211900  1
  O  O2552  1  0.145300  0.496500  0.711900  1
  O  O2553  1  0.818200  0.586100  0.073100  1
  O  O2554  1  0.681800  0.413900  0.573100  1
  O  O2555  1  0.163900  0.068200  0.323100  1
  O  O2556  1  0.336100  0.931800  0.823100  1
  O  O2557  1  0.318200  0.086100  0.573100  1
  O  O2558  1  0.181800  0.913900  0.073100  1
  O  O2559  1  0.663900  0.568200  0.823100  1
  O  O2560  1  0.836100  0.431800  0.323100  1
  O  O2561  1  0.181800  0.413900  0.926900  1
  O  O2562  1  0.318200  0.586100  0.426900  1
  O  O2563  1  0.836100  0.931800  0.676900  1
  O  O2564  1  0.663900  0.068200  0.176900  1
  O  O2565  1  0.681800  0.913900  0.426900  1
  O  O2566  1  0.818200  0.086100  0.926900  1
  O  O2567  1  0.336100  0.431800  0.176900  1
  O  O2568  1  0.163900  0.568200  0.676900  1
  O  O2569  1  0.606900  0.637400  0.203400  1
  O  O2570  1  0.893100  0.362600  0.703400  1
  O  O2571  1  0.112600  0.856900  0.453400  1
  O  O2572  1  0.387400  0.143100  0.953400  1
  O  O2573  1  0.106900  0.137400  0.703400  1
  O  O2574  1  0.393100  0.862600  0.203400  1
  O  O2575  1  0.612600  0.356900  0.953400  1
  O  O2576  1  0.887400  0.643100  0.453400  1
  O  O2577  1  0.393100  0.362600  0.796600  1
  O  O2578  1  0.106900  0.637400  0.296600  1
  O  O2579  1  0.887400  0.143100  0.546600  1
  O  O2580  1  0.612600  0.856900  0.046600  1
  O  O2581  1  0.893100  0.862600  0.296600  1
  O  O2582  1  0.606900  0.137400  0.796600  1
  O  O2583  1  0.387400  0.643100  0.046600  1
  O  O2584  1  0.112600  0.356900  0.546600  1
  O  O2585  1  0.543900  0.586400  0.251900  1
  O  O2586  1  0.956100  0.413600  0.751900  1
  O  O2587  1  0.163600  0.793900  0.501900  1
  O  O2588  1  0.336400  0.206100  0.001900  1
  O  O2589  1  0.043900  0.086400  0.751900  1
  O  O2590  1  0.456100  0.913600  0.251900  1
  O  O2591  1  0.663600  0.293900  0.001900  1
  O  O2592  1  0.836400  0.706100  0.501900  1
  O  O2593  1  0.456100  0.413600  0.748100  1
  O  O2594  1  0.043900  0.586400  0.248100  1
  O  O2595  1  0.836400  0.206100  0.498100  1
  O  O2596  1  0.663600  0.793900  0.998100  1
  O  O2597  1  0.956100  0.913600  0.248100  1
  O  O2598  1  0.543900  0.086400  0.748100  1
  O  O2599  1  0.336400  0.706100  0.998100  1
  O  O2600  1  0.163600  0.293900  0.498100  1
  O  O2601  1  0.679500  0.693000  0.193200  1
  O  O2602  1  0.820500  0.307000  0.693200  1
  O  O2603  1  0.057000  0.929500  0.443200  1
  O  O2604  1  0.443000  0.070500  0.943200  1
  O  O2605  1  0.179500  0.193000  0.693200  1
  O  O2606  1  0.320500  0.807000  0.193200  1
  O  O2607  1  0.557000  0.429500  0.943200  1
  O  O2608  1  0.943000  0.570500  0.443200  1
  O  O2609  1  0.320500  0.307000  0.806800  1
  O  O2610  1  0.179500  0.693000  0.306800  1
  O  O2611  1  0.943000  0.070500  0.556800  1
  O  O2612  1  0.557000  0.929500  0.056800  1
  O  O2613  1  0.820500  0.807000  0.306800  1
  O  O2614  1  0.679500  0.193000  0.806800  1
  O  O2615  1  0.443000  0.570500  0.056800  1
  O  O2616  1  0.057000  0.429500  0.556800  1
  O  O2617  1  0.511900  0.482600  0.155400  1
  O  O2618  1  0.988100  0.517400  0.655400  1
  O  O2619  1  0.267400  0.761900  0.405400  1
  O  O2620  1  0.232600  0.238100  0.905400  1
  O  O2621  1  0.011900  0.982600  0.655400  1
  O  O2622  1  0.488100  0.017400  0.155400  1
  O  O2623  1  0.767400  0.261900  0.905400  1
  O  O2624  1  0.732600  0.738100  0.405400  1
  O  O2625  1  0.488100  0.517400  0.844600  1
  O  O2626  1  0.011900  0.482600  0.344600  1
  O  O2627  1  0.732600  0.238100  0.594600  1
  O  O2628  1  0.767400  0.761900  0.094600  1
  O  O2629  1  0.988100  0.017400  0.344600  1
  O  O2630  1  0.511900  0.982600  0.844600  1
  O  O2631  1  0.232600  0.738100  0.094600  1
  O  O2632  1  0.267400  0.261900  0.594600  1
  O  O2633  1  0.469000  0.524800  0.219100  1
  O  O2634  1  0.031000  0.475200  0.719100  1
  O  O2635  1  0.225200  0.719000  0.469100  1
  O  O2636  1  0.274800  0.281000  0.969100  1
  O  O2637  1  0.969000  0.024800  0.719100  1
  O  O2638  1  0.531000  0.975200  0.219100  1
  O  O2639  1  0.725200  0.219000  0.969100  1
  O  O2640  1  0.774800  0.781000  0.469100  1
  O  O2641  1  0.531000  0.475200  0.780900  1
  O  O2642  1  0.969000  0.524800  0.280900  1
  O  O2643  1  0.774800  0.281000  0.530900  1
  O  O2644  1  0.725200  0.719000  0.030900  1
  O  O2645  1  0.031000  0.975200  0.280900  1
  O  O2646  1  0.469000  0.024800  0.780900  1
  O  O2647  1  0.274800  0.781000  0.030900  1
  O  O2648  1  0.225200  0.219000  0.530900  1
  O  O2649  1  0.427500  0.469800  0.148900  1
  O  O2650  1  0.072500  0.530200  0.648900  1
  O  O2651  1  0.280200  0.677500  0.398900  1
  O  O2652  1  0.219800  0.322500  0.898900  1
  O  O2653  1  0.927500  0.969800  0.648900  1
  O  O2654  1  0.572500  0.030200  0.148900  1
  O  O2655  1  0.780200  0.177500  0.898900  1
  O  O2656  1  0.719800  0.822500  0.398900  1
  O  O2657  1  0.572500  0.530200  0.851100  1
  O  O2658  1  0.927500  0.469800  0.351100  1
  O  O2659  1  0.719800  0.322500  0.601100  1
  O  O2660  1  0.780200  0.677500  0.101100  1
  O  O2661  1  0.072500  0.030200  0.351100  1
  O  O2662  1  0.427500  0.969800  0.851100  1
  O  O2663  1  0.219800  0.822500  0.101100  1
  O  O2664  1  0.280200  0.177500  0.601100  1
  O  O2665  1  0.447700  0.429200  0.107800  1
  O  O2666  1  0.052300  0.570800  0.607800  1
  O  O2667  1  0.320800  0.697700  0.357800  1
  O  O2668  1  0.179200  0.302300  0.857800  1
  O  O2669  1  0.947700  0.929200  0.607800  1
  O  O2670  1  0.552300  0.070800  0.107800  1
  O  O2671  1  0.820800  0.197700  0.857800  1
  O  O2672  1  0.679200  0.802300  0.357800  1
  O  O2673  1  0.552300  0.570800  0.892200  1
  O  O2674  1  0.947700  0.429200  0.392200  1
  O  O2675  1  0.679200  0.302300  0.642200  1
  O  O2676  1  0.820800  0.697700  0.142200  1
  O  O2677  1  0.052300  0.070800  0.392200  1
  O  O2678  1  0.447700  0.929200  0.892200  1
  O  O2679  1  0.179200  0.802300  0.142200  1
  O  O2680  1  0.320800  0.197700  0.642200  1
  O  O2681  1  0.498000  0.583000  0.091500  1
  O  O2682  1  0.002000  0.417000  0.591500  1
  O  O2683  1  0.167000  0.748000  0.341500  1
  O  O2684  1  0.333000  0.252000  0.841500  1
  O  O2685  1  0.998000  0.083000  0.591500  1
  O  O2686  1  0.502000  0.917000  0.091500  1
  O  O2687  1  0.667000  0.248000  0.841500  1
  O  O2688  1  0.833000  0.752000  0.341500  1
  O  O2689  1  0.502000  0.417000  0.908500  1
  O  O2690  1  0.998000  0.583000  0.408500  1
  O  O2691  1  0.833000  0.252000  0.658500  1
  O  O2692  1  0.667000  0.748000  0.158500  1
  O  O2693  1  0.002000  0.917000  0.408500  1
  O  O2694  1  0.498000  0.083000  0.908500  1
  O  O2695  1  0.333000  0.752000  0.158500  1
  O  O2696  1  0.167000  0.248000  0.658500  1
  O  O2697  1  0.582000  0.630600  0.077000  1
  O  O2698  1  0.918000  0.369400  0.577000  1
  O  O2699  1  0.119400  0.832000  0.327000  1
  O  O2700  1  0.380600  0.168000  0.827000  1
  O  O2701  1  0.082000  0.130600  0.577000  1
  O  O2702  1  0.418000  0.869400  0.077000  1
  O  O2703  1  0.619400  0.332000  0.827000  1
  O  O2704  1  0.880600  0.668000  0.327000  1
  O  O2705  1  0.418000  0.369400  0.923000  1
  O  O2706  1  0.082000  0.630600  0.423000  1
  O  O2707  1  0.880600  0.168000  0.673000  1
  O  O2708  1  0.619400  0.832000  0.173000  1
  O  O2709  1  0.918000  0.869400  0.423000  1
  O  O2710  1  0.582000  0.130600  0.923000  1
  O  O2711  1  0.380600  0.668000  0.173000  1
  O  O2712  1  0.119400  0.332000  0.673000  1
  O  O2713  1  0.541900  0.566400  0.035900  1
  O  O2714  1  0.958100  0.433600  0.535900  1
  O  O2715  1  0.183600  0.791900  0.285900  1
  O  O2716  1  0.316400  0.208100  0.785900  1
  O  O2717  1  0.041900  0.066400  0.535900  1
  O  O2718  1  0.458100  0.933600  0.035900  1
  O  O2719  1  0.683600  0.291900  0.785900  1
  O  O2720  1  0.816400  0.708100  0.285900  1
  O  O2721  1  0.458100  0.433600  0.964100  1
  O  O2722  1  0.041900  0.566400  0.464100  1
  O  O2723  1  0.816400  0.208100  0.714100  1
  O  O2724  1  0.683600  0.791900  0.214100  1
  O  O2725  1  0.958100  0.933600  0.464100  1
  O  O2726  1  0.541900  0.066400  0.964100  1
  O  O2727  1  0.316400  0.708100  0.214100  1
  O  O2728  1  0.183600  0.291900  0.714100  1
  O  O2729  1  0.091200  0.263100  0.587600  1
  O  O2730  1  0.408800  0.736900  0.087600  1
  O  O2731  1  0.486900  0.341200  0.837600  1
  O  O2732  1  0.013100  0.658800  0.337600  1
  O  O2733  1  0.591200  0.763100  0.087600  1
  O  O2734  1  0.908800  0.236900  0.587600  1
  O  O2735  1  0.986900  0.841200  0.337600  1
  O  O2736  1  0.513100  0.158800  0.837600  1
  O  O2737  1  0.908800  0.736900  0.412400  1
  O  O2738  1  0.591200  0.263100  0.912400  1
  O  O2739  1  0.513100  0.658800  0.162400  1
  O  O2740  1  0.986900  0.341200  0.662400  1
  O  O2741  1  0.408800  0.236900  0.912400  1
  O  O2742  1  0.091200  0.763100  0.412400  1
  O  O2743  1  0.013100  0.158800  0.662400  1
  O  O2744  1  0.486900  0.841200  0.162400  1
  O  O2745  1  0.643900  0.605700  0.885300  1
  O  O2746  1  0.856100  0.394300  0.385300  1
  O  O2747  1  0.144300  0.893900  0.135300  1
  O  O2748  1  0.355700  0.106100  0.635300  1
  O  O2749  1  0.143900  0.105700  0.385300  1
  O  O2750  1  0.356100  0.894300  0.885300  1
  O  O2751  1  0.644300  0.393900  0.635300  1
  O  O2752  1  0.855700  0.606100  0.135300  1
  O  O2753  1  0.356100  0.394300  0.114700  1
  O  O2754  1  0.143900  0.605700  0.614700  1
  O  O2755  1  0.855700  0.106100  0.864700  1
  O  O2756  1  0.644300  0.893900  0.364700  1
  O  O2757  1  0.856100  0.894300  0.614700  1
  O  O2758  1  0.643900  0.105700  0.114700  1
  O  O2759  1  0.355700  0.606100  0.364700  1
  O  O2760  1  0.144300  0.393900  0.864700  1
  O  O2761  1  0.821400  0.571800  0.217300  1
  O  O2762  1  0.678600  0.428200  0.717300  1
  O  O2763  1  0.178200  0.071400  0.467300  1
  O  O2764  1  0.321800  0.928600  0.967300  1
  O  O2765  1  0.321400  0.071800  0.717300  1
  O  O2766  1  0.178600  0.928200  0.217300  1
  O  O2767  1  0.678200  0.571400  0.967300  1
  O  O2768  1  0.821800  0.428600  0.467300  1
  O  O2769  1  0.178600  0.428200  0.782700  1
  O  O2770  1  0.321400  0.571800  0.282700  1
  O  O2771  1  0.821800  0.928600  0.532700  1
  O  O2772  1  0.678200  0.071400  0.032700  1
  O  O2773  1  0.678600  0.928200  0.282700  1
  O  O2774  1  0.821400  0.071800  0.782700  1
  O  O2775  1  0.321800  0.428600  0.032700  1
  O  O2776  1  0.178200  0.571400  0.532700  1
  O  O2777  1  0.159000  0.197500  0.606300  1
  O  O2778  1  0.341000  0.802500  0.106300  1
  O  O2779  1  0.552500  0.409000  0.856300  1
  O  O2780  1  0.947500  0.591000  0.356300  1
  O  O2781  1  0.659000  0.697500  0.106300  1
  O  O2782  1  0.841000  0.302500  0.606300  1
  O  O2783  1  0.052500  0.909000  0.356300  1
  O  O2784  1  0.447500  0.091000  0.856300  1
  O  O2785  1  0.841000  0.802500  0.393700  1
  O  O2786  1  0.659000  0.197500  0.893700  1
  O  O2787  1  0.447500  0.591000  0.143700  1
  O  O2788  1  0.052500  0.409000  0.643700  1
  O  O2789  1  0.341000  0.302500  0.893700  1
  O  O2790  1  0.159000  0.697500  0.393700  1
  O  O2791  1  0.947500  0.091000  0.643700  1
  O  O2792  1  0.552500  0.909000  0.143700  1
  O  O2793  1  0.000000  0.250000  0.625000  1
  O  O2794  1  0.500000  0.750000  0.125000  1
  O  O2795  1  0.500000  0.250000  0.875000  1
  O  O2796  1  0.000000  0.750000  0.375000  1
  O  O2797  1  0.582300  0.530800  0.966200  1
  O  O2798  1  0.917700  0.469200  0.466200  1
  O  O2799  1  0.219200  0.832300  0.216200  1
  O  O2800  1  0.280800  0.167700  0.716200  1
  O  O2801  1  0.082300  0.030800  0.466200  1
  O  O2802  1  0.417700  0.969200  0.966200  1
  O  O2803  1  0.719200  0.332300  0.716200  1
  O  O2804  1  0.780800  0.667700  0.216200  1
  O  O2805  1  0.417700  0.469200  0.033800  1
  O  O2806  1  0.082300  0.530800  0.533800  1
  O  O2807  1  0.780800  0.167700  0.783800  1
  O  O2808  1  0.719200  0.832300  0.283800  1
  O  O2809  1  0.917700  0.969200  0.533800  1
  O  O2810  1  0.582300  0.030800  0.033800  1
  O  O2811  1  0.280800  0.667700  0.283800  1
  O  O2812  1  0.219200  0.332300  0.783800  1
  O  O2813  1  0.201000  0.388500  0.239500  1
  O  O2814  1  0.299000  0.611500  0.739500  1
  O  O2815  1  0.361500  0.451000  0.489500  1
  O  O2816  1  0.138500  0.549000  0.989500  1
  O  O2817  1  0.701000  0.888500  0.739500  1
  O  O2818  1  0.799000  0.111500  0.239500  1
  O  O2819  1  0.861500  0.951000  0.989500  1
  O  O2820  1  0.638500  0.049000  0.489500  1
  O  O2821  1  0.799000  0.611500  0.760500  1
  O  O2822  1  0.701000  0.388500  0.260500  1
  O  O2823  1  0.638500  0.549000  0.510500  1
  O  O2824  1  0.861500  0.451000  0.010500  1
  O  O2825  1  0.299000  0.111500  0.260500  1
  O  O2826  1  0.201000  0.888500  0.760500  1
  O  O2827  1  0.138500  0.049000  0.010500  1
  O  O2828  1  0.361500  0.951000  0.510500  1
  O  O2829  1  0.208000  0.317000  0.276800  1
  O  O2830  1  0.292000  0.683000  0.776800  1
  O  O2831  1  0.433000  0.458000  0.526800  1
  O  O2832  1  0.067000  0.542000  0.026800  1
  O  O2833  1  0.708000  0.817000  0.776800  1
  O  O2834  1  0.792000  0.183000  0.276800  1
  O  O2835  1  0.933000  0.958000  0.026800  1
  O  O2836  1  0.567000  0.042000  0.526800  1
  O  O2837  1  0.792000  0.683000  0.723200  1
  O  O2838  1  0.708000  0.317000  0.223200  1
  O  O2839  1  0.567000  0.542000  0.473200  1
  O  O2840  1  0.933000  0.458000  0.973200  1
  O  O2841  1  0.292000  0.183000  0.223200  1
  O  O2842  1  0.208000  0.817000  0.723200  1
  O  O2843  1  0.067000  0.042000  0.973200  1
  O  O2844  1  0.433000  0.958000  0.473200  1
  O  O2845  1  0.158900  0.378100  0.294800  1
  O  O2846  1  0.341100  0.621900  0.794800  1
  O  O2847  1  0.371900  0.408900  0.544800  1
  O  O2848  1  0.128100  0.591100  0.044800  1
  O  O2849  1  0.658900  0.878100  0.794800  1
  O  O2850  1  0.841100  0.121900  0.294800  1
  O  O2851  1  0.871900  0.908900  0.044800  1
  O  O2852  1  0.628100  0.091100  0.544800  1
  O  O2853  1  0.841100  0.621900  0.705200  1
  O  O2854  1  0.658900  0.378100  0.205200  1
  O  O2855  1  0.628100  0.591100  0.455200  1
  O  O2856  1  0.871900  0.408900  0.955200  1
  O  O2857  1  0.341100  0.121900  0.205200  1
  O  O2858  1  0.158900  0.878100  0.705200  1
  O  O2859  1  0.128100  0.091100  0.955200  1
  O  O2860  1  0.371900  0.908900  0.455200  1
  O  O2861  1  0.050900  0.257100  0.018000  1
  O  O2862  1  0.449100  0.742900  0.518000  1
  O  O2863  1  0.492900  0.300900  0.268000  1
  O  O2864  1  0.007100  0.699100  0.768000  1
  O  O2865  1  0.550900  0.757100  0.518000  1
  O  O2866  1  0.949100  0.242900  0.018000  1
  O  O2867  1  0.992900  0.800900  0.768000  1
  O  O2868  1  0.507100  0.199100  0.268000  1
  O  O2869  1  0.949100  0.742900  0.982000  1
  O  O2870  1  0.550900  0.257100  0.482000  1
  O  O2871  1  0.507100  0.699100  0.732000  1
  O  O2872  1  0.992900  0.300900  0.232000  1
  O  O2873  1  0.449100  0.242900  0.482000  1
  O  O2874  1  0.050900  0.757100  0.982000  1
  O  O2875  1  0.007100  0.199100  0.232000  1
  O  O2876  1  0.492900  0.800900  0.732000  1
  O  O2877  1  0.900900  0.262000  0.082000  1
  O  O2878  1  0.599100  0.738000  0.582000  1
  O  O2879  1  0.488000  0.150900  0.332000  1
  O  O2880  1  0.012000  0.849100  0.832000  1
  O  O2881  1  0.400900  0.762000  0.582000  1
  O  O2882  1  0.099100  0.238000  0.082000  1
  O  O2883  1  0.988000  0.650900  0.832000  1
  O  O2884  1  0.512000  0.349100  0.332000  1
  O  O2885  1  0.099100  0.738000  0.918000  1
  O  O2886  1  0.400900  0.262000  0.418000  1
  O  O2887  1  0.512000  0.849100  0.668000  1
  O  O2888  1  0.988000  0.150900  0.168000  1
  O  O2889  1  0.599100  0.238000  0.418000  1
  O  O2890  1  0.900900  0.762000  0.918000  1
  O  O2891  1  0.012000  0.349100  0.168000  1
  O  O2892  1  0.488000  0.650900  0.668000  1
  O  O2893  1  0.577800  0.586500  0.272400  1
  O  O2894  1  0.922200  0.413500  0.772400  1
  O  O2895  1  0.163500  0.827800  0.522400  1
  O  O2896  1  0.336500  0.172200  0.022400  1
  O  O2897  1  0.077800  0.086500  0.772400  1
  O  O2898  1  0.422200  0.913500  0.272400  1
  O  O2899  1  0.663500  0.327800  0.022400  1
  O  O2900  1  0.836500  0.672200  0.522400  1
  O  O2901  1  0.422200  0.413500  0.727600  1
  O  O2902  1  0.077800  0.586500  0.227600  1
  O  O2903  1  0.836500  0.172200  0.477600  1
  O  O2904  1  0.663500  0.827800  0.977600  1
  O  O2905  1  0.922200  0.913500  0.227600  1
  O  O2906  1  0.577800  0.086500  0.727600  1
  O  O2907  1  0.336500  0.672200  0.977600  1
  O  O2908  1  0.163500  0.327800  0.477600  1
  O  O2909  1  0.503800  0.563400  0.266200  1
  O  O2910  1  0.996200  0.436600  0.766200  1
  O  O2911  1  0.186600  0.753800  0.516200  1
  O  O2912  1  0.313400  0.246200  0.016200  1
  O  O2913  1  0.003800  0.063400  0.766200  1
  O  O2914  1  0.496200  0.936600  0.266200  1
  O  O2915  1  0.686600  0.253800  0.016200  1
  O  O2916  1  0.813400  0.746200  0.516200  1
  O  O2917  1  0.496200  0.436600  0.733800  1
  O  O2918  1  0.003800  0.563400  0.233800  1
  O  O2919  1  0.813400  0.246200  0.483800  1
  O  O2920  1  0.686600  0.753800  0.983800  1
  O  O2921  1  0.996200  0.936600  0.233800  1
  O  O2922  1  0.503800  0.063400  0.733800  1
  O  O2923  1  0.313400  0.746200  0.983800  1
  O  O2924  1  0.186600  0.253800  0.483800  1
  O  O2925  1  0.590900  0.599300  0.251900  1
  O  O2926  1  0.909100  0.400700  0.751900  1
  O  O2927  1  0.150700  0.840900  0.501900  1
  O  O2928  1  0.349300  0.159100  0.001900  1
  O  O2929  1  0.090900  0.099300  0.751900  1
  O  O2930  1  0.409100  0.900700  0.251900  1
  O  O2931  1  0.650700  0.340900  0.001900  1
  O  O2932  1  0.849300  0.659100  0.501900  1
  O  O2933  1  0.409100  0.400700  0.748100  1
  O  O2934  1  0.090900  0.599300  0.248100  1
  O  O2935  1  0.849300  0.159100  0.498100  1
  O  O2936  1  0.650700  0.840900  0.998100  1
  O  O2937  1  0.909100  0.900700  0.248100  1
  O  O2938  1  0.590900  0.099300  0.748100  1
  O  O2939  1  0.349300  0.659100  0.998100  1
  O  O2940  1  0.150700  0.340900  0.498100  1
  O  O2941  1  0.535400  0.628400  0.335000  1
  O  O2942  1  0.964600  0.371600  0.835000  1
  O  O2943  1  0.121600  0.785400  0.585000  1
  O  O2944  1  0.378400  0.214600  0.085000  1
  O  O2945  1  0.035400  0.128400  0.835000  1
  O  O2946  1  0.464600  0.871600  0.335000  1
  O  O2947  1  0.621600  0.285400  0.085000  1
  O  O2948  1  0.878400  0.714600  0.585000  1
  O  O2949  1  0.464600  0.371600  0.665000  1
  O  O2950  1  0.035400  0.628400  0.165000  1
  O  O2951  1  0.878400  0.214600  0.415000  1
  O  O2952  1  0.621600  0.785400  0.915000  1
  O  O2953  1  0.964600  0.871600  0.165000  1
  O  O2954  1  0.535400  0.128400  0.665000  1
  O  O2955  1  0.378400  0.714600  0.915000  1
  O  O2956  1  0.121600  0.285400  0.415000  1
  O  O2957  1  0.498000  0.516000  0.144000  1
  O  O2958  1  0.002000  0.484000  0.644000  1
  O  O2959  1  0.234000  0.748000  0.394000  1
  O  O2960  1  0.266000  0.252000  0.894000  1
  O  O2961  1  0.998000  0.016000  0.644000  1
  O  O2962  1  0.502000  0.984000  0.144000  1
  O  O2963  1  0.734000  0.248000  0.894000  1
  O  O2964  1  0.766000  0.752000  0.394000  1
  O  O2965  1  0.502000  0.484000  0.856000  1
  O  O2966  1  0.998000  0.516000  0.356000  1
  O  O2967  1  0.766000  0.252000  0.606000  1
  O  O2968  1  0.734000  0.748000  0.106000  1
  O  O2969  1  0.002000  0.984000  0.356000  1
  O  O2970  1  0.498000  0.016000  0.856000  1
  O  O2971  1  0.266000  0.752000  0.106000  1
  O  O2972  1  0.234000  0.248000  0.606000  1
  O  O2973  1  0.480100  0.437200  0.103800  1
  O  O2974  1  0.019900  0.562800  0.603800  1
  O  O2975  1  0.312800  0.730100  0.353800  1
  O  O2976  1  0.187200  0.269900  0.853800  1
  O  O2977  1  0.980100  0.937200  0.603800  1
  O  O2978  1  0.519900  0.062800  0.103800  1
  O  O2979  1  0.812800  0.230100  0.853800  1
  O  O2980  1  0.687200  0.769900  0.353800  1
  O  O2981  1  0.519900  0.562800  0.896200  1
  O  O2982  1  0.980100  0.437200  0.396200  1
  O  O2983  1  0.687200  0.269900  0.646200  1
  O  O2984  1  0.812800  0.730100  0.146200  1
  O  O2985  1  0.019900  0.062800  0.396200  1
  O  O2986  1  0.480100  0.937200  0.896200  1
  O  O2987  1  0.187200  0.769900  0.146200  1
  O  O2988  1  0.312800  0.230100  0.646200  1
  O  O2989  1  0.578000  0.599000  0.048000  1
  O  O2990  1  0.922000  0.401000  0.548000  1
  O  O2991  1  0.151000  0.828000  0.298000  1
  O  O2992  1  0.349000  0.172000  0.798000  1
  O  O2993  1  0.078000  0.099000  0.548000  1
  O  O2994  1  0.422000  0.901000  0.048000  1
  O  O2995  1  0.651000  0.328000  0.798000  1
  O  O2996  1  0.849000  0.672000  0.298000  1
  O  O2997  1  0.422000  0.401000  0.952000  1
  O  O2998  1  0.078000  0.599000  0.452000  1
  O  O2999  1  0.849000  0.172000  0.702000  1
  O  O3000  1  0.651000  0.828000  0.202000  1
  O  O3001  1  0.922000  0.901000  0.452000  1
  O  O3002  1  0.578000  0.099000  0.952000  1
  O  O3003  1  0.349000  0.672000  0.202000  1
  O  O3004  1  0.151000  0.328000  0.702000  1
  O  O3005  1  0.613900  0.636300  0.074900  1
  O  O3006  1  0.886100  0.363700  0.574900  1
  O  O3007  1  0.113700  0.863900  0.324900  1
  O  O3008  1  0.386300  0.136100  0.824900  1
  O  O3009  1  0.113900  0.136300  0.574900  1
  O  O3010  1  0.386100  0.863700  0.074900  1
  O  O3011  1  0.613700  0.363900  0.824900  1
  O  O3012  1  0.886300  0.636100  0.324900  1
  O  O3013  1  0.386100  0.363700  0.925100  1
  O  O3014  1  0.113900  0.636300  0.425100  1
  O  O3015  1  0.886300  0.136100  0.675100  1
  O  O3016  1  0.613700  0.863900  0.175100  1
  O  O3017  1  0.886100  0.863700  0.425100  1
  O  O3018  1  0.613900  0.136300  0.925100  1
  O  O3019  1  0.386300  0.636100  0.175100  1
  O  O3020  1  0.113700  0.363900  0.675100  1
  O  O3021  1  0.669600  0.678600  0.907400  1
  O  O3022  1  0.830400  0.321400  0.407400  1
  O  O3023  1  0.071400  0.919600  0.157400  1
  O  O3024  1  0.428600  0.080400  0.657400  1
  O  O3025  1  0.169600  0.178600  0.407400  1
  O  O3026  1  0.330400  0.821400  0.907400  1
  O  O3027  1  0.571400  0.419600  0.657400  1
  O  O3028  1  0.928600  0.580400  0.157400  1
  O  O3029  1  0.330400  0.321400  0.092600  1
  O  O3030  1  0.169600  0.678600  0.592600  1
  O  O3031  1  0.928600  0.080400  0.842600  1
  O  O3032  1  0.571400  0.919600  0.342600  1
  O  O3033  1  0.830400  0.821400  0.592600  1
  O  O3034  1  0.669600  0.178600  0.092600  1
  O  O3035  1  0.428600  0.580400  0.342600  1
  O  O3036  1  0.071400  0.419600  0.842600  1
  O  O3037  1  0.213500  0.325600  0.279300  1
  O  O3038  1  0.286500  0.674400  0.779300  1
  O  O3039  1  0.424400  0.463500  0.529300  1
  O  O3040  1  0.075600  0.536500  0.029300  1
  O  O3041  1  0.713500  0.825600  0.779300  1
  O  O3042  1  0.786500  0.174400  0.279300  1
  O  O3043  1  0.924400  0.963500  0.029300  1
  O  O3044  1  0.575600  0.036500  0.529300  1
  O  O3045  1  0.786500  0.674400  0.720700  1
  O  O3046  1  0.713500  0.325600  0.220700  1
  O  O3047  1  0.575600  0.536500  0.470700  1
  O  O3048  1  0.924400  0.463500  0.970700  1
  O  O3049  1  0.286500  0.174400  0.220700  1
  O  O3050  1  0.213500  0.825600  0.720700  1
  O  O3051  1  0.075600  0.036500  0.970700  1
  O  O3052  1  0.424400  0.963500  0.470700  1
  O  O3053  1  0.168200  0.397500  0.284500  1
  O  O3054  1  0.331800  0.602500  0.784500  1
  O  O3055  1  0.352500  0.418200  0.534500  1
  O  O3056  1  0.147500  0.581800  0.034500  1
  O  O3057  1  0.668200  0.897500  0.784500  1
  O  O3058  1  0.831800  0.102500  0.284500  1
  O  O3059  1  0.852500  0.918200  0.034500  1
  O  O3060  1  0.647500  0.081800  0.534500  1
  O  O3061  1  0.831800  0.602500  0.715500  1
  O  O3062  1  0.668200  0.397500  0.215500  1
  O  O3063  1  0.647500  0.581800  0.465500  1
  O  O3064  1  0.852500  0.418200  0.965500  1
  O  O3065  1  0.331800  0.102500  0.215500  1
  O  O3066  1  0.168200  0.897500  0.715500  1
  O  O3067  1  0.147500  0.081800  0.965500  1
  O  O3068  1  0.352500  0.918200  0.465500  1
  O  O3069  1  0.776500  0.468700  0.300900  1
  O  O3070  1  0.723500  0.531300  0.800900  1
  O  O3071  1  0.281300  0.026500  0.550900  1
  O  O3072  1  0.218700  0.973500  0.050900  1
  O  O3073  1  0.276500  0.968700  0.800900  1
  O  O3074  1  0.223500  0.031300  0.300900  1
  O  O3075  1  0.781300  0.526500  0.050900  1
  O  O3076  1  0.718700  0.473500  0.550900  1
  O  O3077  1  0.223500  0.531300  0.699100  1
  O  O3078  1  0.276500  0.468700  0.199100  1
  O  O3079  1  0.718700  0.973500  0.449100  1
  O  O3080  1  0.781300  0.026500  0.949100  1
  O  O3081  1  0.723500  0.031300  0.199100  1
  O  O3082  1  0.776500  0.968700  0.699100  1
  O  O3083  1  0.218700  0.473500  0.949100  1
  O  O3084  1  0.281300  0.526500  0.449100  1
  O  O3085  1  0.146300  0.315800  0.316100  1
  O  O3086  1  0.353700  0.684200  0.816100  1
  O  O3087  1  0.434200  0.396300  0.566100  1
  O  O3088  1  0.065800  0.603700  0.066100  1
  O  O3089  1  0.646300  0.815800  0.816100  1
  O  O3090  1  0.853700  0.184200  0.316100  1
  O  O3091  1  0.934200  0.896300  0.066100  1
  O  O3092  1  0.565800  0.103700  0.566100  1
  O  O3093  1  0.853700  0.684200  0.683900  1
  O  O3094  1  0.646300  0.315800  0.183900  1
  O  O3095  1  0.565800  0.603700  0.433900  1
  O  O3096  1  0.934200  0.396300  0.933900  1
  O  O3097  1  0.353700  0.184200  0.183900  1
  O  O3098  1  0.146300  0.815800  0.683900  1
  O  O3099  1  0.065800  0.103700  0.933900  1
  O  O3100  1  0.434200  0.896300  0.433900  1
  O  O3101  1  0.551800  0.538800  0.213400  1
  O  O3102  1  0.948200  0.461200  0.713400  1
  O  O3103  1  0.211200  0.801800  0.463400  1
  O  O3104  1  0.288800  0.198200  0.963400  1
  O  O3105  1  0.051800  0.038800  0.713400  1
  O  O3106  1  0.448200  0.961200  0.213400  1
  O  O3107  1  0.711200  0.301800  0.963400  1
  O  O3108  1  0.788800  0.698200  0.463400  1
  O  O3109  1  0.448200  0.461200  0.786600  1
  O  O3110  1  0.051800  0.538800  0.286600  1
  O  O3111  1  0.788800  0.198200  0.536600  1
  O  O3112  1  0.711200  0.801800  0.036600  1
  O  O3113  1  0.948200  0.961200  0.286600  1
  O  O3114  1  0.551800  0.038800  0.786600  1
  O  O3115  1  0.288800  0.698200  0.036600  1
  O  O3116  1  0.211200  0.301800  0.536600  1
