
#######################################################################
#
#                 Cambridge Crystallographic Data Centre
#                                CCDC 
#
#######################################################################
#
# If this CIF has been generated from an entry in the Cambridge 
# Structural Database, then it will include bibliographic, chemical, 
# crystal, experimental, refinement or atomic coordinate data resulting 
# from the CCDC's data processing and validation procedures.
#
#######################################################################

data_LUXWEH
_chemical_formula_moiety         
'C108 H144 N36 Pd6 12+,C24 H29 N1 O2,12(N1 O3 1-),48.65(H2 O1)'
_chemical_name_systematic        
'tetrakis(\m~3~-2,4,6-tris(4-Pyridyl)-1,3,5-triazine-N)-hexakis(1,2-bis(diamino)ethane)-hexa-palladium 2-cyclohexyl-6,7-diethyl-3a,4,9,9a-tetrahydro-1H-4,9-ethanobenzo[f]isoindole-1,3(2H)-dione dodecanitrate hydrate'
_symmetry_cell_setting           tetragonal
_symmetry_space_group_name_H-M   'I 41/a'
_symmetry_Int_Tables_number      88
_space_group_name_Hall           '-I 4ad'
loop_
_symmetry_equiv_pos_site_id
_symmetry_equiv_pos_as_xyz
1 x,y,z
2 1/2-x,-y,1/2+z
3 3/4-y,1/4+x,1/4+z
4 3/4+y,3/4-x,3/4+z
5 1/2+x,1/2+y,1/2+z
6 -x,1/2-y,z
7 1/4-y,3/4+x,3/4+z
8 1/4+y,1/4-x,1/4+z
9 -x,-y,-z
10 1/2+x,y,1/2-z
11 1/4+y,3/4-x,3/4-z
12 1/4-y,1/4+x,1/4-z
13 1/2-x,1/2-y,1/2-z
14 x,1/2+y,-z
15 3/4+y,1/4-x,1/4-z
16 3/4-y,3/4+x,3/4-z
_cell_length_a                   26.222(3)
_cell_length_b                   26.222(3)
_cell_length_c                   31.650(6)
_cell_angle_alpha                90
_cell_angle_beta                 90
_cell_angle_gamma                90
_cell_volume                     21762.3
_exptl_crystal_colour            yellow
_exptl_crystal_description       block
_cell_formula_units_Z            4
loop_
_atom_site_label
_atom_site_type_symbol
_atom_site_fract_x
_atom_site_fract_y
_atom_site_fract_z
N11 N 0.3857(5) 0.5627(4) 0.4803(4)
O3 O 0.3711(5) 0.5911(4) 0.4549(3)
O4 O 0.3591(4) 0.5466(4) 0.5109(3)
O5 O 0.4253(4) 0.5342(5) 0.4741(3)
O6 O 0.2093(7) 0.3500(7) 0.3054(6)
O7 O 0.6703(6) 0.2480(6) 0.1703(4)
O9 O 0.4354(6) 0.6040(6) 0.4345(5)
N13 N 0.4726(9) 0.0379(9) 0.1346(7)
O11 O 0.5093(6) 0.0134(6) 0.1537(5)
O13 O 0.4256(11) 0.0303(10) 0.1542(9)
O29 O 0.4460(7) 0.0703(6) 0.1065(5)
N15 N 0.1808(8) 0.4786(8) 0.2980(6)
O17 O 0.1451(6) 0.5083(7) 0.2873(5)
O18 O 0.1640(6) 0.4382(6) 0.3198(5)
O19 O 0.2247(5) 0.4964(5) 0.2925(4)
O20 O 0.1076(14) 0.5714(13) 0.2321(11)
O21 O 0.4609(7) -0.0239(8) 0.2208(6)
O23 O 0.1389(7) 0.3953(7) 0.3954(6)
O33 O 0.3308(12) 0.1880(13) 0.0968(10)
O35 O 0.5573(10) 0.0685(10) -0.0543(7)
N17 N 0.6496(12) 0.2251(12) 0.0636(9)
O36 O 0.6330(13) 0.2423(14) 0.0973(10)
O37 O 0.6720(11) 0.2545(11) 0.0400(10)
O38 O 0.6459(15) 0.1840(13) 0.0448(13)
O39 O 0.1148(7) 0.6447(10) 0.3226(5)
O40 O 0.1547(15) 0.7425(15) 0.3383(13)
O42 O 0.5000 0.2500 -0.1250
O43 O 0.0798(5) 0.4718(5) 0.4664(4)
O44 O 0.1778(6) 0.4279(6) 0.4682(5)
O45 O 0.1830(6) 0.7069(6) 0.2882(5)
O46 O 0.5918(5) 0.2394(5) -0.0873(4)
O47 O 0.6568(7) 0.3028(7) -0.1078(6)
Pd1 Pd 0.5000 0.2500 0.082730(14)
Pd2 Pd 0.289481(13) 0.535011(12) 0.376242(9)
C1 C 0.46665(17) 0.3222(2) 0.14830(14)
H1 H 0.4340 0.3148 0.1368
C2 C 0.46991(18) 0.3536(2) 0.18333(14)
H2 H 0.4399 0.3678 0.1954
C3 C 0.51709(17) 0.3642(2) 0.20057(14)
C4 C 0.55963(18) 0.3428(2) 0.18202(16)
H3 H 0.5926 0.3494 0.1932
C5 C 0.55411(18) 0.3118(2) 0.14702(16)
H4 H 0.5836 0.2971 0.1345
C6 C 0.39959(19) 0.5186(2) 0.36214(17)
H5 H 0.4026 0.5395 0.3865
C7 C 0.44261(19) 0.4974(2) 0.34481(18)
H6 H 0.4750 0.5036 0.3573
C8 C 0.43895(17) 0.46703(19) 0.30892(15)
C9 C 0.39099(18) 0.4586(2) 0.29158(14)
H7 H 0.3871 0.4380 0.2671
C10 C 0.34867(17) 0.48094(19) 0.31086(14)
H8 H 0.3158 0.4752 0.2991
C11 C 0.2720(2) 0.42460(19) 0.38842(16)
H9 H 0.2525 0.4278 0.3633
C12 C 0.2793(2) 0.37660(19) 0.40593(17)
H10 H 0.2646 0.3474 0.3930
C13 C 0.30780(18) 0.3714(2) 0.44201(15)
C14 C 0.3275(2) 0.41450(19) 0.46048(16)
H11 H 0.3469 0.4121 0.4857
C15 C 0.3190(2) 0.46110(18) 0.44208(15)
H12 H 0.3327 0.4908 0.4551
C16 C 0.52165(18) 0.3971(2) 0.23846(15)
C17 C 0.48544(18) 0.4445(2) 0.28939(15)
C18 C 0.31690(18) 0.3203(2) 0.46113(15)
C19 C 0.1804(4) 0.5356(4) 0.3902(3)
H13 H 0.1499 0.5477 0.4051
H14 H 0.1834 0.4986 0.3936
H15 H 0.1776 0.5440 0.3601
C20 C 0.2285(4) 0.5555(4) 0.4532(3)
H16 H 0.1969 0.5680 0.4659
H17 H 0.2574 0.5755 0.4637
H18 H 0.2334 0.5195 0.4607
C21 C 0.2244(4) 0.6187(3) 0.3971(3)
H19 H 0.1899 0.6327 0.4025
H20 H 0.2489 0.6372 0.4153
C22 C 0.2381(3) 0.6259(4) 0.3517(3)
H21 H 0.2136 0.6079 0.3333
H22 H 0.2379 0.6626 0.3443
C23 C 0.3310(5) 0.6354(5) 0.3557(4)
H23 H 0.3277 0.6682 0.3410
H24 H 0.3620 0.6181 0.3461
H25 H 0.3330 0.6414 0.3862
C24 C 0.2999(4) 0.6013(4) 0.2986(3)
H26 H 0.2990 0.6354 0.2861
H27 H 0.2742 0.5797 0.2850
H28 H 0.3338 0.5863 0.2944
C25 C 0.5090(3) 0.2222(3) -0.00485(17)
H29 H 0.4950 0.2041 -0.0297
H30 H 0.5467 0.2209 -0.0064
C26 C 0.5217(2) 0.1502(2) 0.04149(18)
H31 H 0.5163 0.1269 0.0177
H32 H 0.5111 0.1336 0.0678
H33 H 0.5579 0.1592 0.0433
C27 C 0.4362(3) 0.1826(3) 0.0319(2)
H34 H 0.4318 0.1579 0.0090
H35 H 0.4156 0.2130 0.0261
H36 H 0.4253 0.1673 0.0586
N1 N 0.50805(14) 0.30177(16) 0.13016(11)
N2 N 0.35286(14) 0.51014(15) 0.34534(12)
N3 N 0.29180(14) 0.46631(14) 0.40627(11)
N4 N 0.47857(15) 0.41655(16) 0.25457(13)
N5 N 0.52989(15) 0.45405(17) 0.30797(13)
N6 N 0.56845(15) 0.40428(17) 0.25450(13)
N7 N 0.49101(18) 0.19740(19) 0.03488(13)
N8 N 0.22547(16) 0.56032(17) 0.40782(13)
N9 N 0.28848(18) 0.60509(17) 0.34679(14)
Pd1J Pd 0.5000 0.2500 0.667270(14)
Pd2O Pd 0.214989(12) 0.039481(13) 0.373758(9)
Pd2E Pd 0.710519(13) -0.035011(12) 0.376242(9)
Pd2J Pd 0.785011(12) 0.460519(13) 0.373758(9)
C1J C 0.5722(2) 0.28335(17) 0.60170(14)
C1O C 0.4278(2) 0.21665(17) 0.60170(14)
C1E C 0.53335(17) 0.1778(2) 0.14830(14)
H1J H 0.5648 0.3160 0.6132
H1O H 0.4352 0.1840 0.6132
H1E H 0.5660 0.1852 0.1368
C2J C 0.6036(2) 0.28009(18) 0.56667(14)
C2O C 0.3964(2) 0.21991(18) 0.56667(14)
C2E C 0.53009(18) 0.1464(2) 0.18333(14)
H2O H 0.3822 0.1899 0.5546
H2J H 0.6178 0.3101 0.5546
H2E H 0.5601 0.1322 0.1954
C3J C 0.6142(2) 0.23291(17) 0.54943(14)
C3O C 0.3858(2) 0.26709(17) 0.54943(14)
C3E C 0.48291(17) 0.1358(2) 0.20057(14)
C4O C 0.4072(2) 0.30963(18) 0.56798(16)
C4J C 0.5928(2) 0.19037(18) 0.56798(16)
C4E C 0.44037(18) 0.1572(2) 0.18202(16)
H3O H 0.4006 0.3426 0.5568
H3J H 0.5994 0.1574 0.5568
H3E H 0.4074 0.1506 0.1932
C5O C 0.4382(2) 0.30411(18) 0.60298(16)
C5J C 0.5618(2) 0.19589(18) 0.60298(16)
C5E C 0.44589(18) 0.1882(2) 0.14702(16)
H4O H 0.4529 0.3336 0.6155
H4J H 0.5471 0.1664 0.6155
H4E H 0.4164 0.2029 0.1345
C6O C 0.2314(2) 0.14959(19) 0.38786(17)
C6E C 0.60041(19) -0.0186(2) 0.36214(17)
C6J C 0.7686(2) 0.35041(19) 0.38786(17)
H5O H 0.2105 0.1526 0.3635
H5E H 0.5974 -0.0395 0.3865
H5J H 0.7895 0.3474 0.3635
C7O C 0.2526(2) 0.19261(19) 0.40519(18)
C7E C 0.55739(19) 0.0026(2) 0.34481(18)
C7J C 0.7474(2) 0.30739(19) 0.40519(18)
H6J H 0.7536 0.2750 0.3927
H6E H 0.5250 -0.0036 0.3573
H6O H 0.2464 0.2250 0.3927
C8O C 0.28297(19) 0.18895(17) 0.44108(15)
C8E C 0.56105(17) 0.03297(19) 0.30892(15)
C8J C 0.71703(19) 0.31105(17) 0.44108(15)
C9J C 0.7086(2) 0.35901(18) 0.45842(14)
C9E C 0.60901(18) 0.0414(2) 0.29158(14)
C9O C 0.2914(2) 0.14099(18) 0.45842(14)
H7J H 0.6880 0.3629 0.4829
H7E H 0.6129 0.0620 0.2671
H7O H 0.3120 0.1371 0.4829
C10J C 0.73094(19) 0.40133(17) 0.43914(14)
C10E C 0.65133(17) 0.01906(19) 0.31086(14)
C10O C 0.26906(19) 0.09867(17) 0.43914(14)
H8J H 0.7252 0.4342 0.4509
H8E H 0.6842 0.0248 0.2991
H8O H 0.2748 0.0658 0.4509
C11O C 0.32540(19) 0.0220(2) 0.36158(16)
C11E C 0.7280(2) 0.07540(19) 0.38842(16)
C11J C 0.67460(19) 0.4780(2) 0.36158(16)
H9O H 0.3222 0.0025 0.3867
H9E H 0.7475 0.0722 0.3633
H9J H 0.6778 0.4975 0.3867
C12O C 0.37340(19) 0.0293(2) 0.34407(17)
C12E C 0.7207(2) 0.12340(19) 0.40593(17)
C12J C 0.62660(19) 0.4707(2) 0.34407(17)
H10O H 0.4026 0.0146 0.3570
H10E H 0.7354 0.1526 0.3930
H10J H 0.5974 0.4854 0.3570
C13O C 0.3786(2) 0.05780(18) 0.30799(15)
C13E C 0.69220(18) 0.1286(2) 0.44201(15)
C13J C 0.6214(2) 0.44220(18) 0.30799(15)
C14O C 0.33550(19) 0.0775(2) 0.28952(16)
C14E C 0.6725(2) 0.08550(19) 0.46048(16)
C14J C 0.66450(19) 0.4225(2) 0.28952(16)
H11O H 0.3379 0.0969 0.2643
H11E H 0.6531 0.0879 0.4857
H11J H 0.6621 0.4031 0.2643
C15O C 0.28890(18) 0.0690(2) 0.30792(15)
C15E C 0.6810(2) 0.03890(18) 0.44208(15)
C15J C 0.71110(18) 0.4310(2) 0.30792(15)
H12O H 0.2592 0.0827 0.2949
H12E H 0.6673 0.0092 0.4551
H12J H 0.7408 0.4173 0.2949
C16J C 0.6471(2) 0.22835(18) 0.51154(15)
C16O C 0.3529(2) 0.27165(18) 0.51154(15)
C16E C 0.47835(18) 0.1029(2) 0.23846(15)
C17O C 0.3055(2) 0.23544(18) 0.46061(15)
C17E C 0.51456(18) 0.0555(2) 0.28939(15)
C17J C 0.6945(2) 0.26456(18) 0.46061(15)
C18O C 0.4297(2) 0.06690(18) 0.28887(15)
C18E C 0.68310(18) 0.1797(2) 0.46113(15)
C18J C 0.5703(2) 0.43310(18) 0.28887(15)
C19J C 0.7856(4) 0.5696(4) 0.3598(3)
C19E C 0.8196(4) -0.0356(4) 0.3902(3)
C19O C 0.2144(4) -0.0696(4) 0.3598(3)
H13J H 0.7977 0.6001 0.3449
H13E H 0.8501 -0.0477 0.4051
H13O H 0.2023 -0.1001 0.3449
H14J H 0.7486 0.5666 0.3564
H14E H 0.8166 0.0014 0.3936
H14O H 0.2514 -0.0666 0.3564
H15J H 0.7940 0.5724 0.3899
H15E H 0.8224 -0.0440 0.3601
H15O H 0.2060 -0.0724 0.3899
C20J C 0.8055(4) 0.5215(4) 0.2968(3)
C20E C 0.7715(4) -0.0555(4) 0.4532(3)
C20O C 0.1945(4) -0.0215(4) 0.2968(3)
H16J H 0.8180 0.5531 0.2841
H16E H 0.8031 -0.0680 0.4659
H16O H 0.1820 -0.0531 0.2841
H17J H 0.8255 0.4926 0.2863
H17E H 0.7426 -0.0755 0.4637
H17O H 0.1745 0.0074 0.2863
H18J H 0.7695 0.5166 0.2893
H18E H 0.7666 -0.0195 0.4607
H18O H 0.2305 -0.0166 0.2893
C21J C 0.8687(3) 0.5256(4) 0.3529(3)
C21E C 0.7756(4) -0.1187(3) 0.3971(3)
C21O C 0.1313(3) -0.0256(4) 0.3529(3)
H19J H 0.8827 0.5601 0.3475
H19E H 0.8101 -0.1327 0.4025
H19O H 0.1173 -0.0601 0.3475
H20J H 0.8872 0.5011 0.3347
H20E H 0.7511 -0.1372 0.4153
H20O H 0.1128 -0.0011 0.3347
C22J C 0.8759(4) 0.5119(3) 0.3983(3)
C22E C 0.7619(3) -0.1259(4) 0.3517(3)
C22O C 0.1241(4) -0.0119(3) 0.3983(3)
H21J H 0.8579 0.5364 0.4167
H21E H 0.7864 -0.1079 0.3333
H21O H 0.1421 -0.0364 0.4167
H22J H 0.9126 0.5121 0.4057
H22E H 0.7621 -0.1626 0.3443
H22O H 0.0874 -0.0121 0.4057
C23J C 0.8854(5) 0.4190(5) 0.3943(4)
C23E C 0.6690(5) -0.1354(5) 0.3557(4)
C23O C 0.1146(5) 0.0810(5) 0.3943(4)
H23J H 0.9182 0.4223 0.4090
H23E H 0.6723 -0.1682 0.3410
H23O H 0.0818 0.0777 0.4090
H24J H 0.8681 0.3880 0.4039
H24E H 0.6380 -0.1181 0.3461
H24O H 0.1319 0.1120 0.4039
H25J H 0.8914 0.4170 0.3638
H25E H 0.6670 -0.1414 0.3862
H25O H 0.1086 0.0830 0.3638
C24J C 0.8513(4) 0.4501(4) 0.4514(3)
C24E C 0.7001(4) -0.1013(4) 0.2986(3)
C24O C 0.1487(4) 0.0499(4) 0.4514(3)
H26J H 0.8854 0.4510 0.4639
H26E H 0.7010 -0.1354 0.2861
H26O H 0.1146 0.0490 0.4639
H27J H 0.8297 0.4758 0.4650
H27E H 0.7258 -0.0797 0.2850
H27O H 0.1703 0.0242 0.4650
H28J H 0.8363 0.4162 0.4556
H28E H 0.6662 -0.0863 0.2944
H28O H 0.1637 0.0838 0.4556
C25J C 0.4722(3) 0.2410(3) 0.75485(17)
C25O C 0.5278(3) 0.2590(3) 0.75485(17)
C25E C 0.4910(3) 0.2778(3) -0.00485(17)
H29O H 0.5459 0.2450 0.7797
H29J H 0.4541 0.2550 0.7797
H29E H 0.5050 0.2959 -0.0297
H30O H 0.5291 0.2967 0.7564
H30J H 0.4709 0.2033 0.7564
H30E H 0.4533 0.2791 -0.0064
C26O C 0.5998(2) 0.2717(2) 0.70851(18)
C26J C 0.4002(2) 0.2283(2) 0.70851(18)
C26E C 0.4783(2) 0.3498(2) 0.04149(18)
H31O H 0.6231 0.2663 0.7323
H31J H 0.3769 0.2337 0.7323
H31E H 0.4837 0.3731 0.0177
H32O H 0.6164 0.2611 0.6822
H32J H 0.3836 0.2389 0.6822
H32E H 0.4889 0.3664 0.0678
H33O H 0.5908 0.3079 0.7067
H33J H 0.4092 0.1921 0.7067
H33E H 0.4421 0.3408 0.0433
C27O C 0.5674(3) 0.1862(3) 0.7181(2)
C27J C 0.4326(3) 0.3138(3) 0.7181(2)
C27E C 0.5638(3) 0.3174(3) 0.0319(2)
H34O H 0.5921 0.1818 0.7410
H34J H 0.4079 0.3182 0.7410
H34E H 0.5682 0.3421 0.0090
H35O H 0.5370 0.1656 0.7239
H35J H 0.4630 0.3344 0.7239
H35E H 0.5844 0.2870 0.0261
H36O H 0.5827 0.1753 0.6914
H36J H 0.4173 0.3247 0.6914
H36E H 0.5747 0.3327 0.0586
N1J N 0.55177(16) 0.24195(14) 0.61984(11)
N1O N 0.44823(16) 0.25805(14) 0.61984(11)
N1E N 0.49195(14) 0.19823(16) 0.13016(11)
N2O N 0.23986(15) 0.10286(14) 0.40466(12)
N2E N 0.64714(14) -0.01014(15) 0.34534(12)
N2J N 0.76014(15) 0.39714(14) 0.40466(12)
N3O N 0.28369(14) 0.04180(14) 0.34373(11)
N3E N 0.70820(14) 0.03369(14) 0.40627(11)
N3J N 0.71631(14) 0.45820(14) 0.34373(11)
N4J N 0.66655(16) 0.27143(15) 0.49543(13)
N4O N 0.33345(16) 0.22857(15) 0.49543(13)
N4E N 0.52143(15) 0.08345(16) 0.25457(13)
N5O N 0.29595(17) 0.27989(15) 0.44203(13)
N5E N 0.47011(15) 0.04595(17) 0.30797(13)
N5J N 0.70405(17) 0.22011(15) 0.44203(13)
N6O N 0.34572(17) 0.31845(15) 0.49550(13)
N6J N 0.65428(17) 0.18155(15) 0.49550(13)
N6E N 0.43155(15) 0.09572(17) 0.25450(13)
N7J N 0.44740(19) 0.25899(18) 0.71512(13)
N7O N 0.55260(19) 0.24101(18) 0.71512(13)
N7E N 0.50899(18) 0.30260(19) 0.03488(13)
N8J N 0.81032(17) 0.52453(16) 0.34218(13)
N8E N 0.77453(16) -0.06032(17) 0.40782(13)
N8O N 0.18968(17) -0.02453(16) 0.34218(13)
N9J N 0.85509(17) 0.46152(18) 0.40321(14)
N9E N 0.71152(18) -0.10509(17) 0.34679(14)
N9O N 0.14491(17) 0.03848(18) 0.40321(14)
C28? C 0.3845(12) 0.2158(10) 0.3024(9)
H37? H 0.3840 0.1819 0.2879
C29? C 0.3326(13) 0.2441(13) 0.3038(12)
H38? H 0.3020 0.2303 0.2925
C30? C 0.3352(11) 0.2927(10) 0.3235(11)
H39? H 0.3061 0.3142 0.3236
C31? C 0.3852(9) 0.3109(9) 0.3448(8)
H40? H 0.3844 0.3441 0.3603
C32? C 0.4066(10) 0.2633(9) 0.3688(7)
C33? C 0.4052(9) 0.2153(9) 0.3482(8)
C34? C 0.4540(14) 0.1252(13) 0.4277(13)
H41? H 0.4295 0.0989 0.4184
H42? H 0.4537 0.1258 0.4590
C35? C 0.4366(12) 0.1756(11) 0.4119(10)
C36? C 0.4380(11) 0.2235(9) 0.4300(10)
C37? C 0.4673(14) 0.2174(12) 0.4692(10)
H43? H 0.4936 0.1908 0.4653
H44? H 0.4443 0.2065 0.4923
C38? C 0.4923(14) 0.2675(12) 0.4805(13)
H45? H 0.5038 0.2664 0.5099
H46? H 0.4677 0.2953 0.4770
H47? H 0.5216 0.2733 0.4619
C39? C 0.5074(17) 0.110(3) 0.413(2)
H48? H 0.5152 0.0755 0.4227
H49? H 0.5325 0.1340 0.4244
H50? H 0.5087 0.1109 0.3819
C40? C 0.4206(11) 0.1730(12) 0.3704(9)
H51? H 0.4202 0.1408 0.3567
C41? C 0.4234(12) 0.2685(12) 0.4098(8)
H52? H 0.4249 0.3007 0.4235
C42? C 0.4166(9) 0.2583(9) 0.2798(8)
H53? H 0.4062 0.2636 0.2497
C43? C 0.4186(9) 0.3078(10) 0.3047(8)
H54? H 0.4084 0.3362 0.2854
C44? C 0.4710(9) 0.2401(9) 0.2840(12)
C45? C 0.4735(11) 0.3149(14) 0.316(2)
N10? N 0.5017(7) 0.2749(7) 0.3047(7)
O1? O 0.4897(9) 0.2003(8) 0.2721(7)
O2? O 0.4925(9) 0.3504(8) 0.3365(7)
C46? C 0.5572(8) 0.2677(8) 0.3184(7)
H55? H 0.5668 0.2971 0.3369
C47? C 0.5961(12) 0.2643(15) 0.2831(9)
H56? H 0.5923 0.2937 0.2637
H57? H 0.5908 0.2326 0.2667
C48? C 0.6495(10) 0.2643(19) 0.3031(15)
H58? H 0.6759 0.2638 0.2807
H59? H 0.6543 0.2956 0.3202
C49? C 0.6545(10) 0.2175(19) 0.3308(15)
H60? H 0.6517 0.1865 0.3132
H61? H 0.6886 0.2174 0.3443
C50? C 0.6141(11) 0.2165(16) 0.3644(10)
H62? H 0.6188 0.2459 0.3836
H63? H 0.6176 0.1849 0.3813
C51? C 0.5612(8) 0.2186(9) 0.3450(8)
H64? H 0.5350 0.2189 0.3676
H65? H 0.5554 0.1884 0.3270
N12? N 0.4048(6) 0.5862(8) 0.4580(5)
O8? O 0.4334(14) 0.5562(15) 0.4775(11)
O10? O 0.6201(5) 0.2126(5) 0.0809(5)
O12? O 0.4774(6) 0.0600(5) 0.1046(4)
N14? N 0.6481(7) 0.1745(7) -0.0061(6)
O14? O 0.6270(7) 0.1651(7) -0.0404(5)
O15? O 0.6582(12) 0.2203(13) 0.0132(10)
O16? O 0.6551(8) 0.1457(9) 0.0130(7)
O22? O 0.5815(10) 0.0911(11) -0.0500(8)
O24? O 0.6256(4) 0.2241(6) 0.0934(4)
N16? N 0.6814(12) 0.2068(12) -0.0066(10)
O25? O 0.7089(8) 0.2007(7) -0.0392(7)
O26? O 0.6633(8) 0.1754(10) 0.0196(8)
O27? O 0.6919(10) 0.2464(10) 0.0122(8)
O28? O 0.4565(7) 0.0031(7) 0.1803(6)
O30? O 0.6047(7) 0.1361(8) -0.0497(6)
O31? O 0.2232(5) 0.4741(6) 0.2998(4)
O32? O 0.1478(13) 0.4121(13) 0.3593(12)
O34? O 0.1405(13) 0.5482(14) 0.2785(11)
O41? O 0.1262(11) 0.6815(15) 0.3245(9)
C52? C 0.1840(7) 0.5160(8) 0.4112(7)
C53? C 0.2393(7) 0.5715(8) 0.4537(5)
C54? C 0.2036(7) 0.6023(6) 0.3855(5)
C55? C 0.2445(6) 0.6365(6) 0.3735(6)
C56? C 0.3329(7) 0.6374(7) 0.3668(6)
C57? C 0.2709(8) 0.6008(7) 0.3049(6)
H66? H 0.1538 0.5287 0.4261
H67? H 0.1984 0.4871 0.4267
H68? H 0.1743 0.5048 0.3827
H69? H 0.2089 0.5835 0.4688
H70? H 0.2657 0.5979 0.4547
H71? H 0.2520 0.5403 0.4672
H72? H 0.1788 0.6203 0.4037
H73? H 0.1855 0.5899 0.3600
H74? H 0.2599 0.6516 0.3992
H75? H 0.2308 0.6645 0.3559
H76? H 0.3337 0.6712 0.3538
H77? H 0.3655 0.6201 0.3619
H78? H 0.3272 0.6409 0.3973
H79? H 0.2703 0.6346 0.2917
H80? H 0.2363 0.5864 0.3049
H81? H 0.2937 0.5783 0.2889
O48? O 0.3124(12) 0.2201(13) 0.1619(9)
loop_
_geom_bond_atom_site_label_1
_geom_bond_atom_site_label_2
_geom_bond_site_symmetry_1
_geom_bond_site_symmetry_2
Pd1 N1 1_555 1_555
Pd2 N2 1_555 1_555
C1 H1 1_555 1_555
C2 C1 1_555 1_555
H2 C2 1_555 1_555
C3 C2 1_555 1_555
C4 C3 1_555 1_555
H3 C4 1_555 1_555
C5 C4 1_555 1_555
H4 C5 1_555 1_555
C6 H5 1_555 1_555
C7 C6 1_555 1_555
H6 C7 1_555 1_555
C8 C7 1_555 1_555
C9 C8 1_555 1_555
H7 C9 1_555 1_555
C10 C9 1_555 1_555
H8 C10 1_555 1_555
C11 H9 1_555 1_555
C12 C11 1_555 1_555
H10 C12 1_555 1_555
C13 C12 1_555 1_555
C14 C13 1_555 1_555
H11 C14 1_555 1_555
C15 C14 1_555 1_555
H12 C15 1_555 1_555
C16 C3 1_555 1_555
C17 C8 1_555 1_555
C18 C13 1_555 1_555
C19 H13 1_555 1_555
H14 C19 1_555 1_555
H15 C19 1_555 1_555
C20 H16 1_555 1_555
H17 C20 1_555 1_555
H18 C20 1_555 1_555
C21 H19 1_555 1_555
H20 C21 1_555 1_555
C22 C21 1_555 1_555
H21 C22 1_555 1_555
H22 C22 1_555 1_555
C23 H23 1_555 1_555
H24 C23 1_555 1_555
H25 C23 1_555 1_555
C24 H26 1_555 1_555
H27 C24 1_555 1_555
H28 C24 1_555 1_555
C25 H29 1_555 1_555
H30 C25 1_555 1_555
C26 H31 1_555 1_555
H32 C26 1_555 1_555
H33 C26 1_555 1_555
C27 H34 1_555 1_555
H35 C27 1_555 1_555
H36 C27 1_555 1_555
N1 C1 1_555 1_555
N2 C6 1_555 1_555
N3 Pd2 1_555 1_555
N4 C16 1_555 1_555
N5 C17 1_555 1_555
N6 C16 1_555 1_555
N7 Pd1 1_555 1_555
N8 Pd2 1_555 1_555
N9 Pd2 1_555 1_555
N11 O3 1_555 1_555
O4 N11 1_555 1_555
O5 N11 1_555 1_555
N13 O11 1_555 1_555
O13 N13 1_555 1_555
N15 O17 1_555 1_555
O18 N15 1_555 1_555
O19 N15 1_555 1_555
O29 N13 1_555 1_555
N17 O36 1_555 1_555
O37 N17 1_555 1_555
O38 N17 1_555 1_555
Pd1J N1J 1_555 1_555
Pd2O N2O 1_555 1_555
Pd2E N2E 1_555 1_555
Pd2J N2J 1_555 1_555
C1J H1J 1_555 1_555
C1O H1O 1_555 1_555
C1E H1E 1_555 1_555
C2J C1J 1_555 1_555
C2O C1O 1_555 1_555
C2E C1E 1_555 1_555
H2O C2O 1_555 1_555
H2J C2J 1_555 1_555
H2E C2E 1_555 1_555
C3J C2J 1_555 1_555
C3O C2O 1_555 1_555
C3E C2E 1_555 1_555
C4O C3O 1_555 1_555
C4J C3J 1_555 1_555
C4E C3E 1_555 1_555
H3O C4O 1_555 1_555
H3J C4J 1_555 1_555
H3E C4E 1_555 1_555
C5O C4O 1_555 1_555
C5J C4J 1_555 1_555
C5E C4E 1_555 1_555
H4O C5O 1_555 1_555
H4J C5J 1_555 1_555
H4E C5E 1_555 1_555
C6O H5O 1_555 1_555
C6E H5E 1_555 1_555
C6J H5J 1_555 1_555
C7O C6O 1_555 1_555
C7E C6E 1_555 1_555
C7J C6J 1_555 1_555
H6J C7J 1_555 1_555
H6E C7E 1_555 1_555
H6O C7O 1_555 1_555
C8O C7O 1_555 1_555
C8E C7E 1_555 1_555
C8J C7J 1_555 1_555
C9J C8J 1_555 1_555
C9E C8E 1_555 1_555
C9O C8O 1_555 1_555
H7J C9J 1_555 1_555
H7E C9E 1_555 1_555
H7O C9O 1_555 1_555
C10J C9J 1_555 1_555
C10E C9E 1_555 1_555
C10O C9O 1_555 1_555
H8J C10J 1_555 1_555
H8E C10E 1_555 1_555
H8O C10O 1_555 1_555
C11O H9O 1_555 1_555
C11E H9E 1_555 1_555
C11J H9J 1_555 1_555
C12O C11O 1_555 1_555
C12E C11E 1_555 1_555
C12J C11J 1_555 1_555
H10O C12O 1_555 1_555
H10E C12E 1_555 1_555
H10J C12J 1_555 1_555
C13O C12O 1_555 1_555
C13E C12E 1_555 1_555
C13J C12J 1_555 1_555
C14O C13O 1_555 1_555
C14E C13E 1_555 1_555
C14J C13J 1_555 1_555
H11O C14O 1_555 1_555
H11E C14E 1_555 1_555
H11J C14J 1_555 1_555
C15O C14O 1_555 1_555
C15E C14E 1_555 1_555
C15J C14J 1_555 1_555
H12O C15O 1_555 1_555
H12E C15E 1_555 1_555
H12J C15J 1_555 1_555
C16J C3J 1_555 1_555
C16O C3O 1_555 1_555
C16E C3E 1_555 1_555
C17O C8O 1_555 1_555
C17E C8E 1_555 1_555
C17J C8J 1_555 1_555
C18O C13O 1_555 1_555
C18E C13E 1_555 1_555
C18J N5 1_555 1_555
C19J H13J 1_555 1_555
C19E H13E 1_555 1_555
C19O H13O 1_555 1_555
H14J C19J 1_555 1_555
H14E C19E 1_555 1_555
H14O C19O 1_555 1_555
H15J C19J 1_555 1_555
H15E C19E 1_555 1_555
H15O C19O 1_555 1_555
C20J H16J 1_555 1_555
C20E H16E 1_555 1_555
C20O H16O 1_555 1_555
H17J C20J 1_555 1_555
H17E C20E 1_555 1_555
H17O C20O 1_555 1_555
H18J C20J 1_555 1_555
H18E C20E 1_555 1_555
H18O C20O 1_555 1_555
C21J H19J 1_555 1_555
C21E H19E 1_555 1_555
C21O H19O 1_555 1_555
H20J C21J 1_555 1_555
H20E C21E 1_555 1_555
H20O C21O 1_555 1_555
C22J C21J 1_555 1_555
C22E C21E 1_555 1_555
C22O C21O 1_555 1_555
H21J C22J 1_555 1_555
H21E C22E 1_555 1_555
H21O C22O 1_555 1_555
H22J C22J 1_555 1_555
H22E C22E 1_555 1_555
H22O C22O 1_555 1_555
C23J H23J 1_555 1_555
C23E H23E 1_555 1_555
C23O H23O 1_555 1_555
H24J C23J 1_555 1_555
H24E C23E 1_555 1_555
H24O C23O 1_555 1_555
H25J C23J 1_555 1_555
H25E C23E 1_555 1_555
H25O C23O 1_555 1_555
C24J H26J 1_555 1_555
C24E H26E 1_555 1_555
C24O H26O 1_555 1_555
H27J C24J 1_555 1_555
H27E C24E 1_555 1_555
H27O C24O 1_555 1_555
H28J C24J 1_555 1_555
H28E C24E 1_555 1_555
H28O C24O 1_555 1_555
C25J C25O 1_555 1_555
C25O H29O 1_555 1_555
C25E C25 1_555 1_555
H29J C25J 1_555 1_555
H29E C25E 1_555 1_555
H30O C25O 1_555 1_555
H30J C25J 1_555 1_555
H30E C25E 1_555 1_555
C26O H31O 1_555 1_555
C26J H31J 1_555 1_555
C26E H31E 1_555 1_555
H32O C26O 1_555 1_555
H32J C26J 1_555 1_555
H32E C26E 1_555 1_555
H33O C26O 1_555 1_555
H33J C26J 1_555 1_555
H33E C26E 1_555 1_555
C27O H34O 1_555 1_555
C27J H34J 1_555 1_555
C27E H34E 1_555 1_555
H35O C27O 1_555 1_555
H35J C27J 1_555 1_555
H35E C27E 1_555 1_555
H36O C27O 1_555 1_555
H36J C27J 1_555 1_555
H36E C27E 1_555 1_555
N1J C1J 1_555 1_555
N1O Pd1J 1_555 1_555
N1E Pd1 1_555 1_555
N2O C6O 1_555 1_555
N2E C6E 1_555 1_555
N2J C6J 1_555 1_555
N3O Pd2O 1_555 1_555
N3E Pd2E 1_555 1_555
N3J Pd2J 1_555 1_555
N4J C16J 1_555 1_555
N4O C16O 1_555 1_555
N4E C16E 1_555 1_555
N5O C18 1_555 1_555
N5E C17E 1_555 1_555
N5J C17J 1_555 1_555
N6O C18 1_555 1_555
N6J C16J 1_555 1_555
N6E C16E 1_555 1_555
N7J Pd1J 1_555 1_555
N7O Pd1J 1_555 1_555
N7E Pd1 1_555 1_555
N8J Pd2J 1_555 1_555
N8E Pd2E 1_555 1_555
N8O Pd2O 1_555 1_555
N9J Pd2J 1_555 1_555
N9E Pd2E 1_555 1_555
N9O Pd2O 1_555 1_555
C5 N1 1_555 1_555
C10 N2 1_555 1_555
C11 N3 1_555 1_555
C15 N3 1_555 1_555
C17 N4 1_555 1_555
C19 N8 1_555 1_555
C20 N8 1_555 1_555
C21 N8 1_555 1_555
C22 N9 1_555 1_555
C23 N9 1_555 1_555
C24 N9 1_555 1_555
C25 N7 1_555 1_555
C26 N7 1_555 1_555
C27 N7 1_555 1_555
N6 C18J 1_555 1_555
C1O N1O 1_555 1_555
C1E N1E 1_555 1_555
C5O N1O 1_555 1_555
C5J N1J 1_555 1_555
C5E N1E 1_555 1_555
C10J N2J 1_555 1_555
C10E N2E 1_555 1_555
C10O N2O 1_555 1_555
C11O N3O 1_555 1_555
C11E N3E 1_555 1_555
C11J N3J 1_555 1_555
C13J C18J 1_555 1_555
C15O N3O 1_555 1_555
C15E N3E 1_555 1_555
C15J N3J 1_555 1_555
C16O N6O 1_555 1_555
C17O N4O 1_555 1_555
C17O N5O 1_555 1_555
C17E N4E 1_555 1_555
C17J N4J 1_555 1_555
C18O N5E 1_555 1_555
C18O N6E 1_555 1_555
C18E N5J 1_555 1_555
C18E N6J 1_555 1_555
C19J N8J 1_555 1_555
C19E N8E 1_555 1_555
C19O N8O 1_555 1_555
C20J N8J 1_555 1_555
C20E N8E 1_555 1_555
C20O N8O 1_555 1_555
C21J N8J 1_555 1_555
C21E N8E 1_555 1_555
C21O N8O 1_555 1_555
C22J N9J 1_555 1_555
C22E N9E 1_555 1_555
C22O N9O 1_555 1_555
C23J N9J 1_555 1_555
C23E N9E 1_555 1_555
C23O N9O 1_555 1_555
C24J N9J 1_555 1_555
C24E N9E 1_555 1_555
C24O N9O 1_555 1_555
C25J N7J 1_555 1_555
C25O N7O 1_555 1_555
C25E N7E 1_555 1_555
C26O N7O 1_555 1_555
C26J N7J 1_555 1_555
C26E N7E 1_555 1_555
C27O N7O 1_555 1_555
C27J N7J 1_555 1_555
C27E N7E 1_555 1_555

#END
