# generated using pymatgen
data_H324Pd6C228N68O189
_symmetry_space_group_name_H-M   'P 1'
_cell_length_a   26.22200000
_cell_length_b   26.22200000
_cell_length_c   31.65000000
_cell_angle_alpha   90.00000000
_cell_angle_beta   90.00000000
_cell_angle_gamma   90.00000000
_symmetry_Int_Tables_number   1
_chemical_formula_structural   H324Pd6C228N68O189
_chemical_formula_sum   'H1296 Pd24 C912 N272 O756'
_cell_volume   21762.32743860
_cell_formula_units_Z   4
loop_
 _symmetry_equiv_pos_site_id
 _symmetry_equiv_pos_as_xyz
  1  'x, y, z'
loop_
 _atom_site_type_symbol
 _atom_site_label
 _atom_site_symmetry_multiplicity
 _atom_site_fract_x
 _atom_site_fract_y
 _atom_site_fract_z
 _atom_site_occupancy
  H  H1  1  0.384000  0.181900  0.287900  1
  H  H2  1  0.116000  0.818100  0.787900  1
  H  H3  1  0.568100  0.634000  0.537900  1
  H  H4  1  0.931900  0.366000  0.037900  1
  H  H5  1  0.884000  0.681900  0.787900  1
  H  H6  1  0.616000  0.318100  0.287900  1
  H  H7  1  0.068100  0.134000  0.037900  1
  H  H8  1  0.431900  0.866000  0.537900  1
  H  H9  1  0.616000  0.818100  0.712100  1
  H  H10  1  0.884000  0.181900  0.212100  1
  H  H11  1  0.431900  0.366000  0.462100  1
  H  H12  1  0.068100  0.634000  0.962100  1
  H  H13  1  0.116000  0.318100  0.212100  1
  H  H14  1  0.384000  0.681900  0.712100  1
  H  H15  1  0.931900  0.866000  0.962100  1
  H  H16  1  0.568100  0.134000  0.462100  1
  H  H17  1  0.302000  0.230300  0.292500  1
  H  H18  1  0.198000  0.769700  0.792500  1
  H  H19  1  0.519700  0.552000  0.542500  1
  H  H20  1  0.980300  0.448000  0.042500  1
  H  H21  1  0.802000  0.730300  0.792500  1
  H  H22  1  0.698000  0.269700  0.292500  1
  H  H23  1  0.019700  0.052000  0.042500  1
  H  H24  1  0.480300  0.948000  0.542500  1
  H  H25  1  0.698000  0.769700  0.707500  1
  H  H26  1  0.802000  0.230300  0.207500  1
  H  H27  1  0.480300  0.448000  0.457500  1
  H  H28  1  0.019700  0.552000  0.957500  1
  H  H29  1  0.198000  0.269700  0.207500  1
  H  H30  1  0.302000  0.730300  0.707500  1
  H  H31  1  0.980300  0.948000  0.957500  1
  H  H32  1  0.519700  0.052000  0.457500  1
  H  H33  1  0.306100  0.314200  0.323600  1
  H  H34  1  0.193900  0.685800  0.823600  1
  H  H35  1  0.435800  0.556100  0.573600  1
  H  H36  1  0.064200  0.443900  0.073600  1
  H  H37  1  0.806100  0.814200  0.823600  1
  H  H38  1  0.693900  0.185800  0.323600  1
  H  H39  1  0.935800  0.056100  0.073600  1
  H  H40  1  0.564200  0.943900  0.573600  1
  H  H41  1  0.693900  0.685800  0.676400  1
  H  H42  1  0.806100  0.314200  0.176400  1
  H  H43  1  0.564200  0.443900  0.426400  1
  H  H44  1  0.935800  0.556100  0.926400  1
  H  H45  1  0.193900  0.185800  0.176400  1
  H  H46  1  0.306100  0.814200  0.676400  1
  H  H47  1  0.064200  0.943900  0.926400  1
  H  H48  1  0.435800  0.056100  0.426400  1
  H  H49  1  0.384400  0.344100  0.360300  1
  H  H50  1  0.115600  0.655900  0.860300  1
  H  H51  1  0.405900  0.634400  0.610300  1
  H  H52  1  0.094100  0.365600  0.110300  1
  H  H53  1  0.884400  0.844100  0.860300  1
  H  H54  1  0.615600  0.155900  0.360300  1
  H  H55  1  0.905900  0.134400  0.110300  1
  H  H56  1  0.594100  0.865600  0.610300  1
  H  H57  1  0.615600  0.655900  0.639700  1
  H  H58  1  0.884400  0.344100  0.139700  1
  H  H59  1  0.594100  0.365600  0.389700  1
  H  H60  1  0.905900  0.634400  0.889700  1
  H  H61  1  0.115600  0.155900  0.139700  1
  H  H62  1  0.384400  0.844100  0.639700  1
  H  H63  1  0.094100  0.865600  0.889700  1
  H  H64  1  0.405900  0.134400  0.389700  1
  H  H65  1  0.429500  0.098900  0.418400  1
  H  H66  1  0.070500  0.901100  0.918400  1
  H  H67  1  0.651100  0.679500  0.668400  1
  H  H68  1  0.848900  0.320500  0.168400  1
  H  H69  1  0.929500  0.598900  0.918400  1
  H  H70  1  0.570500  0.401100  0.418400  1
  H  H71  1  0.151100  0.179500  0.168400  1
  H  H72  1  0.348900  0.820500  0.668400  1
  H  H73  1  0.570500  0.901100  0.581600  1
  H  H74  1  0.929500  0.098900  0.081600  1
  H  H75  1  0.348900  0.320500  0.331600  1
  H  H76  1  0.151100  0.679500  0.831600  1
  H  H77  1  0.070500  0.401100  0.081600  1
  H  H78  1  0.429500  0.598900  0.581600  1
  H  H79  1  0.848900  0.820500  0.831600  1
  H  H80  1  0.651100  0.179500  0.331600  1
  H  H81  1  0.453700  0.125800  0.459000  1
  H  H82  1  0.046300  0.874200  0.959000  1
  H  H83  1  0.624200  0.703700  0.709000  1
  H  H84  1  0.875800  0.296300  0.209000  1
  H  H85  1  0.953700  0.625800  0.959000  1
  H  H86  1  0.546300  0.374200  0.459000  1
  H  H87  1  0.124200  0.203700  0.209000  1
  H  H88  1  0.375800  0.796300  0.709000  1
  H  H89  1  0.546300  0.874200  0.541000  1
  H  H90  1  0.953700  0.125800  0.041000  1
  H  H91  1  0.375800  0.296300  0.291000  1
  H  H92  1  0.124200  0.703700  0.791000  1
  H  H93  1  0.046300  0.374200  0.041000  1
  H  H94  1  0.453700  0.625800  0.541000  1
  H  H95  1  0.875800  0.796300  0.791000  1
  H  H96  1  0.624200  0.203700  0.291000  1
  H  H97  1  0.493600  0.190800  0.465300  1
  H  H98  1  0.006400  0.809200  0.965300  1
  H  H99  1  0.559200  0.743600  0.715300  1
  H  H100  1  0.940800  0.256400  0.215300  1
  H  H101  1  0.993600  0.690800  0.965300  1
  H  H102  1  0.506400  0.309200  0.465300  1
  H  H103  1  0.059200  0.243600  0.215300  1
  H  H104  1  0.440800  0.756400  0.715300  1
  H  H105  1  0.506400  0.809200  0.534700  1
  H  H106  1  0.993600  0.190800  0.034700  1
  H  H107  1  0.440800  0.256400  0.284700  1
  H  H108  1  0.059200  0.743600  0.784700  1
  H  H109  1  0.006400  0.309200  0.034700  1
  H  H110  1  0.493600  0.690800  0.534700  1
  H  H111  1  0.940800  0.756400  0.784700  1
  H  H112  1  0.559200  0.243600  0.284700  1
  H  H113  1  0.444300  0.206500  0.492300  1
  H  H114  1  0.055700  0.793500  0.992300  1
  H  H115  1  0.543500  0.694300  0.742300  1
  H  H116  1  0.956500  0.305700  0.242300  1
  H  H117  1  0.944300  0.706500  0.992300  1
  H  H118  1  0.555700  0.293500  0.492300  1
  H  H119  1  0.043500  0.194300  0.242300  1
  H  H120  1  0.456500  0.805700  0.742300  1
  H  H121  1  0.555700  0.793500  0.507700  1
  H  H122  1  0.944300  0.206500  0.007700  1
  H  H123  1  0.456500  0.305700  0.257700  1
  H  H124  1  0.043500  0.694300  0.757700  1
  H  H125  1  0.055700  0.293500  0.007700  1
  H  H126  1  0.444300  0.706500  0.507700  1
  H  H127  1  0.956500  0.805700  0.757700  1
  H  H128  1  0.543500  0.194300  0.257700  1
  H  H129  1  0.503800  0.266400  0.509900  1
  H  H130  1  0.996200  0.733600  0.009900  1
  H  H131  1  0.483600  0.753800  0.759900  1
  H  H132  1  0.016400  0.246200  0.259900  1
  H  H133  1  0.003800  0.766400  0.009900  1
  H  H134  1  0.496200  0.233600  0.509900  1
  H  H135  1  0.983600  0.253800  0.259900  1
  H  H136  1  0.516400  0.746200  0.759900  1
  H  H137  1  0.496200  0.733600  0.490100  1
  H  H138  1  0.003800  0.266400  0.990100  1
  H  H139  1  0.516400  0.246200  0.240100  1
  H  H140  1  0.983600  0.753800  0.740100  1
  H  H141  1  0.996200  0.233600  0.990100  1
  H  H142  1  0.503800  0.766400  0.490100  1
  H  H143  1  0.016400  0.746200  0.740100  1
  H  H144  1  0.483600  0.253800  0.240100  1
  H  H145  1  0.467700  0.295300  0.477000  1
  H  H146  1  0.032300  0.704700  0.977000  1
  H  H147  1  0.454700  0.717700  0.727000  1
  H  H148  1  0.045300  0.282300  0.227000  1
  H  H149  1  0.967700  0.795300  0.977000  1
  H  H150  1  0.532300  0.204700  0.477000  1
  H  H151  1  0.954700  0.217700  0.227000  1
  H  H152  1  0.545300  0.782300  0.727000  1
  H  H153  1  0.532300  0.704700  0.523000  1
  H  H154  1  0.967700  0.295300  0.023000  1
  H  H155  1  0.545300  0.282300  0.273000  1
  H  H156  1  0.954700  0.717700  0.773000  1
  H  H157  1  0.032300  0.204700  0.023000  1
  H  H158  1  0.467700  0.795300  0.523000  1
  H  H159  1  0.045300  0.782300  0.773000  1
  H  H160  1  0.454700  0.217700  0.273000  1
  H  H161  1  0.521600  0.273300  0.461900  1
  H  H162  1  0.978400  0.726700  0.961900  1
  H  H163  1  0.476700  0.771600  0.711900  1
  H  H164  1  0.023300  0.228400  0.211900  1
  H  H165  1  0.021600  0.773300  0.961900  1
  H  H166  1  0.478400  0.226700  0.461900  1
  H  H167  1  0.976700  0.271600  0.211900  1
  H  H168  1  0.523300  0.728400  0.711900  1
  H  H169  1  0.478400  0.726700  0.538100  1
  H  H170  1  0.021600  0.273300  0.038100  1
  H  H171  1  0.523300  0.228400  0.288100  1
  H  H172  1  0.976700  0.771600  0.788100  1
  H  H173  1  0.978400  0.226700  0.038100  1
  H  H174  1  0.521600  0.773300  0.538100  1
  H  H175  1  0.023300  0.728400  0.788100  1
  H  H176  1  0.476700  0.271600  0.288100  1
  H  H177  1  0.515200  0.075500  0.422700  1
  H  H178  1  0.984800  0.924500  0.922700  1
  H  H179  1  0.674500  0.765200  0.672700  1
  H  H180  1  0.825500  0.234800  0.172700  1
  H  H181  1  0.015200  0.575500  0.922700  1
  H  H182  1  0.484800  0.424500  0.422700  1
  H  H183  1  0.174500  0.265200  0.172700  1
  H  H184  1  0.325500  0.734800  0.672700  1
  H  H185  1  0.484800  0.924500  0.577300  1
  H  H186  1  0.015200  0.075500  0.077300  1
  H  H187  1  0.325500  0.234800  0.327300  1
  H  H188  1  0.174500  0.765200  0.827300  1
  H  H189  1  0.984800  0.424500  0.077300  1
  H  H190  1  0.515200  0.575500  0.577300  1
  H  H191  1  0.825500  0.734800  0.827300  1
  H  H192  1  0.674500  0.265200  0.327300  1
  H  H193  1  0.532500  0.134000  0.424400  1
  H  H194  1  0.967500  0.866000  0.924400  1
  H  H195  1  0.616000  0.782500  0.674400  1
  H  H196  1  0.884000  0.217500  0.174400  1
  H  H197  1  0.032500  0.634000  0.924400  1
  H  H198  1  0.467500  0.366000  0.424400  1
  H  H199  1  0.116000  0.282500  0.174400  1
  H  H200  1  0.384000  0.717500  0.674400  1
  H  H201  1  0.467500  0.866000  0.575600  1
  H  H202  1  0.032500  0.134000  0.075600  1
  H  H203  1  0.384000  0.217500  0.325600  1
  H  H204  1  0.116000  0.782500  0.825600  1
  H  H205  1  0.967500  0.366000  0.075600  1
  H  H206  1  0.532500  0.634000  0.575600  1
  H  H207  1  0.884000  0.717500  0.825600  1
  H  H208  1  0.616000  0.282500  0.325600  1
  H  H209  1  0.508700  0.110900  0.381900  1
  H  H210  1  0.991300  0.889100  0.881900  1
  H  H211  1  0.639100  0.758700  0.631900  1
  H  H212  1  0.860900  0.241300  0.131900  1
  H  H213  1  0.008700  0.610900  0.881900  1
  H  H214  1  0.491300  0.389100  0.381900  1
  H  H215  1  0.139100  0.258700  0.131900  1
  H  H216  1  0.360900  0.741300  0.631900  1
  H  H217  1  0.491300  0.889100  0.618100  1
  H  H218  1  0.008700  0.110900  0.118100  1
  H  H219  1  0.360900  0.241300  0.368100  1
  H  H220  1  0.139100  0.758700  0.868100  1
  H  H221  1  0.991300  0.389100  0.118100  1
  H  H222  1  0.508700  0.610900  0.618100  1
  H  H223  1  0.860900  0.741300  0.868100  1
  H  H224  1  0.639100  0.258700  0.368100  1
  H  H225  1  0.420200  0.140800  0.356700  1
  H  H226  1  0.079800  0.859200  0.856700  1
  H  H227  1  0.609200  0.670200  0.606700  1
  H  H228  1  0.890800  0.329800  0.106700  1
  H  H229  1  0.920200  0.640800  0.856700  1
  H  H230  1  0.579800  0.359200  0.356700  1
  H  H231  1  0.109200  0.170200  0.106700  1
  H  H232  1  0.390800  0.829800  0.606700  1
  H  H233  1  0.579800  0.859200  0.643300  1
  H  H234  1  0.920200  0.140800  0.143300  1
  H  H235  1  0.390800  0.329800  0.393300  1
  H  H236  1  0.109200  0.670200  0.893300  1
  H  H237  1  0.079800  0.359200  0.143300  1
  H  H238  1  0.420200  0.640800  0.643300  1
  H  H239  1  0.890800  0.829800  0.893300  1
  H  H240  1  0.609200  0.170200  0.393300  1
  H  H241  1  0.424900  0.300700  0.423500  1
  H  H242  1  0.075100  0.699300  0.923500  1
  H  H243  1  0.449300  0.674900  0.673500  1
  H  H244  1  0.050700  0.325100  0.173500  1
  H  H245  1  0.924900  0.800700  0.923500  1
  H  H246  1  0.575100  0.199300  0.423500  1
  H  H247  1  0.949300  0.174900  0.173500  1
  H  H248  1  0.550700  0.825100  0.673500  1
  H  H249  1  0.575100  0.699300  0.576500  1
  H  H250  1  0.924900  0.300700  0.076500  1
  H  H251  1  0.550700  0.325100  0.326500  1
  H  H252  1  0.949300  0.674900  0.826500  1
  H  H253  1  0.075100  0.199300  0.076500  1
  H  H254  1  0.424900  0.800700  0.576500  1
  H  H255  1  0.050700  0.825100  0.826500  1
  H  H256  1  0.449300  0.174900  0.326500  1
  H  H257  1  0.406200  0.263600  0.249700  1
  H  H258  1  0.093800  0.736400  0.749700  1
  H  H259  1  0.486400  0.656200  0.499700  1
  H  H260  1  0.013600  0.343800  0.999700  1
  H  H261  1  0.906200  0.763600  0.749700  1
  H  H262  1  0.593800  0.236400  0.249700  1
  H  H263  1  0.986400  0.156200  0.999700  1
  H  H264  1  0.513600  0.843800  0.499700  1
  H  H265  1  0.593800  0.736400  0.750300  1
  H  H266  1  0.906200  0.263600  0.250300  1
  H  H267  1  0.513600  0.343800  0.500300  1
  H  H268  1  0.986400  0.656200  0.000300  1
  H  H269  1  0.093800  0.236400  0.250300  1
  H  H270  1  0.406200  0.763600  0.750300  1
  H  H271  1  0.013600  0.843800  0.000300  1
  H  H272  1  0.486400  0.156200  0.500300  1
  H  H273  1  0.408400  0.336200  0.285400  1
  H  H274  1  0.091600  0.663800  0.785400  1
  H  H275  1  0.413800  0.658400  0.535400  1
  H  H276  1  0.086200  0.341600  0.035400  1
  H  H277  1  0.908400  0.836200  0.785400  1
  H  H278  1  0.591600  0.163800  0.285400  1
  H  H279  1  0.913800  0.158400  0.035400  1
  H  H280  1  0.586200  0.841600  0.535400  1
  H  H281  1  0.591600  0.663800  0.714600  1
  H  H282  1  0.908400  0.336200  0.214600  1
  H  H283  1  0.586200  0.341600  0.464600  1
  H  H284  1  0.913800  0.658400  0.964600  1
  H  H285  1  0.091600  0.163800  0.214600  1
  H  H286  1  0.408400  0.836200  0.714600  1
  H  H287  1  0.086200  0.841600  0.964600  1
  H  H288  1  0.413800  0.158400  0.464600  1
  H  H289  1  0.566800  0.297100  0.336900  1
  H  H290  1  0.933200  0.702900  0.836900  1
  H  H291  1  0.452900  0.816800  0.586900  1
  H  H292  1  0.047100  0.183200  0.086900  1
  H  H293  1  0.066800  0.797100  0.836900  1
  H  H294  1  0.433200  0.202900  0.336900  1
  H  H295  1  0.952900  0.316800  0.086900  1
  H  H296  1  0.547100  0.683200  0.586900  1
  H  H297  1  0.433200  0.702900  0.663100  1
  H  H298  1  0.066800  0.297100  0.163100  1
  H  H299  1  0.547100  0.183200  0.413100  1
  H  H300  1  0.952900  0.816800  0.913100  1
  H  H301  1  0.933200  0.202900  0.163100  1
  H  H302  1  0.566800  0.797100  0.663100  1
  H  H303  1  0.047100  0.683200  0.913100  1
  H  H304  1  0.452900  0.316800  0.413100  1
  H  H305  1  0.592300  0.293700  0.263700  1
  H  H306  1  0.907700  0.706300  0.763700  1
  H  H307  1  0.456300  0.842300  0.513700  1
  H  H308  1  0.043700  0.157700  0.013700  1
  H  H309  1  0.092300  0.793700  0.763700  1
  H  H310  1  0.407700  0.206300  0.263700  1
  H  H311  1  0.956300  0.342300  0.013700  1
  H  H312  1  0.543700  0.657700  0.513700  1
  H  H313  1  0.407700  0.706300  0.736300  1
  H  H314  1  0.092300  0.293700  0.236300  1
  H  H315  1  0.543700  0.157700  0.486300  1
  H  H316  1  0.956300  0.842300  0.986300  1
  H  H317  1  0.907700  0.206300  0.236300  1
  H  H318  1  0.592300  0.793700  0.736300  1
  H  H319  1  0.043700  0.657700  0.986300  1
  H  H320  1  0.456300  0.342300  0.486300  1
  H  H321  1  0.590800  0.232600  0.266700  1
  H  H322  1  0.909200  0.767400  0.766700  1
  H  H323  1  0.517400  0.840800  0.516700  1
  H  H324  1  0.982600  0.159200  0.016700  1
  H  H325  1  0.090800  0.732600  0.766700  1
  H  H326  1  0.409200  0.267400  0.266700  1
  H  H327  1  0.017400  0.340800  0.016700  1
  H  H328  1  0.482600  0.659200  0.516700  1
  H  H329  1  0.409200  0.767400  0.733300  1
  H  H330  1  0.090800  0.232600  0.233300  1
  H  H331  1  0.482600  0.159200  0.483300  1
  H  H332  1  0.017400  0.840800  0.983300  1
  H  H333  1  0.909200  0.267400  0.233300  1
  H  H334  1  0.590800  0.732600  0.733300  1
  H  H335  1  0.982600  0.659200  0.983300  1
  H  H336  1  0.517400  0.340800  0.483300  1
  H  H337  1  0.675900  0.263800  0.280700  1
  H  H338  1  0.824100  0.736200  0.780700  1
  H  H339  1  0.486200  0.925900  0.530700  1
  H  H340  1  0.013800  0.074100  0.030700  1
  H  H341  1  0.175900  0.763800  0.780700  1
  H  H342  1  0.324100  0.236200  0.280700  1
  H  H343  1  0.986200  0.425900  0.030700  1
  H  H344  1  0.513800  0.574100  0.530700  1
  H  H345  1  0.324100  0.736200  0.719300  1
  H  H346  1  0.175900  0.263800  0.219300  1
  H  H347  1  0.513800  0.074100  0.469300  1
  H  H348  1  0.986200  0.925900  0.969300  1
  H  H349  1  0.824100  0.236200  0.219300  1
  H  H350  1  0.675900  0.763800  0.719300  1
  H  H351  1  0.013800  0.574100  0.969300  1
  H  H352  1  0.486200  0.425900  0.469300  1
  H  H353  1  0.654300  0.295600  0.320200  1
  H  H354  1  0.845700  0.704400  0.820200  1
  H  H355  1  0.454400  0.904300  0.570200  1
  H  H356  1  0.045600  0.095700  0.070200  1
  H  H357  1  0.154300  0.795600  0.820200  1
  H  H358  1  0.345700  0.204400  0.320200  1
  H  H359  1  0.954400  0.404300  0.070200  1
  H  H360  1  0.545600  0.595700  0.570200  1
  H  H361  1  0.345700  0.704400  0.679800  1
  H  H362  1  0.154300  0.295600  0.179800  1
  H  H363  1  0.545600  0.095700  0.429800  1
  H  H364  1  0.954400  0.904300  0.929800  1
  H  H365  1  0.845700  0.204400  0.179800  1
  H  H366  1  0.654300  0.795600  0.679800  1
  H  H367  1  0.045600  0.595700  0.929800  1
  H  H368  1  0.454400  0.404300  0.429800  1
  H  H369  1  0.651700  0.186500  0.313200  1
  H  H370  1  0.848300  0.813500  0.813200  1
  H  H371  1  0.563500  0.901700  0.563200  1
  H  H372  1  0.936500  0.098300  0.063200  1
  H  H373  1  0.151700  0.686500  0.813200  1
  H  H374  1  0.348300  0.313500  0.313200  1
  H  H375  1  0.063500  0.401700  0.063200  1
  H  H376  1  0.436500  0.598300  0.563200  1
  H  H377  1  0.348300  0.813500  0.686800  1
  H  H378  1  0.151700  0.186500  0.186800  1
  H  H379  1  0.436500  0.098300  0.436800  1
  H  H380  1  0.063500  0.901700  0.936800  1
  H  H381  1  0.848300  0.313500  0.186800  1
  H  H382  1  0.651700  0.686500  0.686800  1
  H  H383  1  0.936500  0.598300  0.936800  1
  H  H384  1  0.563500  0.401700  0.436800  1
  H  H385  1  0.688600  0.217400  0.344300  1
  H  H386  1  0.811400  0.782600  0.844300  1
  H  H387  1  0.532600  0.938600  0.594300  1
  H  H388  1  0.967400  0.061400  0.094300  1
  H  H389  1  0.188600  0.717400  0.844300  1
  H  H390  1  0.311400  0.282600  0.344300  1
  H  H391  1  0.032600  0.438600  0.094300  1
  H  H392  1  0.467400  0.561400  0.594300  1
  H  H393  1  0.311400  0.782600  0.655700  1
  H  H394  1  0.188600  0.217400  0.155700  1
  H  H395  1  0.467400  0.061400  0.405700  1
  H  H396  1  0.032600  0.938600  0.905700  1
  H  H397  1  0.811400  0.282600  0.155700  1
  H  H398  1  0.688600  0.717400  0.655700  1
  H  H399  1  0.967400  0.561400  0.905700  1
  H  H400  1  0.532600  0.438600  0.405700  1
  H  H401  1  0.618800  0.245900  0.383600  1
  H  H402  1  0.881200  0.754100  0.883600  1
  H  H403  1  0.504100  0.868800  0.633600  1
  H  H404  1  0.995900  0.131200  0.133600  1
  H  H405  1  0.118800  0.745900  0.883600  1
  H  H406  1  0.381200  0.254100  0.383600  1
  H  H407  1  0.004100  0.368800  0.133600  1
  H  H408  1  0.495900  0.631200  0.633600  1
  H  H409  1  0.381200  0.754100  0.616400  1
  H  H410  1  0.118800  0.245900  0.116400  1
  H  H411  1  0.495900  0.131200  0.366400  1
  H  H412  1  0.004100  0.868800  0.866400  1
  H  H413  1  0.881200  0.254100  0.116400  1
  H  H414  1  0.618800  0.745900  0.616400  1
  H  H415  1  0.995900  0.631200  0.866400  1
  H  H416  1  0.504100  0.368800  0.366400  1
  H  H417  1  0.617600  0.184900  0.381300  1
  H  H418  1  0.882400  0.815100  0.881300  1
  H  H419  1  0.565100  0.867600  0.631300  1
  H  H420  1  0.934900  0.132400  0.131300  1
  H  H421  1  0.117600  0.684900  0.881300  1
  H  H422  1  0.382400  0.315100  0.381300  1
  H  H423  1  0.065100  0.367600  0.131300  1
  H  H424  1  0.434900  0.632400  0.631300  1
  H  H425  1  0.382400  0.815100  0.618700  1
  H  H426  1  0.117600  0.184900  0.118700  1
  H  H427  1  0.434900  0.132400  0.368700  1
  H  H428  1  0.065100  0.867600  0.868700  1
  H  H429  1  0.882400  0.315100  0.118700  1
  H  H430  1  0.617600  0.684900  0.618700  1
  H  H431  1  0.934900  0.632400  0.868700  1
  H  H432  1  0.565100  0.367600  0.368700  1
  H  H433  1  0.535000  0.218900  0.367600  1
  H  H434  1  0.965000  0.781100  0.867600  1
  H  H435  1  0.531100  0.785000  0.617600  1
  H  H436  1  0.968900  0.215000  0.117600  1
  H  H437  1  0.035000  0.718900  0.867600  1
  H  H438  1  0.465000  0.281100  0.367600  1
  H  H439  1  0.031100  0.285000  0.117600  1
  H  H440  1  0.468900  0.715000  0.617600  1
  H  H441  1  0.465000  0.781100  0.632400  1
  H  H442  1  0.035000  0.218900  0.132400  1
  H  H443  1  0.468900  0.215000  0.382400  1
  H  H444  1  0.031100  0.785000  0.882400  1
  H  H445  1  0.965000  0.281100  0.132400  1
  H  H446  1  0.535000  0.718900  0.632400  1
  H  H447  1  0.968900  0.715000  0.882400  1
  H  H448  1  0.531100  0.285000  0.382400  1
  H  H449  1  0.555400  0.188400  0.327000  1
  H  H450  1  0.944600  0.811600  0.827000  1
  H  H451  1  0.561600  0.805400  0.577000  1
  H  H452  1  0.938400  0.194600  0.077000  1
  H  H453  1  0.055400  0.688400  0.827000  1
  H  H454  1  0.444600  0.311600  0.327000  1
  H  H455  1  0.061600  0.305400  0.077000  1
  H  H456  1  0.438400  0.694600  0.577000  1
  H  H457  1  0.444600  0.811600  0.673000  1
  H  H458  1  0.055400  0.188400  0.173000  1
  H  H459  1  0.438400  0.194600  0.423000  1
  H  H460  1  0.061600  0.805400  0.923000  1
  H  H461  1  0.944600  0.311600  0.173000  1
  H  H462  1  0.555400  0.688400  0.673000  1
  H  H463  1  0.938400  0.694600  0.923000  1
  H  H464  1  0.561600  0.305400  0.423000  1
  H  H465  1  0.153800  0.528700  0.426100  1
  H  H466  1  0.346200  0.471300  0.926100  1
  H  H467  1  0.221300  0.403800  0.676100  1
  H  H468  1  0.278700  0.596200  0.176100  1
  H  H469  1  0.653800  0.028700  0.926100  1
  H  H470  1  0.846200  0.971300  0.426100  1
  H  H471  1  0.721300  0.903800  0.176100  1
  H  H472  1  0.778700  0.096200  0.676100  1
  H  H473  1  0.846200  0.471300  0.573900  1
  H  H474  1  0.653800  0.528700  0.073900  1
  H  H475  1  0.778700  0.596200  0.323900  1
  H  H476  1  0.721300  0.403800  0.823900  1
  H  H477  1  0.346200  0.971300  0.073900  1
  H  H478  1  0.153800  0.028700  0.573900  1
  H  H479  1  0.278700  0.096200  0.823900  1
  H  H480  1  0.221300  0.903800  0.323900  1
  H  H481  1  0.198400  0.487100  0.426700  1
  H  H482  1  0.301600  0.512900  0.926700  1
  H  H483  1  0.262900  0.448400  0.676700  1
  H  H484  1  0.237100  0.551600  0.176700  1
  H  H485  1  0.698400  0.987100  0.926700  1
  H  H486  1  0.801600  0.012900  0.426700  1
  H  H487  1  0.762900  0.948400  0.176700  1
  H  H488  1  0.737100  0.051600  0.676700  1
  H  H489  1  0.801600  0.512900  0.573300  1
  H  H490  1  0.698400  0.487100  0.073300  1
  H  H491  1  0.737100  0.551600  0.323300  1
  H  H492  1  0.762900  0.448400  0.823300  1
  H  H493  1  0.301600  0.012900  0.073300  1
  H  H494  1  0.198400  0.987100  0.573300  1
  H  H495  1  0.237100  0.051600  0.823300  1
  H  H496  1  0.262900  0.948400  0.323300  1
  H  H497  1  0.174300  0.504800  0.382700  1
  H  H498  1  0.325700  0.495200  0.882700  1
  H  H499  1  0.245200  0.424300  0.632700  1
  H  H500  1  0.254800  0.575700  0.132700  1
  H  H501  1  0.674300  0.004800  0.882700  1
  H  H502  1  0.825700  0.995200  0.382700  1
  H  H503  1  0.745200  0.924300  0.132700  1
  H  H504  1  0.754800  0.075700  0.632700  1
  H  H505  1  0.825700  0.495200  0.617300  1
  H  H506  1  0.674300  0.504800  0.117300  1
  H  H507  1  0.754800  0.575700  0.367300  1
  H  H508  1  0.745200  0.424300  0.867300  1
  H  H509  1  0.325700  0.995200  0.117300  1
  H  H510  1  0.174300  0.004800  0.617300  1
  H  H511  1  0.254800  0.075700  0.867300  1
  H  H512  1  0.245200  0.924300  0.367300  1
  H  H513  1  0.208900  0.583500  0.468800  1
  H  H514  1  0.291100  0.416500  0.968800  1
  H  H515  1  0.166500  0.458900  0.718800  1
  H  H516  1  0.333500  0.541100  0.218800  1
  H  H517  1  0.708900  0.083500  0.968800  1
  H  H518  1  0.791100  0.916500  0.468800  1
  H  H519  1  0.666500  0.958900  0.218800  1
  H  H520  1  0.833500  0.041100  0.718800  1
  H  H521  1  0.791100  0.416500  0.531200  1
  H  H522  1  0.708900  0.583500  0.031200  1
  H  H523  1  0.833500  0.541100  0.281200  1
  H  H524  1  0.666500  0.458900  0.781200  1
  H  H525  1  0.291100  0.916500  0.031200  1
  H  H526  1  0.208900  0.083500  0.531200  1
  H  H527  1  0.333500  0.041100  0.781200  1
  H  H528  1  0.166500  0.958900  0.281200  1
  H  H529  1  0.265700  0.597900  0.454700  1
  H  H530  1  0.234300  0.402100  0.954700  1
  H  H531  1  0.152100  0.515700  0.704700  1
  H  H532  1  0.347900  0.484300  0.204700  1
  H  H533  1  0.765700  0.097900  0.954700  1
  H  H534  1  0.734300  0.902100  0.454700  1
  H  H535  1  0.652100  0.015700  0.204700  1
  H  H536  1  0.847900  0.984300  0.704700  1
  H  H537  1  0.734300  0.402100  0.545300  1
  H  H538  1  0.765700  0.597900  0.045300  1
  H  H539  1  0.847900  0.484300  0.295300  1
  H  H540  1  0.652100  0.515700  0.795300  1
  H  H541  1  0.234300  0.902100  0.045300  1
  H  H542  1  0.265700  0.097900  0.545300  1
  H  H543  1  0.347900  0.984300  0.795300  1
  H  H544  1  0.152100  0.015700  0.295300  1
  H  H545  1  0.252000  0.540300  0.467200  1
  H  H546  1  0.248000  0.459700  0.967200  1
  H  H547  1  0.209700  0.502000  0.717200  1
  H  H548  1  0.290300  0.498000  0.217200  1
  H  H549  1  0.752000  0.040300  0.967200  1
  H  H550  1  0.748000  0.959700  0.467200  1
  H  H551  1  0.709700  0.002000  0.217200  1
  H  H552  1  0.790300  0.998000  0.717200  1
  H  H553  1  0.748000  0.459700  0.532800  1
  H  H554  1  0.752000  0.540300  0.032800  1
  H  H555  1  0.790300  0.498000  0.282800  1
  H  H556  1  0.709700  0.502000  0.782800  1
  H  H557  1  0.248000  0.959700  0.032800  1
  H  H558  1  0.252000  0.040300  0.532800  1
  H  H559  1  0.290300  0.998000  0.782800  1
  H  H560  1  0.209700  0.002000  0.282800  1
  H  H561  1  0.178800  0.620300  0.403700  1
  H  H562  1  0.321200  0.379700  0.903700  1
  H  H563  1  0.129700  0.428800  0.653700  1
  H  H564  1  0.370300  0.571200  0.153700  1
  H  H565  1  0.678800  0.120300  0.903700  1
  H  H566  1  0.821200  0.879700  0.403700  1
  H  H567  1  0.629700  0.928800  0.153700  1
  H  H568  1  0.870300  0.071200  0.653700  1
  H  H569  1  0.821200  0.379700  0.596300  1
  H  H570  1  0.678800  0.620300  0.096300  1
  H  H571  1  0.870300  0.571200  0.346300  1
  H  H572  1  0.629700  0.428800  0.846300  1
  H  H573  1  0.321200  0.879700  0.096300  1
  H  H574  1  0.178800  0.120300  0.596300  1
  H  H575  1  0.370300  0.071200  0.846300  1
  H  H576  1  0.129700  0.928800  0.346300  1
  H  H577  1  0.185500  0.589900  0.360000  1
  H  H578  1  0.314500  0.410100  0.860000  1
  H  H579  1  0.160100  0.435500  0.610000  1
  H  H580  1  0.339900  0.564500  0.110000  1
  H  H581  1  0.685500  0.089900  0.860000  1
  H  H582  1  0.814500  0.910100  0.360000  1
  H  H583  1  0.660100  0.935500  0.110000  1
  H  H584  1  0.839900  0.064500  0.610000  1
  H  H585  1  0.814500  0.410100  0.640000  1
  H  H586  1  0.685500  0.589900  0.140000  1
  H  H587  1  0.839900  0.564500  0.390000  1
  H  H588  1  0.660100  0.435500  0.890000  1
  H  H589  1  0.314500  0.910100  0.140000  1
  H  H590  1  0.185500  0.089900  0.640000  1
  H  H591  1  0.339900  0.064500  0.890000  1
  H  H592  1  0.160100  0.935500  0.390000  1
  H  H593  1  0.259900  0.651600  0.399200  1
  H  H594  1  0.240100  0.348400  0.899200  1
  H  H595  1  0.098400  0.509900  0.649200  1
  H  H596  1  0.401600  0.490100  0.149200  1
  H  H597  1  0.759900  0.151600  0.899200  1
  H  H598  1  0.740100  0.848400  0.399200  1
  H  H599  1  0.598400  0.009900  0.149200  1
  H  H600  1  0.901600  0.990100  0.649200  1
  H  H601  1  0.740100  0.348400  0.600800  1
  H  H602  1  0.759900  0.651600  0.100800  1
  H  H603  1  0.901600  0.490100  0.350800  1
  H  H604  1  0.598400  0.509900  0.850800  1
  H  H605  1  0.240100  0.848400  0.100800  1
  H  H606  1  0.259900  0.151600  0.600800  1
  H  H607  1  0.401600  0.990100  0.850800  1
  H  H608  1  0.098400  0.009900  0.350800  1
  H  H609  1  0.230800  0.664500  0.355900  1
  H  H610  1  0.269200  0.335500  0.855900  1
  H  H611  1  0.085500  0.480800  0.605900  1
  H  H612  1  0.414500  0.519200  0.105900  1
  H  H613  1  0.730800  0.164500  0.855900  1
  H  H614  1  0.769200  0.835500  0.355900  1
  H  H615  1  0.585500  0.980800  0.105900  1
  H  H616  1  0.914500  0.019200  0.605900  1
  H  H617  1  0.769200  0.335500  0.644100  1
  H  H618  1  0.730800  0.664500  0.144100  1
  H  H619  1  0.914500  0.519200  0.394100  1
  H  H620  1  0.585500  0.480800  0.894100  1
  H  H621  1  0.269200  0.835500  0.144100  1
  H  H622  1  0.230800  0.164500  0.644100  1
  H  H623  1  0.414500  0.019200  0.894100  1
  H  H624  1  0.085500  0.980800  0.394100  1
  H  H625  1  0.333700  0.671200  0.353800  1
  H  H626  1  0.166300  0.328800  0.853800  1
  H  H627  1  0.078800  0.583700  0.603800  1
  H  H628  1  0.421200  0.416300  0.103800  1
  H  H629  1  0.833700  0.171200  0.853800  1
  H  H630  1  0.666300  0.828800  0.353800  1
  H  H631  1  0.578800  0.083700  0.103800  1
  H  H632  1  0.921200  0.916300  0.603800  1
  H  H633  1  0.666300  0.328800  0.646200  1
  H  H634  1  0.833700  0.671200  0.146200  1
  H  H635  1  0.921200  0.416300  0.396200  1
  H  H636  1  0.578800  0.583700  0.896200  1
  H  H637  1  0.166300  0.828800  0.146200  1
  H  H638  1  0.333700  0.171200  0.646200  1
  H  H639  1  0.421200  0.916300  0.896200  1
  H  H640  1  0.078800  0.083700  0.396200  1
  H  H641  1  0.365500  0.620100  0.361900  1
  H  H642  1  0.134500  0.379900  0.861900  1
  H  H643  1  0.129900  0.615500  0.611900  1
  H  H644  1  0.370100  0.384500  0.111900  1
  H  H645  1  0.865500  0.120100  0.861900  1
  H  H646  1  0.634500  0.879900  0.361900  1
  H  H647  1  0.629900  0.115500  0.111900  1
  H  H648  1  0.870100  0.884500  0.611900  1
  H  H649  1  0.634500  0.379900  0.638100  1
  H  H650  1  0.865500  0.620100  0.138100  1
  H  H651  1  0.870100  0.384500  0.388100  1
  H  H652  1  0.629900  0.615500  0.888100  1
  H  H653  1  0.134500  0.879900  0.138100  1
  H  H654  1  0.365500  0.120100  0.638100  1
  H  H655  1  0.370100  0.884500  0.888100  1
  H  H656  1  0.129900  0.115500  0.388100  1
  H  H657  1  0.327200  0.640900  0.397300  1
  H  H658  1  0.172800  0.359100  0.897300  1
  H  H659  1  0.109100  0.577200  0.647300  1
  H  H660  1  0.390900  0.422800  0.147300  1
  H  H661  1  0.827200  0.140900  0.897300  1
  H  H662  1  0.672800  0.859100  0.397300  1
  H  H663  1  0.609100  0.077200  0.147300  1
  H  H664  1  0.890900  0.922800  0.647300  1
  H  H665  1  0.672800  0.359100  0.602700  1
  H  H666  1  0.827200  0.640900  0.102700  1
  H  H667  1  0.890900  0.422800  0.352700  1
  H  H668  1  0.609100  0.577200  0.852700  1
  H  H669  1  0.172800  0.859100  0.102700  1
  H  H670  1  0.327200  0.140900  0.602700  1
  H  H671  1  0.390900  0.922800  0.852700  1
  H  H672  1  0.109100  0.077200  0.352700  1
  H  H673  1  0.270300  0.634600  0.291700  1
  H  H674  1  0.229700  0.365400  0.791700  1
  H  H675  1  0.115400  0.520300  0.541700  1
  H  H676  1  0.384600  0.479700  0.041700  1
  H  H677  1  0.770300  0.134600  0.791700  1
  H  H678  1  0.729700  0.865400  0.291700  1
  H  H679  1  0.615400  0.020300  0.041700  1
  H  H680  1  0.884600  0.979700  0.541700  1
  H  H681  1  0.729700  0.365400  0.708300  1
  H  H682  1  0.770300  0.634600  0.208300  1
  H  H683  1  0.884600  0.479700  0.458300  1
  H  H684  1  0.615400  0.520300  0.958300  1
  H  H685  1  0.229700  0.865400  0.208300  1
  H  H686  1  0.270300  0.134600  0.708300  1
  H  H687  1  0.384600  0.979700  0.958300  1
  H  H688  1  0.115400  0.020300  0.458300  1
  H  H689  1  0.236300  0.586400  0.304900  1
  H  H690  1  0.263700  0.413600  0.804900  1
  H  H691  1  0.163600  0.486300  0.554900  1
  H  H692  1  0.336400  0.513700  0.054900  1
  H  H693  1  0.736300  0.086400  0.804900  1
  H  H694  1  0.763700  0.913600  0.304900  1
  H  H695  1  0.663600  0.986300  0.054900  1
  H  H696  1  0.836400  0.013700  0.554900  1
  H  H697  1  0.763700  0.413600  0.695100  1
  H  H698  1  0.736300  0.586400  0.195100  1
  H  H699  1  0.836400  0.513700  0.445100  1
  H  H700  1  0.663600  0.486300  0.945100  1
  H  H701  1  0.263700  0.913600  0.195100  1
  H  H702  1  0.236300  0.086400  0.695100  1
  H  H703  1  0.336400  0.013700  0.945100  1
  H  H704  1  0.163600  0.986300  0.445100  1
  H  H705  1  0.293700  0.578300  0.288900  1
  H  H706  1  0.206300  0.421700  0.788900  1
  H  H707  1  0.171700  0.543700  0.538900  1
  H  H708  1  0.328300  0.456300  0.038900  1
  H  H709  1  0.793700  0.078300  0.788900  1
  H  H710  1  0.706300  0.921700  0.288900  1
  H  H711  1  0.671700  0.043700  0.038900  1
  H  H712  1  0.828300  0.956300  0.538900  1
  H  H713  1  0.706300  0.421700  0.711100  1
  H  H714  1  0.793700  0.578300  0.211100  1
  H  H715  1  0.828300  0.456300  0.461100  1
  H  H716  1  0.671700  0.543700  0.961100  1
  H  H717  1  0.206300  0.921700  0.211100  1
  H  H718  1  0.293700  0.078300  0.711100  1
  H  H719  1  0.328300  0.956300  0.961100  1
  H  H720  1  0.171700  0.043700  0.461100  1
  H  H721  1  0.434000  0.314800  0.136800  1.0
  H  H722  1  0.066000  0.685200  0.636800  1.0
  H  H723  1  0.435200  0.684000  0.386800  1.0
  H  H724  1  0.064800  0.316000  0.886800  1.0
  H  H725  1  0.934000  0.814800  0.636800  1.0
  H  H726  1  0.566000  0.185200  0.136800  1.0
  H  H727  1  0.935200  0.184000  0.886800  1.0
  H  H728  1  0.564800  0.816000  0.386800  1.0
  H  H729  1  0.566000  0.685200  0.863200  1.0
  H  H730  1  0.934000  0.314800  0.363200  1.0
  H  H731  1  0.564800  0.316000  0.613200  1.0
  H  H732  1  0.935200  0.684000  0.113200  1.0
  H  H733  1  0.066000  0.185200  0.363200  1.0
  H  H734  1  0.434000  0.814800  0.863200  1.0
  H  H735  1  0.064800  0.816000  0.113200  1.0
  H  H736  1  0.435200  0.184000  0.613200  1.0
  H  H737  1  0.439900  0.367800  0.195400  1.0
  H  H738  1  0.060100  0.632200  0.695400  1.0
  H  H739  1  0.382200  0.689900  0.445400  1.0
  H  H740  1  0.117800  0.310100  0.945400  1.0
  H  H741  1  0.939900  0.867800  0.695400  1.0
  H  H742  1  0.560100  0.132200  0.195400  1.0
  H  H743  1  0.882200  0.189900  0.945400  1.0
  H  H744  1  0.617800  0.810100  0.445400  1.0
  H  H745  1  0.560100  0.632200  0.804600  1.0
  H  H746  1  0.939900  0.367800  0.304600  1.0
  H  H747  1  0.617800  0.310100  0.554600  1.0
  H  H748  1  0.882200  0.689900  0.054600  1.0
  H  H749  1  0.060100  0.132200  0.304600  1.0
  H  H750  1  0.439900  0.867800  0.804600  1.0
  H  H751  1  0.117800  0.810100  0.054600  1.0
  H  H752  1  0.382200  0.189900  0.554600  1.0
  H  H753  1  0.592600  0.349400  0.193200  1.0
  H  H754  1  0.907400  0.650600  0.693200  1.0
  H  H755  1  0.400600  0.842600  0.443200  1.0
  H  H756  1  0.099400  0.157400  0.943200  1.0
  H  H757  1  0.092600  0.849400  0.693200  1.0
  H  H758  1  0.407400  0.150600  0.193200  1.0
  H  H759  1  0.900600  0.342600  0.943200  1.0
  H  H760  1  0.599400  0.657400  0.443200  1.0
  H  H761  1  0.407400  0.650600  0.806800  1.0
  H  H762  1  0.092600  0.349400  0.306800  1.0
  H  H763  1  0.599400  0.157400  0.556800  1.0
  H  H764  1  0.900600  0.842600  0.056800  1.0
  H  H765  1  0.907400  0.150600  0.306800  1.0
  H  H766  1  0.592600  0.849400  0.806800  1.0
  H  H767  1  0.099400  0.657400  0.056800  1.0
  H  H768  1  0.400600  0.342600  0.556800  1.0
  H  H769  1  0.583600  0.297100  0.134500  1.0
  H  H770  1  0.916400  0.702900  0.634500  1.0
  H  H771  1  0.452900  0.833600  0.384500  1.0
  H  H772  1  0.047100  0.166400  0.884500  1.0
  H  H773  1  0.083600  0.797100  0.634500  1.0
  H  H774  1  0.416400  0.202900  0.134500  1.0
  H  H775  1  0.952900  0.333600  0.884500  1.0
  H  H776  1  0.547100  0.666400  0.384500  1.0
  H  H777  1  0.416400  0.702900  0.865500  1.0
  H  H778  1  0.083600  0.297100  0.365500  1.0
  H  H779  1  0.547100  0.166400  0.615500  1.0
  H  H780  1  0.952900  0.833600  0.115500  1.0
  H  H781  1  0.916400  0.202900  0.365500  1.0
  H  H782  1  0.583600  0.797100  0.865500  1.0
  H  H783  1  0.047100  0.666400  0.115500  1.0
  H  H784  1  0.452900  0.333600  0.615500  1.0
  H  H785  1  0.402600  0.539500  0.386500  1.0
  H  H786  1  0.097400  0.460500  0.886500  1.0
  H  H787  1  0.210500  0.652600  0.636500  1.0
  H  H788  1  0.289500  0.347400  0.136500  1.0
  H  H789  1  0.902600  0.039500  0.886500  1.0
  H  H790  1  0.597400  0.960500  0.386500  1.0
  H  H791  1  0.710500  0.152600  0.136500  1.0
  H  H792  1  0.789500  0.847400  0.636500  1.0
  H  H793  1  0.597400  0.460500  0.613500  1.0
  H  H794  1  0.902600  0.539500  0.113500  1.0
  H  H795  1  0.789500  0.347400  0.363500  1.0
  H  H796  1  0.710500  0.652600  0.863500  1.0
  H  H797  1  0.097400  0.960500  0.113500  1.0
  H  H798  1  0.402600  0.039500  0.613500  1.0
  H  H799  1  0.289500  0.847400  0.863500  1.0
  H  H800  1  0.210500  0.152600  0.363500  1.0
  H  H801  1  0.475000  0.503600  0.357300  1.0
  H  H802  1  0.025000  0.496400  0.857300  1.0
  H  H803  1  0.246400  0.725000  0.607300  1.0
  H  H804  1  0.253600  0.275000  0.107300  1.0
  H  H805  1  0.975000  0.003600  0.857300  1.0
  H  H806  1  0.525000  0.996400  0.357300  1.0
  H  H807  1  0.746400  0.225000  0.107300  1.0
  H  H808  1  0.753600  0.775000  0.607300  1.0
  H  H809  1  0.525000  0.496400  0.642700  1.0
  H  H810  1  0.975000  0.503600  0.142700  1.0
  H  H811  1  0.753600  0.275000  0.392700  1.0
  H  H812  1  0.746400  0.725000  0.892700  1.0
  H  H813  1  0.025000  0.996400  0.142700  1.0
  H  H814  1  0.475000  0.003600  0.642700  1.0
  H  H815  1  0.253600  0.775000  0.892700  1.0
  H  H816  1  0.246400  0.225000  0.392700  1.0
  H  H817  1  0.387100  0.438000  0.267100  1.0
  H  H818  1  0.112900  0.562000  0.767100  1.0
  H  H819  1  0.312000  0.637100  0.517100  1.0
  H  H820  1  0.188000  0.362900  0.017100  1.0
  H  H821  1  0.887100  0.938000  0.767100  1.0
  H  H822  1  0.612900  0.062000  0.267100  1.0
  H  H823  1  0.812000  0.137100  0.017100  1.0
  H  H824  1  0.688000  0.862900  0.517100  1.0
  H  H825  1  0.612900  0.562000  0.732900  1.0
  H  H826  1  0.887100  0.438000  0.232900  1.0
  H  H827  1  0.688000  0.362900  0.482900  1.0
  H  H828  1  0.812000  0.637100  0.982900  1.0
  H  H829  1  0.112900  0.062000  0.232900  1.0
  H  H830  1  0.387100  0.938000  0.732900  1.0
  H  H831  1  0.188000  0.862900  0.982900  1.0
  H  H832  1  0.312000  0.137100  0.482900  1.0
  H  H833  1  0.315800  0.475200  0.299100  1.0
  H  H834  1  0.184200  0.524800  0.799100  1.0
  H  H835  1  0.274800  0.565800  0.549100  1.0
  H  H836  1  0.225200  0.434200  0.049100  1.0
  H  H837  1  0.815800  0.975200  0.799100  1.0
  H  H838  1  0.684200  0.024800  0.299100  1.0
  H  H839  1  0.774800  0.065800  0.049100  1.0
  H  H840  1  0.725200  0.934200  0.549100  1.0
  H  H841  1  0.684200  0.524800  0.700900  1.0
  H  H842  1  0.815800  0.475200  0.200900  1.0
  H  H843  1  0.725200  0.434200  0.450900  1.0
  H  H844  1  0.774800  0.565800  0.950900  1.0
  H  H845  1  0.184200  0.024800  0.200900  1.0
  H  H846  1  0.315800  0.975200  0.700900  1.0
  H  H847  1  0.225200  0.934200  0.950900  1.0
  H  H848  1  0.274800  0.065800  0.450900  1.0
  H  H849  1  0.252500  0.427800  0.363300  1.0
  H  H850  1  0.247500  0.572200  0.863300  1.0
  H  H851  1  0.322200  0.502500  0.613300  1.0
  H  H852  1  0.177800  0.497500  0.113300  1.0
  H  H853  1  0.752500  0.927800  0.863300  1.0
  H  H854  1  0.747500  0.072200  0.363300  1.0
  H  H855  1  0.822200  0.002500  0.113300  1.0
  H  H856  1  0.677800  0.997500  0.613300  1.0
  H  H857  1  0.747500  0.572200  0.636700  1.0
  H  H858  1  0.752500  0.427800  0.136700  1.0
  H  H859  1  0.677800  0.497500  0.386700  1.0
  H  H860  1  0.822200  0.502500  0.886700  1.0
  H  H861  1  0.247500  0.072200  0.136700  1.0
  H  H862  1  0.252500  0.927800  0.636700  1.0
  H  H863  1  0.177800  0.997500  0.886700  1.0
  H  H864  1  0.322200  0.002500  0.386700  1.0
  H  H865  1  0.264600  0.347400  0.393000  1.0
  H  H866  1  0.235400  0.652600  0.893000  1.0
  H  H867  1  0.402600  0.514600  0.643000  1.0
  H  H868  1  0.097400  0.485400  0.143000  1.0
  H  H869  1  0.764600  0.847400  0.893000  1.0
  H  H870  1  0.735400  0.152600  0.393000  1.0
  H  H871  1  0.902600  0.014600  0.143000  1.0
  H  H872  1  0.597400  0.985400  0.643000  1.0
  H  H873  1  0.735400  0.652600  0.607000  1.0
  H  H874  1  0.764600  0.347400  0.107000  1.0
  H  H875  1  0.597400  0.485400  0.357000  1.0
  H  H876  1  0.902600  0.514600  0.857000  1.0
  H  H877  1  0.235400  0.152600  0.107000  1.0
  H  H878  1  0.264600  0.847400  0.607000  1.0
  H  H879  1  0.097400  0.985400  0.857000  1.0
  H  H880  1  0.402600  0.014600  0.357000  1.0
  H  H881  1  0.346900  0.412100  0.485700  1.0
  H  H882  1  0.153100  0.587900  0.985700  1.0
  H  H883  1  0.337900  0.596900  0.735700  1.0
  H  H884  1  0.162100  0.403100  0.235700  1.0
  H  H885  1  0.846900  0.912100  0.985700  1.0
  H  H886  1  0.653100  0.087900  0.485700  1.0
  H  H887  1  0.837900  0.096900  0.235700  1.0
  H  H888  1  0.662100  0.903100  0.735700  1.0
  H  H889  1  0.653100  0.587900  0.514300  1.0
  H  H890  1  0.846900  0.412100  0.014300  1.0
  H  H891  1  0.662100  0.403100  0.264300  1.0
  H  H892  1  0.837900  0.596900  0.764300  1.0
  H  H893  1  0.153100  0.087900  0.014300  1.0
  H  H894  1  0.346900  0.912100  0.514300  1.0
  H  H895  1  0.162100  0.903100  0.764300  1.0
  H  H896  1  0.337900  0.096900  0.264300  1.0
  H  H897  1  0.332700  0.490800  0.455100  1.0
  H  H898  1  0.167300  0.509200  0.955100  1.0
  H  H899  1  0.259200  0.582700  0.705100  1.0
  H  H900  1  0.240800  0.417300  0.205100  1.0
  H  H901  1  0.832700  0.990800  0.955100  1.0
  H  H902  1  0.667300  0.009200  0.455100  1.0
  H  H903  1  0.759200  0.082700  0.205100  1.0
  H  H904  1  0.740800  0.917300  0.705100  1.0
  H  H905  1  0.667300  0.509200  0.544900  1.0
  H  H906  1  0.832700  0.490800  0.044900  1.0
  H  H907  1  0.740800  0.417300  0.294900  1.0
  H  H908  1  0.759200  0.582700  0.794900  1.0
  H  H909  1  0.167300  0.009200  0.044900  1.0
  H  H910  1  0.332700  0.990800  0.544900  1.0
  H  H911  1  0.240800  0.917300  0.794900  1.0
  H  H912  1  0.259200  0.082700  0.294900  1.0
  H  H913  1  0.149900  0.547700  0.405100  1.0
  H  H914  1  0.350100  0.452300  0.905100  1.0
  H  H915  1  0.202300  0.399900  0.655100  1.0
  H  H916  1  0.297700  0.600100  0.155100  1.0
  H  H917  1  0.649900  0.047700  0.905100  1.0
  H  H918  1  0.850100  0.952300  0.405100  1.0
  H  H919  1  0.702300  0.899900  0.155100  1.0
  H  H920  1  0.797700  0.100100  0.655100  1.0
  H  H921  1  0.850100  0.452300  0.594900  1.0
  H  H922  1  0.649900  0.547700  0.094900  1.0
  H  H923  1  0.797700  0.600100  0.344900  1.0
  H  H924  1  0.702300  0.399900  0.844900  1.0
  H  H925  1  0.350100  0.952300  0.094900  1.0
  H  H926  1  0.149900  0.047700  0.594900  1.0
  H  H927  1  0.297700  0.100100  0.844900  1.0
  H  H928  1  0.202300  0.899900  0.344900  1.0
  H  H929  1  0.183400  0.498600  0.393600  1.0
  H  H930  1  0.316600  0.501400  0.893600  1.0
  H  H931  1  0.251400  0.433400  0.643600  1.0
  H  H932  1  0.248600  0.566600  0.143600  1.0
  H  H933  1  0.683400  0.998600  0.893600  1.0
  H  H934  1  0.816600  0.001400  0.393600  1.0
  H  H935  1  0.751400  0.933400  0.143600  1.0
  H  H936  1  0.748600  0.066600  0.643600  1.0
  H  H937  1  0.816600  0.501400  0.606400  1.0
  H  H938  1  0.683400  0.498600  0.106400  1.0
  H  H939  1  0.748600  0.566600  0.356400  1.0
  H  H940  1  0.751400  0.433400  0.856400  1.0
  H  H941  1  0.316600  0.001400  0.106400  1.0
  H  H942  1  0.183400  0.998600  0.606400  1.0
  H  H943  1  0.248600  0.066600  0.856400  1.0
  H  H944  1  0.251400  0.933400  0.356400  1.0
  H  H945  1  0.177600  0.544000  0.360100  1.0
  H  H946  1  0.322400  0.456000  0.860100  1.0
  H  H947  1  0.206000  0.427600  0.610100  1.0
  H  H948  1  0.294000  0.572400  0.110100  1.0
  H  H949  1  0.677600  0.044000  0.860100  1.0
  H  H950  1  0.822400  0.956000  0.360100  1.0
  H  H951  1  0.706000  0.927600  0.110100  1.0
  H  H952  1  0.794000  0.072400  0.610100  1.0
  H  H953  1  0.822400  0.456000  0.639900  1.0
  H  H954  1  0.677600  0.544000  0.139900  1.0
  H  H955  1  0.794000  0.572400  0.389900  1.0
  H  H956  1  0.706000  0.427600  0.889900  1.0
  H  H957  1  0.322400  0.956000  0.139900  1.0
  H  H958  1  0.177600  0.044000  0.639900  1.0
  H  H959  1  0.294000  0.072400  0.889900  1.0
  H  H960  1  0.206000  0.927600  0.389900  1.0
  H  H961  1  0.196900  0.568000  0.465900  1.0
  H  H962  1  0.303100  0.432000  0.965900  1.0
  H  H963  1  0.182000  0.446900  0.715900  1.0
  H  H964  1  0.318000  0.553100  0.215900  1.0
  H  H965  1  0.696900  0.068000  0.965900  1.0
  H  H966  1  0.803100  0.932000  0.465900  1.0
  H  H967  1  0.682000  0.946900  0.215900  1.0
  H  H968  1  0.818000  0.053100  0.715900  1.0
  H  H969  1  0.803100  0.432000  0.534100  1.0
  H  H970  1  0.696900  0.568000  0.034100  1.0
  H  H971  1  0.818000  0.553100  0.284100  1.0
  H  H972  1  0.682000  0.446900  0.784100  1.0
  H  H973  1  0.303100  0.932000  0.034100  1.0
  H  H974  1  0.196900  0.068000  0.534100  1.0
  H  H975  1  0.318000  0.053100  0.784100  1.0
  H  H976  1  0.182000  0.946900  0.284100  1.0
  H  H977  1  0.257400  0.575500  0.463700  1.0
  H  H978  1  0.242600  0.424500  0.963700  1.0
  H  H979  1  0.174500  0.507400  0.713700  1.0
  H  H980  1  0.325500  0.492600  0.213700  1.0
  H  H981  1  0.757400  0.075500  0.963700  1.0
  H  H982  1  0.742600  0.924500  0.463700  1.0
  H  H983  1  0.674500  0.007400  0.213700  1.0
  H  H984  1  0.825500  0.992600  0.713700  1.0
  H  H985  1  0.742600  0.424500  0.536300  1.0
  H  H986  1  0.757400  0.575500  0.036300  1.0
  H  H987  1  0.825500  0.492600  0.286300  1.0
  H  H988  1  0.674500  0.507400  0.786300  1.0
  H  H989  1  0.242600  0.924500  0.036300  1.0
  H  H990  1  0.257400  0.075500  0.536300  1.0
  H  H991  1  0.325500  0.992600  0.786300  1.0
  H  H992  1  0.174500  0.007400  0.286300  1.0
  H  H993  1  0.233400  0.519500  0.460700  1.0
  H  H994  1  0.266600  0.480500  0.960700  1.0
  H  H995  1  0.230500  0.483400  0.710700  1.0
  H  H996  1  0.269500  0.516600  0.210700  1.0
  H  H997  1  0.733400  0.019500  0.960700  1.0
  H  H998  1  0.766600  0.980500  0.460700  1.0
  H  H999  1  0.730500  0.983400  0.210700  1.0
  H  H1000  1  0.769500  0.016600  0.710700  1.0
  H  H1001  1  0.766600  0.480500  0.539300  1.0
  H  H1002  1  0.733400  0.519500  0.039300  1.0
  H  H1003  1  0.769500  0.516600  0.289300  1.0
  H  H1004  1  0.730500  0.483400  0.789300  1.0
  H  H1005  1  0.266600  0.980500  0.039300  1.0
  H  H1006  1  0.233400  0.019500  0.539300  1.0
  H  H1007  1  0.269500  0.016600  0.789300  1.0
  H  H1008  1  0.230500  0.983400  0.289300  1.0
  H  H1009  1  0.189900  0.632700  0.402500  1.0
  H  H1010  1  0.310100  0.367300  0.902500  1.0
  H  H1011  1  0.117300  0.439900  0.652500  1.0
  H  H1012  1  0.382700  0.560100  0.152500  1.0
  H  H1013  1  0.689900  0.132700  0.902500  1.0
  H  H1014  1  0.810100  0.867300  0.402500  1.0
  H  H1015  1  0.617300  0.939900  0.152500  1.0
  H  H1016  1  0.882700  0.060100  0.652500  1.0
  H  H1017  1  0.810100  0.367300  0.597500  1.0
  H  H1018  1  0.689900  0.632700  0.097500  1.0
  H  H1019  1  0.882700  0.560100  0.347500  1.0
  H  H1020  1  0.617300  0.439900  0.847500  1.0
  H  H1021  1  0.310100  0.867300  0.097500  1.0
  H  H1022  1  0.189900  0.132700  0.597500  1.0
  H  H1023  1  0.382700  0.060100  0.847500  1.0
  H  H1024  1  0.117300  0.939900  0.347500  1.0
  H  H1025  1  0.248900  0.637200  0.415300  1.0
  H  H1026  1  0.251100  0.362800  0.915300  1.0
  H  H1027  1  0.112800  0.498900  0.665300  1.0
  H  H1028  1  0.387200  0.501100  0.165300  1.0
  H  H1029  1  0.748900  0.137200  0.915300  1.0
  H  H1030  1  0.751100  0.862800  0.415300  1.0
  H  H1031  1  0.612800  0.998900  0.165300  1.0
  H  H1032  1  0.887200  0.001100  0.665300  1.0
  H  H1033  1  0.751100  0.362800  0.584700  1.0
  H  H1034  1  0.748900  0.637200  0.084700  1.0
  H  H1035  1  0.887200  0.501100  0.334700  1.0
  H  H1036  1  0.612800  0.498900  0.834700  1.0
  H  H1037  1  0.251100  0.862800  0.084700  1.0
  H  H1038  1  0.248900  0.137200  0.584700  1.0
  H  H1039  1  0.387200  0.001100  0.834700  1.0
  H  H1040  1  0.112800  0.998900  0.334700  1.0
  H  H1041  1  0.213600  0.607900  0.333333  1.0
  H  H1042  1  0.286400  0.392100  0.833333  1.0
  H  H1043  1  0.142100  0.463600  0.583333  1.0
  H  H1044  1  0.357900  0.536400  0.083333  1.0
  H  H1045  1  0.713600  0.107900  0.833333  1.0
  H  H1046  1  0.786400  0.892100  0.333333  1.0
  H  H1047  1  0.642100  0.963600  0.083333  1.0
  H  H1048  1  0.857900  0.036400  0.583333  1.0
  H  H1049  1  0.786400  0.392100  0.666667  1.0
  H  H1050  1  0.713600  0.607900  0.166667  1.0
  H  H1051  1  0.857900  0.536400  0.416667  1.0
  H  H1052  1  0.642100  0.463600  0.916667  1.0
  H  H1053  1  0.286400  0.892100  0.166667  1.0
  H  H1054  1  0.213600  0.107900  0.666667  1.0
  H  H1055  1  0.357900  0.036400  0.916667  1.0
  H  H1056  1  0.142100  0.963600  0.416667  1.0
  H  H1057  1  0.237900  0.662600  0.344300  1.0
  H  H1058  1  0.262100  0.337400  0.844300  1.0
  H  H1059  1  0.087400  0.487900  0.594300  1.0
  H  H1060  1  0.412600  0.512100  0.094300  1.0
  H  H1061  1  0.737900  0.162600  0.844300  1.0
  H  H1062  1  0.762100  0.837400  0.344300  1.0
  H  H1063  1  0.587400  0.987900  0.094300  1.0
  H  H1064  1  0.912600  0.012100  0.594300  1.0
  H  H1065  1  0.762100  0.337400  0.655700  1.0
  H  H1066  1  0.737900  0.662600  0.155700  1.0
  H  H1067  1  0.912600  0.512100  0.405700  1.0
  H  H1068  1  0.587400  0.487900  0.905700  1.0
  H  H1069  1  0.262100  0.837400  0.155700  1.0
  H  H1070  1  0.237900  0.162600  0.655700  1.0
  H  H1071  1  0.412600  0.012100  0.905700  1.0
  H  H1072  1  0.087400  0.987900  0.405700  1.0
  H  H1073  1  0.327700  0.668200  0.341000  1.0
  H  H1074  1  0.172300  0.331800  0.841000  1.0
  H  H1075  1  0.081800  0.577700  0.591000  1.0
  H  H1076  1  0.418200  0.422300  0.091000  1.0
  H  H1077  1  0.827700  0.168200  0.841000  1.0
  H  H1078  1  0.672300  0.831800  0.341000  1.0
  H  H1079  1  0.581800  0.077700  0.091000  1.0
  H  H1080  1  0.918200  0.922300  0.591000  1.0
  H  H1081  1  0.672300  0.331800  0.659000  1.0
  H  H1082  1  0.827700  0.668200  0.159000  1.0
  H  H1083  1  0.918200  0.422300  0.409000  1.0
  H  H1084  1  0.581800  0.577700  0.909000  1.0
  H  H1085  1  0.172300  0.831800  0.159000  1.0
  H  H1086  1  0.327700  0.168200  0.659000  1.0
  H  H1087  1  0.418200  0.922300  0.909000  1.0
  H  H1088  1  0.081800  0.077700  0.409000  1.0
  H  H1089  1  0.362000  0.618100  0.346100  1.0
  H  H1090  1  0.138000  0.381900  0.846100  1.0
  H  H1091  1  0.131900  0.612000  0.596100  1.0
  H  H1092  1  0.368100  0.388000  0.096100  1.0
  H  H1093  1  0.862000  0.118100  0.846100  1.0
  H  H1094  1  0.638000  0.881900  0.346100  1.0
  H  H1095  1  0.631900  0.112000  0.096100  1.0
  H  H1096  1  0.868100  0.888000  0.596100  1.0
  H  H1097  1  0.638000  0.381900  0.653900  1.0
  H  H1098  1  0.862000  0.618100  0.153900  1.0
  H  H1099  1  0.868100  0.388000  0.403900  1.0
  H  H1100  1  0.631900  0.612000  0.903900  1.0
  H  H1101  1  0.138000  0.881900  0.153900  1.0
  H  H1102  1  0.362000  0.118100  0.653900  1.0
  H  H1103  1  0.368100  0.888000  0.903900  1.0
  H  H1104  1  0.131900  0.112000  0.403900  1.0
  H  H1105  1  0.333000  0.641400  0.386200  1.0
  H  H1106  1  0.167000  0.358600  0.886200  1.0
  H  H1107  1  0.108600  0.583000  0.636200  1.0
  H  H1108  1  0.391400  0.417000  0.136200  1.0
  H  H1109  1  0.833000  0.141400  0.886200  1.0
  H  H1110  1  0.667000  0.858600  0.386200  1.0
  H  H1111  1  0.608600  0.083000  0.136200  1.0
  H  H1112  1  0.891400  0.917000  0.636200  1.0
  H  H1113  1  0.667000  0.358600  0.613800  1.0
  H  H1114  1  0.833000  0.641400  0.113800  1.0
  H  H1115  1  0.891400  0.417000  0.363800  1.0
  H  H1116  1  0.608600  0.583000  0.863800  1.0
  H  H1117  1  0.167000  0.858600  0.113800  1.0
  H  H1118  1  0.333000  0.141400  0.613800  1.0
  H  H1119  1  0.391400  0.917000  0.863800  1.0
  H  H1120  1  0.108600  0.083000  0.363800  1.0
  H  H1121  1  0.299000  0.635400  0.286100  1.0
  H  H1122  1  0.201000  0.364600  0.786100  1.0
  H  H1123  1  0.114600  0.549000  0.536100  1.0
  H  H1124  1  0.385400  0.451000  0.036100  1.0
  H  H1125  1  0.799000  0.135400  0.786100  1.0
  H  H1126  1  0.701000  0.864600  0.286100  1.0
  H  H1127  1  0.614600  0.049000  0.036100  1.0
  H  H1128  1  0.885400  0.951000  0.536100  1.0
  H  H1129  1  0.701000  0.364600  0.713900  1.0
  H  H1130  1  0.799000  0.635400  0.213900  1.0
  H  H1131  1  0.885400  0.451000  0.463900  1.0
  H  H1132  1  0.614600  0.549000  0.963900  1.0
  H  H1133  1  0.201000  0.864600  0.213900  1.0
  H  H1134  1  0.299000  0.135400  0.713900  1.0
  H  H1135  1  0.385400  0.951000  0.963900  1.0
  H  H1136  1  0.114600  0.049000  0.463900  1.0
  H  H1137  1  0.274200  0.579700  0.285000  1.0
  H  H1138  1  0.225800  0.420300  0.785000  1.0
  H  H1139  1  0.170300  0.524200  0.535000  1.0
  H  H1140  1  0.329700  0.475800  0.035000  1.0
  H  H1141  1  0.774200  0.079700  0.785000  1.0
  H  H1142  1  0.725800  0.920300  0.285000  1.0
  H  H1143  1  0.670300  0.024200  0.035000  1.0
  H  H1144  1  0.829700  0.975800  0.535000  1.0
  H  H1145  1  0.725800  0.420300  0.715000  1.0
  H  H1146  1  0.774200  0.579700  0.215000  1.0
  H  H1147  1  0.829700  0.475800  0.465000  1.0
  H  H1148  1  0.670300  0.524200  0.965000  1.0
  H  H1149  1  0.225800  0.920300  0.215000  1.0
  H  H1150  1  0.274200  0.079700  0.715000  1.0
  H  H1151  1  0.329700  0.975800  0.965000  1.0
  H  H1152  1  0.170300  0.024200  0.465000  1.0
  H  H1153  1  0.333800  0.586300  0.294400  1.0
  H  H1154  1  0.166200  0.413700  0.794400  1.0
  H  H1155  1  0.163700  0.583800  0.544400  1.0
  H  H1156  1  0.336300  0.416200  0.044400  1.0
  H  H1157  1  0.833800  0.086300  0.794400  1.0
  H  H1158  1  0.666200  0.913700  0.294400  1.0
  H  H1159  1  0.663700  0.083800  0.044400  1.0
  H  H1160  1  0.836300  0.916200  0.544400  1.0
  H  H1161  1  0.666200  0.413700  0.705600  1.0
  H  H1162  1  0.833800  0.586300  0.205600  1.0
  H  H1163  1  0.836300  0.416200  0.455600  1.0
  H  H1164  1  0.663700  0.583800  0.955600  1.0
  H  H1165  1  0.166200  0.913700  0.205600  1.0
  H  H1166  1  0.333800  0.086300  0.705600  1.0
  H  H1167  1  0.336300  0.916200  0.955600  1.0
  H  H1168  1  0.163700  0.083800  0.455600  1.0
  H  H1169  1  0.495000  0.204100  0.970300  1.0
  H  H1170  1  0.005000  0.795900  0.470300  1.0
  H  H1171  1  0.545900  0.745000  0.220300  1.0
  H  H1172  1  0.954100  0.255000  0.720300  1.0
  H  H1173  1  0.995000  0.704100  0.470300  1.0
  H  H1174  1  0.505000  0.295900  0.970300  1.0
  H  H1175  1  0.045900  0.245000  0.720300  1.0
  H  H1176  1  0.454100  0.755000  0.220300  1.0
  H  H1177  1  0.505000  0.795900  0.029700  1.0
  H  H1178  1  0.995000  0.204100  0.529700  1.0
  H  H1179  1  0.454100  0.255000  0.779700  1.0
  H  H1180  1  0.045900  0.745000  0.279700  1.0
  H  H1181  1  0.005000  0.295900  0.529700  1.0
  H  H1182  1  0.495000  0.704100  0.029700  1.0
  H  H1183  1  0.954100  0.755000  0.279700  1.0
  H  H1184  1  0.545900  0.245000  0.779700  1.0
  H  H1185  1  0.546700  0.220900  0.993600  1.0
  H  H1186  1  0.953300  0.779100  0.493600  1.0
  H  H1187  1  0.529100  0.796700  0.243600  1.0
  H  H1188  1  0.970900  0.203300  0.743600  1.0
  H  H1189  1  0.046700  0.720900  0.493600  1.0
  H  H1190  1  0.453300  0.279100  0.993600  1.0
  H  H1191  1  0.029100  0.296700  0.743600  1.0
  H  H1192  1  0.470900  0.703300  0.243600  1.0
  H  H1193  1  0.453300  0.779100  0.006400  1.0
  H  H1194  1  0.046700  0.220900  0.506400  1.0
  H  H1195  1  0.470900  0.203300  0.756400  1.0
  H  H1196  1  0.029100  0.796700  0.256400  1.0
  H  H1197  1  0.953300  0.279100  0.506400  1.0
  H  H1198  1  0.546700  0.720900  0.006400  1.0
  H  H1199  1  0.970900  0.703300  0.256400  1.0
  H  H1200  1  0.529100  0.296700  0.756400  1.0
  H  H1201  1  0.516300  0.126900  0.017700  1.0
  H  H1202  1  0.983700  0.873100  0.517700  1.0
  H  H1203  1  0.623100  0.766300  0.267700  1.0
  H  H1204  1  0.876900  0.233700  0.767700  1.0
  H  H1205  1  0.016300  0.626900  0.517700  1.0
  H  H1206  1  0.483700  0.373100  0.017700  1.0
  H  H1207  1  0.123100  0.266300  0.767700  1.0
  H  H1208  1  0.376900  0.733700  0.267700  1.0
  H  H1209  1  0.483700  0.873100  0.982300  1.0
  H  H1210  1  0.016300  0.126900  0.482300  1.0
  H  H1211  1  0.376900  0.233700  0.732300  1.0
  H  H1212  1  0.123100  0.766300  0.232300  1.0
  H  H1213  1  0.983700  0.373100  0.482300  1.0
  H  H1214  1  0.516300  0.626900  0.982300  1.0
  H  H1215  1  0.876900  0.733700  0.232300  1.0
  H  H1216  1  0.623100  0.266300  0.732300  1.0
  H  H1217  1  0.511100  0.133600  0.067800  1.0
  H  H1218  1  0.988900  0.866400  0.567800  1.0
  H  H1219  1  0.616400  0.761100  0.317800  1.0
  H  H1220  1  0.883600  0.238900  0.817800  1.0
  H  H1221  1  0.011100  0.633600  0.567800  1.0
  H  H1222  1  0.488900  0.366400  0.067800  1.0
  H  H1223  1  0.116400  0.261100  0.817800  1.0
  H  H1224  1  0.383600  0.738900  0.317800  1.0
  H  H1225  1  0.488900  0.866400  0.932200  1.0
  H  H1226  1  0.011100  0.133600  0.432200  1.0
  H  H1227  1  0.383600  0.238900  0.682200  1.0
  H  H1228  1  0.116400  0.761100  0.182200  1.0
  H  H1229  1  0.988900  0.366400  0.432200  1.0
  H  H1230  1  0.511100  0.633600  0.932200  1.0
  H  H1231  1  0.883600  0.738900  0.182200  1.0
  H  H1232  1  0.616400  0.261100  0.682200  1.0
  H  H1233  1  0.557900  0.159200  0.043300  1.0
  H  H1234  1  0.942100  0.840800  0.543300  1.0
  H  H1235  1  0.590800  0.807900  0.293300  1.0
  H  H1236  1  0.909200  0.192100  0.793300  1.0
  H  H1237  1  0.057900  0.659200  0.543300  1.0
  H  H1238  1  0.442100  0.340800  0.043300  1.0
  H  H1239  1  0.090800  0.307900  0.793300  1.0
  H  H1240  1  0.409200  0.692100  0.293300  1.0
  H  H1241  1  0.442100  0.840800  0.956700  1.0
  H  H1242  1  0.057900  0.159200  0.456700  1.0
  H  H1243  1  0.409200  0.192100  0.706700  1.0
  H  H1244  1  0.090800  0.807900  0.206700  1.0
  H  H1245  1  0.942100  0.340800  0.456700  1.0
  H  H1246  1  0.557900  0.659200  0.956700  1.0
  H  H1247  1  0.909200  0.692100  0.206700  1.0
  H  H1248  1  0.590800  0.307900  0.706700  1.0
  H  H1249  1  0.431800  0.157900  0.009000  1.0
  H  H1250  1  0.068200  0.842100  0.509000  1.0
  H  H1251  1  0.592100  0.681800  0.259000  1.0
  H  H1252  1  0.907900  0.318200  0.759000  1.0
  H  H1253  1  0.931800  0.657900  0.509000  1.0
  H  H1254  1  0.568200  0.342100  0.009000  1.0
  H  H1255  1  0.092100  0.181800  0.759000  1.0
  H  H1256  1  0.407900  0.818200  0.259000  1.0
  H  H1257  1  0.568200  0.842100  0.991000  1.0
  H  H1258  1  0.931800  0.157900  0.491000  1.0
  H  H1259  1  0.407900  0.318200  0.741000  1.0
  H  H1260  1  0.092100  0.681800  0.241000  1.0
  H  H1261  1  0.068200  0.342100  0.491000  1.0
  H  H1262  1  0.431800  0.657900  0.991000  1.0
  H  H1263  1  0.907900  0.818200  0.241000  1.0
  H  H1264  1  0.592100  0.181800  0.741000  1.0
  H  H1265  1  0.415600  0.213000  0.026100  1.0
  H  H1266  1  0.084400  0.787000  0.526100  1.0
  H  H1267  1  0.537000  0.665600  0.276100  1.0
  H  H1268  1  0.963000  0.334400  0.776100  1.0
  H  H1269  1  0.915600  0.713000  0.526100  1.0
  H  H1270  1  0.584400  0.287000  0.026100  1.0
  H  H1271  1  0.037000  0.165600  0.776100  1.0
  H  H1272  1  0.463000  0.834400  0.276100  1.0
  H  H1273  1  0.584400  0.787000  0.973900  1.0
  H  H1274  1  0.915600  0.213000  0.473900  1.0
  H  H1275  1  0.463000  0.334400  0.723900  1.0
  H  H1276  1  0.037000  0.665600  0.223900  1.0
  H  H1277  1  0.084400  0.287000  0.473900  1.0
  H  H1278  1  0.415600  0.713000  0.973900  1.0
  H  H1279  1  0.963000  0.834400  0.223900  1.0
  H  H1280  1  0.537000  0.165600  0.723900  1.0
  H  H1281  1  0.425300  0.167300  0.058600  1.0
  H  H1282  1  0.074700  0.832700  0.558600  1.0
  H  H1283  1  0.582700  0.675300  0.308600  1.0
  H  H1284  1  0.917300  0.324700  0.808600  1.0
  H  H1285  1  0.925300  0.667300  0.558600  1.0
  H  H1286  1  0.574700  0.332700  0.058600  1.0
  H  H1287  1  0.082700  0.175300  0.808600  1.0
  H  H1288  1  0.417300  0.824700  0.308600  1.0
  H  H1289  1  0.574700  0.832700  0.941400  1.0
  H  H1290  1  0.925300  0.167300  0.441400  1.0
  H  H1291  1  0.417300  0.324700  0.691400  1.0
  H  H1292  1  0.082700  0.675300  0.191400  1.0
  H  H1293  1  0.074700  0.332700  0.441400  1.0
  H  H1294  1  0.425300  0.667300  0.941400  1.0
  H  H1295  1  0.917300  0.824700  0.191400  1.0
  H  H1296  1  0.582700  0.175300  0.691400  1.0
  Pd  Pd1297  1  0.500000  0.250000  0.082730  1.0
  Pd  Pd1298  1  0.000000  0.750000  0.582730  1.0
  Pd  Pd1299  1  0.500000  0.750000  0.332730  1.0
  Pd  Pd1300  1  0.000000  0.250000  0.832730  1.0
  Pd  Pd1301  1  0.500000  0.750000  0.917270  1.0
  Pd  Pd1302  1  0.000000  0.250000  0.417270  1.0
  Pd  Pd1303  1  0.500000  0.250000  0.667270  1.0
  Pd  Pd1304  1  0.000000  0.750000  0.167270  1.0
  Pd  Pd1305  1  0.289481  0.535011  0.376242  1.0
  Pd  Pd1306  1  0.210519  0.464989  0.876242  1.0
  Pd  Pd1307  1  0.214989  0.539481  0.626242  1.0
  Pd  Pd1308  1  0.285011  0.460519  0.126242  1.0
  Pd  Pd1309  1  0.789481  0.035011  0.876242  1.0
  Pd  Pd1310  1  0.710519  0.964989  0.376242  1.0
  Pd  Pd1311  1  0.714989  0.039481  0.126242  1.0
  Pd  Pd1312  1  0.785011  0.960519  0.626242  1.0
  Pd  Pd1313  1  0.710519  0.464989  0.623758  1.0
  Pd  Pd1314  1  0.789481  0.535011  0.123758  1.0
  Pd  Pd1315  1  0.785011  0.460519  0.373758  1.0
  Pd  Pd1316  1  0.714989  0.539481  0.873758  1.0
  Pd  Pd1317  1  0.210519  0.964989  0.123758  1.0
  Pd  Pd1318  1  0.289481  0.035011  0.623758  1.0
  Pd  Pd1319  1  0.285011  0.960519  0.873758  1.0
  Pd  Pd1320  1  0.214989  0.039481  0.373758  1.0
  C  C1321  1  0.384500  0.215800  0.302400  1
  C  C1322  1  0.115500  0.784200  0.802400  1
  C  C1323  1  0.534200  0.634500  0.552400  1
  C  C1324  1  0.965800  0.365500  0.052400  1
  C  C1325  1  0.884500  0.715800  0.802400  1
  C  C1326  1  0.615500  0.284200  0.302400  1
  C  C1327  1  0.034200  0.134500  0.052400  1
  C  C1328  1  0.465800  0.865500  0.552400  1
  C  C1329  1  0.615500  0.784200  0.697600  1
  C  C1330  1  0.884500  0.215800  0.197600  1
  C  C1331  1  0.465800  0.365500  0.447600  1
  C  C1332  1  0.034200  0.634500  0.947600  1
  C  C1333  1  0.115500  0.284200  0.197600  1
  C  C1334  1  0.384500  0.715800  0.697600  1
  C  C1335  1  0.965800  0.865500  0.947600  1
  C  C1336  1  0.534200  0.134500  0.447600  1
  C  C1337  1  0.332600  0.244100  0.303800  1
  C  C1338  1  0.167400  0.755900  0.803800  1
  C  C1339  1  0.505900  0.582600  0.553800  1
  C  C1340  1  0.994100  0.417400  0.053800  1
  C  C1341  1  0.832600  0.744100  0.803800  1
  C  C1342  1  0.667400  0.255900  0.303800  1
  C  C1343  1  0.005900  0.082600  0.053800  1
  C  C1344  1  0.494100  0.917400  0.553800  1
  C  C1345  1  0.667400  0.755900  0.696200  1
  C  C1346  1  0.832600  0.244100  0.196200  1
  C  C1347  1  0.494100  0.417400  0.446200  1
  C  C1348  1  0.005900  0.582600  0.946200  1
  C  C1349  1  0.167400  0.255900  0.196200  1
  C  C1350  1  0.332600  0.744100  0.696200  1
  C  C1351  1  0.994100  0.917400  0.946200  1
  C  C1352  1  0.505900  0.082600  0.446200  1
  C  C1353  1  0.335200  0.292700  0.323500  1
  C  C1354  1  0.164800  0.707300  0.823500  1
  C  C1355  1  0.457300  0.585200  0.573500  1
  C  C1356  1  0.042700  0.414800  0.073500  1
  C  C1357  1  0.835200  0.792700  0.823500  1
  C  C1358  1  0.664800  0.207300  0.323500  1
  C  C1359  1  0.957300  0.085200  0.073500  1
  C  C1360  1  0.542700  0.914800  0.573500  1
  C  C1361  1  0.664800  0.707300  0.676500  1
  C  C1362  1  0.835200  0.292700  0.176500  1
  C  C1363  1  0.542700  0.414800  0.426500  1
  C  C1364  1  0.957300  0.585200  0.926500  1
  C  C1365  1  0.164800  0.207300  0.176500  1
  C  C1366  1  0.335200  0.792700  0.676500  1
  C  C1367  1  0.042700  0.914800  0.926500  1
  C  C1368  1  0.457300  0.085200  0.426500  1
  C  C1369  1  0.385200  0.310900  0.344800  1
  C  C1370  1  0.114800  0.689100  0.844800  1
  C  C1371  1  0.439100  0.635200  0.594800  1
  C  C1372  1  0.060900  0.364800  0.094800  1
  C  C1373  1  0.885200  0.810900  0.844800  1
  C  C1374  1  0.614800  0.189100  0.344800  1
  C  C1375  1  0.939100  0.135200  0.094800  1
  C  C1376  1  0.560900  0.864800  0.594800  1
  C  C1377  1  0.614800  0.689100  0.655200  1
  C  C1378  1  0.885200  0.310900  0.155200  1
  C  C1379  1  0.560900  0.364800  0.405200  1
  C  C1380  1  0.939100  0.635200  0.905200  1
  C  C1381  1  0.114800  0.189100  0.155200  1
  C  C1382  1  0.385200  0.810900  0.655200  1
  C  C1383  1  0.060900  0.864800  0.905200  1
  C  C1384  1  0.439100  0.135200  0.405200  1
  C  C1385  1  0.406600  0.263300  0.368800  1
  C  C1386  1  0.093400  0.736700  0.868800  1
  C  C1387  1  0.486700  0.656600  0.618800  1
  C  C1388  1  0.013300  0.343400  0.118800  1
  C  C1389  1  0.906600  0.763300  0.868800  1
  C  C1390  1  0.593400  0.236700  0.368800  1
  C  C1391  1  0.986700  0.156600  0.118800  1
  C  C1392  1  0.513300  0.843400  0.618800  1
  C  C1393  1  0.593400  0.736700  0.631200  1
  C  C1394  1  0.906600  0.263300  0.131200  1
  C  C1395  1  0.513300  0.343400  0.381200  1
  C  C1396  1  0.986700  0.656600  0.881200  1
  C  C1397  1  0.093400  0.236700  0.131200  1
  C  C1398  1  0.406600  0.763300  0.631200  1
  C  C1399  1  0.013300  0.843400  0.881200  1
  C  C1400  1  0.486700  0.156600  0.381200  1
  C  C1401  1  0.405200  0.215300  0.348200  1
  C  C1402  1  0.094800  0.784700  0.848200  1
  C  C1403  1  0.534700  0.655200  0.598200  1
  C  C1404  1  0.965300  0.344800  0.098200  1
  C  C1405  1  0.905200  0.715300  0.848200  1
  C  C1406  1  0.594800  0.284700  0.348200  1
  C  C1407  1  0.034700  0.155200  0.098200  1
  C  C1408  1  0.465300  0.844800  0.598200  1
  C  C1409  1  0.594800  0.784700  0.651800  1
  C  C1410  1  0.905200  0.215300  0.151800  1
  C  C1411  1  0.465300  0.344800  0.401800  1
  C  C1412  1  0.034700  0.655200  0.901800  1
  C  C1413  1  0.094800  0.284700  0.151800  1
  C  C1414  1  0.405200  0.715300  0.651800  1
  C  C1415  1  0.965300  0.844800  0.901800  1
  C  C1416  1  0.534700  0.155200  0.401800  1
  C  C1417  1  0.454000  0.125200  0.427700  1
  C  C1418  1  0.046000  0.874800  0.927700  1
  C  C1419  1  0.624800  0.704000  0.677700  1
  C  C1420  1  0.875200  0.296000  0.177700  1
  C  C1421  1  0.954000  0.625200  0.927700  1
  C  C1422  1  0.546000  0.374800  0.427700  1
  C  C1423  1  0.124800  0.204000  0.177700  1
  C  C1424  1  0.375200  0.796000  0.677700  1
  C  C1425  1  0.546000  0.874800  0.572300  1
  C  C1426  1  0.954000  0.125200  0.072300  1
  C  C1427  1  0.375200  0.296000  0.322300  1
  C  C1428  1  0.124800  0.704000  0.822300  1
  C  C1429  1  0.046000  0.374800  0.072300  1
  C  C1430  1  0.454000  0.625200  0.572300  1
  C  C1431  1  0.875200  0.796000  0.822300  1
  C  C1432  1  0.624800  0.204000  0.322300  1
  C  C1433  1  0.436600  0.175600  0.411900  1
  C  C1434  1  0.063400  0.824400  0.911900  1
  C  C1435  1  0.574400  0.686600  0.661900  1
  C  C1436  1  0.925600  0.313400  0.161900  1
  C  C1437  1  0.936600  0.675600  0.911900  1
  C  C1438  1  0.563400  0.324400  0.411900  1
  C  C1439  1  0.074400  0.186600  0.161900  1
  C  C1440  1  0.425600  0.813400  0.661900  1
  C  C1441  1  0.563400  0.824400  0.588100  1
  C  C1442  1  0.936600  0.175600  0.088100  1
  C  C1443  1  0.425600  0.313400  0.338100  1
  C  C1444  1  0.074400  0.686600  0.838100  1
  C  C1445  1  0.063400  0.324400  0.088100  1
  C  C1446  1  0.436600  0.675600  0.588100  1
  C  C1447  1  0.925600  0.813400  0.838100  1
  C  C1448  1  0.574400  0.186600  0.338100  1
  C  C1449  1  0.438000  0.223500  0.430000  1
  C  C1450  1  0.062000  0.776500  0.930000  1
  C  C1451  1  0.526500  0.688000  0.680000  1
  C  C1452  1  0.973500  0.312000  0.180000  1
  C  C1453  1  0.938000  0.723500  0.930000  1
  C  C1454  1  0.562000  0.276500  0.430000  1
  C  C1455  1  0.026500  0.188000  0.180000  1
  C  C1456  1  0.473500  0.812000  0.680000  1
  C  C1457  1  0.562000  0.776500  0.570000  1
  C  C1458  1  0.938000  0.223500  0.070000  1
  C  C1459  1  0.473500  0.312000  0.320000  1
  C  C1460  1  0.026500  0.688000  0.820000  1
  C  C1461  1  0.062000  0.276500  0.070000  1
  C  C1462  1  0.438000  0.723500  0.570000  1
  C  C1463  1  0.973500  0.812000  0.820000  1
  C  C1464  1  0.526500  0.188000  0.320000  1
  C  C1465  1  0.467300  0.217400  0.469200  1
  C  C1466  1  0.032700  0.782600  0.969200  1
  C  C1467  1  0.532600  0.717300  0.719200  1
  C  C1468  1  0.967400  0.282700  0.219200  1
  C  C1469  1  0.967300  0.717400  0.969200  1
  C  C1470  1  0.532700  0.282600  0.469200  1
  C  C1471  1  0.032600  0.217300  0.219200  1
  C  C1472  1  0.467400  0.782700  0.719200  1
  C  C1473  1  0.532700  0.782600  0.530800  1
  C  C1474  1  0.967300  0.217400  0.030800  1
  C  C1475  1  0.467400  0.282700  0.280800  1
  C  C1476  1  0.032600  0.717300  0.780800  1
  C  C1477  1  0.032700  0.282600  0.030800  1
  C  C1478  1  0.467300  0.717400  0.530800  1
  C  C1479  1  0.967400  0.782700  0.780800  1
  C  C1480  1  0.532600  0.217300  0.280800  1
  C  C1481  1  0.492300  0.267500  0.480500  1
  C  C1482  1  0.007700  0.732500  0.980500  1
  C  C1483  1  0.482500  0.742300  0.730500  1
  C  C1484  1  0.017500  0.257700  0.230500  1
  C  C1485  1  0.992300  0.767500  0.980500  1
  C  C1486  1  0.507700  0.232500  0.480500  1
  C  C1487  1  0.982500  0.242300  0.230500  1
  C  C1488  1  0.517500  0.757700  0.730500  1
  C  C1489  1  0.507700  0.732500  0.519500  1
  C  C1490  1  0.992300  0.267500  0.019500  1
  C  C1491  1  0.517500  0.257700  0.269500  1
  C  C1492  1  0.982500  0.742300  0.769500  1
  C  C1493  1  0.007700  0.232500  0.019500  1
  C  C1494  1  0.492300  0.767500  0.519500  1
  C  C1495  1  0.017500  0.757700  0.769500  1
  C  C1496  1  0.482500  0.242300  0.269500  1
  C  C1497  1  0.507400  0.110000  0.413000  1
  C  C1498  1  0.992600  0.890000  0.913000  1
  C  C1499  1  0.640000  0.757400  0.663000  1
  C  C1500  1  0.860000  0.242600  0.163000  1
  C  C1501  1  0.007400  0.610000  0.913000  1
  C  C1502  1  0.492600  0.390000  0.413000  1
  C  C1503  1  0.140000  0.257400  0.163000  1
  C  C1504  1  0.360000  0.742600  0.663000  1
  C  C1505  1  0.492600  0.890000  0.587000  1
  C  C1506  1  0.007400  0.110000  0.087000  1
  C  C1507  1  0.360000  0.242600  0.337000  1
  C  C1508  1  0.140000  0.757400  0.837000  1
  C  C1509  1  0.992600  0.390000  0.087000  1
  C  C1510  1  0.507400  0.610000  0.587000  1
  C  C1511  1  0.860000  0.742600  0.837000  1
  C  C1512  1  0.640000  0.257400  0.337000  1
  C  C1513  1  0.420600  0.173000  0.370400  1
  C  C1514  1  0.079400  0.827000  0.870400  1
  C  C1515  1  0.577000  0.670600  0.620400  1
  C  C1516  1  0.923000  0.329400  0.120400  1
  C  C1517  1  0.920600  0.673000  0.870400  1
  C  C1518  1  0.579400  0.327000  0.370400  1
  C  C1519  1  0.077000  0.170600  0.120400  1
  C  C1520  1  0.423000  0.829400  0.620400  1
  C  C1521  1  0.579400  0.827000  0.629600  1
  C  C1522  1  0.920600  0.173000  0.129600  1
  C  C1523  1  0.423000  0.329400  0.379600  1
  C  C1524  1  0.077000  0.670600  0.879600  1
  C  C1525  1  0.079400  0.327000  0.129600  1
  C  C1526  1  0.420600  0.673000  0.629600  1
  C  C1527  1  0.923000  0.829400  0.879600  1
  C  C1528  1  0.577000  0.170600  0.379600  1
  C  C1529  1  0.423400  0.268500  0.409800  1
  C  C1530  1  0.076600  0.731500  0.909800  1
  C  C1531  1  0.481500  0.673400  0.659800  1
  C  C1532  1  0.018500  0.326600  0.159800  1
  C  C1533  1  0.923400  0.768500  0.909800  1
  C  C1534  1  0.576600  0.231500  0.409800  1
  C  C1535  1  0.981500  0.173400  0.159800  1
  C  C1536  1  0.518500  0.826600  0.659800  1
  C  C1537  1  0.576600  0.731500  0.590200  1
  C  C1538  1  0.923400  0.268500  0.090200  1
  C  C1539  1  0.518500  0.326600  0.340200  1
  C  C1540  1  0.981500  0.673400  0.840200  1
  C  C1541  1  0.076600  0.231500  0.090200  1
  C  C1542  1  0.423400  0.768500  0.590200  1
  C  C1543  1  0.018500  0.826600  0.840200  1
  C  C1544  1  0.481500  0.173400  0.340200  1
  C  C1545  1  0.416600  0.258300  0.279800  1
  C  C1546  1  0.083400  0.741700  0.779800  1
  C  C1547  1  0.491700  0.666600  0.529800  1
  C  C1548  1  0.008300  0.333400  0.029800  1
  C  C1549  1  0.916600  0.758300  0.779800  1
  C  C1550  1  0.583400  0.241700  0.279800  1
  C  C1551  1  0.991700  0.166600  0.029800  1
  C  C1552  1  0.508300  0.833400  0.529800  1
  C  C1553  1  0.583400  0.741700  0.720200  1
  C  C1554  1  0.916600  0.258300  0.220200  1
  C  C1555  1  0.508300  0.333400  0.470200  1
  C  C1556  1  0.991700  0.666600  0.970200  1
  C  C1557  1  0.083400  0.241700  0.220200  1
  C  C1558  1  0.416600  0.758300  0.720200  1
  C  C1559  1  0.008300  0.833400  0.970200  1
  C  C1560  1  0.491700  0.166600  0.470200  1
  C  C1561  1  0.418600  0.307800  0.304700  1
  C  C1562  1  0.081400  0.692200  0.804700  1
  C  C1563  1  0.442200  0.668600  0.554700  1
  C  C1564  1  0.057800  0.331400  0.054700  1
  C  C1565  1  0.918600  0.807800  0.804700  1
  C  C1566  1  0.581400  0.192200  0.304700  1
  C  C1567  1  0.942200  0.168600  0.054700  1
  C  C1568  1  0.557800  0.831400  0.554700  1
  C  C1569  1  0.581400  0.692200  0.695300  1
  C  C1570  1  0.918600  0.307800  0.195300  1
  C  C1571  1  0.557800  0.331400  0.445300  1
  C  C1572  1  0.942200  0.668600  0.945300  1
  C  C1573  1  0.081400  0.192200  0.195300  1
  C  C1574  1  0.418600  0.807800  0.695300  1
  C  C1575  1  0.057800  0.831400  0.945300  1
  C  C1576  1  0.442200  0.168600  0.445300  1
  C  C1577  1  0.471000  0.240100  0.284000  1
  C  C1578  1  0.029000  0.759900  0.784000  1
  C  C1579  1  0.509900  0.721000  0.534000  1
  C  C1580  1  0.990100  0.279000  0.034000  1
  C  C1581  1  0.971000  0.740100  0.784000  1
  C  C1582  1  0.529000  0.259900  0.284000  1
  C  C1583  1  0.009900  0.221000  0.034000  1
  C  C1584  1  0.490100  0.779000  0.534000  1
  C  C1585  1  0.529000  0.759900  0.716000  1
  C  C1586  1  0.971000  0.240100  0.216000  1
  C  C1587  1  0.490100  0.279000  0.466000  1
  C  C1588  1  0.009900  0.721000  0.966000  1
  C  C1589  1  0.029000  0.259900  0.216000  1
  C  C1590  1  0.471000  0.740100  0.716000  1
  C  C1591  1  0.990100  0.779000  0.966000  1
  C  C1592  1  0.509900  0.221000  0.466000  1
  C  C1593  1  0.473500  0.314900  0.316000  1
  C  C1594  1  0.026500  0.685100  0.816000  1
  C  C1595  1  0.435100  0.723500  0.566000  1
  C  C1596  1  0.064900  0.276500  0.066000  1
  C  C1597  1  0.973500  0.814900  0.816000  1
  C  C1598  1  0.526500  0.185100  0.316000  1
  C  C1599  1  0.935100  0.223500  0.066000  1
  C  C1600  1  0.564900  0.776500  0.566000  1
  C  C1601  1  0.526500  0.685100  0.684000  1
  C  C1602  1  0.973500  0.314900  0.184000  1
  C  C1603  1  0.564900  0.276500  0.434000  1
  C  C1604  1  0.935100  0.723500  0.934000  1
  C  C1605  1  0.026500  0.185100  0.184000  1
  C  C1606  1  0.473500  0.814900  0.684000  1
  C  C1607  1  0.064900  0.776500  0.934000  1
  C  C1608  1  0.435100  0.223500  0.434000  1
  C  C1609  1  0.557200  0.267700  0.318400  1
  C  C1610  1  0.942800  0.732300  0.818400  1
  C  C1611  1  0.482300  0.807200  0.568400  1
  C  C1612  1  0.017700  0.192800  0.068400  1
  C  C1613  1  0.057200  0.767700  0.818400  1
  C  C1614  1  0.442800  0.232300  0.318400  1
  C  C1615  1  0.982300  0.307200  0.068400  1
  C  C1616  1  0.517700  0.692800  0.568400  1
  C  C1617  1  0.442800  0.732300  0.681600  1
  C  C1618  1  0.057200  0.267700  0.181600  1
  C  C1619  1  0.517700  0.192800  0.431600  1
  C  C1620  1  0.982300  0.807200  0.931600  1
  C  C1621  1  0.942800  0.232300  0.181600  1
  C  C1622  1  0.557200  0.767700  0.681600  1
  C  C1623  1  0.017700  0.692800  0.931600  1
  C  C1624  1  0.482300  0.307200  0.431600  1
  C  C1625  1  0.596100  0.264300  0.283100  1
  C  C1626  1  0.903900  0.735700  0.783100  1
  C  C1627  1  0.485700  0.846100  0.533100  1
  C  C1628  1  0.014300  0.153900  0.033100  1
  C  C1629  1  0.096100  0.764300  0.783100  1
  C  C1630  1  0.403900  0.235700  0.283100  1
  C  C1631  1  0.985700  0.346100  0.033100  1
  C  C1632  1  0.514300  0.653900  0.533100  1
  C  C1633  1  0.403900  0.735700  0.716900  1
  C  C1634  1  0.096100  0.264300  0.216900  1
  C  C1635  1  0.514300  0.153900  0.466900  1
  C  C1636  1  0.985700  0.846100  0.966900  1
  C  C1637  1  0.903900  0.235700  0.216900  1
  C  C1638  1  0.596100  0.764300  0.716900  1
  C  C1639  1  0.014300  0.653900  0.966900  1
  C  C1640  1  0.485700  0.346100  0.466900  1
  C  C1641  1  0.649500  0.264300  0.303100  1
  C  C1642  1  0.850500  0.735700  0.803100  1
  C  C1643  1  0.485700  0.899500  0.553100  1
  C  C1644  1  0.014300  0.100500  0.053100  1
  C  C1645  1  0.149500  0.764300  0.803100  1
  C  C1646  1  0.350500  0.235700  0.303100  1
  C  C1647  1  0.985700  0.399500  0.053100  1
  C  C1648  1  0.514300  0.600500  0.553100  1
  C  C1649  1  0.350500  0.735700  0.696900  1
  C  C1650  1  0.149500  0.264300  0.196900  1
  C  C1651  1  0.514300  0.100500  0.446900  1
  C  C1652  1  0.985700  0.899500  0.946900  1
  C  C1653  1  0.850500  0.235700  0.196900  1
  C  C1654  1  0.649500  0.764300  0.696900  1
  C  C1655  1  0.014300  0.600500  0.946900  1
  C  C1656  1  0.485700  0.399500  0.446900  1
  C  C1657  1  0.654500  0.217500  0.330800  1
  C  C1658  1  0.845500  0.782500  0.830800  1
  C  C1659  1  0.532500  0.904500  0.580800  1
  C  C1660  1  0.967500  0.095500  0.080800  1
  C  C1661  1  0.154500  0.717500  0.830800  1
  C  C1662  1  0.345500  0.282500  0.330800  1
  C  C1663  1  0.032500  0.404500  0.080800  1
  C  C1664  1  0.467500  0.595500  0.580800  1
  C  C1665  1  0.345500  0.782500  0.669200  1
  C  C1666  1  0.154500  0.217500  0.169200  1
  C  C1667  1  0.467500  0.095500  0.419200  1
  C  C1668  1  0.032500  0.904500  0.919200  1
  C  C1669  1  0.845500  0.282500  0.169200  1
  C  C1670  1  0.654500  0.717500  0.669200  1
  C  C1671  1  0.967500  0.595500  0.919200  1
  C  C1672  1  0.532500  0.404500  0.419200  1
  C  C1673  1  0.614100  0.216500  0.364400  1
  C  C1674  1  0.885900  0.783500  0.864400  1
  C  C1675  1  0.533500  0.864100  0.614400  1
  C  C1676  1  0.966500  0.135900  0.114400  1
  C  C1677  1  0.114100  0.716500  0.864400  1
  C  C1678  1  0.385900  0.283500  0.364400  1
  C  C1679  1  0.033500  0.364100  0.114400  1
  C  C1680  1  0.466500  0.635900  0.614400  1
  C  C1681  1  0.385900  0.783500  0.635600  1
  C  C1682  1  0.114100  0.216500  0.135600  1
  C  C1683  1  0.466500  0.135900  0.385600  1
  C  C1684  1  0.033500  0.864100  0.885600  1
  C  C1685  1  0.885900  0.283500  0.135600  1
  C  C1686  1  0.614100  0.716500  0.635600  1
  C  C1687  1  0.966500  0.635900  0.885600  1
  C  C1688  1  0.533500  0.364100  0.385600  1
  C  C1689  1  0.561200  0.218600  0.345000  1
  C  C1690  1  0.938800  0.781400  0.845000  1
  C  C1691  1  0.531400  0.811200  0.595000  1
  C  C1692  1  0.968600  0.188800  0.095000  1
  C  C1693  1  0.061200  0.718600  0.845000  1
  C  C1694  1  0.438800  0.281400  0.345000  1
  C  C1695  1  0.031400  0.311200  0.095000  1
  C  C1696  1  0.468600  0.688800  0.595000  1
  C  C1697  1  0.438800  0.781400  0.655000  1
  C  C1698  1  0.061200  0.218600  0.155000  1
  C  C1699  1  0.468600  0.188800  0.405000  1
  C  C1700  1  0.031400  0.811200  0.905000  1
  C  C1701  1  0.938800  0.281400  0.155000  1
  C  C1702  1  0.561200  0.718600  0.655000  1
  C  C1703  1  0.968600  0.688800  0.905000  1
  C  C1704  1  0.531400  0.311200  0.405000  1
  C  C1705  1  0.184000  0.516000  0.411200  1
  C  C1706  1  0.316000  0.484000  0.911200  1
  C  C1707  1  0.234000  0.434000  0.661200  1
  C  C1708  1  0.266000  0.566000  0.161200  1
  C  C1709  1  0.684000  0.016000  0.911200  1
  C  C1710  1  0.816000  0.984000  0.411200  1
  C  C1711  1  0.734000  0.934000  0.161200  1
  C  C1712  1  0.766000  0.066000  0.661200  1
  C  C1713  1  0.816000  0.484000  0.588800  1
  C  C1714  1  0.684000  0.516000  0.088800  1
  C  C1715  1  0.766000  0.566000  0.338800  1
  C  C1716  1  0.734000  0.434000  0.838800  1
  C  C1717  1  0.316000  0.984000  0.088800  1
  C  C1718  1  0.184000  0.016000  0.588800  1
  C  C1719  1  0.266000  0.066000  0.838800  1
  C  C1720  1  0.234000  0.934000  0.338800  1
  C  C1721  1  0.239300  0.571500  0.453700  1
  C  C1722  1  0.260700  0.428500  0.953700  1
  C  C1723  1  0.178500  0.489300  0.703700  1
  C  C1724  1  0.321500  0.510700  0.203700  1
  C  C1725  1  0.739300  0.071500  0.953700  1
  C  C1726  1  0.760700  0.928500  0.453700  1
  C  C1727  1  0.678500  0.989300  0.203700  1
  C  C1728  1  0.821500  0.010700  0.703700  1
  C  C1729  1  0.760700  0.428500  0.546300  1
  C  C1730  1  0.739300  0.571500  0.046300  1
  C  C1731  1  0.821500  0.510700  0.296300  1
  C  C1732  1  0.678500  0.489300  0.796300  1
  C  C1733  1  0.260700  0.928500  0.046300  1
  C  C1734  1  0.239300  0.071500  0.546300  1
  C  C1735  1  0.321500  0.010700  0.796300  1
  C  C1736  1  0.178500  0.989300  0.296300  1
  C  C1737  1  0.203600  0.602300  0.385500  1
  C  C1738  1  0.296400  0.397700  0.885500  1
  C  C1739  1  0.147700  0.453600  0.635500  1
  C  C1740  1  0.352300  0.546400  0.135500  1
  C  C1741  1  0.703600  0.102300  0.885500  1
  C  C1742  1  0.796400  0.897700  0.385500  1
  C  C1743  1  0.647700  0.953600  0.135500  1
  C  C1744  1  0.852300  0.046400  0.635500  1
  C  C1745  1  0.796400  0.397700  0.614500  1
  C  C1746  1  0.703600  0.602300  0.114500  1
  C  C1747  1  0.852300  0.546400  0.364500  1
  C  C1748  1  0.647700  0.453600  0.864500  1
  C  C1749  1  0.296400  0.897700  0.114500  1
  C  C1750  1  0.203600  0.102300  0.614500  1
  C  C1751  1  0.352300  0.046400  0.864500  1
  C  C1752  1  0.147700  0.953600  0.364500  1
  C  C1753  1  0.244500  0.636500  0.373500  1
  C  C1754  1  0.255500  0.363500  0.873500  1
  C  C1755  1  0.113500  0.494500  0.623500  1
  C  C1756  1  0.386500  0.505500  0.123500  1
  C  C1757  1  0.744500  0.136500  0.873500  1
  C  C1758  1  0.755500  0.863500  0.373500  1
  C  C1759  1  0.613500  0.994500  0.123500  1
  C  C1760  1  0.886500  0.005500  0.623500  1
  C  C1761  1  0.755500  0.363500  0.626500  1
  C  C1762  1  0.744500  0.636500  0.126500  1
  C  C1763  1  0.886500  0.505500  0.376500  1
  C  C1764  1  0.613500  0.494500  0.876500  1
  C  C1765  1  0.255500  0.863500  0.126500  1
  C  C1766  1  0.244500  0.136500  0.626500  1
  C  C1767  1  0.386500  0.005500  0.876500  1
  C  C1768  1  0.113500  0.994500  0.376500  1
  C  C1769  1  0.332900  0.637400  0.366800  1
  C  C1770  1  0.167100  0.362600  0.866800  1
  C  C1771  1  0.112600  0.582900  0.616800  1
  C  C1772  1  0.387400  0.417100  0.116800  1
  C  C1773  1  0.832900  0.137400  0.866800  1
  C  C1774  1  0.667100  0.862600  0.366800  1
  C  C1775  1  0.612600  0.082900  0.116800  1
  C  C1776  1  0.887400  0.917100  0.616800  1
  C  C1777  1  0.667100  0.362600  0.633200  1
  C  C1778  1  0.832900  0.637400  0.133200  1
  C  C1779  1  0.887400  0.417100  0.383200  1
  C  C1780  1  0.612600  0.582900  0.883200  1
  C  C1781  1  0.167100  0.862600  0.133200  1
  C  C1782  1  0.332900  0.137400  0.633200  1
  C  C1783  1  0.387400  0.917100  0.883200  1
  C  C1784  1  0.112600  0.082900  0.383200  1
  C  C1785  1  0.270900  0.600800  0.304900  1
  C  C1786  1  0.229100  0.399200  0.804900  1
  C  C1787  1  0.149200  0.520900  0.554900  1
  C  C1788  1  0.350800  0.479100  0.054900  1
  C  C1789  1  0.770900  0.100800  0.804900  1
  C  C1790  1  0.729100  0.899200  0.304900  1
  C  C1791  1  0.649200  0.020900  0.054900  1
  C  C1792  1  0.850800  0.979100  0.554900  1
  C  C1793  1  0.729100  0.399200  0.695100  1
  C  C1794  1  0.770900  0.600800  0.195100  1
  C  C1795  1  0.850800  0.479100  0.445100  1
  C  C1796  1  0.649200  0.520900  0.945100  1
  C  C1797  1  0.229100  0.899200  0.195100  1
  C  C1798  1  0.270900  0.100800  0.695100  1
  C  C1799  1  0.350800  0.979100  0.945100  1
  C  C1800  1  0.149200  0.020900  0.445100  1
  C  C1801  1  0.466650  0.322200  0.148300  1.0
  C  C1802  1  0.033350  0.677800  0.648300  1.0
  C  C1803  1  0.427800  0.716650  0.398300  1.0
  C  C1804  1  0.072200  0.283350  0.898300  1.0
  C  C1805  1  0.966650  0.822200  0.648300  1.0
  C  C1806  1  0.533350  0.177800  0.148300  1.0
  C  C1807  1  0.927800  0.216650  0.898300  1.0
  C  C1808  1  0.572200  0.783350  0.398300  1.0
  C  C1809  1  0.533350  0.677800  0.851700  1.0
  C  C1810  1  0.966650  0.322200  0.351700  1.0
  C  C1811  1  0.572200  0.283350  0.601700  1.0
  C  C1812  1  0.927800  0.716650  0.101700  1.0
  C  C1813  1  0.033350  0.177800  0.351700  1.0
  C  C1814  1  0.466650  0.822200  0.851700  1.0
  C  C1815  1  0.072200  0.783350  0.101700  1.0
  C  C1816  1  0.427800  0.216650  0.601700  1.0
  C  C1817  1  0.469910  0.353600  0.183330  1.0
  C  C1818  1  0.030090  0.646400  0.683330  1.0
  C  C1819  1  0.396400  0.719910  0.433330  1.0
  C  C1820  1  0.103600  0.280090  0.933330  1.0
  C  C1821  1  0.969910  0.853600  0.683330  1.0
  C  C1822  1  0.530090  0.146400  0.183330  1.0
  C  C1823  1  0.896400  0.219910  0.933330  1.0
  C  C1824  1  0.603600  0.780090  0.433330  1.0
  C  C1825  1  0.530090  0.646400  0.816670  1.0
  C  C1826  1  0.969910  0.353600  0.316670  1.0
  C  C1827  1  0.603600  0.280090  0.566670  1.0
  C  C1828  1  0.896400  0.719910  0.066670  1.0
  C  C1829  1  0.030090  0.146400  0.316670  1.0
  C  C1830  1  0.469910  0.853600  0.816670  1.0
  C  C1831  1  0.103600  0.780090  0.066670  1.0
  C  C1832  1  0.396400  0.219910  0.566670  1.0
  C  C1833  1  0.517090  0.364200  0.200570  1.0
  C  C1834  1  0.982910  0.635800  0.700570  1.0
  C  C1835  1  0.385800  0.767090  0.450570  1.0
  C  C1836  1  0.114200  0.232910  0.950570  1.0
  C  C1837  1  0.017090  0.864200  0.700570  1.0
  C  C1838  1  0.482910  0.135800  0.200570  1.0
  C  C1839  1  0.885800  0.267090  0.950570  1.0
  C  C1840  1  0.614200  0.732910  0.450570  1.0
  C  C1841  1  0.482910  0.635800  0.799430  1.0
  C  C1842  1  0.017090  0.364200  0.299430  1.0
  C  C1843  1  0.614200  0.232910  0.549430  1.0
  C  C1844  1  0.885800  0.767090  0.049430  1.0
  C  C1845  1  0.982910  0.135800  0.299430  1.0
  C  C1846  1  0.517090  0.864200  0.799430  1.0
  C  C1847  1  0.114200  0.732910  0.049430  1.0
  C  C1848  1  0.385800  0.267090  0.549430  1.0
  C  C1849  1  0.559630  0.342800  0.182020  1.0
  C  C1850  1  0.940370  0.657200  0.682020  1.0
  C  C1851  1  0.407200  0.809630  0.432020  1.0
  C  C1852  1  0.092800  0.190370  0.932020  1.0
  C  C1853  1  0.059630  0.842800  0.682020  1.0
  C  C1854  1  0.440370  0.157200  0.182020  1.0
  C  C1855  1  0.907200  0.309630  0.932020  1.0
  C  C1856  1  0.592800  0.690370  0.432020  1.0
  C  C1857  1  0.440370  0.657200  0.817980  1.0
  C  C1858  1  0.059630  0.342800  0.317980  1.0
  C  C1859  1  0.592800  0.190370  0.567980  1.0
  C  C1860  1  0.907200  0.809630  0.067980  1.0
  C  C1861  1  0.940370  0.157200  0.317980  1.0
  C  C1862  1  0.559630  0.842800  0.817980  1.0
  C  C1863  1  0.092800  0.690370  0.067980  1.0
  C  C1864  1  0.407200  0.309630  0.567980  1.0
  C  C1865  1  0.554110  0.311800  0.147020  1.0
  C  C1866  1  0.945890  0.688200  0.647020  1.0
  C  C1867  1  0.438200  0.804110  0.397020  1.0
  C  C1868  1  0.061800  0.195890  0.897020  1.0
  C  C1869  1  0.054110  0.811800  0.647020  1.0
  C  C1870  1  0.445890  0.188200  0.147020  1.0
  C  C1871  1  0.938200  0.304110  0.897020  1.0
  C  C1872  1  0.561800  0.695890  0.397020  1.0
  C  C1873  1  0.445890  0.688200  0.852980  1.0
  C  C1874  1  0.054110  0.311800  0.352980  1.0
  C  C1875  1  0.561800  0.195890  0.602980  1.0
  C  C1876  1  0.938200  0.804110  0.102980  1.0
  C  C1877  1  0.945890  0.188200  0.352980  1.0
  C  C1878  1  0.554110  0.811800  0.852980  1.0
  C  C1879  1  0.061800  0.695890  0.102980  1.0
  C  C1880  1  0.438200  0.304110  0.602980  1.0
  C  C1881  1  0.399590  0.518600  0.362140  1.0
  C  C1882  1  0.100410  0.481400  0.862140  1.0
  C  C1883  1  0.231400  0.649590  0.612140  1.0
  C  C1884  1  0.268600  0.350410  0.112140  1.0
  C  C1885  1  0.899590  0.018600  0.862140  1.0
  C  C1886  1  0.600410  0.981400  0.362140  1.0
  C  C1887  1  0.731400  0.149590  0.112140  1.0
  C  C1888  1  0.768600  0.850410  0.612140  1.0
  C  C1889  1  0.600410  0.481400  0.637860  1.0
  C  C1890  1  0.899590  0.518600  0.137860  1.0
  C  C1891  1  0.768600  0.350410  0.387860  1.0
  C  C1892  1  0.731400  0.649590  0.887860  1.0
  C  C1893  1  0.100410  0.981400  0.137860  1.0
  C  C1894  1  0.399590  0.018600  0.637860  1.0
  C  C1895  1  0.268600  0.850410  0.887860  1.0
  C  C1896  1  0.231400  0.149590  0.387860  1.0
  C  C1897  1  0.442610  0.497400  0.344810  1.0
  C  C1898  1  0.057390  0.502600  0.844810  1.0
  C  C1899  1  0.252600  0.692610  0.594810  1.0
  C  C1900  1  0.247400  0.307390  0.094810  1.0
  C  C1901  1  0.942610  0.997400  0.844810  1.0
  C  C1902  1  0.557390  0.002600  0.344810  1.0
  C  C1903  1  0.752600  0.192610  0.094810  1.0
  C  C1904  1  0.747400  0.807390  0.594810  1.0
  C  C1905  1  0.557390  0.502600  0.655190  1.0
  C  C1906  1  0.942610  0.497400  0.155190  1.0
  C  C1907  1  0.747400  0.307390  0.405190  1.0
  C  C1908  1  0.752600  0.692610  0.905190  1.0
  C  C1909  1  0.057390  0.002600  0.155190  1.0
  C  C1910  1  0.442610  0.997400  0.655190  1.0
  C  C1911  1  0.247400  0.807390  0.905190  1.0
  C  C1912  1  0.252600  0.192610  0.405190  1.0
  C  C1913  1  0.438950  0.467030  0.308920  1.0
  C  C1914  1  0.061050  0.532970  0.808920  1.0
  C  C1915  1  0.282970  0.688950  0.558920  1.0
  C  C1916  1  0.217030  0.311050  0.058920  1.0
  C  C1917  1  0.938950  0.967030  0.808920  1.0
  C  C1918  1  0.561050  0.032970  0.308920  1.0
  C  C1919  1  0.782970  0.188950  0.058920  1.0
  C  C1920  1  0.717030  0.811050  0.558920  1.0
  C  C1921  1  0.561050  0.532970  0.691080  1.0
  C  C1922  1  0.938950  0.467030  0.191080  1.0
  C  C1923  1  0.717030  0.311050  0.441080  1.0
  C  C1924  1  0.782970  0.688950  0.941080  1.0
  C  C1925  1  0.061050  0.032970  0.191080  1.0
  C  C1926  1  0.438950  0.967030  0.691080  1.0
  C  C1927  1  0.217030  0.811050  0.941080  1.0
  C  C1928  1  0.282970  0.188950  0.441080  1.0
  C  C1929  1  0.390990  0.458600  0.291580  1.0
  C  C1930  1  0.109010  0.541400  0.791580  1.0
  C  C1931  1  0.291400  0.640990  0.541580  1.0
  C  C1932  1  0.208600  0.359010  0.041580  1.0
  C  C1933  1  0.890990  0.958600  0.791580  1.0
  C  C1934  1  0.609010  0.041400  0.291580  1.0
  C  C1935  1  0.791400  0.140990  0.041580  1.0
  C  C1936  1  0.708600  0.859010  0.541580  1.0
  C  C1937  1  0.609010  0.541400  0.708420  1.0
  C  C1938  1  0.890990  0.458600  0.208420  1.0
  C  C1939  1  0.708600  0.359010  0.458420  1.0
  C  C1940  1  0.791400  0.640990  0.958420  1.0
  C  C1941  1  0.109010  0.041400  0.208420  1.0
  C  C1942  1  0.390990  0.958600  0.708420  1.0
  C  C1943  1  0.208600  0.859010  0.958420  1.0
  C  C1944  1  0.291400  0.140990  0.458420  1.0
  C  C1945  1  0.348670  0.480940  0.310860  1.0
  C  C1946  1  0.151330  0.519060  0.810860  1.0
  C  C1947  1  0.269060  0.598670  0.560860  1.0
  C  C1948  1  0.230940  0.401330  0.060860  1.0
  C  C1949  1  0.848670  0.980940  0.810860  1.0
  C  C1950  1  0.651330  0.019060  0.310860  1.0
  C  C1951  1  0.769060  0.098670  0.060860  1.0
  C  C1952  1  0.730940  0.901330  0.560860  1.0
  C  C1953  1  0.651330  0.519060  0.689140  1.0
  C  C1954  1  0.848670  0.480940  0.189140  1.0
  C  C1955  1  0.730940  0.401330  0.439140  1.0
  C  C1956  1  0.769060  0.598670  0.939140  1.0
  C  C1957  1  0.151330  0.019060  0.189140  1.0
  C  C1958  1  0.348670  0.980940  0.689140  1.0
  C  C1959  1  0.230940  0.901330  0.939140  1.0
  C  C1960  1  0.269060  0.098670  0.439140  1.0
  C  C1961  1  0.272000  0.424600  0.388420  1.0
  C  C1962  1  0.228000  0.575400  0.888420  1.0
  C  C1963  1  0.325400  0.522000  0.638420  1.0
  C  C1964  1  0.174600  0.478000  0.138420  1.0
  C  C1965  1  0.772000  0.924600  0.888420  1.0
  C  C1966  1  0.728000  0.075400  0.388420  1.0
  C  C1967  1  0.825400  0.022000  0.138420  1.0
  C  C1968  1  0.674600  0.978000  0.638420  1.0
  C  C1969  1  0.728000  0.575400  0.611580  1.0
  C  C1970  1  0.772000  0.424600  0.111580  1.0
  C  C1971  1  0.674600  0.478000  0.361580  1.0
  C  C1972  1  0.825400  0.522000  0.861580  1.0
  C  C1973  1  0.228000  0.075400  0.111580  1.0
  C  C1974  1  0.272000  0.924600  0.611580  1.0
  C  C1975  1  0.174600  0.978000  0.861580  1.0
  C  C1976  1  0.325400  0.022000  0.361580  1.0
  C  C1977  1  0.279300  0.376600  0.405930  1.0
  C  C1978  1  0.220700  0.623400  0.905930  1.0
  C  C1979  1  0.373400  0.529300  0.655930  1.0
  C  C1980  1  0.126600  0.470700  0.155930  1.0
  C  C1981  1  0.779300  0.876600  0.905930  1.0
  C  C1982  1  0.720700  0.123400  0.405930  1.0
  C  C1983  1  0.873400  0.029300  0.155930  1.0
  C  C1984  1  0.626600  0.970700  0.655930  1.0
  C  C1985  1  0.720700  0.623400  0.594070  1.0
  C  C1986  1  0.779300  0.376600  0.094070  1.0
  C  C1987  1  0.626600  0.470700  0.344070  1.0
  C  C1988  1  0.873400  0.529300  0.844070  1.0
  C  C1989  1  0.220700  0.123400  0.094070  1.0
  C  C1990  1  0.279300  0.876600  0.594070  1.0
  C  C1991  1  0.126600  0.970700  0.844070  1.0
  C  C1992  1  0.373400  0.029300  0.344070  1.0
  C  C1993  1  0.307800  0.371400  0.442010  1.0
  C  C1994  1  0.192200  0.628600  0.942010  1.0
  C  C1995  1  0.378600  0.557800  0.692010  1.0
  C  C1996  1  0.121400  0.442200  0.192010  1.0
  C  C1997  1  0.807800  0.871400  0.942010  1.0
  C  C1998  1  0.692200  0.128600  0.442010  1.0
  C  C1999  1  0.878600  0.057800  0.192010  1.0
  C  C2000  1  0.621400  0.942200  0.692010  1.0
  C  C2001  1  0.692200  0.628600  0.557990  1.0
  C  C2002  1  0.807800  0.371400  0.057990  1.0
  C  C2003  1  0.621400  0.442200  0.307990  1.0
  C  C2004  1  0.878600  0.557800  0.807990  1.0
  C  C2005  1  0.192200  0.128600  0.057990  1.0
  C  C2006  1  0.307800  0.871400  0.557990  1.0
  C  C2007  1  0.121400  0.942200  0.807990  1.0
  C  C2008  1  0.378600  0.057800  0.307990  1.0
  C  C2009  1  0.327500  0.414500  0.460480  1.0
  C  C2010  1  0.172500  0.585500  0.960480  1.0
  C  C2011  1  0.335500  0.577500  0.710480  1.0
  C  C2012  1  0.164500  0.422500  0.210480  1.0
  C  C2013  1  0.827500  0.914500  0.960480  1.0
  C  C2014  1  0.672500  0.085500  0.460480  1.0
  C  C2015  1  0.835500  0.077500  0.210480  1.0
  C  C2016  1  0.664500  0.922500  0.710480  1.0
  C  C2017  1  0.672500  0.585500  0.539520  1.0
  C  C2018  1  0.827500  0.414500  0.039520  1.0
  C  C2019  1  0.664500  0.422500  0.289520  1.0
  C  C2020  1  0.835500  0.577500  0.789520  1.0
  C  C2021  1  0.172500  0.085500  0.039520  1.0
  C  C2022  1  0.327500  0.914500  0.539520  1.0
  C  C2023  1  0.164500  0.922500  0.789520  1.0
  C  C2024  1  0.335500  0.077500  0.289520  1.0
  C  C2025  1  0.319000  0.461100  0.442080  1.0
  C  C2026  1  0.181000  0.538900  0.942080  1.0
  C  C2027  1  0.288900  0.569000  0.692080  1.0
  C  C2028  1  0.211100  0.431000  0.192080  1.0
  C  C2029  1  0.819000  0.961100  0.942080  1.0
  C  C2030  1  0.681000  0.038900  0.442080  1.0
  C  C2031  1  0.788900  0.069000  0.192080  1.0
  C  C2032  1  0.711100  0.931000  0.692080  1.0
  C  C2033  1  0.681000  0.538900  0.557920  1.0
  C  C2034  1  0.819000  0.461100  0.057920  1.0
  C  C2035  1  0.711100  0.431000  0.307920  1.0
  C  C2036  1  0.788900  0.569000  0.807920  1.0
  C  C2037  1  0.181000  0.038900  0.057920  1.0
  C  C2038  1  0.319000  0.961100  0.557920  1.0
  C  C2039  1  0.211100  0.931000  0.807920  1.0
  C  C2040  1  0.288900  0.069000  0.307920  1.0
  C  C2041  1  0.521650  0.397100  0.238460  1.0
  C  C2042  1  0.978350  0.602900  0.738460  1.0
  C  C2043  1  0.352900  0.771650  0.488460  1.0
  C  C2044  1  0.147100  0.228350  0.988460  1.0
  C  C2045  1  0.021650  0.897100  0.738460  1.0
  C  C2046  1  0.478350  0.102900  0.238460  1.0
  C  C2047  1  0.852900  0.271650  0.988460  1.0
  C  C2048  1  0.647100  0.728350  0.488460  1.0
  C  C2049  1  0.478350  0.602900  0.761540  1.0
  C  C2050  1  0.021650  0.397100  0.261540  1.0
  C  C2051  1  0.647100  0.228350  0.511540  1.0
  C  C2052  1  0.852900  0.771650  0.011540  1.0
  C  C2053  1  0.978350  0.102900  0.261540  1.0
  C  C2054  1  0.521650  0.897100  0.761540  1.0
  C  C2055  1  0.147100  0.728350  0.011540  1.0
  C  C2056  1  0.352900  0.271650  0.511540  1.0
  C  C2057  1  0.485440  0.444500  0.289390  1.0
  C  C2058  1  0.014560  0.555500  0.789390  1.0
  C  C2059  1  0.305500  0.735440  0.539390  1.0
  C  C2060  1  0.194500  0.264560  0.039390  1.0
  C  C2061  1  0.985440  0.944500  0.789390  1.0
  C  C2062  1  0.514560  0.055500  0.289390  1.0
  C  C2063  1  0.805500  0.235440  0.039390  1.0
  C  C2064  1  0.694500  0.764560  0.539390  1.0
  C  C2065  1  0.514560  0.555500  0.710610  1.0
  C  C2066  1  0.985440  0.444500  0.210610  1.0
  C  C2067  1  0.694500  0.264560  0.460610  1.0
  C  C2068  1  0.805500  0.735440  0.960610  1.0
  C  C2069  1  0.014560  0.055500  0.210610  1.0
  C  C2070  1  0.485440  0.944500  0.710610  1.0
  C  C2071  1  0.194500  0.764560  0.960610  1.0
  C  C2072  1  0.305500  0.235440  0.460610  1.0
  C  C2073  1  0.316900  0.320300  0.461130  1.0
  C  C2074  1  0.183100  0.679700  0.961130  1.0
  C  C2075  1  0.429700  0.566900  0.711130  1.0
  C  C2076  1  0.070300  0.433100  0.211130  1.0
  C  C2077  1  0.816900  0.820300  0.961130  1.0
  C  C2078  1  0.683100  0.179700  0.461130  1.0
  C  C2079  1  0.929700  0.066900  0.211130  1.0
  C  C2080  1  0.570300  0.933100  0.711130  1.0
  C  C2081  1  0.683100  0.679700  0.538870  1.0
  C  C2082  1  0.816900  0.320300  0.038870  1.0
  C  C2083  1  0.570300  0.433100  0.288870  1.0
  C  C2084  1  0.929700  0.566900  0.788870  1.0
  C  C2085  1  0.183100  0.179700  0.038870  1.0
  C  C2086  1  0.316900  0.820300  0.538870  1.0
  C  C2087  1  0.070300  0.933100  0.788870  1.0
  C  C2088  1  0.429700  0.066900  0.288870  1.0
  C  C2089  1  0.180400  0.535600  0.390200  1.0
  C  C2090  1  0.319600  0.464400  0.890200  1.0
  C  C2091  1  0.214400  0.430400  0.640200  1.0
  C  C2092  1  0.285600  0.569600  0.140200  1.0
  C  C2093  1  0.680400  0.035600  0.890200  1.0
  C  C2094  1  0.819600  0.964400  0.390200  1.0
  C  C2095  1  0.714400  0.930400  0.140200  1.0
  C  C2096  1  0.785600  0.069600  0.640200  1.0
  C  C2097  1  0.819600  0.464400  0.609800  1.0
  C  C2098  1  0.680400  0.535600  0.109800  1.0
  C  C2099  1  0.785600  0.569600  0.359800  1.0
  C  C2100  1  0.714400  0.430400  0.859800  1.0
  C  C2101  1  0.319600  0.964400  0.109800  1.0
  C  C2102  1  0.180400  0.035600  0.609800  1.0
  C  C2103  1  0.285600  0.069600  0.859800  1.0
  C  C2104  1  0.214400  0.930400  0.359800  1.0
  C  C2105  1  0.228500  0.555500  0.453200  1.0
  C  C2106  1  0.271500  0.444500  0.953200  1.0
  C  C2107  1  0.194500  0.478500  0.703200  1.0
  C  C2108  1  0.305500  0.521500  0.203200  1.0
  C  C2109  1  0.728500  0.055500  0.953200  1.0
  C  C2110  1  0.771500  0.944500  0.453200  1.0
  C  C2111  1  0.694500  0.978500  0.203200  1.0
  C  C2112  1  0.805500  0.021500  0.703200  1.0
  C  C2113  1  0.771500  0.444500  0.546800  1.0
  C  C2114  1  0.728500  0.555500  0.046800  1.0
  C  C2115  1  0.805500  0.521500  0.296800  1.0
  C  C2116  1  0.694500  0.478500  0.796800  1.0
  C  C2117  1  0.271500  0.944500  0.046800  1.0
  C  C2118  1  0.228500  0.055500  0.546800  1.0
  C  C2119  1  0.305500  0.021500  0.796800  1.0
  C  C2120  1  0.194500  0.978500  0.296800  1.0
  C  C2121  1  0.224400  0.618700  0.397100  1.0
  C  C2122  1  0.275600  0.381300  0.897100  1.0
  C  C2123  1  0.131300  0.474400  0.647100  1.0
  C  C2124  1  0.368700  0.525600  0.147100  1.0
  C  C2125  1  0.724400  0.118700  0.897100  1.0
  C  C2126  1  0.775600  0.881300  0.397100  1.0
  C  C2127  1  0.631300  0.974400  0.147100  1.0
  C  C2128  1  0.868700  0.025600  0.647100  1.0
  C  C2129  1  0.775600  0.381300  0.602900  1.0
  C  C2130  1  0.724400  0.618700  0.102900  1.0
  C  C2131  1  0.868700  0.525600  0.352900  1.0
  C  C2132  1  0.631300  0.474400  0.852900  1.0
  C  C2133  1  0.275600  0.881300  0.102900  1.0
  C  C2134  1  0.224400  0.118700  0.602900  1.0
  C  C2135  1  0.368700  0.025600  0.852900  1.0
  C  C2136  1  0.131300  0.974400  0.352900  1.0
  C  C2137  1  0.238100  0.625900  0.351700  1.0
  C  C2138  1  0.261900  0.374100  0.851700  1.0
  C  C2139  1  0.124100  0.488100  0.601700  1.0
  C  C2140  1  0.375900  0.511900  0.101700  1.0
  C  C2141  1  0.738100  0.125900  0.851700  1.0
  C  C2142  1  0.761900  0.874100  0.351700  1.0
  C  C2143  1  0.624100  0.988100  0.101700  1.0
  C  C2144  1  0.875900  0.011900  0.601700  1.0
  C  C2145  1  0.761900  0.374100  0.648300  1.0
  C  C2146  1  0.738100  0.625900  0.148300  1.0
  C  C2147  1  0.875900  0.511900  0.398300  1.0
  C  C2148  1  0.624100  0.488100  0.898300  1.0
  C  C2149  1  0.261900  0.874100  0.148300  1.0
  C  C2150  1  0.238100  0.125900  0.648300  1.0
  C  C2151  1  0.375900  0.011900  0.898300  1.0
  C  C2152  1  0.124100  0.988100  0.398300  1.0
  C  C2153  1  0.331000  0.635400  0.355700  1.0
  C  C2154  1  0.169000  0.364600  0.855700  1.0
  C  C2155  1  0.114600  0.581000  0.605700  1.0
  C  C2156  1  0.385400  0.419000  0.105700  1.0
  C  C2157  1  0.831000  0.135400  0.855700  1.0
  C  C2158  1  0.669000  0.864600  0.355700  1.0
  C  C2159  1  0.614600  0.081000  0.105700  1.0
  C  C2160  1  0.885400  0.919000  0.605700  1.0
  C  C2161  1  0.669000  0.364600  0.644300  1.0
  C  C2162  1  0.831000  0.635400  0.144300  1.0
  C  C2163  1  0.885400  0.419000  0.394300  1.0
  C  C2164  1  0.614600  0.581000  0.894300  1.0
  C  C2165  1  0.169000  0.864600  0.144300  1.0
  C  C2166  1  0.331000  0.135400  0.644300  1.0
  C  C2167  1  0.385400  0.919000  0.894300  1.0
  C  C2168  1  0.114600  0.081000  0.394300  1.0
  C  C2169  1  0.299900  0.601300  0.298600  1.0
  C  C2170  1  0.200100  0.398700  0.798600  1.0
  C  C2171  1  0.148700  0.549900  0.548600  1.0
  C  C2172  1  0.351300  0.450100  0.048600  1.0
  C  C2173  1  0.799900  0.101300  0.798600  1.0
  C  C2174  1  0.700100  0.898700  0.298600  1.0
  C  C2175  1  0.648700  0.049900  0.048600  1.0
  C  C2176  1  0.851300  0.950100  0.548600  1.0
  C  C2177  1  0.700100  0.398700  0.701400  1.0
  C  C2178  1  0.799900  0.601300  0.201400  1.0
  C  C2179  1  0.851300  0.450100  0.451400  1.0
  C  C2180  1  0.648700  0.549900  0.951400  1.0
  C  C2181  1  0.200100  0.898700  0.201400  1.0
  C  C2182  1  0.299900  0.101300  0.701400  1.0
  C  C2183  1  0.351300  0.950100  0.951400  1.0
  C  C2184  1  0.148700  0.049900  0.451400  1.0
  C  C2185  1  0.509000  0.222200  0.995150  1.0
  C  C2186  1  0.991000  0.777800  0.495150  1.0
  C  C2187  1  0.527800  0.759000  0.245150  1.0
  C  C2188  1  0.972200  0.241000  0.745150  1.0
  C  C2189  1  0.009000  0.722200  0.495150  1.0
  C  C2190  1  0.491000  0.277800  0.995150  1.0
  C  C2191  1  0.027800  0.259000  0.745150  1.0
  C  C2192  1  0.472200  0.741000  0.245150  1.0
  C  C2193  1  0.491000  0.777800  0.004850  1.0
  C  C2194  1  0.009000  0.222200  0.504850  1.0
  C  C2195  1  0.472200  0.241000  0.754850  1.0
  C  C2196  1  0.027800  0.759000  0.254850  1.0
  C  C2197  1  0.991000  0.277800  0.504850  1.0
  C  C2198  1  0.509000  0.722200  0.004850  1.0
  C  C2199  1  0.972200  0.741000  0.254850  1.0
  C  C2200  1  0.527800  0.259000  0.754850  1.0
  C  C2201  1  0.521700  0.150200  0.041490  1.0
  C  C2202  1  0.978300  0.849800  0.541490  1.0
  C  C2203  1  0.599800  0.771700  0.291490  1.0
  C  C2204  1  0.900200  0.228300  0.791490  1.0
  C  C2205  1  0.021700  0.650200  0.541490  1.0
  C  C2206  1  0.478300  0.349800  0.041490  1.0
  C  C2207  1  0.099800  0.271700  0.791490  1.0
  C  C2208  1  0.400200  0.728300  0.291490  1.0
  C  C2209  1  0.478300  0.849800  0.958510  1.0
  C  C2210  1  0.021700  0.150200  0.458510  1.0
  C  C2211  1  0.400200  0.228300  0.708510  1.0
  C  C2212  1  0.099800  0.771700  0.208510  1.0
  C  C2213  1  0.978300  0.349800  0.458510  1.0
  C  C2214  1  0.521700  0.650200  0.958510  1.0
  C  C2215  1  0.900200  0.728300  0.208510  1.0
  C  C2216  1  0.599800  0.271700  0.708510  1.0
  C  C2217  1  0.436200  0.182600  0.031900  1.0
  C  C2218  1  0.063800  0.817400  0.531900  1.0
  C  C2219  1  0.567400  0.686200  0.281900  1.0
  C  C2220  1  0.932600  0.313800  0.781900  1.0
  C  C2221  1  0.936200  0.682600  0.531900  1.0
  C  C2222  1  0.563800  0.317400  0.031900  1.0
  C  C2223  1  0.067400  0.186200  0.781900  1.0
  C  C2224  1  0.432600  0.813800  0.281900  1.0
  C  C2225  1  0.563800  0.817400  0.968100  1.0
  C  C2226  1  0.936200  0.182600  0.468100  1.0
  C  C2227  1  0.432600  0.313800  0.718100  1.0
  C  C2228  1  0.067400  0.686200  0.218100  1.0
  C  C2229  1  0.063800  0.317400  0.468100  1.0
  C  C2230  1  0.436200  0.682600  0.968100  1.0
  C  C2231  1  0.932600  0.813800  0.218100  1.0
  C  C2232  1  0.567400  0.186200  0.718100  1.0
  N  N2233  1  0.385700  0.562700  0.480300  1
  N  N2234  1  0.114300  0.437300  0.980300  1
  N  N2235  1  0.187300  0.635700  0.730300  1
  N  N2236  1  0.312700  0.364300  0.230300  1
  N  N2237  1  0.885700  0.062700  0.980300  1
  N  N2238  1  0.614300  0.937300  0.480300  1
  N  N2239  1  0.687300  0.135700  0.230300  1
  N  N2240  1  0.812700  0.864300  0.730300  1
  N  N2241  1  0.614300  0.437300  0.519700  1
  N  N2242  1  0.885700  0.562700  0.019700  1
  N  N2243  1  0.812700  0.364300  0.269700  1
  N  N2244  1  0.687300  0.635700  0.769700  1
  N  N2245  1  0.114300  0.937300  0.019700  1
  N  N2246  1  0.385700  0.062700  0.519700  1
  N  N2247  1  0.312700  0.864300  0.769700  1
  N  N2248  1  0.187300  0.135700  0.269700  1
  N  N2249  1  0.472600  0.037900  0.134600  1
  N  N2250  1  0.027400  0.962100  0.634600  1
  N  N2251  1  0.712100  0.722600  0.384600  1
  N  N2252  1  0.787900  0.277400  0.884600  1
  N  N2253  1  0.972600  0.537900  0.634600  1
  N  N2254  1  0.527400  0.462100  0.134600  1
  N  N2255  1  0.212100  0.222600  0.884600  1
  N  N2256  1  0.287900  0.777400  0.384600  1
  N  N2257  1  0.527400  0.962100  0.865400  1
  N  N2258  1  0.972600  0.037900  0.365400  1
  N  N2259  1  0.287900  0.277400  0.615400  1
  N  N2260  1  0.212100  0.722600  0.115400  1
  N  N2261  1  0.027400  0.462100  0.365400  1
  N  N2262  1  0.472600  0.537900  0.865400  1
  N  N2263  1  0.787900  0.777400  0.115400  1
  N  N2264  1  0.712100  0.222600  0.615400  1
  N  N2265  1  0.180800  0.478600  0.298000  1
  N  N2266  1  0.319200  0.521400  0.798000  1
  N  N2267  1  0.271400  0.430800  0.548000  1
  N  N2268  1  0.228600  0.569200  0.048000  1
  N  N2269  1  0.680800  0.978600  0.798000  1
  N  N2270  1  0.819200  0.021400  0.298000  1
  N  N2271  1  0.771400  0.930800  0.048000  1
  N  N2272  1  0.728600  0.069200  0.548000  1
  N  N2273  1  0.819200  0.521400  0.702000  1
  N  N2274  1  0.680800  0.478600  0.202000  1
  N  N2275  1  0.728600  0.569200  0.452000  1
  N  N2276  1  0.771400  0.430800  0.952000  1
  N  N2277  1  0.319200  0.021400  0.202000  1
  N  N2278  1  0.180800  0.978600  0.702000  1
  N  N2279  1  0.228600  0.069200  0.952000  1
  N  N2280  1  0.271400  0.930800  0.452000  1
  N  N2281  1  0.649600  0.225100  0.063600  1
  N  N2282  1  0.850400  0.774900  0.563600  1
  N  N2283  1  0.524900  0.899600  0.313600  1
  N  N2284  1  0.975100  0.100400  0.813600  1
  N  N2285  1  0.149600  0.725100  0.563600  1
  N  N2286  1  0.350400  0.274900  0.063600  1
  N  N2287  1  0.024900  0.399600  0.813600  1
  N  N2288  1  0.475100  0.600400  0.313600  1
  N  N2289  1  0.350400  0.774900  0.936400  1
  N  N2290  1  0.149600  0.225100  0.436400  1
  N  N2291  1  0.475100  0.100400  0.686400  1
  N  N2292  1  0.024900  0.899600  0.186400  1
  N  N2293  1  0.850400  0.274900  0.436400  1
  N  N2294  1  0.649600  0.725100  0.936400  1
  N  N2295  1  0.975100  0.600400  0.186400  1
  N  N2296  1  0.524900  0.399600  0.686400  1
  N  N2297  1  0.501700  0.274900  0.304700  1
  N  N2298  1  0.998300  0.725100  0.804700  1
  N  N2299  1  0.475100  0.751700  0.554700  1
  N  N2300  1  0.024900  0.248300  0.054700  1
  N  N2301  1  0.001700  0.774900  0.804700  1
  N  N2302  1  0.498300  0.225100  0.304700  1
  N  N2303  1  0.975100  0.251700  0.054700  1
  N  N2304  1  0.524900  0.748300  0.554700  1
  N  N2305  1  0.498300  0.725100  0.695300  1
  N  N2306  1  0.001700  0.274900  0.195300  1
  N  N2307  1  0.524900  0.248300  0.445300  1
  N  N2308  1  0.975100  0.751700  0.945300  1
  N  N2309  1  0.998300  0.225100  0.195300  1
  N  N2310  1  0.501700  0.774900  0.695300  1
  N  N2311  1  0.024900  0.748300  0.945300  1
  N  N2312  1  0.475100  0.251700  0.445300  1
  N  N2313  1  0.404800  0.586200  0.458000  1
  N  N2314  1  0.095200  0.413800  0.958000  1
  N  N2315  1  0.163800  0.654800  0.708000  1
  N  N2316  1  0.336200  0.345200  0.208000  1
  N  N2317  1  0.904800  0.086200  0.958000  1
  N  N2318  1  0.595200  0.913800  0.458000  1
  N  N2319  1  0.663800  0.154800  0.208000  1
  N  N2320  1  0.836200  0.845200  0.708000  1
  N  N2321  1  0.595200  0.413800  0.542000  1
  N  N2322  1  0.904800  0.586200  0.042000  1
  N  N2323  1  0.836200  0.345200  0.292000  1
  N  N2324  1  0.663800  0.654800  0.792000  1
  N  N2325  1  0.095200  0.913800  0.042000  1
  N  N2326  1  0.404800  0.086200  0.542000  1
  N  N2327  1  0.336200  0.845200  0.792000  1
  N  N2328  1  0.163800  0.154800  0.292000  1
  N  N2329  1  0.648100  0.174500  0.993900  1
  N  N2330  1  0.851900  0.825500  0.493900  1
  N  N2331  1  0.575500  0.898100  0.243900  1
  N  N2332  1  0.924500  0.101900  0.743900  1
  N  N2333  1  0.148100  0.674500  0.493900  1
  N  N2334  1  0.351900  0.325500  0.993900  1
  N  N2335  1  0.075500  0.398100  0.743900  1
  N  N2336  1  0.424500  0.601900  0.243900  1
  N  N2337  1  0.351900  0.825500  0.006100  1
  N  N2338  1  0.148100  0.174500  0.506100  1
  N  N2339  1  0.424500  0.101900  0.756100  1
  N  N2340  1  0.075500  0.898100  0.256100  1
  N  N2341  1  0.851900  0.325500  0.506100  1
  N  N2342  1  0.648100  0.674500  0.006100  1
  N  N2343  1  0.924500  0.601900  0.256100  1
  N  N2344  1  0.575500  0.398100  0.756100  1
  N  N2345  1  0.681400  0.206800  0.993400  1
  N  N2346  1  0.818600  0.793200  0.493400  1
  N  N2347  1  0.543200  0.931400  0.243400  1
  N  N2348  1  0.956800  0.068600  0.743400  1
  N  N2349  1  0.181400  0.706800  0.493400  1
  N  N2350  1  0.318600  0.293200  0.993400  1
  N  N2351  1  0.043200  0.431400  0.743400  1
  N  N2352  1  0.456800  0.568600  0.243400  1
  N  N2353  1  0.318600  0.793200  0.006600  1
  N  N2354  1  0.181400  0.206800  0.506600  1
  N  N2355  1  0.456800  0.068600  0.756600  1
  N  N2356  1  0.043200  0.931400  0.256600  1
  N  N2357  1  0.818600  0.293200  0.506600  1
  N  N2358  1  0.681400  0.706800  0.006600  1
  N  N2359  1  0.956800  0.568600  0.256600  1
  N  N2360  1  0.543200  0.431400  0.756600  1
  N  N2361  1  0.508050  0.301770  0.130160  1.0
  N  N2362  1  0.991950  0.698230  0.630160  1.0
  N  N2363  1  0.448230  0.758050  0.380160  1.0
  N  N2364  1  0.051770  0.241950  0.880160  1.0
  N  N2365  1  0.008050  0.801770  0.630160  1.0
  N  N2366  1  0.491950  0.198230  0.130160  1.0
  N  N2367  1  0.948230  0.258050  0.880160  1.0
  N  N2368  1  0.551770  0.741950  0.380160  1.0
  N  N2369  1  0.491950  0.698230  0.869840  1.0
  N  N2370  1  0.008050  0.301770  0.369840  1.0
  N  N2371  1  0.551770  0.241950  0.619840  1.0
  N  N2372  1  0.948230  0.758050  0.119840  1.0
  N  N2373  1  0.991950  0.198230  0.369840  1.0
  N  N2374  1  0.508050  0.801770  0.869840  1.0
  N  N2375  1  0.051770  0.741950  0.119840  1.0
  N  N2376  1  0.448230  0.258050  0.619840  1.0
  N  N2377  1  0.352860  0.510140  0.345340  1.0
  N  N2378  1  0.147140  0.489860  0.845340  1.0
  N  N2379  1  0.239860  0.602860  0.595340  1.0
  N  N2380  1  0.260140  0.397140  0.095340  1.0
  N  N2381  1  0.852860  0.010140  0.845340  1.0
  N  N2382  1  0.647140  0.989860  0.345340  1.0
  N  N2383  1  0.739860  0.102860  0.095340  1.0
  N  N2384  1  0.760140  0.897140  0.595340  1.0
  N  N2385  1  0.647140  0.489860  0.654660  1.0
  N  N2386  1  0.852860  0.510140  0.154660  1.0
  N  N2387  1  0.760140  0.397140  0.404660  1.0
  N  N2388  1  0.739860  0.602860  0.904660  1.0
  N  N2389  1  0.147140  0.989860  0.154660  1.0
  N  N2390  1  0.352860  0.010140  0.654660  1.0
  N  N2391  1  0.260140  0.897140  0.904660  1.0
  N  N2392  1  0.239860  0.102860  0.404660  1.0
  N  N2393  1  0.291800  0.466310  0.406270  1.0
  N  N2394  1  0.208200  0.533690  0.906270  1.0
  N  N2395  1  0.283690  0.541800  0.656270  1.0
  N  N2396  1  0.216310  0.458200  0.156270  1.0
  N  N2397  1  0.791800  0.966310  0.906270  1.0
  N  N2398  1  0.708200  0.033690  0.406270  1.0
  N  N2399  1  0.783690  0.041800  0.156270  1.0
  N  N2400  1  0.716310  0.958200  0.656270  1.0
  N  N2401  1  0.708200  0.533690  0.593730  1.0
  N  N2402  1  0.791800  0.466310  0.093730  1.0
  N  N2403  1  0.716310  0.458200  0.343730  1.0
  N  N2404  1  0.783690  0.541800  0.843730  1.0
  N  N2405  1  0.208200  0.033690  0.093730  1.0
  N  N2406  1  0.291800  0.966310  0.593730  1.0
  N  N2407  1  0.216310  0.958200  0.843730  1.0
  N  N2408  1  0.283690  0.041800  0.343730  1.0
  N  N2409  1  0.478570  0.416550  0.254570  1.0
  N  N2410  1  0.021430  0.583450  0.754570  1.0
  N  N2411  1  0.333450  0.728570  0.504570  1.0
  N  N2412  1  0.166550  0.271430  0.004570  1.0
  N  N2413  1  0.978570  0.916550  0.754570  1.0
  N  N2414  1  0.521430  0.083450  0.254570  1.0
  N  N2415  1  0.833450  0.228570  0.004570  1.0
  N  N2416  1  0.666550  0.771430  0.504570  1.0
  N  N2417  1  0.521430  0.583450  0.745430  1.0
  N  N2418  1  0.978570  0.416550  0.245430  1.0
  N  N2419  1  0.666550  0.271430  0.495430  1.0
  N  N2420  1  0.833450  0.728570  0.995430  1.0
  N  N2421  1  0.021430  0.083450  0.245430  1.0
  N  N2422  1  0.478570  0.916550  0.745430  1.0
  N  N2423  1  0.166550  0.771430  0.995430  1.0
  N  N2424  1  0.333450  0.228570  0.495430  1.0
  N  N2425  1  0.529890  0.454050  0.307970  1.0
  N  N2426  1  0.970110  0.545950  0.807970  1.0
  N  N2427  1  0.295950  0.779890  0.557970  1.0
  N  N2428  1  0.204050  0.220110  0.057970  1.0
  N  N2429  1  0.029890  0.954050  0.807970  1.0
  N  N2430  1  0.470110  0.045950  0.307970  1.0
  N  N2431  1  0.795950  0.279890  0.057970  1.0
  N  N2432  1  0.704050  0.720110  0.557970  1.0
  N  N2433  1  0.470110  0.545950  0.692030  1.0
  N  N2434  1  0.029890  0.454050  0.192030  1.0
  N  N2435  1  0.704050  0.220110  0.442030  1.0
  N  N2436  1  0.795950  0.779890  0.942030  1.0
  N  N2437  1  0.970110  0.045950  0.192030  1.0
  N  N2438  1  0.529890  0.954050  0.692030  1.0
  N  N2439  1  0.204050  0.720110  0.942030  1.0
  N  N2440  1  0.295950  0.279890  0.442030  1.0
  N  N2441  1  0.568450  0.404280  0.254500  1.0
  N  N2442  1  0.931550  0.595720  0.754500  1.0
  N  N2443  1  0.345720  0.818450  0.504500  1.0
  N  N2444  1  0.154280  0.181550  0.004500  1.0
  N  N2445  1  0.068450  0.904280  0.754500  1.0
  N  N2446  1  0.431550  0.095720  0.254500  1.0
  N  N2447  1  0.845720  0.318450  0.004500  1.0
  N  N2448  1  0.654280  0.681550  0.504500  1.0
  N  N2449  1  0.431550  0.595720  0.745500  1.0
  N  N2450  1  0.068450  0.404280  0.245500  1.0
  N  N2451  1  0.654280  0.181550  0.495500  1.0
  N  N2452  1  0.845720  0.818450  0.995500  1.0
  N  N2453  1  0.931550  0.095720  0.245500  1.0
  N  N2454  1  0.568450  0.904280  0.745500  1.0
  N  N2455  1  0.154280  0.681550  0.995500  1.0
  N  N2456  1  0.345720  0.318450  0.495500  1.0
  N  N2457  1  0.491010  0.197400  0.034880  1.0
  N  N2458  1  0.008990  0.802600  0.534880  1.0
  N  N2459  1  0.552600  0.741010  0.284880  1.0
  N  N2460  1  0.947400  0.258990  0.784880  1.0
  N  N2461  1  0.991010  0.697400  0.534880  1.0
  N  N2462  1  0.508990  0.302600  0.034880  1.0
  N  N2463  1  0.052600  0.241010  0.784880  1.0
  N  N2464  1  0.447400  0.758990  0.284880  1.0
  N  N2465  1  0.508990  0.802600  0.965120  1.0
  N  N2466  1  0.991010  0.197400  0.465120  1.0
  N  N2467  1  0.447400  0.258990  0.715120  1.0
  N  N2468  1  0.052600  0.741010  0.215120  1.0
  N  N2469  1  0.008990  0.302600  0.465120  1.0
  N  N2470  1  0.491010  0.697400  0.965120  1.0
  N  N2471  1  0.947400  0.758990  0.215120  1.0
  N  N2472  1  0.552600  0.241010  0.715120  1.0
  N  N2473  1  0.225470  0.560320  0.407820  1.0
  N  N2474  1  0.274530  0.439680  0.907820  1.0
  N  N2475  1  0.189680  0.475470  0.657820  1.0
  N  N2476  1  0.310320  0.524530  0.157820  1.0
  N  N2477  1  0.725470  0.060320  0.907820  1.0
  N  N2478  1  0.774530  0.939680  0.407820  1.0
  N  N2479  1  0.689680  0.975470  0.157820  1.0
  N  N2480  1  0.810320  0.024530  0.657820  1.0
  N  N2481  1  0.774530  0.439680  0.592180  1.0
  N  N2482  1  0.725470  0.560320  0.092180  1.0
  N  N2483  1  0.810320  0.524530  0.342180  1.0
  N  N2484  1  0.689680  0.475470  0.842180  1.0
  N  N2485  1  0.274530  0.939680  0.092180  1.0
  N  N2486  1  0.225470  0.060320  0.592180  1.0
  N  N2487  1  0.310320  0.024530  0.842180  1.0
  N  N2488  1  0.189680  0.975470  0.342180  1.0
  N  N2489  1  0.288480  0.605090  0.346790  1.0
  N  N2490  1  0.211520  0.394910  0.846790  1.0
  N  N2491  1  0.144910  0.538480  0.596790  1.0
  N  N2492  1  0.355090  0.461520  0.096790  1.0
  N  N2493  1  0.788480  0.105090  0.846790  1.0
  N  N2494  1  0.711520  0.894910  0.346790  1.0
  N  N2495  1  0.644910  0.038480  0.096790  1.0
  N  N2496  1  0.855090  0.961520  0.596790  1.0
  N  N2497  1  0.711520  0.394910  0.653210  1.0
  N  N2498  1  0.788480  0.605090  0.153210  1.0
  N  N2499  1  0.855090  0.461520  0.403210  1.0
  N  N2500  1  0.644910  0.538480  0.903210  1.0
  N  N2501  1  0.211520  0.894910  0.153210  1.0
  N  N2502  1  0.288480  0.105090  0.653210  1.0
  N  N2503  1  0.355090  0.961520  0.903210  1.0
  N  N2504  1  0.144910  0.038480  0.403210  1.0
  O  O2505  1  0.371100  0.591100  0.454900  1
  O  O2506  1  0.128900  0.408900  0.954900  1
  O  O2507  1  0.158900  0.621100  0.704900  1
  O  O2508  1  0.341100  0.378900  0.204900  1
  O  O2509  1  0.871100  0.091100  0.954900  1
  O  O2510  1  0.628900  0.908900  0.454900  1
  O  O2511  1  0.658900  0.121100  0.204900  1
  O  O2512  1  0.841100  0.878900  0.704900  1
  O  O2513  1  0.628900  0.408900  0.545100  1
  O  O2514  1  0.871100  0.591100  0.045100  1
  O  O2515  1  0.841100  0.378900  0.295100  1
  O  O2516  1  0.658900  0.621100  0.795100  1
  O  O2517  1  0.128900  0.908900  0.045100  1
  O  O2518  1  0.371100  0.091100  0.545100  1
  O  O2519  1  0.341100  0.878900  0.795100  1
  O  O2520  1  0.158900  0.121100  0.295100  1
  O  O2521  1  0.359100  0.546600  0.510900  1
  O  O2522  1  0.140900  0.453400  0.010900  1
  O  O2523  1  0.203400  0.609100  0.760900  1
  O  O2524  1  0.296600  0.390900  0.260900  1
  O  O2525  1  0.859100  0.046600  0.010900  1
  O  O2526  1  0.640900  0.953400  0.510900  1
  O  O2527  1  0.703400  0.109100  0.260900  1
  O  O2528  1  0.796600  0.890900  0.760900  1
  O  O2529  1  0.640900  0.453400  0.489100  1
  O  O2530  1  0.859100  0.546600  0.989100  1
  O  O2531  1  0.796600  0.390900  0.239100  1
  O  O2532  1  0.703400  0.609100  0.739100  1
  O  O2533  1  0.140900  0.953400  0.989100  1
  O  O2534  1  0.359100  0.046600  0.489100  1
  O  O2535  1  0.296600  0.890900  0.739100  1
  O  O2536  1  0.203400  0.109100  0.239100  1
  O  O2537  1  0.425300  0.534200  0.474100  1
  O  O2538  1  0.074700  0.465800  0.974100  1
  O  O2539  1  0.215800  0.675300  0.724100  1
  O  O2540  1  0.284200  0.324700  0.224100  1
  O  O2541  1  0.925300  0.034200  0.974100  1
  O  O2542  1  0.574700  0.965800  0.474100  1
  O  O2543  1  0.715800  0.175300  0.224100  1
  O  O2544  1  0.784200  0.824700  0.724100  1
  O  O2545  1  0.574700  0.465800  0.525900  1
  O  O2546  1  0.925300  0.534200  0.025900  1
  O  O2547  1  0.784200  0.324700  0.275900  1
  O  O2548  1  0.715800  0.675300  0.775900  1
  O  O2549  1  0.074700  0.965800  0.025900  1
  O  O2550  1  0.425300  0.034200  0.525900  1
  O  O2551  1  0.284200  0.824700  0.775900  1
  O  O2552  1  0.215800  0.175300  0.275900  1
  O  O2553  1  0.209300  0.350000  0.305400  1
  O  O2554  1  0.290700  0.650000  0.805400  1
  O  O2555  1  0.400000  0.459300  0.555400  1
  O  O2556  1  0.100000  0.540700  0.055400  1
  O  O2557  1  0.709300  0.850000  0.805400  1
  O  O2558  1  0.790700  0.150000  0.305400  1
  O  O2559  1  0.900000  0.959300  0.055400  1
  O  O2560  1  0.600000  0.040700  0.555400  1
  O  O2561  1  0.790700  0.650000  0.694600  1
  O  O2562  1  0.709300  0.350000  0.194600  1
  O  O2563  1  0.600000  0.540700  0.444600  1
  O  O2564  1  0.900000  0.459300  0.944600  1
  O  O2565  1  0.290700  0.150000  0.194600  1
  O  O2566  1  0.209300  0.850000  0.694600  1
  O  O2567  1  0.100000  0.040700  0.944600  1
  O  O2568  1  0.400000  0.959300  0.444600  1
  O  O2569  1  0.670300  0.248000  0.170300  1
  O  O2570  1  0.829700  0.752000  0.670300  1
  O  O2571  1  0.502000  0.920300  0.420300  1
  O  O2572  1  0.998000  0.079700  0.920300  1
  O  O2573  1  0.170300  0.748000  0.670300  1
  O  O2574  1  0.329700  0.252000  0.170300  1
  O  O2575  1  0.002000  0.420300  0.920300  1
  O  O2576  1  0.498000  0.579700  0.420300  1
  O  O2577  1  0.329700  0.752000  0.829700  1
  O  O2578  1  0.170300  0.248000  0.329700  1
  O  O2579  1  0.498000  0.079700  0.579700  1
  O  O2580  1  0.002000  0.920300  0.079700  1
  O  O2581  1  0.829700  0.252000  0.329700  1
  O  O2582  1  0.670300  0.748000  0.829700  1
  O  O2583  1  0.998000  0.579700  0.079700  1
  O  O2584  1  0.502000  0.420300  0.579700  1
  O  O2585  1  0.435400  0.604000  0.434500  1
  O  O2586  1  0.064600  0.396000  0.934500  1
  O  O2587  1  0.146000  0.685400  0.684500  1
  O  O2588  1  0.354000  0.314600  0.184500  1
  O  O2589  1  0.935400  0.104000  0.934500  1
  O  O2590  1  0.564600  0.896000  0.434500  1
  O  O2591  1  0.646000  0.185400  0.184500  1
  O  O2592  1  0.854000  0.814600  0.684500  1
  O  O2593  1  0.564600  0.396000  0.565500  1
  O  O2594  1  0.935400  0.604000  0.065500  1
  O  O2595  1  0.854000  0.314600  0.315500  1
  O  O2596  1  0.646000  0.685400  0.815500  1
  O  O2597  1  0.064600  0.896000  0.065500  1
  O  O2598  1  0.435400  0.104000  0.565500  1
  O  O2599  1  0.354000  0.814600  0.815500  1
  O  O2600  1  0.146000  0.185400  0.315500  1
  O  O2601  1  0.509300  0.013400  0.153700  1
  O  O2602  1  0.990700  0.986600  0.653700  1
  O  O2603  1  0.736600  0.759300  0.403700  1
  O  O2604  1  0.763400  0.240700  0.903700  1
  O  O2605  1  0.009300  0.513400  0.653700  1
  O  O2606  1  0.490700  0.486600  0.153700  1
  O  O2607  1  0.236600  0.259300  0.903700  1
  O  O2608  1  0.263400  0.740700  0.403700  1
  O  O2609  1  0.490700  0.986600  0.846300  1
  O  O2610  1  0.009300  0.013400  0.346300  1
  O  O2611  1  0.263400  0.240700  0.596300  1
  O  O2612  1  0.236600  0.759300  0.096300  1
  O  O2613  1  0.990700  0.486600  0.346300  1
  O  O2614  1  0.509300  0.513400  0.846300  1
  O  O2615  1  0.763400  0.740700  0.096300  1
  O  O2616  1  0.736600  0.259300  0.596300  1
  O  O2617  1  0.425600  0.030300  0.154200  1
  O  O2618  1  0.074400  0.969700  0.654200  1
  O  O2619  1  0.719700  0.675600  0.404200  1
  O  O2620  1  0.780300  0.324400  0.904200  1
  O  O2621  1  0.925600  0.530300  0.654200  1
  O  O2622  1  0.574400  0.469700  0.154200  1
  O  O2623  1  0.219700  0.175600  0.904200  1
  O  O2624  1  0.280300  0.824400  0.404200  1
  O  O2625  1  0.574400  0.969700  0.845800  1
  O  O2626  1  0.925600  0.030300  0.345800  1
  O  O2627  1  0.280300  0.324400  0.595800  1
  O  O2628  1  0.219700  0.675600  0.095800  1
  O  O2629  1  0.074400  0.469700  0.345800  1
  O  O2630  1  0.425600  0.530300  0.845800  1
  O  O2631  1  0.780300  0.824400  0.095800  1
  O  O2632  1  0.719700  0.175600  0.595800  1
  O  O2633  1  0.446000  0.070300  0.106500  1
  O  O2634  1  0.054000  0.929700  0.606500  1
  O  O2635  1  0.679700  0.696000  0.356500  1
  O  O2636  1  0.820300  0.304000  0.856500  1
  O  O2637  1  0.946000  0.570300  0.606500  1
  O  O2638  1  0.554000  0.429700  0.106500  1
  O  O2639  1  0.179700  0.196000  0.856500  1
  O  O2640  1  0.320300  0.804000  0.356500  1
  O  O2641  1  0.554000  0.929700  0.893500  1
  O  O2642  1  0.946000  0.070300  0.393500  1
  O  O2643  1  0.320300  0.304000  0.643500  1
  O  O2644  1  0.179700  0.696000  0.143500  1
  O  O2645  1  0.054000  0.429700  0.393500  1
  O  O2646  1  0.446000  0.570300  0.893500  1
  O  O2647  1  0.820300  0.804000  0.143500  1
  O  O2648  1  0.679700  0.196000  0.643500  1
  O  O2649  1  0.145100  0.508300  0.287300  1
  O  O2650  1  0.354900  0.491700  0.787300  1
  O  O2651  1  0.241700  0.395100  0.537300  1
  O  O2652  1  0.258300  0.604900  0.037300  1
  O  O2653  1  0.645100  0.008300  0.787300  1
  O  O2654  1  0.854900  0.991700  0.287300  1
  O  O2655  1  0.741700  0.895100  0.037300  1
  O  O2656  1  0.758300  0.104900  0.537300  1
  O  O2657  1  0.854900  0.491700  0.712700  1
  O  O2658  1  0.645100  0.508300  0.212700  1
  O  O2659  1  0.758300  0.604900  0.462700  1
  O  O2660  1  0.741700  0.395100  0.962700  1
  O  O2661  1  0.354900  0.991700  0.212700  1
  O  O2662  1  0.145100  0.008300  0.712700  1
  O  O2663  1  0.258300  0.104900  0.962700  1
  O  O2664  1  0.241700  0.895100  0.462700  1
  O  O2665  1  0.164000  0.438200  0.319800  1
  O  O2666  1  0.336000  0.561800  0.819800  1
  O  O2667  1  0.311800  0.414000  0.569800  1
  O  O2668  1  0.188200  0.586000  0.069800  1
  O  O2669  1  0.664000  0.938200  0.819800  1
  O  O2670  1  0.836000  0.061800  0.319800  1
  O  O2671  1  0.811800  0.914000  0.069800  1
  O  O2672  1  0.688200  0.086000  0.569800  1
  O  O2673  1  0.836000  0.561800  0.680200  1
  O  O2674  1  0.664000  0.438200  0.180200  1
  O  O2675  1  0.688200  0.586000  0.430200  1
  O  O2676  1  0.811800  0.414000  0.930200  1
  O  O2677  1  0.336000  0.061800  0.180200  1
  O  O2678  1  0.164000  0.938200  0.680200  1
  O  O2679  1  0.188200  0.086000  0.930200  1
  O  O2680  1  0.311800  0.914000  0.430200  1
  O  O2681  1  0.224700  0.496400  0.292500  1
  O  O2682  1  0.275300  0.503600  0.792500  1
  O  O2683  1  0.253600  0.474700  0.542500  1
  O  O2684  1  0.246400  0.525300  0.042500  1
  O  O2685  1  0.724700  0.996400  0.792500  1
  O  O2686  1  0.775300  0.003600  0.292500  1
  O  O2687  1  0.753600  0.974700  0.042500  1
  O  O2688  1  0.746400  0.025300  0.542500  1
  O  O2689  1  0.775300  0.503600  0.707500  1
  O  O2690  1  0.724700  0.496400  0.207500  1
  O  O2691  1  0.746400  0.525300  0.457500  1
  O  O2692  1  0.753600  0.474700  0.957500  1
  O  O2693  1  0.275300  0.003600  0.207500  1
  O  O2694  1  0.224700  0.996400  0.707500  1
  O  O2695  1  0.246400  0.025300  0.957500  1
  O  O2696  1  0.253600  0.974700  0.457500  1
  O  O2697  1  0.107600  0.571400  0.232100  1
  O  O2698  1  0.392400  0.428600  0.732100  1
  O  O2699  1  0.178600  0.357600  0.482100  1
  O  O2700  1  0.321400  0.642400  0.982100  1
  O  O2701  1  0.607600  0.071400  0.732100  1
  O  O2702  1  0.892400  0.928600  0.232100  1
  O  O2703  1  0.678600  0.857600  0.982100  1
  O  O2704  1  0.821400  0.142400  0.482100  1
  O  O2705  1  0.892400  0.428600  0.767900  1
  O  O2706  1  0.607600  0.571400  0.267900  1
  O  O2707  1  0.821400  0.642400  0.517900  1
  O  O2708  1  0.678600  0.357600  0.017900  1
  O  O2709  1  0.392400  0.928600  0.267900  1
  O  O2710  1  0.107600  0.071400  0.767900  1
  O  O2711  1  0.321400  0.142400  0.017900  1
  O  O2712  1  0.178600  0.857600  0.517900  1
  O  O2713  1  0.460900  0.976100  0.220800  1
  O  O2714  1  0.039100  0.023900  0.720800  1
  O  O2715  1  0.773900  0.710900  0.470800  1
  O  O2716  1  0.726100  0.289100  0.970800  1
  O  O2717  1  0.960900  0.476100  0.720800  1
  O  O2718  1  0.539100  0.523900  0.220800  1
  O  O2719  1  0.273900  0.210900  0.970800  1
  O  O2720  1  0.226100  0.789100  0.470800  1
  O  O2721  1  0.539100  0.023900  0.779200  1
  O  O2722  1  0.960900  0.976100  0.279200  1
  O  O2723  1  0.226100  0.289100  0.529200  1
  O  O2724  1  0.273900  0.710900  0.029200  1
  O  O2725  1  0.039100  0.523900  0.279200  1
  O  O2726  1  0.460900  0.476100  0.779200  1
  O  O2727  1  0.726100  0.789100  0.029200  1
  O  O2728  1  0.773900  0.210900  0.529200  1
  O  O2729  1  0.138900  0.395300  0.395400  1
  O  O2730  1  0.361100  0.604700  0.895400  1
  O  O2731  1  0.354700  0.388900  0.645400  1
  O  O2732  1  0.145300  0.611100  0.145400  1
  O  O2733  1  0.638900  0.895300  0.895400  1
  O  O2734  1  0.861100  0.104700  0.395400  1
  O  O2735  1  0.854700  0.888900  0.145400  1
  O  O2736  1  0.645300  0.111100  0.645400  1
  O  O2737  1  0.861100  0.604700  0.604600  1
  O  O2738  1  0.638900  0.395300  0.104600  1
  O  O2739  1  0.645300  0.611100  0.354600  1
  O  O2740  1  0.854700  0.388900  0.854600  1
  O  O2741  1  0.361100  0.104700  0.104600  1
  O  O2742  1  0.138900  0.895300  0.604600  1
  O  O2743  1  0.145300  0.111100  0.854600  1
  O  O2744  1  0.354700  0.888900  0.354600  1
  O  O2745  1  0.330800  0.188000  0.096800  1
  O  O2746  1  0.169200  0.812000  0.596800  1
  O  O2747  1  0.562000  0.580800  0.346800  1
  O  O2748  1  0.938000  0.419200  0.846800  1
  O  O2749  1  0.830800  0.688000  0.596800  1
  O  O2750  1  0.669200  0.312000  0.096800  1
  O  O2751  1  0.062000  0.080800  0.846800  1
  O  O2752  1  0.438000  0.919200  0.346800  1
  O  O2753  1  0.669200  0.812000  0.903200  1
  O  O2754  1  0.830800  0.188000  0.403200  1
  O  O2755  1  0.438000  0.419200  0.653200  1
  O  O2756  1  0.062000  0.580800  0.153200  1
  O  O2757  1  0.169200  0.312000  0.403200  1
  O  O2758  1  0.330800  0.688000  0.903200  1
  O  O2759  1  0.938000  0.919200  0.153200  1
  O  O2760  1  0.562000  0.080800  0.653200  1
  O  O2761  1  0.557300  0.068500  0.945700  1
  O  O2762  1  0.942700  0.931500  0.445700  1
  O  O2763  1  0.681500  0.807300  0.195700  1
  O  O2764  1  0.818500  0.192700  0.695700  1
  O  O2765  1  0.057300  0.568500  0.445700  1
  O  O2766  1  0.442700  0.431500  0.945700  1
  O  O2767  1  0.181500  0.307300  0.695700  1
  O  O2768  1  0.318500  0.692700  0.195700  1
  O  O2769  1  0.442700  0.931500  0.054300  1
  O  O2770  1  0.057300  0.068500  0.554300  1
  O  O2771  1  0.318500  0.192700  0.804300  1
  O  O2772  1  0.181500  0.807300  0.304300  1
  O  O2773  1  0.942700  0.431500  0.554300  1
  O  O2774  1  0.557300  0.568500  0.054300  1
  O  O2775  1  0.818500  0.692700  0.304300  1
  O  O2776  1  0.681500  0.307300  0.804300  1
  O  O2777  1  0.633000  0.242300  0.097300  1
  O  O2778  1  0.867000  0.757700  0.597300  1
  O  O2779  1  0.507700  0.883000  0.347300  1
  O  O2780  1  0.992300  0.117000  0.847300  1
  O  O2781  1  0.133000  0.742300  0.597300  1
  O  O2782  1  0.367000  0.257700  0.097300  1
  O  O2783  1  0.007700  0.383000  0.847300  1
  O  O2784  1  0.492300  0.617000  0.347300  1
  O  O2785  1  0.367000  0.757700  0.902700  1
  O  O2786  1  0.133000  0.242300  0.402700  1
  O  O2787  1  0.492300  0.117000  0.652700  1
  O  O2788  1  0.007700  0.883000  0.152700  1
  O  O2789  1  0.867000  0.257700  0.402700  1
  O  O2790  1  0.633000  0.742300  0.902700  1
  O  O2791  1  0.992300  0.617000  0.152700  1
  O  O2792  1  0.507700  0.383000  0.652700  1
  O  O2793  1  0.672000  0.254500  0.040000  1
  O  O2794  1  0.828000  0.745500  0.540000  1
  O  O2795  1  0.495500  0.922000  0.290000  1
  O  O2796  1  0.004500  0.078000  0.790000  1
  O  O2797  1  0.172000  0.754500  0.540000  1
  O  O2798  1  0.328000  0.245500  0.040000  1
  O  O2799  1  0.995500  0.422000  0.790000  1
  O  O2800  1  0.504500  0.578000  0.290000  1
  O  O2801  1  0.328000  0.745500  0.960000  1
  O  O2802  1  0.172000  0.254500  0.460000  1
  O  O2803  1  0.504500  0.078000  0.710000  1
  O  O2804  1  0.995500  0.922000  0.210000  1
  O  O2805  1  0.828000  0.245500  0.460000  1
  O  O2806  1  0.672000  0.754500  0.960000  1
  O  O2807  1  0.004500  0.578000  0.210000  1
  O  O2808  1  0.495500  0.422000  0.710000  1
  O  O2809  1  0.645900  0.184000  0.044800  1
  O  O2810  1  0.854100  0.816000  0.544800  1
  O  O2811  1  0.566000  0.895900  0.294800  1
  O  O2812  1  0.934000  0.104100  0.794800  1
  O  O2813  1  0.145900  0.684000  0.544800  1
  O  O2814  1  0.354100  0.316000  0.044800  1
  O  O2815  1  0.066000  0.395900  0.794800  1
  O  O2816  1  0.434000  0.604100  0.294800  1
  O  O2817  1  0.354100  0.816000  0.955200  1
  O  O2818  1  0.145900  0.184000  0.455200  1
  O  O2819  1  0.434000  0.104100  0.705200  1
  O  O2820  1  0.066000  0.895900  0.205200  1
  O  O2821  1  0.854100  0.316000  0.455200  1
  O  O2822  1  0.645900  0.684000  0.955200  1
  O  O2823  1  0.934000  0.604100  0.205200  1
  O  O2824  1  0.566000  0.395900  0.705200  1
  O  O2825  1  0.114800  0.644700  0.322600  1
  O  O2826  1  0.385200  0.355300  0.822600  1
  O  O2827  1  0.105300  0.364800  0.572600  1
  O  O2828  1  0.394700  0.635200  0.072600  1
  O  O2829  1  0.614800  0.144700  0.822600  1
  O  O2830  1  0.885200  0.855300  0.322600  1
  O  O2831  1  0.605300  0.864800  0.072600  1
  O  O2832  1  0.894700  0.135200  0.572600  1
  O  O2833  1  0.885200  0.355300  0.677400  1
  O  O2834  1  0.614800  0.644700  0.177400  1
  O  O2835  1  0.894700  0.635200  0.427400  1
  O  O2836  1  0.605300  0.364800  0.927400  1
  O  O2837  1  0.385200  0.855300  0.177400  1
  O  O2838  1  0.114800  0.144700  0.677400  1
  O  O2839  1  0.394700  0.135200  0.927400  1
  O  O2840  1  0.105300  0.864800  0.427400  1
  O  O2841  1  0.154700  0.742500  0.338300  1
  O  O2842  1  0.345300  0.257500  0.838300  1
  O  O2843  1  0.007500  0.404700  0.588300  1
  O  O2844  1  0.492500  0.595300  0.088300  1
  O  O2845  1  0.654700  0.242500  0.838300  1
  O  O2846  1  0.845300  0.757500  0.338300  1
  O  O2847  1  0.507500  0.904700  0.088300  1
  O  O2848  1  0.992500  0.095300  0.588300  1
  O  O2849  1  0.845300  0.257500  0.661700  1
  O  O2850  1  0.654700  0.742500  0.161700  1
  O  O2851  1  0.992500  0.595300  0.411700  1
  O  O2852  1  0.507500  0.404700  0.911700  1
  O  O2853  1  0.345300  0.757500  0.161700  1
  O  O2854  1  0.154700  0.242500  0.661700  1
  O  O2855  1  0.492500  0.095300  0.911700  1
  O  O2856  1  0.007500  0.904700  0.411700  1
  O  O2857  1  0.500000  0.250000  0.875000  1
  O  O2858  1  0.000000  0.750000  0.375000  1
  O  O2859  1  0.500000  0.750000  0.125000  1
  O  O2860  1  0.000000  0.250000  0.625000  1
  O  O2861  1  0.079800  0.471800  0.466400  1
  O  O2862  1  0.420200  0.528200  0.966400  1
  O  O2863  1  0.278200  0.329800  0.716400  1
  O  O2864  1  0.221800  0.670200  0.216400  1
  O  O2865  1  0.579800  0.971800  0.966400  1
  O  O2866  1  0.920200  0.028200  0.466400  1
  O  O2867  1  0.778200  0.829800  0.216400  1
  O  O2868  1  0.721800  0.170200  0.716400  1
  O  O2869  1  0.920200  0.528200  0.533600  1
  O  O2870  1  0.579800  0.471800  0.033600  1
  O  O2871  1  0.721800  0.670200  0.283600  1
  O  O2872  1  0.778200  0.329800  0.783600  1
  O  O2873  1  0.420200  0.028200  0.033600  1
  O  O2874  1  0.079800  0.971800  0.533600  1
  O  O2875  1  0.221800  0.170200  0.783600  1
  O  O2876  1  0.278200  0.829800  0.283600  1
  O  O2877  1  0.177800  0.427900  0.468200  1
  O  O2878  1  0.322200  0.572100  0.968200  1
  O  O2879  1  0.322100  0.427800  0.718200  1
  O  O2880  1  0.177900  0.572200  0.218200  1
  O  O2881  1  0.677800  0.927900  0.968200  1
  O  O2882  1  0.822200  0.072100  0.468200  1
  O  O2883  1  0.822100  0.927800  0.218200  1
  O  O2884  1  0.677900  0.072200  0.718200  1
  O  O2885  1  0.822200  0.572100  0.531800  1
  O  O2886  1  0.677800  0.427900  0.031800  1
  O  O2887  1  0.677900  0.572200  0.281800  1
  O  O2888  1  0.822100  0.427800  0.781800  1
  O  O2889  1  0.322200  0.072100  0.031800  1
  O  O2890  1  0.177800  0.927900  0.531800  1
  O  O2891  1  0.177900  0.072200  0.781800  1
  O  O2892  1  0.322100  0.927800  0.281800  1
  O  O2893  1  0.183000  0.706900  0.288200  1
  O  O2894  1  0.317000  0.293100  0.788200  1
  O  O2895  1  0.043100  0.433000  0.538200  1
  O  O2896  1  0.456900  0.567000  0.038200  1
  O  O2897  1  0.683000  0.206900  0.788200  1
  O  O2898  1  0.817000  0.793100  0.288200  1
  O  O2899  1  0.543100  0.933000  0.038200  1
  O  O2900  1  0.956900  0.067000  0.538200  1
  O  O2901  1  0.817000  0.293100  0.711800  1
  O  O2902  1  0.683000  0.706900  0.211800  1
  O  O2903  1  0.956900  0.567000  0.461800  1
  O  O2904  1  0.543100  0.433000  0.961800  1
  O  O2905  1  0.317000  0.793100  0.211800  1
  O  O2906  1  0.183000  0.206900  0.711800  1
  O  O2907  1  0.456900  0.067000  0.961800  1
  O  O2908  1  0.043100  0.933000  0.461800  1
  O  O2909  1  0.591800  0.239400  0.912700  1
  O  O2910  1  0.908200  0.760600  0.412700  1
  O  O2911  1  0.510600  0.841800  0.162700  1
  O  O2912  1  0.989400  0.158200  0.662700  1
  O  O2913  1  0.091800  0.739400  0.412700  1
  O  O2914  1  0.408200  0.260600  0.912700  1
  O  O2915  1  0.010600  0.341800  0.662700  1
  O  O2916  1  0.489400  0.658200  0.162700  1
  O  O2917  1  0.408200  0.760600  0.087300  1
  O  O2918  1  0.091800  0.239400  0.587300  1
  O  O2919  1  0.489400  0.158200  0.837300  1
  O  O2920  1  0.010600  0.841800  0.337300  1
  O  O2921  1  0.908200  0.260600  0.587300  1
  O  O2922  1  0.591800  0.739400  0.087300  1
  O  O2923  1  0.989400  0.658200  0.337300  1
  O  O2924  1  0.510600  0.341800  0.837300  1
  O  O2925  1  0.656800  0.302800  0.892200  1
  O  O2926  1  0.843200  0.697200  0.392200  1
  O  O2927  1  0.447200  0.906800  0.142200  1
  O  O2928  1  0.052800  0.093200  0.642200  1
  O  O2929  1  0.156800  0.802800  0.392200  1
  O  O2930  1  0.343200  0.197200  0.892200  1
  O  O2931  1  0.947200  0.406800  0.642200  1
  O  O2932  1  0.552800  0.593200  0.142200  1
  O  O2933  1  0.343200  0.697200  0.107800  1
  O  O2934  1  0.156800  0.302800  0.607800  1
  O  O2935  1  0.552800  0.093200  0.857800  1
  O  O2936  1  0.947200  0.906800  0.357800  1
  O  O2937  1  0.843200  0.197200  0.607800  1
  O  O2938  1  0.656800  0.802800  0.107800  1
  O  O2939  1  0.052800  0.593200  0.357800  1
  O  O2940  1  0.447200  0.406800  0.857800  1
  O  O2941  1  0.489700  0.200300  0.272100  1
  O  O2942  1  0.010300  0.799700  0.772100  1
  O  O2943  1  0.549700  0.739700  0.522100  1
  O  O2944  1  0.950300  0.260300  0.022100  1
  O  O2945  1  0.989700  0.700300  0.772100  1
  O  O2946  1  0.510300  0.299700  0.272100  1
  O  O2947  1  0.049700  0.239700  0.022100  1
  O  O2948  1  0.450300  0.760300  0.522100  1
  O  O2949  1  0.510300  0.799700  0.727900  1
  O  O2950  1  0.989700  0.200300  0.227900  1
  O  O2951  1  0.450300  0.260300  0.477900  1
  O  O2952  1  0.049700  0.739700  0.977900  1
  O  O2953  1  0.010300  0.299700  0.227900  1
  O  O2954  1  0.489700  0.700300  0.727900  1
  O  O2955  1  0.950300  0.760300  0.977900  1
  O  O2956  1  0.549700  0.239700  0.477900  1
  O  O2957  1  0.492500  0.350400  0.336500  1
  O  O2958  1  0.007500  0.649600  0.836500  1
  O  O2959  1  0.399600  0.742500  0.586500  1
  O  O2960  1  0.100400  0.257500  0.086500  1
  O  O2961  1  0.992500  0.850400  0.836500  1
  O  O2962  1  0.507500  0.149600  0.336500  1
  O  O2963  1  0.899600  0.242500  0.086500  1
  O  O2964  1  0.600400  0.757500  0.586500  1
  O  O2965  1  0.507500  0.649600  0.663500  1
  O  O2966  1  0.992500  0.350400  0.163500  1
  O  O2967  1  0.600400  0.257500  0.413500  1
  O  O2968  1  0.899600  0.742500  0.913500  1
  O  O2969  1  0.007500  0.149600  0.163500  1
  O  O2970  1  0.492500  0.850400  0.663500  1
  O  O2971  1  0.100400  0.757500  0.913500  1
  O  O2972  1  0.399600  0.242500  0.413500  1
  O  O2973  1  0.433400  0.556200  0.477500  1
  O  O2974  1  0.066600  0.443800  0.977500  1
  O  O2975  1  0.193800  0.683400  0.727500  1
  O  O2976  1  0.306200  0.316600  0.227500  1
  O  O2977  1  0.933400  0.056200  0.977500  1
  O  O2978  1  0.566600  0.943800  0.477500  1
  O  O2979  1  0.693800  0.183400  0.227500  1
  O  O2980  1  0.806200  0.816600  0.727500  1
  O  O2981  1  0.566600  0.443800  0.522500  1
  O  O2982  1  0.933400  0.556200  0.022500  1
  O  O2983  1  0.806200  0.316600  0.272500  1
  O  O2984  1  0.693800  0.683400  0.772500  1
  O  O2985  1  0.066600  0.943800  0.022500  1
  O  O2986  1  0.433400  0.056200  0.522500  1
  O  O2987  1  0.306200  0.816600  0.772500  1
  O  O2988  1  0.193800  0.183400  0.272500  1
  O  O2989  1  0.620100  0.212600  0.080900  1
  O  O2990  1  0.879900  0.787400  0.580900  1
  O  O2991  1  0.537400  0.870100  0.330900  1
  O  O2992  1  0.962600  0.129900  0.830900  1
  O  O2993  1  0.120100  0.712600  0.580900  1
  O  O2994  1  0.379900  0.287400  0.080900  1
  O  O2995  1  0.037400  0.370100  0.830900  1
  O  O2996  1  0.462600  0.629900  0.330900  1
  O  O2997  1  0.379900  0.787400  0.919100  1
  O  O2998  1  0.120100  0.212600  0.419100  1
  O  O2999  1  0.462600  0.129900  0.669100  1
  O  O3000  1  0.037400  0.870100  0.169100  1
  O  O3001  1  0.879900  0.287400  0.419100  1
  O  O3002  1  0.620100  0.712600  0.919100  1
  O  O3003  1  0.962600  0.629900  0.169100  1
  O  O3004  1  0.537400  0.370100  0.669100  1
  O  O3005  1  0.477400  0.060000  0.104600  1
  O  O3006  1  0.022600  0.940000  0.604600  1
  O  O3007  1  0.690000  0.727400  0.354600  1
  O  O3008  1  0.810000  0.272600  0.854600  1
  O  O3009  1  0.977400  0.560000  0.604600  1
  O  O3010  1  0.522600  0.440000  0.104600  1
  O  O3011  1  0.190000  0.227400  0.854600  1
  O  O3012  1  0.310000  0.772600  0.354600  1
  O  O3013  1  0.522600  0.940000  0.895400  1
  O  O3014  1  0.977400  0.060000  0.395400  1
  O  O3015  1  0.310000  0.272600  0.645400  1
  O  O3016  1  0.190000  0.727400  0.145400  1
  O  O3017  1  0.022600  0.440000  0.395400  1
  O  O3018  1  0.477400  0.560000  0.895400  1
  O  O3019  1  0.810000  0.772600  0.145400  1
  O  O3020  1  0.690000  0.227400  0.645400  1
  O  O3021  1  0.627000  0.165100  0.959600  1
  O  O3022  1  0.873000  0.834900  0.459600  1
  O  O3023  1  0.584900  0.877000  0.209600  1
  O  O3024  1  0.915100  0.123000  0.709600  1
  O  O3025  1  0.127000  0.665100  0.459600  1
  O  O3026  1  0.373000  0.334900  0.959600  1
  O  O3027  1  0.084900  0.377000  0.709600  1
  O  O3028  1  0.415100  0.623000  0.209600  1
  O  O3029  1  0.373000  0.834900  0.040400  1
  O  O3030  1  0.127000  0.165100  0.540400  1
  O  O3031  1  0.415100  0.123000  0.790400  1
  O  O3032  1  0.084900  0.877000  0.290400  1
  O  O3033  1  0.873000  0.334900  0.540400  1
  O  O3034  1  0.627000  0.665100  0.040400  1
  O  O3035  1  0.915100  0.623000  0.290400  1
  O  O3036  1  0.584900  0.377000  0.790400  1
  O  O3037  1  0.658200  0.220300  0.013200  1
  O  O3038  1  0.841800  0.779700  0.513200  1
  O  O3039  1  0.529700  0.908200  0.263200  1
  O  O3040  1  0.970300  0.091800  0.763200  1
  O  O3041  1  0.158200  0.720300  0.513200  1
  O  O3042  1  0.341800  0.279700  0.013200  1
  O  O3043  1  0.029700  0.408200  0.763200  1
  O  O3044  1  0.470300  0.591800  0.263200  1
  O  O3045  1  0.341800  0.779700  0.986800  1
  O  O3046  1  0.158200  0.220300  0.486800  1
  O  O3047  1  0.470300  0.091800  0.736800  1
  O  O3048  1  0.029700  0.908200  0.236800  1
  O  O3049  1  0.841800  0.279700  0.486800  1
  O  O3050  1  0.658200  0.720300  0.986800  1
  O  O3051  1  0.970300  0.591800  0.236800  1
  O  O3052  1  0.529700  0.408200  0.736800  1
  O  O3053  1  0.655100  0.145700  0.013000  1
  O  O3054  1  0.844900  0.854300  0.513000  1
  O  O3055  1  0.604300  0.905100  0.263000  1
  O  O3056  1  0.895700  0.094900  0.763000  1
  O  O3057  1  0.155100  0.645700  0.513000  1
  O  O3058  1  0.344900  0.354300  0.013000  1
  O  O3059  1  0.104300  0.405100  0.763000  1
  O  O3060  1  0.395700  0.594900  0.263000  1
  O  O3061  1  0.344900  0.854300  0.987000  1
  O  O3062  1  0.155100  0.145700  0.487000  1
  O  O3063  1  0.395700  0.094900  0.737000  1
  O  O3064  1  0.104300  0.905100  0.237000  1
  O  O3065  1  0.844900  0.354300  0.487000  1
  O  O3066  1  0.655100  0.645700  0.987000  1
  O  O3067  1  0.895700  0.594900  0.237000  1
  O  O3068  1  0.604300  0.405100  0.737000  1
  O  O3069  1  0.581500  0.091100  0.950000  1
  O  O3070  1  0.918500  0.908900  0.450000  1
  O  O3071  1  0.658900  0.831500  0.200000  1
  O  O3072  1  0.841100  0.168500  0.700000  1
  O  O3073  1  0.081500  0.591100  0.450000  1
  O  O3074  1  0.418500  0.408900  0.950000  1
  O  O3075  1  0.158900  0.331500  0.700000  1
  O  O3076  1  0.341100  0.668500  0.200000  1
  O  O3077  1  0.418500  0.908900  0.050000  1
  O  O3078  1  0.081500  0.091100  0.550000  1
  O  O3079  1  0.341100  0.168500  0.800000  1
  O  O3080  1  0.158900  0.831500  0.300000  1
  O  O3081  1  0.918500  0.408900  0.550000  1
  O  O3082  1  0.581500  0.591100  0.050000  1
  O  O3083  1  0.841100  0.668500  0.300000  1
  O  O3084  1  0.658900  0.331500  0.800000  1
  O  O3085  1  0.625600  0.224100  0.093400  1
  O  O3086  1  0.874400  0.775900  0.593400  1
  O  O3087  1  0.525900  0.875600  0.343400  1
  O  O3088  1  0.974100  0.124400  0.843400  1
  O  O3089  1  0.125600  0.724100  0.593400  1
  O  O3090  1  0.374400  0.275900  0.093400  1
  O  O3091  1  0.025900  0.375600  0.843400  1
  O  O3092  1  0.474100  0.624400  0.343400  1
  O  O3093  1  0.374400  0.775900  0.906600  1
  O  O3094  1  0.125600  0.224100  0.406600  1
  O  O3095  1  0.474100  0.124400  0.656600  1
  O  O3096  1  0.025900  0.875600  0.156600  1
  O  O3097  1  0.874400  0.275900  0.406600  1
  O  O3098  1  0.625600  0.724100  0.906600  1
  O  O3099  1  0.974100  0.624400  0.156600  1
  O  O3100  1  0.525900  0.375600  0.656600  1
  O  O3101  1  0.708900  0.200700  0.960800  1
  O  O3102  1  0.791100  0.799300  0.460800  1
  O  O3103  1  0.549300  0.958900  0.210800  1
  O  O3104  1  0.950700  0.041100  0.710800  1
  O  O3105  1  0.208900  0.700700  0.460800  1
  O  O3106  1  0.291100  0.299300  0.960800  1
  O  O3107  1  0.049300  0.458900  0.710800  1
  O  O3108  1  0.450700  0.541100  0.210800  1
  O  O3109  1  0.291100  0.799300  0.039200  1
  O  O3110  1  0.208900  0.200700  0.539200  1
  O  O3111  1  0.450700  0.041100  0.789200  1
  O  O3112  1  0.049300  0.958900  0.289200  1
  O  O3113  1  0.791100  0.299300  0.539200  1
  O  O3114  1  0.708900  0.700700  0.039200  1
  O  O3115  1  0.950700  0.541100  0.289200  1
  O  O3116  1  0.549300  0.458900  0.789200  1
  O  O3117  1  0.663300  0.175400  0.019600  1
  O  O3118  1  0.836700  0.824600  0.519600  1
  O  O3119  1  0.574600  0.913300  0.269600  1
  O  O3120  1  0.925400  0.086700  0.769600  1
  O  O3121  1  0.163300  0.675400  0.519600  1
  O  O3122  1  0.336700  0.324600  0.019600  1
  O  O3123  1  0.074600  0.413300  0.769600  1
  O  O3124  1  0.425400  0.586700  0.269600  1
  O  O3125  1  0.336700  0.824600  0.980400  1
  O  O3126  1  0.163300  0.175400  0.480400  1
  O  O3127  1  0.425400  0.086700  0.730400  1
  O  O3128  1  0.074600  0.913300  0.230400  1
  O  O3129  1  0.836700  0.324600  0.480400  1
  O  O3130  1  0.663300  0.675400  0.980400  1
  O  O3131  1  0.925400  0.586700  0.230400  1
  O  O3132  1  0.574600  0.413300  0.730400  1
  O  O3133  1  0.691900  0.246400  0.012200  1
  O  O3134  1  0.808100  0.753600  0.512200  1
  O  O3135  1  0.503600  0.941900  0.262200  1
  O  O3136  1  0.996400  0.058100  0.762200  1
  O  O3137  1  0.191900  0.746400  0.512200  1
  O  O3138  1  0.308100  0.253600  0.012200  1
  O  O3139  1  0.003600  0.441900  0.762200  1
  O  O3140  1  0.496400  0.558100  0.262200  1
  O  O3141  1  0.308100  0.753600  0.987800  1
  O  O3142  1  0.191900  0.246400  0.487800  1
  O  O3143  1  0.496400  0.058100  0.737800  1
  O  O3144  1  0.003600  0.941900  0.237800  1
  O  O3145  1  0.808100  0.253600  0.487800  1
  O  O3146  1  0.691900  0.746400  0.987800  1
  O  O3147  1  0.996400  0.558100  0.237800  1
  O  O3148  1  0.503600  0.441900  0.737800  1
  O  O3149  1  0.456500  0.003100  0.180300  1
  O  O3150  1  0.043500  0.996900  0.680300  1
  O  O3151  1  0.746900  0.706500  0.430300  1
  O  O3152  1  0.753100  0.293500  0.930300  1
  O  O3153  1  0.956500  0.503100  0.680300  1
  O  O3154  1  0.543500  0.496900  0.180300  1
  O  O3155  1  0.246900  0.206500  0.930300  1
  O  O3156  1  0.253100  0.793500  0.430300  1
  O  O3157  1  0.543500  0.996900  0.819700  1
  O  O3158  1  0.956500  0.003100  0.319700  1
  O  O3159  1  0.253100  0.293500  0.569700  1
  O  O3160  1  0.246900  0.706500  0.069700  1
  O  O3161  1  0.043500  0.496900  0.319700  1
  O  O3162  1  0.456500  0.503100  0.819700  1
  O  O3163  1  0.753100  0.793500  0.069700  1
  O  O3164  1  0.746900  0.206500  0.569700  1
  O  O3165  1  0.604700  0.136100  0.950300  1
  O  O3166  1  0.895300  0.863900  0.450300  1
  O  O3167  1  0.613900  0.854700  0.200300  1
  O  O3168  1  0.886100  0.145300  0.700300  1
  O  O3169  1  0.104700  0.636100  0.450300  1
  O  O3170  1  0.395300  0.363900  0.950300  1
  O  O3171  1  0.113900  0.354700  0.700300  1
  O  O3172  1  0.386100  0.645300  0.200300  1
  O  O3173  1  0.395300  0.863900  0.049700  1
  O  O3174  1  0.104700  0.136100  0.549700  1
  O  O3175  1  0.386100  0.145300  0.799700  1
  O  O3176  1  0.113900  0.854700  0.299700  1
  O  O3177  1  0.895300  0.363900  0.549700  1
  O  O3178  1  0.604700  0.636100  0.049700  1
  O  O3179  1  0.886100  0.645300  0.299700  1
  O  O3180  1  0.613900  0.354700  0.799700  1
  O  O3181  1  0.223200  0.474100  0.299800  1
  O  O3182  1  0.276800  0.525900  0.799800  1
  O  O3183  1  0.275900  0.473200  0.549800  1
  O  O3184  1  0.224100  0.526800  0.049800  1
  O  O3185  1  0.723200  0.974100  0.799800  1
  O  O3186  1  0.776800  0.025900  0.299800  1
  O  O3187  1  0.775900  0.973200  0.049800  1
  O  O3188  1  0.724100  0.026800  0.549800  1
  O  O3189  1  0.776800  0.525900  0.700200  1
  O  O3190  1  0.723200  0.474100  0.200200  1
  O  O3191  1  0.724100  0.526800  0.450200  1
  O  O3192  1  0.775900  0.473200  0.950200  1
  O  O3193  1  0.276800  0.025900  0.200200  1
  O  O3194  1  0.223200  0.974100  0.700200  1
  O  O3195  1  0.224100  0.026800  0.950200  1
  O  O3196  1  0.275900  0.973200  0.450200  1
  O  O3197  1  0.147800  0.412100  0.359300  1
  O  O3198  1  0.352200  0.587900  0.859300  1
  O  O3199  1  0.337900  0.397800  0.609300  1
  O  O3200  1  0.162100  0.602200  0.109300  1
  O  O3201  1  0.647800  0.912100  0.859300  1
  O  O3202  1  0.852200  0.087900  0.359300  1
  O  O3203  1  0.837900  0.897800  0.109300  1
  O  O3204  1  0.662100  0.102200  0.609300  1
  O  O3205  1  0.852200  0.587900  0.640700  1
  O  O3206  1  0.647800  0.412100  0.140700  1
  O  O3207  1  0.662100  0.602200  0.390700  1
  O  O3208  1  0.837900  0.397800  0.890700  1
  O  O3209  1  0.352200  0.087900  0.140700  1
  O  O3210  1  0.147800  0.912100  0.640700  1
  O  O3211  1  0.162100  0.102200  0.890700  1
  O  O3212  1  0.337900  0.897800  0.390700  1
  O  O3213  1  0.140500  0.548200  0.278500  1
  O  O3214  1  0.359500  0.451800  0.778500  1
  O  O3215  1  0.201800  0.390500  0.528500  1
  O  O3216  1  0.298200  0.609500  0.028500  1
  O  O3217  1  0.640500  0.048200  0.778500  1
  O  O3218  1  0.859500  0.951800  0.278500  1
  O  O3219  1  0.701800  0.890500  0.028500  1
  O  O3220  1  0.798200  0.109500  0.528500  1
  O  O3221  1  0.859500  0.451800  0.721500  1
  O  O3222  1  0.640500  0.548200  0.221500  1
  O  O3223  1  0.798200  0.609500  0.471500  1
  O  O3224  1  0.701800  0.390500  0.971500  1
  O  O3225  1  0.359500  0.951800  0.221500  1
  O  O3226  1  0.140500  0.048200  0.721500  1
  O  O3227  1  0.298200  0.109500  0.971500  1
  O  O3228  1  0.201800  0.890500  0.471500  1
  O  O3229  1  0.126200  0.681500  0.324500  1
  O  O3230  1  0.373800  0.318500  0.824500  1
  O  O3231  1  0.068500  0.376200  0.574500  1
  O  O3232  1  0.431500  0.623800  0.074500  1
  O  O3233  1  0.626200  0.181500  0.824500  1
  O  O3234  1  0.873800  0.818500  0.324500  1
  O  O3235  1  0.568500  0.876200  0.074500  1
  O  O3236  1  0.931500  0.123800  0.574500  1
  O  O3237  1  0.873800  0.318500  0.675500  1
  O  O3238  1  0.626200  0.681500  0.175500  1
  O  O3239  1  0.931500  0.623800  0.425500  1
  O  O3240  1  0.568500  0.376200  0.925500  1
  O  O3241  1  0.373800  0.818500  0.175500  1
  O  O3242  1  0.126200  0.181500  0.675500  1
  O  O3243  1  0.431500  0.123800  0.925500  1
  O  O3244  1  0.068500  0.876200  0.425500  1
  O  O3245  1  0.312400  0.220100  0.161900  1
  O  O3246  1  0.187600  0.779900  0.661900  1
  O  O3247  1  0.529900  0.562400  0.411900  1
  O  O3248  1  0.970100  0.437600  0.911900  1
  O  O3249  1  0.812400  0.720100  0.661900  1
  O  O3250  1  0.687600  0.279900  0.161900  1
  O  O3251  1  0.029900  0.062400  0.911900  1
  O  O3252  1  0.470100  0.937600  0.411900  1
  O  O3253  1  0.687600  0.779900  0.838100  1
  O  O3254  1  0.812400  0.220100  0.338100  1
  O  O3255  1  0.470100  0.437600  0.588100  1
  O  O3256  1  0.029900  0.562400  0.088100  1
  O  O3257  1  0.187600  0.279900  0.338100  1
  O  O3258  1  0.312400  0.720100  0.838100  1
  O  O3259  1  0.970100  0.937600  0.088100  1
  O  O3260  1  0.529900  0.062400  0.588100  1
