
#######################################################################
#
#                 Cambridge Crystallographic Data Centre
#                                CCDC 
#
#######################################################################
#
# If this CIF has been generated from an entry in the Cambridge 
# Structural Database, then it will include bibliographic, chemical, 
# crystal, experimental, refinement or atomic coordinate data resulting 
# from the CCDC's data processing and validation procedures.
#
#######################################################################

data_LUXWAD
_chemical_formula_moiety         
'C108 H144 N36 Pd6 12+,C24 H27 N1 O2,12(N1 O3 1-),44.1(H2 O1)'
_chemical_name_systematic        
'tetrakis(\m~3~-2,4,6-tris(4-Pyridyl)-1,3,5-triazine-N)-hexakis(1,2-bis(diamino)ethane)-hexa-palladium 2-cyclohexyl-3a,4,6,7,8,9,11,11a-octahydro-1H-4,11-ethanonaphtho[2,3-f]isoindole-1,3(2H)-dione dodecanitrate hydrate'
_symmetry_cell_setting           tetragonal
_symmetry_space_group_name_H-M   'I 41/a'
_symmetry_Int_Tables_number      88
_space_group_name_Hall           '-I 4ad'
loop_
_symmetry_equiv_pos_site_id
_symmetry_equiv_pos_as_xyz
1 x,y,z
2 1/2-x,-y,1/2+z
3 3/4-y,1/4+x,1/4+z
4 3/4+y,3/4-x,3/4+z
5 1/2+x,1/2+y,1/2+z
6 -x,1/2-y,z
7 1/4-y,3/4+x,3/4+z
8 1/4+y,1/4-x,1/4+z
9 -x,-y,-z
10 1/2+x,y,1/2-z
11 1/4+y,3/4-x,3/4-z
12 1/4-y,1/4+x,1/4-z
13 1/2-x,1/2-y,1/2-z
14 x,1/2+y,-z
15 3/4+y,1/4-x,1/4-z
16 3/4-y,3/4+x,3/4-z
_cell_length_a                   26.313(4)
_cell_length_b                   26.313(4)
_cell_length_c                   31.709(5)
_cell_angle_alpha                90
_cell_angle_beta                 90
_cell_angle_gamma                90
_cell_volume                     21954.5
_exptl_crystal_colour            yellow
_exptl_crystal_description       block
_cell_formula_units_Z            4
loop_
_atom_site_label
_atom_site_type_symbol
_atom_site_fract_x
_atom_site_fract_y
_atom_site_fract_z
O4 O 1.2922(8) 0.3540(8) 0.1954(7)
O5 O 1.1723(7) 0.2535(8) 0.3304(6)
N2 N 0.7754(15) 0.5712(16) 0.0496(11)
O6 O 0.7596(6) 0.5237(5) 0.0440(4)
O7 O 0.7465(15) 0.6047(12) 0.0381(9)
O8 O 0.8182(10) 0.5861(11) 0.0731(8)
O9 O 0.6069(7) 0.6374(6) 0.2034(5)
O10 O 0.5439(14) 0.5864(11) 0.2519(10)
O11 O 0.6795(8) 0.6930(8) 0.1932(6)
N3 N 0.4572(8) 0.4936(8) 0.1800(7)
O12 O 0.5119(7) 0.4826(7) 0.1554(6)
O13 O 0.4690(7) 0.5248(7) 0.2191(6)
O14 O 0.4275(11) 0.4698(10) 0.1489(9)
O15 O 0.4477(7) 0.4292(6) 0.1078(6)
N4 N 0.535(3) 0.614(2) 0.0718(17)
O16 O 0.498(2) 0.583(2) 0.0915(16)
O17 O 0.5820(17) 0.6306(11) 0.0770(9)
O18 O 0.5419(6) 0.5664(6) 0.0359(4)
O19 O 1.0912(5) 0.2631(5) 0.5876(4)
O20 O 0.6439(7) 0.6057(7) -0.1147(6)
O21 O 0.8214(7) 0.5718(7) 0.2173(6)
O22 O 1.1590(6) 0.1975(6) 0.6063(6)
O23 O 1.0000 0.2500 0.6250
O24 O 0.5823(5) 0.5308(5) -0.0338(4)
Pd1 Pd 0.716519(15) 0.459279(15) 0.125911(12)
Pd2 Pd 1.0000 0.2500 0.416859(17)
C1 C 1.0332(2) 0.3222(2) 0.35151(16)
H1 H 1.0657 0.3156 0.3634
C2 C 1.0298(2) 0.3526(3) 0.31632(18)
H2 H 1.0596 0.3662 0.3039
C3 C 0.9828(2) 0.3631(2) 0.29927(18)
C4 C 0.9404(2) 0.3419(3) 0.3178(2)
H3 H 0.9076 0.3482 0.3066
C5 C 0.9463(2) 0.3117(3) 0.35263(19)
H4 H 0.9169 0.2974 0.3653
C6 C 0.9786(2) 0.3956(2) 0.26106(19)
C7 C 1.0993(2) 0.5172(2) 0.1388(2)
H5 H 1.0961 0.5383 0.1146
C8 C 1.0568(2) 0.4964(2) 0.1560(2)
H6 H 1.0246 0.5027 0.1435
C9 C 1.0603(2) 0.4661(2) 0.19155(18)
C10 C 1.1084(2) 0.4573(2) 0.20873(18)
H7 H 1.1124 0.4367 0.2331
C11 C 1.1502(2) 0.4795(2) 0.18909(18)
H8 H 1.1830 0.4734 0.2005
C12 C 1.0141(2) 0.4436(2) 0.21075(19)
C13 C 0.8260(2) 0.4770(2) 0.1386(2)
H9 H 0.8226 0.4965 0.1135
C14 C 0.8743(2) 0.4698(3) 0.1562(2)
H10 H 0.9032 0.4849 0.1434
C15 C 0.8796(2) 0.4409(2) 0.19215(19)
C16 C 0.8357(2) 0.4212(3) 0.21009(19)
H11 H 0.8378 0.4018 0.2353
C17 C 0.7897(2) 0.4294(3) 0.19189(19)
H12 H 0.7602 0.4154 0.2046
C18 C 0.9301(2) 0.4320(2) 0.21131(19)
C19 C 0.7164(5) 0.5679(4) 0.1403(4)
H13 H 0.7043 0.5982 0.1553
H14 H 0.7086 0.5712 0.1102
H15 H 0.7532 0.5647 0.1441
C20 C 0.6971(5) 0.5216(4) 0.2019(3)
H16 H 0.6844 0.5534 0.2140
H17 H 0.7332 0.5177 0.2088
H18 H 0.6780 0.4929 0.2135
C21 C 0.6323(4) 0.5225(5) 0.1473(3)
H19 H 0.6149 0.4966 0.1648
H20 H 0.6173 0.5561 0.1537
C22 C 0.6261(5) 0.5103(4) 0.1014(4)
H21 H 0.5898 0.5106 0.0934
H22 H 0.6445 0.5353 0.0838
C23 C 0.6165(6) 0.4185(6) 0.1063(5)
H23 H 0.5840 0.4211 0.0912
H24 H 0.6102 0.4181 0.1367
H25 H 0.6339 0.3871 0.0980
C24 C 0.6521(4) 0.4497(5) 0.0479(4)
H26 H 0.6183 0.4508 0.0349
H27 H 0.6671 0.4160 0.0437
H28 H 0.6739 0.4755 0.0349
C25 C 1.0091(3) 0.2774(3) 0.50400(19)
H29 H 0.9954 0.2954 0.5290
H30 H 1.0466 0.2784 0.5053
C26 C 0.9370(3) 0.3177(3) 0.4674(2)
H31 H 0.9326 0.3426 0.4900
H32 H 0.9162 0.2876 0.4734
H33 H 0.9263 0.3326 0.4405
C27 C 1.0217(3) 0.3496(3) 0.4579(2)
H34 H 1.0162 0.3731 0.4814
H35 H 1.0111 0.3659 0.4315
H36 H 1.0578 0.3407 0.4562
N5 N 0.99181(17) 0.30150(18) 0.36958(13)
N6 N 1.02104(18) 0.4147(2) 0.24518(16)
N7 N 0.93165(18) 0.4033(2) 0.24532(16)
N8 N 0.97002(18) 0.4530(2) 0.19246(16)
N9 N 0.78479(17) 0.45685(18) 0.15627(14)
N10 N 0.74126(18) 0.39621(17) 0.09479(14)
N11 N 0.6911(2) 0.5228(2) 0.15727(16)
N12 N 0.6472(2) 0.4606(2) 0.09605(17)
N13 N 0.9911(2) 0.3026(2) 0.46472(15)
Pd1K Pd 0.790721(15) -0.033481(15) 0.124089(12)
Pd1E Pd 1.283481(15) 0.040721(15) 0.125911(12)
Pd1N Pd 1.209279(15) 0.533481(15) 0.124089(12)
Pd2K Pd 1.0000 0.2500 -0.166859(17)
C1E C 0.9668(2) 0.1778(2) 0.35151(16)
C1K C 0.9278(2) 0.2832(2) -0.10151(16)
C1N C 1.0722(2) 0.2168(2) -0.10151(16)
H1E H 0.9343 0.1844 0.3634
H1K H 0.9344 0.3157 -0.1134
H1N H 1.0656 0.1843 -0.1134
C2E C 0.9702(2) 0.1474(3) 0.31632(18)
C2K C 0.8974(3) 0.2798(2) -0.06632(18)
C2N C 1.1026(3) 0.2202(2) -0.06632(18)
H2E H 0.9404 0.1338 0.3039
H2N H 1.1162 0.1904 -0.0539
H2K H 0.8838 0.3096 -0.0539
C3E C 1.0172(2) 0.1369(2) 0.29927(18)
C3K C 0.8869(2) 0.2328(2) -0.04927(18)
C3N C 1.1131(2) 0.2672(2) -0.04927(18)
C4E C 1.0596(2) 0.1581(3) 0.3178(2)
C4N C 1.0919(3) 0.3096(2) -0.0678(2)
C4K C 0.9081(3) 0.1904(2) -0.0678(2)
H3E H 1.0924 0.1518 0.3066
H3N H 1.0982 0.3424 -0.0566
H3K H 0.9018 0.1576 -0.0566
C5E C 1.0537(2) 0.1883(3) 0.35263(19)
C5N C 1.0617(3) 0.3037(2) -0.10263(19)
C5K C 0.9383(3) 0.1963(2) -0.10263(19)
H4E H 1.0831 0.2026 0.3653
H4N H 1.0474 0.3331 -0.1153
H4K H 0.9526 0.1669 -0.1153
C6E C 1.0214(2) 0.1044(2) 0.26106(19)
C6K C 0.8544(2) 0.2286(2) -0.01106(19)
C6N C 1.1456(2) 0.2714(2) -0.01106(19)
C7E C 0.9007(2) -0.0172(2) 0.1388(2)
C7N C 1.2672(2) 0.1507(2) 0.1112(2)
C7K C 0.7328(2) 0.3493(2) 0.1112(2)
H5E H 0.9039 -0.0383 0.1146
H5N H 1.2883 0.1539 0.1354
H5K H 0.7117 0.3461 0.1354
C8E C 0.9432(2) 0.0036(2) 0.1560(2)
C8N C 1.2464(2) 0.1932(2) 0.0940(2)
C8K C 0.7536(2) 0.3068(2) 0.0940(2)
H6N H 1.2527 0.2254 0.1065
H6K H 0.7473 0.2746 0.1065
H6E H 0.9754 -0.0027 0.1435
C9E C 0.9397(2) 0.0339(2) 0.19155(18)
C9N C 1.2161(2) 0.1897(2) 0.05845(18)
C9K C 0.7839(2) 0.3103(2) 0.05845(18)
C10N C 1.2073(2) 0.1416(2) 0.04127(18)
C10K C 0.7927(2) 0.3584(2) 0.04127(18)
C10E C 0.8916(2) 0.0427(2) 0.20873(18)
H7N H 1.1867 0.1376 0.0169
H7K H 0.8133 0.3624 0.0169
H7E H 0.8876 0.0633 0.2331
C11N C 1.2295(2) 0.0998(2) 0.06091(18)
C11K C 0.7705(2) 0.4002(2) 0.06091(18)
C11E C 0.8498(2) 0.0205(2) 0.18909(18)
H8N H 1.2234 0.0670 0.0495
H8K H 0.7766 0.4330 0.0495
H8E H 0.8170 0.0266 0.2005
C12E C 0.9859(2) 0.0564(2) 0.21075(19)
C12N C 1.1936(2) 0.2359(2) 0.03925(19)
C12K C 0.8064(2) 0.2641(2) 0.03925(19)
C13K C 0.7730(2) 0.0760(2) 0.1114(2)
C13E C 1.1740(2) 0.0230(2) 0.1386(2)
C13N C 1.2270(2) 0.4240(2) 0.1114(2)
H9K H 0.7535 0.0726 0.1365
H9E H 1.1774 0.0035 0.1135
H9N H 1.2465 0.4274 0.1365
C14K C 0.7802(3) 0.1243(2) 0.0938(2)
C14E C 1.1257(2) 0.0302(3) 0.1562(2)
C14N C 1.2198(3) 0.3757(2) 0.0938(2)
H10K H 0.7651 0.1532 0.1066
H10E H 1.0968 0.0151 0.1434
H10N H 1.2349 0.3468 0.1066
C15K C 0.8091(2) 0.1296(2) 0.05785(19)
C15E C 1.1204(2) 0.0591(2) 0.19215(19)
C15N C 1.1909(2) 0.3704(2) 0.05785(19)
C16K C 0.8288(3) 0.0857(2) 0.03991(19)
C16E C 1.1643(2) 0.0788(3) 0.21009(19)
C16N C 1.1712(3) 0.4143(2) 0.03991(19)
H11K H 0.8482 0.0878 0.0147
H11E H 1.1622 0.0982 0.2353
H11N H 1.1518 0.4122 0.0147
C17K C 0.8206(3) 0.0397(2) 0.05811(19)
C17E C 1.2103(2) 0.0706(3) 0.19189(19)
C17N C 1.1794(3) 0.4603(2) 0.05811(19)
H12K H 0.8346 0.0102 0.0454
H12E H 1.2398 0.0846 0.2046
H12N H 1.1654 0.4898 0.0454
C18K C 0.8180(2) 0.1801(2) 0.03869(19)
C18E C 1.0699(2) 0.0680(2) 0.21131(19)
C18N C 1.1820(2) 0.3199(2) 0.03869(19)
C19E C 1.2836(5) -0.0679(4) 0.1403(4)
C19N C 1.3179(4) 0.5336(5) 0.1097(4)
C19K C 0.6821(4) -0.0336(5) 0.1097(4)
H13E H 1.2957 -0.0982 0.1553
H13N H 1.3482 0.5457 0.0947
H13K H 0.6518 -0.0457 0.0947
H14E H 1.2914 -0.0712 0.1102
H14N H 1.3212 0.5414 0.1398
H14K H 0.6788 -0.0414 0.1398
H15E H 1.2468 -0.0647 0.1441
H15N H 1.3147 0.4968 0.1059
H15K H 0.6853 0.0032 0.1059
C20E C 1.3029(5) -0.0216(4) 0.2019(3)
C20N C 1.2716(4) 0.5529(5) 0.0481(3)
C20K C 0.7284(4) -0.0529(5) 0.0481(3)
H16E H 1.3156 -0.0534 0.2140
H16N H 1.3034 0.5656 0.0360
H16K H 0.6966 -0.0656 0.0360
H17E H 1.2668 -0.0177 0.2088
H17N H 1.2677 0.5168 0.0412
H17K H 0.7323 -0.0168 0.0412
H18E H 1.3220 0.0071 0.2135
H18N H 1.2429 0.5720 0.0365
H18K H 0.7571 -0.0720 0.0365
C21E C 1.3677(4) -0.0225(5) 0.1473(3)
C21N C 1.2725(5) 0.6177(4) 0.1027(3)
C21K C 0.7275(5) -0.1177(4) 0.1027(3)
H19E H 1.3851 0.0034 0.1648
H19N H 1.2466 0.6351 0.0852
H19K H 0.7534 -0.1351 0.0852
H20E H 1.3827 -0.0561 0.1537
H20N H 1.3061 0.6327 0.0963
H20K H 0.6939 -0.1327 0.0963
C22E C 1.3739(5) -0.0103(4) 0.1014(4)
C22N C 1.2603(4) 0.6239(5) 0.1486(4)
C22K C 0.7397(4) -0.1239(5) 0.1486(4)
H21E H 1.4102 -0.0106 0.0934
H21N H 1.2606 0.6602 0.1566
H21K H 0.7394 -0.1602 0.1566
H22E H 1.3555 -0.0353 0.0838
H22N H 1.2853 0.6055 0.1662
H22K H 0.7147 -0.1055 0.1662
C23E C 1.3835(6) 0.0815(6) 0.1063(5)
C23N C 1.1685(6) 0.6335(6) 0.1437(5)
C23K C 0.8315(6) -0.1335(6) 0.1437(5)
H23E H 1.4160 0.0789 0.0912
H23N H 1.1711 0.6660 0.1588
H23K H 0.8289 -0.1660 0.1588
H24E H 1.3898 0.0819 0.1367
H24N H 1.1681 0.6398 0.1133
H24K H 0.8319 -0.1398 0.1133
H25E H 1.3661 0.1129 0.0980
H25N H 1.1371 0.6161 0.1520
H25K H 0.8629 -0.1161 0.1520
C24E C 1.3479(4) 0.0503(5) 0.0479(4)
C24N C 1.1997(5) 0.5979(4) 0.2021(4)
C24K C 0.8003(5) -0.0979(4) 0.2021(4)
H26E H 1.3817 0.0492 0.0349
H26N H 1.2008 0.6317 0.2151
H26K H 0.7992 -0.1317 0.2151
H27E H 1.3329 0.0840 0.0437
H27N H 1.1660 0.5829 0.2063
H27K H 0.8340 -0.0829 0.2063
H28E H 1.3261 0.0245 0.0349
H28N H 1.2255 0.5761 0.2151
H28K H 0.7745 -0.0761 0.2151
C25K C 0.9726(3) 0.2591(3) -0.25400(19)
C25N C 1.0274(3) 0.2409(3) -0.25400(19)
C25E C 0.9909(3) 0.2226(3) 0.50400(19)
H29N H 1.0454 0.2546 -0.2790
H29K H 0.9546 0.2454 -0.2790
H29E H 1.0046 0.2046 0.5290
H30N H 1.0284 0.2034 -0.2553
H30K H 0.9716 0.2966 -0.2553
H30E H 0.9534 0.2216 0.5053
C26N C 1.0677(3) 0.3130(3) -0.2174(2)
C26K C 0.9323(3) 0.1870(3) -0.2174(2)
C26E C 1.0630(3) 0.1823(3) 0.4674(2)
H31N H 1.0926 0.3174 -0.2400
H31K H 0.9074 0.1826 -0.2400
H31E H 1.0674 0.1574 0.4900
H32N H 1.0376 0.3338 -0.2234
H32K H 0.9624 0.1662 -0.2234
H32E H 1.0838 0.2124 0.4734
H33N H 1.0826 0.3237 -0.1905
H33K H 0.9174 0.1763 -0.1905
H33E H 1.0737 0.1674 0.4405
C27N C 1.0996(3) 0.2283(3) -0.2079(2)
C27K C 0.9004(3) 0.2717(3) -0.2079(2)
C27E C 0.9783(3) 0.1504(3) 0.4579(2)
H34N H 1.1231 0.2338 -0.2314
H34K H 0.8769 0.2662 -0.2314
H34E H 0.9838 0.1269 0.4814
H35N H 1.1159 0.2389 -0.1815
H35K H 0.8841 0.2611 -0.1815
H35E H 0.9889 0.1341 0.4315
H36N H 1.0907 0.1922 -0.2062
H36K H 0.9093 0.3078 -0.2062
H36E H 0.9422 0.1593 0.4562
N5E N 1.00819(17) 0.19850(18) 0.36958(13)
N5K N 0.94850(18) 0.24181(17) -0.11958(13)
N5N N 1.05150(18) 0.25819(17) -0.11958(13)
N6E N 0.97896(18) 0.0853(2) 0.24518(16)
N6N N 1.1647(2) 0.22896(18) 0.00482(16)
N6K N 0.8353(2) 0.27104(18) 0.00482(16)
N7K N 0.8467(2) 0.18165(18) 0.00468(16)
N7E N 1.06835(18) 0.0967(2) 0.24532(16)
N7N N 1.1533(2) 0.31835(18) 0.00468(16)
N8E N 1.02998(18) 0.0470(2) 0.19246(16)
N8N N 1.2030(2) 0.27998(18) 0.05754(16)
N8K N 0.7970(2) 0.22002(18) 0.05754(16)
N9K N 0.79315(18) 0.03479(17) 0.09373(14)
N9E N 1.21521(17) 0.04315(18) 0.15627(14)
N9N N 1.20685(18) 0.46521(17) 0.09373(14)
N10K N 0.85379(17) -0.00874(18) 0.15521(14)
N10E N 1.25874(18) 0.10379(17) 0.09479(14)
N10N N 1.14621(17) 0.50874(18) 0.15521(14)
N11E N 1.3089(2) -0.0228(2) 0.15727(16)
N11N N 1.2728(2) 0.5589(2) 0.09273(16)
N11K N 0.7272(2) -0.0589(2) 0.09273(16)
N12E N 1.3528(2) 0.0394(2) 0.09605(17)
N12N N 1.2106(2) 0.6028(2) 0.15395(17)
N12K N 0.7894(2) -0.1028(2) 0.15395(17)
N13K N 0.9474(2) 0.2411(2) -0.21472(15)
N13N N 1.0526(2) 0.2589(2) -0.21472(15)
N13E N 1.0089(2) 0.1974(2) 0.46472(15)
N1 N 1.1853(6) 0.3628(7) 0.2733(6)
O1 O 1.2010(5) 0.3885(5) 0.2395(5)
O2 O 1.208(2) 0.317(2) 0.2768(17)
O3 O 1.1589(4) 0.3781(6) 0.2948(4)
loop_
_geom_bond_atom_site_label_1
_geom_bond_atom_site_label_2
_geom_bond_site_symmetry_1
_geom_bond_site_symmetry_2
N1 O1 1_555 1_555
O2 N1 1_555 1_555
O3 N1 1_555 1_555
N2 O6 1_555 1_555
O7 N2 1_555 1_555
O8 N2 1_555 1_555
N3 O12 1_555 1_555
O13 N3 1_555 1_555
O14 N3 1_555 1_555
N4 O16 1_555 1_555
O17 N4 1_555 1_555
O18 N4 1_555 1_555
Pd1 N9 1_555 1_555
Pd2 N5 1_555 1_555
C1 H1 1_555 1_555
C2 C1 1_555 1_555
H2 C2 1_555 1_555
C3 C2 1_555 1_555
C4 C3 1_555 1_555
H3 C4 1_555 1_555
C5 C4 1_555 1_555
H4 C5 1_555 1_555
C6 C3 1_555 1_555
C7 H5 1_555 1_555
C8 C7 1_555 1_555
H6 C8 1_555 1_555
C9 C8 1_555 1_555
C10 C9 1_555 1_555
H7 C10 1_555 1_555
C11 C10 1_555 1_555
H8 C11 1_555 1_555
C12 C9 1_555 1_555
C13 H9 1_555 1_555
C14 C13 1_555 1_555
H10 C14 1_555 1_555
C15 C14 1_555 1_555
C16 C15 1_555 1_555
H11 C16 1_555 1_555
C17 C16 1_555 1_555
H12 C17 1_555 1_555
C18 C15 1_555 1_555
C19 H13 1_555 1_555
H14 C19 1_555 1_555
H15 C19 1_555 1_555
C20 H16 1_555 1_555
H17 C20 1_555 1_555
H18 C20 1_555 1_555
C21 H19 1_555 1_555
H20 C21 1_555 1_555
C22 C21 1_555 1_555
H21 C22 1_555 1_555
H22 C22 1_555 1_555
C23 H23 1_555 1_555
H24 C23 1_555 1_555
H25 C23 1_555 1_555
C24 H26 1_555 1_555
H27 C24 1_555 1_555
H28 C24 1_555 1_555
C25 H29 1_555 1_555
H30 C25 1_555 1_555
C26 H31 1_555 1_555
H32 C26 1_555 1_555
H33 C26 1_555 1_555
C27 H34 1_555 1_555
H35 C27 1_555 1_555
H36 C27 1_555 1_555
N5 C1 1_555 1_555
N6 C6 1_555 1_555
N7 C6 1_555 1_555
N8 C12 1_555 1_555
N9 C13 1_555 1_555
N10 Pd1 1_555 1_555
N11 Pd1 1_555 1_555
N12 Pd1 1_555 1_555
N13 Pd2 1_555 1_555
Pd1K N9K 1_555 1_555
Pd1E N9E 1_555 1_555
Pd1N N9N 1_555 1_555
Pd2K N5K 1_555 1_555
C1E H1E 1_555 1_555
C1K H1K 1_555 1_555
C1N H1N 1_555 1_555
C2E C1E 1_555 1_555
C2K C1K 1_555 1_555
C2N C1N 1_555 1_555
H2E C2E 1_555 1_555
H2N C2N 1_555 1_555
H2K C2K 1_555 1_555
C3E C2E 1_555 1_555
C3K C2K 1_555 1_555
C3N C2N 1_555 1_555
C4E C3E 1_555 1_555
C4N C3N 1_555 1_555
C4K C3K 1_555 1_555
H3E C4E 1_555 1_555
H3N C4N 1_555 1_555
H3K C4K 1_555 1_555
C5E C4E 1_555 1_555
C5N C4N 1_555 1_555
C5K C4K 1_555 1_555
H4E C5E 1_555 1_555
H4N C5N 1_555 1_555
H4K C5K 1_555 1_555
C6E C3E 1_555 1_555
C6K C3K 1_555 1_555
C6N C3N 1_555 1_555
C7E H5E 1_555 1_555
C7N H5N 1_555 1_555
C7K N10 1_555 1_555
H5K C7K 1_555 1_555
C8E C7E 1_555 1_555
C8N C7N 1_555 1_555
C8K C7K 1_555 1_555
H6N C8N 1_555 1_555
H6K C8K 1_555 1_555
H6E C8E 1_555 1_555
C9E C8E 1_555 1_555
C9N C8N 1_555 1_555
C9K C8K 1_555 1_555
C10N C9N 1_555 1_555
C10K C9K 1_555 1_555
C10E C9E 1_555 1_555
H7N C10N 1_555 1_555
H7K C10K 1_555 1_555
H7E C10E 1_555 1_555
C11N C10N 1_555 1_555
C11K N10 1_555 1_555
C11E C10E 1_555 1_555
H8N C11N 1_555 1_555
H8K C11K 1_555 1_555
H8E C11E 1_555 1_555
C12E C9E 1_555 1_555
C12N C9N 1_555 1_555
C12K C9K 1_555 1_555
C13K H9K 1_555 1_555
C13E H9E 1_555 1_555
C13N H9N 1_555 1_555
C14K C13K 1_555 1_555
C14E C13E 1_555 1_555
C14N C13N 1_555 1_555
H10K C14K 1_555 1_555
H10E C14E 1_555 1_555
H10N C14N 1_555 1_555
C15K C14K 1_555 1_555
C15E C14E 1_555 1_555
C15N C14N 1_555 1_555
C16K C15K 1_555 1_555
C16E C15E 1_555 1_555
C16N C15N 1_555 1_555
H11K C16K 1_555 1_555
H11E C16E 1_555 1_555
H11N C16N 1_555 1_555
C17K C16K 1_555 1_555
C17E C16E 1_555 1_555
C17N C16N 1_555 1_555
H12K C17K 1_555 1_555
H12E C17E 1_555 1_555
H12N C17N 1_555 1_555
C18K C15K 1_555 1_555
C18E C15E 1_555 1_555
C18N C15N 1_555 1_555
C19E H13E 1_555 1_555
C19N H13N 1_555 1_555
C19K H13K 1_555 1_555
H14E C19E 1_555 1_555
H14N C19N 1_555 1_555
H14K C19K 1_555 1_555
H15E C19E 1_555 1_555
H15N C19N 1_555 1_555
H15K C19K 1_555 1_555
C20E H16E 1_555 1_555
C20N H16N 1_555 1_555
C20K H16K 1_555 1_555
H17E C20E 1_555 1_555
H17N C20N 1_555 1_555
H17K C20K 1_555 1_555
H18E C20E 1_555 1_555
H18N C20N 1_555 1_555
H18K C20K 1_555 1_555
C21E H19E 1_555 1_555
C21N H19N 1_555 1_555
C21K H19K 1_555 1_555
H20E C21E 1_555 1_555
H20N C21N 1_555 1_555
H20K C21K 1_555 1_555
C22E C21E 1_555 1_555
C22N C21N 1_555 1_555
C22K C21K 1_555 1_555
H21E C22E 1_555 1_555
H21N C22N 1_555 1_555
H21K C22K 1_555 1_555
H22E C22E 1_555 1_555
H22N C22N 1_555 1_555
H22K C22K 1_555 1_555
C23E H23E 1_555 1_555
C23N H23N 1_555 1_555
C23K H23K 1_555 1_555
H24E C23E 1_555 1_555
H24N C23N 1_555 1_555
H24K C23K 1_555 1_555
H25E C23E 1_555 1_555
H25N C23N 1_555 1_555
H25K C23K 1_555 1_555
C24E H26E 1_555 1_555
C24N H26N 1_555 1_555
C24K H26K 1_555 1_555
H27E C24E 1_555 1_555
H27N C24N 1_555 1_555
H27K C24K 1_555 1_555
H28E C24E 1_555 1_555
H28N C24N 1_555 1_555
H28K C24K 1_555 1_555
C25K C25N 1_555 1_555
C25N H29N 1_555 1_555
C25E C25 1_555 1_555
H29K C25K 1_555 1_555
H29E C25E 1_555 1_555
H30N C25N 1_555 1_555
H30K C25K 1_555 1_555
H30E C25E 1_555 1_555
C26N H31N 1_555 1_555
C26K H31K 1_555 1_555
C26E H31E 1_555 1_555
H32N C26N 1_555 1_555
H32K C26K 1_555 1_555
H32E C26E 1_555 1_555
H33N C26N 1_555 1_555
H33K C26K 1_555 1_555
H33E C26E 1_555 1_555
C27N H34N 1_555 1_555
C27K H34K 1_555 1_555
C27E H34E 1_555 1_555
H35N C27N 1_555 1_555
H35K C27K 1_555 1_555
H35E C27E 1_555 1_555
H36N C27N 1_555 1_555
H36K C27K 1_555 1_555
H36E C27E 1_555 1_555
N5E Pd2 1_555 1_555
N5K C1K 1_555 1_555
N5N Pd2K 1_555 1_555
N6E C6E 1_555 1_555
N6N C6N 1_555 1_555
N6K C6K 1_555 1_555
N7K C6K 1_555 1_555
N7E C6E 1_555 1_555
N7N C6N 1_555 1_555
N8E C12E 1_555 1_555
N8N C12N 1_555 1_555
N8K C12K 1_555 1_555
N9K C13K 1_555 1_555
N9E C13E 1_555 1_555
N9N C13N 1_555 1_555
N10K Pd1K 1_555 1_555
N10E Pd1E 1_555 1_555
N10N C7 1_555 1_555
N11E Pd1E 1_555 1_555
N11N Pd1N 1_555 1_555
N11K Pd1K 1_555 1_555
N12E Pd1E 1_555 1_555
N12N Pd1N 1_555 1_555
N12K Pd1K 1_555 1_555
N13K Pd2K 1_555 1_555
N13N Pd2K 1_555 1_555
N13E Pd2 1_555 1_555
C5 N5 1_555 1_555
C11 N10N 1_555 1_555
C12 N6 1_555 1_555
C17 N9 1_555 1_555
C18 N7 1_555 1_555
C18 N8 1_555 1_555
C19 N11 1_555 1_555
C20 N11 1_555 1_555
C21 N11 1_555 1_555
C22 N12 1_555 1_555
C23 N12 1_555 1_555
C24 N12 1_555 1_555
C25 N13 1_555 1_555
C26 N13 1_555 1_555
C27 N13 1_555 1_555
Pd1N N10N 1_555 1_555
C1E N5E 1_555 1_555
C1N N5N 1_555 1_555
C5E N5E 1_555 1_555
C5N N5N 1_555 1_555
C5K N5K 1_555 1_555
C7E N10K 1_555 1_555
C7N N10E 1_555 1_555
C10K C11K 1_555 1_555
C11N N10E 1_555 1_555
C11E N10K 1_555 1_555
C12E N6E 1_555 1_555
C12N N6N 1_555 1_555
C12K N6K 1_555 1_555
C17K N9K 1_555 1_555
C17E N9E 1_555 1_555
C17N N9N 1_555 1_555
C18K N7K 1_555 1_555
C18K N8K 1_555 1_555
C18E N7E 1_555 1_555
C18E N8E 1_555 1_555
C18N N7N 1_555 1_555
C18N N8N 1_555 1_555
C19E N11E 1_555 1_555
C19N N11N 1_555 1_555
C19K N11K 1_555 1_555
C20E N11E 1_555 1_555
C20N N11N 1_555 1_555
C20K N11K 1_555 1_555
C21E N11E 1_555 1_555
C21N N11N 1_555 1_555
C21K N11K 1_555 1_555
C22E N12E 1_555 1_555
C22N N12N 1_555 1_555
C22K N12K 1_555 1_555
C23E N12E 1_555 1_555
C23N N12N 1_555 1_555
C23K N12K 1_555 1_555
C24E N12E 1_555 1_555
C24N N12N 1_555 1_555
C24K N12K 1_555 1_555
C25K N13K 1_555 1_555
C25N N13N 1_555 1_555
C25E N13E 1_555 1_555
C26N N13N 1_555 1_555
C26K N13K 1_555 1_555
C26E N13E 1_555 1_555
C27N N13N 1_555 1_555
C27K N13K 1_555 1_555
C27E N13E 1_555 1_555

#END
