# generated using pymatgen
data_Zn16B32H528C728N171(O6F65)2
_symmetry_space_group_name_H-M   'P 1'
_cell_length_a   18.53600000
_cell_length_b   18.53600000
_cell_length_c   61.48517390
_cell_angle_alpha   81.33044627
_cell_angle_beta   81.33044627
_cell_angle_gamma   60.00000000
_symmetry_Int_Tables_number   1
_chemical_formula_structural   Zn16B32H528C728N171(O6F65)2
_chemical_formula_sum   'Zn16 B32 H528 C728 N171 O12 F130'
_cell_volume   18015.77344404
_cell_formula_units_Z   1
loop_
 _symmetry_equiv_pos_site_id
 _symmetry_equiv_pos_as_xyz
  1  'x, y, z'
loop_
 _atom_site_type_symbol
 _atom_site_label
 _atom_site_symmetry_multiplicity
 _atom_site_fract_x
 _atom_site_fract_y
 _atom_site_fract_z
 _atom_site_occupancy
  B  B1  1  0.085050  0.520250  0.088350  1
  B  B2  1  0.306350  0.085050  0.088350  1
  B  B3  1  0.520250  0.306350  0.088350  1
  B  B4  1  0.693650  0.914950  0.911650  1
  B  B5  1  0.479750  0.693650  0.911650  1
  B  B6  1  0.914950  0.479750  0.911650  1
  B  B7  1  0.911080  0.225280  0.428460  1
  B  B8  1  0.435180  0.911080  0.428460  1
  B  B9  1  0.225280  0.435180  0.428460  1
  B  B10  1  0.564820  0.088920  0.571540  1
  B  B11  1  0.774720  0.564820  0.571540  1
  B  B12  1  0.088920  0.774720  0.571540  1
  B  B13  1  0.702120  0.953020  0.251940  1
  B  B14  1  0.092920  0.702120  0.251940  1
  B  B15  1  0.953020  0.092920  0.251940  1
  B  B16  1  0.907080  0.297880  0.748060  1
  B  B17  1  0.046980  0.907080  0.748060  1
  B  B18  1  0.297880  0.046980  0.748060  1
  B  B19  1  0.873940  0.873940  0.378180  1
  B  B20  1  0.126060  0.126060  0.621820  1
  B  B21  1  0.622017  0.622017  0.133950  1
  B  B22  1  0.377983  0.377983  0.866050  1
  B  B23  1  0.968150  0.968150  0.095550  1
  B  B24  1  0.031850  0.031850  0.904450  1
  B  B25  1  0.246603  0.246603  0.260190  1
  B  B26  1  0.753397  0.753397  0.739810  1
  B  B27  1  0.530497  0.530497  0.408510  1
  B  B28  1  0.469503  0.469503  0.591490  1
  B  B29  1  0.576527  0.576527  0.270420  1
  B  B30  1  0.423473  0.423473  0.729580  1
  B  B31  1  0.207110  0.207177  0.378570  1
  B  B32  1  0.792879  0.792846  0.621430  1
  C  C33  1  0.090570  0.376570  0.040290  1
  C  C34  1  0.492570  0.090570  0.040290  1
  C  C35  1  0.376570  0.492570  0.040290  1
  C  C36  1  0.507430  0.909430  0.959710  1
  C  C37  1  0.623430  0.507430  0.959710  1
  C  C38  1  0.909430  0.623430  0.959710  1
  C  C39  1  0.105410  0.298410  0.061170  1
  C  C40  1  0.535010  0.105410  0.061170  1
  C  C41  1  0.298410  0.535010  0.061170  1
  C  C42  1  0.464990  0.894590  0.938830  1
  C  C43  1  0.701590  0.464990  0.938830  1
  C  C44  1  0.894590  0.701590  0.938830  1
  C  C45  1  0.999570  0.750170  0.046590  1
  C  C46  1  0.203670  0.999570  0.046590  1
  C  C47  1  0.750170  0.203670  0.046590  1
  C  C48  1  0.796330  0.000430  0.953410  1
  C  C49  1  0.249830  0.796330  0.953410  1
  C  C50  1  0.000430  0.249830  0.953410  1
  C  C51  1  0.010540  0.750340  0.070080  1
  C  C52  1  0.169040  0.010540  0.070080  1
  C  C53  1  0.750340  0.169040  0.070080  1
  C  C54  1  0.830960  0.989460  0.929920  1
  C  C55  1  0.249660  0.830960  0.929920  1
  C  C56  1  0.989460  0.249660  0.929920  1
  C  C57  1  0.935160  0.935160  0.194520  1
  C  C58  1  0.064840  0.064840  0.805480  1
  C  C59  1  0.927070  0.927070  0.218790  1
  C  C60  1  0.072930  0.072930  0.781210  1
  C  C61  1  0.148790  0.033090  0.450030  1
  C  C62  1  0.368090  0.148790  0.450030  1
  C  C63  1  0.033090  0.368090  0.450030  1
  C  C64  1  0.631910  0.851210  0.549970  1
  C  C65  1  0.966910  0.631910  0.549970  1
  C  C66  1  0.851210  0.966910  0.549970  1
  C  C67  1  0.180290  0.076590  0.431730  1
  C  C68  1  0.311390  0.180290  0.431730  1
  C  C69  1  0.076590  0.311390  0.431730  1
  C  C70  1  0.688610  0.819710  0.568270  1
  C  C71  1  0.923410  0.688610  0.568270  1
  C  C72  1  0.819710  0.923410  0.568270  1
  C  C73  1  0.231480  0.149980  0.152160  1
  C  C74  1  0.466380  0.231480  0.152160  1
  C  C75  1  0.149980  0.466380  0.152160  1
  C  C76  1  0.533620  0.768520  0.847840  1
  C  C77  1  0.850020  0.533620  0.847840  1
  C  C78  1  0.768520  0.850020  0.847840  1
  C  C79  1  0.283120  0.179620  0.143340  1
  C  C80  1  0.393920  0.283120  0.143340  1
  C  C81  1  0.179620  0.393920  0.143340  1
  C  C82  1  0.606080  0.716880  0.856660  1
  C  C83  1  0.820380  0.606080  0.856660  1
  C  C84  1  0.716880  0.820380  0.856660  1
  C  C85  1  0.505367  0.505367  0.483900  1
  C  C86  1  0.494633  0.494633  0.516100  1
  C  C87  1  0.516067  0.516067  0.451800  1
  C  C88  1  0.483933  0.483933  0.548200  1
  C  C89  1  0.870440  0.734740  0.176280  1.0
  C  C90  1  0.218540  0.870440  0.176280  1.0
  C  C91  1  0.734740  0.218540  0.176280  1.0
  C  C92  1  0.781460  0.129560  0.823720  1.0
  C  C93  1  0.265260  0.781460  0.823720  1.0
  C  C94  1  0.129560  0.265260  0.823720  1.0
  C  C95  1  0.945180  0.691480  0.185160  1.0
  C  C96  1  0.178180  0.945180  0.185160  1.0
  C  C97  1  0.691480  0.178180  0.185160  1.0
  C  C98  1  0.821820  0.054820  0.814840  1.0
  C  C99  1  0.308520  0.821820  0.814840  1.0
  C  C100  1  0.054820  0.308520  0.814840  1.0
  C  C101  1  0.951900  0.707200  0.206100  1.0
  C  C102  1  0.134800  0.951900  0.206100  1.0
  C  C103  1  0.707200  0.134800  0.206100  1.0
  C  C104  1  0.865200  0.048100  0.793900  1.0
  C  C105  1  0.292800  0.865200  0.793900  1.0
  C  C106  1  0.048100  0.292800  0.793900  1.0
  C  C107  1  0.881660  0.767560  0.216720  1.0
  C  C108  1  0.134060  0.881660  0.216720  1.0
  C  C109  1  0.767560  0.134060  0.216720  1.0
  C  C110  1  0.865940  0.118340  0.783280  1.0
  C  C111  1  0.232440  0.865940  0.783280  1.0
  C  C112  1  0.118340  0.232440  0.783280  1.0
  C  C113  1  0.807460  0.810260  0.206820  1.0
  C  C114  1  0.175460  0.807460  0.206820  1.0
  C  C115  1  0.810260  0.175460  0.206820  1.0
  C  C116  1  0.824540  0.192540  0.793180  1.0
  C  C117  1  0.189740  0.824540  0.793180  1.0
  C  C118  1  0.192540  0.189740  0.793180  1.0
  C  C119  1  0.868440  0.681740  0.121380  1.0
  C  C120  1  0.328440  0.868440  0.121380  1.0
  C  C121  1  0.681740  0.328440  0.121380  1.0
  C  C122  1  0.671560  0.131560  0.878620  1.0
  C  C123  1  0.318260  0.671560  0.878620  1.0
  C  C124  1  0.131560  0.318260  0.878620  1.0
  C  C125  1  0.916350  0.668850  0.138750  1.0
  C  C126  1  0.276050  0.916350  0.138750  1.0
  C  C127  1  0.668850  0.276050  0.138750  1.0
  C  C128  1  0.723950  0.083650  0.861250  1.0
  C  C129  1  0.331150  0.723950  0.861250  1.0
  C  C130  1  0.083650  0.331150  0.861250  1.0
  C  C131  1  0.857860  0.719660  0.154320  1.0
  C  C132  1  0.268160  0.857860  0.154320  1.0
  C  C133  1  0.719660  0.268160  0.154320  1.0
  C  C134  1  0.731840  0.142140  0.845680  1.0
  C  C135  1  0.280340  0.731840  0.845680  1.0
  C  C136  1  0.142140  0.280340  0.845680  1.0
  C  C137  1  0.716450  0.764450  0.114450  1.0
  C  C138  1  0.404650  0.716450  0.114450  1.0
  C  C139  1  0.764450  0.404650  0.114450  1.0
  C  C140  1  0.595350  0.283550  0.885550  1.0
  C  C141  1  0.235550  0.595350  0.885550  1.0
  C  C142  1  0.283550  0.235550  0.885550  1.0
  C  C143  1  0.720900  0.814900  0.093000  1.0
  C  C144  1  0.371200  0.720900  0.093000  1.0
  C  C145  1  0.814900  0.371200  0.093000  1.0
  C  C146  1  0.628800  0.279100  0.907000  1.0
  C  C147  1  0.185100  0.628800  0.907000  1.0
  C  C148  1  0.279100  0.185100  0.907000  1.0
  C  C149  1  0.765570  0.855170  0.089790  1.0
  C  C150  1  0.289470  0.765570  0.089790  1.0
  C  C151  1  0.855170  0.289470  0.089790  1.0
  C  C152  1  0.710530  0.234430  0.910210  1.0
  C  C153  1  0.144830  0.710530  0.910210  1.0
  C  C154  1  0.234430  0.144830  0.910210  1.0
  C  C155  1  0.770660  0.900760  0.069420  1.0
  C  C156  1  0.259160  0.770660  0.069420  1.0
  C  C157  1  0.900760  0.259160  0.069420  1.0
  C  C158  1  0.740840  0.229340  0.930580  1.0
  C  C159  1  0.099240  0.740840  0.930580  1.0
  C  C160  1  0.229340  0.099240  0.930580  1.0
  C  C161  1  0.817910  0.942110  0.065370  1.0
  C  C162  1  0.174610  0.817910  0.065370  1.0
  C  C163  1  0.942110  0.174610  0.065370  1.0
  C  C164  1  0.825390  0.182090  0.934630  1.0
  C  C165  1  0.057890  0.825390  0.934630  1.0
  C  C166  1  0.182090  0.057890  0.934630  1.0
  C  C167  1  0.823340  0.981940  0.045180  1.0
  C  C168  1  0.149540  0.823340  0.045180  1.0
  C  C169  1  0.981940  0.149540  0.045180  1.0
  C  C170  1  0.850460  0.176660  0.954820  1.0
  C  C171  1  0.018060  0.850460  0.954820  1.0
  C  C172  1  0.176660  0.018060  0.954820  1.0
  C  C173  1  0.779930  0.984630  0.027810  1.0
  C  C174  1  0.207630  0.779930  0.027810  1.0
  C  C175  1  0.984630  0.207630  0.027810  1.0
  C  C176  1  0.792370  0.220070  0.972190  1.0
  C  C177  1  0.015370  0.792370  0.972190  1.0
  C  C178  1  0.220070  0.015370  0.972190  1.0
  C  C179  1  0.733150  0.946650  0.031350  1.0
  C  C180  1  0.288850  0.733150  0.031350  1.0
  C  C181  1  0.946650  0.288850  0.031350  1.0
  C  C182  1  0.711150  0.266850  0.968650  1.0
  C  C183  1  0.053350  0.711150  0.968650  1.0
  C  C184  1  0.266850  0.053350  0.968650  1.0
  C  C185  1  0.724740  0.905040  0.052080  1.0
  C  C186  1  0.318140  0.724740  0.052080  1.0
  C  C187  1  0.905040  0.318140  0.052080  1.0
  C  C188  1  0.681860  0.275260  0.947920  1.0
  C  C189  1  0.094960  0.681860  0.947920  1.0
  C  C190  1  0.275260  0.094960  0.947920  1.0
  C  C191  1  0.674970  0.865470  0.056490  1.0
  C  C192  1  0.403070  0.674970  0.056490  1.0
  C  C193  1  0.865470  0.403070  0.056490  1.0
  C  C194  1  0.596930  0.325030  0.943510  1.0
  C  C195  1  0.134530  0.596930  0.943510  1.0
  C  C196  1  0.325030  0.134530  0.943510  1.0
  C  C197  1  0.671310  0.822210  0.076470  1.0
  C  C198  1  0.430010  0.671310  0.076470  1.0
  C  C199  1  0.822210  0.430010  0.076470  1.0
  C  C200  1  0.569990  0.328690  0.923530  1.0
  C  C201  1  0.177790  0.569990  0.923530  1.0
  C  C202  1  0.328690  0.177790  0.923530  1.0
  C  C203  1  0.617920  0.779320  0.080940  1.0
  C  C204  1  0.521820  0.617920  0.080940  1.0
  C  C205  1  0.779320  0.521820  0.080940  1.0
  C  C206  1  0.478180  0.382080  0.919060  1.0
  C  C207  1  0.220680  0.478180  0.919060  1.0
  C  C208  1  0.382080  0.220680  0.919060  1.0
  C  C209  1  0.572320  0.907120  0.212340  1.0
  C  C210  1  0.308220  0.572320  0.212340  1.0
  C  C211  1  0.907120  0.308220  0.212340  1.0
  C  C212  1  0.691780  0.427680  0.787660  1.0
  C  C213  1  0.092880  0.691780  0.787660  1.0
  C  C214  1  0.427680  0.092880  0.787660  1.0
  C  C215  1  0.516280  0.955980  0.228660  1.0
  C  C216  1  0.299080  0.516280  0.228660  1.0
  C  C217  1  0.955980  0.299080  0.228660  1.0
  C  C218  1  0.700920  0.483720  0.771340  1.0
  C  C219  1  0.044020  0.700920  0.771340  1.0
  C  C220  1  0.483720  0.044020  0.771340  1.0
  C  C221  1  0.490600  0.040800  0.226800  1.0
  C  C222  1  0.241800  0.490600  0.226800  1.0
  C  C223  1  0.040800  0.241800  0.226800  1.0
  C  C224  1  0.758200  0.509400  0.773200  1.0
  C  C225  1  0.959200  0.758200  0.773200  1.0
  C  C226  1  0.509400  0.959200  0.773200  1.0
  C  C227  1  0.521870  0.074270  0.208590  1.0
  C  C228  1  0.195270  0.521870  0.208590  1.0
  C  C229  1  0.074270  0.195270  0.208590  1.0
  C  C230  1  0.804730  0.478130  0.791410  1.0
  C  C231  1  0.925730  0.804730  0.791410  1.0
  C  C232  1  0.478130  0.925730  0.791410  1.0
  C  C233  1  0.578770  0.021670  0.193590  1.0
  C  C234  1  0.205970  0.578770  0.193590  1.0
  C  C235  1  0.021670  0.205970  0.193590  1.0
  C  C236  1  0.794030  0.421230  0.806410  1.0
  C  C237  1  0.978330  0.794030  0.806410  1.0
  C  C238  1  0.421230  0.978330  0.806410  1.0
  C  C239  1  0.600710  0.818810  0.213270  1.0
  C  C240  1  0.367210  0.600710  0.213270  1.0
  C  C241  1  0.818810  0.367210  0.213270  1.0
  C  C242  1  0.632790  0.399290  0.786730  1.0
  C  C243  1  0.181190  0.632790  0.786730  1.0
  C  C244  1  0.399290  0.181190  0.786730  1.0
  C  C245  1  0.587820  0.764320  0.229140  1.0
  C  C246  1  0.418720  0.587820  0.229140  1.0
  C  C247  1  0.764320  0.418720  0.229140  1.0
  C  C248  1  0.581280  0.412180  0.770860  1.0
  C  C249  1  0.235680  0.581280  0.770860  1.0
  C  C250  1  0.412180  0.235680  0.770860  1.0
  C  C251  1  0.629870  0.689470  0.221190  1.0
  C  C252  1  0.459470  0.629870  0.221190  1.0
  C  C253  1  0.689470  0.459470  0.221190  1.0
  C  C254  1  0.540530  0.370130  0.778810  1.0
  C  C255  1  0.310530  0.540530  0.778810  1.0
  C  C256  1  0.370130  0.310530  0.778810  1.0
  C  C257  1  0.721750  0.633350  0.186450  1.0
  C  C258  1  0.458450  0.721750  0.186450  1.0
  C  C259  1  0.633350  0.458450  0.186450  1.0
  C  C260  1  0.541550  0.278250  0.813550  1.0
  C  C261  1  0.366650  0.541550  0.813550  1.0
  C  C262  1  0.278250  0.366650  0.813550  1.0
  C  C263  1  0.649170  0.992070  0.136290  1.0
  C  C264  1  0.222470  0.649170  0.136290  1.0
  C  C265  1  0.992070  0.222470  0.136290  1.0
  C  C266  1  0.777530  0.350830  0.863710  1.0
  C  C267  1  0.007930  0.777530  0.863710  1.0
  C  C268  1  0.350830  0.007930  0.863710  1.0
  C  C269  1  0.655450  0.054750  0.121350  1.0
  C  C270  1  0.168450  0.655450  0.121350  1.0
  C  C271  1  0.054750  0.168450  0.121350  1.0
  C  C272  1  0.831550  0.344550  0.878650  1.0
  C  C273  1  0.945250  0.831550  0.878650  1.0
  C  C274  1  0.344550  0.945250  0.878650  1.0
  C  C275  1  0.721390  0.068190  0.123030  1.0
  C  C276  1  0.087390  0.721390  0.123030  1.0
  C  C277  1  0.068190  0.087390  0.123030  1.0
  C  C278  1  0.912610  0.278610  0.876970  1.0
  C  C279  1  0.931810  0.912610  0.876970  1.0
  C  C280  1  0.278610  0.931810  0.876970  1.0
  C  C281  1  0.780280  0.020380  0.137760  1.0
  C  C282  1  0.061580  0.780280  0.137760  1.0
  C  C283  1  0.020380  0.061580  0.137760  1.0
  C  C284  1  0.938420  0.219720  0.862240  1.0
  C  C285  1  0.979620  0.938420  0.862240  1.0
  C  C286  1  0.219720  0.979620  0.862240  1.0
  C  C287  1  0.770760  0.959160  0.151020  1.0
  C  C288  1  0.119060  0.770760  0.151020  1.0
  C  C289  1  0.959160  0.119060  0.151020  1.0
  C  C290  1  0.880940  0.229240  0.848980  1.0
  C  C291  1  0.040840  0.880940  0.848980  1.0
  C  C292  1  0.229240  0.040840  0.848980  1.0
  C  C293  1  0.468380  0.967380  0.132360  1.0
  C  C294  1  0.431880  0.468380  0.132360  1.0
  C  C295  1  0.967380  0.431880  0.132360  1.0
  C  C296  1  0.568120  0.531620  0.867640  1.0
  C  C297  1  0.032620  0.568120  0.867640  1.0
  C  C298  1  0.531620  0.032620  0.867640  1.0
  C  C299  1  0.509470  0.009470  0.125190  1.0
  C  C300  1  0.355870  0.509470  0.125190  1.0
  C  C301  1  0.009470  0.355870  0.125190  1.0
  C  C302  1  0.644130  0.490530  0.874810  1.0
  C  C303  1  0.990530  0.644130  0.874810  1.0
  C  C304  1  0.490530  0.990530  0.874810  1.0
  C  C305  1  0.581810  0.972910  0.136770  1.0
  C  C306  1  0.308510  0.581810  0.136770  1.0
  C  C307  1  0.972910  0.308510  0.136770  1.0
  C  C308  1  0.691490  0.418190  0.863230  1.0
  C  C309  1  0.027090  0.691490  0.863230  1.0
  C  C310  1  0.418190  0.027090  0.863230  1.0
  C  C311  1  0.493790  0.843890  0.159930  1.0
  C  C312  1  0.502390  0.493790  0.159930  1.0
  C  C313  1  0.843890  0.502390  0.159930  1.0
  C  C314  1  0.497610  0.506210  0.840070  1.0
  C  C315  1  0.156110  0.497610  0.840070  1.0
  C  C316  1  0.506210  0.156110  0.840070  1.0
  C  C317  1  0.435970  0.870170  0.180990  1.0
  C  C318  1  0.512870  0.435970  0.180990  1.0
  C  C319  1  0.870170  0.512870  0.180990  1.0
  C  C320  1  0.487130  0.564030  0.819010  1.0
  C  C321  1  0.129830  0.487130  0.819010  1.0
  C  C322  1  0.564030  0.129830  0.819010  1.0
  C  C323  1  0.400230  0.948930  0.188010  1.0
  C  C324  1  0.462830  0.400230  0.188010  1.0
  C  C325  1  0.948930  0.462830  0.188010  1.0
  C  C326  1  0.537170  0.599770  0.811990  1.0
  C  C327  1  0.051070  0.537170  0.811990  1.0
  C  C328  1  0.599770  0.051070  0.811990  1.0
  C  C329  1  0.346140  0.971740  0.207780  1.0
  C  C330  1  0.474340  0.346140  0.207780  1.0
  C  C331  1  0.971740  0.474340  0.207780  1.0
  C  C332  1  0.525660  0.653860  0.792220  1.0
  C  C333  1  0.028260  0.525660  0.792220  1.0
  C  C334  1  0.653860  0.028260  0.792220  1.0
  C  C335  1  0.309480  0.051880  0.214860  1.0
  C  C336  1  0.423780  0.309480  0.214860  1.0
  C  C337  1  0.051880  0.423780  0.214860  1.0
  C  C338  1  0.576220  0.690520  0.785140  1.0
  C  C339  1  0.948120  0.576220  0.785140  1.0
  C  C340  1  0.690520  0.948120  0.785140  1.0
  C  C341  1  0.257090  0.069390  0.234330  1.0
  C  C342  1  0.439190  0.257090  0.234330  1.0
  C  C343  1  0.069390  0.439190  0.234330  1.0
  C  C344  1  0.560810  0.742910  0.765670  1.0
  C  C345  1  0.930610  0.560810  0.765670  1.0
  C  C346  1  0.742910  0.930610  0.765670  1.0
  C  C347  1  0.236910  0.011510  0.245970  1.0
  C  C348  1  0.505610  0.236910  0.245970  1.0
  C  C349  1  0.011510  0.505610  0.245970  1.0
  C  C350  1  0.494390  0.763090  0.754030  1.0
  C  C351  1  0.988490  0.494390  0.754030  1.0
  C  C352  1  0.763090  0.988490  0.754030  1.0
  C  C353  1  0.273240  0.932840  0.239580  1.0
  C  C354  1  0.554340  0.273240  0.239580  1.0
  C  C355  1  0.932840  0.554340  0.239580  1.0
  C  C356  1  0.445660  0.726760  0.760420  1.0
  C  C357  1  0.067160  0.445660  0.760420  1.0
  C  C358  1  0.726760  0.067160  0.760420  1.0
  C  C359  1  0.327750  0.911450  0.220350  1.0
  C  C360  1  0.540450  0.327750  0.220350  1.0
  C  C361  1  0.911450  0.540450  0.220350  1.0
  C  C362  1  0.459550  0.672250  0.779650  1.0
  C  C363  1  0.088550  0.459550  0.779650  1.0
  C  C364  1  0.672250  0.088550  0.779650  1.0
  C  C365  1  0.364690  0.829990  0.212730  1.0
  C  C366  1  0.592590  0.364690  0.212730  1.0
  C  C367  1  0.829990  0.592590  0.212730  1.0
  C  C368  1  0.407410  0.635310  0.787270  1.0
  C  C369  1  0.170010  0.407410  0.787270  1.0
  C  C370  1  0.635310  0.170010  0.787270  1.0
  C  C371  1  0.810230  0.579430  0.194010  1.0
  C  C372  1  0.416330  0.810230  0.194010  1.0
  C  C373  1  0.579430  0.416330  0.194010  1.0
  C  C374  1  0.583670  0.189770  0.805990  1.0
  C  C375  1  0.420570  0.583670  0.805990  1.0
  C  C376  1  0.189770  0.420570  0.805990  1.0
  C  C377  1  0.779660  0.544860  0.994420  1.0
  C  C378  1  0.681060  0.779660  0.994420  1.0
  C  C379  1  0.544860  0.681060  0.994420  1.0
  C  C380  1  0.318940  0.220340  0.005580  1.0
  C  C381  1  0.455140  0.318940  0.005580  1.0
  C  C382  1  0.220340  0.455140  0.005580  1.0
  C  C383  1  0.821950  0.474250  0.982750  1.0
  C  C384  1  0.721050  0.821950  0.982750  1.0
  C  C385  1  0.474250  0.721050  0.982750  1.0
  C  C386  1  0.278950  0.178050  0.017250  1.0
  C  C387  1  0.525750  0.278950  0.017250  1.0
  C  C388  1  0.178050  0.525750  0.017250  1.0
  C  C389  1  0.809930  0.407130  0.990010  1.0
  C  C390  1  0.792930  0.809930  0.990010  1.0
  C  C391  1  0.407130  0.792930  0.990010  1.0
  C  C392  1  0.207070  0.190070  0.009990  1.0
  C  C393  1  0.592870  0.207070  0.009990  1.0
  C  C394  1  0.190070  0.592870  0.009990  1.0
  C  C395  1  0.753820  0.411420  0.008340  1.0
  C  C396  1  0.826420  0.753820  0.008340  1.0
  C  C397  1  0.411420  0.826420  0.008340  1.0
  C  C398  1  0.173580  0.246180  0.991660  1.0
  C  C399  1  0.588580  0.173580  0.991660  1.0
  C  C400  1  0.246180  0.588580  0.991660  1.0
  C  C401  1  0.714870  0.484070  0.018690  1.0
  C  C402  1  0.782370  0.714870  0.018690  1.0
  C  C403  1  0.484070  0.782370  0.018690  1.0
  C  C404  1  0.217630  0.285130  0.981310  1.0
  C  C405  1  0.515930  0.217630  0.981310  1.0
  C  C406  1  0.285130  0.515930  0.981310  1.0
  C  C407  1  0.481080  0.880080  0.066660  1.0
  C  C408  1  0.572180  0.481080  0.066660  1.0
  C  C409  1  0.880080  0.572180  0.066660  1.0
  C  C410  1  0.427820  0.518920  0.933340  1.0
  C  C411  1  0.119920  0.427820  0.933340  1.0
  C  C412  1  0.518920  0.119920  0.933340  1.0
  C  C413  1  0.439630  0.885730  0.049110  1.0
  C  C414  1  0.625530  0.439630  0.049110  1.0
  C  C415  1  0.885730  0.625530  0.049110  1.0
  C  C416  1  0.374470  0.560370  0.950890  1.0
  C  C417  1  0.114270  0.374470  0.950890  1.0
  C  C418  1  0.560370  0.114270  0.950890  1.0
  C  C419  1  0.493950  0.812250  0.038550  1.0
  C  C420  1  0.655250  0.493950  0.038550  1.0
  C  C421  1  0.812250  0.655250  0.038550  1.0
  C  C422  1  0.344750  0.506050  0.961450  1.0
  C  C423  1  0.187750  0.344750  0.961450  1.0
  C  C424  1  0.506050  0.187750  0.961450  1.0
  C  C425  1  0.776360  0.524960  0.378720  1.0
  C  C426  1  0.319960  0.776360  0.378720  1.0
  C  C427  1  0.524960  0.319960  0.378720  1.0
  C  C428  1  0.680040  0.223640  0.621280  1.0
  C  C429  1  0.475040  0.680040  0.621280  1.0
  C  C430  1  0.223640  0.475040  0.621280  1.0
  C  C431  1  0.751650  0.472550  0.391950  1.0
  C  C432  1  0.383850  0.751650  0.391950  1.0
  C  C433  1  0.472550  0.383850  0.391950  1.0
  C  C434  1  0.616150  0.248350  0.608050  1.0
  C  C435  1  0.527450  0.616150  0.608050  1.0
  C  C436  1  0.248350  0.527450  0.608050  1.0
  C  C437  1  0.797520  0.387220  0.389040  1.0
  C  C438  1  0.426220  0.797520  0.389040  1.0
  C  C439  1  0.387220  0.426220  0.389040  1.0
  C  C440  1  0.573780  0.202480  0.610960  1.0
  C  C441  1  0.612780  0.573780  0.610960  1.0
  C  C442  1  0.202480  0.612780  0.610960  1.0
  C  C443  1  0.864600  0.357400  0.374100  1.0
  C  C444  1  0.403900  0.864600  0.374100  1.0
  C  C445  1  0.357400  0.403900  0.374100  1.0
  C  C446  1  0.596100  0.135400  0.625900  1.0
  C  C447  1  0.642600  0.596100  0.625900  1.0
  C  C448  1  0.135400  0.642600  0.625900  1.0
  C  C449  1  0.885520  0.414720  0.361740  1.0
  C  C450  1  0.338020  0.885520  0.361740  1.0
  C  C451  1  0.414720  0.338020  0.361740  1.0
  C  C452  1  0.661980  0.114480  0.638260  1.0
  C  C453  1  0.585280  0.661980  0.638260  1.0
  C  C454  1  0.114480  0.585280  0.638260  1.0
  C  C455  1  0.648880  0.744280  0.389160  1.0
  C  C456  1  0.217680  0.648880  0.389160  1.0
  C  C457  1  0.744280  0.217680  0.389160  1.0
  C  C458  1  0.782320  0.351120  0.610840  1.0
  C  C459  1  0.255720  0.782320  0.610840  1.0
  C  C460  1  0.351120  0.255720  0.610840  1.0
  C  C461  1  0.664120  0.665220  0.393840  1.0
  C  C462  1  0.276820  0.664120  0.393840  1.0
  C  C463  1  0.665220  0.276820  0.393840  1.0
  C  C464  1  0.723180  0.335880  0.606160  1.0
  C  C465  1  0.334780  0.723180  0.606160  1.0
  C  C466  1  0.335880  0.334780  0.606160  1.0
  C  C467  1  0.732770  0.614770  0.380790  1.0
  C  C468  1  0.271670  0.732770  0.380790  1.0
  C  C469  1  0.614770  0.271670  0.380790  1.0
  C  C470  1  0.728330  0.267230  0.619210  1.0
  C  C471  1  0.385230  0.728330  0.619210  1.0
  C  C472  1  0.267230  0.385230  0.619210  1.0
  C  C473  1  0.714660  0.810460  0.360720  1.0
  C  C474  1  0.114160  0.714660  0.360720  1.0
  C  C475  1  0.810460  0.114160  0.360720  1.0
  C  C476  1  0.885840  0.285340  0.639280  1.0
  C  C477  1  0.189540  0.885840  0.639280  1.0
  C  C478  1  0.285340  0.189540  0.639280  1.0
  C  C479  1  0.656300  0.851900  0.342600  1.0
  C  C480  1  0.149200  0.656300  0.342600  1.0
  C  C481  1  0.851900  0.149200  0.342600  1.0
  C  C482  1  0.850800  0.343700  0.657400  1.0
  C  C483  1  0.148100  0.850800  0.657400  1.0
  C  C484  1  0.343700  0.148100  0.657400  1.0
  C  C485  1  0.608620  0.822020  0.337440  1.0
  C  C486  1  0.231920  0.608620  0.337440  1.0
  C  C487  1  0.822020  0.231920  0.337440  1.0
  C  C488  1  0.768080  0.391380  0.662560  1.0
  C  C489  1  0.177980  0.768080  0.662560  1.0
  C  C490  1  0.391380  0.177980  0.662560  1.0
  C  C491  1  0.552640  0.862840  0.319980  1.0
  C  C492  1  0.264540  0.552640  0.319980  1.0
  C  C493  1  0.862840  0.264540  0.319980  1.0
  C  C494  1  0.735460  0.447360  0.680020  1.0
  C  C495  1  0.137160  0.735460  0.680020  1.0
  C  C496  1  0.447360  0.137160  0.680020  1.0
  C  C497  1  0.501970  0.832770  0.314790  1.0
  C  C498  1  0.350470  0.501970  0.314790  1.0
  C  C499  1  0.832770  0.350470  0.314790  1.0
  C  C500  1  0.649530  0.498030  0.685210  1.0
  C  C501  1  0.167230  0.649530  0.685210  1.0
  C  C502  1  0.498030  0.167230  0.685210  1.0
  C  C503  1  0.448190  0.874390  0.298530  1.0
  C  C504  1  0.378890  0.448190  0.298530  1.0
  C  C505  1  0.874390  0.378890  0.298530  1.0
  C  C506  1  0.621110  0.551810  0.701470  1.0
  C  C507  1  0.125610  0.621110  0.701470  1.0
  C  C508  1  0.551810  0.125610  0.701470  1.0
  C  C509  1  0.444820  0.945520  0.287040  1.0
  C  C510  1  0.322620  0.444820  0.287040  1.0
  C  C511  1  0.945520  0.322620  0.287040  1.0
  C  C512  1  0.677380  0.555180  0.712960  1.0
  C  C513  1  0.054480  0.677380  0.712960  1.0
  C  C514  1  0.555180  0.054480  0.712960  1.0
  C  C515  1  0.493550  0.976250  0.291750  1.0
  C  C516  1  0.238450  0.493550  0.291750  1.0
  C  C517  1  0.976250  0.238450  0.291750  1.0
  C  C518  1  0.761550  0.506450  0.708250  1.0
  C  C519  1  0.023750  0.761550  0.708250  1.0
  C  C520  1  0.506450  0.023750  0.708250  1.0
  C  C521  1  0.548490  0.936890  0.308730  1.0
  C  C522  1  0.205890  0.548490  0.308730  1.0
  C  C523  1  0.936890  0.205890  0.308730  1.0
  C  C524  1  0.794110  0.451510  0.691270  1.0
  C  C525  1  0.063110  0.794110  0.691270  1.0
  C  C526  1  0.451510  0.063110  0.691270  1.0
  C  C527  1  0.600800  0.964400  0.313800  1.0
  C  C528  1  0.121000  0.600800  0.313800  1.0
  C  C529  1  0.964400  0.121000  0.313800  1.0
  C  C530  1  0.879000  0.399200  0.686200  1.0
  C  C531  1  0.035600  0.879000  0.686200  1.0
  C  C532  1  0.399200  0.035600  0.686200  1.0
  C  C533  1  0.652000  0.925900  0.330900  1.0
  C  C534  1  0.091200  0.652000  0.330900  1.0
  C  C535  1  0.925900  0.091200  0.330900  1.0
  C  C536  1  0.908800  0.348000  0.669100  1.0
  C  C537  1  0.074100  0.908800  0.669100  1.0
  C  C538  1  0.348000  0.074100  0.669100  1.0
  C  C539  1  0.791390  0.684490  0.304830  1.0
  C  C540  1  0.219290  0.791390  0.304830  1.0
  C  C541  1  0.684490  0.219290  0.304830  1.0
  C  C542  1  0.780710  0.208610  0.695170  1.0
  C  C543  1  0.315510  0.780710  0.695170  1.0
  C  C544  1  0.208610  0.315510  0.695170  1.0
  C  C545  1  0.731840  0.714640  0.289080  1.0
  C  C546  1  0.264440  0.731840  0.289080  1.0
  C  C547  1  0.714640  0.264440  0.289080  1.0
  C  C548  1  0.735560  0.268160  0.710920  1.0
  C  C549  1  0.285360  0.735560  0.710920  1.0
  C  C550  1  0.268160  0.285360  0.710920  1.0
  C  C551  1  0.679160  0.674960  0.291720  1.0
  C  C552  1  0.354160  0.679160  0.291720  1.0
  C  C553  1  0.674960  0.354160  0.291720  1.0
  C  C554  1  0.645840  0.320840  0.708280  1.0
  C  C555  1  0.325040  0.645840  0.708280  1.0
  C  C556  1  0.320840  0.325040  0.708280  1.0
  C  C557  1  0.690600  0.607600  0.305100  1.0
  C  C558  1  0.396700  0.690600  0.305100  1.0
  C  C559  1  0.607600  0.396700  0.305100  1.0
  C  C560  1  0.603300  0.309400  0.694900  1.0
  C  C561  1  0.392400  0.603300  0.694900  1.0
  C  C562  1  0.309400  0.392400  0.694900  1.0
  C  C563  1  0.741780  0.590880  0.320160  1.0
  C  C564  1  0.347180  0.741780  0.320160  1.0
  C  C565  1  0.590880  0.347180  0.320160  1.0
  C  C566  1  0.652820  0.258220  0.679840  1.0
  C  C567  1  0.409120  0.652820  0.679840  1.0
  C  C568  1  0.258220  0.409120  0.679840  1.0
  C  C569  1  0.932850  0.763950  0.300150  1.0
  C  C570  1  0.003050  0.932850  0.300150  1.0
  C  C571  1  0.763950  0.003050  0.300150  1.0
  C  C572  1  0.996950  0.067150  0.699850  1.0
  C  C573  1  0.236050  0.996950  0.699850  1.0
  C  C574  1  0.067150  0.236050  0.699850  1.0
  C  C575  1  0.873090  0.759790  0.291630  1.0
  C  C576  1  0.075490  0.873090  0.291630  1.0
  C  C577  1  0.759790  0.075490  0.291630  1.0
  C  C578  1  0.924510  0.126910  0.708370  1.0
  C  C579  1  0.240210  0.924510  0.708370  1.0
  C  C580  1  0.126910  0.240210  0.708370  1.0
  C  C581  1  0.848890  0.712590  0.306330  1.0
  C  C582  1  0.132190  0.848890  0.306330  1.0
  C  C583  1  0.712590  0.132190  0.306330  1.0
  C  C584  1  0.867810  0.151110  0.693670  1.0
  C  C585  1  0.287410  0.867810  0.693670  1.0
  C  C586  1  0.151110  0.287410  0.693670  1.0
  C  C587  1  0.706080  0.957980  0.337260  1.0
  C  C588  1  0.998680  0.706080  0.337260  1.0
  C  C589  1  0.957980  0.998680  0.337260  1.0
  C  C590  1  0.001320  0.293920  0.662740  1.0
  C  C591  1  0.042020  0.001320  0.662740  1.0
  C  C592  1  0.293920  0.042020  0.662740  1.0
  C  C593  1  0.053480  0.459880  0.343560  1.0
  C  C594  1  0.143080  0.053480  0.343560  1.0
  C  C595  1  0.459880  0.143080  0.343560  1.0
  C  C596  1  0.856920  0.946520  0.656440  1.0
  C  C597  1  0.540120  0.856920  0.656440  1.0
  C  C598  1  0.946520  0.540120  0.656440  1.0
  C  C599  1  0.130360  0.397360  0.336720  1.0
  C  C600  1  0.135560  0.130360  0.336720  1.0
  C  C601  1  0.397360  0.135560  0.336720  1.0
  C  C602  1  0.864440  0.869640  0.663280  1.0
  C  C603  1  0.602640  0.864440  0.663280  1.0
  C  C604  1  0.869640  0.602640  0.663280  1.0
  C  C605  1  0.143670  0.372770  0.315090  1.0
  C  C606  1  0.168470  0.143670  0.315090  1.0
  C  C607  1  0.372770  0.168470  0.315090  1.0
  C  C608  1  0.831530  0.856330  0.684910  1.0
  C  C609  1  0.627230  0.831530  0.684910  1.0
  C  C610  1  0.856330  0.627230  0.684910  1.0
  C  C611  1  0.075390  0.410690  0.302130  1.0
  C  C612  1  0.211790  0.075390  0.302130  1.0
  C  C613  1  0.410690  0.211790  0.302130  1.0
  C  C614  1  0.788210  0.924610  0.697870  1.0
  C  C615  1  0.589310  0.788210  0.697870  1.0
  C  C616  1  0.924610  0.589310  0.697870  1.0
  C  C617  1  0.999390  0.473290  0.309930  1.0
  C  C618  1  0.217390  0.999390  0.309930  1.0
  C  C619  1  0.473290  0.217390  0.309930  1.0
  C  C620  1  0.782610  0.000610  0.690070  1.0
  C  C621  1  0.526710  0.782610  0.690070  1.0
  C  C622  1  0.000610  0.526710  0.690070  1.0
  C  C623  1  0.034280  0.509380  0.399660  1.0
  C  C624  1  0.056680  0.034280  0.399660  1.0
  C  C625  1  0.509380  0.056680  0.399660  1.0
  C  C626  1  0.943320  0.965720  0.600340  1.0
  C  C627  1  0.490620  0.943320  0.600340  1.0
  C  C628  1  0.965720  0.490620  0.600340  1.0
  C  C629  1  0.083050  0.456750  0.383550  1.0
  C  C630  1  0.076650  0.083050  0.383550  1.0
  C  C631  1  0.456750  0.076650  0.383550  1.0
  C  C632  1  0.923350  0.916950  0.616450  1.0
  C  C633  1  0.543250  0.923350  0.616450  1.0
  C  C634  1  0.916950  0.543250  0.616450  1.0
  C  C635  1  0.035500  0.488900  0.365700  1.0
  C  C636  1  0.109900  0.035500  0.365700  1.0
  C  C637  1  0.488900  0.109900  0.365700  1.0
  C  C638  1  0.890100  0.964500  0.634300  1.0
  C  C639  1  0.511100  0.890100  0.634300  1.0
  C  C640  1  0.964500  0.511100  0.634300  1.0
  C  C641  1  0.896680  0.640580  0.401760  1.0
  C  C642  1  0.060980  0.896680  0.401760  1.0
  C  C643  1  0.640580  0.060980  0.401760  1.0
  C  C644  1  0.939020  0.103320  0.598240  1.0
  C  C645  1  0.359420  0.939020  0.598240  1.0
  C  C646  1  0.103320  0.359420  0.598240  1.0
  C  C647  1  0.842100  0.624900  0.420900  1.0
  C  C648  1  0.112100  0.842100  0.420900  1.0
  C  C649  1  0.624900  0.112100  0.420900  1.0
  C  C650  1  0.887900  0.157900  0.579100  1.0
  C  C651  1  0.375100  0.887900  0.579100  1.0
  C  C652  1  0.157900  0.375100  0.579100  1.0
  C  C653  1  0.846490  0.548090  0.426030  1.0
  C  C654  1  0.179390  0.846490  0.426030  1.0
  C  C655  1  0.548090  0.179390  0.426030  1.0
  C  C656  1  0.820610  0.153510  0.573970  1.0
  C  C657  1  0.451910  0.820610  0.573970  1.0
  C  C658  1  0.153510  0.451910  0.573970  1.0
  C  C659  1  0.794530  0.535130  0.443910  1.0
  C  C660  1  0.226430  0.794530  0.443910  1.0
  C  C661  1  0.535130  0.226430  0.443910  1.0
  C  C662  1  0.773570  0.205470  0.556090  1.0
  C  C663  1  0.464870  0.773570  0.556090  1.0
  C  C664  1  0.205470  0.464870  0.556090  1.0
  C  C665  1  0.797500  0.456300  0.449100  1.0
  C  C666  1  0.297100  0.797500  0.449100  1.0
  C  C667  1  0.456300  0.297100  0.449100  1.0
  C  C668  1  0.702900  0.202500  0.550900  1.0
  C  C669  1  0.543700  0.702900  0.550900  1.0
  C  C670  1  0.202500  0.543700  0.550900  1.0
  C  C671  1  0.748310  0.446210  0.467070  1.0
  C  C672  1  0.338410  0.748310  0.467070  1.0
  C  C673  1  0.446210  0.338410  0.467070  1.0
  C  C674  1  0.661590  0.251690  0.532930  1.0
  C  C675  1  0.553790  0.661590  0.532930  1.0
  C  C676  1  0.251690  0.553790  0.532930  1.0
  C  C677  1  0.693150  0.512550  0.479550  1.0
  C  C678  1  0.314750  0.693150  0.479550  1.0
  C  C679  1  0.512550  0.314750  0.479550  1.0
  C  C680  1  0.685250  0.306850  0.520450  1.0
  C  C681  1  0.487450  0.685250  0.520450  1.0
  C  C682  1  0.306850  0.487450  0.520450  1.0
  C  C683  1  0.688440  0.588840  0.474780  1.0
  C  C684  1  0.247940  0.688440  0.474780  1.0
  C  C685  1  0.588840  0.247940  0.474780  1.0
  C  C686  1  0.752060  0.311560  0.525220  1.0
  C  C687  1  0.411160  0.752060  0.525220  1.0
  C  C688  1  0.311560  0.411160  0.525220  1.0
  C  C689  1  0.737970  0.601670  0.456690  1.0
  C  C690  1  0.203670  0.737970  0.456690  1.0
  C  C691  1  0.601670  0.203670  0.456690  1.0
  C  C692  1  0.796330  0.262030  0.543310  1.0
  C  C693  1  0.398330  0.796330  0.543310  1.0
  C  C694  1  0.262030  0.398330  0.543310  1.0
  C  C695  1  0.736130  0.679930  0.450810  1.0
  C  C696  1  0.133130  0.736130  0.450810  1.0
  C  C697  1  0.679930  0.133130  0.450810  1.0
  C  C698  1  0.866870  0.263870  0.549190  1.0
  C  C699  1  0.320070  0.866870  0.549190  1.0
  C  C700  1  0.263870  0.320070  0.549190  1.0
  C  C701  1  0.784440  0.692340  0.433380  1.0
  C  C702  1  0.089840  0.784440  0.433380  1.0
  C  C703  1  0.692340  0.089840  0.433380  1.0
  C  C704  1  0.910160  0.215560  0.566620  1.0
  C  C705  1  0.307660  0.910160  0.566620  1.0
  C  C706  1  0.215560  0.307660  0.566620  1.0
  C  C707  1  0.778680  0.776980  0.426660  1.0
  C  C708  1  0.017680  0.778680  0.426660  1.0
  C  C709  1  0.776980  0.017680  0.426660  1.0
  C  C710  1  0.982320  0.221320  0.573340  1.0
  C  C711  1  0.223020  0.982320  0.573340  1.0
  C  C712  1  0.221320  0.223020  0.573340  1.0
  C  C713  1  0.883740  0.662440  0.483780  1.0
  C  C714  1  0.970040  0.883740  0.483780  1.0
  C  C715  1  0.662440  0.970040  0.483780  1.0
  C  C716  1  0.029960  0.116260  0.516220  1.0
  C  C717  1  0.337560  0.029960  0.516220  1.0
  C  C718  1  0.116260  0.337560  0.516220  1.0
  C  C719  1  0.878710  0.592010  0.492270  1.0
  C  C720  1  0.037010  0.878710  0.492270  1.0
  C  C721  1  0.592010  0.037010  0.492270  1.0
  C  C722  1  0.962990  0.121290  0.507730  1.0
  C  C723  1  0.407990  0.962990  0.507730  1.0
  C  C724  1  0.121290  0.407990  0.507730  1.0
  C  C725  1  0.818250  0.598950  0.509550  1.0
  C  C726  1  0.073250  0.818250  0.509550  1.0
  C  C727  1  0.598950  0.073250  0.509550  1.0
  C  C728  1  0.926750  0.181750  0.490450  1.0
  C  C729  1  0.401050  0.926750  0.490450  1.0
  C  C730  1  0.181750  0.401050  0.490450  1.0
  C  C731  1  0.764770  0.676370  0.516690  1.0
  C  C732  1  0.042170  0.764770  0.516690  1.0
  C  C733  1  0.676370  0.042170  0.516690  1.0
  C  C734  1  0.957830  0.235230  0.483310  1.0
  C  C735  1  0.323630  0.957830  0.483310  1.0
  C  C736  1  0.235230  0.323630  0.483310  1.0
  C  C737  1  0.772490  0.744290  0.507330  1.0
  C  C738  1  0.975890  0.772490  0.507330  1.0
  C  C739  1  0.744290  0.975890  0.507330  1.0
  C  C740  1  0.024110  0.227510  0.492670  1.0
  C  C741  1  0.255710  0.024110  0.492670  1.0
  C  C742  1  0.227510  0.255710  0.492670  1.0
  C  C743  1  0.662520  0.927620  0.464940  1.0
  C  C744  1  0.944920  0.662520  0.464940  1.0
  C  C745  1  0.927620  0.944920  0.464940  1.0
  C  C746  1  0.055080  0.337480  0.535060  1.0
  C  C747  1  0.072380  0.055080  0.535060  1.0
  C  C748  1  0.337480  0.072380  0.535060  1.0
  C  C749  1  0.595460  0.936960  0.455220  1.0
  C  C750  1  0.012360  0.595460  0.455220  1.0
  C  C751  1  0.936960  0.012360  0.455220  1.0
  C  C752  1  0.987640  0.404540  0.544780  1.0
  C  C753  1  0.063040  0.987640  0.544780  1.0
  C  C754  1  0.404540  0.063040  0.544780  1.0
  C  C755  1  0.631210  0.882210  0.439170  1.0
  C  C756  1  0.047410  0.631210  0.439170  1.0
  C  C757  1  0.882210  0.047410  0.439170  1.0
  C  C758  1  0.952590  0.368790  0.560830  1.0
  C  C759  1  0.117790  0.952590  0.560830  1.0
  C  C760  1  0.368790  0.117790  0.560830  1.0
  F  F761  1  0.078090  0.551490  0.066330  1
  F  F762  1  0.304090  0.078090  0.066330  1
  F  F763  1  0.551490  0.304090  0.066330  1
  F  F764  1  0.695910  0.921910  0.933670  1
  F  F765  1  0.448510  0.695910  0.933670  1
  F  F766  1  0.921910  0.448510  0.933670  1
  F  F767  1  0.101180  0.444980  0.090960  1
  F  F768  1  0.362880  0.101180  0.090960  1
  F  F769  1  0.444980  0.362880  0.090960  1
  F  F770  1  0.637120  0.898820  0.909040  1
  F  F771  1  0.555020  0.637120  0.909040  1
  F  F772  1  0.898820  0.555020  0.909040  1
  F  F773  1  0.156220  0.519420  0.093540  1
  F  F774  1  0.230820  0.156220  0.093540  1
  F  F775  1  0.519420  0.230820  0.093540  1
  F  F776  1  0.769180  0.843780  0.906460  1
  F  F777  1  0.480580  0.769180  0.906460  1
  F  F778  1  0.843780  0.480580  0.906460  1
  F  F779  1  0.026460  0.566760  0.100920  1
  F  F780  1  0.305860  0.026460  0.100920  1
  F  F781  1  0.566760  0.305860  0.100920  1
  F  F782  1  0.694140  0.973540  0.899080  1
  F  F783  1  0.433240  0.694140  0.899080  1
  F  F784  1  0.973540  0.433240  0.899080  1
  F  F785  1  0.930070  0.287770  0.422190  1
  F  F786  1  0.359970  0.930070  0.422190  1
  F  F787  1  0.287770  0.359970  0.422190  1
  F  F788  1  0.640030  0.069930  0.577810  1
  F  F789  1  0.712230  0.640030  0.577810  1
  F  F790  1  0.069930  0.712230  0.577810  1
  F  F791  1  0.839640  0.254440  0.442980  1
  F  F792  1  0.462940  0.839640  0.442980  1
  F  F793  1  0.254440  0.462940  0.442980  1
  F  F794  1  0.537060  0.160360  0.557020  1
  F  F795  1  0.745560  0.537060  0.557020  1
  F  F796  1  0.160360  0.745560  0.557020  1
  F  F797  1  0.976590  0.155590  0.438030  1
  F  F798  1  0.429790  0.976590  0.438030  1
  F  F799  1  0.155590  0.429790  0.438030  1
  F  F800  1  0.570210  0.023410  0.561970  1
  F  F801  1  0.844410  0.570210  0.561970  1
  F  F802  1  0.023410  0.844410  0.561970  1
  F  F803  1  0.893150  0.202050  0.409950  1
  F  F804  1  0.494850  0.893150  0.409950  1
  F  F805  1  0.202050  0.494850  0.409950  1
  F  F806  1  0.505150  0.106850  0.590050  1
  F  F807  1  0.797950  0.505150  0.590050  1
  F  F808  1  0.106850  0.797950  0.590050  1
  F  F809  1  0.779670  0.924770  0.258690  1
  F  F810  1  0.036870  0.779670  0.258690  1
  F  F811  1  0.924770  0.036870  0.258690  1
  F  F812  1  0.963130  0.220330  0.741310  1
  F  F813  1  0.075230  0.963130  0.741310  1
  F  F814  1  0.220330  0.075230  0.741310  1
  F  F815  1  0.705860  0.975860  0.229320  1
  F  F816  1  0.088960  0.705860  0.229320  1
  F  F817  1  0.975860  0.088960  0.229320  1
  F  F818  1  0.911040  0.294140  0.770680  1
  F  F819  1  0.024140  0.911040  0.770680  1
  F  F820  1  0.294140  0.024140  0.770680  1
  F  F821  1  0.687120  0.885020  0.254340  1
  F  F822  1  0.173520  0.687120  0.254340  1
  F  F823  1  0.885020  0.173520  0.254340  1
  F  F824  1  0.826480  0.312880  0.745660  1
  F  F825  1  0.114980  0.826480  0.745660  1
  F  F826  1  0.312880  0.114980  0.745660  1
  F  F827  1  0.641210  0.017410  0.262770  1
  F  F828  1  0.078610  0.641210  0.262770  1
  F  F829  1  0.017410  0.078610  0.262770  1
  F  F830  1  0.921390  0.358790  0.737230  1
  F  F831  1  0.982590  0.921390  0.737230  1
  F  F832  1  0.358790  0.982590  0.737230  1
  F  F833  1  0.881620  0.881620  0.355140  1
  F  F834  1  0.118380  0.118380  0.644860  1
  F  F835  1  0.614287  0.614287  0.157140  1
  F  F836  1  0.385713  0.385713  0.842860  1
  F  F837  1  0.975940  0.975940  0.072180  1
  F  F838  1  0.024060  0.024060  0.927820  1
  F  F839  1  0.254133  0.254133  0.237600  1
  F  F840  1  0.745867  0.745867  0.762400  1
  F  F841  1  0.537977  0.537977  0.386070  1
  F  F842  1  0.462023  0.462023  0.613930  1
  F  F843  1  0.568947  0.568947  0.293160  1
  F  F844  1  0.431053  0.431053  0.706840  1
  F  F845  1  0.215240  0.215307  0.354180  1
  F  F846  1  0.784749  0.784716  0.645820  1
  F  F847  1  0.199700  0.199767  0.400800  1
  F  F848  1  0.800289  0.800256  0.599200  1
  F  F849  1  0.923710  0.791110  0.385770  1.0
  F  F850  1  0.899410  0.923710  0.385770  1.0
  F  F851  1  0.791110  0.899410  0.385770  1.0
  F  F852  1  0.100590  0.076290  0.614230  1.0
  F  F853  1  0.208890  0.100590  0.614230  1.0
  F  F854  1  0.076290  0.208890  0.614230  1.0
  F  F855  1  0.570770  0.704970  0.126690  1.0
  F  F856  1  0.597570  0.570770  0.126690  1.0
  F  F857  1  0.704970  0.597570  0.126690  1.0
  F  F858  1  0.402430  0.429230  0.873310  1.0
  F  F859  1  0.295030  0.402430  0.873310  1.0
  F  F860  1  0.429230  0.295030  0.873310  1.0
  F  F861  1  0.945800  0.906900  0.102900  1.0
  F  F862  1  0.044400  0.945800  0.102900  1.0
  F  F863  1  0.906900  0.044400  0.102900  1.0
  F  F864  1  0.955600  0.054200  0.897100  1.0
  F  F865  1  0.093100  0.955600  0.897100  1.0
  F  F866  1  0.054200  0.093100  0.897100  1.0
  F  F867  1  0.247910  0.312510  0.267570  1.0
  F  F868  1  0.172010  0.247910  0.267570  1.0
  F  F869  1  0.312510  0.172010  0.267570  1.0
  F  F870  1  0.827990  0.752090  0.732430  1.0
  F  F871  1  0.687490  0.827990  0.732430  1.0
  F  F872  1  0.752090  0.687490  0.732430  1.0
  F  F873  1  0.541610  0.589210  0.415170  1.0
  F  F874  1  0.454010  0.541610  0.415170  1.0
  F  F875  1  0.589210  0.454010  0.415170  1.0
  F  F876  1  0.545990  0.458390  0.584830  1.0
  F  F877  1  0.410790  0.545990  0.584830  1.0
  F  F878  1  0.458390  0.410790  0.584830  1.0
  F  F879  1  0.532000  0.659400  0.262800  1.0
  F  F880  1  0.545800  0.532000  0.262800  1.0
  F  F881  1  0.659400  0.545800  0.262800  1.0
  F  F882  1  0.454200  0.468000  0.737200  1.0
  F  F883  1  0.340600  0.454200  0.737200  1.0
  F  F884  1  0.468000  0.340600  0.737200  1.0
  F  F885  1  0.244810  0.254610  0.374670  1.0
  F  F886  1  0.125910  0.244810  0.374670  1.0
  F  F887  1  0.254610  0.125910  0.374670  1.0
  F  F888  1  0.874090  0.755190  0.625330  1.0
  F  F889  1  0.745390  0.874090  0.625330  1.0
  F  F890  1  0.755190  0.745390  0.625330  1.0
  H  H891  1  0.992600  0.650700  0.177300  1.0
  H  H892  1  0.179400  0.992600  0.177300  1.0
  H  H893  1  0.650700  0.179400  0.177300  1.0
  H  H894  1  0.820600  0.007400  0.822700  1.0
  H  H895  1  0.349300  0.820600  0.822700  1.0
  H  H896  1  0.007400  0.349300  0.822700  1.0
  H  H897  1  0.003400  0.677100  0.212700  1.0
  H  H898  1  0.106800  0.003400  0.212700  1.0
  H  H899  1  0.677100  0.106800  0.212700  1.0
  H  H900  1  0.893200  0.996600  0.787300  1.0
  H  H901  1  0.322900  0.893200  0.787300  1.0
  H  H902  1  0.996600  0.322900  0.787300  1.0
  H  H903  1  0.884000  0.780000  0.231000  1.0
  H  H904  1  0.105000  0.884000  0.231000  1.0
  H  H905  1  0.780000  0.105000  0.231000  1.0
  H  H906  1  0.895000  0.116000  0.769000  1.0
  H  H907  1  0.220000  0.895000  0.769000  1.0
  H  H908  1  0.116000  0.220000  0.769000  1.0
  H  H909  1  0.759300  0.851300  0.214500  1.0
  H  H910  1  0.174900  0.759300  0.214500  1.0
  H  H911  1  0.851300  0.174900  0.214500  1.0
  H  H912  1  0.825100  0.240700  0.785500  1.0
  H  H913  1  0.148700  0.825100  0.785500  1.0
  H  H914  1  0.240700  0.148700  0.785500  1.0
  H  H915  1  0.889100  0.656800  0.107700  1.0
  H  H916  1  0.346400  0.889100  0.107700  1.0
  H  H917  1  0.656800  0.346400  0.107700  1.0
  H  H918  1  0.653600  0.110900  0.892300  1.0
  H  H919  1  0.343200  0.653600  0.892300  1.0
  H  H920  1  0.110900  0.343200  0.892300  1.0
  H  H921  1  0.974900  0.633700  0.139500  1.0
  H  H922  1  0.251900  0.974900  0.139500  1.0
  H  H923  1  0.633700  0.251900  0.139500  1.0
  H  H924  1  0.748100  0.025100  0.860500  1.0
  H  H925  1  0.366300  0.748100  0.860500  1.0
  H  H926  1  0.025100  0.366300  0.860500  1.0
  H  H927  1  0.664400  0.799300  0.123600  1.0
  H  H928  1  0.412700  0.664400  0.123600  1.0
  H  H929  1  0.799300  0.412700  0.123600  1.0
  H  H930  1  0.587300  0.335600  0.876400  1.0
  H  H931  1  0.200700  0.587300  0.876400  1.0
  H  H932  1  0.335600  0.200700  0.876400  1.0
  H  H933  1  0.713600  0.715500  0.111000  1.0
  H  H934  1  0.459900  0.713600  0.111000  1.0
  H  H935  1  0.715500  0.459900  0.111000  1.0
  H  H936  1  0.540100  0.286400  0.889000  1.0
  H  H937  1  0.284500  0.540100  0.889000  1.0
  H  H938  1  0.286400  0.284500  0.889000  1.0
  H  H939  1  0.794700  0.853100  0.101400  1.0
  H  H940  1  0.250800  0.794700  0.101400  1.0
  H  H941  1  0.853100  0.250800  0.101400  1.0
  H  H942  1  0.749200  0.205300  0.898600  1.0
  H  H943  1  0.146900  0.749200  0.898600  1.0
  H  H944  1  0.205300  0.146900  0.898600  1.0
  H  H945  1  0.846600  0.942500  0.076800  1.0
  H  H946  1  0.134100  0.846600  0.076800  1.0
  H  H947  1  0.942500  0.134100  0.076800  1.0
  H  H948  1  0.865900  0.153400  0.923200  1.0
  H  H949  1  0.057500  0.865900  0.923200  1.0
  H  H950  1  0.153400  0.057500  0.923200  1.0
  H  H951  1  0.856900  0.008400  0.042600  1.0
  H  H952  1  0.092100  0.856900  0.042600  1.0
  H  H953  1  0.008400  0.092100  0.042600  1.0
  H  H954  1  0.907900  0.143100  0.957400  1.0
  H  H955  1  0.991600  0.907900  0.957400  1.0
  H  H956  1  0.143100  0.991600  0.957400  1.0
  H  H957  1  0.783800  0.012900  0.013800  1.0
  H  H958  1  0.189500  0.783800  0.013800  1.0
  H  H959  1  0.012900  0.189500  0.013800  1.0
  H  H960  1  0.810500  0.216200  0.986200  1.0
  H  H961  1  0.987100  0.810500  0.986200  1.0
  H  H962  1  0.216200  0.987100  0.986200  1.0
  H  H963  1  0.704900  0.947500  0.019500  1.0
  H  H964  1  0.328100  0.704900  0.019500  1.0
  H  H965  1  0.947500  0.328100  0.019500  1.0
  H  H966  1  0.671900  0.295100  0.980500  1.0
  H  H967  1  0.052500  0.671900  0.980500  1.0
  H  H968  1  0.295100  0.052500  0.980500  1.0
  H  H969  1  0.642900  0.869100  0.045300  1.0
  H  H970  1  0.442700  0.642900  0.045300  1.0
  H  H971  1  0.869100  0.442700  0.045300  1.0
  H  H972  1  0.557300  0.357100  0.954700  1.0
  H  H973  1  0.130900  0.557300  0.954700  1.0
  H  H974  1  0.357100  0.130900  0.954700  1.0
  H  H975  1  0.654800  0.718600  0.079800  1.0
  H  H976  1  0.546800  0.654800  0.079800  1.0
  H  H977  1  0.718600  0.546800  0.079800  1.0
  H  H978  1  0.453200  0.345200  0.920200  1.0
  H  H979  1  0.281400  0.453200  0.920200  1.0
  H  H980  1  0.345200  0.281400  0.920200  1.0
  H  H981  1  0.591500  0.787100  0.096300  1.0
  H  H982  1  0.525100  0.591500  0.096300  1.0
  H  H983  1  0.787100  0.525100  0.096300  1.0
  H  H984  1  0.474900  0.408500  0.903700  1.0
  H  H985  1  0.212900  0.474900  0.903700  1.0
  H  H986  1  0.408500  0.212900  0.903700  1.0
  H  H987  1  0.495700  0.931700  0.240900  1.0
  H  H988  1  0.331700  0.495700  0.240900  1.0
  H  H989  1  0.931700  0.331700  0.240900  1.0
  H  H990  1  0.668300  0.504300  0.759100  1.0
  H  H991  1  0.068300  0.668300  0.759100  1.0
  H  H992  1  0.504300  0.068300  0.759100  1.0
  H  H993  1  0.452300  0.075300  0.237900  1.0
  H  H994  1  0.234500  0.452300  0.237900  1.0
  H  H995  1  0.075300  0.234500  0.237900  1.0
  H  H996  1  0.765500  0.547700  0.762100  1.0
  H  H997  1  0.924700  0.765500  0.762100  1.0
  H  H998  1  0.547700  0.924700  0.762100  1.0
  H  H999  1  0.504100  0.132400  0.206700  1.0
  H  H1000  1  0.156800  0.504100  0.206700  1.0
  H  H1001  1  0.132400  0.156800  0.206700  1.0
  H  H1002  1  0.843200  0.495900  0.793300  1.0
  H  H1003  1  0.867600  0.843200  0.793300  1.0
  H  H1004  1  0.495900  0.867600  0.793300  1.0
  H  H1005  1  0.600500  0.044800  0.181200  1.0
  H  H1006  1  0.173500  0.600500  0.181200  1.0
  H  H1007  1  0.044800  0.173500  0.181200  1.0
  H  H1008  1  0.826500  0.399500  0.818800  1.0
  H  H1009  1  0.955200  0.826500  0.818800  1.0
  H  H1010  1  0.399500  0.955200  0.818800  1.0
  H  H1011  1  0.555400  0.777500  0.243000  1.0
  H  H1012  1  0.424100  0.555400  0.243000  1.0
  H  H1013  1  0.777500  0.424100  0.243000  1.0
  H  H1014  1  0.575900  0.444600  0.757000  1.0
  H  H1015  1  0.222500  0.575900  0.757000  1.0
  H  H1016  1  0.444600  0.222500  0.757000  1.0
  H  H1017  1  0.634300  0.638700  0.228600  1.0
  H  H1018  1  0.498400  0.634300  0.228600  1.0
  H  H1019  1  0.638700  0.498400  0.228600  1.0
  H  H1020  1  0.501600  0.365700  0.771400  1.0
  H  H1021  1  0.361300  0.501600  0.771400  1.0
  H  H1022  1  0.365700  0.361300  0.771400  1.0
  H  H1023  1  0.725600  0.659700  0.171300  1.0
  H  H1024  1  0.443400  0.725600  0.171300  1.0
  H  H1025  1  0.659700  0.443400  0.171300  1.0
  H  H1026  1  0.556600  0.274400  0.828700  1.0
  H  H1027  1  0.340300  0.556600  0.828700  1.0
  H  H1028  1  0.274400  0.340300  0.828700  1.0
  H  H1029  1  0.697800  0.596700  0.185700  1.0
  H  H1030  1  0.519800  0.697800  0.185700  1.0
  H  H1031  1  0.596700  0.519800  0.185700  1.0
  H  H1032  1  0.480200  0.302200  0.814300  1.0
  H  H1033  1  0.403300  0.480200  0.814300  1.0
  H  H1034  1  0.302200  0.403300  0.814300  1.0
  H  H1035  1  0.616400  0.086100  0.110700  1.0
  H  H1036  1  0.186800  0.616400  0.110700  1.0
  H  H1037  1  0.086100  0.186800  0.110700  1.0
  H  H1038  1  0.813200  0.383600  0.889300  1.0
  H  H1039  1  0.913900  0.813200  0.889300  1.0
  H  H1040  1  0.383600  0.913900  0.889300  1.0
  H  H1041  1  0.726100  0.111700  0.113700  1.0
  H  H1042  1  0.048500  0.726100  0.113700  1.0
  H  H1043  1  0.111700  0.048500  0.113700  1.0
  H  H1044  1  0.951500  0.273900  0.886300  1.0
  H  H1045  1  0.888300  0.951500  0.886300  1.0
  H  H1046  1  0.273900  0.888300  0.886300  1.0
  H  H1047  1  0.825700  0.029700  0.138600  1.0
  H  H1048  1  0.006000  0.825700  0.138600  1.0
  H  H1049  1  0.029700  0.006000  0.138600  1.0
  H  H1050  1  0.994000  0.174300  0.861400  1.0
  H  H1051  1  0.970300  0.994000  0.861400  1.0
  H  H1052  1  0.174300  0.970300  0.861400  1.0
  H  H1053  1  0.811600  0.924600  0.161100  1.0
  H  H1054  1  0.102700  0.811600  0.161100  1.0
  H  H1055  1  0.924600  0.102700  0.161100  1.0
  H  H1056  1  0.897300  0.188400  0.838900  1.0
  H  H1057  1  0.075400  0.897300  0.838900  1.0
  H  H1058  1  0.188400  0.075400  0.838900  1.0
  H  H1059  1  0.417300  0.978100  0.127500  1.0
  H  H1060  1  0.477100  0.417300  0.127500  1.0
  H  H1061  1  0.978100  0.477100  0.127500  1.0
  H  H1062  1  0.522900  0.582700  0.872500  1.0
  H  H1063  1  0.021900  0.522900  0.872500  1.0
  H  H1064  1  0.582700  0.021900  0.872500  1.0
  H  H1065  1  0.493200  0.055600  0.114300  1.0
  H  H1066  1  0.336900  0.493200  0.114300  1.0
  H  H1067  1  0.055600  0.336900  0.114300  1.0
  H  H1068  1  0.663100  0.506800  0.885700  1.0
  H  H1069  1  0.944400  0.663100  0.885700  1.0
  H  H1070  1  0.506800  0.944400  0.885700  1.0
  H  H1071  1  0.547000  0.793700  0.163800  1.0
  H  H1072  1  0.495500  0.547000  0.163800  1.0
  H  H1073  1  0.793700  0.495500  0.163800  1.0
  H  H1074  1  0.504500  0.453000  0.836200  1.0
  H  H1075  1  0.206300  0.504500  0.836200  1.0
  H  H1076  1  0.453000  0.206300  0.836200  1.0
  H  H1077  1  0.468000  0.827600  0.150000  1.0
  H  H1078  1  0.554400  0.468000  0.150000  1.0
  H  H1079  1  0.827600  0.554400  0.150000  1.0
  H  H1080  1  0.445600  0.532000  0.850000  1.0
  H  H1081  1  0.172400  0.445600  0.850000  1.0
  H  H1082  1  0.532000  0.172400  0.850000  1.0
  H  H1083  1  0.412100  0.989400  0.179400  1.0
  H  H1084  1  0.419100  0.412100  0.179400  1.0
  H  H1085  1  0.989400  0.419100  0.179400  1.0
  H  H1086  1  0.580900  0.587900  0.820600  1.0
  H  H1087  1  0.010600  0.580900  0.820600  1.0
  H  H1088  1  0.587900  0.010600  0.820600  1.0
  H  H1089  1  0.320100  0.093700  0.206400  1.0
  H  H1090  1  0.379800  0.320100  0.206400  1.0
  H  H1091  1  0.093700  0.379800  0.206400  1.0
  H  H1092  1  0.620200  0.679900  0.793600  1.0
  H  H1093  1  0.906300  0.620200  0.793600  1.0
  H  H1094  1  0.679900  0.906300  0.793600  1.0
  H  H1095  1  0.234700  0.122600  0.239700  1.0
  H  H1096  1  0.403000  0.234700  0.239700  1.0
  H  H1097  1  0.122600  0.403000  0.239700  1.0
  H  H1098  1  0.597000  0.765300  0.760300  1.0
  H  H1099  1  0.877400  0.597000  0.760300  1.0
  H  H1100  1  0.765300  0.877400  0.760300  1.0
  H  H1101  1  0.197400  0.026600  0.258600  1.0
  H  H1102  1  0.517400  0.197400  0.258600  1.0
  H  H1103  1  0.026600  0.517400  0.258600  1.0
  H  H1104  1  0.482600  0.802600  0.741400  1.0
  H  H1105  1  0.973400  0.482600  0.741400  1.0
  H  H1106  1  0.802600  0.973400  0.741400  1.0
  H  H1107  1  0.261600  0.892200  0.248100  1.0
  H  H1108  1  0.598100  0.261600  0.248100  1.0
  H  H1109  1  0.892200  0.598100  0.248100  1.0
  H  H1110  1  0.401900  0.738400  0.751900  1.0
  H  H1111  1  0.107800  0.401900  0.751900  1.0
  H  H1112  1  0.738400  0.107800  0.751900  1.0
  H  H1113  1  0.352600  0.789100  0.221100  1.0
  H  H1114  1  0.637200  0.352600  0.221100  1.0
  H  H1115  1  0.789100  0.637200  0.221100  1.0
  H  H1116  1  0.362800  0.647400  0.778900  1.0
  H  H1117  1  0.210900  0.362800  0.778900  1.0
  H  H1118  1  0.647400  0.210900  0.778900  1.0
  H  H1119  1  0.787900  0.591600  0.989500  1.0
  H  H1120  1  0.631000  0.787900  0.989500  1.0
  H  H1121  1  0.591600  0.631000  0.989500  1.0
  H  H1122  1  0.369000  0.212100  0.010500  1.0
  H  H1123  1  0.408400  0.369000  0.010500  1.0
  H  H1124  1  0.212100  0.408400  0.010500  1.0
  H  H1125  1  0.858600  0.472400  0.970000  1.0
  H  H1126  1  0.699000  0.858600  0.970000  1.0
  H  H1127  1  0.472400  0.699000  0.970000  1.0
  H  H1128  1  0.301000  0.141400  0.030000  1.0
  H  H1129  1  0.527600  0.301000  0.030000  1.0
  H  H1130  1  0.141400  0.527600  0.030000  1.0
  H  H1131  1  0.839700  0.357700  0.982600  1.0
  H  H1132  1  0.820000  0.839700  0.982600  1.0
  H  H1133  1  0.357700  0.820000  0.982600  1.0
  H  H1134  1  0.180000  0.160300  0.017400  1.0
  H  H1135  1  0.642300  0.180000  0.017400  1.0
  H  H1136  1  0.160300  0.642300  0.017400  1.0
  H  H1137  1  0.743200  0.366200  0.013500  1.0
  H  H1138  1  0.877100  0.743200  0.013500  1.0
  H  H1139  1  0.366200  0.877100  0.013500  1.0
  H  H1140  1  0.122900  0.256800  0.986500  1.0
  H  H1141  1  0.633800  0.122900  0.986500  1.0
  H  H1142  1  0.256800  0.633800  0.986500  1.0
  H  H1143  1  0.461100  0.919900  0.077100  1.0
  H  H1144  1  0.541900  0.461100  0.077100  1.0
  H  H1145  1  0.919900  0.541900  0.077100  1.0
  H  H1146  1  0.458100  0.538900  0.922900  1.0
  H  H1147  1  0.080100  0.458100  0.922900  1.0
  H  H1148  1  0.538900  0.080100  0.922900  1.0
  H  H1149  1  0.386500  0.929300  0.045000  1.0
  H  H1150  1  0.639200  0.386500  0.045000  1.0
  H  H1151  1  0.929300  0.639200  0.045000  1.0
  H  H1152  1  0.360800  0.613500  0.955000  1.0
  H  H1153  1  0.070700  0.360800  0.955000  1.0
  H  H1154  1  0.613500  0.070700  0.955000  1.0
  H  H1155  1  0.705000  0.493900  0.402600  1.0
  H  H1156  1  0.398500  0.705000  0.402600  1.0
  H  H1157  1  0.493900  0.398500  0.402600  1.0
  H  H1158  1  0.601500  0.295000  0.597400  1.0
  H  H1159  1  0.506100  0.601500  0.597400  1.0
  H  H1160  1  0.295000  0.506100  0.597400  1.0
  H  H1161  1  0.781300  0.349700  0.397800  1.0
  H  H1162  1  0.471200  0.781300  0.397800  1.0
  H  H1163  1  0.349700  0.471200  0.397800  1.0
  H  H1164  1  0.528800  0.218700  0.602200  1.0
  H  H1165  1  0.650300  0.528800  0.602200  1.0
  H  H1166  1  0.218700  0.650300  0.602200  1.0
  H  H1167  1  0.896400  0.299400  0.372000  1.0
  H  H1168  1  0.432200  0.896400  0.372000  1.0
  H  H1169  1  0.299400  0.432200  0.372000  1.0
  H  H1170  1  0.567800  0.103600  0.628000  1.0
  H  H1171  1  0.700600  0.567800  0.628000  1.0
  H  H1172  1  0.103600  0.700600  0.628000  1.0
  H  H1173  1  0.933800  0.394000  0.351600  1.0
  H  H1174  1  0.320600  0.933800  0.351600  1.0
  H  H1175  1  0.394000  0.320600  0.351600  1.0
  H  H1176  1  0.679400  0.066200  0.648400  1.0
  H  H1177  1  0.606000  0.679400  0.648400  1.0
  H  H1178  1  0.066200  0.606000  0.648400  1.0
  H  H1179  1  0.605300  0.792400  0.395700  1.0
  H  H1180  1  0.206600  0.605300  0.395700  1.0
  H  H1181  1  0.792400  0.206600  0.395700  1.0
  H  H1182  1  0.793400  0.394700  0.604300  1.0
  H  H1183  1  0.207600  0.793400  0.604300  1.0
  H  H1184  1  0.394700  0.207600  0.604300  1.0
  H  H1185  1  0.632300  0.647300  0.404400  1.0
  H  H1186  1  0.316000  0.632300  0.404400  1.0
  H  H1187  1  0.647300  0.316000  0.404400  1.0
  H  H1188  1  0.684000  0.367700  0.595600  1.0
  H  H1189  1  0.352700  0.684000  0.595600  1.0
  H  H1190  1  0.367700  0.352700  0.595600  1.0
  H  H1191  1  0.772800  0.791100  0.354000  1.0
  H  H1192  1  0.082100  0.772800  0.354000  1.0
  H  H1193  1  0.791100  0.082100  0.354000  1.0
  H  H1194  1  0.917900  0.227200  0.646000  1.0
  H  H1195  1  0.208900  0.917900  0.646000  1.0
  H  H1196  1  0.227200  0.208900  0.646000  1.0
  H  H1197  1  0.701700  0.852400  0.371100  1.0
  H  H1198  1  0.074800  0.701700  0.371100  1.0
  H  H1199  1  0.852400  0.074800  0.371100  1.0
  H  H1200  1  0.925200  0.298300  0.628900  1.0
  H  H1201  1  0.147600  0.925200  0.628900  1.0
  H  H1202  1  0.298300  0.147600  0.628900  1.0
  H  H1203  1  0.611600  0.772800  0.345600  1.0
  H  H1204  1  0.270000  0.611600  0.345600  1.0
  H  H1205  1  0.772800  0.270000  0.345600  1.0
  H  H1206  1  0.730000  0.388400  0.654400  1.0
  H  H1207  1  0.227200  0.730000  0.654400  1.0
  H  H1208  1  0.388400  0.227200  0.654400  1.0
  H  H1209  1  0.504800  0.783200  0.322500  1.0
  H  H1210  1  0.389500  0.504800  0.322500  1.0
  H  H1211  1  0.783200  0.389500  0.322500  1.0
  H  H1212  1  0.610500  0.495200  0.677500  1.0
  H  H1213  1  0.216800  0.610500  0.677500  1.0
  H  H1214  1  0.495200  0.216800  0.677500  1.0
  H  H1215  1  0.413400  0.854200  0.295200  1.0
  H  H1216  1  0.437200  0.413400  0.295200  1.0
  H  H1217  1  0.854200  0.437200  0.295200  1.0
  H  H1218  1  0.562800  0.586600  0.704800  1.0
  H  H1219  1  0.145800  0.562800  0.704800  1.0
  H  H1220  1  0.586600  0.145800  0.704800  1.0
  H  H1221  1  0.408100  0.973600  0.275700  1.0
  H  H1222  1  0.342600  0.408100  0.275700  1.0
  H  H1223  1  0.973600  0.342600  0.275700  1.0
  H  H1224  1  0.657400  0.591900  0.724300  1.0
  H  H1225  1  0.026400  0.657400  0.724300  1.0
  H  H1226  1  0.591900  0.026400  0.724300  1.0
  H  H1227  1  0.490500  0.025100  0.283500  1.0
  H  H1228  1  0.200900  0.490500  0.283500  1.0
  H  H1229  1  0.025100  0.200900  0.283500  1.0
  H  H1230  1  0.799100  0.509500  0.716500  1.0
  H  H1231  1  0.974900  0.799100  0.716500  1.0
  H  H1232  1  0.509500  0.974900  0.716500  1.0
  H  H1233  1  0.601500  0.011200  0.305100  1.0
  H  H1234  1  0.082200  0.601500  0.305100  1.0
  H  H1235  1  0.011200  0.082200  0.305100  1.0
  H  H1236  1  0.917800  0.398500  0.694900  1.0
  H  H1237  1  0.988800  0.917800  0.694900  1.0
  H  H1238  1  0.398500  0.988800  0.694900  1.0
  H  H1239  1  0.726400  0.757300  0.277800  1.0
  H  H1240  1  0.238500  0.726400  0.277800  1.0
  H  H1241  1  0.757300  0.238500  0.277800  1.0
  H  H1242  1  0.761500  0.273600  0.722200  1.0
  H  H1243  1  0.242700  0.761500  0.722200  1.0
  H  H1244  1  0.273600  0.242700  0.722200  1.0
  H  H1245  1  0.632700  0.699800  0.283200  1.0
  H  H1246  1  0.384300  0.632700  0.283200  1.0
  H  H1247  1  0.699800  0.384300  0.283200  1.0
  H  H1248  1  0.615700  0.367300  0.716800  1.0
  H  H1249  1  0.300200  0.615700  0.716800  1.0
  H  H1250  1  0.367300  0.300200  0.716800  1.0
  H  H1251  1  0.664900  0.575200  0.303900  1.0
  H  H1252  1  0.456000  0.664900  0.303900  1.0
  H  H1253  1  0.575200  0.456000  0.303900  1.0
  H  H1254  1  0.544000  0.335100  0.696100  1.0
  H  H1255  1  0.424800  0.544000  0.696100  1.0
  H  H1256  1  0.335100  0.424800  0.696100  1.0
  H  H1257  1  0.742800  0.552000  0.332400  1.0
  H  H1258  1  0.372800  0.742800  0.332400  1.0
  H  H1259  1  0.552000  0.372800  0.332400  1.0
  H  H1260  1  0.627200  0.257200  0.667600  1.0
  H  H1261  1  0.448000  0.627200  0.667600  1.0
  H  H1262  1  0.257200  0.448000  0.667600  1.0
  H  H1263  1  0.962400  0.792000  0.293400  1.0
  H  H1264  1  0.952200  0.962400  0.293400  1.0
  H  H1265  1  0.792000  0.952200  0.293400  1.0
  H  H1266  1  0.047800  0.037600  0.706600  1.0
  H  H1267  1  0.208000  0.047800  0.706600  1.0
  H  H1268  1  0.037600  0.208000  0.706600  1.0
  H  H1269  1  0.851600  0.785300  0.277800  1.0
  H  H1270  1  0.085300  0.851600  0.277800  1.0
  H  H1271  1  0.785300  0.085300  0.277800  1.0
  H  H1272  1  0.914700  0.148400  0.722200  1.0
  H  H1273  1  0.214700  0.914700  0.722200  1.0
  H  H1274  1  0.148400  0.214700  0.722200  1.0
  H  H1275  1  0.679600  0.986400  0.351000  1.0
  H  H1276  1  0.983000  0.679600  0.351000  1.0
  H  H1277  1  0.986400  0.983000  0.351000  1.0
  H  H1278  1  0.017000  0.320400  0.649000  1.0
  H  H1279  1  0.013600  0.017000  0.649000  1.0
  H  H1280  1  0.320400  0.013600  0.649000  1.0
  H  H1281  1  0.761100  0.909400  0.340500  1.0
  H  H1282  1  0.989000  0.761100  0.340500  1.0
  H  H1283  1  0.909400  0.989000  0.340500  1.0
  H  H1284  1  0.011000  0.238900  0.659500  1.0
  H  H1285  1  0.090600  0.011000  0.659500  1.0
  H  H1286  1  0.238900  0.090600  0.659500  1.0
  H  H1287  1  0.174100  0.370900  0.346200  1.0
  H  H1288  1  0.108800  0.174100  0.346200  1.0
  H  H1289  1  0.370900  0.108800  0.346200  1.0
  H  H1290  1  0.891200  0.825900  0.653800  1.0
  H  H1291  1  0.629100  0.891200  0.653800  1.0
  H  H1292  1  0.825900  0.629100  0.653800  1.0
  H  H1293  1  0.197200  0.331700  0.309600  1.0
  H  H1294  1  0.161500  0.197200  0.309600  1.0
  H  H1295  1  0.331700  0.161500  0.309600  1.0
  H  H1296  1  0.838500  0.802800  0.690400  1.0
  H  H1297  1  0.668300  0.838500  0.690400  1.0
  H  H1298  1  0.802800  0.668300  0.690400  1.0
  H  H1299  1  0.081700  0.392967  0.288000  1.0
  H  H1300  1  0.237333  0.081700  0.288000  1.0
  H  H1301  1  0.392967  0.237333  0.288000  1.0
  H  H1302  1  0.762667  0.918300  0.712000  1.0
  H  H1303  1  0.607033  0.762667  0.712000  1.0
  H  H1304  1  0.918300  0.607033  0.712000  1.0
  H  H1305  1  0.954800  0.500900  0.300600  1.0
  H  H1306  1  0.243700  0.954800  0.300600  1.0
  H  H1307  1  0.500900  0.243700  0.300600  1.0
  H  H1308  1  0.756300  0.045200  0.699400  1.0
  H  H1309  1  0.499100  0.756300  0.699400  1.0
  H  H1310  1  0.045200  0.499100  0.699400  1.0
  H  H1311  1  0.049000  0.505100  0.414000  1.0
  H  H1312  1  0.031900  0.049000  0.414000  1.0
  H  H1313  1  0.505100  0.031900  0.414000  1.0
  H  H1314  1  0.968100  0.951000  0.586000  1.0
  H  H1315  1  0.494900  0.968100  0.586000  1.0
  H  H1316  1  0.951000  0.494900  0.586000  1.0
  H  H1317  1  0.137000  0.409200  0.384600  1.0
  H  H1318  1  0.069200  0.137000  0.384600  1.0
  H  H1319  1  0.409200  0.069200  0.384600  1.0
  H  H1320  1  0.930800  0.863000  0.615400  1.0
  H  H1321  1  0.590800  0.930800  0.615400  1.0
  H  H1322  1  0.863000  0.590800  0.615400  1.0
  H  H1323  1  0.860000  0.679500  0.390300  1.0
  H  H1324  1  0.070200  0.860000  0.390300  1.0
  H  H1325  1  0.679500  0.070200  0.390300  1.0
  H  H1326  1  0.929800  0.140000  0.609700  1.0
  H  H1327  1  0.320500  0.929800  0.609700  1.0
  H  H1328  1  0.140000  0.320500  0.609700  1.0
  H  H1329  1  0.922600  0.669200  0.407100  1.0
  H  H1330  1  0.001100  0.922600  0.407100  1.0
  H  H1331  1  0.669200  0.001100  0.407100  1.0
  H  H1332  1  0.998900  0.077400  0.592900  1.0
  H  H1333  1  0.330800  0.998900  0.592900  1.0
  H  H1334  1  0.077400  0.330800  0.592900  1.0
  H  H1335  1  0.884700  0.503000  0.417600  1.0
  H  H1336  1  0.194700  0.884700  0.417600  1.0
  H  H1337  1  0.503000  0.194700  0.417600  1.0
  H  H1338  1  0.805300  0.115300  0.582400  1.0
  H  H1339  1  0.497000  0.805300  0.582400  1.0
  H  H1340  1  0.115300  0.497000  0.582400  1.0
  H  H1341  1  0.832900  0.411200  0.440400  1.0
  H  H1342  1  0.315500  0.832900  0.440400  1.0
  H  H1343  1  0.411200  0.315500  0.440400  1.0
  H  H1344  1  0.684500  0.167100  0.559600  1.0
  H  H1345  1  0.588800  0.684500  0.559600  1.0
  H  H1346  1  0.167100  0.588800  0.559600  1.0
  H  H1347  1  0.752000  0.393000  0.471000  1.0
  H  H1348  1  0.384000  0.752000  0.471000  1.0
  H  H1349  1  0.393000  0.384000  0.471000  1.0
  H  H1350  1  0.616000  0.248000  0.529000  1.0
  H  H1351  1  0.607000  0.616000  0.529000  1.0
  H  H1352  1  0.248000  0.607000  0.529000  1.0
  H  H1353  1  0.658400  0.504300  0.491700  1.0
  H  H1354  1  0.345600  0.658400  0.491700  1.0
  H  H1355  1  0.504300  0.345600  0.491700  1.0
  H  H1356  1  0.654400  0.341600  0.508300  1.0
  H  H1357  1  0.495700  0.654400  0.508300  1.0
  H  H1358  1  0.341600  0.495700  0.508300  1.0
  H  H1359  1  0.651700  0.633300  0.483600  1.0
  H  H1360  1  0.231400  0.651700  0.483600  1.0
  H  H1361  1  0.633300  0.231400  0.483600  1.0
  H  H1362  1  0.768600  0.348300  0.516400  1.0
  H  H1363  1  0.366700  0.768600  0.516400  1.0
  H  H1364  1  0.348300  0.366700  0.516400  1.0
  H  H1365  1  0.699700  0.725300  0.459300  1.0
  H  H1366  1  0.115700  0.699700  0.459300  1.0
  H  H1367  1  0.725300  0.115700  0.459300  1.0
  H  H1368  1  0.884300  0.300300  0.540700  1.0
  H  H1369  1  0.274700  0.884300  0.540700  1.0
  H  H1370  1  0.300300  0.274700  0.540700  1.0
  H  H1371  1  0.833700  0.772100  0.427800  1.0
  H  H1372  1  0.966400  0.833700  0.427800  1.0
  H  H1373  1  0.772100  0.966400  0.427800  1.0
  H  H1374  1  0.033600  0.166300  0.572200  1.0
  H  H1375  1  0.227900  0.033600  0.572200  1.0
  H  H1376  1  0.166300  0.227900  0.572200  1.0
  H  H1377  1  0.766800  0.793000  0.411000  1.0
  H  H1378  1  0.029200  0.766800  0.411000  1.0
  H  H1379  1  0.793000  0.029200  0.411000  1.0
  H  H1380  1  0.970800  0.233200  0.589000  1.0
  H  H1381  1  0.207000  0.970800  0.589000  1.0
  H  H1382  1  0.233200  0.207000  0.589000  1.0
  H  H1383  1  0.915700  0.539600  0.486600  1.0
  H  H1384  1  0.058100  0.915700  0.486600  1.0
  H  H1385  1  0.539600  0.058100  0.486600  1.0
  H  H1386  1  0.941900  0.084300  0.513400  1.0
  H  H1387  1  0.460400  0.941900  0.513400  1.0
  H  H1388  1  0.084300  0.460400  0.513400  1.0
  H  H1389  1  0.814200  0.551200  0.516300  1.0
  H  H1390  1  0.118300  0.814200  0.516300  1.0
  H  H1391  1  0.551200  0.118300  0.516300  1.0
  H  H1392  1  0.881700  0.185800  0.483700  1.0
  H  H1393  1  0.448800  0.881700  0.483700  1.0
  H  H1394  1  0.185800  0.448800  0.483700  1.0
  H  H1395  1  0.722100  0.683000  0.528300  1.0
  H  H1396  1  0.066600  0.722100  0.528300  1.0
  H  H1397  1  0.683000  0.066600  0.528300  1.0
  H  H1398  1  0.933400  0.277900  0.471700  1.0
  H  H1399  1  0.317000  0.933400  0.471700  1.0
  H  H1400  1  0.277900  0.317000  0.471700  1.0
  H  H1401  1  0.734800  0.797500  0.512400  1.0
  H  H1402  1  0.955300  0.734800  0.512400  1.0
  H  H1403  1  0.797500  0.955300  0.512400  1.0
  H  H1404  1  0.044700  0.265200  0.487600  1.0
  H  H1405  1  0.202500  0.044700  0.487600  1.0
  H  H1406  1  0.265200  0.202500  0.487600  1.0
  H  H1407  1  0.537600  0.973100  0.459000  1.0
  H  H1408  1  0.030300  0.537600  0.459000  1.0
  H  H1409  1  0.973100  0.030300  0.459000  1.0
  H  H1410  1  0.969700  0.462400  0.541000  1.0
  H  H1411  1  0.026900  0.969700  0.541000  1.0
  H  H1412  1  0.462400  0.026900  0.541000  1.0
  H  H1413  1  0.602400  0.873100  0.429300  1.0
  H  H1414  1  0.095200  0.602400  0.429300  1.0
  H  H1415  1  0.873100  0.095200  0.429300  1.0
  H  H1416  1  0.904800  0.397600  0.570700  1.0
  H  H1417  1  0.126900  0.904800  0.570700  1.0
  H  H1418  1  0.397600  0.126900  0.570700  1.0
  N  N1419  1  0.038000  0.437600  0.020400  1
  N  N1420  1  0.504000  0.038000  0.020400  1
  N  N1421  1  0.437600  0.504000  0.020400  1
  N  N1422  1  0.496000  0.962000  0.979600  1
  N  N1423  1  0.562400  0.496000  0.979600  1
  N  N1424  1  0.962000  0.562400  0.979600  1
  N  N1425  1  0.993290  0.748390  0.028530  1
  N  N1426  1  0.229790  0.993290  0.028530  1
  N  N1427  1  0.748390  0.229790  0.028530  1
  N  N1428  1  0.770210  0.006710  0.971470  1
  N  N1429  1  0.251610  0.770210  0.971470  1
  N  N1430  1  0.006710  0.251610  0.971470  1
  N  N1431  1  0.941500  0.941500  0.175500  1
  N  N1432  1  0.058500  0.058500  0.824500  1
  N  N1433  1  0.124680  0.999680  0.465060  1
  N  N1434  1  0.410580  0.124680  0.465060  1
  N  N1435  1  0.999680  0.410580  0.465060  1
  N  N1436  1  0.589420  0.875320  0.534940  1
  N  N1437  1  0.000320  0.589420  0.534940  1
  N  N1438  1  0.875320  0.000320  0.534940  1
  N  N1439  1  0.197990  0.110090  0.159330  1
  N  N1440  1  0.532590  0.197990  0.159330  1
  N  N1441  1  0.110090  0.532590  0.159330  1
  N  N1442  1  0.467410  0.802010  0.840670  1
  N  N1443  1  0.889910  0.467410  0.840670  1
  N  N1444  1  0.802010  0.889910  0.840670  1
  N  N1445  1  0.499967  0.499967  0.500100  1
  N  N1446  1  0.801310  0.795310  0.186570  1.0
  N  N1447  1  0.216810  0.801310  0.186570  1.0
  N  N1448  1  0.795310  0.216810  0.186570  1.0
  N  N1449  1  0.783190  0.198690  0.813430  1.0
  N  N1450  1  0.204690  0.783190  0.813430  1.0
  N  N1451  1  0.198690  0.204690  0.813430  1.0
  N  N1452  1  0.779300  0.759400  0.148200  1.0
  N  N1453  1  0.313100  0.779300  0.148200  1.0
  N  N1454  1  0.759400  0.313100  0.148200  1.0
  N  N1455  1  0.686900  0.220700  0.851800  1.0
  N  N1456  1  0.240600  0.686900  0.851800  1.0
  N  N1457  1  0.220700  0.240600  0.851800  1.0
  N  N1458  1  0.788730  0.735330  0.127410  1.0
  N  N1459  1  0.348530  0.788730  0.127410  1.0
  N  N1460  1  0.735330  0.348530  0.127410  1.0
  N  N1461  1  0.651470  0.211270  0.872590  1.0
  N  N1462  1  0.264670  0.651470  0.872590  1.0
  N  N1463  1  0.211270  0.264670  0.872590  1.0
  N  N1464  1  0.605720  0.939120  0.195240  1.0
  N  N1465  1  0.259920  0.605720  0.195240  1.0
  N  N1466  1  0.939120  0.259920  0.195240  1.0
  N  N1467  1  0.740080  0.394280  0.804760  1.0
  N  N1468  1  0.060880  0.740080  0.804760  1.0
  N  N1469  1  0.394280  0.060880  0.804760  1.0
  N  N1470  1  0.648590  0.777590  0.195330  1.0
  N  N1471  1  0.378490  0.648590  0.195330  1.0
  N  N1472  1  0.777590  0.378490  0.195330  1.0
  N  N1473  1  0.621510  0.351410  0.804670  1.0
  N  N1474  1  0.222410  0.621510  0.804670  1.0
  N  N1475  1  0.351410  0.222410  0.804670  1.0
  N  N1476  1  0.665080  0.698780  0.200760  1.0
  N  N1477  1  0.435380  0.665080  0.200760  1.0
  N  N1478  1  0.698780  0.435380  0.200760  1.0
  N  N1479  1  0.564620  0.334920  0.799240  1.0
  N  N1480  1  0.301220  0.564620  0.799240  1.0
  N  N1481  1  0.334920  0.301220  0.799240  1.0
  N  N1482  1  0.706400  0.945200  0.150600  1.0
  N  N1483  1  0.197800  0.706400  0.150600  1.0
  N  N1484  1  0.945200  0.197800  0.150600  1.0
  N  N1485  1  0.802200  0.293600  0.849400  1.0
  N  N1486  1  0.054800  0.802200  0.849400  1.0
  N  N1487  1  0.293600  0.054800  0.849400  1.0
  N  N1488  1  0.582440  0.907540  0.150480  1.0
  N  N1489  1  0.359540  0.582440  0.150480  1.0
  N  N1490  1  0.907540  0.359540  0.150480  1.0
  N  N1491  1  0.640460  0.417560  0.849520  1.0
  N  N1492  1  0.092460  0.640460  0.849520  1.0
  N  N1493  1  0.417560  0.092460  0.849520  1.0
  N  N1494  1  0.512780  0.906080  0.147960  1.0
  N  N1495  1  0.433180  0.512780  0.147960  1.0
  N  N1496  1  0.906080  0.433180  0.147960  1.0
  N  N1497  1  0.566820  0.487220  0.852040  1.0
  N  N1498  1  0.093920  0.566820  0.852040  1.0
  N  N1499  1  0.487220  0.093920  0.852040  1.0
  N  N1500  1  0.727020  0.548820  0.012540  1.0
  N  N1501  1  0.711620  0.727020  0.012540  1.0
  N  N1502  1  0.548820  0.711620  0.012540  1.0
  N  N1503  1  0.288380  0.272980  0.987460  1.0
  N  N1504  1  0.451180  0.288380  0.987460  1.0
  N  N1505  1  0.272980  0.451180  0.987460  1.0
  N  N1506  1  0.563970  0.765370  0.048690  1.0
  N  N1507  1  0.621970  0.563970  0.048690  1.0
  N  N1508  1  0.765370  0.621970  0.048690  1.0
  N  N1509  1  0.378030  0.436030  0.951310  1.0
  N  N1510  1  0.234630  0.378030  0.951310  1.0
  N  N1511  1  0.436030  0.234630  0.951310  1.0
  N  N1512  1  0.553820  0.809620  0.066240  1.0
  N  N1513  1  0.570320  0.553820  0.066240  1.0
  N  N1514  1  0.809620  0.570320  0.066240  1.0
  N  N1515  1  0.429680  0.446180  0.933760  1.0
  N  N1516  1  0.190380  0.429680  0.933760  1.0
  N  N1517  1  0.446180  0.190380  0.933760  1.0
  N  N1518  1  0.842270  0.496470  0.363390  1.0
  N  N1519  1  0.297870  0.842270  0.363390  1.0
  N  N1520  1  0.496470  0.297870  0.363390  1.0
  N  N1521  1  0.702130  0.157730  0.636610  1.0
  N  N1522  1  0.503530  0.702130  0.636610  1.0
  N  N1523  1  0.157730  0.503530  0.636610  1.0
  N  N1524  1  0.762280  0.661080  0.367260  1.0
  N  N1525  1  0.209380  0.762280  0.367260  1.0
  N  N1526  1  0.661080  0.209380  0.367260  1.0
  N  N1527  1  0.790620  0.237720  0.632740  1.0
  N  N1528  1  0.338920  0.790620  0.632740  1.0
  N  N1529  1  0.237720  0.338920  0.632740  1.0
  N  N1530  1  0.709200  0.741200  0.372900  1.0
  N  N1531  1  0.176700  0.709200  0.372900  1.0
  N  N1532  1  0.741200  0.176700  0.372900  1.0
  N  N1533  1  0.823300  0.290800  0.627100  1.0
  N  N1534  1  0.258800  0.823300  0.627100  1.0
  N  N1535  1  0.290800  0.258800  0.627100  1.0
  N  N1536  1  0.793690  0.623790  0.320130  1.0
  N  N1537  1  0.262390  0.793690  0.320130  1.0
  N  N1538  1  0.623790  0.262390  0.320130  1.0
  N  N1539  1  0.737610  0.206310  0.679870  1.0
  N  N1540  1  0.376210  0.737610  0.679870  1.0
  N  N1541  1  0.206310  0.376210  0.679870  1.0
  N  N1542  1  0.891980  0.686780  0.324660  1.0
  N  N1543  1  0.096580  0.891980  0.324660  1.0
  N  N1544  1  0.686780  0.096580  0.324660  1.0
  N  N1545  1  0.903420  0.108020  0.675340  1.0
  N  N1546  1  0.313220  0.903420  0.675340  1.0
  N  N1547  1  0.108020  0.313220  0.675340  1.0
  N  N1548  1  0.944060  0.719960  0.320820  1.0
  N  N1549  1  0.015160  0.944060  0.320820  1.0
  N  N1550  1  0.719960  0.015160  0.320820  1.0
  N  N1551  1  0.984840  0.055940  0.679180  1.0
  N  N1552  1  0.280040  0.984840  0.679180  1.0
  N  N1553  1  0.055940  0.280040  0.679180  1.0
  N  N1554  1  0.987020  0.496820  0.331140  1.0
  N  N1555  1  0.185020  0.987020  0.331140  1.0
  N  N1556  1  0.496820  0.185020  0.331140  1.0
  N  N1557  1  0.814980  0.012980  0.668860  1.0
  N  N1558  1  0.503180  0.814980  0.668860  1.0
  N  N1559  1  0.012980  0.503180  0.668860  1.0
  N  N1560  1  0.962240  0.557240  0.370380  1.0
  N  N1561  1  0.110140  0.962240  0.370380  1.0
  N  N1562  1  0.557240  0.110140  0.370380  1.0
  N  N1563  1  0.889860  0.037760  0.629620  1.0
  N  N1564  1  0.442760  0.889860  0.629620  1.0
  N  N1565  1  0.037760  0.442760  0.629620  1.0
  N  N1566  1  0.962330  0.568130  0.391410  1.0
  N  N1567  1  0.078130  0.962330  0.391410  1.0
  N  N1568  1  0.568130  0.078130  0.391410  1.0
  N  N1569  1  0.921870  0.037670  0.608590  1.0
  N  N1570  1  0.431870  0.921870  0.608590  1.0
  N  N1571  1  0.037670  0.431870  0.608590  1.0
  N  N1572  1  0.831940  0.737940  0.490980  1.0
  N  N1573  1  0.939140  0.831940  0.490980  1.0
  N  N1574  1  0.737940  0.939140  0.490980  1.0
  N  N1575  1  0.060860  0.168060  0.509020  1.0
  N  N1576  1  0.262060  0.060860  0.509020  1.0
  N  N1577  1  0.168060  0.262060  0.509020  1.0
  N  N1578  1  0.714240  0.843840  0.439980  1.0
  N  N1579  1  0.001940  0.714240  0.439980  1.0
  N  N1580  1  0.843840  0.001940  0.439980  1.0
  N  N1581  1  0.998060  0.285760  0.560020  1.0
  N  N1582  1  0.156160  0.998060  0.560020  1.0
  N  N1583  1  0.285760  0.156160  0.560020  1.0
  N  N1584  1  0.734350  0.871250  0.456150  1.0
  N  N1585  1  0.938250  0.734350  0.456150  1.0
  N  N1586  1  0.871250  0.938250  0.456150  1.0
  N  N1587  1  0.061750  0.265650  0.543850  1.0
  N  N1588  1  0.128750  0.061750  0.543850  1.0
  N  N1589  1  0.265650  0.128750  0.543850  1.0
  O  O1590  1  0.315833  0.315833  0.052500  1
  O  O1591  1  0.684167  0.684167  0.947500  1
  O  O1592  1  0.493410  0.533110  0.351270  1
  O  O1593  1  0.622210  0.493410  0.351270  1
  O  O1594  1  0.533110  0.622210  0.351270  1
  O  O1595  1  0.377790  0.506590  0.648730  1
  O  O1596  1  0.466890  0.377790  0.648730  1
  O  O1597  1  0.506590  0.466890  0.648730  1
  O  O1598  1  0.303433  0.303433  0.089700  1
  O  O1599  1  0.696567  0.696567  0.910300  1
  O  O1600  1  0.269753  0.269753  0.190740  1
  O  O1601  1  0.730247  0.730247  0.809260  1
  Zn  Zn1602  1  0.656353  0.656353  0.030942  1
  Zn  Zn1603  1  0.343647  0.343647  0.969058  1
  Zn  Zn1604  1  0.842084  0.842084  0.473748  1
  Zn  Zn1605  1  0.157916  0.157916  0.526252  1
  Zn  Zn1606  1  0.687499  0.853809  0.171573  1.0
  Zn  Zn1607  1  0.287119  0.687499  0.171573  1.0
  Zn  Zn1608  1  0.853809  0.287119  0.171573  1.0
  Zn  Zn1609  1  0.712881  0.312501  0.828427  1.0
  Zn  Zn1610  1  0.146191  0.712881  0.828427  1.0
  Zn  Zn1611  1  0.312501  0.146191  0.828427  1.0
  Zn  Zn1612  1  0.873187  0.589637  0.345759  1.0
  Zn  Zn1613  1  0.191417  0.873187  0.345759  1.0
  Zn  Zn1614  1  0.589637  0.191417  0.345759  1.0
  Zn  Zn1615  1  0.808583  0.126813  0.654241  1.0
  Zn  Zn1616  1  0.410363  0.808583  0.654241  1.0
  Zn  Zn1617  1  0.126813  0.410363  0.654241  1.0
