
#######################################################################
#
#                 Cambridge Crystallographic Data Centre
#                                CCDC 
#
#######################################################################
#
# If this CIF has been generated from an entry in the Cambridge 
# Structural Database, then it will include bibliographic, chemical, 
# crystal, experimental, refinement or atomic coordinate data resulting 
# from the CCDC's data processing and validation procedures.
#
#######################################################################

data_LUZJAR
_chemical_formula_moiety         
'C168 H132 N36 Zn4 8+,8(B1 F4 1-),6.75(C2 H3 N1),2(H2 O1)'
_chemical_name_systematic        
'hexakis(\m~2~-2,3-bis((3-(2-Pyridyl)pyrazol-1-yl)methyl)naphthalene)-tetra-zinc octakis(tetrafluoroborate) acetonitrile solvate dihydrate'
_symmetry_cell_setting           rhombohedral
_symmetry_space_group_name_H-M   'R -3'
_symmetry_Int_Tables_number      148
_space_group_name_Hall           '-R 3'
loop_
_symmetry_equiv_pos_site_id
_symmetry_equiv_pos_as_xyz
1 x,y,z
2 -y,x-y,z
3 -x+y,-x,z
4 2/3+x,1/3+y,1/3+z
5 2/3-y,1/3+x-y,1/3+z
6 2/3-x+y,1/3-x,1/3+z
7 1/3+x,2/3+y,2/3+z
8 2/3+y,1/3-x+y,1/3-z
9 2/3+x-y,1/3+x,1/3-z
10 -x,-y,-z
11 y,-x+y,-z
12 x-y,x,-z
13 1/3-x,2/3-y,2/3-z
14 1/3+y,2/3-x+y,2/3-z
15 1/3+x-y,2/3+x,2/3-z
16 2/3-x,1/3-y,1/3-z
17 1/3-y,2/3+x-y,2/3+z
18 1/3-x+y,2/3-x,2/3+z
_cell_length_a                   18.536(2)
_cell_length_b                   18.536(2)
_cell_length_c                   181.64(3)
_cell_angle_alpha                90
_cell_angle_beta                 90
_cell_angle_gamma                120.00
_cell_volume                     54047.3
_exptl_crystal_colour            colorless
_exptl_crystal_description       block
_cell_formula_units_Z            12
loop_
_atom_site_label
_atom_site_type_symbol
_atom_site_fract_x
_atom_site_fract_y
_atom_site_fract_z
Zn1 Zn 0.25531(6) 0.34431(6) 0.057191(5)
Zn2 Zn 0.3333 0.6667 0.010314(8)
N1 N 0.1365(4) 0.2790(4) 0.06219(4)
C1 C 0.0708(6) 0.2773(5) 0.05876(5)
C2 C -0.0069(6) 0.2399(5) 0.06172(5)
H1 H -0.0517 0.2385 0.0591
C3 C -0.0206(7) 0.2035(6) 0.06870(6)
H2 H -0.0743 0.1777 0.0709
C4 C 0.0461(6) 0.2063(5) 0.07224(5)
H3 H 0.0390 0.1820 0.0770
C5 C 0.1236(6) 0.2444(5) 0.06894(5)
H4 H 0.1692 0.2464 0.0715
N2 N 0.1713(4) 0.3625(4) 0.04940(4)
N3 N 0.1688(4) 0.3910(4) 0.04247(3)
C6 C 0.0911(6) 0.3689(5) 0.04046(5)
H5 H 0.0750 0.3823 0.0359
C7 C 0.0374(6) 0.3223(5) 0.04625(5)
H6 H -0.0214 0.2984 0.0465
C8 C 0.0907(6) 0.3196(5) 0.05144(4)
C9 C 0.2454(5) 0.4428(6) 0.03815(5)
H7 H 0.2944 0.4539 0.0412
H8 H 0.2494 0.4969 0.0370
C10 C 0.2481(5) 0.4022(5) 0.03100(4)
C11 C 0.2045(6) 0.3194(5) 0.02993(4)
H9 H 0.1715 0.2846 0.0338
C12 C 0.2062(6) 0.2823(6) 0.02314(5)
C13 C 0.1603(6) 0.1964(6) 0.02179(5)
H10 H 0.1278 0.1597 0.0256
C14 C 0.1616(7) 0.1646(6) 0.01506(6)
H11 H 0.1289 0.1063 0.0142
C15 C 0.2108(7) 0.2169(7) 0.00927(5)
H12 H 0.2116 0.1941 0.0046
C16 C 0.2564(7) 0.2993(6) 0.01045(5)
H13 H 0.2886 0.3346 0.0065
C17 C 0.2579(6) 0.3355(5) 0.01736(5)
C18 C 0.3062(6) 0.4219(6) 0.01883(4)
H14 H 0.3420 0.4578 0.0151
C19 C 0.3032(5) 0.4555(5) 0.02549(4)
C20 C 0.3551(5) 0.5488(5) 0.02698(4)
H15 H 0.3186 0.5734 0.0266
H16 H 0.3764 0.5572 0.0321
N4 N 0.3292(4) 0.3250(4) 0.06508(4)
C21 C 0.3569(5) 0.3790(5) 0.07078(4)
C22 C 0.4075(6) 0.3753(6) 0.07622(5)
H17 H 0.4240 0.4120 0.0803
C23 C 0.4338(6) 0.3174(6) 0.07560(5)
H18 H 0.4684 0.3138 0.0793
C24 C 0.4086(6) 0.2648(6) 0.06953(5)
H19 H 0.4270 0.2257 0.0689
C25 C 0.3567(6) 0.2705(6) 0.06453(5)
H20 H 0.3391 0.2339 0.0604
N5 N 0.2863(4) 0.4436(4) 0.06511(4)
C26 C 0.3282(5) 0.4383(5) 0.07109(4)
C27 C 0.3358(6) 0.4951(5) 0.07638(5)
H21 H 0.3636 0.5051 0.0810
C28 C 0.2964(6) 0.5332(5) 0.07373(5)
H22 H 0.2895 0.5746 0.0762
N6 N 0.2680(4) 0.5023(4) 0.06692(4)
C29 C 0.2161(5) 0.5206(5) 0.06215(5)
H23 H 0.2173 0.5005 0.0571
H24 H 0.2403 0.5817 0.0619
N7 N 0.2434(5) 0.2480(5) 0.05020(4)
C30 C 0.3054(6) 0.2679(6) 0.04543(5)
C31 C 0.3041(8) 0.2089(8) 0.04045(6)
H25 H 0.3467 0.2237 0.0369
C32 C 0.2376(8) 0.1284(8) 0.04101(6)
H26 H 0.2360 0.0864 0.0379
C33 C 0.1738(7) 0.1075(7) 0.04592(6)
H27 H 0.1281 0.0522 0.0462
C34 C 0.1789(6) 0.1694(6) 0.05034(5)
H28 H 0.1347 0.1564 0.0537
N8 N 0.3674(4) 0.4097(4) 0.05016(4)
N9 N 0.4379(5) 0.4825(5) 0.04932(4)
C35 C 0.4875(7) 0.4760(9) 0.04412(6)
H29 H 0.5402 0.5196 0.0425
C36 C 0.4488(8) 0.3976(9) 0.04173(7)
H30 H 0.4687 0.3750 0.0381
C37 C 0.3726(6) 0.3541(7) 0.04559(5)
C38 C 0.4529(6) 0.5557(6) 0.05331(5)
H31 H 0.3984 0.5501 0.0546
H32 H 0.4820 0.6044 0.0500
C39 C 0.5037(5) 0.5732(6) 0.06033(5)
C40 C 0.5371(6) 0.5255(6) 0.06267(6)
H33 H 0.5281 0.4789 0.0598
C41 C 0.5846(5) 0.5436(6) 0.06926(5)
C42 C 0.6189(6) 0.4954(7) 0.07162(6)
H34 H 0.6111 0.4486 0.0688
C43 C 0.6648(7) 0.5173(8) 0.07811(7)
H35 H 0.6854 0.4829 0.0799
C44 C 0.6811(7) 0.5876(8) 0.08199(7)
H36 H 0.7164 0.6036 0.0862
C45 C 0.6469(6) 0.6342(7) 0.07986(5)
H37 H 0.6557 0.6808 0.0827
C46 C 0.5988(5) 0.6139(6) 0.07345(5)
C47 C 0.5644(5) 0.6635(6) 0.07091(5)
H38 H 0.5737 0.7109 0.0737
C48 C 0.1251(5) 0.4810(5) 0.06467(4)
N10 N 0.2688(4) 0.7158(5) 0.00418(4)
C49 C 0.2222(6) 0.6792(6) -0.00186(5)
H39 H 0.2156 0.6275 -0.0035
C50 C 0.1838(7) 0.7153(7) -0.00575(6)
H40 H 0.1514 0.6890 -0.0100
C51 C 0.1934(7) 0.7896(7) -0.00333(6)
H41 H 0.1661 0.8142 -0.0058
C52 C 0.2434(6) 0.8292(6) 0.00278(5)
H42 H 0.2523 0.8816 0.0045
C53 C 0.2789(5) 0.7886(6) 0.00623(5)
N11 N 0.4198(4) 0.6382(4) 0.01623(3)
N12 N 0.4241(4) 0.5924(4) 0.02208(3)
C54 C 0.4967(6) 0.5944(6) 0.02222(5)
H43 H 0.5132 0.5676 0.0257
C55 C 0.5440(5) 0.6419(6) 0.01637(5)
H44 H 0.5985 0.6542 0.0150
C56 C 0.4932(5) 0.6681(5) 0.01285(4)
C48A C 0.5190(5) 0.6441(7) 0.06467(4)
C29A C 0.4794(5) 0.6955(7) 0.06215(5)
N6A N 0.4977(4) 0.7657(6) 0.06692(4)
N5A N 0.5564(4) 0.8427(6) 0.06511(4)
Zn1A Zn 0.65569(6) 0.91100(8) 0.057191(5)
N1A N 0.7210(4) 0.8575(6) 0.06219(4)
C1A C 0.7227(5) 0.7935(8) 0.05876(5)
C2A C 0.7601(5) 0.7532(8) 0.06172(5)
H1A H 0.7615 0.7098 0.0591
C3A C 0.7965(6) 0.7759(9) 0.06870(6)
H2A H 0.8223 0.7480 0.0709
C4A C 0.7937(5) 0.8398(8) 0.07224(5)
H3A H 0.8180 0.8570 0.0770
C5A C 0.7556(5) 0.8792(8) 0.06894(5)
H4A H 0.7536 0.9228 0.0715
C8A C 0.6804(5) 0.7711(8) 0.05144(4)
N2A N 0.6375(4) 0.8088(6) 0.04940(4)
N4A N 0.6750(4) 1.0042(6) 0.06508(4)
C21A C 0.6210(5) 0.9779(7) 0.07078(4)
C22A C 0.6247(6) 1.0322(8) 0.07622(5)
H17A H 0.5880 1.0120 0.0803
C23A C 0.6826(6) 1.1164(8) 0.07560(5)
H18A H 0.6862 1.1546 0.0793
C24A C 0.7352(6) 1.1438(8) 0.06953(5)
H19A H 0.7743 1.2013 0.0689
C25A C 0.7295(6) 1.0862(8) 0.06453(5)
H20A H 0.7661 1.1052 0.0604
C26A C 0.5617(5) 0.8899(7) 0.07109(4)
C27A C 0.5049(5) 0.8407(8) 0.07638(5)
H21A H 0.4949 0.8585 0.0810
C28A C 0.4668(5) 0.7632(8) 0.07373(5)
H22A H 0.4254 0.7149 0.0762
N7A N 0.7520(5) 0.9954(7) 0.05020(4)
C30A C 0.7321(6) 1.0375(8) 0.04543(5)
C31A C 0.7911(8) 1.0952(11) 0.04045(6)
H25A H 0.7763 1.1230 0.0369
C32A C 0.8716(8) 1.1092(11) 0.04101(6)
H26A H 0.9136 1.1496 0.0379
C33A C 0.8925(7) 1.0663(10) 0.04592(6)
H27A H 0.9478 1.0759 0.0462
C34A C 0.8306(6) 1.0095(8) 0.05034(5)
H28A H 0.8436 0.9783 0.0537
C37A C 0.6459(7) 1.0185(9) 0.04559(5)
N8A N 0.5903(4) 0.9577(6) 0.05016(4)
N9A N 0.5175(5) 0.9554(7) 0.04932(4)
C35A C 0.5240(9) 1.0115(11) 0.04412(6)
H29A H 0.4804 1.0206 0.0425
C36A C 0.6024(9) 1.0512(12) 0.04173(7)
H30A H 0.6250 1.0937 0.0381
C38A C 0.4443(6) 0.8972(8) 0.05331(5)
H31A H 0.4499 0.8483 0.0546
H32A H 0.3956 0.8776 0.0500
C39A C 0.4268(6) 0.9305(8) 0.06033(5)
C40A C 0.4745(6) 1.0116(8) 0.06267(6)
H33A H 0.5211 1.0492 0.0598
C41A C 0.4564(6) 1.0410(8) 0.06926(5)
C42A C 0.5046(7) 1.1235(9) 0.07162(6)
H34A H 0.5514 1.1625 0.0688
C43A C 0.4827(8) 1.1475(11) 0.07811(7)
H35A H 0.5171 1.2025 0.0799
C44A C 0.4124(8) 1.0935(11) 0.08199(7)
H36A H 0.3964 1.1128 0.0862
C45A C 0.3658(7) 1.0127(9) 0.07986(5)
H37A H 0.3192 0.9749 0.0827
C46A C 0.3861(6) 0.9849(8) 0.07345(5)
C47A C 0.3365(6) 0.9009(8) 0.07091(5)
H38A H 0.2891 0.8628 0.0737
C48B C 0.3559(7) 0.8749(5) 0.06467(4)
C29B C 0.3045(7) 0.7839(5) 0.06215(5)
N6B N 0.2343(6) 0.7320(4) 0.06692(4)
N5B N 0.1573(6) 0.7137(4) 0.06511(4)
Zn1B Zn 0.08900(8) 0.74469(6) 0.057191(5)
N1B N 0.1425(6) 0.8635(4) 0.06219(4)
C1B C 0.2065(8) 0.9292(6) 0.05876(5)
C2B C 0.2468(8) 1.0069(6) 0.06172(5)
H1B H 0.2902 1.0517 0.0591
C3B C 0.2241(9) 1.0206(7) 0.06870(6)
H2B H 0.2520 1.0743 0.0709
C4B C 0.1602(8) 0.9539(6) 0.07224(5)
H3B H 0.1430 0.9610 0.0770
C5B C 0.1208(8) 0.8764(6) 0.06894(5)
H4B H 0.0772 0.8308 0.0715
C8B C 0.2289(8) 0.9093(6) 0.05144(4)
N2B N 0.1912(6) 0.8287(4) 0.04940(4)
N4B N -0.0042(6) 0.6708(4) 0.06508(4)
C21B C 0.0221(7) 0.6431(5) 0.07078(4)
C22B C -0.0322(8) 0.5925(6) 0.07622(5)
H17B H -0.0120 0.5760 0.0803
C23B C -0.1164(8) 0.5662(6) 0.07560(5)
H18B H -0.1546 0.5316 0.0793
C24B C -0.1438(8) 0.5914(6) 0.06953(5)
H19B H -0.2013 0.5730 0.0689
C25B C -0.0862(8) 0.6433(6) 0.06453(5)
H20B H -0.1052 0.6609 0.0604
C26B C 0.1101(7) 0.6718(5) 0.07109(4)
C27B C 0.1593(8) 0.6642(6) 0.07638(5)
H21B H 0.1415 0.6364 0.0810
C28B C 0.2368(8) 0.7036(6) 0.07373(5)
H22B H 0.2851 0.7105 0.0762
N7B N 0.0046(7) 0.7566(5) 0.05020(4)
C30B C -0.0375(8) 0.6946(6) 0.04543(5)
C31B C -0.0952(11) 0.6959(8) 0.04045(6)
H25B H -0.1230 0.6533 0.0369
C32B C -0.1092(11) 0.7624(8) 0.04101(6)
H26B H -0.1496 0.7640 0.0379
C33B C -0.0663(10) 0.8262(7) 0.04592(6)
H27B H -0.0759 0.8719 0.0462
C34B C -0.0095(8) 0.8211(6) 0.05034(5)
H28B H 0.0217 0.8653 0.0537
C37B C -0.0185(9) 0.6274(6) 0.04559(5)
N8B N 0.0423(6) 0.6326(4) 0.05016(4)
N9B N 0.0446(7) 0.5621(5) 0.04932(4)
C35B C -0.0115(11) 0.5125(7) 0.04412(6)
H29B H -0.0206 0.4598 0.0425
C36B C -0.0512(12) 0.5512(8) 0.04173(7)
H30B H -0.0937 0.5313 0.0381
C38B C 0.1028(8) 0.5471(6) 0.05331(5)
H31B H 0.1517 0.6016 0.0546
H32B H 0.1224 0.5180 0.0500
C39B C 0.0695(8) 0.4963(5) 0.06033(5)
C40B C -0.0116(8) 0.4629(6) 0.06267(6)
H33B H -0.0492 0.4719 0.0598
C41B C -0.0410(8) 0.4154(5) 0.06926(5)
C42B C -0.1235(9) 0.3811(6) 0.07162(6)
H34B H -0.1625 0.3889 0.0688
C43B C -0.1475(11) 0.3352(7) 0.07811(7)
H35B H -0.2025 0.3146 0.0799
C44B C -0.0935(11) 0.3189(7) 0.08199(7)
H36B H -0.1128 0.2836 0.0862
C45B C -0.0127(9) 0.3531(6) 0.07986(5)
H37B H 0.0251 0.3443 0.0827
C46B C 0.0151(8) 0.4012(5) 0.07345(5)
C47B C 0.0991(8) 0.4356(5) 0.07091(5)
H38B H 0.1372 0.4263 0.0737
N3B N 0.2222(6) 0.8312(4) 0.04247(3)
C6B C 0.2778(8) 0.9089(6) 0.04046(5)
H5B H 0.3073 0.9250 0.0359
C7B C 0.2849(8) 0.9626(6) 0.04625(5)
H6B H 0.3198 1.0214 0.0465
C9B C 0.1974(8) 0.7546(5) 0.03815(5)
H7B H 0.1595 0.7056 0.0412
H8B H 0.2475 0.7506 0.0370
C10B C 0.1541(7) 0.7519(5) 0.03100(4)
C11B C 0.1149(8) 0.7955(6) 0.02993(4)
H9B H 0.1131 0.8285 0.0338
C12B C 0.0761(8) 0.7938(6) 0.02314(5)
C13B C 0.0361(8) 0.8397(6) 0.02179(5)
H10B H 0.0319 0.8722 0.0256
C14B C 0.0030(9) 0.8384(7) 0.01506(6)
H11B H -0.0226 0.8711 0.0142
C15B C 0.0061(10) 0.7892(7) 0.00927(5)
H12B H -0.0175 0.7884 0.0046
C16B C 0.0429(9) 0.7436(7) 0.01045(5)
H13B H 0.0460 0.7114 0.0065
C17B C 0.0776(8) 0.7421(6) 0.01736(5)
C18B C 0.1157(8) 0.6938(6) 0.01883(4)
H14B H 0.1158 0.6580 0.0151
C19B C 0.1523(7) 0.6968(5) 0.02549(4)
C20B C 0.1937(7) 0.6449(5) 0.02698(4)
H15B H 0.2548 0.6814 0.0266
H16B H 0.1808 0.6236 0.0321
N12B N 0.1683(6) 0.5759(4) 0.02208(3)
N11B N 0.2184(6) 0.5802(4) 0.01623(3)
C56A C 0.3319(5) 0.8251(7) 0.01285(4)
N11A N 0.3618(4) 0.7816(6) 0.01623(3)
N10A N 0.2842(5) 0.5530(6) 0.00418(4)
C49A C 0.3208(6) 0.5430(8) -0.00186(5)
H39A H 0.3725 0.5881 -0.0035
C50A C 0.2847(7) 0.4685(10) -0.00575(6)
H40A H 0.3110 0.4624 -0.0100
C51A C 0.2104(7) 0.4038(10) -0.00333(6)
H41A H 0.1858 0.3519 -0.0058
C52A C 0.1708(6) 0.4142(8) 0.00278(5)
H42A H 0.1184 0.3707 0.0045
C53A C 0.2114(6) 0.4903(8) 0.00623(5)
C56B C 0.1749(7) 0.5068(5) 0.01285(4)
C55B C 0.0979(8) 0.4560(5) 0.01637(5)
C54B C 0.0977(8) 0.5033(6) 0.02222(5)
H43B H 0.0544 0.4868 0.0257
H44B H 0.0557 0.4015 0.0150
N10B N 0.4470(6) 0.7312(4) 0.00418(4)
C49B C 0.4570(8) 0.7778(6) -0.00186(5)
H39B H 0.4119 0.7844 -0.0035
C50B C 0.5315(10) 0.8162(7) -0.00575(6)
H40B H 0.5376 0.8486 -0.0100
C51B C 0.5962(10) 0.8066(7) -0.00333(6)
H41B H 0.6481 0.8339 -0.0058
C52B C 0.5858(8) 0.7566(6) 0.00278(5)
H42B H 0.6293 0.7477 0.0045
C53B C 0.5097(8) 0.7211(5) 0.00623(5)
N12A N 0.4076(4) 0.8317(6) 0.02208(3)
C20A C 0.4512(5) 0.8063(7) 0.02698(4)
C19A C 0.5445(5) 0.8477(7) 0.02549(4)
C10A C 0.5978(5) 0.8459(7) 0.03100(4)
C9A C 0.5572(6) 0.8026(8) 0.03815(5)
N3A N 0.6090(4) 0.7778(6) 0.04247(3)
C6A C 0.6311(5) 0.7222(8) 0.04046(5)
H5A H 0.6177 0.6927 0.0359
C7A C 0.6777(5) 0.7151(8) 0.04625(5)
H6A H 0.7016 0.6802 0.0465
H7A H 0.5461 0.8405 0.0412
H8A H 0.5031 0.7525 0.0370
C11A C 0.6806(5) 0.8851(8) 0.02993(4)
H9A H 0.7154 0.8869 0.0338
C12A C 0.7177(6) 0.9239(8) 0.02314(5)
C13A C 0.8036(6) 0.9639(8) 0.02179(5)
H10A H 0.8403 0.9681 0.0256
C14A C 0.8354(6) 0.9970(9) 0.01506(6)
H11A H 0.8937 1.0226 0.0142
C15A C 0.7831(7) 0.9939(10) 0.00927(5)
H12A H 0.8059 1.0175 0.0046
C16A C 0.7007(6) 0.9571(9) 0.01045(5)
H13A H 0.6654 0.9540 0.0065
C17A C 0.6645(5) 0.9224(8) 0.01736(5)
C18A C 0.5781(6) 0.8843(8) 0.01883(4)
H14A H 0.5422 0.8842 0.0151
H15A H 0.4266 0.7452 0.0266
H16A H 0.4428 0.8192 0.0321
C54A C 0.4056(6) 0.9023(8) 0.02222(5)
H43A H 0.4324 0.9456 0.0257
C55A C 0.3581(6) 0.9021(8) 0.01637(5)
H44A H 0.3458 0.9443 0.0150
H23B H 0.2832 0.7827 0.0571
H24B H 0.3414 0.7597 0.0619
H23A H 0.4995 0.7168 0.0571
H24A H 0.4183 0.6586 0.0619
Zn3 Zn 0.01156(7) 0.30667(7) 0.115253(5)
Zn4 Zn 0.0000 0.0000 0.157916(8)
N13 N 0.0366(6) 0.4190(5) 0.12113(5)
C57 C 0.0974(7) 0.4462(6) 0.12624(5)
C58 C 0.1177(7) 0.5145(7) 0.13065(6)
H45 H 0.1608 0.5327 0.1342
C59 C 0.0728(8) 0.5559(8) 0.12968(8)
H46 H 0.0861 0.6038 0.1326
C60 C 0.0107(9) 0.5286(8) 0.12470(7)
H47 H -0.0204 0.5562 0.1240
C61 C -0.0061(8) 0.4586(8) 0.12058(7)
H48 H -0.0510 0.4378 0.1172
N14 N 0.1153(5) 0.3318(5) 0.12242(4)
N15 N 0.1665(5) 0.3010(5) 0.12430(5)
C62 C 0.2214(7) 0.3474(7) 0.12972(6)
H49 H 0.2628 0.3385 0.1319
C63 C 0.2046(6) 0.4081(7) 0.13128(6)
H50 H 0.2329 0.4508 0.1348
C64 C 0.1403(6) 0.3986(6) 0.12693(5)
C65 C 0.1651(6) 0.2344(6) 0.12024(5)
H51 H 0.1092 0.2001 0.1180
H52 H 0.1746 0.1985 0.1237
C66 C 0.2295(5) 0.2634(6) 0.11420(5)
C67 C 0.2789(6) 0.3444(7) 0.11248(6)
H53 H 0.2732 0.3852 0.1152
C68 C 0.3407(6) 0.3712(7) 0.10666(6)
C69 C 0.3931(7) 0.4554(8) 0.10493(7)
H54 H 0.3877 0.4970 0.1075
C70 C 0.4523(7) 0.4784(9) 0.09951(7)
H55 H 0.4882 0.5356 0.0984
C71 C 0.4595(7) 0.4183(9) 0.09568(6)
H56 H 0.5000 0.4345 0.0919
C72 C 0.4092(6) 0.3357(8) 0.09725(5)
H57 H 0.4150 0.2954 0.0945
C73 C 0.3486(6) 0.3088(7) 0.10291(5)
C74 C 0.2946(6) 0.2256(7) 0.10460(5)
H58 H 0.2968 0.1839 0.1017
C75 C 0.2377(5) 0.2015(6) 0.11030(5)
N16 N 0.0996(5) 0.3691(6) 0.10671(5)
C76 C 0.1070(6) 0.3209(9) 0.10161(6)
C77 C 0.1718(9) 0.3608(13) 0.09636(6)
H59 H 0.1810 0.3311 0.0926
C78 C 0.2236(9) 0.4514(11) 0.09724(10)
H60 H 0.2729 0.4787 0.0944
C79 C 0.2077(16) 0.4984(14) 0.10170(11)
H61 H 0.2338 0.5573 0.1013
C80 C 0.1515(10) 0.4539(10) 0.10672(9)
H62 H 0.1464 0.4836 0.1108
N17 N -0.0002(4) 0.2048(4) 0.10822(4)
N18 N -0.0510(5) 0.1221(6) 0.10694(5)
C81 C -0.0329(7) 0.1031(10) 0.10005(7)
H63 H -0.0602 0.0500 0.0978
C82 C 0.0297(9) 0.1727(10) 0.09721(7)
H64 H 0.0558 0.1779 0.0926
C83 C 0.0490(7) 0.2343(8) 0.10211(5)
C84 C 0.1815(7) 0.1111(7) 0.11242(6)
H65 H 0.2034 0.1000 0.1170
H66 H 0.1254 0.1025 0.1135
N19 N -0.0974(5) 0.2954(5) 0.11038(4)
C85 C -0.1680(6) 0.2576(7) 0.11452(5)
C86 C -0.2426(6) 0.2478(7) 0.11224(5)
H67 H -0.2895 0.2242 0.1154
C87 C -0.2487(7) 0.2735(8) 0.10503(5)
H68 H -0.3004 0.2647 0.1032
C88 C -0.1761(7) 0.3125(7) 0.10071(5)
H69 H -0.1777 0.3333 0.0960
C89 C -0.1027(7) 0.3207(6) 0.10331(5)
H70 H -0.0550 0.3439 0.1002
N20 N -0.0857(4) 0.2336(5) 0.12346(3)
N21 N -0.0928(4) 0.2086(5) 0.13047(4)
C90 C -0.1675(6) 0.1899(7) 0.13322(5)
H71 H -0.1870 0.1699 0.1380
C91 C -0.2109(6) 0.2045(7) 0.12785(5)
H72 H -0.2652 0.1974 0.1282
C92 C -0.1574(5) 0.2318(6) 0.12190(5)
C93 C -0.0306(5) 0.1949(5) 0.13392(4)
H73 H 0.0099 0.2003 0.1301
H74 H -0.0583 0.1368 0.1357
C94 C 0.0176(5) 0.2524(5) 0.14030(4)
C95 C 0.0115(5) 0.3214(5) 0.14201(4)
H75 H -0.0239 0.3339 0.1392
C96 C 0.0575(5) 0.3744(5) 0.14797(4)
C97 C 0.0528(6) 0.4468(6) 0.14970(6)
H76 H 0.0203 0.4623 0.1468
C98 C 0.0960(7) 0.4941(7) 0.15569(6)
H77 H 0.0910 0.5410 0.1570
C99 C 0.1470(7) 0.4746(7) 0.15985(6)
H78 H 0.1777 0.5095 0.1639
C100 C 0.1533(7) 0.4062(7) 0.15826(6)
H79 H 0.1871 0.3926 0.1612
C101 C 0.1098(6) 0.3559(6) 0.15223(5)
C102 C 0.1136(5) 0.2834(5) 0.15027(5)
H80 H 0.1472 0.2688 0.1531
C103 C 0.0711(5) 0.2343(5) 0.14446(4)
C104 C 0.0791(5) 0.1599(5) 0.14222(4)
H81 H 0.0237 0.1090 0.1426
H82 H 0.0962 0.1662 0.1370
N22 N 0.0044(4) 0.1028(4) 0.16366(4)
C105 C -0.0450(5) 0.1313(5) 0.16126(4)
C106 C -0.0428(5) 0.2011(5) 0.16409(5)
H83 H -0.0779 0.2203 0.1622
C107 C 0.0119(6) 0.2431(6) 0.16985(5)
H84 H 0.0137 0.2904 0.1721
C108 C 0.0630(6) 0.2144(6) 0.17223(5)
H85 H 0.1018 0.2427 0.1761
C109 C 0.0584(6) 0.1450(6) 0.16911(5)
H86 H 0.0944 0.1261 0.1708
N23 N 0.1391(4) 0.1486(4) 0.14666(3)
N24 N 0.1136(4) 0.0903(4) 0.15205(3)
C110 C 0.1825(5) 0.0999(5) 0.15498(4)
C111 C 0.2528(5) 0.1641(5) 0.15174(5)
H87 H 0.3094 0.1833 0.1530
C112 C 0.2224(5) 0.1938(5) 0.14639(5)
H88 H 0.2545 0.2383 0.1431
C110A C -0.0999(5) 0.0826(7) 0.15498(4)
N24A N -0.0903(4) 0.0233(6) 0.15205(3)
N22A N -0.1028(4) -0.0984(6) 0.16366(4)
C105A C -0.1313(5) -0.1763(7) 0.16126(4)
C106A C -0.2011(5) -0.2439(7) 0.16409(5)
H83A H -0.2203 -0.2982 0.1622
C107A C -0.2431(6) -0.2312(8) 0.16985(5)
H84A H -0.2904 -0.2767 0.1721
C108A C -0.2144(6) -0.1514(8) 0.17223(5)
H85A H -0.2427 -0.1409 0.1761
C109A C -0.1450(6) -0.0866(8) 0.16911(5)
H86A H -0.1261 -0.0317 0.1708
C110B C -0.0826(7) -0.1825(5) 0.15498(4)
N24B N -0.0233(6) -0.1136(4) 0.15205(3)
N22B N 0.0984(6) -0.0044(4) 0.16366(4)
C105B C 0.1763(7) 0.0450(5) 0.16126(4)
C106B C 0.2439(7) 0.0428(5) 0.16409(5)
H83B H 0.2982 0.0779 0.1622
C107B C 0.2312(8) -0.0119(6) 0.16985(5)
H84B H 0.2767 -0.0137 0.1721
C108B C 0.1514(8) -0.0630(6) 0.17223(5)
H85B H 0.1409 -0.1018 0.1761
C109B C 0.0866(8) -0.0584(6) 0.16911(5)
H86B H 0.0317 -0.0944 0.1708
N23B N 0.0095(6) -0.1391(4) 0.14666(3)
C104B C 0.0808(7) -0.0791(5) 0.14222(4)
C103B C 0.1632(7) -0.0711(5) 0.14446(4)
C94B C 0.2348(7) -0.0176(5) 0.14030(4)
C93B C 0.2255(7) 0.0306(5) 0.13392(4)
N21B N 0.3014(6) 0.0928(4) 0.13047(4)
N20B N 0.3193(6) 0.0857(4) 0.12346(3)
Zn3B Zn 0.29511(10) -0.01156(7) 0.115253(5)
N13B N 0.3824(8) -0.0366(6) 0.12113(5)
C57B C 0.3488(9) -0.0974(7) 0.12624(5)
C58B C 0.3968(10) -0.1177(7) 0.13065(6)
H45B H 0.3719 -0.1608 0.1342
C59B C 0.4831(11) -0.0728(8) 0.12968(8)
H46B H 0.5177 -0.0861 0.1326
C60B C 0.5179(12) -0.0107(9) 0.12470(7)
H47B H 0.5766 0.0204 0.1240
C61B C 0.4647(11) 0.0061(8) 0.12058(7)
H48B H 0.4888 0.0510 0.1172
C64B C 0.2583(8) -0.1403(6) 0.12693(5)
N14B N 0.2165(7) -0.1153(5) 0.12242(4)
N16B N 0.2695(8) -0.0996(5) 0.10671(5)
C76B C 0.2139(11) -0.1070(6) 0.10161(6)
C77B C 0.1890(16) -0.1718(9) 0.09636(6)
H59B H 0.1501 -0.1810 0.0926
C78B C 0.2278(14) -0.2236(9) 0.09724(10)
H60B H 0.2058 -0.2729 0.0944
C79B C 0.2907(21) -0.2077(16) 0.10170(11)
H61B H 0.3235 -0.2338 0.1013
C80B C 0.3024(14) -0.1515(10) 0.10672(9)
H62B H 0.3372 -0.1464 0.1108
C83B C 0.1853(11) -0.0490(7) 0.10211(5)
N17B N 0.2050(6) 0.0002(4) 0.10822(4)
N19B N 0.3928(7) 0.0974(5) 0.11038(4)
C85B C 0.4256(9) 0.1680(6) 0.11452(5)
C86B C 0.4904(9) 0.2426(6) 0.11224(5)
H67B H 0.5137 0.2895 0.1154
C87B C 0.5222(11) 0.2487(7) 0.10503(5)
H68B H 0.5651 0.3004 0.1032
C88B C 0.4886(10) 0.1761(7) 0.10071(5)
H69B H 0.5110 0.1777 0.0960
C89B C 0.4234(9) 0.1027(7) 0.10331(5)
H70B H 0.3989 0.0550 0.1002
C92B C 0.3892(8) 0.1574(5) 0.12190(5)
C91B C 0.4154(9) 0.2109(6) 0.12785(5)
C90B C 0.3574(9) 0.1675(6) 0.13322(5)
H71B H 0.3569 0.1870 0.1380
H72B H 0.4626 0.2652 0.1282
N18B N 0.1731(8) 0.0510(5) 0.10694(5)
C81B C 0.1360(12) 0.0329(7) 0.10005(7)
H63B H 0.1102 0.0602 0.0978
C82B C 0.1430(13) -0.0297(9) 0.09721(7)
H64B H 0.1221 -0.0558 0.0926
N15B N 0.1345(7) -0.1665(5) 0.12430(5)
C62B C 0.1260(10) -0.2214(7) 0.12972(6)
H49B H 0.0757 -0.2628 0.1319
C63B C 0.2035(9) -0.2046(6) 0.13128(6)
H50B H 0.2179 -0.2329 0.1348
C65B C 0.0693(8) -0.1651(6) 0.12024(5)
H51B H 0.0909 -0.1092 0.1180
H52B H 0.0239 -0.1746 0.1237
C66B C 0.0339(8) -0.2295(5) 0.11420(5)
C67B C 0.0655(9) -0.2789(6) 0.11248(6)
H53B H 0.1120 -0.2732 0.1152
C68B C 0.0305(9) -0.3407(6) 0.10666(6)
C69B C 0.0623(11) -0.3931(7) 0.10493(7)
H54B H 0.1093 -0.3877 0.1075
C70B C 0.0261(11) -0.4523(7) 0.09951(7)
H55B H 0.0474 -0.4882 0.0984
C71B C -0.0412(11) -0.4595(7) 0.09568(6)
H56B H -0.0655 -0.5000 0.0919
C72B C -0.0735(10) -0.4092(6) 0.09725(5)
H57B H -0.1196 -0.4150 0.0945
C73B C -0.0398(9) -0.3486(6) 0.10291(5)
C74B C -0.0690(9) -0.2946(6) 0.10460(5)
H58B H -0.1129 -0.2968 0.1017
C75B C -0.0362(8) -0.2377(5) 0.11030(5)
C84B C -0.0704(10) -0.1815(7) 0.11242(6)
N18A N -0.1221(6) -0.1731(8) 0.10694(5)
N17A N -0.2048(4) -0.2050(6) 0.10822(4)
Zn3A Zn -0.30667(7) -0.29511(10) 0.115253(5)
N13A N -0.4190(5) -0.3824(8) 0.12113(5)
C57A C -0.4462(6) -0.3488(9) 0.12624(5)
C58A C -0.5145(7) -0.3968(10) 0.13065(6)
H45A H -0.5327 -0.3719 0.1342
C59A C -0.5559(8) -0.4831(11) 0.12968(8)
H46A H -0.6038 -0.5177 0.1326
C60A C -0.5286(8) -0.5179(12) 0.12470(7)
H47A H -0.5562 -0.5766 0.1240
C61A C -0.4586(8) -0.4647(11) 0.12058(7)
H48A H -0.4378 -0.4888 0.1172
C64A C -0.3986(6) -0.2583(8) 0.12693(5)
N14A N -0.3318(5) -0.2165(7) 0.12242(4)
N16A N -0.3691(6) -0.2695(8) 0.10671(5)
C76A C -0.3209(9) -0.2139(11) 0.10161(6)
C77A C -0.3608(13) -0.1890(16) 0.09636(6)
H59A H -0.3311 -0.1501 0.0926
C78A C -0.4514(11) -0.2278(14) 0.09724(10)
H60A H -0.4787 -0.2058 0.0944
C79A C -0.4984(14) -0.2907(21) 0.10170(11)
H61A H -0.5573 -0.3235 0.1013
C80A C -0.4539(10) -0.3024(14) 0.10672(9)
H62A H -0.4836 -0.3372 0.1108
C83A C -0.2343(8) -0.1853(11) 0.10211(5)
C82A C -0.1727(10) -0.1430(13) 0.09721(7)
C81A C -0.1031(10) -0.1360(12) 0.10005(7)
H63A H -0.0500 -0.1102 0.0978
H64A H -0.1779 -0.1221 0.0926
N19A N -0.2954(5) -0.3928(7) 0.11038(4)
C85A C -0.2576(7) -0.4256(9) 0.11452(5)
C86A C -0.2478(7) -0.4904(9) 0.11224(5)
H67A H -0.2242 -0.5137 0.1154
C87A C -0.2735(8) -0.5222(11) 0.10503(5)
H68A H -0.2647 -0.5651 0.1032
C88A C -0.3125(7) -0.4886(10) 0.10071(5)
H69A H -0.3333 -0.5110 0.0960
C89A C -0.3207(6) -0.4234(9) 0.10331(5)
H70A H -0.3439 -0.3989 0.1002
C92A C -0.2318(6) -0.3892(8) 0.12190(5)
N20A N -0.2336(5) -0.3193(6) 0.12346(3)
N21A N -0.2086(5) -0.3014(6) 0.13047(4)
C90A C -0.1899(7) -0.3574(9) 0.13322(5)
H71A H -0.1699 -0.3569 0.1380
C91A C -0.2045(7) -0.4154(9) 0.12785(5)
H72A H -0.1974 -0.4626 0.1282
C93A C -0.1949(5) -0.2255(7) 0.13392(4)
H73A H -0.2003 -0.1904 0.1301
H74A H -0.1368 -0.1951 0.1357
C94A C -0.2524(5) -0.2348(7) 0.14030(4)
C95A C -0.3214(5) -0.3099(7) 0.14201(4)
H75A H -0.3339 -0.3578 0.1392
C96A C -0.3744(5) -0.3169(7) 0.14797(4)
C97A C -0.4468(6) -0.3940(8) 0.14970(6)
H76A H -0.4623 -0.4420 0.1468
C98A C -0.4941(7) -0.3981(10) 0.15569(6)
H77A H -0.5410 -0.4500 0.1570
C99A C -0.4746(7) -0.3276(10) 0.15985(6)
H78A H -0.5095 -0.3318 0.1639
C100A C -0.4062(7) -0.2529(10) 0.15826(6)
H79A H -0.3926 -0.2055 0.1612
C101A C -0.3559(6) -0.2461(8) 0.15223(5)
C102A C -0.2834(5) -0.1698(7) 0.15027(5)
H80A H -0.2688 -0.1216 0.1531
C103A C -0.2343(5) -0.1632(7) 0.14446(4)
C104A C -0.1599(5) -0.0808(7) 0.14222(4)
H81A H -0.1090 -0.0853 0.1426
H82A H -0.1662 -0.0700 0.1370
N23A N -0.1486(4) -0.0095(6) 0.14666(3)
C112A C -0.1938(5) 0.0286(7) 0.14639(5)
C111A C -0.1641(5) 0.0887(7) 0.15174(5)
H87A H -0.1833 0.1261 0.1530
H88A H -0.2383 0.0162 0.1431
N15A N -0.3010(5) -0.1345(7) 0.12430(5)
C62A C -0.3474(7) -0.1260(10) 0.12972(6)
H49A H -0.3385 -0.0757 0.1319
C63A C -0.4081(7) -0.2035(9) 0.13128(6)
H50A H -0.4508 -0.2179 0.1348
C65A C -0.2344(6) -0.0693(8) 0.12024(5)
H51A H -0.2001 -0.0909 0.1180
H52A H -0.1985 -0.0239 0.1237
C66A C -0.2634(6) -0.0339(8) 0.11420(5)
C67A C -0.3444(7) -0.0655(9) 0.11248(6)
H53A H -0.3852 -0.1120 0.1152
C68A C -0.3712(7) -0.0305(9) 0.10666(6)
C69A C -0.4554(8) -0.0623(11) 0.10493(7)
H54A H -0.4970 -0.1093 0.1075
C70A C -0.4784(9) -0.0261(11) 0.09951(7)
H55A H -0.5356 -0.0474 0.0984
C71A C -0.4183(9) 0.0412(11) 0.09568(6)
H56A H -0.4345 0.0655 0.0919
C72A C -0.3357(8) 0.0735(10) 0.09725(5)
H57A H -0.2954 0.1196 0.0945
C73A C -0.3088(7) 0.0398(9) 0.10291(5)
C74A C -0.2256(7) 0.0690(9) 0.10460(5)
H58A H -0.1839 0.1129 0.1017
C75A C -0.2015(6) 0.0362(8) 0.11030(5)
C84A C -0.1111(7) 0.0704(10) 0.11242(6)
H65A H -0.1000 0.1034 0.1170
H66A H -0.1025 0.0229 0.1135
H65B H -0.1034 -0.2034 0.1170
H66B H -0.0229 -0.1254 0.1135
H73B H 0.1904 -0.0099 0.1301
H74B H 0.1951 0.0583 0.1357
C95B C 0.3099(7) -0.0115(5) 0.14201(4)
H75B H 0.3578 0.0239 0.1392
C96B C 0.3169(7) -0.0575(5) 0.14797(4)
C97B C 0.3940(8) -0.0528(6) 0.14970(6)
H76B H 0.4420 -0.0203 0.1468
C98B C 0.3981(10) -0.0960(7) 0.15569(6)
H77B H 0.4500 -0.0910 0.1570
C99B C 0.3276(10) -0.1470(7) 0.15985(6)
H78B H 0.3318 -0.1777 0.1639
C100B C 0.2529(10) -0.1533(7) 0.15826(6)
H79B H 0.2055 -0.1871 0.1612
C101B C 0.2461(8) -0.1098(6) 0.15223(5)
C102B C 0.1698(7) -0.1136(5) 0.15027(5)
H80B H 0.1216 -0.1472 0.1531
H81B H 0.0853 -0.0237 0.1426
H82B H 0.0700 -0.0962 0.1370
C112B C -0.0286(7) -0.2224(5) 0.14639(5)
C111B C -0.0887(7) -0.2528(5) 0.15174(5)
H87B H -0.1261 -0.3094 0.1530
H88B H -0.0162 -0.2545 0.1431
B1 B 0.8855(13) 0.3358(11) 0.02945(8)
F1 F 0.8998(7) 0.3262(7) 0.02211(5)
F2 F 0.8685(9) 0.3932(7) 0.03032(6)
F3 F 0.8126(9) 0.2620(7) 0.03118(7)
F4 F 0.9399(7) 0.3395(9) 0.03364(5)
B2 B 0.9461(8) 0.5780(8) 0.14282(7)
F5 F 0.9292(4) 0.5007(4) 0.14073(4)
F6 F 1.0127(4) 0.6106(4) 0.14766(4)
F7 F 0.8774(4) 0.5758(4) 0.14601(3)
F8 F 0.9702(4) 0.6315(3) 0.13665(3)
B3 B 0.2139(7) 0.1769(7) 0.08398(5)
F9 F 0.1341(3) 0.1231(4) 0.08623(3)
F10 F 0.2177(4) 0.1654(4) 0.07644(3)
F11 F 0.2281(5) 0.2583(4) 0.08478(4)
F12 F 0.2712(4) 0.1662(4) 0.08759(3)
B4 B 1.0000 0.0000 0.12606(9)
F13 F 0.9477(3) 0.0280(3) 0.12859(2)
F14 F 1.0000 0.0000 0.11838(4)
F13A F 0.9720(3) -0.0803(4) 0.12859(2)
F13B F 1.0803(4) 0.0523(3) 0.12859(2)
B5 B 0.3333 0.6667 0.04465(9)
F15 F 0.3333 0.6667 0.05238(4)
F16 F 0.3870(3) 0.6398(3) 0.04223(3)
F16A F 0.3602(3) 0.7472(4) 0.04223(3)
F16B F 0.2528(4) 0.6130(3) 0.04223(3)
B6 B 0.0000 0.0000 0.03185(9)
F17 F 0.0199(3) 0.0787(3) 0.03430(3)
F18 F 0.0000 0.0000 0.02406(5)
F17A F -0.0787(3) -0.0588(4) 0.03430(3)
F17B F 0.0588(4) -0.0199(3) 0.03430(3)
B7 B 0.6667 0.3333 0.08673(10)
F19 F 0.6667 0.3333 0.07920(4)
F20 F 0.6629(3) 0.2612(3) 0.08919(3)
F20A F 0.7388(3) 0.4017(4) 0.08919(3)
F20B F 0.5983(4) 0.3371(3) 0.08919(3)
B8 B 0.3333 0.6667 0.13617(18)
F21 F 0.3333 0.6667 0.12869(14)
F22 F 0.3200(10) 0.5924(9) 0.13839(9)
F22A F 0.4076(9) 0.7276(13) 0.13839(9)
F22B F 0.2724(13) 0.6800(10) 0.13839(9)
B9 B 0.3333 0.6667 0.09014(13)
F23 F 0.3333 0.6667 0.09772(5)
F24 F 0.3804(4) 0.6334(4) 0.08760(3)
F24A F 0.3666(4) 0.7470(6) 0.08760(3)
F24B F 0.2530(6) 0.6196(4) 0.08760(3)
B10 B -0.3333 0.3333 0.12619(18)
F26 F -0.3697(6) 0.2508(5) 0.12489(6)
F27 F -0.3333 0.3333 0.11806(16)
F26A F -0.2508(5) 0.3795(8) 0.12489(6)
F26B F -0.3795(8) 0.3697(6) 0.12489(6)
O1 O 0.6667 0.3333 0.0175(2)
O2 O 0.3895(17) 0.7393(17) 0.11709(11)
O3 O 0.6667 0.3333 0.0299(2)
O4 O 0.6667 0.3333 0.06358(9)
N25 N 0.9552(19) 0.5108(13) 0.0068(2)
C113 C 0.896(3) 0.506(2) 0.01343(14)
C114 C 0.8742(11) 0.5554(19) 0.02039(12)
N26 N 0.9972(7) 0.2393(7) 0.00951(6)
C115 C 0.9849(7) 0.2192(6) 0.01553(6)
C116 C 0.9661(8) 0.1924(8) 0.02336(6)
N27 N 0.0000 0.0000 0.05850(8)
C117 C 0.0000 0.0000 0.06484(9)
C118 C 0.0000 0.0000 0.07293(8)
N28 N 0.7203(7) 0.5656(7) 0.15502(7)
C119 C 0.7012(8) 0.5181(10) 0.15001(10)
C120 C 0.6758(9) 0.4553(8) 0.14391(8)
N29 N 0.7489(7) 0.5857(7) 0.05311(6)
C121 C 0.7178(10) 0.5171(11) 0.05072(8)
C122 C 0.6691(12) 0.4417(11) 0.04778(13)
F25? F -0.3333 0.3333 0.1336(2)
N30? N 0.3333 0.6667 0.1667
C123? C 0.3333 0.6667 0.1613(4)
C124? C 0.3333 0.6667 0.1506(5)
loop_
_geom_bond_atom_site_label_1
_geom_bond_atom_site_label_2
_geom_bond_site_symmetry_1
_geom_bond_site_symmetry_2
Zn1 N1 1_555 1_555
Zn2 N10 1_555 1_555
Zn3 N13 1_555 1_555
Zn4 N22 1_555 1_555
B1 F1 1_555 1_555
F2 B1 1_555 1_555
F3 B1 1_555 1_555
F4 B1 1_555 1_555
B2 F5 1_555 1_555
F6 B2 1_555 1_555
F7 B2 1_555 1_555
F8 B2 1_555 1_555
B3 F9 1_555 1_555
F10 B3 1_555 1_555
F11 B3 1_555 1_555
F12 B3 1_555 1_555
B4 F13 1_555 1_555
F14 B4 1_555 1_555
B5 F15 1_555 1_555
F16 B5 1_555 1_555
B6 F17 1_555 1_555
F18 B6 1_555 1_555
B7 F19 1_555 1_555
F20 B7 1_555 1_555
B8 F21 1_555 1_555
F22 B8 1_555 1_555
B9 F23 1_555 1_555
F24 B9 1_555 1_555
B10 F26 1_555 1_555
F27 B10 1_555 1_555
N1 C1 1_555 1_555
C1 C2 1_555 1_555
C2 H1 1_555 1_555
C3 C2 1_555 1_555
H2 C3 1_555 1_555
C4 C3 1_555 1_555
H3 C4 1_555 1_555
C5 N1 1_555 1_555
H4 C5 1_555 1_555
N2 Zn1 1_555 1_555
N3 N2 1_555 1_555
C6 N3 1_555 1_555
H5 C6 1_555 1_555
C7 C6 1_555 1_555
H6 C7 1_555 1_555
C8 C1 1_555 1_555
C9 N3 1_555 1_555
H7 C9 1_555 1_555
H8 C9 1_555 1_555
C10 C9 1_555 1_555
C11 C10 1_555 1_555
H9 C11 1_555 1_555
C12 C11 1_555 1_555
C13 C12 1_555 1_555
H10 C13 1_555 1_555
C14 C13 1_555 1_555
H11 C14 1_555 1_555
C15 C14 1_555 1_555
H12 C15 1_555 1_555
C16 C15 1_555 1_555
H13 C16 1_555 1_555
C17 C12 1_555 1_555
C18 C17 1_555 1_555
H14 C18 1_555 1_555
C19 C10 1_555 1_555
C20 C19 1_555 1_555
H15 C20 1_555 1_555
H16 C20 1_555 1_555
N4 Zn1 1_555 1_555
C21 N4 1_555 1_555
C22 C21 1_555 1_555
H17 C22 1_555 1_555
C23 C22 1_555 1_555
H18 C23 1_555 1_555
C24 C23 1_555 1_555
H19 C24 1_555 1_555
C25 N4 1_555 1_555
H20 C25 1_555 1_555
N5 Zn1 1_555 1_555
C26 C21 1_555 1_555
C27 C26 1_555 1_555
H21 C27 1_555 1_555
C28 C27 1_555 1_555
H22 C28 1_555 1_555
N6 N5 1_555 1_555
C29 N6 1_555 1_555
H23 C29 1_555 1_555
H24 C29 1_555 1_555
N7 Zn1 1_555 1_555
C30 N7 1_555 1_555
C31 C30 1_555 1_555
H25 C31 1_555 1_555
C32 C31 1_555 1_555
H26 C32 1_555 1_555
C33 C32 1_555 1_555
H27 C33 1_555 1_555
C34 N7 1_555 1_555
H28 C34 1_555 1_555
N8 Zn1 1_555 1_555
N9 N8 1_555 1_555
C35 N9 1_555 1_555
H29 C35 1_555 1_555
C36 C35 1_555 1_555
H30 C36 1_555 1_555
C37 C30 1_555 1_555
C38 N9 1_555 1_555
H31 C38 1_555 1_555
H32 C38 1_555 1_555
C39 C38 1_555 1_555
C40 C39 1_555 1_555
H33 C40 1_555 1_555
C41 C40 1_555 1_555
C42 C41 1_555 1_555
H34 C42 1_555 1_555
C43 C42 1_555 1_555
H35 C43 1_555 1_555
C44 C43 1_555 1_555
H36 C44 1_555 1_555
C45 C44 1_555 1_555
H37 C45 1_555 1_555
C46 C41 1_555 1_555
C47 C46 1_555 1_555
H38 C47 1_555 1_555
C48 C29 1_555 1_555
N10 C49 1_555 1_555
C49 H39 1_555 1_555
C50 C49 1_555 1_555
H40 C50 1_555 1_555
C51 C50 1_555 1_555
H41 C51 1_555 1_555
C52 C51 1_555 1_555
H42 C52 1_555 1_555
C53 N10 1_555 1_555
N11 Zn2 1_555 1_555
N12 C20 1_555 1_555
C54 N12 1_555 1_555
H43 C54 1_555 1_555
C55 C54 1_555 1_555
H44 C55 1_555 1_555
C56 N11 1_555 1_555
N13 C57 1_555 1_555
C57 C58 1_555 1_555
C58 H45 1_555 1_555
C59 C58 1_555 1_555
H46 C59 1_555 1_555
C60 C59 1_555 1_555
H47 C60 1_555 1_555
C61 N13 1_555 1_555
H48 C61 1_555 1_555
N14 Zn3 1_555 1_555
N15 N14 1_555 1_555
C62 N15 1_555 1_555
H49 C62 1_555 1_555
C63 C62 1_555 1_555
H50 C63 1_555 1_555
C64 C57 1_555 1_555
C65 N15 1_555 1_555
H51 C65 1_555 1_555
H52 C65 1_555 1_555
C66 C65 1_555 1_555
C67 C66 1_555 1_555
H53 C67 1_555 1_555
C68 C67 1_555 1_555
C69 C68 1_555 1_555
H54 C69 1_555 1_555
C70 C69 1_555 1_555
H55 C70 1_555 1_555
C71 C70 1_555 1_555
H56 C71 1_555 1_555
C72 C71 1_555 1_555
H57 C72 1_555 1_555
C73 C68 1_555 1_555
C74 C73 1_555 1_555
H58 C74 1_555 1_555
C75 C66 1_555 1_555
N16 Zn3 1_555 1_555
C76 N16 1_555 1_555
C77 C76 1_555 1_555
H59 C77 1_555 1_555
C78 C77 1_555 1_555
H60 C78 1_555 1_555
C79 C78 1_555 1_555
H61 C79 1_555 1_555
C80 N16 1_555 1_555
H62 C80 1_555 1_555
N17 Zn3 1_555 1_555
N18 N17 1_555 1_555
C81 N18 1_555 1_555
H63 C81 1_555 1_555
C82 C81 1_555 1_555
H64 C82 1_555 1_555
C83 C76 1_555 1_555
C84 C75 1_555 1_555
H65 C84 1_555 1_555
H66 C84 1_555 1_555
N19 Zn3 1_555 1_555
C85 N19 1_555 1_555
C86 C85 1_555 1_555
H67 C86 1_555 1_555
C87 C86 1_555 1_555
H68 C87 1_555 1_555
C88 C87 1_555 1_555
H69 C88 1_555 1_555
C89 N19 1_555 1_555
H70 C89 1_555 1_555
N20 Zn3 1_555 1_555
N21 N20 1_555 1_555
C90 N21 1_555 1_555
H71 C90 1_555 1_555
C91 C90 1_555 1_555
H72 C91 1_555 1_555
C92 C85 1_555 1_555
C93 N21 1_555 1_555
H73 C93 1_555 1_555
H74 C93 1_555 1_555
C94 C93 1_555 1_555
C95 C94 1_555 1_555
H75 C95 1_555 1_555
C96 C95 1_555 1_555
C97 C96 1_555 1_555
H76 C97 1_555 1_555
C98 C97 1_555 1_555
H77 C98 1_555 1_555
C99 C98 1_555 1_555
H78 C99 1_555 1_555
C100 C99 1_555 1_555
H79 C100 1_555 1_555
C101 C96 1_555 1_555
C102 C101 1_555 1_555
H80 C102 1_555 1_555
C103 C94 1_555 1_555
C104 C103 1_555 1_555
H81 C104 1_555 1_555
H82 C104 1_555 1_555
N22 C105 1_555 1_555
C105 C106 1_555 1_555
C106 H83 1_555 1_555
C107 C106 1_555 1_555
H84 C107 1_555 1_555
C108 C107 1_555 1_555
H85 C108 1_555 1_555
C109 N22 1_555 1_555
H86 C109 1_555 1_555
N23 C104 1_555 1_555
N24 Zn4 1_555 1_555
C110 N24 1_555 1_555
C111 C110 1_555 1_555
H87 C111 1_555 1_555
C112 N23 1_555 1_555
H88 C112 1_555 1_555
N25 C113 1_555 1_555
C113 C114 1_555 1_555
N26 C115 1_555 1_555
C115 C116 1_555 1_555
N27 C117 1_555 1_555
C117 C118 1_555 1_555
N28 C119 1_555 1_555
C119 C120 1_555 1_555
N29 C121 1_555 1_555
C121 C122 1_555 1_555
C48A C39 1_555 1_555
C29A C48A 1_555 1_555
N6A C29A 1_555 1_555
N5A N6A 1_555 1_555
Zn1A N5A 1_555 1_555
N1A Zn1A 1_555 1_555
C1A N1A 1_555 1_555
C2A C1A 1_555 1_555
H1A C2A 1_555 1_555
C3A C2A 1_555 1_555
H2A C3A 1_555 1_555
C4A C3A 1_555 1_555
H3A C4A 1_555 1_555
C5A N1A 1_555 1_555
H4A C5A 1_555 1_555
C8A C1A 1_555 1_555
N2A Zn1A 1_555 1_555
N4A Zn1A 1_555 1_555
C21A N4A 1_555 1_555
C22A C21A 1_555 1_555
H17A C22A 1_555 1_555
C23A C22A 1_555 1_555
H18A C23A 1_555 1_555
C24A C23A 1_555 1_555
H19A C24A 1_555 1_555
C25A N4A 1_555 1_555
H20A C25A 1_555 1_555
C26A N5A 1_555 1_555
C27A C26A 1_555 1_555
H21A C27A 1_555 1_555
C28A N6A 1_555 1_555
H22A C28A 1_555 1_555
N7A Zn1A 1_555 1_555
C30A N7A 1_555 1_555
C31A C30A 1_555 1_555
H25A C31A 1_555 1_555
C32A C31A 1_555 1_555
H26A C32A 1_555 1_555
C33A C32A 1_555 1_555
H27A C33A 1_555 1_555
C34A N7A 1_555 1_555
H28A C34A 1_555 1_555
C37A C30A 1_555 1_555
N8A Zn1A 1_555 1_555
N9A N8A 1_555 1_555
C35A N9A 1_555 1_555
H29A C35A 1_555 1_555
C36A C37A 1_555 1_555
H30A C36A 1_555 1_555
C38A N9A 1_555 1_555
H31A C38A 1_555 1_555
H32A C38A 1_555 1_555
C39A C38A 1_555 1_555
C40A C39A 1_555 1_555
H33A C40A 1_555 1_555
C41A C40A 1_555 1_555
C42A C41A 1_555 1_555
H34A C42A 1_555 1_555
C43A C42A 1_555 1_555
H35A C43A 1_555 1_555
C44A C43A 1_555 1_555
H36A C44A 1_555 1_555
C45A C44A 1_555 1_555
H37A C45A 1_555 1_555
C46A C41A 1_555 1_555
C47A C46A 1_555 1_555
H38A C47A 1_555 1_555
C48B C39A 1_555 1_555
C29B C48B 1_555 1_555
N6B C29B 1_555 1_555
N5B N6B 1_555 1_555
Zn1B N5B 1_555 1_555
N1B Zn1B 1_555 1_555
C1B N1B 1_555 1_555
C2B C1B 1_555 1_555
H1B C2B 1_555 1_555
C3B C2B 1_555 1_555
H2B C3B 1_555 1_555
C4B C3B 1_555 1_555
H3B C4B 1_555 1_555
C5B N1B 1_555 1_555
H4B C5B 1_555 1_555
C8B C1B 1_555 1_555
N2B Zn1B 1_555 1_555
N4B Zn1B 1_555 1_555
C21B N4B 1_555 1_555
C22B C21B 1_555 1_555
H17B C22B 1_555 1_555
C23B C22B 1_555 1_555
H18B C23B 1_555 1_555
C24B C23B 1_555 1_555
H19B C24B 1_555 1_555
C25B N4B 1_555 1_555
H20B C25B 1_555 1_555
C26B N5B 1_555 1_555
C27B C26B 1_555 1_555
H21B C27B 1_555 1_555
C28B N6B 1_555 1_555
H22B C28B 1_555 1_555
N7B Zn1B 1_555 1_555
C30B N7B 1_555 1_555
C31B C30B 1_555 1_555
H25B C31B 1_555 1_555
C32B C31B 1_555 1_555
H26B C32B 1_555 1_555
C33B C32B 1_555 1_555
H27B C33B 1_555 1_555
C34B N7B 1_555 1_555
H28B C34B 1_555 1_555
C37B C30B 1_555 1_555
N8B Zn1B 1_555 1_555
N9B N8B 1_555 1_555
C35B N9B 1_555 1_555
H29B C35B 1_555 1_555
C36B C37B 1_555 1_555
H30B C36B 1_555 1_555
C38B N9B 1_555 1_555
H31B C38B 1_555 1_555
H32B C38B 1_555 1_555
C39B C48 1_555 1_555
C40B C39B 1_555 1_555
H33B C40B 1_555 1_555
C41B C40B 1_555 1_555
C42B C41B 1_555 1_555
H34B C42B 1_555 1_555
C43B C42B 1_555 1_555
H35B C43B 1_555 1_555
C44B C43B 1_555 1_555
H36B C44B 1_555 1_555
C45B C44B 1_555 1_555
H37B C45B 1_555 1_555
C46B C41B 1_555 1_555
C47B C48 1_555 1_555
H38B C47B 1_555 1_555
N3B N2B 1_555 1_555
C6B N3B 1_555 1_555
H5B C6B 1_555 1_555
C7B C8B 1_555 1_555
H6B C7B 1_555 1_555
C9B N3B 1_555 1_555
H7B C9B 1_555 1_555
H8B C9B 1_555 1_555
C10B C9B 1_555 1_555
C11B C10B 1_555 1_555
H9B C11B 1_555 1_555
C12B C11B 1_555 1_555
C13B C12B 1_555 1_555
H10B C13B 1_555 1_555
C14B C13B 1_555 1_555
H11B C14B 1_555 1_555
C15B C14B 1_555 1_555
H12B C15B 1_555 1_555
C16B C15B 1_555 1_555
H13B C16B 1_555 1_555
C17B C12B 1_555 1_555
C18B C17B 1_555 1_555
H14B C18B 1_555 1_555
C19B C10B 1_555 1_555
C20B C19B 1_555 1_555
H15B C20B 1_555 1_555
H16B C20B 1_555 1_555
N12B C20B 1_555 1_555
N11B Zn2 1_555 1_555
C56A C53 1_555 1_555
N11A Zn2 1_555 1_555
N10A Zn2 1_555 1_555
C49A N10A 1_555 1_555
H39A C49A 1_555 1_555
C50A C49A 1_555 1_555
H40A C50A 1_555 1_555
C51A C50A 1_555 1_555
H41A C51A 1_555 1_555
C52A C51A 1_555 1_555
H42A C52A 1_555 1_555
C53A N10A 1_555 1_555
C56B N11B 1_555 1_555
C55B C56B 1_555 1_555
C54B N12B 1_555 1_555
H43B C54B 1_555 1_555
H44B C55B 1_555 1_555
N10B Zn2 1_555 1_555
C49B N10B 1_555 1_555
H39B C49B 1_555 1_555
C50B C49B 1_555 1_555
H40B C50B 1_555 1_555
C51B C50B 1_555 1_555
H41B C51B 1_555 1_555
C52B C51B 1_555 1_555
H42B C52B 1_555 1_555
C53B C56 1_555 1_555
N12A N11A 1_555 1_555
C20A N12A 1_555 1_555
C19A C20A 1_555 1_555
C10A C19A 1_555 1_555
C9A C10A 1_555 1_555
N3A N2A 1_555 1_555
C6A N3A 1_555 1_555
H5A C6A 1_555 1_555
C7A C8A 1_555 1_555
H6A C7A 1_555 1_555
H7A C9A 1_555 1_555
H8A C9A 1_555 1_555
C11A C10A 1_555 1_555
H9A C11A 1_555 1_555
C12A C11A 1_555 1_555
C13A C12A 1_555 1_555
H10A C13A 1_555 1_555
C14A C13A 1_555 1_555
H11A C14A 1_555 1_555
C15A C14A 1_555 1_555
H12A C15A 1_555 1_555
C16A C15A 1_555 1_555
H13A C16A 1_555 1_555
C17A C12A 1_555 1_555
C18A C19A 1_555 1_555
H14A C18A 1_555 1_555
H15A C20A 1_555 1_555
H16A C20A 1_555 1_555
C54A N12A 1_555 1_555
H43A C54A 1_555 1_555
C55A C56A 1_555 1_555
H44A C55A 1_555 1_555
H23B C29B 1_555 1_555
H24B C29B 1_555 1_555
H23A C29A 1_555 1_555
H24A C29A 1_555 1_555
C110A C105 1_555 1_555
N24A Zn4 1_555 1_555
N22A Zn4 1_555 1_555
C105A N22A 1_555 1_555
C106A C105A 1_555 1_555
H83A C106A 1_555 1_555
C107A C106A 1_555 1_555
H84A C107A 1_555 1_555
C108A C107A 1_555 1_555
H85A C108A 1_555 1_555
C109A N22A 1_555 1_555
H86A C109A 1_555 1_555
C110B C105A 1_555 1_555
N24B Zn4 1_555 1_555
N22B Zn4 1_555 1_555
C105B C110 1_555 1_555
C106B C105B 1_555 1_555
H83B C106B 1_555 1_555
C107B C106B 1_555 1_555
H84B C107B 1_555 1_555
C108B C107B 1_555 1_555
H85B C108B 1_555 1_555
C109B N22B 1_555 1_555
H86B C109B 1_555 1_555
N23B N24B 1_555 1_555
C104B N23B 1_555 1_555
C103B C104B 1_555 1_555
C94B C103B 1_555 1_555
C93B C94B 1_555 1_555
N21B C93B 1_555 1_555
N20B N21B 1_555 1_555
Zn3B N20B 1_555 1_555
N13B Zn3B 1_555 1_555
C57B N13B 1_555 1_555
C58B C57B 1_555 1_555
H45B C58B 1_555 1_555
C59B C58B 1_555 1_555
H46B C59B 1_555 1_555
C60B C59B 1_555 1_555
H47B C60B 1_555 1_555
C61B N13B 1_555 1_555
H48B C61B 1_555 1_555
C64B C57B 1_555 1_555
N14B Zn3B 1_555 1_555
N16B Zn3B 1_555 1_555
C76B N16B 1_555 1_555
C77B C76B 1_555 1_555
H59B C77B 1_555 1_555
C78B C77B 1_555 1_555
H60B C78B 1_555 1_555
C79B C78B 1_555 1_555
H61B C79B 1_555 1_555
C80B N16B 1_555 1_555
H62B C80B 1_555 1_555
C83B C76B 1_555 1_555
N17B Zn3B 1_555 1_555
N19B Zn3B 1_555 1_555
C85B N19B 1_555 1_555
C86B C85B 1_555 1_555
H67B C86B 1_555 1_555
C87B C86B 1_555 1_555
H68B C87B 1_555 1_555
C88B C87B 1_555 1_555
H69B C88B 1_555 1_555
C89B N19B 1_555 1_555
H70B C89B 1_555 1_555
C92B N20B 1_555 1_555
C91B C92B 1_555 1_555
C90B N21B 1_555 1_555
H71B C90B 1_555 1_555
H72B C91B 1_555 1_555
N18B C84 1_555 1_555
C81B N18B 1_555 1_555
H63B C81B 1_555 1_555
C82B C83B 1_555 1_555
H64B C82B 1_555 1_555
N15B N14B 1_555 1_555
C62B N15B 1_555 1_555
H49B C62B 1_555 1_555
C63B C64B 1_555 1_555
H50B C63B 1_555 1_555
C65B N15B 1_555 1_555
H51B C65B 1_555 1_555
H52B C65B 1_555 1_555
C66B C65B 1_555 1_555
C67B C66B 1_555 1_555
H53B C67B 1_555 1_555
C68B C67B 1_555 1_555
C69B C68B 1_555 1_555
H54B C69B 1_555 1_555
C70B C69B 1_555 1_555
H55B C70B 1_555 1_555
C71B C70B 1_555 1_555
H56B C71B 1_555 1_555
C72B C71B 1_555 1_555
H57B C72B 1_555 1_555
C73B C68B 1_555 1_555
C74B C73B 1_555 1_555
H58B C74B 1_555 1_555
C75B C66B 1_555 1_555
C84B C75B 1_555 1_555
N18A C84B 1_555 1_555
N17A N18A 1_555 1_555
Zn3A N17A 1_555 1_555
N13A Zn3A 1_555 1_555
C57A N13A 1_555 1_555
C58A C57A 1_555 1_555
H45A C58A 1_555 1_555
C59A C58A 1_555 1_555
H46A C59A 1_555 1_555
C60A C59A 1_555 1_555
H47A C60A 1_555 1_555
C61A N13A 1_555 1_555
H48A C61A 1_555 1_555
C64A C57A 1_555 1_555
N14A Zn3A 1_555 1_555
N16A Zn3A 1_555 1_555
C76A N16A 1_555 1_555
C77A C76A 1_555 1_555
H59A C77A 1_555 1_555
C78A C77A 1_555 1_555
H60A C78A 1_555 1_555
C79A C78A 1_555 1_555
H61A C79A 1_555 1_555
C80A N16A 1_555 1_555
H62A C80A 1_555 1_555
C83A N17A 1_555 1_555
C82A C83A 1_555 1_555
C81A N18A 1_555 1_555
H63A C81A 1_555 1_555
H64A C82A 1_555 1_555
N19A Zn3A 1_555 1_555
C85A N19A 1_555 1_555
C86A C85A 1_555 1_555
H67A C86A 1_555 1_555
C87A C86A 1_555 1_555
H68A C87A 1_555 1_555
C88A C87A 1_555 1_555
H69A C88A 1_555 1_555
C89A N19A 1_555 1_555
H70A C89A 1_555 1_555
C92A C85A 1_555 1_555
N20A Zn3A 1_555 1_555
N21A N20A 1_555 1_555
C90A N21A 1_555 1_555
H71A C90A 1_555 1_555
C91A C92A 1_555 1_555
H72A C91A 1_555 1_555
C93A N21A 1_555 1_555
H73A C93A 1_555 1_555
H74A C93A 1_555 1_555
C94A C93A 1_555 1_555
C95A C94A 1_555 1_555
H75A C95A 1_555 1_555
C96A C95A 1_555 1_555
C97A C96A 1_555 1_555
H76A C97A 1_555 1_555
C98A C97A 1_555 1_555
H77A C98A 1_555 1_555
C99A C98A 1_555 1_555
H78A C99A 1_555 1_555
C100A C99A 1_555 1_555
H79A C100A 1_555 1_555
C101A C96A 1_555 1_555
C102A C101A 1_555 1_555
H80A C102A 1_555 1_555
C103A C94A 1_555 1_555
C104A C103A 1_555 1_555
H81A C104A 1_555 1_555
H82A C104A 1_555 1_555
N23A N24A 1_555 1_555
C112A N23A 1_555 1_555
C111A C110A 1_555 1_555
H87A C111A 1_555 1_555
H88A C112A 1_555 1_555
N15A N14A 1_555 1_555
C62A N15A 1_555 1_555
H49A C62A 1_555 1_555
C63A C64A 1_555 1_555
H50A C63A 1_555 1_555
C65A N15A 1_555 1_555
H51A C65A 1_555 1_555
H52A C65A 1_555 1_555
C66A C65A 1_555 1_555
C67A C66A 1_555 1_555
H53A C67A 1_555 1_555
C68A C67A 1_555 1_555
C69A C68A 1_555 1_555
H54A C69A 1_555 1_555
C70A C69A 1_555 1_555
H55A C70A 1_555 1_555
C71A C70A 1_555 1_555
H56A C71A 1_555 1_555
C72A C71A 1_555 1_555
H57A C72A 1_555 1_555
C73A C68A 1_555 1_555
C74A C73A 1_555 1_555
H58A C74A 1_555 1_555
C75A C66A 1_555 1_555
C84A N18 1_555 1_555
H65A C84A 1_555 1_555
H66A C84A 1_555 1_555
H65B C84B 1_555 1_555
H66B C84B 1_555 1_555
H73B C93B 1_555 1_555
H74B C93B 1_555 1_555
C95B C94B 1_555 1_555
H75B C95B 1_555 1_555
C96B C95B 1_555 1_555
C97B C96B 1_555 1_555
H76B C97B 1_555 1_555
C98B C97B 1_555 1_555
H77B C98B 1_555 1_555
C99B C98B 1_555 1_555
H78B C99B 1_555 1_555
C100B C99B 1_555 1_555
H79B C100B 1_555 1_555
C101B C96B 1_555 1_555
C102B C103B 1_555 1_555
H80B C102B 1_555 1_555
H81B C104B 1_555 1_555
H82B C104B 1_555 1_555
C112B N23B 1_555 1_555
C111B C110B 1_555 1_555
H87B C111B 1_555 1_555
H88B C112B 1_555 1_555
F13A B4 1_555 1_555
F13B B4 1_555 1_555
F16A B5 1_555 1_555
F16B B5 1_555 1_555
F17A B6 1_555 1_555
F17B B6 1_555 1_555
F20A B7 1_555 1_555
F20B B7 1_555 1_555
F22A B8 1_555 1_555
F22B B8 1_555 1_555
F24A B9 1_555 1_555
F24B B9 1_555 1_555
F26A B10 1_555 1_555
F26B B10 1_555 1_555
C4 C5 1_555 1_555
N2 C8 1_555 1_555
C7 C8 1_555 1_555
C16 C17 1_555 1_555
C18 C19 1_555 1_555
C24 C25 1_555 1_555
N5 C26 1_555 1_555
C28 N6 1_555 1_555
C33 C34 1_555 1_555
N8 C37 1_555 1_555
C36 C37 1_555 1_555
C45 C46 1_555 1_555
C47 C48A 1_555 1_555
C52 C53 1_555 1_555
N11 N12 1_555 1_555
C55 C56 1_555 1_555
C60 C61 1_555 1_555
N14 C64 1_555 1_555
C63 C64 1_555 1_555
C72 C73 1_555 1_555
C74 C75 1_555 1_555
C79 C80 1_555 1_555
N17 C83 1_555 1_555
C82 C83 1_555 1_555
C88 C89 1_555 1_555
N20 C92 1_555 1_555
C91 C92 1_555 1_555
C100 C101 1_555 1_555
C102 C103 1_555 1_555
C108 C109 1_555 1_555
N23 N24 1_555 1_555
C111 C112 1_555 1_555
C4A C5A 1_555 1_555
C8A N2A 1_555 1_555
C21A C26A 1_555 1_555
C24A C25A 1_555 1_555
C27A C28A 1_555 1_555
C33A C34A 1_555 1_555
C37A N8A 1_555 1_555
C35A C36A 1_555 1_555
C45A C46A 1_555 1_555
C47A C48B 1_555 1_555
C4B C5B 1_555 1_555
C8B N2B 1_555 1_555
C21B C26B 1_555 1_555
C24B C25B 1_555 1_555
C27B C28B 1_555 1_555
C33B C34B 1_555 1_555
C37B N8B 1_555 1_555
C35B C36B 1_555 1_555
C38B C39B 1_555 1_555
C45B C46B 1_555 1_555
C46B C47B 1_555 1_555
C6B C7B 1_555 1_555
C16B C17B 1_555 1_555
C18B C19B 1_555 1_555
N12B N11B 1_555 1_555
C56A N11A 1_555 1_555
C52A C53A 1_555 1_555
C53A C56B 1_555 1_555
C55B C54B 1_555 1_555
N10B C53B 1_555 1_555
C52B C53B 1_555 1_555
C9A N3A 1_555 1_555
C6A C7A 1_555 1_555
C16A C17A 1_555 1_555
C17A C18A 1_555 1_555
C54A C55A 1_555 1_555
C110A N24A 1_555 1_555
C108A C109A 1_555 1_555
C110B N24B 1_555 1_555
N22B C105B 1_555 1_555
C108B C109B 1_555 1_555
C60B C61B 1_555 1_555
C64B N14B 1_555 1_555
C79B C80B 1_555 1_555
C83B N17B 1_555 1_555
N17B N18B 1_555 1_555
C85B C92B 1_555 1_555
C88B C89B 1_555 1_555
C91B C90B 1_555 1_555
C81B C82B 1_555 1_555
C62B C63B 1_555 1_555
C72B C73B 1_555 1_555
C74B C75B 1_555 1_555
C60A C61A 1_555 1_555
C64A N14A 1_555 1_555
C76A C83A 1_555 1_555
C79A C80A 1_555 1_555
C82A C81A 1_555 1_555
C88A C89A 1_555 1_555
C92A N20A 1_555 1_555
C90A C91A 1_555 1_555
C100A C101A 1_555 1_555
C102A C103A 1_555 1_555
C104A N23A 1_555 1_555
C112A C111A 1_555 1_555
C62A C63A 1_555 1_555
C72A C73A 1_555 1_555
C74A C75A 1_555 1_555
C75A C84A 1_555 1_555
C100B C101B 1_555 1_555
C101B C102B 1_555 1_555
C112B C111B 1_555 1_555

#END
