
#######################################################################
#
#                 Cambridge Crystallographic Data Centre
#                                CCDC 
#
#######################################################################
#
# If this CIF has been generated from an entry in the Cambridge 
# Structural Database, then it will include bibliographic, chemical, 
# crystal, experimental, refinement or atomic coordinate data resulting 
# from the CCDC's data processing and validation procedures.
#
#######################################################################

data_MAGCEF
_chemical_formula_moiety         
'C176 H168 N24 O12 Zn4 8+,8(C1 F3 O3 S1 1-),3(C2 H3 N1)'
_chemical_name_systematic        
'tetrakis(\m~3~-((2-Methyl-2-(((6-(((4-methylphenyl)imino)methyl)pyridin-3-yl)oxy)methyl)propane-1,3-diyl)bis(oxypyridine-5,2-diyl))bis(N-(4-methylphenyl)methanimine))-tetra-zinc octakis(trifluoromethanesulfonate) acetonitrile solvate'
_symmetry_cell_setting           hexagonal
_symmetry_space_group_name_H-M   'P 63'
_symmetry_Int_Tables_number      173
_space_group_name_Hall           'P 6c'
loop_
_symmetry_equiv_pos_site_id
_symmetry_equiv_pos_as_xyz
1 x,y,z
2 -y,x-y,z
3 -x+y,-x,z
4 -x,-y,1/2+z
5 y,-x+y,1/2+z
6 x-y,x,1/2+z
_cell_length_a                   27.0460(5)
_cell_length_b                   27.0460(5)
_cell_length_c                   37.5383(9)
_cell_angle_alpha                90
_cell_angle_beta                 90
_cell_angle_gamma                120
_cell_volume                     23780
_exptl_crystal_colour            colorless
_exptl_crystal_description       block
_cell_formula_units_Z            4
loop_
_atom_site_label
_atom_site_type_symbol
_atom_site_fract_x
_atom_site_fract_y
_atom_site_fract_z
Zn1 Zn 0.6667 0.3333 0.68666(8)
Zn2 Zn 0.54366(6) 0.49881(6) 0.42967(6)
O1 O 0.4999(3) 0.2108(3) 0.5836(2)
O2 O 0.4921(3) 0.3481(3) 0.5437(2)
O3 O 0.4447(3) 0.2052(3) 0.4819(2)
N1 N 0.6682(4) 0.2611(4) 0.7110(2)
N2 N 0.6061(4) 0.2615(4) 0.6549(2)
N3 N 0.5494(4) 0.5684(4) 0.4595(3)
N4 N 0.5319(3) 0.4684(4) 0.4844(2)
N5 N 0.4574(4) 0.0288(4) 0.3797(2)
N6 N 0.4658(4) 0.1023(3) 0.4320(3)
C1 C 0.7105(5) 0.2676(5) 0.7359(3)
C2 C 0.7527(5) 0.2555(6) 0.7247(4)
H1 H 0.7518 0.2421 0.7012
C3 C 0.7959(6) 0.2632(8) 0.7480(4)
H2 H 0.8247 0.2553 0.7402
C4 C 0.7974(6) 0.2827(7) 0.7834(4)
C5 C 0.7522(6) 0.2894(6) 0.7930(4)
H3 H 0.7502 0.3000 0.8168
C6 C 0.7098(5) 0.2815(6) 0.7696(3)
H4 H 0.6792 0.2861 0.7778
C7 C 0.8432(6) 0.2945(7) 0.8079(4)
H5 H 0.8413 0.2586 0.8147
H6 H 0.8393 0.3133 0.8292
H7 H 0.8799 0.3196 0.7964
C8 C 0.6383(4) 0.2141(5) 0.6945(3)
H8 H 0.6410 0.1814 0.7005
C9 C 0.5993(4) 0.2109(4) 0.6658(3)
C10 C 0.5634(5) 0.1611(5) 0.6494(3)
H9 H 0.5619 0.1267 0.6567
C11 C 0.5279(5) 0.1606(5) 0.6212(3)
H10 H 0.5010 0.1259 0.6101
C12 C 0.5340(5) 0.2117(4) 0.6106(3)
C13 C 0.5737(4) 0.2627(4) 0.6282(3)
H11 H 0.5774 0.2981 0.6210
C14 C 0.5103(5) 0.2656(4) 0.5697(3)
H12 H 0.5503 0.2890 0.5616
H13 H 0.5028 0.2870 0.5883
C15 C 0.5553(4) 0.6202(4) 0.4441(3)
C16 C 0.5073(5) 0.6256(5) 0.4404(4)
H14 H 0.4718 0.5971 0.4500
C17 C 0.5106(5) 0.6729(5) 0.4226(4)
H15 H 0.4773 0.6757 0.4195
C18 C 0.5632(5) 0.7157(5) 0.4095(4)
C19 C 0.6101(5) 0.7082(5) 0.4130(4)
H16 H 0.6460 0.7369 0.4042
C20 C 0.6059(5) 0.6603(5) 0.4289(4)
H17 H 0.6381 0.6551 0.4294
C21 C 0.5682(7) 0.7670(6) 0.3908(5)
H18 H 0.5936 0.8015 0.4044
H19 H 0.5303 0.7633 0.3889
H20 H 0.5839 0.7697 0.3669
C22 C 0.5416(5) 0.5595(4) 0.4926(3)
H21 H 0.5427 0.5882 0.5077
C23 C 0.5308(4) 0.5053(4) 0.5077(3)
C24 C 0.5182(5) 0.4922(5) 0.5431(3)
H22 H 0.5175 0.5193 0.5589
C25 C 0.5065(5) 0.4387(4) 0.5559(3)
H23 H 0.4992 0.4290 0.5804
C26 C 0.5060(5) 0.4009(4) 0.5310(3)
C27 C 0.5193(4) 0.4165(4) 0.4953(3)
H24 H 0.5195 0.3900 0.4788
C28 C 0.4890(5) 0.3069(4) 0.5185(3)
H25 H 0.5269 0.3201 0.5076
H26 H 0.4615 0.3013 0.4994
C29 C 0.4326(5) 0.0577(5) 0.3758(4)
H27 H 0.4111 0.0528 0.3548
C30 C 0.4359(6) 0.0984(5) 0.4029(3)
C31 C 0.4093(7) 0.1302(6) 0.3989(4)
H28 H 0.3880 0.1265 0.3779
C32 C 0.4138(6) 0.1670(5) 0.4252(4)
H29 H 0.3972 0.1905 0.4221
C33 C 0.4427(4) 0.1699(4) 0.4565(3)
C34 C 0.4706(4) 0.1371(4) 0.4584(3)
H30 H 0.4929 0.1403 0.4787
C35 C 0.4759(5) 0.2101(4) 0.5141(3)
H31 H 0.5167 0.2248 0.5086
H32 H 0.4604 0.1722 0.5256
C36 C 0.4694(4) 0.2510(4) 0.5388(3)
C37 C 0.4062(4) 0.2239(5) 0.5512(3)
H33 H 0.3811 0.2121 0.5303
H34 H 0.4013 0.2520 0.5649
H35 H 0.3964 0.1906 0.5661
C38 C 0.4500(6) -0.0121(5) 0.3535(3)
C39 C 0.3950(5) -0.0563(6) 0.3456(3)
H36 H 0.3631 -0.0590 0.3579
C40 C 0.3869(4) -0.0965(5) 0.3195(3)
H37 H 0.3493 -0.1264 0.3143
C41 C 0.4332(5) -0.0935(4) 0.3008(3)
C42 C 0.4882(4) -0.0490(5) 0.3092(3)
H38 H 0.5202 -0.0462 0.2970
C43 C 0.4966(5) -0.0086(5) 0.3352(4)
H39 H 0.5341 0.0213 0.3405
C44 C 0.4242(7) -0.1361(7) 0.2721(4)
H40 H 0.4325 -0.1649 0.2816
H41 H 0.4497 -0.1164 0.2520
H42 H 0.3844 -0.1547 0.2640
O4 O 0.5777(3) 0.3303(3) 0.3692(3)
N7 N 0.4517(3) 0.4568(4) 0.4222(3)
N8 N 0.5230(4) 0.4177(4) 0.4049(3)
C45 C 0.4146(4) 0.4773(4) 0.4322(3)
C46 C 0.4030(5) 0.4773(5) 0.4672(3)
H43 H 0.4176 0.4616 0.4840
C47 C 0.3705(5) 0.4997(5) 0.4786(4)
H44 H 0.3654 0.5026 0.5034
C48 C 0.3444(5) 0.5185(5) 0.4539(4)
C49 C 0.3550(6) 0.5164(7) 0.4192(4)
H45 H 0.3388 0.5303 0.4022
C50 C 0.3890(5) 0.4946(6) 0.4074(4)
H46 H 0.3944 0.4917 0.3826
C51 C 0.3096(6) 0.5453(8) 0.4685(5)
H47 H 0.3343 0.5869 0.4701
H48 H 0.2949 0.5299 0.4922
H49 H 0.2776 0.5363 0.4524
C52 C 0.4317(5) 0.4088(5) 0.4075(4)
H50 H 0.3916 0.3869 0.4037
C53 C 0.4675(5) 0.3853(5) 0.3958(4)
C54 C 0.4482(5) 0.3350(6) 0.3778(5)
H51 H 0.4093 0.3138 0.3707
C55 C 0.4851(5) 0.3148(5) 0.3697(4)
H52 H 0.4718 0.2790 0.3582
C56 C 0.5428(5) 0.3492(5) 0.3792(4)
C57 C 0.5607(5) 0.4007(5) 0.3972(3)
H53 H 0.5996 0.4236 0.4040
C58 C 0.6349(4) 0.3631(5) 0.3785(4)
H54 H 0.6389 0.3661 0.4047
H55 H 0.6511 0.4020 0.3685
C59 C 0.6667 0.3333 0.3632(5)
C60 C 0.6667 0.3333 0.3224(6)
H56 H 0.6363 0.3400 0.3137
O4A O 0.6697(3) 0.2474(4) 0.3692(3)
N7A N 0.5432(4) -0.0051(5) 0.4222(3)
N8A N 0.5823(4) 0.1053(6) 0.4049(3)
C45A C 0.5227(4) -0.0627(6) 0.4322(3)
C46A C 0.5227(5) -0.0743(7) 0.4672(3)
H43A H 0.5384 -0.0440 0.4840
C47A C 0.5003(5) -0.1292(7) 0.4786(4)
H44A H 0.4974 -0.1372 0.5034
C48A C 0.4815(5) -0.1741(7) 0.4539(4)
C49A C 0.4836(7) -0.1614(9) 0.4192(4)
H45A H 0.4697 -0.1915 0.4022
C50A C 0.5054(6) -0.1056(8) 0.4074(4)
H46A H 0.5083 -0.0973 0.3826
C51A C 0.4547(8) -0.2357(10) 0.4685(5)
H47A H 0.4131 -0.2526 0.4701
H48A H 0.4701 -0.2350 0.4922
H49A H 0.4637 -0.2587 0.4524
C52A C 0.5912(5) 0.0229(7) 0.4075(4)
H50A H 0.6131 0.0047 0.4037
C53A C 0.6147(5) 0.0822(7) 0.3958(4)
C54A C 0.6650(6) 0.1132(8) 0.3778(5)
H51A H 0.6862 0.0955 0.3707
C55A C 0.6852(5) 0.1703(7) 0.3697(4)
H52A H 0.7210 0.1928 0.3582
C56A C 0.6508(5) 0.1936(7) 0.3792(4)
C57A C 0.5993(5) 0.1600(7) 0.3972(3)
H53A H 0.5764 0.1760 0.4040
C58A C 0.6369(5) 0.2718(6) 0.3785(4)
H54A H 0.6339 0.2728 0.4047
H55A H 0.5980 0.2491 0.3685
H56A H 0.6600 0.2963 0.3137
O4B O 0.7526(4) 0.4223(3) 0.3692(3)
N7B N 1.0051(5) 0.5483(3) 0.4222(3)
N8B N 0.8947(6) 0.4770(4) 0.4049(3)
C45B C 1.0627(6) 0.5854(4) 0.4322(3)
C46B C 1.0743(7) 0.5970(5) 0.4672(3)
H43B H 1.0440 0.5824 0.4840
C47B C 1.1292(7) 0.6295(5) 0.4786(4)
H44B H 1.1372 0.6346 0.5034
C48B C 1.1741(7) 0.6556(5) 0.4539(4)
C49B C 1.1614(9) 0.6450(6) 0.4192(4)
H45B H 1.1915 0.6612 0.4022
C50B C 1.1056(8) 0.6110(5) 0.4074(4)
H46B H 1.0973 0.6056 0.3826
C51B C 1.2357(10) 0.6904(6) 0.4685(5)
H47B H 1.2526 0.6657 0.4701
H48B H 1.2350 0.7051 0.4922
H49B H 1.2587 0.7224 0.4524
C52B C 0.9771(7) 0.5683(5) 0.4075(4)
H50B H 0.9953 0.6084 0.4037
C53B C 0.9178(7) 0.5325(5) 0.3958(4)
C54B C 0.8868(8) 0.5518(5) 0.3778(5)
H51B H 0.9045 0.5907 0.3707
C55B C 0.8297(7) 0.5149(5) 0.3697(4)
H52B H 0.8072 0.5282 0.3582
C56B C 0.8064(7) 0.4572(5) 0.3792(4)
C57B C 0.8400(7) 0.4393(5) 0.3972(3)
H53B H 0.8240 0.4004 0.4040
C58B C 0.7282(6) 0.3651(4) 0.3785(4)
H54B H 0.7272 0.3611 0.4047
H55B H 0.7509 0.3489 0.3685
H56B H 0.7037 0.3637 0.3137
Zn2A Zn 0.50119(6) 0.04485(8) 0.42967(6)
O1A O 0.7892(3) 0.2891(4) 0.5836(2)
O2A O 0.6519(3) 0.1440(4) 0.5437(2)
O3A O 0.7948(3) 0.2395(4) 0.4819(2)
N1A N 0.7389(4) 0.4071(6) 0.7110(2)
N2A N 0.7385(4) 0.3446(6) 0.6549(2)
N3A N 0.4316(4) -0.0190(6) 0.4595(3)
N4A N 0.5316(4) 0.0635(5) 0.4844(2)
N5A N 0.9712(4) 0.4286(6) 0.3797(2)
N6A N 0.8977(3) 0.3635(5) 0.4320(3)
C1A C 0.7324(5) 0.4429(7) 0.7359(3)
C2A C 0.7445(6) 0.4972(8) 0.7247(4)
H1A H 0.7579 0.5097 0.7012
C3A C 0.7368(8) 0.5327(10) 0.7480(4)
H2A H 0.7447 0.5694 0.7402
C4A C 0.7173(7) 0.5147(9) 0.7834(4)
C5A C 0.7106(6) 0.4628(8) 0.7930(4)
H3A H 0.7000 0.4502 0.8168
C6A C 0.7185(6) 0.4283(8) 0.7696(3)
H4A H 0.7139 0.3931 0.7778
C7A C 0.7055(7) 0.5487(9) 0.8079(4)
H5A H 0.7414 0.5827 0.8147
H6A H 0.6867 0.5260 0.8292
H7A H 0.6804 0.5603 0.7964
C8A C 0.7859(5) 0.4242(6) 0.6945(3)
H8A H 0.8186 0.4596 0.7005
C9A C 0.7891(4) 0.3884(6) 0.6658(3)
C10A C 0.8389(5) 0.4023(7) 0.6494(3)
H9A H 0.8733 0.4352 0.6567
C11A C 0.8394(5) 0.3673(7) 0.6212(3)
H10A H 0.8741 0.3751 0.6101
C12A C 0.7883(4) 0.3223(6) 0.6106(3)
C13A C 0.7373(4) 0.3110(6) 0.6282(3)
H11A H 0.7019 0.2793 0.6210
C14A C 0.7344(4) 0.2447(6) 0.5697(3)
H12A H 0.7110 0.2613 0.5616
H13A H 0.7130 0.2158 0.5883
C15A C 0.3798(4) -0.0649(6) 0.4441(3)
C16A C 0.3744(5) -0.1183(7) 0.4404(4)
H14A H 0.4029 -0.1253 0.4500
C17A C 0.3271(5) -0.1623(7) 0.4226(4)
H15A H 0.3243 -0.1984 0.4195
C18A C 0.2843(5) -0.1525(7) 0.4095(4)
C19A C 0.2918(5) -0.0981(7) 0.4130(4)
H16A H 0.2631 -0.0909 0.4042
C20A C 0.3397(5) -0.0544(7) 0.4289(4)
H17A H 0.3449 -0.0170 0.4294
C21A C 0.2330(6) -0.1988(9) 0.3908(5)
H18A H 0.1985 -0.2079 0.4044
H19A H 0.2367 -0.2330 0.3889
H20A H 0.2303 -0.1858 0.3669
C22A C 0.4405(4) -0.0179(6) 0.4926(3)
H21A H 0.4118 -0.0455 0.5077
C23A C 0.4947(4) 0.0255(6) 0.5077(3)
C24A C 0.5078(5) 0.0260(7) 0.5431(3)
H22A H 0.4807 -0.0018 0.5589
C25A C 0.5613(4) 0.0678(6) 0.5559(3)
H23A H 0.5710 0.0702 0.5804
C26A C 0.5991(4) 0.1051(6) 0.5310(3)
C27A C 0.5835(4) 0.1028(6) 0.4953(3)
H24A H 0.6100 0.1295 0.4788
C28A C 0.6931(4) 0.1821(6) 0.5185(3)
H25A H 0.6799 0.2068 0.5076
H26A H 0.6987 0.1602 0.4994
C29A C 0.9423(5) 0.3749(7) 0.3758(4)
H27A H 0.9472 0.3583 0.3548
C30A C 0.9016(5) 0.3375(8) 0.4029(3)
C31A C 0.8698(6) 0.2791(9) 0.3989(4)
H28A H 0.8735 0.2615 0.3779
C32A C 0.8330(5) 0.2468(8) 0.4252(4)
H29A H 0.8095 0.2067 0.4221
C33A C 0.8301(4) 0.2728(6) 0.4565(3)
C34A C 0.8629(4) 0.3335(6) 0.4584(3)
H30A H 0.8597 0.3526 0.4787
C35A C 0.7899(4) 0.2658(6) 0.5141(3)
H31A H 0.7752 0.2919 0.5086
H32A H 0.8278 0.2882 0.5256
C36A C 0.7490(4) 0.2184(6) 0.5388(3)
C37A C 0.7761(5) 0.1823(6) 0.5512(3)
H33A H 0.7879 0.1690 0.5303
H34A H 0.7480 0.1493 0.5649
H35A H 0.8094 0.2058 0.5661
C38A C 1.0121(5) 0.4621(8) 0.3535(3)
C39A C 1.0563(6) 0.4513(8) 0.3456(3)
H36A H 1.0590 0.4221 0.3579
C40A C 1.0965(5) 0.4834(6) 0.3195(3)
H37A H 1.1264 0.4757 0.3143
C41A C 1.0935(4) 0.5267(6) 0.3008(3)
C42A C 1.0490(5) 0.5372(6) 0.3092(3)
H38A H 1.0462 0.5664 0.2970
C43A C 1.0086(5) 0.5052(7) 0.3352(4)
H39A H 0.9787 0.5128 0.3405
C44A C 1.1361(7) 0.5603(10) 0.2721(4)
H40A H 1.1649 0.5974 0.2816
H41A H 1.1164 0.5661 0.2520
H42A H 1.1547 0.5391 0.2640
Zn2B Zn 0.95515(8) 0.45634(6) 0.42967(6)
O1B O 0.7109(4) 0.5001(3) 0.5836(2)
O2B O 0.8560(4) 0.5079(3) 0.5437(2)
O3B O 0.7605(4) 0.5553(3) 0.4819(2)
N1B N 0.5929(6) 0.3318(4) 0.7110(2)
N2B N 0.6554(6) 0.3939(4) 0.6549(2)
N3B N 1.0190(6) 0.4506(4) 0.4595(3)
N4B N 0.9365(5) 0.4681(3) 0.4844(2)
N5B N 0.5714(6) 0.5426(4) 0.3797(2)
N6B N 0.6365(5) 0.5342(4) 0.4320(3)
C1B C 0.5571(7) 0.2895(5) 0.7359(3)
C2B C 0.5028(8) 0.2473(5) 0.7247(4)
H1B H 0.4903 0.2482 0.7012
C3B C 0.4673(10) 0.2041(6) 0.7480(4)
H2B H 0.4306 0.1753 0.7402
C4B C 0.4853(9) 0.2026(6) 0.7834(4)
C5B C 0.5372(8) 0.2478(6) 0.7930(4)
H3B H 0.5498 0.2498 0.8168
C6B C 0.5717(8) 0.2902(5) 0.7696(3)
H4B H 0.6069 0.3208 0.7778
C7B C 0.4513(9) 0.1568(6) 0.8079(4)
H5B H 0.4173 0.1587 0.8147
H6B H 0.4740 0.1607 0.8292
H7B H 0.4397 0.1201 0.7964
C8B C 0.5758(6) 0.3617(4) 0.6945(3)
H8B H 0.5404 0.3590 0.7005
C9B C 0.6116(6) 0.4007(4) 0.6658(3)
C10B C 0.5977(7) 0.4366(5) 0.6494(3)
H9B H 0.5648 0.4381 0.6567
C11B C 0.6327(7) 0.4721(5) 0.6212(3)
H10B H 0.6249 0.4990 0.6101
C12B C 0.6777(6) 0.4660(5) 0.6106(3)
C13B C 0.6890(6) 0.4263(4) 0.6282(3)
H11B H 0.7207 0.4226 0.6210
C14B C 0.7553(6) 0.4897(5) 0.5697(3)
H12B H 0.7387 0.4497 0.5616
H13B H 0.7842 0.4972 0.5883
C15B C 1.0649(6) 0.4447(4) 0.4441(3)
C16B C 1.1183(7) 0.4927(5) 0.4404(4)
H14B H 1.1253 0.5282 0.4500
C17B C 1.1623(7) 0.4894(5) 0.4226(4)
H15B H 1.1984 0.5227 0.4195
C18B C 1.1525(7) 0.4368(5) 0.4095(4)
C19B C 1.0981(7) 0.3899(5) 0.4130(4)
H16B H 1.0909 0.3540 0.4042
C20B C 1.0544(7) 0.3941(5) 0.4289(4)
H17B H 1.0170 0.3619 0.4294
C21B C 1.1988(9) 0.4318(7) 0.3908(5)
H18B H 1.2079 0.4064 0.4044
H19B H 1.2330 0.4697 0.3889
H20B H 1.1858 0.4161 0.3669
C22B C 1.0179(6) 0.4584(5) 0.4926(3)
H21B H 1.0455 0.4573 0.5077
C23B C 0.9745(6) 0.4692(4) 0.5077(3)
C24B C 0.9740(7) 0.4818(5) 0.5431(3)
H22B H 1.0018 0.4825 0.5589
C25B C 0.9322(6) 0.4935(5) 0.5559(3)
H23B H 0.9298 0.5008 0.5804
C26B C 0.8949(6) 0.4940(5) 0.5310(3)
C27B C 0.8972(6) 0.4807(4) 0.4953(3)
H24B H 0.8705 0.4805 0.4788
C28B C 0.8179(6) 0.5110(5) 0.5185(3)
H25B H 0.7932 0.4731 0.5076
H26B H 0.8398 0.5385 0.4994
C29B C 0.6251(7) 0.5674(5) 0.3758(4)
H27B H 0.6417 0.5889 0.3548
C30B C 0.6625(8) 0.5641(6) 0.4029(3)
C31B C 0.7209(9) 0.5907(7) 0.3989(4)
H28B H 0.7385 0.6120 0.3779
C32B C 0.7532(8) 0.5862(6) 0.4252(4)
H29B H 0.7933 0.6028 0.4221
C33B C 0.7272(6) 0.5573(4) 0.4565(3)
C34B C 0.6665(6) 0.5294(4) 0.4584(3)
H30B H 0.6474 0.5071 0.4787
C35B C 0.7342(6) 0.5241(5) 0.5141(3)
H31B H 0.7081 0.4833 0.5086
H32B H 0.7118 0.5396 0.5256
C36B C 0.7816(6) 0.5306(4) 0.5388(3)
C37B C 0.8177(6) 0.5938(4) 0.5512(3)
H33B H 0.8310 0.6189 0.5303
H34B H 0.8507 0.5987 0.5649
H35B H 0.7942 0.6036 0.5661
C38B C 0.5379(8) 0.5500(6) 0.3535(3)
C39B C 0.5487(8) 0.6050(5) 0.3456(3)
H36B H 0.5779 0.6369 0.3579
C40B C 0.5166(6) 0.6131(4) 0.3195(3)
H37B H 0.5243 0.6507 0.3143
C41B C 0.4733(6) 0.5668(5) 0.3008(3)
C42B C 0.4628(6) 0.5118(4) 0.3092(3)
H38B H 0.4336 0.4798 0.2970
C43B C 0.4948(7) 0.5034(5) 0.3352(4)
H39B H 0.4872 0.4659 0.3405
C44B C 0.4397(10) 0.5758(7) 0.2721(4)
H40B H 0.4026 0.5675 0.2816
H41B H 0.4339 0.5503 0.2520
H42B H 0.4609 0.6156 0.2640
Zn3 Zn 0.70881(6) 0.88625(7) 0.57646(6)
Zn4 Zn 1.0000 1.0000 0.32341(8)
O5 O 0.9475(3) 0.8299(3) 0.4237(2)
O6 O 0.8035(3) 0.8247(3) 0.4639(2)
O7 O 0.8986(3) 0.7776(3) 0.5260(2)
N9 N 1.0738(4) 1.0014(4) 0.2995(2)
N10 N 1.0083(4) 0.9369(4) 0.3541(2)
N11 N 0.6436(4) 0.8896(4) 0.5465(3)
N12 N 0.7265(4) 0.8718(4) 0.5223(3)
N13 N 1.0835(4) 0.7788(4) 0.6264(3)
N14 N 1.0228(4) 0.7936(4) 0.5747(3)
C61 C 1.1150(5) 1.0446(5) 0.2771(3)
C62 C 1.0974(5) 1.0617(6) 0.2480(3)
H57 H 1.0578 1.0429 0.2426
C63 C 1.1352(6) 1.1056(7) 0.2256(4)
H58 H 1.1211 1.1175 0.2061
C64 C 1.1948(6) 1.1324(8) 0.2321(4)
C65 C 1.2109(6) 1.1150(7) 0.2627(4)
H59 H 1.2501 1.1339 0.2693
C66 C 1.1719(5) 1.0712(6) 0.2835(4)
H60 H 1.1852 1.0590 0.3032
C67 C 1.2353(7) 1.1811(10) 0.2114(6)
H61 H 1.2272 1.1728 0.1860
H62 H 1.2741 1.1889 0.2166
H63 H 1.2321 1.2145 0.2177
C68 C 1.0870(5) 0.9669(5) 0.3156(3)
H64 H 1.1196 0.9650 0.3081
C69 C 1.0524(5) 0.9316(5) 0.3446(3)
C70 C 1.0624(5) 0.8910(5) 0.3606(4)
H65 H 1.0931 0.8862 0.3528
C71 C 1.0272(5) 0.8575(5) 0.3881(4)
H66 H 1.0343 0.8306 0.3999
C72 C 0.9821(5) 0.8642(5) 0.3978(3)
C73 C 0.9734(5) 0.9063(5) 0.3807(3)
H67 H 0.9433 0.9124 0.3880
C74 C 0.9040(5) 0.8400(5) 0.4372(3)
H68 H 0.8750 0.8318 0.4185
H69 H 0.9207 0.8804 0.4445
C75 C 0.5976(4) 0.8944(5) 0.5618(3)
C76 C 0.5448(5) 0.8471(6) 0.5637(4)
H70 H 0.5384 0.8126 0.5531
C77 C 0.5001(5) 0.8485(6) 0.5809(4)
H71 H 0.4632 0.8155 0.5818
C78 C 0.5105(6) 0.8999(6) 0.5970(4)
C79 C 0.5642(6) 0.9474(6) 0.5953(4)
H72 H 0.5711 0.9818 0.6065
C80 C 0.6092(5) 0.9458(5) 0.5771(4)
H73 H 0.6461 0.9787 0.5755
C81 C 0.4642(6) 0.9051(8) 0.6151(5)
H74 H 0.4806 0.9423 0.6270
H75 H 0.4455 0.8746 0.6328
H76 H 0.4361 0.9018 0.5974
C82 C 0.6445(5) 0.8794(5) 0.5129(3)
H77 H 0.6158 0.8782 0.4977
C83 C 0.6881(5) 0.8697(5) 0.4980(3)
C84 C 0.6878(5) 0.8549(6) 0.4630(3)
H78 H 0.6605 0.8543 0.4469
C85 C 0.7283(5) 0.8407(6) 0.4514(3)
H79 H 0.7295 0.8311 0.4272
C86 C 0.7662(5) 0.8409(5) 0.4756(3)
C87 C 0.7666(5) 0.8589(5) 0.5111(3)
H80 H 0.7951 0.8621 0.5273
C88 C 0.8416(5) 0.8212(5) 0.4893(3)
H81 H 0.8196 0.7934 0.5084
H82 H 0.8666 0.8589 0.5004
C89 C 1.1128(4) 0.7734(4) 0.6561(2)
C90 C 1.1043(5) 0.7866(6) 0.6908(3)
H83 H 1.0778 0.7993 0.6951
C91 C 1.1346(6) 0.7811(6) 0.7191(2)
H84 H 1.1286 0.7901 0.7426
C92 C 1.1739(5) 0.7623(6) 0.7136(2)
C93 C 1.1821(5) 0.7495(6) 0.6786(3)
H85 H 1.2086 0.7369 0.6743
C94 C 1.1519(5) 0.7549(6) 0.6502(2)
H86 H 1.1580 0.7459 0.6267
C95 C 1.2055(8) 0.7551(10) 0.7443(3)
H87 H 1.1780 0.7281 0.7615
H88 H 1.2294 0.7921 0.7559
H89 H 1.2298 0.7403 0.7355
C96 C 1.0303(6) 0.7581(5) 0.6319(3)
H90 H 1.0140 0.7409 0.6542
C97 C 0.9942(5) 0.7610(5) 0.6035(3)
C98 C 0.9369(5) 0.7374(5) 0.6084(3)
H91 H 0.9194 0.7182 0.6299
C99 C 0.9055(5) 0.7420(5) 0.5819(3)
H92 H 0.8652 0.7243 0.5844
C100 C 0.9323(5) 0.7732(5) 0.5505(3)
C101 C 0.9922(5) 0.7974(5) 0.5487(3)
H93 H 1.0113 0.8175 0.5277
C102 C 0.9230(5) 0.8066(5) 0.4934(3)
H94 H 0.9445 0.7899 0.4820
H95 H 0.9501 0.8473 0.4983
C103 C 0.8771(4) 0.8015(4) 0.4684(3)
C104 C 0.8402(5) 0.7383(5) 0.4559(4)
H96 H 0.8638 0.7276 0.4417
H97 H 0.8082 0.7343 0.4415
H98 H 0.8255 0.7133 0.4768
O8 O 0.9127(3) 0.9125(3) 0.6269(2)
N15 N 0.6561(4) 0.7918(4) 0.5831(3)
N16 N 0.7678(4) 0.8630(4) 0.5985(3)
C105 C 0.5988(5) 0.7543(5) 0.5719(4)
C106 C 0.5874(5) 0.7399(5) 0.5369(4)
H99 H 0.6184 0.7549 0.5206
C107 C 0.5341(6) 0.7055(6) 0.5241(4)
H100 H 0.5283 0.6961 0.4995
C108 C 0.4875(6) 0.6836(6) 0.5478(5)
C109 C 0.4980(6) 0.6967(6) 0.5832(5)
H101 H 0.4673 0.6834 0.5996
C110 C 0.5549(6) 0.7302(7) 0.5950(4)
H102 H 0.5624 0.7357 0.6199
C111 C 0.4269(6) 0.6468(7) 0.5345(6)
H103 H 0.4000 0.6394 0.5540
H104 H 0.4218 0.6105 0.5256
H105 H 0.4195 0.6667 0.5152
C112 C 0.6845(5) 0.7700(5) 0.5954(3)
H106 H 0.6668 0.7299 0.5987
C113 C 0.7447(4) 0.8069(5) 0.6045(3)
C114 C 0.7781(5) 0.7851(5) 0.6180(3)
H107 H 0.7611 0.7453 0.6222
C115 C 0.8341(5) 0.8197(5) 0.6250(3)
H108 H 0.8573 0.8049 0.6334
C116 C 0.8564(5) 0.8780(5) 0.6196(3)
C117 C 0.8232(5) 0.8980(5) 0.6053(3)
H109 H 0.8399 0.9376 0.6001
C118 C 0.9380(4) 0.9708(4) 0.6181(3)
H110 H 0.9167 0.9877 0.6292
H111 H 0.9380 0.9756 0.5919
C119 C 1.0000 1.0000 0.6324(5)
C120 C 1.0000 1.0000 0.6733(4)
H112 H 0.9685 1.0048 0.6820
O8A O 1.0875(3) 1.0002(4) 0.6269(2)
N15A N 1.2082(4) 0.8643(6) 0.5831(3)
N16A N 1.1370(4) 0.9048(6) 0.5985(3)
C105A C 1.2457(5) 0.8445(7) 0.5719(4)
C106A C 1.2601(5) 0.8475(7) 0.5369(4)
H99A H 1.2451 0.8635 0.5206
C107A C 1.2945(6) 0.8286(8) 0.5241(4)
H100A H 1.3039 0.8322 0.4995
C108A C 1.3164(6) 0.8039(8) 0.5478(5)
C109A C 1.3033(6) 0.8013(8) 0.5832(5)
H101A H 1.3166 0.7839 0.5996
C110A C 1.2698(7) 0.8247(9) 0.5950(4)
H102A H 1.2643 0.8267 0.6199
C111A C 1.3532(7) 0.7801(9) 0.5345(6)
H103A H 1.3606 0.7606 0.5540
H104A H 1.3895 0.8113 0.5256
H105A H 1.3333 0.7528 0.5152
C112A C 1.2300(5) 0.9145(7) 0.5954(3)
H106A H 1.2701 0.9369 0.5987
C113A C 1.1931(5) 0.9378(6) 0.6045(3)
C114A C 1.2149(5) 0.9930(7) 0.6180(3)
H107A H 1.2547 1.0158 0.6222
C115A C 1.1803(5) 1.0144(7) 0.6250(3)
H108A H 1.1951 1.0524 0.6334
C116A C 1.1220(5) 0.9784(7) 0.6196(3)
C117A C 1.1020(5) 0.9252(7) 0.6053(3)
H109A H 1.0624 0.9023 0.6001
C118A C 1.0292(4) 0.9672(6) 0.6181(3)
H110A H 1.0123 0.9290 0.6292
H111A H 1.0244 0.9624 0.5919
H112A H 0.9952 0.9637 0.6820
O8B O 0.9998(4) 1.0873(3) 0.6269(2)
N15B N 1.1357(6) 1.3439(4) 0.5831(3)
N16B N 1.0952(6) 1.2322(4) 0.5985(3)
C105B C 1.1555(7) 1.4012(5) 0.5719(4)
C106B C 1.1525(7) 1.4126(5) 0.5369(4)
H99B H 1.1365 1.3816 0.5206
C107B C 1.1714(8) 1.4659(6) 0.5241(4)
H100B H 1.1678 1.4717 0.4995
C108B C 1.1961(8) 1.5125(6) 0.5478(5)
C109B C 1.1987(8) 1.5020(6) 0.5832(5)
H101B H 1.2161 1.5327 0.5996
C110B C 1.1753(9) 1.4451(6) 0.5950(4)
H102B H 1.1733 1.4376 0.6199
C111B C 1.2199(9) 1.5731(6) 0.5345(6)
H103B H 1.2394 1.6000 0.5540
H104B H 1.1887 1.5782 0.5256
H105B H 1.2472 1.5805 0.5152
C112B C 1.0855(7) 1.3155(5) 0.5954(3)
H106B H 1.0631 1.3332 0.5987
C113B C 1.0622(6) 1.2553(4) 0.6045(3)
C114B C 1.0070(7) 1.2219(5) 0.6180(3)
H107B H 0.9842 1.2389 0.6222
C115B C 0.9856(7) 1.1659(5) 0.6250(3)
H108B H 0.9476 1.1427 0.6334
C116B C 1.0216(7) 1.1436(5) 0.6196(3)
C117B C 1.0748(7) 1.1768(5) 0.6053(3)
H109B H 1.0977 1.1601 0.6001
C118B C 1.0328(6) 1.0620(4) 0.6181(3)
H110B H 1.0710 1.0833 0.6292
H111B H 1.0376 1.0620 0.5919
H112B H 1.0363 1.0315 0.6820
Zn3A Zn 1.11375(7) 0.82256(9) 0.57646(6)
O5A O 1.1701(3) 1.1176(4) 0.4237(2)
O6A O 1.1753(3) 0.9788(4) 0.4639(2)
O7A O 1.2224(3) 1.1210(4) 0.5260(2)
N9A N 0.9986(4) 1.0724(6) 0.2995(2)
N10A N 1.0631(4) 1.0714(6) 0.3541(2)
N11A N 1.1104(4) 0.7540(6) 0.5465(3)
N12A N 1.1282(4) 0.8547(6) 0.5223(3)
N13A N 1.2212(4) 1.3047(6) 0.6264(3)
N14A N 1.2064(4) 1.2292(6) 0.5747(3)
C61A C 0.9554(5) 1.0704(7) 0.2771(3)
C62A C 0.9383(6) 1.0357(8) 0.2480(3)
H57A H 0.9571 1.0149 0.2426
C63A C 0.8944(7) 1.0296(9) 0.2256(4)
H58A H 0.8825 1.0036 0.2061
C64A C 0.8676(8) 1.0624(10) 0.2321(4)
C65A C 0.8850(7) 1.0959(9) 0.2627(4)
H59A H 0.8661 1.1162 0.2693
C66A C 0.9288(6) 1.1007(8) 0.2835(4)
H60A H 0.9410 1.1262 0.3032
C67A C 0.8189(10) 1.0542(12) 0.2114(6)
H61A H 0.8272 1.0544 0.1860
H62A H 0.8111 1.0852 0.2166
H63A H 0.7855 1.0176 0.2177
C68A C 1.0331(5) 1.1201(7) 0.3156(3)
H64A H 1.0350 1.1546 0.3081
C69A C 1.0684(5) 1.1208(7) 0.3446(3)
C70A C 1.1090(5) 1.1714(7) 0.3606(4)
H65A H 1.1138 1.2069 0.3528
C71A C 1.1425(5) 1.1697(7) 0.3881(4)
H66A H 1.1694 1.2037 0.3999
C72A C 1.1358(5) 1.1179(7) 0.3978(3)
C73A C 1.0937(5) 1.0671(7) 0.3807(3)
H67A H 1.0876 1.0309 0.3880
C74A C 1.1600(5) 1.0640(7) 0.4372(3)
H68A H 1.1682 1.0432 0.4185
H69A H 1.1196 1.0403 0.4445
C75A C 1.1056(5) 0.7032(6) 0.5618(3)
C76A C 1.1529(6) 0.6977(8) 0.5637(4)
H70A H 1.1874 0.7258 0.5531
C77A C 1.1515(6) 0.6516(8) 0.5809(4)
H71A H 1.1845 0.6477 0.5818
C78A C 1.1001(6) 0.6106(8) 0.5970(4)
C79A C 1.0526(6) 0.6168(8) 0.5953(4)
H72A H 1.0182 0.5893 0.6065
C80A C 1.0542(5) 0.6634(7) 0.5771(4)
H73A H 1.0213 0.6674 0.5755
C81A C 1.0949(8) 0.5591(10) 0.6151(5)
H74A H 1.0577 0.5383 0.6270
H75A H 1.1254 0.5709 0.6328
H76A H 1.0982 0.5343 0.5974
C82A C 1.1206(5) 0.7651(7) 0.5129(3)
H77A H 1.1218 0.7376 0.4977
C83A C 1.1303(5) 0.8184(7) 0.4980(3)
C84A C 1.1451(6) 0.8329(8) 0.4630(3)
H78A H 1.1457 0.8062 0.4469
C85A C 1.1593(6) 0.8876(8) 0.4514(3)
H79A H 1.1689 0.8984 0.4272
C86A C 1.1591(5) 0.9253(7) 0.4756(3)
C87A C 1.1411(5) 0.9077(7) 0.5111(3)
H80A H 1.1379 0.9330 0.5273
C88A C 1.1788(5) 1.0204(7) 0.4893(3)
H81A H 1.2066 1.0262 0.5084
H82A H 1.1411 1.0077 0.5004
C89A C 1.2266(4) 1.3394(6) 0.6561(2)
C90A C 1.2134(6) 1.3177(8) 0.6908(3)
H83A H 1.2007 1.2785 0.6951
C91A C 1.2189(6) 1.3535(8) 0.7191(2)
H84A H 1.2099 1.3385 0.7426
C92A C 1.2377(6) 1.4116(8) 0.7136(2)
C93A C 1.2505(6) 1.4326(8) 0.6786(3)
H85A H 1.2631 1.4717 0.6743
C94A C 1.2451(6) 1.3970(8) 0.6502(2)
H86A H 1.2541 1.4121 0.6267
C95A C 1.2449(10) 1.4504(13) 0.7443(3)
H87A H 1.2719 1.4499 0.7615
H88A H 1.2079 1.4373 0.7559
H89A H 1.2597 1.4895 0.7355
C96A C 1.2419(5) 1.2722(8) 0.6319(3)
H90A H 1.2591 1.2731 0.6542
C97A C 1.2390(5) 1.2332(7) 0.6035(3)
C98A C 1.2626(5) 1.1995(7) 0.6084(3)
H91A H 1.2818 1.2012 0.6299
C99A C 1.2580(5) 1.1635(7) 0.5819(3)
H92A H 1.2757 1.1409 0.5844
C100A C 1.2268(5) 1.1591(7) 0.5505(3)
C101A C 1.2026(5) 1.1948(7) 0.5487(3)
H93A H 1.1825 1.1938 0.5277
C102A C 1.1934(5) 1.1164(7) 0.4934(3)
H94A H 1.2101 1.1546 0.4820
H95A H 1.1527 1.1028 0.4983
C103A C 1.1985(4) 1.0756(6) 0.4684(3)
C104A C 1.2617(5) 1.1019(7) 0.4559(4)
H96A H 1.2724 1.1362 0.4417
H97A H 1.2657 1.0739 0.4415
H98A H 1.2867 1.1122 0.4768
Zn3B Zn 1.17744(9) 1.29119(6) 0.57646(6)
O5B O 0.8824(4) 1.0525(3) 0.4237(2)
O6B O 1.0212(4) 1.1965(3) 0.4639(2)
O7B O 0.8790(4) 1.1014(3) 0.5260(2)
N9B N 0.9276(6) 0.9262(4) 0.2995(2)
N10B N 0.9286(6) 0.9917(4) 0.3541(2)
N11B N 1.2460(6) 1.3564(4) 0.5465(3)
N12B N 1.1453(6) 1.2735(4) 0.5223(3)
N13B N 0.6953(6) 0.9165(4) 0.6264(3)
N14B N 0.7708(6) 0.9772(4) 0.5747(3)
C61B C 0.9296(7) 0.8850(5) 0.2771(3)
C62B C 0.9643(8) 0.9026(5) 0.2480(3)
H57B H 0.9851 0.9422 0.2426
C63B C 0.9704(9) 0.8648(6) 0.2256(4)
H58B H 0.9964 0.8789 0.2061
C64B C 0.9376(10) 0.8052(6) 0.2321(4)
C65B C 0.9041(9) 0.7891(6) 0.2627(4)
H59B H 0.8838 0.7499 0.2693
C66B C 0.8993(8) 0.8281(5) 0.2835(4)
H60B H 0.8738 0.8148 0.3032
C67B C 0.9458(12) 0.7647(7) 0.2114(6)
H61B H 0.9456 0.7728 0.1860
H62B H 0.9148 0.7259 0.2166
H63B H 0.9824 0.7679 0.2177
C68B C 0.8799(7) 0.9130(5) 0.3156(3)
H64B H 0.8454 0.8804 0.3081
C69B C 0.8792(7) 0.9476(5) 0.3446(3)
C70B C 0.8286(7) 0.9376(5) 0.3606(4)
H65B H 0.7931 0.9069 0.3528
C71B C 0.8303(7) 0.9728(5) 0.3881(4)
H66B H 0.7963 0.9657 0.3999
C72B C 0.8821(7) 1.0179(5) 0.3978(3)
C73B C 0.9329(7) 1.0266(5) 0.3807(3)
H67B H 0.9691 1.0567 0.3880
C74B C 0.9360(7) 1.0960(5) 0.4372(3)
H68B H 0.9568 1.1250 0.4185
H69B H 0.9597 1.0793 0.4445
C75B C 1.2968(6) 1.4024(4) 0.5618(3)
C76B C 1.3023(8) 1.4552(5) 0.5637(4)
H70B H 1.2742 1.4616 0.5531
C77B C 1.3484(8) 1.4999(5) 0.5809(4)
H71B H 1.3523 1.5368 0.5818
C78B C 1.3894(8) 1.4895(6) 0.5970(4)
C79B C 1.3832(8) 1.4358(6) 0.5953(4)
H72B H 1.4107 1.4289 0.6065
C80B C 1.3366(7) 1.3908(5) 0.5771(4)
H73B H 1.3326 1.3539 0.5755
C81B C 1.4409(10) 1.5358(6) 0.6151(5)
H74B H 1.4617 1.5194 0.6270
H75B H 1.4291 1.5545 0.6328
H76B H 1.4657 1.5639 0.5974
C82B C 1.2349(7) 1.3555(5) 0.5129(3)
H77B H 1.2624 1.3842 0.4977
C83B C 1.1816(7) 1.3119(5) 0.4980(3)
C84B C 1.1671(8) 1.3122(5) 0.4630(3)
H78B H 1.1938 1.3395 0.4469
C85B C 1.1124(8) 1.2717(5) 0.4514(3)
H79B H 1.1016 1.2705 0.4272
C86B C 1.0747(7) 1.2338(5) 0.4756(3)
C87B C 1.0923(7) 1.2334(5) 0.5111(3)
H80B H 1.0670 1.2049 0.5273
C88B C 0.9796(7) 1.1584(5) 0.4893(3)
H81B H 0.9738 1.1804 0.5084
H82B H 0.9923 1.1334 0.5004
C89B C 0.6606(6) 0.8872(4) 0.6561(2)
C90B C 0.6823(8) 0.8957(5) 0.6908(3)
H83B H 0.7215 0.9222 0.6951
C91B C 0.6465(8) 0.8654(6) 0.7191(2)
H84B H 0.6615 0.8714 0.7426
C92B C 0.5884(8) 0.8261(5) 0.7136(2)
C93B C 0.5674(8) 0.8179(5) 0.6786(3)
H85B H 0.5283 0.7914 0.6743
C94B C 0.6030(8) 0.8481(5) 0.6502(2)
H86B H 0.5879 0.8420 0.6267
C95B C 0.5496(13) 0.7945(8) 0.7443(3)
H87B H 0.5501 0.8220 0.7615
H88B H 0.5627 0.7706 0.7559
H89B H 0.5105 0.7702 0.7355
C96B C 0.7278(8) 0.9697(6) 0.6319(3)
H90B H 0.7269 0.9860 0.6542
C97B C 0.7668(7) 1.0058(5) 0.6035(3)
C98B C 0.8005(7) 1.0631(5) 0.6084(3)
H91B H 0.7988 1.0806 0.6299
C99B C 0.8365(7) 1.0945(5) 0.5819(3)
H92B H 0.8591 1.1348 0.5844
C100B C 0.8409(7) 1.0677(5) 0.5505(3)
C101B C 0.8052(7) 1.0078(5) 0.5487(3)
H93B H 0.8062 0.9887 0.5277
C102B C 0.8836(7) 1.0770(5) 0.4934(3)
H94B H 0.8454 1.0555 0.4820
H95B H 0.8972 1.0499 0.4983
C103B C 0.9244(6) 1.1229(4) 0.4684(3)
C104B C 0.8981(7) 1.1598(5) 0.4559(4)
H96B H 0.8638 1.1362 0.4417
H97B H 0.9261 1.1918 0.4415
H98B H 0.8878 1.1745 0.4768
S1 S 0.75837(19) 0.7610(2) 0.36165(13)
O9 O 0.7285(4) 0.7943(5) 0.3628(3)
O10 O 0.7364(5) 0.7131(5) 0.3859(3)
O11 O 0.8199(4) 0.7956(5) 0.3606(3)
C121 C 0.7376(10) 0.7269(11) 0.3197(6)
F1 F 0.7553(5) 0.7632(6) 0.2939(3)
F2 F 0.6833(5) 0.6928(6) 0.3186(4)
F3 F 0.7640(6) 0.6935(7) 0.3142(4)
S2 S 0.65872(15) 0.62260(14) 0.56633(11)
O12 O 0.6102(4) 0.6286(3) 0.5637(2)
O13 O 0.6492(3) 0.5680(3) 0.5584(3)
O14 O 0.6939(4) 0.6491(4) 0.5975(3)
C122 C 0.7046(7) 0.6655(6) 0.5287(5)
F4 F 0.6778(4) 0.6447(4) 0.4978(3)
F5 F 0.7543(4) 0.6672(4) 0.5294(3)
F6 F 0.7152(3) 0.7193(3) 0.5323(2)
S3 S 0.42905(16) 0.32871(18) 0.64804(12)
O15 O 0.3816(5) 0.3061(5) 0.6231(3)
O16 O 0.4629(4) 0.3015(4) 0.6486(3)
O17 O 0.4610(4) 0.3896(4) 0.6493(3)
C123 C 0.3971(8) 0.3073(10) 0.6917(6)
F7 F 0.3643(5) 0.2508(6) 0.6951(3)
F8 F 0.4323(4) 0.3293(5) 0.7175(3)
F9 F 0.3553(4) 0.3253(6) 0.6961(3)
S4 S 0.28987(15) 0.28857(15) 0.44412(11)
O18 O 0.2352(3) 0.2457(4) 0.4566(3)
O19 O 0.2997(3) 0.3456(4) 0.4431(3)
O20 O 0.3113(5) 0.2726(5) 0.4142(3)
C124 C 0.3376(6) 0.2916(7) 0.4788(5)
F10 F 0.3340(4) 0.2408(4) 0.4829(3)
F11 F 0.3221(4) 0.3031(5) 0.5099(3)
F12 F 0.3892(3) 0.3296(4) 0.4740(3)
N17 N 0.8213(6) 0.7084(7) 0.6655(5)
C125 C 0.7935(8) 0.6627(8) 0.6600(4)
C126 C 0.7537(7) 0.6024(6) 0.6510(4)
H113 H 0.7328 0.6004 0.6293
H114 H 0.7267 0.5841 0.6706
H115 H 0.7752 0.5826 0.6472
N18 N 0.8313(11) 0.6242(9) 0.3305(7)
C127 C 0.8625(10) 0.6709(10) 0.3439(6)
C128 C 0.9002(9) 0.7283(8) 0.3572(5)
H116 H 0.8778 0.7419 0.3700
H117 H 0.9200 0.7538 0.3371
H118 H 0.9284 0.7278 0.3734
S5 S 1.0000 1.0000 0.5071(4)
C129 C 1.0000 1.0000 0.4524(4)
O21 O 1.0262(8) 0.9676(7) 0.5152(4)
F13 F 1.0450(7) 0.9998(12) 0.4389(4)
O21A O 1.0324(7) 1.0586(11) 0.5152(4)
F13A F 1.0002(12) 1.0452(14) 0.4389(4)
O21B O 0.9414(11) 0.9738(8) 0.5152(4)
F13B F 0.9548(14) 0.9550(7) 0.4389(4)
loop_
_geom_bond_atom_site_label_1
_geom_bond_atom_site_label_2
_geom_bond_site_symmetry_1
_geom_bond_site_symmetry_2
Zn1 N1 1_555 1_555
Zn2 N3 1_555 1_555
O1 C12 1_555 1_555
O2 C26 1_555 1_555
O3 C33 1_555 1_555
N1 C1 1_555 1_555
N2 Zn1 1_555 1_555
N3 C15 1_555 1_555
N4 Zn2 1_555 1_555
N5 C29 1_555 1_555
N6 C30 1_555 1_555
C1 C2 1_555 1_555
C2 H1 1_555 1_555
C3 C2 1_555 1_555
H2 C3 1_555 1_555
C4 C3 1_555 1_555
C5 C4 1_555 1_555
H3 C5 1_555 1_555
C6 C1 1_555 1_555
H4 C6 1_555 1_555
C7 C4 1_555 1_555
H5 C7 1_555 1_555
H6 C7 1_555 1_555
H7 C7 1_555 1_555
C8 N1 1_555 1_555
H8 C8 1_555 1_555
C9 N2 1_555 1_555
C10 C9 1_555 1_555
H9 C10 1_555 1_555
C11 C10 1_555 1_555
H10 C11 1_555 1_555
C12 C11 1_555 1_555
C13 N2 1_555 1_555
H11 C13 1_555 1_555
C14 O1 1_555 1_555
H12 C14 1_555 1_555
H13 C14 1_555 1_555
C15 C16 1_555 1_555
C16 H14 1_555 1_555
C17 C16 1_555 1_555
H15 C17 1_555 1_555
C18 C17 1_555 1_555
C19 C18 1_555 1_555
H16 C19 1_555 1_555
C20 C15 1_555 1_555
H17 C20 1_555 1_555
C21 C18 1_555 1_555
H18 C21 1_555 1_555
H19 C21 1_555 1_555
H20 C21 1_555 1_555
C22 N3 1_555 1_555
H21 C22 1_555 1_555
C23 N4 1_555 1_555
C24 C23 1_555 1_555
H22 C24 1_555 1_555
C25 C24 1_555 1_555
H23 C25 1_555 1_555
C26 C25 1_555 1_555
C27 N4 1_555 1_555
H24 C27 1_555 1_555
C28 O2 1_555 1_555
H25 C28 1_555 1_555
H26 C28 1_555 1_555
C29 H27 1_555 1_555
C30 C29 1_555 1_555
C31 C30 1_555 1_555
H28 C31 1_555 1_555
C32 C31 1_555 1_555
H29 C32 1_555 1_555
C33 C32 1_555 1_555
C34 N6 1_555 1_555
H30 C34 1_555 1_555
C35 O3 1_555 1_555
H31 C35 1_555 1_555
H32 C35 1_555 1_555
C36 C14 1_555 1_555
C37 C36 1_555 1_555
H33 C37 1_555 1_555
H34 C37 1_555 1_555
H35 C37 1_555 1_555
C38 N5 1_555 1_555
C39 C38 1_555 1_555
H36 C39 1_555 1_555
C40 C39 1_555 1_555
H37 C40 1_555 1_555
C41 C40 1_555 1_555
C42 C41 1_555 1_555
H38 C42 1_555 1_555
C43 C38 1_555 1_555
H39 C43 1_555 1_555
C44 C41 1_555 1_555
H40 C44 1_555 1_555
H41 C44 1_555 1_555
H42 C44 1_555 1_555
O4 C56 1_555 1_555
N7 Zn2 1_555 1_555
N8 Zn2 1_555 1_555
C45 N7 1_555 1_555
C46 C45 1_555 1_555
H43 C46 1_555 1_555
C47 C46 1_555 1_555
H44 C47 1_555 1_555
C48 C47 1_555 1_555
C49 C48 1_555 1_555
H45 C49 1_555 1_555
C50 C45 1_555 1_555
H46 C50 1_555 1_555
C51 C48 1_555 1_555
H47 C51 1_555 1_555
H48 C51 1_555 1_555
H49 C51 1_555 1_555
C52 N7 1_555 1_555
H50 C52 1_555 1_555
C53 N8 1_555 1_555
C54 C53 1_555 1_555
H51 C54 1_555 1_555
C55 C54 1_555 1_555
H52 C55 1_555 1_555
C56 C55 1_555 1_555
C57 N8 1_555 1_555
H53 C57 1_555 1_555
C58 O4 1_555 1_555
H54 C58 1_555 1_555
H55 C58 1_555 1_555
C59 C58 1_555 1_555
C60 C59 1_555 1_555
H56 C60 1_555 1_555
Zn3 N11 1_555 1_555
Zn4 N9 1_555 1_555
O5 C72 1_555 1_555
O6 C86 1_555 1_555
O7 C100 1_555 1_555
N9 C61 1_555 1_555
N10 Zn4 1_555 1_555
N11 C75 1_555 1_555
N12 Zn3 1_555 1_555
N13 C89 1_555 1_555
N14 C97 1_555 1_555
C61 C62 1_555 1_555
C62 H57 1_555 1_555
C63 C62 1_555 1_555
H58 C63 1_555 1_555
C64 C63 1_555 1_555
C65 C64 1_555 1_555
H59 C65 1_555 1_555
C66 C61 1_555 1_555
H60 C66 1_555 1_555
C67 C64 1_555 1_555
H61 C67 1_555 1_555
H62 C67 1_555 1_555
H63 C67 1_555 1_555
C68 N9 1_555 1_555
H64 C68 1_555 1_555
C69 N10 1_555 1_555
C70 C69 1_555 1_555
H65 C70 1_555 1_555
C71 C70 1_555 1_555
H66 C71 1_555 1_555
C72 C71 1_555 1_555
C73 N10 1_555 1_555
H67 C73 1_555 1_555
C74 O5 1_555 1_555
H68 C74 1_555 1_555
H69 C74 1_555 1_555
C75 C76 1_555 1_555
C76 H70 1_555 1_555
C77 C76 1_555 1_555
H71 C77 1_555 1_555
C78 C77 1_555 1_555
C79 C78 1_555 1_555
H72 C79 1_555 1_555
C80 C75 1_555 1_555
H73 C80 1_555 1_555
C81 C78 1_555 1_555
H74 C81 1_555 1_555
H75 C81 1_555 1_555
H76 C81 1_555 1_555
C82 N11 1_555 1_555
H77 C82 1_555 1_555
C83 N12 1_555 1_555
C84 C83 1_555 1_555
H78 C84 1_555 1_555
C85 C84 1_555 1_555
H79 C85 1_555 1_555
C86 C85 1_555 1_555
C87 N12 1_555 1_555
H80 C87 1_555 1_555
C88 O6 1_555 1_555
H81 C88 1_555 1_555
H82 C88 1_555 1_555
C89 C90 1_555 1_555
C90 H83 1_555 1_555
C91 C90 1_555 1_555
H84 C91 1_555 1_555
C92 C91 1_555 1_555
C93 C92 1_555 1_555
H85 C93 1_555 1_555
C94 C89 1_555 1_555
H86 C94 1_555 1_555
C95 C92 1_555 1_555
H87 C95 1_555 1_555
H88 C95 1_555 1_555
H89 C95 1_555 1_555
C96 N13 1_555 1_555
H90 C96 1_555 1_555
C97 C96 1_555 1_555
C98 C97 1_555 1_555
H91 C98 1_555 1_555
C99 C98 1_555 1_555
H92 C99 1_555 1_555
C100 C99 1_555 1_555
C101 N14 1_555 1_555
H93 C101 1_555 1_555
C102 O7 1_555 1_555
H94 C102 1_555 1_555
H95 C102 1_555 1_555
C103 C74 1_555 1_555
C104 C103 1_555 1_555
H96 C104 1_555 1_555
H97 C104 1_555 1_555
H98 C104 1_555 1_555
O8 C116 1_555 1_555
N15 Zn3 1_555 1_555
N16 Zn3 1_555 1_555
C105 N15 1_555 1_555
C106 C105 1_555 1_555
H99 C106 1_555 1_555
C107 C106 1_555 1_555
H100 C107 1_555 1_555
C108 C107 1_555 1_555
C109 C108 1_555 1_555
H101 C109 1_555 1_555
C110 C105 1_555 1_555
H102 C110 1_555 1_555
C111 C108 1_555 1_555
H103 C111 1_555 1_555
H104 C111 1_555 1_555
H105 C111 1_555 1_555
C112 N15 1_555 1_555
H106 C112 1_555 1_555
C113 N16 1_555 1_555
C114 C113 1_555 1_555
H107 C114 1_555 1_555
C115 C114 1_555 1_555
H108 C115 1_555 1_555
C116 C115 1_555 1_555
C117 N16 1_555 1_555
H109 C117 1_555 1_555
C118 O8 1_555 1_555
H110 C118 1_555 1_555
H111 C118 1_555 1_555
C119 C118 1_555 1_555
C120 C119 1_555 1_555
H112 C120 1_555 1_555
S1 O9 1_555 1_555
O10 S1 1_555 1_555
O11 S1 1_555 1_555
C121 S1 1_555 1_555
F1 C121 1_555 1_555
F2 C121 1_555 1_555
F3 C121 1_555 1_555
S2 O12 1_555 1_555
O13 S2 1_555 1_555
O14 S2 1_555 1_555
C122 S2 1_555 1_555
F4 C122 1_555 1_555
F5 C122 1_555 1_555
F6 C122 1_555 1_555
S3 O15 1_555 1_555
O16 S3 1_555 1_555
O17 S3 1_555 1_555
C123 S3 1_555 1_555
F7 C123 1_555 1_555
F8 C123 1_555 1_555
F9 C123 1_555 1_555
S4 O18 1_555 1_555
O19 S4 1_555 1_555
O20 S4 1_555 1_555
C124 S4 1_555 1_555
F10 C124 1_555 1_555
F11 C124 1_555 1_555
F12 C124 1_555 1_555
N17 C125 1_555 1_555
C125 C126 1_555 1_555
C126 H113 1_555 1_555
H114 C126 1_555 1_555
H115 C126 1_555 1_555
N18 C127 1_555 1_555
C127 C128 1_555 1_555
C128 H116 1_555 1_555
H117 C128 1_555 1_555
H118 C128 1_555 1_555
S5 C129 1_555 1_555
C129 F13 1_555 1_555
O21 S5 1_555 1_555
O4A C56A 1_555 1_555
N7A C45A 1_555 1_555
N8A C53A 1_555 1_555
C45A C46A 1_555 1_555
C46A H43A 1_555 1_555
C47A C46A 1_555 1_555
H44A C47A 1_555 1_555
C48A C47A 1_555 1_555
C49A C48A 1_555 1_555
H45A C49A 1_555 1_555
C50A C45A 1_555 1_555
H46A C50A 1_555 1_555
C51A C48A 1_555 1_555
H47A C51A 1_555 1_555
H48A C51A 1_555 1_555
H49A C51A 1_555 1_555
C52A N7A 1_555 1_555
H50A C52A 1_555 1_555
C53A C52A 1_555 1_555
C54A C53A 1_555 1_555
H51A C54A 1_555 1_555
C55A C54A 1_555 1_555
H52A C55A 1_555 1_555
C56A C55A 1_555 1_555
C57A N8A 1_555 1_555
H53A C57A 1_555 1_555
C58A C59 1_555 1_555
H54A C58A 1_555 1_555
H55A C58A 1_555 1_555
H56A C60 1_555 1_555
O4B C56B 1_555 1_555
N7B C45B 1_555 1_555
N8B C53B 1_555 1_555
C45B C46B 1_555 1_555
C46B H43B 1_555 1_555
C47B C46B 1_555 1_555
H44B C47B 1_555 1_555
C48B C47B 1_555 1_555
C49B C48B 1_555 1_555
H45B C49B 1_555 1_555
C50B C45B 1_555 1_555
H46B C50B 1_555 1_555
C51B C48B 1_555 1_555
H47B C51B 1_555 1_555
H48B C51B 1_555 1_555
H49B C51B 1_555 1_555
C52B N7B 1_555 1_555
H50B C52B 1_555 1_555
C53B C52B 1_555 1_555
C54B C53B 1_555 1_555
H51B C54B 1_555 1_555
C55B C54B 1_555 1_555
H52B C55B 1_555 1_555
C56B C55B 1_555 1_555
C57B N8B 1_555 1_555
H53B C57B 1_555 1_555
C58B C59 1_555 1_555
H54B C58B 1_555 1_555
H55B C58B 1_555 1_555
H56B C60 1_555 1_555
Zn2A N5 1_555 1_555
O1A C12A 1_555 1_555
O2A C26A 1_555 1_555
O3A C33A 1_555 1_555
N1A Zn1 1_555 1_555
N2A Zn1 1_555 1_555
N3A Zn2A 1_555 1_555
N4A Zn2A 1_555 1_555
N5A C29A 1_555 1_555
N6A C30A 1_555 1_555
C1A N1A 1_555 1_555
C2A C1A 1_555 1_555
H1A C2A 1_555 1_555
C3A C2A 1_555 1_555
H2A C3A 1_555 1_555
C4A C3A 1_555 1_555
C5A C4A 1_555 1_555
H3A C5A 1_555 1_555
C6A C1A 1_555 1_555
H4A C6A 1_555 1_555
C7A C4A 1_555 1_555
H5A C7A 1_555 1_555
H6A C7A 1_555 1_555
H7A C7A 1_555 1_555
C8A N1A 1_555 1_555
H8A C8A 1_555 1_555
C9A N2A 1_555 1_555
C10A C9A 1_555 1_555
H9A C10A 1_555 1_555
C11A C10A 1_555 1_555
H10A C11A 1_555 1_555
C12A C11A 1_555 1_555
C13A N2A 1_555 1_555
H11A C13A 1_555 1_555
C14A O1A 1_555 1_555
H12A C14A 1_555 1_555
H13A C14A 1_555 1_555
C15A N3A 1_555 1_555
C16A C15A 1_555 1_555
H14A C16A 1_555 1_555
C17A C16A 1_555 1_555
H15A C17A 1_555 1_555
C18A C17A 1_555 1_555
C19A C18A 1_555 1_555
H16A C19A 1_555 1_555
C20A C15A 1_555 1_555
H17A C20A 1_555 1_555
C21A C18A 1_555 1_555
H18A C21A 1_555 1_555
H19A C21A 1_555 1_555
H20A C21A 1_555 1_555
C22A N3A 1_555 1_555
H21A C22A 1_555 1_555
C23A N4A 1_555 1_555
C24A C23A 1_555 1_555
H22A C24A 1_555 1_555
C25A C24A 1_555 1_555
H23A C25A 1_555 1_555
C26A C25A 1_555 1_555
C27A N4A 1_555 1_555
H24A C27A 1_555 1_555
C28A O2A 1_555 1_555
H25A C28A 1_555 1_555
H26A C28A 1_555 1_555
C29A H27A 1_555 1_555
C30A C29A 1_555 1_555
C31A C30A 1_555 1_555
H28A C31A 1_555 1_555
C32A C31A 1_555 1_555
H29A C32A 1_555 1_555
C33A C32A 1_555 1_555
C34A N6A 1_555 1_555
H30A C34A 1_555 1_555
C35A O3A 1_555 1_555
H31A C35A 1_555 1_555
H32A C35A 1_555 1_555
C36A C14A 1_555 1_555
C37A C36A 1_555 1_555
H33A C37A 1_555 1_555
H34A C37A 1_555 1_555
H35A C37A 1_555 1_555
C38A N5A 1_555 1_555
C39A C38A 1_555 1_555
H36A C39A 1_555 1_555
C40A C39A 1_555 1_555
H37A C40A 1_555 1_555
C41A C40A 1_555 1_555
C42A C41A 1_555 1_555
H38A C42A 1_555 1_555
C43A C38A 1_555 1_555
H39A C43A 1_555 1_555
C44A C41A 1_555 1_555
H40A C44A 1_555 1_555
H41A C44A 1_555 1_555
H42A C44A 1_555 1_555
Zn2B N7B 1_555 1_555
O1B C12B 1_555 1_555
O2B C26B 1_555 1_555
O3B C33B 1_555 1_555
N1B Zn1 1_555 1_555
N2B Zn1 1_555 1_555
N3B Zn2B 1_555 1_555
N4B Zn2B 1_555 1_555
N5B Zn2 1_555 1_555
N6B Zn2 1_555 1_555
C1B N1B 1_555 1_555
C2B C1B 1_555 1_555
H1B C2B 1_555 1_555
C3B C2B 1_555 1_555
H2B C3B 1_555 1_555
C4B C3B 1_555 1_555
C5B C4B 1_555 1_555
H3B C5B 1_555 1_555
C6B C1B 1_555 1_555
H4B C6B 1_555 1_555
C7B C4B 1_555 1_555
H5B C7B 1_555 1_555
H6B C7B 1_555 1_555
H7B C7B 1_555 1_555
C8B N1B 1_555 1_555
H8B C8B 1_555 1_555
C9B N2B 1_555 1_555
C10B C9B 1_555 1_555
H9B C10B 1_555 1_555
C11B C10B 1_555 1_555
H10B C11B 1_555 1_555
C12B C11B 1_555 1_555
C13B N2B 1_555 1_555
H11B C13B 1_555 1_555
C14B O1B 1_555 1_555
H12B C14B 1_555 1_555
H13B C14B 1_555 1_555
C15B N3B 1_555 1_555
C16B C15B 1_555 1_555
H14B C16B 1_555 1_555
C17B C16B 1_555 1_555
H15B C17B 1_555 1_555
C18B C17B 1_555 1_555
C19B C18B 1_555 1_555
H16B C19B 1_555 1_555
C20B C15B 1_555 1_555
H17B C20B 1_555 1_555
C21B C18B 1_555 1_555
H18B C21B 1_555 1_555
H19B C21B 1_555 1_555
H20B C21B 1_555 1_555
C22B N3B 1_555 1_555
H21B C22B 1_555 1_555
C23B N4B 1_555 1_555
C24B C23B 1_555 1_555
H22B C24B 1_555 1_555
C25B C24B 1_555 1_555
H23B C25B 1_555 1_555
C26B C25B 1_555 1_555
C27B N4B 1_555 1_555
H24B C27B 1_555 1_555
C28B O2B 1_555 1_555
H25B C28B 1_555 1_555
H26B C28B 1_555 1_555
C29B N5B 1_555 1_555
H27B C29B 1_555 1_555
C30B N6B 1_555 1_555
C31B C30B 1_555 1_555
H28B C31B 1_555 1_555
C32B C31B 1_555 1_555
H29B C32B 1_555 1_555
C33B C32B 1_555 1_555
C34B N6B 1_555 1_555
H30B C34B 1_555 1_555
C35B O3B 1_555 1_555
H31B C35B 1_555 1_555
H32B C35B 1_555 1_555
C36B C14B 1_555 1_555
C37B C36B 1_555 1_555
H33B C37B 1_555 1_555
H34B C37B 1_555 1_555
H35B C37B 1_555 1_555
C38B N5B 1_555 1_555
C39B C38B 1_555 1_555
H36B C39B 1_555 1_555
C40B C39B 1_555 1_555
H37B C40B 1_555 1_555
C41B C40B 1_555 1_555
C42B C41B 1_555 1_555
H38B C42B 1_555 1_555
C43B C38B 1_555 1_555
H39B C43B 1_555 1_555
C44B C41B 1_555 1_555
H40B C44B 1_555 1_555
H41B C44B 1_555 1_555
H42B C44B 1_555 1_555
O8A C116A 1_555 1_555
N15A C105A 1_555 1_555
N16A C113A 1_555 1_555
C105A C106A 1_555 1_555
C106A H99A 1_555 1_555
C107A C106A 1_555 1_555
H100A C107A 1_555 1_555
C108A C107A 1_555 1_555
C109A C108A 1_555 1_555
H101A C109A 1_555 1_555
C110A C105A 1_555 1_555
H102A C110A 1_555 1_555
C111A C108A 1_555 1_555
H103A C111A 1_555 1_555
H104A C111A 1_555 1_555
H105A C111A 1_555 1_555
C112A N15A 1_555 1_555
H106A C112A 1_555 1_555
C113A C112A 1_555 1_555
C114A C113A 1_555 1_555
H107A C114A 1_555 1_555
C115A C114A 1_555 1_555
H108A C115A 1_555 1_555
C116A C115A 1_555 1_555
C117A N16A 1_555 1_555
H109A C117A 1_555 1_555
C118A C119 1_555 1_555
H110A C118A 1_555 1_555
H111A C118A 1_555 1_555
H112A C120 1_555 1_555
O8B C116B 1_555 1_555
N15B C105B 1_555 1_555
N16B C113B 1_555 1_555
C105B C106B 1_555 1_555
C106B H99B 1_555 1_555
C107B C106B 1_555 1_555
H100B C107B 1_555 1_555
C108B C107B 1_555 1_555
C109B C108B 1_555 1_555
H101B C109B 1_555 1_555
C110B C105B 1_555 1_555
H102B C110B 1_555 1_555
C111B C108B 1_555 1_555
H103B C111B 1_555 1_555
H104B C111B 1_555 1_555
H105B C111B 1_555 1_555
C112B N15B 1_555 1_555
H106B C112B 1_555 1_555
C113B C112B 1_555 1_555
C114B C113B 1_555 1_555
H107B C114B 1_555 1_555
C115B C114B 1_555 1_555
H108B C115B 1_555 1_555
C116B C115B 1_555 1_555
C117B N16B 1_555 1_555
H109B C117B 1_555 1_555
C118B C119 1_555 1_555
H110B C118B 1_555 1_555
H111B C118B 1_555 1_555
H112B C120 1_555 1_555
Zn3A N13 1_555 1_555
O5A C72A 1_555 1_555
O6A C86A 1_555 1_555
O7A C100A 1_555 1_555
N9A Zn4 1_555 1_555
N10A Zn4 1_555 1_555
N11A Zn3A 1_555 1_555
N12A Zn3A 1_555 1_555
N13A C89A 1_555 1_555
N14A C97A 1_555 1_555
C61A N9A 1_555 1_555
C62A C61A 1_555 1_555
H57A C62A 1_555 1_555
C63A C62A 1_555 1_555
H58A C63A 1_555 1_555
C64A C63A 1_555 1_555
C65A C64A 1_555 1_555
H59A C65A 1_555 1_555
C66A C61A 1_555 1_555
H60A C66A 1_555 1_555
C67A C64A 1_555 1_555
H61A C67A 1_555 1_555
H62A C67A 1_555 1_555
H63A C67A 1_555 1_555
C68A N9A 1_555 1_555
H64A C68A 1_555 1_555
C69A N10A 1_555 1_555
C70A C69A 1_555 1_555
H65A C70A 1_555 1_555
C71A C70A 1_555 1_555
H66A C71A 1_555 1_555
C72A C71A 1_555 1_555
C73A N10A 1_555 1_555
H67A C73A 1_555 1_555
C74A O5A 1_555 1_555
H68A C74A 1_555 1_555
H69A C74A 1_555 1_555
C75A N11A 1_555 1_555
C76A C75A 1_555 1_555
H70A C76A 1_555 1_555
C77A C76A 1_555 1_555
H71A C77A 1_555 1_555
C78A C77A 1_555 1_555
C79A C78A 1_555 1_555
H72A C79A 1_555 1_555
C80A C75A 1_555 1_555
H73A C80A 1_555 1_555
C81A C78A 1_555 1_555
H74A C81A 1_555 1_555
H75A C81A 1_555 1_555
H76A C81A 1_555 1_555
C82A N11A 1_555 1_555
H77A C82A 1_555 1_555
C83A N12A 1_555 1_555
C84A C83A 1_555 1_555
H78A C84A 1_555 1_555
C85A C84A 1_555 1_555
H79A C85A 1_555 1_555
C86A C85A 1_555 1_555
C87A N12A 1_555 1_555
H80A C87A 1_555 1_555
C88A O6A 1_555 1_555
H81A C88A 1_555 1_555
H82A C88A 1_555 1_555
C89A C90A 1_555 1_555
C90A H83A 1_555 1_555
C91A C90A 1_555 1_555
H84A C91A 1_555 1_555
C92A C91A 1_555 1_555
C93A C92A 1_555 1_555
H85A C93A 1_555 1_555
C94A C89A 1_555 1_555
H86A C94A 1_555 1_555
C95A C92A 1_555 1_555
H87A C95A 1_555 1_555
H88A C95A 1_555 1_555
H89A C95A 1_555 1_555
C96A N13A 1_555 1_555
H90A C96A 1_555 1_555
C97A C96A 1_555 1_555
C98A C97A 1_555 1_555
H91A C98A 1_555 1_555
C99A C98A 1_555 1_555
H92A C99A 1_555 1_555
C100A C99A 1_555 1_555
C101A N14A 1_555 1_555
H93A C101A 1_555 1_555
C102A O7A 1_555 1_555
H94A C102A 1_555 1_555
H95A C102A 1_555 1_555
C103A C74A 1_555 1_555
C104A C103A 1_555 1_555
H96A C104A 1_555 1_555
H97A C104A 1_555 1_555
H98A C104A 1_555 1_555
Zn3B N15B 1_555 1_555
O5B C72B 1_555 1_555
O6B C86B 1_555 1_555
O7B C100B 1_555 1_555
N9B Zn4 1_555 1_555
N10B Zn4 1_555 1_555
N11B Zn3B 1_555 1_555
N12B Zn3B 1_555 1_555
N13B Zn3 1_555 1_555
N14B Zn3 1_555 1_555
C61B N9B 1_555 1_555
C62B C61B 1_555 1_555
H57B C62B 1_555 1_555
C63B C62B 1_555 1_555
H58B C63B 1_555 1_555
C64B C63B 1_555 1_555
C65B C64B 1_555 1_555
H59B C65B 1_555 1_555
C66B C61B 1_555 1_555
H60B C66B 1_555 1_555
C67B C64B 1_555 1_555
H61B C67B 1_555 1_555
H62B C67B 1_555 1_555
H63B C67B 1_555 1_555
C68B N9B 1_555 1_555
H64B C68B 1_555 1_555
C69B N10B 1_555 1_555
C70B C69B 1_555 1_555
H65B C70B 1_555 1_555
C71B C70B 1_555 1_555
H66B C71B 1_555 1_555
C72B C71B 1_555 1_555
C73B N10B 1_555 1_555
H67B C73B 1_555 1_555
C74B O5B 1_555 1_555
H68B C74B 1_555 1_555
H69B C74B 1_555 1_555
C75B N11B 1_555 1_555
C76B C75B 1_555 1_555
H70B C76B 1_555 1_555
C77B C76B 1_555 1_555
H71B C77B 1_555 1_555
C78B C77B 1_555 1_555
C79B C78B 1_555 1_555
H72B C79B 1_555 1_555
C80B C75B 1_555 1_555
H73B C80B 1_555 1_555
C81B C78B 1_555 1_555
H74B C81B 1_555 1_555
H75B C81B 1_555 1_555
H76B C81B 1_555 1_555
C82B N11B 1_555 1_555
H77B C82B 1_555 1_555
C83B N12B 1_555 1_555
C84B C83B 1_555 1_555
H78B C84B 1_555 1_555
C85B C84B 1_555 1_555
H79B C85B 1_555 1_555
C86B C85B 1_555 1_555
C87B N12B 1_555 1_555
H80B C87B 1_555 1_555
C88B O6B 1_555 1_555
H81B C88B 1_555 1_555
H82B C88B 1_555 1_555
C89B N13B 1_555 1_555
C90B C89B 1_555 1_555
H83B C90B 1_555 1_555
C91B C90B 1_555 1_555
H84B C91B 1_555 1_555
C92B C91B 1_555 1_555
C93B C92B 1_555 1_555
H85B C93B 1_555 1_555
C94B C89B 1_555 1_555
H86B C94B 1_555 1_555
C95B C92B 1_555 1_555
H87B C95B 1_555 1_555
H88B C95B 1_555 1_555
H89B C95B 1_555 1_555
C96B N13B 1_555 1_555
H90B C96B 1_555 1_555
C97B N14B 1_555 1_555
C98B C97B 1_555 1_555
H91B C98B 1_555 1_555
C99B C98B 1_555 1_555
H92B C99B 1_555 1_555
C100B C99B 1_555 1_555
C101B N14B 1_555 1_555
H93B C101B 1_555 1_555
C102B O7B 1_555 1_555
H94B C102B 1_555 1_555
H95B C102B 1_555 1_555
C103B C74B 1_555 1_555
C104B C103B 1_555 1_555
H96B C104B 1_555 1_555
H97B C104B 1_555 1_555
H98B C104B 1_555 1_555
O21A S5 1_555 1_555
F13A C129 1_555 1_555
O21B S5 1_555 1_555
F13B C129 1_555 1_555
N6 Zn2A 1_555 1_555
C5 C6 1_555 1_555
C8 C9 1_555 1_555
C12 C13 1_555 1_555
C19 C20 1_555 1_555
C22 C23 1_555 1_555
C26 C27 1_555 1_555
C28 C36 1_555 1_555
C33 C34 1_555 1_555
C35 C36 1_555 1_555
C42 C43 1_555 1_555
C49 C50 1_555 1_555
C52 C53 1_555 1_555
C56 C57 1_555 1_555
N14 Zn3A 1_555 1_555
C65 C66 1_555 1_555
C68 C69 1_555 1_555
C72 C73 1_555 1_555
C79 C80 1_555 1_555
C82 C83 1_555 1_555
C86 C87 1_555 1_555
C88 C103 1_555 1_555
C93 C94 1_555 1_555
C100 C101 1_555 1_555
C102 C103 1_555 1_555
C109 C110 1_555 1_555
C112 C113 1_555 1_555
C116 C117 1_555 1_555
O4A C58A 1_555 1_555
N7A Zn2A 1_555 1_555
N8A Zn2A 1_555 1_555
C49A C50A 1_555 1_555
C56A C57A 1_555 1_555
O4B C58B 1_555 1_555
N8B Zn2B 1_555 1_555
C49B C50B 1_555 1_555
C56B C57B 1_555 1_555
N5A Zn2B 1_555 1_555
N6A Zn2B 1_555 1_555
C5A C6A 1_555 1_555
C8A C9A 1_555 1_555
C12A C13A 1_555 1_555
C19A C20A 1_555 1_555
C22A C23A 1_555 1_555
C26A C27A 1_555 1_555
C28A C36A 1_555 1_555
C33A C34A 1_555 1_555
C35A C36A 1_555 1_555
C42A C43A 1_555 1_555
C5B C6B 1_555 1_555
C8B C9B 1_555 1_555
C12B C13B 1_555 1_555
C19B C20B 1_555 1_555
C22B C23B 1_555 1_555
C26B C27B 1_555 1_555
C28B C36B 1_555 1_555
C29B C30B 1_555 1_555
C33B C34B 1_555 1_555
C35B C36B 1_555 1_555
C42B C43B 1_555 1_555
O8A C118A 1_555 1_555
N15A Zn3A 1_555 1_555
N16A Zn3A 1_555 1_555
C109A C110A 1_555 1_555
C116A C117A 1_555 1_555
O8B C118B 1_555 1_555
N16B Zn3B 1_555 1_555
C109B C110B 1_555 1_555
C116B C117B 1_555 1_555
N13A Zn3B 1_555 1_555
N14A Zn3B 1_555 1_555
C65A C66A 1_555 1_555
C68A C69A 1_555 1_555
C72A C73A 1_555 1_555
C79A C80A 1_555 1_555
C82A C83A 1_555 1_555
C86A C87A 1_555 1_555
C88A C103A 1_555 1_555
C93A C94A 1_555 1_555
C100A C101A 1_555 1_555
C102A C103A 1_555 1_555
C65B C66B 1_555 1_555
C68B C69B 1_555 1_555
C72B C73B 1_555 1_555
C79B C80B 1_555 1_555
C82B C83B 1_555 1_555
C86B C87B 1_555 1_555
C88B C103B 1_555 1_555
C93B C94B 1_555 1_555
C96B C97B 1_555 1_555
C100B C101B 1_555 1_555
C102B C103B 1_555 1_555

#END
