# generated using pymatgen
data_Zn8H375C402S17N54(O25F17)3
_symmetry_space_group_name_H-M   'P 1'
_cell_length_a   27.04600000
_cell_length_b   27.04600000
_cell_length_c   37.53830000
_cell_angle_alpha   90.00000000
_cell_angle_beta   90.00000000
_cell_angle_gamma   120.00000000
_symmetry_Int_Tables_number   1
_chemical_formula_structural   Zn8H375C402S17N54(O25F17)3
_chemical_formula_sum   'Zn16 H750 C804 S34 N108 O150 F102'
_cell_volume   23779.97095834
_cell_formula_units_Z   2
loop_
 _symmetry_equiv_pos_site_id
 _symmetry_equiv_pos_as_xyz
  1  'x, y, z'
loop_
 _atom_site_type_symbol
 _atom_site_label
 _atom_site_symmetry_multiplicity
 _atom_site_fract_x
 _atom_site_fract_y
 _atom_site_fract_z
 _atom_site_occupancy
  Zn  Zn1  1  0.333333  0.666667  0.313340  1
  Zn  Zn2  1  0.666667  0.333333  0.813340  1
  Zn  Zn3  1  0.000000  0.000000  0.676590  1
  Zn  Zn4  1  0.000000  0.000000  0.176590  1
  Zn  Zn5  1  0.456340  0.955150  0.570330  1.0
  Zn  Zn6  1  0.498810  0.543660  0.570330  1.0
  Zn  Zn7  1  0.044850  0.501190  0.570330  1.0
  Zn  Zn8  1  0.543660  0.044850  0.070330  1.0
  Zn  Zn9  1  0.501190  0.456340  0.070330  1.0
  Zn  Zn10  1  0.955150  0.498810  0.070330  1.0
  Zn  Zn11  1  0.291190  0.177440  0.423540  1.0
  Zn  Zn12  1  0.886250  0.708810  0.423540  1.0
  Zn  Zn13  1  0.822560  0.113750  0.423540  1.0
  Zn  Zn14  1  0.708810  0.822560  0.923540  1.0
  Zn  Zn15  1  0.113750  0.291190  0.923540  1.0
  Zn  Zn16  1  0.177440  0.886250  0.923540  1.0
  H  H17  1  0.267200  0.867600  0.370700  1
  H  H18  1  0.600400  0.732800  0.370700  1
  H  H19  1  0.132400  0.399600  0.370700  1
  H  H20  1  0.732800  0.132400  0.870700  1
  H  H21  1  0.399600  0.267200  0.870700  1
  H  H22  1  0.867600  0.600400  0.870700  1
  H  H23  1  0.273300  0.857400  0.329400  1
  H  H24  1  0.584100  0.726700  0.329400  1
  H  H25  1  0.142600  0.415900  0.329400  1
  H  H26  1  0.726700  0.142600  0.829400  1
  H  H27  1  0.415900  0.273300  0.829400  1
  H  H28  1  0.857400  0.584100  0.829400  1
  H  H29  1  0.224800  0.807400  0.352800  1
  H  H30  1  0.582600  0.775200  0.352800  1
  H  H31  1  0.192600  0.417400  0.352800  1
  H  H32  1  0.775200  0.192600  0.852800  1
  H  H33  1  0.417400  0.224800  0.852800  1
  H  H34  1  0.807400  0.582600  0.852800  1
  H  H35  1  0.122200  0.864100  0.630000  1
  H  H36  1  0.741900  0.877800  0.630000  1
  H  H37  1  0.135900  0.258100  0.630000  1
  H  H38  1  0.877800  0.135900  0.130000  1
  H  H39  1  0.258100  0.122200  0.130000  1
  H  H40  1  0.864100  0.741900  0.130000  1
  H  H41  1  0.080000  0.833800  0.662900  1
  H  H42  1  0.753800  0.920000  0.662900  1
  H  H43  1  0.166200  0.246200  0.662900  1
  H  H44  1  0.920000  0.166200  0.162900  1
  H  H45  1  0.246200  0.080000  0.162900  1
  H  H46  1  0.833800  0.753800  0.162900  1
  H  H47  1  0.071600  0.799400  0.626600  1
  H  H48  1  0.727800  0.928400  0.626600  1
  H  H49  1  0.200600  0.272200  0.626600  1
  H  H50  1  0.928400  0.200600  0.126600  1
  H  H51  1  0.272200  0.071600  0.126600  1
  H  H52  1  0.799400  0.727800  0.126600  1
  H  H53  1  0.589300  0.508400  0.625200  1
  H  H54  1  0.919100  0.410700  0.625200  1
  H  H55  1  0.491600  0.080900  0.625200  1
  H  H56  1  0.410700  0.491600  0.125200  1
  H  H57  1  0.080900  0.589300  0.125200  1
  H  H58  1  0.508400  0.919100  0.125200  1
  H  H59  1  0.593400  0.455800  0.673300  1
  H  H60  1  0.862400  0.406600  0.673300  1
  H  H61  1  0.544200  0.137600  0.673300  1
  H  H62  1  0.406600  0.544200  0.173300  1
  H  H63  1  0.137600  0.593400  0.173300  1
  H  H64  1  0.455800  0.862400  0.173300  1
  H  H65  1  0.500200  0.504800  0.732900  1
  H  H66  1  0.004600  0.499800  0.732900  1
  H  H67  1  0.495200  0.995400  0.732900  1
  H  H68  1  0.499800  0.495200  0.232900  1
  H  H69  1  0.995400  0.500200  0.232900  1
  H  H70  1  0.504800  0.004600  0.232900  1
  H  H71  1  0.496000  0.557500  0.684800  1
  H  H72  1  0.061500  0.504000  0.684800  1
  H  H73  1  0.442500  0.938500  0.684800  1
  H  H74  1  0.504000  0.442500  0.184800  1
  H  H75  1  0.938500  0.496000  0.184800  1
  H  H76  1  0.557500  0.061500  0.184800  1
  H  H77  1  0.524000  0.401300  0.736500  1
  H  H78  1  0.877300  0.476000  0.736500  1
  H  H79  1  0.598700  0.122700  0.736500  1
  H  H80  1  0.476000  0.598700  0.236500  1
  H  H81  1  0.122700  0.524000  0.236500  1
  H  H82  1  0.401300  0.877300  0.236500  1
  H  H83  1  0.542500  0.455700  0.761600  1
  H  H84  1  0.913200  0.457500  0.761600  1
  H  H85  1  0.544300  0.086800  0.761600  1
  H  H86  1  0.457500  0.544300  0.261600  1
  H  H87  1  0.086800  0.542500  0.261600  1
  H  H88  1  0.455700  0.913200  0.261600  1
  H  H89  1  0.590100  0.447900  0.741200  1
  H  H90  1  0.857800  0.409900  0.741200  1
  H  H91  1  0.552100  0.142200  0.741200  1
  H  H92  1  0.409900  0.552100  0.241200  1
  H  H93  1  0.142200  0.590100  0.241200  1
  H  H94  1  0.447900  0.857800  0.241200  1
  H  H95  1  0.248200  0.490300  0.298800  1.0
  H  H96  1  0.242100  0.751800  0.298800  1.0
  H  H97  1  0.509700  0.757900  0.298800  1.0
  H  H98  1  0.751800  0.509700  0.798800  1.0
  H  H99  1  0.757900  0.248200  0.798800  1.0
  H  H100  1  0.490300  0.242100  0.798800  1.0
  H  H101  1  0.175300  0.430600  0.259800  1.0
  H  H102  1  0.255300  0.824700  0.259800  1.0
  H  H103  1  0.569400  0.744700  0.259800  1.0
  H  H104  1  0.824700  0.569400  0.759800  1.0
  H  H105  1  0.744700  0.175300  0.759800  1.0
  H  H106  1  0.430600  0.255300  0.759800  1.0
  H  H107  1  0.249800  0.549800  0.183200  1.0
  H  H108  1  0.300000  0.750200  0.183200  1.0
  H  H109  1  0.450200  0.700000  0.183200  1.0
  H  H110  1  0.750200  0.450200  0.683200  1.0
  H  H111  1  0.700000  0.249800  0.683200  1.0
  H  H112  1  0.549800  0.300000  0.683200  1.0
  H  H113  1  0.320800  0.606900  0.222200  1.0
  H  H114  1  0.286100  0.679200  0.222200  1.0
  H  H115  1  0.393100  0.713900  0.222200  1.0
  H  H116  1  0.679200  0.393100  0.722200  1.0
  H  H117  1  0.713900  0.320800  0.722200  1.0
  H  H118  1  0.606900  0.286100  0.722200  1.0
  H  H119  1  0.158700  0.417300  0.185300  1.0
  H  H120  1  0.258600  0.841300  0.185300  1.0
  H  H121  1  0.582700  0.741400  0.185300  1.0
  H  H122  1  0.841300  0.582700  0.685300  1.0
  H  H123  1  0.741400  0.158700  0.685300  1.0
  H  H124  1  0.417300  0.258600  0.685300  1.0
  H  H125  1  0.160700  0.474000  0.170800  1.0
  H  H126  1  0.313300  0.839300  0.170800  1.0
  H  H127  1  0.526000  0.686700  0.170800  1.0
  H  H128  1  0.839300  0.526000  0.670800  1.0
  H  H129  1  0.686700  0.160700  0.670800  1.0
  H  H130  1  0.474000  0.313300  0.670800  1.0
  H  H131  1  0.120100  0.439700  0.203600  1.0
  H  H132  1  0.319600  0.879900  0.203600  1.0
  H  H133  1  0.560300  0.680400  0.203600  1.0
  H  H134  1  0.879900  0.560300  0.703600  1.0
  H  H135  1  0.680400  0.120100  0.703600  1.0
  H  H136  1  0.439700  0.319600  0.703600  1.0
  H  H137  1  0.359000  0.540400  0.299500  1.0
  H  H138  1  0.181400  0.641000  0.299500  1.0
  H  H139  1  0.459600  0.818600  0.299500  1.0
  H  H140  1  0.641000  0.459600  0.799500  1.0
  H  H141  1  0.818600  0.359000  0.799500  1.0
  H  H142  1  0.540400  0.181400  0.799500  1.0
  H  H143  1  0.438100  0.564800  0.343300  1.0
  H  H144  1  0.126700  0.561900  0.343300  1.0
  H  H145  1  0.435200  0.873300  0.343300  1.0
  H  H146  1  0.561900  0.435200  0.843300  1.0
  H  H147  1  0.873300  0.438100  0.843300  1.0
  H  H148  1  0.564800  0.126700  0.843300  1.0
  H  H149  1  0.499000  0.624900  0.389900  1.0
  H  H150  1  0.125900  0.501000  0.389900  1.0
  H  H151  1  0.375100  0.874100  0.389900  1.0
  H  H152  1  0.501000  0.375100  0.889900  1.0
  H  H153  1  0.874100  0.499000  0.889900  1.0
  H  H154  1  0.624900  0.125900  0.889900  1.0
  H  H155  1  0.422600  0.720700  0.379000  1.0
  H  H156  1  0.298100  0.577400  0.379000  1.0
  H  H157  1  0.279300  0.701900  0.379000  1.0
  H  H158  1  0.577400  0.279300  0.879000  1.0
  H  H159  1  0.701900  0.422600  0.879000  1.0
  H  H160  1  0.720700  0.298100  0.879000  1.0
  H  H161  1  0.449700  0.738700  0.438400  1.0
  H  H162  1  0.289000  0.550300  0.438400  1.0
  H  H163  1  0.261300  0.711000  0.438400  1.0
  H  H164  1  0.550300  0.261300  0.938400  1.0
  H  H165  1  0.711000  0.449700  0.938400  1.0
  H  H166  1  0.738700  0.289000  0.938400  1.0
  H  H167  1  0.497200  0.784200  0.411700  1.0
  H  H168  1  0.287000  0.502800  0.411700  1.0
  H  H169  1  0.215800  0.713000  0.411700  1.0
  H  H170  1  0.502800  0.215800  0.911700  1.0
  H  H171  1  0.713000  0.497200  0.911700  1.0
  H  H172  1  0.784200  0.287000  0.911700  1.0
  H  H173  1  0.528200  0.125300  0.550000  1.0
  H  H174  1  0.597100  0.471800  0.550000  1.0
  H  H175  1  0.874700  0.402900  0.550000  1.0
  H  H176  1  0.471800  0.874700  0.050000  1.0
  H  H177  1  0.402900  0.528200  0.050000  1.0
  H  H178  1  0.125300  0.597100  0.050000  1.0
  H  H179  1  0.522700  0.198400  0.580500  1.0
  H  H180  1  0.675700  0.477300  0.580500  1.0
  H  H181  1  0.801600  0.324300  0.580500  1.0
  H  H182  1  0.477300  0.801600  0.080500  1.0
  H  H183  1  0.324300  0.522700  0.080500  1.0
  H  H184  1  0.198400  0.675700  0.080500  1.0
  H  H185  1  0.354000  0.090900  0.595800  1.0
  H  H186  1  0.736900  0.646000  0.595800  1.0
  H  H187  1  0.909100  0.263100  0.595800  1.0
  H  H188  1  0.646000  0.909100  0.095800  1.0
  H  H189  1  0.263100  0.354000  0.095800  1.0
  H  H190  1  0.090900  0.736900  0.095800  1.0
  H  H191  1  0.361900  0.017000  0.570600  1.0
  H  H192  1  0.655100  0.638100  0.570600  1.0
  H  H193  1  0.983000  0.344900  0.570600  1.0
  H  H194  1  0.638100  0.983000  0.070600  1.0
  H  H195  1  0.344900  0.361900  0.070600  1.0
  H  H196  1  0.017000  0.655100  0.070600  1.0
  H  H197  1  0.406400  0.207900  0.595600  1.0
  H  H198  1  0.801500  0.593600  0.595600  1.0
  H  H199  1  0.792100  0.198500  0.595600  1.0
  H  H200  1  0.593600  0.792100  0.095600  1.0
  H  H201  1  0.198500  0.406400  0.095600  1.0
  H  H202  1  0.207900  0.801500  0.095600  1.0
  H  H203  1  0.469700  0.233000  0.611100  1.0
  H  H204  1  0.763300  0.530300  0.611100  1.0
  H  H205  1  0.767000  0.236700  0.611100  1.0
  H  H206  1  0.530300  0.767000  0.111100  1.0
  H  H207  1  0.236700  0.469700  0.111100  1.0
  H  H208  1  0.233000  0.763300  0.111100  1.0
  H  H209  1  0.416100  0.185800  0.633100  1.0
  H  H210  1  0.769700  0.583900  0.633100  1.0
  H  H211  1  0.814200  0.230300  0.633100  1.0
  H  H212  1  0.583900  0.814200  0.133100  1.0
  H  H213  1  0.230300  0.416100  0.133100  1.0
  H  H214  1  0.185800  0.769700  0.133100  1.0
  H  H215  1  0.457300  0.045500  0.492300  1.0
  H  H216  1  0.588200  0.542700  0.492300  1.0
  H  H217  1  0.954500  0.411800  0.492300  1.0
  H  H218  1  0.542700  0.954500  0.992300  1.0
  H  H219  1  0.411800  0.457300  0.992300  1.0
  H  H220  1  0.045500  0.588200  0.992300  1.0
  H  H221  1  0.482500  0.001800  0.441100  1.0
  H  H222  1  0.519300  0.517500  0.441100  1.0
  H  H223  1  0.998200  0.480700  0.441100  1.0
  H  H224  1  0.517500  0.998200  0.941100  1.0
  H  H225  1  0.480700  0.482500  0.941100  1.0
  H  H226  1  0.001800  0.519300  0.941100  1.0
  H  H227  1  0.500800  0.929800  0.419600  1.0
  H  H228  1  0.429000  0.499200  0.419600  1.0
  H  H229  1  0.070200  0.571000  0.419600  1.0
  H  H230  1  0.499200  0.070200  0.919600  1.0
  H  H231  1  0.571000  0.500800  0.919600  1.0
  H  H232  1  0.929800  0.429000  0.919600  1.0
  H  H233  1  0.480500  0.870500  0.521200  1.0
  H  H234  1  0.390000  0.519500  0.521200  1.0
  H  H235  1  0.129500  0.610000  0.521200  1.0
  H  H236  1  0.519500  0.129500  0.021200  1.0
  H  H237  1  0.610000  0.480500  0.021200  1.0
  H  H238  1  0.870500  0.390000  0.021200  1.0
  H  H239  1  0.473100  0.793200  0.492400  1.0
  H  H240  1  0.320100  0.526900  0.492400  1.0
  H  H241  1  0.206800  0.679900  0.492400  1.0
  H  H242  1  0.526900  0.206800  0.992400  1.0
  H  H243  1  0.679900  0.473100  0.992400  1.0
  H  H244  1  0.793200  0.320100  0.992400  1.0
  H  H245  1  0.538500  0.839800  0.500600  1.0
  H  H246  1  0.301300  0.461500  0.500600  1.0
  H  H247  1  0.160200  0.698700  0.500600  1.0
  H  H248  1  0.461500  0.160200  0.000600  1.0
  H  H249  1  0.698700  0.538500  0.000600  1.0
  H  H250  1  0.839800  0.301300  0.000600  1.0
  H  H251  1  0.588900  0.641700  0.645200  1.0
  H  H252  1  0.052800  0.411100  0.645200  1.0
  H  H253  1  0.358300  0.947200  0.645200  1.0
  H  H254  1  0.411100  0.358300  0.145200  1.0
  H  H255  1  0.947200  0.588900  0.145200  1.0
  H  H256  1  0.641700  0.052800  0.145200  1.0
  H  H257  1  0.612000  0.738500  0.622100  1.0
  H  H258  1  0.126500  0.388000  0.622100  1.0
  H  H259  1  0.261500  0.873500  0.622100  1.0
  H  H260  1  0.388000  0.261500  0.122100  1.0
  H  H261  1  0.873500  0.612000  0.122100  1.0
  H  H262  1  0.738500  0.126500  0.122100  1.0
  H  H263  1  0.602800  0.793300  0.577900  1.0
  H  H264  1  0.190500  0.397200  0.577900  1.0
  H  H265  1  0.206700  0.809500  0.577900  1.0
  H  H266  1  0.397200  0.206700  0.077900  1.0
  H  H267  1  0.809500  0.602800  0.077900  1.0
  H  H268  1  0.793300  0.190500  0.077900  1.0
  H  H269  1  0.507100  0.647400  0.521300  1.0
  H  H270  1  0.140300  0.492900  0.521300  1.0
  H  H271  1  0.352600  0.859700  0.521300  1.0
  H  H272  1  0.492900  0.352600  0.021300  1.0
  H  H273  1  0.859700  0.507100  0.021300  1.0
  H  H274  1  0.647400  0.140300  0.021300  1.0
  H  H275  1  0.483300  0.708100  0.491400  1.0
  H  H276  1  0.224800  0.516700  0.491400  1.0
  H  H277  1  0.291900  0.775200  0.491400  1.0
  H  H278  1  0.516700  0.291900  0.991400  1.0
  H  H279  1  0.775200  0.483300  0.991400  1.0
  H  H280  1  0.708100  0.224800  0.991400  1.0
  H  H281  1  0.539600  0.711800  0.474400  1.0
  H  H282  1  0.172200  0.460400  0.474400  1.0
  H  H283  1  0.288200  0.827800  0.474400  1.0
  H  H284  1  0.460400  0.288200  0.974400  1.0
  H  H285  1  0.827800  0.539600  0.974400  1.0
  H  H286  1  0.711800  0.172200  0.974400  1.0
  H  H287  1  0.618900  0.831000  0.469700  1.0
  H  H288  1  0.212100  0.381100  0.469700  1.0
  H  H289  1  0.169000  0.787900  0.469700  1.0
  H  H290  1  0.381100  0.169000  0.969700  1.0
  H  H291  1  0.787900  0.618900  0.969700  1.0
  H  H292  1  0.831000  0.212100  0.969700  1.0
  H  H293  1  0.598700  0.850700  0.435100  1.0
  H  H294  1  0.252000  0.401300  0.435100  1.0
  H  H295  1  0.149300  0.748000  0.435100  1.0
  H  H296  1  0.401300  0.149300  0.935100  1.0
  H  H297  1  0.748000  0.598700  0.935100  1.0
  H  H298  1  0.850700  0.252000  0.935100  1.0
  H  H299  1  0.603600  0.794200  0.433900  1.0
  H  H300  1  0.190600  0.396400  0.433900  1.0
  H  H301  1  0.205800  0.809400  0.433900  1.0
  H  H302  1  0.396400  0.205800  0.933900  1.0
  H  H303  1  0.809400  0.603600  0.933900  1.0
  H  H304  1  0.794200  0.190600  0.933900  1.0
  H  H305  1  0.636900  0.577900  0.642100  1.0
  H  H306  1  0.941000  0.363100  0.642100  1.0
  H  H307  1  0.422100  0.059000  0.642100  1.0
  H  H308  1  0.363100  0.422100  0.142100  1.0
  H  H309  1  0.059000  0.636900  0.142100  1.0
  H  H310  1  0.577900  0.941000  0.142100  1.0
  H  H311  1  0.650700  0.524300  0.685700  1.0
  H  H312  1  0.873600  0.349300  0.685700  1.0
  H  H313  1  0.475700  0.126400  0.685700  1.0
  H  H314  1  0.349300  0.475700  0.185700  1.0
  H  H315  1  0.126400  0.650700  0.185700  1.0
  H  H316  1  0.524300  0.873600  0.185700  1.0
  H  H317  1  0.479800  0.433600  0.703000  1.0
  H  H318  1  0.953800  0.520200  0.703000  1.0
  H  H319  1  0.566400  0.046200  0.703000  1.0
  H  H320  1  0.520200  0.566400  0.203000  1.0
  H  H321  1  0.046200  0.479800  0.203000  1.0
  H  H322  1  0.433600  0.953800  0.203000  1.0
  H  H323  1  0.465900  0.487200  0.659500  1.0
  H  H324  1  0.021300  0.534100  0.659500  1.0
  H  H325  1  0.512800  0.978700  0.659500  1.0
  H  H326  1  0.534100  0.512800  0.159500  1.0
  H  H327  1  0.978700  0.465900  0.159500  1.0
  H  H328  1  0.487200  0.021300  0.159500  1.0
  H  H329  1  0.567500  0.402600  0.718400  1.0
  H  H330  1  0.835100  0.432500  0.718400  1.0
  H  H331  1  0.597400  0.164900  0.718400  1.0
  H  H332  1  0.432500  0.597400  0.218400  1.0
  H  H333  1  0.164900  0.567500  0.218400  1.0
  H  H334  1  0.402600  0.835100  0.218400  1.0
  H  H335  1  0.550300  0.433900  0.748000  1.0
  H  H336  1  0.883600  0.449700  0.748000  1.0
  H  H337  1  0.566100  0.116400  0.748000  1.0
  H  H338  1  0.449700  0.566100  0.248000  1.0
  H  H339  1  0.116400  0.550300  0.248000  1.0
  H  H340  1  0.433900  0.883600  0.248000  1.0
  H  H341  1  0.615600  0.460900  0.736000  1.0
  H  H342  1  0.845300  0.384400  0.736000  1.0
  H  H343  1  0.539100  0.154700  0.736000  1.0
  H  H344  1  0.384400  0.539100  0.236000  1.0
  H  H345  1  0.154700  0.615600  0.236000  1.0
  H  H346  1  0.460900  0.845300  0.236000  1.0
  H  H347  1  0.582400  0.044000  0.516000  1.0
  H  H348  1  0.461600  0.417600  0.516000  1.0
  H  H349  1  0.956000  0.538400  0.516000  1.0
  H  H350  1  0.417600  0.956000  0.016000  1.0
  H  H351  1  0.538400  0.582400  0.016000  1.0
  H  H352  1  0.044000  0.461600  0.016000  1.0
  H  H353  1  0.634600  0.137200  0.496600  1.0
  H  H354  1  0.502600  0.365400  0.496600  1.0
  H  H355  1  0.862800  0.497400  0.496600  1.0
  H  H356  1  0.365400  0.862800  0.996600  1.0
  H  H357  1  0.497400  0.634600  0.996600  1.0
  H  H358  1  0.137200  0.502600  0.996600  1.0
  H  H359  1  0.661200  0.191500  0.597800  1.0
  H  H360  1  0.530300  0.338800  0.597800  1.0
  H  H361  1  0.808500  0.469700  0.597800  1.0
  H  H362  1  0.338800  0.808500  0.097800  1.0
  H  H363  1  0.469700  0.661200  0.097800  1.0
  H  H364  1  0.191500  0.530300  0.097800  1.0
  H  H365  1  0.605600  0.097300  0.617400  1.0
  H  H366  1  0.491700  0.394400  0.617400  1.0
  H  H367  1  0.902700  0.508300  0.617400  1.0
  H  H368  1  0.394400  0.902700  0.117400  1.0
  H  H369  1  0.508300  0.605600  0.117400  1.0
  H  H370  1  0.097300  0.491700  0.117400  1.0
  H  H371  1  0.665700  0.252600  0.529900  1.0
  H  H372  1  0.586900  0.334300  0.529900  1.0
  H  H373  1  0.747400  0.413100  0.529900  1.0
  H  H374  1  0.334300  0.747400  0.029900  1.0
  H  H375  1  0.413100  0.665700  0.029900  1.0
  H  H376  1  0.252600  0.586900  0.029900  1.0
  H  H377  1  0.705100  0.235000  0.507800  1.0
  H  H378  1  0.529900  0.294900  0.507800  1.0
  H  H379  1  0.765000  0.470100  0.507800  1.0
  H  H380  1  0.294900  0.765000  0.007800  1.0
  H  H381  1  0.470100  0.705100  0.007800  1.0
  H  H382  1  0.235000  0.529900  0.007800  1.0
  H  H383  1  0.722400  0.258700  0.547600  1.0
  H  H384  1  0.536300  0.277600  0.547600  1.0
  H  H385  1  0.741300  0.463700  0.547600  1.0
  H  H386  1  0.277600  0.741300  0.047600  1.0
  H  H387  1  0.463700  0.722400  0.047600  1.0
  H  H388  1  0.258700  0.536300  0.047600  1.0
  H  H389  1  0.608400  0.995300  0.596300  1.0
  H  H390  1  0.386900  0.391600  0.596300  1.0
  H  H391  1  0.004700  0.613100  0.596300  1.0
  H  H392  1  0.391600  0.004700  0.096300  1.0
  H  H393  1  0.613100  0.608400  0.096300  1.0
  H  H394  1  0.995300  0.386900  0.096300  1.0
  H  H395  1  0.590700  0.904500  0.629300  1.0
  H  H396  1  0.313800  0.409300  0.629300  1.0
  H  H397  1  0.095500  0.686200  0.629300  1.0
  H  H398  1  0.409300  0.095500  0.129300  1.0
  H  H399  1  0.686200  0.590700  0.129300  1.0
  H  H400  1  0.904500  0.313800  0.129300  1.0
  H  H401  1  0.528200  0.807200  0.641800  1.0
  H  H402  1  0.279000  0.471800  0.641800  1.0
  H  H403  1  0.192800  0.721000  0.641800  1.0
  H  H404  1  0.471800  0.192800  0.141800  1.0
  H  H405  1  0.721000  0.528200  0.141800  1.0
  H  H406  1  0.807200  0.279000  0.141800  1.0
  H  H407  1  0.400400  0.824000  0.596000  1.0
  H  H408  1  0.423600  0.599600  0.596000  1.0
  H  H409  1  0.176000  0.576400  0.596000  1.0
  H  H410  1  0.599600  0.176000  0.096000  1.0
  H  H411  1  0.576400  0.400400  0.096000  1.0
  H  H412  1  0.824000  0.423600  0.096000  1.0
  H  H413  1  0.361100  0.727200  0.595300  1.0
  H  H414  1  0.366100  0.638900  0.595300  1.0
  H  H415  1  0.272800  0.633900  0.595300  1.0
  H  H416  1  0.638900  0.272800  0.095300  1.0
  H  H417  1  0.633900  0.361100  0.095300  1.0
  H  H418  1  0.727200  0.366100  0.095300  1.0
  H  H419  1  0.348900  0.750900  0.631500  1.0
  H  H420  1  0.402000  0.651100  0.631500  1.0
  H  H421  1  0.249100  0.598000  0.631500  1.0
  H  H422  1  0.651100  0.249100  0.131500  1.0
  H  H423  1  0.598000  0.348900  0.131500  1.0
  H  H424  1  0.750900  0.402000  0.131500  1.0
  H  H425  1  0.942200  0.985100  0.757400  1.0
  H  H426  1  0.042900  0.057800  0.757400  1.0
  H  H427  1  0.014900  0.957100  0.757400  1.0
  H  H428  1  0.057800  0.014900  0.257400  1.0
  H  H429  1  0.957100  0.942200  0.257400  1.0
  H  H430  1  0.985100  0.042900  0.257400  1.0
  H  H431  1  0.878900  0.996400  0.793900  1.0
  H  H432  1  0.117500  0.121100  0.793900  1.0
  H  H433  1  0.003600  0.882500  0.793900  1.0
  H  H434  1  0.121100  0.003600  0.293900  1.0
  H  H435  1  0.882500  0.878900  0.293900  1.0
  H  H436  1  0.996400  0.117500  0.293900  1.0
  H  H437  1  0.749900  0.883800  0.730700  1.0
  H  H438  1  0.133900  0.250100  0.730700  1.0
  H  H439  1  0.116200  0.866100  0.730700  1.0
  H  H440  1  0.250100  0.116200  0.230700  1.0
  H  H441  1  0.866100  0.749900  0.230700  1.0
  H  H442  1  0.883800  0.133900  0.230700  1.0
  H  H443  1  0.814800  0.873800  0.696800  1.0
  H  H444  1  0.059000  0.185200  0.696800  1.0
  H  H445  1  0.126200  0.941000  0.696800  1.0
  H  H446  1  0.185200  0.126200  0.196800  1.0
  H  H447  1  0.941000  0.814800  0.196800  1.0
  H  H448  1  0.873800  0.059000  0.196800  1.0
  H  H449  1  0.772800  0.945600  0.814000  1.0
  H  H450  1  0.172800  0.227200  0.814000  1.0
  H  H451  1  0.054400  0.827200  0.814000  1.0
  H  H452  1  0.227200  0.054400  0.314000  1.0
  H  H453  1  0.827200  0.772800  0.314000  1.0
  H  H454  1  0.945600  0.172800  0.314000  1.0
  H  H455  1  0.725900  0.914800  0.783400  1.0
  H  H456  1  0.188900  0.274100  0.783400  1.0
  H  H457  1  0.085200  0.811100  0.783400  1.0
  H  H458  1  0.274100  0.085200  0.283400  1.0
  H  H459  1  0.811100  0.725900  0.283400  1.0
  H  H460  1  0.914800  0.188900  0.283400  1.0
  H  H461  1  0.767900  0.982400  0.782300  1.0
  H  H462  1  0.214500  0.232100  0.782300  1.0
  H  H463  1  0.017600  0.785500  0.782300  1.0
  H  H464  1  0.232100  0.017600  0.282300  1.0
  H  H465  1  0.785500  0.767900  0.282300  1.0
  H  H466  1  0.982400  0.214500  0.282300  1.0
  H  H467  1  0.880400  0.845400  0.691900  1.0
  H  H468  1  0.965000  0.119600  0.691900  1.0
  H  H469  1  0.154600  0.035000  0.691900  1.0
  H  H470  1  0.119600  0.154600  0.191900  1.0
  H  H471  1  0.035000  0.880400  0.191900  1.0
  H  H472  1  0.845400  0.965000  0.191900  1.0
  H  H473  1  0.906900  0.793100  0.647200  1.0
  H  H474  1  0.886200  0.093100  0.647200  1.0
  H  H475  1  0.206900  0.113800  0.647200  1.0
  H  H476  1  0.093100  0.206900  0.147200  1.0
  H  H477  1  0.113800  0.906900  0.147200  1.0
  H  H478  1  0.793100  0.886200  0.147200  1.0
  H  H479  1  0.965700  0.796300  0.600100  1.0
  H  H480  1  0.830600  0.034300  0.600100  1.0
  H  H481  1  0.203700  0.169400  0.600100  1.0
  H  H482  1  0.034300  0.203700  0.100100  1.0
  H  H483  1  0.169400  0.965700  0.100100  1.0
  H  H484  1  0.796300  0.830600  0.100100  1.0
  H  H485  1  0.056700  0.969100  0.612000  1.0
  H  H486  1  0.912400  0.943300  0.612000  1.0
  H  H487  1  0.030900  0.087600  0.612000  1.0
  H  H488  1  0.943300  0.030900  0.112000  1.0
  H  H489  1  0.087600  0.056700  0.112000  1.0
  H  H490  1  0.969100  0.912400  0.112000  1.0
  H  H491  1  0.125000  0.956800  0.581500  1.0
  H  H492  1  0.831800  0.875000  0.581500  1.0
  H  H493  1  0.043200  0.168200  0.581500  1.0
  H  H494  1  0.875000  0.043200  0.081500  1.0
  H  H495  1  0.168200  0.125000  0.081500  1.0
  H  H496  1  0.956800  0.831800  0.081500  1.0
  H  H497  1  0.079300  0.959700  0.555500  1.0
  H  H498  1  0.880400  0.920700  0.555500  1.0
  H  H499  1  0.040300  0.119600  0.555500  1.0
  H  H500  1  0.920700  0.040300  0.055500  1.0
  H  H501  1  0.119600  0.079300  0.055500  1.0
  H  H502  1  0.959700  0.880400  0.055500  1.0
  H  H503  1  0.461600  0.274200  0.446900  1.0
  H  H504  1  0.812600  0.538400  0.446900  1.0
  H  H505  1  0.725800  0.187400  0.446900  1.0
  H  H506  1  0.538400  0.725800  0.946900  1.0
  H  H507  1  0.187400  0.461600  0.946900  1.0
  H  H508  1  0.274200  0.812600  0.946900  1.0
  H  H509  1  0.536800  0.352300  0.418200  1.0
  H  H510  1  0.815500  0.463200  0.418200  1.0
  H  H511  1  0.647700  0.184500  0.418200  1.0
  H  H512  1  0.463200  0.647700  0.918200  1.0
  H  H513  1  0.184500  0.536800  0.918200  1.0
  H  H514  1  0.352300  0.815500  0.918200  1.0
  H  H515  1  0.428900  0.410700  0.393500  1.0
  H  H516  1  0.981800  0.571100  0.393500  1.0
  H  H517  1  0.589300  0.018200  0.393500  1.0
  H  H518  1  0.571100  0.589300  0.893500  1.0
  H  H519  1  0.018200  0.428900  0.893500  1.0
  H  H520  1  0.410700  0.981800  0.893500  1.0
  H  H521  1  0.353900  0.332600  0.424500  1.0
  H  H522  1  0.978700  0.646100  0.424500  1.0
  H  H523  1  0.667400  0.021300  0.424500  1.0
  H  H524  1  0.646100  0.667400  0.924500  1.0
  H  H525  1  0.021300  0.353900  0.924500  1.0
  H  H526  1  0.332600  0.978700  0.924500  1.0
  H  H527  1  0.519400  0.461700  0.373000  1.0
  H  H528  1  0.942300  0.480600  0.373000  1.0
  H  H529  1  0.538300  0.057700  0.373000  1.0
  H  H530  1  0.480600  0.538300  0.873000  1.0
  H  H531  1  0.057700  0.519400  0.873000  1.0
  H  H532  1  0.461700  0.942300  0.873000  1.0
  H  H533  1  0.554500  0.429100  0.367200  1.0
  H  H534  1  0.874600  0.445500  0.367200  1.0
  H  H535  1  0.570900  0.125400  0.367200  1.0
  H  H536  1  0.445500  0.570900  0.867200  1.0
  H  H537  1  0.125400  0.554500  0.867200  1.0
  H  H538  1  0.429100  0.874600  0.867200  1.0
  H  H539  1  0.563900  0.465700  0.402600  1.0
  H  H540  1  0.901800  0.436100  0.402600  1.0
  H  H541  1  0.534300  0.098200  0.402600  1.0
  H  H542  1  0.436100  0.534300  0.902600  1.0
  H  H543  1  0.098200  0.563900  0.902600  1.0
  H  H544  1  0.465700  0.901800  0.902600  1.0
  H  H545  1  0.384200  0.262400  0.502300  1.0
  H  H546  1  0.878200  0.615800  0.502300  1.0
  H  H547  1  0.737600  0.121800  0.502300  1.0
  H  H548  1  0.615800  0.737600  0.002300  1.0
  H  H549  1  0.121800  0.384200  0.002300  1.0
  H  H550  1  0.262400  0.878200  0.002300  1.0
  H  H551  1  0.339500  0.193800  0.553100  1.0
  H  H552  1  0.854300  0.660500  0.553100  1.0
  H  H553  1  0.806200  0.145700  0.553100  1.0
  H  H554  1  0.660500  0.806200  0.053100  1.0
  H  H555  1  0.145700  0.339500  0.053100  1.0
  H  H556  1  0.193800  0.854300  0.053100  1.0
  H  H557  1  0.270500  0.101600  0.572800  1.0
  H  H558  1  0.831100  0.729500  0.572800  1.0
  H  H559  1  0.898400  0.168900  0.572800  1.0
  H  H560  1  0.729500  0.898400  0.072800  1.0
  H  H561  1  0.168900  0.270500  0.072800  1.0
  H  H562  1  0.101600  0.831100  0.072800  1.0
  H  H563  1  0.204900  0.067000  0.472700  1.0
  H  H564  1  0.862100  0.795100  0.472700  1.0
  H  H565  1  0.933000  0.137900  0.472700  1.0
  H  H566  1  0.795100  0.933000  0.972700  1.0
  H  H567  1  0.137900  0.204900  0.972700  1.0
  H  H568  1  0.067000  0.862100  0.972700  1.0
  H  H569  1  0.180400  0.973800  0.491600  1.0
  H  H570  1  0.793400  0.819600  0.491600  1.0
  H  H571  1  0.026200  0.206600  0.491600  1.0
  H  H572  1  0.819600  0.026200  0.991600  1.0
  H  H573  1  0.206600  0.180400  0.991600  1.0
  H  H574  1  0.973800  0.793400  0.991600  1.0
  H  H575  1  0.133400  0.992300  0.499600  1.0
  H  H576  1  0.858900  0.866600  0.499600  1.0
  H  H577  1  0.007700  0.141100  0.499600  1.0
  H  H578  1  0.866600  0.007700  0.999600  1.0
  H  H579  1  0.141100  0.133400  0.999600  1.0
  H  H580  1  0.992300  0.858900  0.999600  1.0
  H  H581  1  0.922200  0.721500  0.304900  1.0
  H  H582  1  0.799300  0.077800  0.304900  1.0
  H  H583  1  0.278500  0.200700  0.304900  1.0
  H  H584  1  0.077800  0.278500  0.804900  1.0
  H  H585  1  0.200700  0.922200  0.804900  1.0
  H  H586  1  0.721500  0.799300  0.804900  1.0
  H  H587  1  0.871400  0.661500  0.257400  1.0
  H  H588  1  0.790100  0.128600  0.257400  1.0
  H  H589  1  0.338500  0.209900  0.257400  1.0
  H  H590  1  0.128600  0.338500  0.757400  1.0
  H  H591  1  0.209900  0.871400  0.757400  1.0
  H  H592  1  0.661500  0.790100  0.757400  1.0
  H  H593  1  0.791400  0.528300  0.325700  1.0
  H  H594  1  0.736900  0.208600  0.325700  1.0
  H  H595  1  0.471700  0.263100  0.325700  1.0
  H  H596  1  0.208600  0.471700  0.825700  1.0
  H  H597  1  0.263100  0.791400  0.825700  1.0
  H  H598  1  0.528300  0.736900  0.825700  1.0
  H  H599  1  0.842000  0.587900  0.373300  1.0
  H  H600  1  0.745900  0.158000  0.373300  1.0
  H  H601  1  0.412100  0.254100  0.373300  1.0
  H  H602  1  0.158000  0.412100  0.873300  1.0
  H  H603  1  0.254100  0.842000  0.873300  1.0
  H  H604  1  0.587900  0.745900  0.873300  1.0
  H  H605  1  0.822000  0.550100  0.238500  1.0
  H  H606  1  0.728100  0.178000  0.238500  1.0
  H  H607  1  0.449900  0.271900  0.238500  1.0
  H  H608  1  0.178000  0.449900  0.738500  1.0
  H  H609  1  0.271900  0.822000  0.738500  1.0
  H  H610  1  0.550100  0.728100  0.738500  1.0
  H  H611  1  0.770600  0.562700  0.244100  1.0
  H  H612  1  0.792100  0.229400  0.244100  1.0
  H  H613  1  0.437300  0.207900  0.244100  1.0
  H  H614  1  0.229400  0.437300  0.744100  1.0
  H  H615  1  0.207900  0.770600  0.744100  1.0
  H  H616  1  0.562700  0.792100  0.744100  1.0
  H  H617  1  0.770200  0.510500  0.264500  1.0
  H  H618  1  0.740300  0.229800  0.264500  1.0
  H  H619  1  0.489500  0.259700  0.264500  1.0
  H  H620  1  0.229800  0.489500  0.764500  1.0
  H  H621  1  0.259700  0.770200  0.764500  1.0
  H  H622  1  0.510500  0.740300  0.764500  1.0
  H  H623  1  0.986000  0.726900  0.345800  1.0
  H  H624  1  0.740900  0.014000  0.345800  1.0
  H  H625  1  0.273100  0.259100  0.345800  1.0
  H  H626  1  0.014000  0.273100  0.845800  1.0
  H  H627  1  0.259100  0.986000  0.845800  1.0
  H  H628  1  0.726900  0.740900  0.845800  1.0
  H  H629  1  0.080600  0.798800  0.370100  1.0
  H  H630  1  0.718200  0.919400  0.370100  1.0
  H  H631  1  0.201200  0.281800  0.370100  1.0
  H  H632  1  0.919400  0.201200  0.870100  1.0
  H  H633  1  0.281800  0.080600  0.870100  1.0
  H  H634  1  0.798800  0.718200  0.870100  1.0
  H  H635  1  0.134800  0.859100  0.415600  1.0
  H  H636  1  0.724300  0.865200  0.415600  1.0
  H  H637  1  0.140900  0.275700  0.415600  1.0
  H  H638  1  0.865200  0.140900  0.915600  1.0
  H  H639  1  0.275700  0.134800  0.915600  1.0
  H  H640  1  0.859100  0.724300  0.915600  1.0
  H  H641  1  0.988700  0.806200  0.472300  1.0
  H  H642  1  0.817500  0.011300  0.472300  1.0
  H  H643  1  0.193800  0.182500  0.472300  1.0
  H  H644  1  0.011300  0.193800  0.972300  1.0
  H  H645  1  0.182500  0.988700  0.972300  1.0
  H  H646  1  0.806200  0.817500  0.972300  1.0
  H  H647  1  0.055500  0.845400  0.518000  1.0
  H  H648  1  0.789900  0.944500  0.518000  1.0
  H  H649  1  0.154600  0.210100  0.518000  1.0
  H  H650  1  0.944500  0.154600  0.018000  1.0
  H  H651  1  0.210100  0.055500  0.018000  1.0
  H  H652  1  0.845400  0.789900  0.018000  1.0
  H  H653  1  0.049900  0.897200  0.501700  1.0
  H  H654  1  0.847300  0.950100  0.501700  1.0
  H  H655  1  0.102800  0.152700  0.501700  1.0
  H  H656  1  0.950100  0.102800  0.001700  1.0
  H  H657  1  0.152700  0.049900  0.001700  1.0
  H  H658  1  0.897200  0.847300  0.001700  1.0
  H  H659  1  0.136200  0.863800  0.558300  1.0
  H  H660  1  0.727600  0.863800  0.558300  1.0
  H  H661  1  0.136200  0.272400  0.558300  1.0
  H  H662  1  0.863800  0.136200  0.058300  1.0
  H  H663  1  0.272400  0.136200  0.058300  1.0
  H  H664  1  0.863800  0.727600  0.058300  1.0
  H  H665  1  0.191800  0.926100  0.558500  1.0
  H  H666  1  0.734300  0.808200  0.558500  1.0
  H  H667  1  0.073900  0.265700  0.558500  1.0
  H  H668  1  0.808200  0.073900  0.058500  1.0
  H  H669  1  0.265700  0.191800  0.058500  1.0
  H  H670  1  0.926100  0.734300  0.058500  1.0
  H  H671  1  0.174500  0.887800  0.523200  1.0
  H  H672  1  0.713300  0.825500  0.523200  1.0
  H  H673  1  0.112200  0.286700  0.523200  1.0
  H  H674  1  0.825500  0.112200  0.023200  1.0
  H  H675  1  0.286700  0.174500  0.023200  1.0
  H  H676  1  0.887800  0.713300  0.023200  1.0
  H  H677  1  0.381600  0.136500  0.479400  1.0
  H  H678  1  0.754900  0.618400  0.479400  1.0
  H  H679  1  0.863500  0.245100  0.479400  1.0
  H  H680  1  0.618400  0.863500  0.979400  1.0
  H  H681  1  0.245100  0.381600  0.979400  1.0
  H  H682  1  0.136500  0.754900  0.979400  1.0
  H  H683  1  0.471700  0.167800  0.500500  1.0
  H  H684  1  0.696100  0.528300  0.500500  1.0
  H  H685  1  0.832200  0.303900  0.500500  1.0
  H  H686  1  0.528300  0.832200  0.000500  1.0
  H  H687  1  0.303900  0.471700  0.000500  1.0
  H  H688  1  0.167800  0.696100  0.000500  1.0
  H  H689  1  0.532700  0.216100  0.400400  1.0
  H  H690  1  0.683400  0.467300  0.400400  1.0
  H  H691  1  0.783900  0.316600  0.400400  1.0
  H  H692  1  0.467300  0.783900  0.900400  1.0
  H  H693  1  0.316600  0.532700  0.900400  1.0
  H  H694  1  0.216100  0.683400  0.900400  1.0
  H  H695  1  0.437600  0.173300  0.380100  1.0
  H  H696  1  0.735700  0.562400  0.380100  1.0
  H  H697  1  0.826700  0.264300  0.380100  1.0
  H  H698  1  0.562400  0.826700  0.880100  1.0
  H  H699  1  0.264300  0.437600  0.880100  1.0
  H  H700  1  0.173300  0.735700  0.880100  1.0
  H  H701  1  0.600000  0.239400  0.446000  1.0
  H  H702  1  0.639400  0.400000  0.446000  1.0
  H  H703  1  0.760600  0.360600  0.446000  1.0
  H  H704  1  0.400000  0.760600  0.946000  1.0
  H  H705  1  0.360600  0.600000  0.946000  1.0
  H  H706  1  0.239400  0.639400  0.946000  1.0
  H  H707  1  0.578200  0.188700  0.474400  1.0
  H  H708  1  0.610500  0.421800  0.474400  1.0
  H  H709  1  0.811300  0.389500  0.474400  1.0
  H  H710  1  0.421800  0.811300  0.974400  1.0
  H  H711  1  0.389500  0.578200  0.974400  1.0
  H  H712  1  0.188700  0.610500  0.974400  1.0
  H  H713  1  0.580500  0.247167  0.484800  1.0
  H  H714  1  0.666667  0.419500  0.484800  1.0
  H  H715  1  0.752833  0.333333  0.484800  1.0
  H  H716  1  0.419500  0.752833  0.984800  1.0
  H  H717  1  0.333333  0.580500  0.984800  1.0
  H  H718  1  0.247167  0.666667  0.984800  1.0
  H  H719  1  0.333200  0.063100  0.401300  1.0
  H  H720  1  0.729900  0.666800  0.401300  1.0
  H  H721  1  0.936900  0.270100  0.401300  1.0
  H  H722  1  0.666800  0.936900  0.901300  1.0
  H  H723  1  0.270100  0.333200  0.901300  1.0
  H  H724  1  0.063100  0.729900  0.901300  1.0
  H  H725  1  0.238900  0.984200  0.377800  1.0
  H  H726  1  0.745300  0.761100  0.377800  1.0
  H  H727  1  0.015800  0.254700  0.377800  1.0
  H  H728  1  0.761100  0.015800  0.877800  1.0
  H  H729  1  0.254700  0.238900  0.877800  1.0
  H  H730  1  0.984200  0.745300  0.877800  1.0
  H  H731  1  0.142700  0.947600  0.366600  1.0
  H  H732  1  0.804900  0.857300  0.366600  1.0
  H  H733  1  0.052400  0.195100  0.366600  1.0
  H  H734  1  0.857300  0.052400  0.866600  1.0
  H  H735  1  0.195100  0.142700  0.866600  1.0
  H  H736  1  0.947600  0.804900  0.866600  1.0
  H  H737  1  0.160100  0.097700  0.399900  1.0
  H  H738  1  0.937600  0.839900  0.399900  1.0
  H  H739  1  0.902300  0.062400  0.399900  1.0
  H  H740  1  0.839900  0.902300  0.899900  1.0
  H  H741  1  0.062400  0.160100  0.899900  1.0
  H  H742  1  0.097700  0.937600  0.899900  1.0
  H  H743  1  0.083300  0.071000  0.370800  1.0
  H  H744  1  0.987700  0.916700  0.370800  1.0
  H  H745  1  0.929000  0.012300  0.370800  1.0
  H  H746  1  0.916700  0.929000  0.870800  1.0
  H  H747  1  0.012300  0.083300  0.870800  1.0
  H  H748  1  0.071000  0.987700  0.870800  1.0
  H  H749  1  0.062000  0.037600  0.408100  1.0
  H  H750  1  0.975600  0.938000  0.408100  1.0
  H  H751  1  0.962400  0.024400  0.408100  1.0
  H  H752  1  0.938000  0.962400  0.908100  1.0
  H  H753  1  0.024400  0.062000  0.908100  1.0
  H  H754  1  0.037600  0.975600  0.908100  1.0
  H  H755  1  0.363700  0.703700  0.686300  1.0
  H  H756  1  0.340000  0.636300  0.686300  1.0
  H  H757  1  0.296300  0.660000  0.686300  1.0
  H  H758  1  0.636300  0.296300  0.186300  1.0
  H  H759  1  0.660000  0.363700  0.186300  1.0
  H  H760  1  0.703700  0.340000  0.186300  1.0
  H  H761  1  0.031500  0.036300  0.318000  1.0
  H  H762  1  0.004800  0.968500  0.318000  1.0
  H  H763  1  0.963700  0.995200  0.318000  1.0
  H  H764  1  0.968500  0.963700  0.818000  1.0
  H  H765  1  0.995200  0.031500  0.818000  1.0
  H  H766  1  0.036300  0.004800  0.818000  1.0
  C  C767  1  0.333333  0.666667  0.636800  1
  C  C768  1  0.666667  0.333333  0.136800  1
  C  C769  1  0.333333  0.666667  0.677600  1
  C  C770  1  0.666667  0.333333  0.177600  1
  C  C771  1  0.000000  0.000000  0.367600  1
  C  C772  1  0.000000  0.000000  0.867600  1
  C  C773  1  0.000000  0.000000  0.326700  1
  C  C774  1  0.000000  0.000000  0.826700  1
  C  C775  1  0.262400  0.989300  0.680300  1
  C  C776  1  0.726900  0.737600  0.680300  1
  C  C777  1  0.010700  0.273100  0.680300  1
  C  C778  1  0.737600  0.010700  0.180300  1
  C  C779  1  0.273100  0.262400  0.180300  1
  C  C780  1  0.989300  0.726900  0.180300  1
  C  C781  1  0.295400  0.960900  0.471300  1
  C  C782  1  0.665500  0.704600  0.471300  1
  C  C783  1  0.039100  0.334500  0.471300  1
  C  C784  1  0.704600  0.039100  0.971300  1
  C  C785  1  0.334500  0.295400  0.971300  1
  C  C786  1  0.960900  0.665500  0.971300  1
  C  C787  1  0.602900  0.910200  0.308300  1
  C  C788  1  0.307300  0.397100  0.308300  1
  C  C789  1  0.089800  0.692700  0.308300  1
  C  C790  1  0.397100  0.089800  0.808300  1
  C  C791  1  0.692700  0.602900  0.808300  1
  C  C792  1  0.910200  0.307300  0.808300  1
  C  C793  1  0.662400  0.954000  0.521200  1
  C  C794  1  0.291600  0.337600  0.521200  1
  C  C795  1  0.046000  0.708400  0.521200  1
  C  C796  1  0.337600  0.046000  0.021200  1
  C  C797  1  0.708400  0.662400  0.021200  1
  C  C798  1  0.954000  0.291600  0.021200  1
  C  C799  1  0.206500  0.869200  0.340000  1
  C  C800  1  0.662700  0.793500  0.340000  1
  C  C801  1  0.130800  0.337300  0.340000  1
  C  C802  1  0.793500  0.130800  0.840000  1
  C  C803  1  0.337300  0.206500  0.840000  1
  C  C804  1  0.869200  0.662700  0.840000  1
  C  C805  1  0.246300  0.848700  0.349000  1
  C  C806  1  0.602400  0.753700  0.349000  1
  C  C807  1  0.151300  0.397600  0.349000  1
  C  C808  1  0.753700  0.151300  0.849000  1
  C  C809  1  0.397600  0.246300  0.849000  1
  C  C810  1  0.848700  0.602400  0.849000  1
  C  C811  1  0.137500  0.808400  0.656100  1
  C  C812  1  0.670900  0.862500  0.656100  1
  C  C813  1  0.191600  0.329100  0.656100  1
  C  C814  1  0.862500  0.191600  0.156100  1
  C  C815  1  0.329100  0.137500  0.156100  1
  C  C816  1  0.808400  0.670900  0.156100  1
  C  C817  1  0.099800  0.828100  0.642800  1
  C  C818  1  0.728300  0.900200  0.642800  1
  C  C819  1  0.171900  0.271700  0.642800  1
  C  C820  1  0.900200  0.171900  0.142800  1
  C  C821  1  0.271700  0.099800  0.142800  1
  C  C822  1  0.828100  0.728300  0.142800  1
  C  C823  1  0.000000  0.000000  0.547600  1
  C  C824  1  0.000000  0.000000  0.047600  1
  C  C825  1  0.542300  0.538300  0.650200  1
  C  C826  1  0.996000  0.457700  0.650200  1
  C  C827  1  0.461700  0.004000  0.650200  1
  C  C828  1  0.457700  0.461700  0.150200  1
  C  C829  1  0.004000  0.542300  0.150200  1
  C  C830  1  0.538300  0.996000  0.150200  1
  C  C831  1  0.571300  0.507900  0.647000  1
  C  C832  1  0.936600  0.428700  0.647000  1
  C  C833  1  0.492100  0.063400  0.647000  1
  C  C834  1  0.428700  0.492100  0.147000  1
  C  C835  1  0.063400  0.571300  0.147000  1
  C  C836  1  0.507900  0.936600  0.147000  1
  C  C837  1  0.573700  0.476500  0.675800  1
  C  C838  1  0.902800  0.426300  0.675800  1
  C  C839  1  0.523500  0.097200  0.675800  1
  C  C840  1  0.426300  0.523500  0.175800  1
  C  C841  1  0.097200  0.573700  0.175800  1
  C  C842  1  0.476500  0.902800  0.175800  1
  C  C843  1  0.547500  0.474900  0.708300  1
  C  C844  1  0.927400  0.452500  0.708300  1
  C  C845  1  0.525100  0.072600  0.708300  1
  C  C846  1  0.452500  0.525100  0.208300  1
  C  C847  1  0.072600  0.547500  0.208300  1
  C  C848  1  0.474900  0.927400  0.208300  1
  C  C849  1  0.518400  0.505500  0.711100  1
  C  C850  1  0.987100  0.481600  0.711100  1
  C  C851  1  0.494500  0.012900  0.711100  1
  C  C852  1  0.481600  0.494500  0.211100  1
  C  C853  1  0.012900  0.518400  0.211100  1
  C  C854  1  0.505500  0.987100  0.211100  1
  C  C855  1  0.515900  0.537000  0.682400  1
  C  C856  1  0.021100  0.484100  0.682400  1
  C  C857  1  0.463000  0.978900  0.682400  1
  C  C858  1  0.484100  0.463000  0.182400  1
  C  C859  1  0.978900  0.515900  0.182400  1
  C  C860  1  0.537000  0.021100  0.182400  1
  C  C861  1  0.551400  0.442100  0.739700  1
  C  C862  1  0.890700  0.448600  0.739700  1
  C  C863  1  0.557900  0.109300  0.739700  1
  C  C864  1  0.448600  0.557900  0.239700  1
  C  C865  1  0.109300  0.551400  0.239700  1
  C  C866  1  0.442100  0.890700  0.239700  1
  C  C867  1  0.000000  0.000000  0.526900  1
  C  C868  1  0.000000  0.000000  0.026900  1
  C  C869  1  0.327900  0.642500  0.495100  1
  C  C870  1  0.314600  0.672100  0.495100  1
  C  C871  1  0.357500  0.685400  0.495100  1
  C  C872  1  0.672100  0.357500  0.995100  1
  C  C873  1  0.685400  0.327900  0.995100  1
  C  C874  1  0.642500  0.314600  0.995100  1
  C  C875  1  0.289500  0.557100  0.264100  1.0
  C  C876  1  0.267600  0.710500  0.264100  1.0
  C  C877  1  0.442900  0.732400  0.264100  1.0
  C  C878  1  0.710500  0.442900  0.764100  1.0
  C  C879  1  0.732400  0.289500  0.764100  1.0
  C  C880  1  0.557100  0.267600  0.764100  1.0
  C  C881  1  0.247300  0.502800  0.275300  1.0
  C  C882  1  0.255500  0.752700  0.275300  1.0
  C  C883  1  0.497200  0.744500  0.275300  1.0
  C  C884  1  0.752700  0.497200  0.775300  1.0
  C  C885  1  0.744500  0.247300  0.775300  1.0
  C  C886  1  0.502800  0.255500  0.775300  1.0
  C  C887  1  0.204100  0.467300  0.252000  1.0
  C  C888  1  0.263200  0.795900  0.252000  1.0
  C  C889  1  0.532700  0.736800  0.252000  1.0
  C  C890  1  0.795900  0.532700  0.752000  1.0
  C  C891  1  0.736800  0.204100  0.752000  1.0
  C  C892  1  0.467300  0.263200  0.752000  1.0
  C  C893  1  0.202600  0.485300  0.216600  1.0
  C  C894  1  0.282700  0.797400  0.216600  1.0
  C  C895  1  0.514700  0.717300  0.216600  1.0
  C  C896  1  0.797400  0.514700  0.716600  1.0
  C  C897  1  0.717300  0.202600  0.716600  1.0
  C  C898  1  0.485300  0.282700  0.716600  1.0
  C  C899  1  0.247800  0.537200  0.207000  1.0
  C  C900  1  0.289400  0.752200  0.207000  1.0
  C  C901  1  0.462800  0.710600  0.207000  1.0
  C  C902  1  0.752200  0.462800  0.707000  1.0
  C  C903  1  0.710600  0.247800  0.707000  1.0
  C  C904  1  0.537200  0.289400  0.707000  1.0
  C  C905  1  0.290200  0.571700  0.230400  1.0
  C  C906  1  0.281500  0.709800  0.230400  1.0
  C  C907  1  0.428300  0.718500  0.230400  1.0
  C  C908  1  0.709800  0.428300  0.730400  1.0
  C  C909  1  0.718500  0.290200  0.730400  1.0
  C  C910  1  0.571700  0.281500  0.730400  1.0
  C  C911  1  0.156800  0.451300  0.192100  1.0
  C  C912  1  0.294500  0.843200  0.192100  1.0
  C  C913  1  0.548700  0.705500  0.192100  1.0
  C  C914  1  0.843200  0.548700  0.692100  1.0
  C  C915  1  0.705500  0.156800  0.692100  1.0
  C  C916  1  0.451300  0.294500  0.692100  1.0
  C  C917  1  0.361700  0.575800  0.305500  1.0
  C  C918  1  0.214100  0.638300  0.305500  1.0
  C  C919  1  0.424200  0.785900  0.305500  1.0
  C  C920  1  0.638300  0.424200  0.805500  1.0
  C  C921  1  0.785900  0.361700  0.805500  1.0
  C  C922  1  0.575800  0.214100  0.805500  1.0
  C  C923  1  0.400700  0.611600  0.334200  1.0
  C  C924  1  0.210900  0.599300  0.334200  1.0
  C  C925  1  0.388400  0.789100  0.334200  1.0
  C  C926  1  0.599300  0.388400  0.834200  1.0
  C  C927  1  0.789100  0.400700  0.834200  1.0
  C  C928  1  0.611600  0.210900  0.834200  1.0
  C  C929  1  0.436600  0.597700  0.350600  1.0
  C  C930  1  0.161100  0.563400  0.350600  1.0
  C  C931  1  0.402300  0.838900  0.350600  1.0
  C  C932  1  0.563400  0.402300  0.850600  1.0
  C  C933  1  0.838900  0.436600  0.850600  1.0
  C  C934  1  0.597700  0.161100  0.850600  1.0
  C  C935  1  0.472100  0.632700  0.378800  1.0
  C  C936  1  0.160600  0.527900  0.378800  1.0
  C  C937  1  0.367300  0.839400  0.378800  1.0
  C  C938  1  0.527900  0.367300  0.878800  1.0
  C  C939  1  0.839400  0.472100  0.878800  1.0
  C  C940  1  0.632700  0.160600  0.878800  1.0
  C  C941  1  0.466000  0.677700  0.389400  1.0
  C  C942  1  0.211700  0.534000  0.389400  1.0
  C  C943  1  0.322300  0.788300  0.389400  1.0
  C  C944  1  0.534000  0.322300  0.889400  1.0
  C  C945  1  0.788300  0.466000  0.889400  1.0
  C  C946  1  0.677700  0.211700  0.889400  1.0
  C  C947  1  0.426300  0.689000  0.371800  1.0
  C  C948  1  0.262700  0.573700  0.371800  1.0
  C  C949  1  0.311000  0.737300  0.371800  1.0
  C  C950  1  0.573700  0.311000  0.871800  1.0
  C  C951  1  0.737300  0.426300  0.871800  1.0
  C  C952  1  0.689000  0.262700  0.871800  1.0
  C  C953  1  0.489700  0.755300  0.430300  1.0
  C  C954  1  0.265600  0.510300  0.430300  1.0
  C  C955  1  0.244700  0.734400  0.430300  1.0
  C  C956  1  0.510300  0.244700  0.930300  1.0
  C  C957  1  0.734400  0.489700  0.930300  1.0
  C  C958  1  0.755300  0.265600  0.930300  1.0
  C  C959  1  0.444700  0.064900  0.555900  1.0
  C  C960  1  0.620200  0.555300  0.555900  1.0
  C  C961  1  0.935100  0.379800  0.555900  1.0
  C  C962  1  0.555300  0.935100  0.055900  1.0
  C  C963  1  0.379800  0.444700  0.055900  1.0
  C  C964  1  0.064900  0.620200  0.055900  1.0
  C  C965  1  0.492700  0.118300  0.559600  1.0
  C  C966  1  0.625600  0.507300  0.559600  1.0
  C  C967  1  0.881700  0.374400  0.559600  1.0
  C  C968  1  0.507300  0.881700  0.059600  1.0
  C  C969  1  0.374400  0.492700  0.059600  1.0
  C  C970  1  0.118300  0.625600  0.059600  1.0
  C  C971  1  0.489400  0.162300  0.577400  1.0
  C  C972  1  0.672900  0.510600  0.577400  1.0
  C  C973  1  0.837700  0.327100  0.577400  1.0
  C  C974  1  0.510600  0.837700  0.077400  1.0
  C  C975  1  0.327100  0.489400  0.077400  1.0
  C  C976  1  0.162300  0.672900  0.077400  1.0
  C  C977  1  0.436800  0.152500  0.590500  1.0
  C  C978  1  0.715700  0.563200  0.590500  1.0
  C  C979  1  0.847500  0.284300  0.590500  1.0
  C  C980  1  0.563200  0.847500  0.090500  1.0
  C  C981  1  0.284300  0.436800  0.090500  1.0
  C  C982  1  0.152500  0.715700  0.090500  1.0
  C  C983  1  0.389900  0.098100  0.587000  1.0
  C  C984  1  0.708200  0.610100  0.587000  1.0
  C  C985  1  0.901900  0.291800  0.587000  1.0
  C  C986  1  0.610100  0.901900  0.087000  1.0
  C  C987  1  0.291800  0.389900  0.087000  1.0
  C  C988  1  0.098100  0.708200  0.087000  1.0
  C  C989  1  0.394100  0.054400  0.571100  1.0
  C  C990  1  0.660300  0.605900  0.571100  1.0
  C  C991  1  0.945600  0.339700  0.571100  1.0
  C  C992  1  0.605900  0.945600  0.071100  1.0
  C  C993  1  0.339700  0.394100  0.071100  1.0
  C  C994  1  0.054400  0.660300  0.071100  1.0
  C  C995  1  0.431800  0.198800  0.609200  1.0
  C  C996  1  0.767000  0.568200  0.609200  1.0
  C  C997  1  0.801200  0.233000  0.609200  1.0
  C  C998  1  0.568200  0.801200  0.109200  1.0
  C  C999  1  0.233000  0.431800  0.109200  1.0
  C  C1000  1  0.198800  0.767000  0.109200  1.0
  C  C1001  1  0.458400  0.017900  0.507400  1.0
  C  C1002  1  0.559500  0.541600  0.507400  1.0
  C  C1003  1  0.982100  0.440500  0.507400  1.0
  C  C1004  1  0.541600  0.982100  0.007400  1.0
  C  C1005  1  0.440500  0.458400  0.007400  1.0
  C  C1006  1  0.017900  0.559500  0.007400  1.0
  C  C1007  1  0.469200  0.974500  0.492300  1.0
  C  C1008  1  0.505300  0.530800  0.492300  1.0
  C  C1009  1  0.025500  0.494700  0.492300  1.0
  C  C1010  1  0.530800  0.025500  0.992300  1.0
  C  C1011  1  0.494700  0.469200  0.992300  1.0
  C  C1012  1  0.974500  0.505300  0.992300  1.0
  C  C1013  1  0.481800  0.974000  0.456900  1.0
  C  C1014  1  0.492200  0.518200  0.456900  1.0
  C  C1015  1  0.026000  0.507800  0.456900  1.0
  C  C1016  1  0.518200  0.026000  0.956900  1.0
  C  C1017  1  0.507800  0.481800  0.956900  1.0
  C  C1018  1  0.974000  0.492200  0.956900  1.0
  C  C1019  1  0.493500  0.932200  0.444100  1.0
  C  C1020  1  0.438700  0.506500  0.444100  1.0
  C  C1021  1  0.067800  0.561300  0.444100  1.0
  C  C1022  1  0.506500  0.067800  0.944100  1.0
  C  C1023  1  0.561300  0.493500  0.944100  1.0
  C  C1024  1  0.932200  0.438700  0.944100  1.0
  C  C1025  1  0.494000  0.894900  0.469000  1.0
  C  C1026  1  0.400900  0.506000  0.469000  1.0
  C  C1027  1  0.105100  0.599100  0.469000  1.0
  C  C1028  1  0.506000  0.105100  0.969000  1.0
  C  C1029  1  0.599100  0.494000  0.969000  1.0
  C  C1030  1  0.894900  0.400900  0.969000  1.0
  C  C1031  1  0.480700  0.897200  0.504700  1.0
  C  C1032  1  0.416500  0.519300  0.504700  1.0
  C  C1033  1  0.102800  0.583500  0.504700  1.0
  C  C1034  1  0.519300  0.102800  0.004700  1.0
  C  C1035  1  0.583500  0.480700  0.004700  1.0
  C  C1036  1  0.897200  0.416500  0.004700  1.0
  C  C1037  1  0.511000  0.817900  0.481500  1.0
  C  C1038  1  0.306900  0.489000  0.481500  1.0
  C  C1039  1  0.182100  0.693100  0.481500  1.0
  C  C1040  1  0.489000  0.182100  0.981500  1.0
  C  C1041  1  0.693100  0.511000  0.981500  1.0
  C  C1042  1  0.817900  0.306900  0.981500  1.0
  C  C1043  1  0.567400  0.625100  0.624200  1.0
  C  C1044  1  0.057700  0.432600  0.624200  1.0
  C  C1045  1  0.374900  0.942300  0.624200  1.0
  C  C1046  1  0.432600  0.374900  0.124200  1.0
  C  C1047  1  0.942300  0.567400  0.124200  1.0
  C  C1048  1  0.625100  0.057700  0.124200  1.0
  C  C1049  1  0.564100  0.662500  0.597100  1.0
  C  C1050  1  0.098400  0.435900  0.597100  1.0
  C  C1051  1  0.337500  0.901600  0.597100  1.0
  C  C1052  1  0.435900  0.337500  0.097100  1.0
  C  C1053  1  0.901600  0.564100  0.097100  1.0
  C  C1054  1  0.662500  0.098400  0.097100  1.0
  C  C1055  1  0.590700  0.720900  0.601100  1.0
  C  C1056  1  0.130200  0.409300  0.601100  1.0
  C  C1057  1  0.279100  0.869800  0.601100  1.0
  C  C1058  1  0.409300  0.279100  0.101100  1.0
  C  C1059  1  0.869800  0.590700  0.101100  1.0
  C  C1060  1  0.720900  0.130200  0.101100  1.0
  C  C1061  1  0.586200  0.753200  0.574800  1.0
  C  C1062  1  0.167000  0.413800  0.574800  1.0
  C  C1063  1  0.246800  0.833000  0.574800  1.0
  C  C1064  1  0.413800  0.246800  0.074800  1.0
  C  C1065  1  0.833000  0.586200  0.074800  1.0
  C  C1066  1  0.753200  0.167000  0.074800  1.0
  C  C1067  1  0.557300  0.727200  0.543500  1.0
  C  C1068  1  0.169900  0.442700  0.543500  1.0
  C  C1069  1  0.272800  0.830100  0.543500  1.0
  C  C1070  1  0.442700  0.272800  0.043500  1.0
  C  C1071  1  0.830100  0.557300  0.043500  1.0
  C  C1072  1  0.727200  0.169900  0.043500  1.0
  C  C1073  1  0.529400  0.666500  0.541600  1.0
  C  C1074  1  0.137100  0.470600  0.541600  1.0
  C  C1075  1  0.333500  0.862900  0.541600  1.0
  C  C1076  1  0.470600  0.333500  0.041600  1.0
  C  C1077  1  0.862900  0.529400  0.041600  1.0
  C  C1078  1  0.666500  0.137100  0.041600  1.0
  C  C1079  1  0.524100  0.734200  0.485900  1.0
  C  C1080  1  0.210100  0.475900  0.485900  1.0
  C  C1081  1  0.265800  0.789900  0.485900  1.0
  C  C1082  1  0.475900  0.265800  0.985900  1.0
  C  C1083  1  0.789900  0.524100  0.985900  1.0
  C  C1084  1  0.734200  0.210100  0.985900  1.0
  C  C1085  1  0.530600  0.781600  0.461200  1.0
  C  C1086  1  0.251000  0.469400  0.461200  1.0
  C  C1087  1  0.218400  0.749000  0.461200  1.0
  C  C1088  1  0.469400  0.218400  0.961200  1.0
  C  C1089  1  0.749000  0.530600  0.961200  1.0
  C  C1090  1  0.781600  0.251000  0.961200  1.0
  C  C1091  1  0.593800  0.817700  0.448800  1.0
  C  C1092  1  0.223900  0.406200  0.448800  1.0
  C  C1093  1  0.182300  0.776100  0.448800  1.0
  C  C1094  1  0.406200  0.182300  0.948800  1.0
  C  C1095  1  0.776100  0.593800  0.948800  1.0
  C  C1096  1  0.817700  0.223900  0.948800  1.0
  C  C1097  1  0.550000  0.537900  0.646500  1.0
  C  C1098  1  0.987900  0.450000  0.646500  1.0
  C  C1099  1  0.462100  0.012100  0.646500  1.0
  C  C1100  1  0.450000  0.462100  0.146500  1.0
  C  C1101  1  0.012100  0.550000  0.146500  1.0
  C  C1102  1  0.537900  0.987900  0.146500  1.0
  C  C1103  1  0.605000  0.548700  0.654400  1.0
  C  C1104  1  0.943700  0.395000  0.654400  1.0
  C  C1105  1  0.451300  0.056300  0.654400  1.0
  C  C1106  1  0.395000  0.451300  0.154400  1.0
  C  C1107  1  0.056300  0.605000  0.154400  1.0
  C  C1108  1  0.548700  0.943700  0.154400  1.0
  C  C1109  1  0.613100  0.516600  0.680500  1.0
  C  C1110  1  0.903500  0.386900  0.680500  1.0
  C  C1111  1  0.483400  0.096500  0.680500  1.0
  C  C1112  1  0.386900  0.483400  0.180500  1.0
  C  C1113  1  0.096500  0.613100  0.180500  1.0
  C  C1114  1  0.516600  0.903500  0.180500  1.0
  C  C1115  1  0.566800  0.473300  0.699200  1.0
  C  C1116  1  0.906500  0.433200  0.699200  1.0
  C  C1117  1  0.526700  0.093500  0.699200  1.0
  C  C1118  1  0.433200  0.526700  0.199200  1.0
  C  C1119  1  0.093500  0.566800  0.199200  1.0
  C  C1120  1  0.473300  0.906500  0.199200  1.0
  C  C1121  1  0.511800  0.462800  0.690800  1.0
  C  C1122  1  0.951000  0.488200  0.690800  1.0
  C  C1123  1  0.537200  0.049000  0.690800  1.0
  C  C1124  1  0.488200  0.537200  0.190800  1.0
  C  C1125  1  0.049000  0.511800  0.190800  1.0
  C  C1126  1  0.462800  0.951000  0.190800  1.0
  C  C1127  1  0.503400  0.494800  0.664800  1.0
  C  C1128  1  0.991400  0.496600  0.664800  1.0
  C  C1129  1  0.505200  0.008600  0.664800  1.0
  C  C1130  1  0.496600  0.505200  0.164800  1.0
  C  C1131  1  0.008600  0.503400  0.164800  1.0
  C  C1132  1  0.494800  0.991400  0.164800  1.0
  C  C1133  1  0.575800  0.439700  0.727900  1.0
  C  C1134  1  0.863900  0.424200  0.727900  1.0
  C  C1135  1  0.560300  0.136100  0.727900  1.0
  C  C1136  1  0.424200  0.560300  0.227900  1.0
  C  C1137  1  0.136100  0.575800  0.227900  1.0
  C  C1138  1  0.439700  0.863900  0.227900  1.0
  C  C1139  1  0.585400  0.062700  0.567800  1.0
  C  C1140  1  0.477300  0.414600  0.567800  1.0
  C  C1141  1  0.937300  0.522700  0.567800  1.0
  C  C1142  1  0.414600  0.937300  0.067800  1.0
  C  C1143  1  0.522700  0.585400  0.067800  1.0
  C  C1144  1  0.062700  0.477300  0.067800  1.0
  C  C1145  1  0.597000  0.074300  0.532800  1.0
  C  C1146  1  0.477300  0.403000  0.532800  1.0
  C  C1147  1  0.925700  0.522700  0.532800  1.0
  C  C1148  1  0.403000  0.925700  0.032800  1.0
  C  C1149  1  0.522700  0.597000  0.032800  1.0
  C  C1150  1  0.074300  0.477300  0.032800  1.0
  C  C1151  1  0.629500  0.129200  0.521400  1.0
  C  C1152  1  0.499700  0.370500  0.521400  1.0
  C  C1153  1  0.870800  0.500300  0.521400  1.0
  C  C1154  1  0.370500  0.870800  0.021400  1.0
  C  C1155  1  0.500300  0.629500  0.021400  1.0
  C  C1156  1  0.129200  0.499700  0.021400  1.0
  C  C1157  1  0.655600  0.174100  0.546100  1.0
  C  C1158  1  0.518500  0.344400  0.546100  1.0
  C  C1159  1  0.825900  0.481500  0.546100  1.0
  C  C1160  1  0.344400  0.825900  0.046100  1.0
  C  C1161  1  0.481500  0.655600  0.046100  1.0
  C  C1162  1  0.174100  0.518500  0.046100  1.0
  C  C1163  1  0.645000  0.161400  0.580800  1.0
  C  C1164  1  0.516400  0.355000  0.580800  1.0
  C  C1165  1  0.838600  0.483600  0.580800  1.0
  C  C1166  1  0.355000  0.838600  0.080800  1.0
  C  C1167  1  0.483600  0.645000  0.080800  1.0
  C  C1168  1  0.161400  0.516400  0.080800  1.0
  C  C1169  1  0.611000  0.105600  0.592600  1.0
  C  C1170  1  0.494600  0.389000  0.592600  1.0
  C  C1171  1  0.894400  0.505400  0.592600  1.0
  C  C1172  1  0.389000  0.894400  0.092600  1.0
  C  C1173  1  0.505400  0.611000  0.092600  1.0
  C  C1174  1  0.105600  0.494600  0.092600  1.0
  C  C1175  1  0.690400  0.235700  0.531500  1.0
  C  C1176  1  0.545300  0.309600  0.531500  1.0
  C  C1177  1  0.764300  0.454700  0.531500  1.0
  C  C1178  1  0.309600  0.764300  0.031500  1.0
  C  C1179  1  0.454700  0.690400  0.031500  1.0
  C  C1180  1  0.235700  0.545300  0.031500  1.0
  C  C1181  1  0.568300  0.977100  0.592500  1.0
  C  C1182  1  0.408800  0.431700  0.592500  1.0
  C  C1183  1  0.022900  0.591200  0.592500  1.0
  C  C1184  1  0.431700  0.022900  0.092500  1.0
  C  C1185  1  0.591200  0.568300  0.092500  1.0
  C  C1186  1  0.977100  0.408800  0.092500  1.0
  C  C1187  1  0.532500  0.917800  0.604200  1.0
  C  C1188  1  0.385300  0.467500  0.604200  1.0
  C  C1189  1  0.082200  0.614700  0.604200  1.0
  C  C1190  1  0.467500  0.082200  0.104200  1.0
  C  C1191  1  0.614700  0.532500  0.104200  1.0
  C  C1192  1  0.917800  0.385300  0.104200  1.0
  C  C1193  1  0.551800  0.886800  0.622200  1.0
  C  C1194  1  0.335000  0.448200  0.622200  1.0
  C  C1195  1  0.113200  0.665000  0.622200  1.0
  C  C1196  1  0.448200  0.113200  0.122200  1.0
  C  C1197  1  0.665000  0.551800  0.122200  1.0
  C  C1198  1  0.886800  0.335000  0.122200  1.0
  C  C1199  1  0.514900  0.829700  0.630300  1.0
  C  C1200  1  0.314800  0.485100  0.630300  1.0
  C  C1201  1  0.170300  0.685200  0.630300  1.0
  C  C1202  1  0.485100  0.170300  0.130300  1.0
  C  C1203  1  0.685200  0.514900  0.130300  1.0
  C  C1204  1  0.829700  0.314800  0.130300  1.0
  C  C1205  1  0.457200  0.806400  0.620800  1.0
  C  C1206  1  0.349200  0.542800  0.620800  1.0
  C  C1207  1  0.193600  0.650800  0.620800  1.0
  C  C1208  1  0.542800  0.193600  0.120800  1.0
  C  C1209  1  0.650800  0.457200  0.120800  1.0
  C  C1210  1  0.806400  0.349200  0.120800  1.0
  C  C1211  1  0.439300  0.840000  0.602800  1.0
  C  C1212  1  0.400700  0.560700  0.602800  1.0
  C  C1213  1  0.160000  0.599300  0.602800  1.0
  C  C1214  1  0.560700  0.160000  0.102800  1.0
  C  C1215  1  0.599300  0.439300  0.102800  1.0
  C  C1216  1  0.840000  0.400700  0.102800  1.0
  C  C1217  1  0.365100  0.728200  0.621500  1.0
  C  C1218  1  0.363100  0.634900  0.621500  1.0
  C  C1219  1  0.271800  0.636900  0.621500  1.0
  C  C1220  1  0.634900  0.271800  0.121500  1.0
  C  C1221  1  0.636900  0.365100  0.121500  1.0
  C  C1222  1  0.728200  0.363100  0.121500  1.0
  C  C1223  1  0.885000  0.929600  0.722900  1.0
  C  C1224  1  0.044600  0.115000  0.722900  1.0
  C  C1225  1  0.070400  0.955400  0.722900  1.0
  C  C1226  1  0.115000  0.070400  0.222900  1.0
  C  C1227  1  0.955400  0.885000  0.222900  1.0
  C  C1228  1  0.929600  0.044600  0.222900  1.0
  C  C1229  1  0.902600  0.964300  0.752000  1.0
  C  C1230  1  0.061700  0.097400  0.752000  1.0
  C  C1231  1  0.035700  0.938300  0.752000  1.0
  C  C1232  1  0.097400  0.035700  0.252000  1.0
  C  C1233  1  0.938300  0.902600  0.252000  1.0
  C  C1234  1  0.964300  0.061700  0.252000  1.0
  C  C1235  1  0.864800  0.970400  0.774400  1.0
  C  C1236  1  0.105600  0.135200  0.774400  1.0
  C  C1237  1  0.029600  0.894400  0.774400  1.0
  C  C1238  1  0.135200  0.029600  0.274400  1.0
  C  C1239  1  0.894400  0.864800  0.274400  1.0
  C  C1240  1  0.970400  0.105600  0.274400  1.0
  C  C1241  1  0.805200  0.937600  0.767900  1.0
  C  C1242  1  0.132400  0.194800  0.767900  1.0
  C  C1243  1  0.062400  0.867600  0.767900  1.0
  C  C1244  1  0.194800  0.062400  0.267900  1.0
  C  C1245  1  0.867600  0.805200  0.267900  1.0
  C  C1246  1  0.937600  0.132400  0.267900  1.0
  C  C1247  1  0.789100  0.904100  0.737300  1.0
  C  C1248  1  0.115000  0.210900  0.737300  1.0
  C  C1249  1  0.095900  0.885000  0.737300  1.0
  C  C1250  1  0.210900  0.095900  0.237300  1.0
  C  C1251  1  0.885000  0.789100  0.237300  1.0
  C  C1252  1  0.904100  0.115000  0.237300  1.0
  C  C1253  1  0.828100  0.899300  0.716500  1.0
  C  C1254  1  0.071200  0.171900  0.716500  1.0
  C  C1255  1  0.100700  0.928800  0.716500  1.0
  C  C1256  1  0.171900  0.100700  0.216500  1.0
  C  C1257  1  0.928800  0.828100  0.216500  1.0
  C  C1258  1  0.899300  0.071200  0.216500  1.0
  C  C1259  1  0.764700  0.945800  0.788600  1.0
  C  C1260  1  0.181100  0.235300  0.788600  1.0
  C  C1261  1  0.054200  0.818900  0.788600  1.0
  C  C1262  1  0.235300  0.054200  0.288600  1.0
  C  C1263  1  0.818900  0.764700  0.288600  1.0
  C  C1264  1  0.945800  0.181100  0.288600  1.0
  C  C1265  1  0.913000  0.879900  0.684400  1.0
  C  C1266  1  0.966900  0.087000  0.684400  1.0
  C  C1267  1  0.120100  0.033100  0.684400  1.0
  C  C1268  1  0.087000  0.120100  0.184400  1.0
  C  C1269  1  0.033100  0.913000  0.184400  1.0
  C  C1270  1  0.879900  0.966900  0.184400  1.0
  C  C1271  1  0.947600  0.879200  0.655400  1.0
  C  C1272  1  0.931600  0.052400  0.655400  1.0
  C  C1273  1  0.120800  0.068400  0.655400  1.0
  C  C1274  1  0.052400  0.120800  0.155400  1.0
  C  C1275  1  0.068400  0.947600  0.155400  1.0
  C  C1276  1  0.879200  0.931600  0.155400  1.0
  C  C1277  1  0.937600  0.828600  0.639400  1.0
  C  C1278  1  0.891000  0.062400  0.639400  1.0
  C  C1279  1  0.171400  0.109000  0.639400  1.0
  C  C1280  1  0.062400  0.171400  0.139400  1.0
  C  C1281  1  0.109000  0.937600  0.139400  1.0
  C  C1282  1  0.828600  0.891000  0.139400  1.0
  C  C1283  1  0.972800  0.830300  0.611900  1.0
  C  C1284  1  0.857500  0.027200  0.611900  1.0
  C  C1285  1  0.169700  0.142500  0.611900  1.0
  C  C1286  1  0.027200  0.169700  0.111900  1.0
  C  C1287  1  0.142500  0.972800  0.111900  1.0
  C  C1288  1  0.830300  0.857500  0.111900  1.0
  C  C1289  1  0.017900  0.882100  0.602200  1.0
  C  C1290  1  0.864200  0.982100  0.602200  1.0
  C  C1291  1  0.117900  0.135800  0.602200  1.0
  C  C1292  1  0.982100  0.117900  0.102200  1.0
  C  C1293  1  0.135800  0.017900  0.102200  1.0
  C  C1294  1  0.882100  0.864200  0.102200  1.0
  C  C1295  1  0.026600  0.932900  0.619300  1.0
  C  C1296  1  0.906300  0.973400  0.619300  1.0
  C  C1297  1  0.067100  0.093700  0.619300  1.0
  C  C1298  1  0.973400  0.067100  0.119300  1.0
  C  C1299  1  0.093700  0.026600  0.119300  1.0
  C  C1300  1  0.932900  0.906300  0.119300  1.0
  C  C1301  1  0.096000  0.936000  0.562800  1.0
  C  C1302  1  0.840000  0.904000  0.562800  1.0
  C  C1303  1  0.064000  0.160000  0.562800  1.0
  C  C1304  1  0.904000  0.064000  0.062800  1.0
  C  C1305  1  0.160000  0.096000  0.062800  1.0
  C  C1306  1  0.936000  0.840000  0.062800  1.0
  C  C1307  1  0.402400  0.296800  0.438200  1.0
  C  C1308  1  0.894400  0.597600  0.438200  1.0
  C  C1309  1  0.703200  0.105600  0.438200  1.0
  C  C1310  1  0.597600  0.703200  0.938200  1.0
  C  C1311  1  0.105600  0.402400  0.938200  1.0
  C  C1312  1  0.296800  0.894400  0.938200  1.0
  C  C1313  1  0.455200  0.302300  0.436300  1.0
  C  C1314  1  0.847100  0.544800  0.436300  1.0
  C  C1315  1  0.697700  0.152900  0.436300  1.0
  C  C1316  1  0.544800  0.697700  0.936300  1.0
  C  C1317  1  0.152900  0.455200  0.936300  1.0
  C  C1318  1  0.302300  0.847100  0.936300  1.0
  C  C1319  1  0.499900  0.348400  0.419100  1.0
  C  C1320  1  0.848500  0.500100  0.419100  1.0
  C  C1321  1  0.651600  0.151500  0.419100  1.0
  C  C1322  1  0.500100  0.651600  0.919100  1.0
  C  C1323  1  0.151500  0.499900  0.919100  1.0
  C  C1324  1  0.348400  0.848500  0.919100  1.0
  C  C1325  1  0.489500  0.389400  0.403000  1.0
  C  C1326  1  0.899900  0.510500  0.403000  1.0
  C  C1327  1  0.610600  0.100100  0.403000  1.0
  C  C1328  1  0.510500  0.610600  0.903000  1.0
  C  C1329  1  0.100100  0.489500  0.903000  1.0
  C  C1330  1  0.389400  0.899900  0.903000  1.0
  C  C1331  1  0.435800  0.383200  0.404700  1.0
  C  C1332  1  0.947400  0.564200  0.404700  1.0
  C  C1333  1  0.616800  0.052600  0.404700  1.0
  C  C1334  1  0.564200  0.616800  0.904700  1.0
  C  C1335  1  0.052600  0.435800  0.904700  1.0
  C  C1336  1  0.383200  0.947400  0.904700  1.0
  C  C1337  1  0.390800  0.336600  0.422900  1.0
  C  C1338  1  0.945800  0.609200  0.422900  1.0
  C  C1339  1  0.663400  0.054200  0.422900  1.0
  C  C1340  1  0.609200  0.663400  0.922900  1.0
  C  C1341  1  0.054200  0.390800  0.922900  1.0
  C  C1342  1  0.336600  0.945800  0.922900  1.0
  C  C1343  1  0.535800  0.440900  0.384900  1.0
  C  C1344  1  0.905100  0.464200  0.384900  1.0
  C  C1345  1  0.559100  0.094900  0.384900  1.0
  C  C1346  1  0.464200  0.559100  0.884900  1.0
  C  C1347  1  0.094900  0.535800  0.884900  1.0
  C  C1348  1  0.440900  0.905100  0.884900  1.0
  C  C1349  1  0.355500  0.234900  0.487100  1.0
  C  C1350  1  0.879400  0.644500  0.487100  1.0
  C  C1351  1  0.765100  0.120600  0.487100  1.0
  C  C1352  1  0.644500  0.765100  0.987100  1.0
  C  C1353  1  0.120600  0.355500  0.987100  1.0
  C  C1354  1  0.234900  0.879400  0.987100  1.0
  C  C1355  1  0.311900  0.181600  0.502000  1.0
  C  C1356  1  0.869700  0.688100  0.502000  1.0
  C  C1357  1  0.818400  0.130300  0.502000  1.0
  C  C1358  1  0.688100  0.818400  0.002000  1.0
  C  C1359  1  0.130300  0.311900  0.002000  1.0
  C  C1360  1  0.181600  0.869700  0.002000  1.0
  C  C1361  1  0.312200  0.167100  0.537000  1.0
  C  C1362  1  0.854900  0.687800  0.537000  1.0
  C  C1363  1  0.832900  0.145100  0.537000  1.0
  C  C1364  1  0.687800  0.832900  0.037000  1.0
  C  C1365  1  0.145100  0.312200  0.037000  1.0
  C  C1366  1  0.167100  0.854900  0.037000  1.0
  C  C1367  1  0.271700  0.112400  0.548600  1.0
  C  C1368  1  0.840700  0.728300  0.548600  1.0
  C  C1369  1  0.887600  0.159300  0.548600  1.0
  C  C1370  1  0.728300  0.887600  0.048600  1.0
  C  C1371  1  0.159300  0.271700  0.048600  1.0
  C  C1372  1  0.112400  0.840700  0.048600  1.0
  C  C1373  1  0.233800  0.074700  0.524400  1.0
  C  C1374  1  0.840900  0.766200  0.524400  1.0
  C  C1375  1  0.925300  0.159100  0.524400  1.0
  C  C1376  1  0.766200  0.925300  0.024400  1.0
  C  C1377  1  0.159100  0.233800  0.024400  1.0
  C  C1378  1  0.074700  0.840900  0.024400  1.0
  C  C1379  1  0.233400  0.092300  0.488900  1.0
  C  C1380  1  0.858900  0.766600  0.488900  1.0
  C  C1381  1  0.907700  0.141100  0.488900  1.0
  C  C1382  1  0.766600  0.907700  0.988900  1.0
  C  C1383  1  0.141100  0.233400  0.988900  1.0
  C  C1384  1  0.092300  0.858900  0.988900  1.0
  C  C1385  1  0.158400  0.979600  0.510700  1.0
  C  C1386  1  0.821200  0.841600  0.510700  1.0
  C  C1387  1  0.020400  0.178800  0.510700  1.0
  C  C1388  1  0.841600  0.020400  0.010700  1.0
  C  C1389  1  0.178800  0.158400  0.010700  1.0
  C  C1390  1  0.979600  0.821200  0.010700  1.0
  C  C1391  1  0.887200  0.660600  0.343900  1.0
  C  C1392  1  0.773400  0.112800  0.343900  1.0
  C  C1393  1  0.339400  0.226600  0.343900  1.0
  C  C1394  1  0.112800  0.339400  0.843900  1.0
  C  C1395  1  0.226600  0.887200  0.843900  1.0
  C  C1396  1  0.660600  0.773400  0.843900  1.0
  C  C1397  1  0.895700  0.682300  0.309200  1.0
  C  C1398  1  0.786600  0.104300  0.309200  1.0
  C  C1399  1  0.317700  0.213400  0.309200  1.0
  C  C1400  1  0.104300  0.317700  0.809200  1.0
  C  C1401  1  0.213400  0.895700  0.809200  1.0
  C  C1402  1  0.682300  0.786600  0.809200  1.0
  C  C1403  1  0.865400  0.646500  0.280900  1.0
  C  C1404  1  0.781100  0.134600  0.280900  1.0
  C  C1405  1  0.353500  0.218900  0.280900  1.0
  C  C1406  1  0.134600  0.353500  0.780900  1.0
  C  C1407  1  0.218900  0.865400  0.780900  1.0
  C  C1408  1  0.646500  0.781100  0.780900  1.0
  C  C1409  1  0.826100  0.588400  0.286400  1.0
  C  C1410  1  0.762300  0.173900  0.286400  1.0
  C  C1411  1  0.411600  0.237700  0.286400  1.0
  C  C1412  1  0.173900  0.411600  0.786400  1.0
  C  C1413  1  0.237700  0.826100  0.786400  1.0
  C  C1414  1  0.588400  0.762300  0.786400  1.0
  C  C1415  1  0.817900  0.567400  0.321400  1.0
  C  C1416  1  0.749500  0.182100  0.321400  1.0
  C  C1417  1  0.432600  0.250500  0.321400  1.0
  C  C1418  1  0.182100  0.432600  0.821400  1.0
  C  C1419  1  0.250500  0.817900  0.821400  1.0
  C  C1420  1  0.567400  0.749500  0.821400  1.0
  C  C1421  1  0.848100  0.603000  0.349800  1.0
  C  C1422  1  0.754900  0.151900  0.349800  1.0
  C  C1423  1  0.397000  0.245100  0.349800  1.0
  C  C1424  1  0.151900  0.397000  0.849800  1.0
  C  C1425  1  0.245100  0.848100  0.849800  1.0
  C  C1426  1  0.603000  0.754900  0.849800  1.0
  C  C1427  1  0.794500  0.549600  0.255700  1.0
  C  C1428  1  0.755100  0.205500  0.255700  1.0
  C  C1429  1  0.450400  0.244900  0.255700  1.0
  C  C1430  1  0.205500  0.450400  0.755700  1.0
  C  C1431  1  0.244900  0.794500  0.755700  1.0
  C  C1432  1  0.549600  0.755100  0.755700  1.0
  C  C1433  1  0.969700  0.727800  0.368100  1.0
  C  C1434  1  0.758100  0.030300  0.368100  1.0
  C  C1435  1  0.272200  0.241900  0.368100  1.0
  C  C1436  1  0.030300  0.272200  0.868100  1.0
  C  C1437  1  0.241900  0.969700  0.868100  1.0
  C  C1438  1  0.727800  0.758100  0.868100  1.0
  C  C1439  1  0.005800  0.766800  0.396500  1.0
  C  C1440  1  0.761000  0.994200  0.396500  1.0
  C  C1441  1  0.233200  0.239000  0.396500  1.0
  C  C1442  1  0.994200  0.233200  0.896500  1.0
  C  C1443  1  0.239000  0.005800  0.896500  1.0
  C  C1444  1  0.766800  0.761000  0.896500  1.0
  C  C1445  1  0.063100  0.800500  0.391600  1.0
  C  C1446  1  0.737400  0.936900  0.391600  1.0
  C  C1447  1  0.199500  0.262600  0.391600  1.0
  C  C1448  1  0.936900  0.199500  0.891600  1.0
  C  C1449  1  0.262600  0.063100  0.891600  1.0
  C  C1450  1  0.800500  0.737400  0.891600  1.0
  C  C1451  1  0.094500  0.836500  0.418100  1.0
  C  C1452  1  0.742000  0.905500  0.418100  1.0
  C  C1453  1  0.163500  0.258000  0.418100  1.0
  C  C1454  1  0.905500  0.163500  0.918100  1.0
  C  C1455  1  0.258000  0.094500  0.918100  1.0
  C  C1456  1  0.836500  0.742000  0.918100  1.0
  C  C1457  1  0.067700  0.840900  0.449500  1.0
  C  C1458  1  0.773200  0.932300  0.449500  1.0
  C  C1459  1  0.159100  0.226800  0.449500  1.0
  C  C1460  1  0.932300  0.159100  0.949500  1.0
  C  C1461  1  0.226800  0.067700  0.949500  1.0
  C  C1462  1  0.840900  0.773200  0.949500  1.0
  C  C1463  1  0.007800  0.805200  0.451300  1.0
  C  C1464  1  0.797400  0.992200  0.451300  1.0
  C  C1465  1  0.194800  0.202600  0.451300  1.0
  C  C1466  1  0.992200  0.194800  0.951300  1.0
  C  C1467  1  0.202600  0.007800  0.951300  1.0
  C  C1468  1  0.805200  0.797400  0.951300  1.0
  C  C1469  1  0.077000  0.883600  0.506600  1.0
  C  C1470  1  0.806600  0.923000  0.506600  1.0
  C  C1471  1  0.116400  0.193400  0.506600  1.0
  C  C1472  1  0.923000  0.116400  0.006600  1.0
  C  C1473  1  0.193400  0.077000  0.006600  1.0
  C  C1474  1  0.883600  0.806600  0.006600  1.0
  C  C1475  1  0.122900  0.924400  0.531600  1.0
  C  C1476  1  0.801500  0.877100  0.531600  1.0
  C  C1477  1  0.075600  0.198500  0.531600  1.0
  C  C1478  1  0.877100  0.075600  0.031600  1.0
  C  C1479  1  0.198500  0.122900  0.031600  1.0
  C  C1480  1  0.924400  0.801500  0.031600  1.0
  C  C1481  1  0.159800  0.898100  0.544100  1.0
  C  C1482  1  0.738300  0.840200  0.544100  1.0
  C  C1483  1  0.101900  0.261700  0.544100  1.0
  C  C1484  1  0.840200  0.101900  0.044100  1.0
  C  C1485  1  0.261700  0.159800  0.044100  1.0
  C  C1486  1  0.898100  0.738300  0.044100  1.0
  C  C1487  1  0.401200  0.155500  0.428100  1.0
  C  C1488  1  0.754300  0.598800  0.428100  1.0
  C  C1489  1  0.844500  0.245700  0.428100  1.0
  C  C1490  1  0.598800  0.844500  0.928100  1.0
  C  C1491  1  0.245700  0.401200  0.928100  1.0
  C  C1492  1  0.155500  0.754300  0.928100  1.0
  C  C1493  1  0.412600  0.152500  0.463100  1.0
  C  C1494  1  0.739900  0.587400  0.463100  1.0
  C  C1495  1  0.847500  0.260100  0.463100  1.0
  C  C1496  1  0.587400  0.847500  0.963100  1.0
  C  C1497  1  0.260100  0.412600  0.963100  1.0
  C  C1498  1  0.152500  0.739900  0.963100  1.0
  C  C1499  1  0.465900  0.171400  0.475900  1.0
  C  C1500  1  0.705500  0.534100  0.475900  1.0
  C  C1501  1  0.828600  0.294500  0.475900  1.0
  C  C1502  1  0.534100  0.828600  0.975900  1.0
  C  C1503  1  0.294500  0.465900  0.975900  1.0
  C  C1504  1  0.171400  0.705500  0.975900  1.0
  C  C1505  1  0.512500  0.196100  0.452200  1.0
  C  C1506  1  0.683600  0.487500  0.452200  1.0
  C  C1507  1  0.803900  0.316400  0.452200  1.0
  C  C1508  1  0.487500  0.803900  0.952200  1.0
  C  C1509  1  0.316400  0.512500  0.952200  1.0
  C  C1510  1  0.196100  0.683600  0.952200  1.0
  C  C1511  1  0.502000  0.198700  0.416800  1.0
  C  C1512  1  0.696700  0.498000  0.416800  1.0
  C  C1513  1  0.801300  0.303300  0.416800  1.0
  C  C1514  1  0.498000  0.801300  0.916800  1.0
  C  C1515  1  0.303300  0.502000  0.916800  1.0
  C  C1516  1  0.198700  0.696700  0.916800  1.0
  C  C1517  1  0.445100  0.175300  0.405000  1.0
  C  C1518  1  0.730200  0.554900  0.405000  1.0
  C  C1519  1  0.824700  0.269800  0.405000  1.0
  C  C1520  1  0.554900  0.824700  0.905000  1.0
  C  C1521  1  0.269800  0.445100  0.905000  1.0
  C  C1522  1  0.175300  0.730200  0.905000  1.0
  C  C1523  1  0.573100  0.219900  0.465500  1.0
  C  C1524  1  0.646800  0.426900  0.465500  1.0
  C  C1525  1  0.780100  0.353200  0.465500  1.0
  C  C1526  1  0.426900  0.780100  0.965500  1.0
  C  C1527  1  0.353200  0.573100  0.965500  1.0
  C  C1528  1  0.219900  0.646800  0.965500  1.0
  C  C1529  1  0.315500  0.085500  0.404600  1.0
  C  C1530  1  0.770000  0.684500  0.404600  1.0
  C  C1531  1  0.914500  0.230000  0.404600  1.0
  C  C1532  1  0.684500  0.914500  0.904600  1.0
  C  C1533  1  0.230000  0.315500  0.904600  1.0
  C  C1534  1  0.085500  0.770000  0.904600  1.0
  C  C1535  1  0.255300  0.062200  0.395500  1.0
  C  C1536  1  0.806900  0.744700  0.395500  1.0
  C  C1537  1  0.937800  0.193100  0.395500  1.0
  C  C1538  1  0.744700  0.937800  0.895500  1.0
  C  C1539  1  0.193100  0.255300  0.895500  1.0
  C  C1540  1  0.062200  0.806900  0.895500  1.0
  C  C1541  1  0.221900  0.007000  0.382000  1.0
  C  C1542  1  0.785100  0.778100  0.382000  1.0
  C  C1543  1  0.993000  0.214900  0.382000  1.0
  C  C1544  1  0.778100  0.993000  0.882000  1.0
  C  C1545  1  0.214900  0.221900  0.882000  1.0
  C  C1546  1  0.007000  0.785100  0.882000  1.0
  C  C1547  1  0.165900  0.985600  0.375000  1.0
  C  C1548  1  0.819700  0.834100  0.375000  1.0
  C  C1549  1  0.014400  0.180300  0.375000  1.0
  C  C1550  1  0.834100  0.014400  0.875000  1.0
  C  C1551  1  0.180300  0.165900  0.875000  1.0
  C  C1552  1  0.985600  0.819700  0.875000  1.0
  C  C1553  1  0.143600  0.021600  0.380400  1.0
  C  C1554  1  0.878000  0.856400  0.380400  1.0
  C  C1555  1  0.978400  0.122000  0.380400  1.0
  C  C1556  1  0.856400  0.978400  0.880400  1.0
  C  C1557  1  0.122000  0.143600  0.880400  1.0
  C  C1558  1  0.021600  0.878000  0.880400  1.0
  C  C1559  1  0.176800  0.074800  0.394700  1.0
  C  C1560  1  0.898000  0.823200  0.394700  1.0
  C  C1561  1  0.925200  0.102000  0.394700  1.0
  C  C1562  1  0.823200  0.925200  0.894700  1.0
  C  C1563  1  0.102000  0.176800  0.894700  1.0
  C  C1564  1  0.074800  0.898000  0.894700  1.0
  C  C1565  1  0.062000  0.032800  0.381900  1.0
  C  C1566  1  0.970800  0.938000  0.381900  1.0
  C  C1567  1  0.967200  0.029200  0.381900  1.0
  C  C1568  1  0.938000  0.967200  0.881900  1.0
  C  C1569  1  0.029200  0.062000  0.881900  1.0
  C  C1570  1  0.032800  0.970800  0.881900  1.0
  S  S1571  1  0.241630  0.002630  0.638350  1
  S  S1572  1  0.761000  0.758370  0.638350  1
  S  S1573  1  0.997370  0.239000  0.638350  1
  S  S1574  1  0.758370  0.997370  0.138350  1
  S  S1575  1  0.239000  0.241630  0.138350  1
  S  S1576  1  0.002630  0.761000  0.138350  1
  S  S1577  1  0.341280  0.963880  0.433670  1
  S  S1578  1  0.622600  0.658720  0.433670  1
  S  S1579  1  0.036120  0.377400  0.433670  1
  S  S1580  1  0.658720  0.036120  0.933670  1
  S  S1581  1  0.377400  0.341280  0.933670  1
  S  S1582  1  0.963880  0.622600  0.933670  1
  S  S1583  1  0.570950  0.899660  0.351960  1
  S  S1584  1  0.328710  0.429050  0.351960  1
  S  S1585  1  0.100340  0.671290  0.351960  1
  S  S1586  1  0.429050  0.100340  0.851960  1
  S  S1587  1  0.671290  0.570950  0.851960  1
  S  S1588  1  0.899660  0.328710  0.851960  1
  S  S1589  1  0.710130  0.998700  0.555880  1
  S  S1590  1  0.288570  0.289870  0.555880  1
  S  S1591  1  0.001300  0.711430  0.555880  1
  S  S1592  1  0.289870  0.001300  0.055880  1
  S  S1593  1  0.711430  0.710130  0.055880  1
  S  S1594  1  0.998700  0.288570  0.055880  1
  S  S1595  1  0.000000  0.000000  0.492900  1
  S  S1596  1  0.000000  0.000000  0.992900  1
  S  S1597  1  0.000000  0.000000  0.471400  1
  S  S1598  1  0.000000  0.000000  0.971400  1
  S  S1599  1  0.354300  0.712800  0.516600  1
  S  S1600  1  0.358500  0.645700  0.516600  1
  S  S1601  1  0.287200  0.641500  0.516600  1
  S  S1602  1  0.645700  0.287200  0.016600  1
  S  S1603  1  0.641500  0.354300  0.016600  1
  S  S1604  1  0.712800  0.358500  0.016600  1
  N  N1605  1  0.178700  0.887100  0.334500  1
  N  N1606  1  0.708400  0.821300  0.334500  1
  N  N1607  1  0.112900  0.291600  0.334500  1
  N  N1608  1  0.821300  0.112900  0.834500  1
  N  N1609  1  0.291600  0.178700  0.834500  1
  N  N1610  1  0.887100  0.708400  0.834500  1
  N  N1611  1  0.168700  0.792900  0.669500  1
  N  N1612  1  0.624200  0.831300  0.669500  1
  N  N1613  1  0.207100  0.375800  0.669500  1
  N  N1614  1  0.831300  0.207100  0.169500  1
  N  N1615  1  0.375800  0.168700  0.169500  1
  N  N1616  1  0.792900  0.624200  0.169500  1
  N  N1617  1  0.331800  0.592900  0.289000  1.0
  N  N1618  1  0.261100  0.668200  0.289000  1.0
  N  N1619  1  0.407100  0.738900  0.289000  1.0
  N  N1620  1  0.668200  0.407100  0.789000  1.0
  N  N1621  1  0.738900  0.331800  0.789000  1.0
  N  N1622  1  0.592900  0.261100  0.789000  1.0
  N  N1623  1  0.393900  0.655400  0.345100  1.0
  N  N1624  1  0.261500  0.606100  0.345100  1.0
  N  N1625  1  0.344600  0.738500  0.345100  1.0
  N  N1626  1  0.606100  0.344600  0.845100  1.0
  N  N1627  1  0.738500  0.393900  0.845100  1.0
  N  N1628  1  0.655400  0.261500  0.845100  1.0
  N  N1629  1  0.450600  0.019000  0.540500  1.0
  N  N1630  1  0.568400  0.549400  0.540500  1.0
  N  N1631  1  0.981000  0.431600  0.540500  1.0
  N  N1632  1  0.549400  0.981000  0.040500  1.0
  N  N1633  1  0.431600  0.450600  0.040500  1.0
  N  N1634  1  0.019000  0.568400  0.040500  1.0
  N  N1635  1  0.468100  0.936500  0.515600  1.0
  N  N1636  1  0.468400  0.531900  0.515600  1.0
  N  N1637  1  0.063500  0.531600  0.515600  1.0
  N  N1638  1  0.531900  0.063500  0.015600  1.0
  N  N1639  1  0.531600  0.468100  0.015600  1.0
  N  N1640  1  0.936500  0.468400  0.015600  1.0
  N  N1641  1  0.542600  0.571400  0.620300  1.0
  N  N1642  1  0.028800  0.457400  0.620300  1.0
  N  N1643  1  0.428600  0.971200  0.620300  1.0
  N  N1644  1  0.457400  0.428600  0.120300  1.0
  N  N1645  1  0.971200  0.542600  0.120300  1.0
  N  N1646  1  0.571400  0.028800  0.120300  1.0
  N  N1647  1  0.534200  0.636500  0.568000  1.0
  N  N1648  1  0.102300  0.465800  0.568000  1.0
  N  N1649  1  0.363500  0.897700  0.568000  1.0
  N  N1650  1  0.465800  0.363500  0.068000  1.0
  N  N1651  1  0.897700  0.534200  0.068000  1.0
  N  N1652  1  0.636500  0.102300  0.068000  1.0
  N  N1653  1  0.548300  0.005100  0.577800  1.0
  N  N1654  1  0.456800  0.451700  0.577800  1.0
  N  N1655  1  0.994900  0.543200  0.577800  1.0
  N  N1656  1  0.451700  0.994900  0.077800  1.0
  N  N1657  1  0.543200  0.548300  0.077800  1.0
  N  N1658  1  0.005100  0.456800  0.077800  1.0
  N  N1659  1  0.477000  0.894700  0.595100  1.0
  N  N1660  1  0.417700  0.523000  0.595100  1.0
  N  N1661  1  0.105300  0.582300  0.595100  1.0
  N  N1662  1  0.523000  0.105300  0.095100  1.0
  N  N1663  1  0.582300  0.477000  0.095100  1.0
  N  N1664  1  0.894700  0.417700  0.095100  1.0
  N  N1665  1  0.926200  0.927600  0.700500  1.0
  N  N1666  1  0.001400  0.073800  0.700500  1.0
  N  N1667  1  0.072400  0.998600  0.700500  1.0
  N  N1668  1  0.073800  0.072400  0.200500  1.0
  N  N1669  1  0.998600  0.926200  0.200500  1.0
  N  N1670  1  0.927600  0.001400  0.200500  1.0
  N  N1671  1  0.991700  0.928600  0.645900  1.0
  N  N1672  1  0.936900  0.008300  0.645900  1.0
  N  N1673  1  0.071400  0.063100  0.645900  1.0
  N  N1674  1  0.008300  0.071400  0.145900  1.0
  N  N1675  1  0.063100  0.991700  0.145900  1.0
  N  N1676  1  0.928600  0.936900  0.145900  1.0
  N  N1677  1  0.356400  0.246000  0.453500  1.0
  N  N1678  1  0.889600  0.643600  0.453500  1.0
  N  N1679  1  0.754000  0.110400  0.453500  1.0
  N  N1680  1  0.643600  0.754000  0.953500  1.0
  N  N1681  1  0.110400  0.356400  0.953500  1.0
  N  N1682  1  0.246000  0.889600  0.953500  1.0
  N  N1683  1  0.273500  0.145300  0.477700  1.0
  N  N1684  1  0.871800  0.726500  0.477700  1.0
  N  N1685  1  0.854700  0.128200  0.477700  1.0
  N  N1686  1  0.726500  0.854700  0.977700  1.0
  N  N1687  1  0.128200  0.273500  0.977700  1.0
  N  N1688  1  0.145300  0.871800  0.977700  1.0
  N  N1689  1  0.916500  0.695300  0.373600  1.0
  N  N1690  1  0.778800  0.083500  0.373600  1.0
  N  N1691  1  0.304700  0.221200  0.373600  1.0
  N  N1692  1  0.083500  0.304700  0.873600  1.0
  N  N1693  1  0.221200  0.916500  0.873600  1.0
  N  N1694  1  0.695300  0.778800  0.873600  1.0
  N  N1695  1  0.977200  0.770800  0.425300  1.0
  N  N1696  1  0.793600  0.022800  0.425300  1.0
  N  N1697  1  0.229200  0.206400  0.425300  1.0
  N  N1698  1  0.022800  0.229200  0.925300  1.0
  N  N1699  1  0.206400  0.977200  0.925300  1.0
  N  N1700  1  0.770800  0.793600  0.925300  1.0
  N  N1701  1  0.343900  0.135700  0.416900  1.0
  N  N1702  1  0.791800  0.656100  0.416900  1.0
  N  N1703  1  0.864300  0.208200  0.416900  1.0
  N  N1704  1  0.656100  0.864300  0.916900  1.0
  N  N1705  1  0.208200  0.343900  0.916900  1.0
  N  N1706  1  0.135700  0.791800  0.916900  1.0
  N  N1707  1  0.232200  0.095200  0.401500  1.0
  N  N1708  1  0.863000  0.767800  0.401500  1.0
  N  N1709  1  0.904800  0.137000  0.401500  1.0
  N  N1710  1  0.767800  0.904800  0.901500  1.0
  N  N1711  1  0.137000  0.232200  0.901500  1.0
  N  N1712  1  0.095200  0.863000  0.901500  1.0
  O  O1713  1  0.271500  0.065800  0.637200  1
  O  O1714  1  0.794300  0.728500  0.637200  1
  O  O1715  1  0.934200  0.205700  0.637200  1
  O  O1716  1  0.728500  0.934200  0.137200  1
  O  O1717  1  0.205700  0.271500  0.137200  1
  O  O1718  1  0.065800  0.794300  0.137200  1
  O  O1719  1  0.263600  0.976700  0.614100  1
  O  O1720  1  0.713100  0.736400  0.614100  1
  O  O1721  1  0.023300  0.286900  0.614100  1
  O  O1722  1  0.736400  0.023300  0.114100  1
  O  O1723  1  0.286900  0.263600  0.114100  1
  O  O1724  1  0.976700  0.713100  0.114100  1
  O  O1725  1  0.180100  0.975700  0.639400  1
  O  O1726  1  0.795600  0.819900  0.639400  1
  O  O1727  1  0.024300  0.204400  0.639400  1
  O  O1728  1  0.819900  0.024300  0.139400  1
  O  O1729  1  0.204400  0.180100  0.139400  1
  O  O1730  1  0.975700  0.795600  0.139400  1
  O  O1731  1  0.389800  0.018400  0.436300  1
  O  O1732  1  0.628600  0.610200  0.436300  1
  O  O1733  1  0.981600  0.371400  0.436300  1
  O  O1734  1  0.610200  0.981600  0.936300  1
  O  O1735  1  0.371400  0.389800  0.936300  1
  O  O1736  1  0.018400  0.628600  0.936300  1
  O  O1737  1  0.350800  0.918800  0.441600  1
  O  O1738  1  0.568000  0.649200  0.441600  1
  O  O1739  1  0.081200  0.432000  0.441600  1
  O  O1740  1  0.649200  0.081200  0.941600  1
  O  O1741  1  0.432000  0.350800  0.941600  1
  O  O1742  1  0.918800  0.568000  0.941600  1
  O  O1743  1  0.306100  0.955200  0.402500  1
  O  O1744  1  0.649100  0.693900  0.402500  1
  O  O1745  1  0.044800  0.350900  0.402500  1
  O  O1746  1  0.693900  0.044800  0.902500  1
  O  O1747  1  0.350900  0.306100  0.902500  1
  O  O1748  1  0.955200  0.649100  0.902500  1
  O  O1749  1  0.618400  0.924500  0.376900  1
  O  O1750  1  0.306100  0.381600  0.376900  1
  O  O1751  1  0.075500  0.693900  0.376900  1
  O  O1752  1  0.381600  0.075500  0.876900  1
  O  O1753  1  0.693900  0.618400  0.876900  1
  O  O1754  1  0.924500  0.306100  0.876900  1
  O  O1755  1  0.537100  0.838600  0.351400  1
  O  O1756  1  0.301500  0.462900  0.351400  1
  O  O1757  1  0.161400  0.698500  0.351400  1
  O  O1758  1  0.462900  0.161400  0.851400  1
  O  O1759  1  0.698500  0.537100  0.851400  1
  O  O1760  1  0.838600  0.301500  0.851400  1
  O  O1761  1  0.539000  0.928600  0.350700  1
  O  O1762  1  0.389600  0.461000  0.350700  1
  O  O1763  1  0.071400  0.610400  0.350700  1
  O  O1764  1  0.461000  0.071400  0.850700  1
  O  O1765  1  0.610400  0.539000  0.850700  1
  O  O1766  1  0.928600  0.389600  0.850700  1
  O  O1767  1  0.764800  0.010500  0.543400  1
  O  O1768  1  0.245700  0.235200  0.543400  1
  O  O1769  1  0.989500  0.754300  0.543400  1
  O  O1770  1  0.235200  0.989500  0.043400  1
  O  O1771  1  0.754300  0.764800  0.043400  1
  O  O1772  1  0.010500  0.245700  0.043400  1
  O  O1773  1  0.700300  0.045900  0.556900  1
  O  O1774  1  0.345600  0.299700  0.556900  1
  O  O1775  1  0.954100  0.654400  0.556900  1
  O  O1776  1  0.299700  0.954100  0.056900  1
  O  O1777  1  0.654400  0.700300  0.056900  1
  O  O1778  1  0.045900  0.345600  0.056900  1
  O  O1779  1  0.688700  0.961300  0.585800  1
  O  O1780  1  0.272600  0.311300  0.585800  1
  O  O1781  1  0.038700  0.727400  0.585800  1
  O  O1782  1  0.311300  0.038700  0.085800  1
  O  O1783  1  0.727400  0.688700  0.085800  1
  O  O1784  1  0.961300  0.272600  0.085800  1
  O  O1785  1  0.939900  0.962300  0.465800  1
  O  O1786  1  0.022400  0.060100  0.465800  1
  O  O1787  1  0.037700  0.977600  0.465800  1
  O  O1788  1  0.060100  0.037700  0.965800  1
  O  O1789  1  0.977600  0.939900  0.965800  1
  O  O1790  1  0.962300  0.022400  0.965800  1
  O  O1791  1  0.305100  0.704400  0.536700  1
  O  O1792  1  0.399300  0.694900  0.536700  1
  O  O1793  1  0.295600  0.600700  0.536700  1
  O  O1794  1  0.694900  0.295600  0.036700  1
  O  O1795  1  0.600700  0.305100  0.036700  1
  O  O1796  1  0.704400  0.399300  0.036700  1
  O  O1797  1  0.369400  0.750800  0.486400  1
  O  O1798  1  0.381400  0.630600  0.486400  1
  O  O1799  1  0.249200  0.618600  0.486400  1
  O  O1800  1  0.630600  0.249200  0.986400  1
  O  O1801  1  0.618600  0.369400  0.986400  1
  O  O1802  1  0.750800  0.381400  0.986400  1
  O  O1803  1  0.401700  0.718500  0.537600  1
  O  O1804  1  0.316800  0.598300  0.537600  1
  O  O1805  1  0.281500  0.683200  0.537600  1
  O  O1806  1  0.598300  0.281500  0.037600  1
  O  O1807  1  0.683200  0.401700  0.037600  1
  O  O1808  1  0.718500  0.316800  0.037600  1
  O  O1809  1  0.500100  0.710900  0.416400  1.0
  O  O1810  1  0.210800  0.499900  0.416400  1.0
  O  O1811  1  0.289100  0.789200  0.416400  1.0
  O  O1812  1  0.499900  0.289100  0.916400  1.0
  O  O1813  1  0.789200  0.500100  0.916400  1.0
  O  O1814  1  0.710900  0.210800  0.916400  1.0
  O  O1815  1  0.507900  0.856000  0.456300  1.0
  O  O1816  1  0.348100  0.492100  0.456300  1.0
  O  O1817  1  0.144000  0.651900  0.456300  1.0
  O  O1818  1  0.492100  0.144000  0.956300  1.0
  O  O1819  1  0.651900  0.507900  0.956300  1.0
  O  O1820  1  0.856000  0.348100  0.956300  1.0
  O  O1821  1  0.555300  0.760500  0.518100  1.0
  O  O1822  1  0.205200  0.444700  0.518100  1.0
  O  O1823  1  0.239500  0.794800  0.518100  1.0
  O  O1824  1  0.444700  0.239500  0.018100  1.0
  O  O1825  1  0.794800  0.555300  0.018100  1.0
  O  O1826  1  0.760500  0.205200  0.018100  1.0
  O  O1827  1  0.422300  0.752600  0.630800  1.0
  O  O1828  1  0.330300  0.577700  0.630800  1.0
  O  O1829  1  0.247400  0.669700  0.630800  1.0
  O  O1830  1  0.577700  0.247400  0.130800  1.0
  O  O1831  1  0.669700  0.422300  0.130800  1.0
  O  O1832  1  0.752600  0.330300  0.130800  1.0
  O  O1833  1  0.052500  0.882400  0.576300  1.0
  O  O1834  1  0.829900  0.947500  0.576300  1.0
  O  O1835  1  0.117600  0.170100  0.576300  1.0
  O  O1836  1  0.947500  0.117600  0.076300  1.0
  O  O1837  1  0.170100  0.052500  0.076300  1.0
  O  O1838  1  0.882400  0.829900  0.076300  1.0
  O  O1839  1  0.196500  0.021200  0.536100  1.0
  O  O1840  1  0.824700  0.803500  0.536100  1.0
  O  O1841  1  0.978800  0.175300  0.536100  1.0
  O  O1842  1  0.803500  0.978800  0.036100  1.0
  O  O1843  1  0.175300  0.196500  0.036100  1.0
  O  O1844  1  0.021200  0.824700  0.036100  1.0
  O  O1845  1  0.101400  0.879000  0.474000  1.0
  O  O1846  1  0.777600  0.898600  0.474000  1.0
  O  O1847  1  0.121000  0.222400  0.474000  1.0
  O  O1848  1  0.898600  0.121000  0.974000  1.0
  O  O1849  1  0.222400  0.101400  0.974000  1.0
  O  O1850  1  0.879000  0.777600  0.974000  1.0
  O  O1851  1  0.087300  0.999800  0.373100  1.0
  O  O1852  1  0.912500  0.912700  0.373100  1.0
  O  O1853  1  0.000200  0.087500  0.373100  1.0
  O  O1854  1  0.912700  0.000200  0.873100  1.0
  O  O1855  1  0.087500  0.087300  0.873100  1.0
  O  O1856  1  0.999800  0.912500  0.873100  1.0
  O  O1857  1  0.973800  0.941400  0.484800  1.0
  O  O1858  1  0.967600  0.026200  0.484800  1.0
  O  O1859  1  0.058600  0.032400  0.484800  1.0
  O  O1860  1  0.026200  0.058600  0.984800  1.0
  O  O1861  1  0.032400  0.973800  0.984800  1.0
  O  O1862  1  0.941400  0.967600  0.984800  1.0
  F  F1863  1  0.244700  0.007900  0.706100  1
  F  F1864  1  0.763200  0.755300  0.706100  1
  F  F1865  1  0.992100  0.236800  0.706100  1
  F  F1866  1  0.755300  0.992100  0.206100  1
  F  F1867  1  0.236800  0.244700  0.206100  1
  F  F1868  1  0.007900  0.763200  0.206100  1
  F  F1869  1  0.316700  0.009500  0.681400  1
  F  F1870  1  0.692800  0.683300  0.681400  1
  F  F1871  1  0.990500  0.307200  0.681400  1
  F  F1872  1  0.683300  0.990500  0.181400  1
  F  F1873  1  0.307200  0.316700  0.181400  1
  F  F1874  1  0.009500  0.692800  0.181400  1
  F  F1875  1  0.236000  0.929500  0.685800  1
  F  F1876  1  0.693500  0.764000  0.685800  1
  F  F1877  1  0.070500  0.306500  0.685800  1
  F  F1878  1  0.764000  0.070500  0.185800  1
  F  F1879  1  0.306500  0.236000  0.185800  1
  F  F1880  1  0.929500  0.693500  0.185800  1
  F  F1881  1  0.322200  0.966900  0.502200  1
  F  F1882  1  0.644700  0.677800  0.502200  1
  F  F1883  1  0.033100  0.355300  0.502200  1
  F  F1884  1  0.677800  0.033100  0.002200  1
  F  F1885  1  0.355300  0.322200  0.002200  1
  F  F1886  1  0.966900  0.644700  0.002200  1
  F  F1887  1  0.245700  0.912900  0.470600  1
  F  F1888  1  0.667200  0.754300  0.470600  1
  F  F1889  1  0.087100  0.332800  0.470600  1
  F  F1890  1  0.754300  0.087100  0.970600  1
  F  F1891  1  0.332800  0.245700  0.970600  1
  F  F1892  1  0.912900  0.667200  0.970600  1
  F  F1893  1  0.284800  0.004100  0.467700  1
  F  F1894  1  0.719300  0.715200  0.467700  1
  F  F1895  1  0.995900  0.280700  0.467700  1
  F  F1896  1  0.715200  0.995900  0.967700  1
  F  F1897  1  0.280700  0.284800  0.967700  1
  F  F1898  1  0.004100  0.719300  0.967700  1
  F  F1899  1  0.635700  0.886500  0.304900  1
  F  F1900  1  0.250800  0.364300  0.304900  1
  F  F1901  1  0.113500  0.749200  0.304900  1
  F  F1902  1  0.364300  0.113500  0.804900  1
  F  F1903  1  0.749200  0.635700  0.804900  1
  F  F1904  1  0.886500  0.250800  0.804900  1
  F  F1905  1  0.567700  0.897000  0.282500  1
  F  F1906  1  0.329300  0.432300  0.282500  1
  F  F1907  1  0.103000  0.670700  0.282500  1
  F  F1908  1  0.432300  0.103000  0.782500  1
  F  F1909  1  0.670700  0.567700  0.782500  1
  F  F1910  1  0.897000  0.329300  0.782500  1
  F  F1911  1  0.644700  0.970000  0.303900  1
  F  F1912  1  0.325300  0.355300  0.303900  1
  F  F1913  1  0.030000  0.674700  0.303900  1
  F  F1914  1  0.355300  0.030000  0.803900  1
  F  F1915  1  0.674700  0.644700  0.803900  1
  F  F1916  1  0.970000  0.325300  0.803900  1
  F  F1917  1  0.666000  0.906800  0.517100  1
  F  F1918  1  0.240800  0.334000  0.517100  1
  F  F1919  1  0.093200  0.759200  0.517100  1
  F  F1920  1  0.334000  0.093200  0.017100  1
  F  F1921  1  0.759200  0.666000  0.017100  1
  F  F1922  1  0.906800  0.240800  0.017100  1
  F  F1923  1  0.677900  0.981000  0.490100  1
  F  F1924  1  0.303100  0.322100  0.490100  1
  F  F1925  1  0.019000  0.696900  0.490100  1
  F  F1926  1  0.322100  0.019000  0.990100  1
  F  F1927  1  0.696900  0.677900  0.990100  1
  F  F1928  1  0.981000  0.303100  0.990100  1
  F  F1929  1  0.610800  0.940400  0.526000  1
  F  F1930  1  0.329600  0.389200  0.526000  1
  F  F1931  1  0.059600  0.670400  0.526000  1
  F  F1932  1  0.389200  0.059600  0.026000  1
  F  F1933  1  0.670400  0.610800  0.026000  1
  F  F1934  1  0.940400  0.329600  0.026000  1
  F  F1935  1  0.962700  0.015800  0.537600  1
  F  F1936  1  0.053100  0.037300  0.537600  1
  F  F1937  1  0.984200  0.946900  0.537600  1
  F  F1938  1  0.037300  0.984200  0.037600  1
  F  F1939  1  0.946900  0.962700  0.037600  1
  F  F1940  1  0.015800  0.053100  0.037600  1
  F  F1941  1  0.367900  0.641200  0.474800  1
  F  F1942  1  0.273300  0.632100  0.474800  1
  F  F1943  1  0.358800  0.726700  0.474800  1
  F  F1944  1  0.632100  0.358800  0.974800  1
  F  F1945  1  0.726700  0.367900  0.974800  1
  F  F1946  1  0.641200  0.273300  0.974800  1
  F  F1947  1  0.311400  0.600500  0.519000  1
  F  F1948  1  0.289100  0.688600  0.519000  1
  F  F1949  1  0.399500  0.710900  0.519000  1
  F  F1950  1  0.688600  0.399500  0.019000  1
  F  F1951  1  0.710900  0.311400  0.019000  1
  F  F1952  1  0.600500  0.289100  0.019000  1
  F  F1953  1  0.282900  0.628800  0.474000  1
  F  F1954  1  0.345900  0.717100  0.474000  1
  F  F1955  1  0.371200  0.654100  0.474000  1
  F  F1956  1  0.717100  0.371200  0.974000  1
  F  F1957  1  0.654100  0.282900  0.974000  1
  F  F1958  1  0.628800  0.345900  0.974000  1
  F  F1959  1  0.955000  0.954800  0.561100  1.0
  F  F1960  1  0.999800  0.045000  0.561100  1.0
  F  F1961  1  0.045200  0.000200  0.561100  1.0
  F  F1962  1  0.045000  0.045200  0.061100  1.0
  F  F1963  1  0.000200  0.955000  0.061100  1.0
  F  F1964  1  0.954800  0.999800  0.061100  1.0
