# generated using pymatgen
data_Mo3H41C46(NO6)2
_symmetry_space_group_name_H-M   'P 1'
_cell_length_a   28.86790000
_cell_length_b   28.86790000
_cell_length_c   29.64635434
_cell_angle_alpha   119.13512772
_cell_angle_beta   119.13512772
_cell_angle_gamma   90.00000000
_symmetry_Int_Tables_number   1
_chemical_formula_structural   Mo3H41C46(NO6)2
_chemical_formula_sum   'Mo24 H328 C368 N16 O96'
_cell_volume   17916.72980599
_cell_formula_units_Z   8
loop_
 _symmetry_equiv_pos_site_id
 _symmetry_equiv_pos_as_xyz
  1  'x, y, z'
loop_
 _atom_site_type_symbol
 _atom_site_label
 _atom_site_symmetry_multiplicity
 _atom_site_fract_x
 _atom_site_fract_y
 _atom_site_fract_z
 _atom_site_occupancy
  C  C1  1  0.475310  0.120630  0.908900  1.0
  C  C2  1  0.120630  0.433590  0.908900  1.0
  C  C3  1  0.788270  0.475310  0.908900  1.0
  C  C4  1  0.433590  0.788270  0.908900  1.0
  C  C5  1  0.524690  0.879370  0.091100  1.0
  C  C6  1  0.879370  0.566410  0.091100  1.0
  C  C7  1  0.211730  0.524690  0.091100  1.0
  C  C8  1  0.566410  0.211730  0.091100  1.0
  C  C9  1  0.482150  0.090290  0.857100  1.0
  C  C10  1  0.090290  0.374950  0.857100  1.0
  C  C11  1  0.766810  0.482150  0.857100  1.0
  C  C12  1  0.374950  0.766810  0.857100  1.0
  C  C13  1  0.517850  0.909710  0.142900  1.0
  C  C14  1  0.909710  0.625050  0.142900  1.0
  C  C15  1  0.233190  0.517850  0.142900  1.0
  C  C16  1  0.625050  0.233190  0.142900  1.0
  C  C17  1  0.483750  0.035600  0.834700  1.0
  C  C18  1  0.035600  0.350950  0.834700  1.0
  C  C19  1  0.799100  0.483750  0.834700  1.0
  C  C20  1  0.350950  0.799100  0.834700  1.0
  C  C21  1  0.516250  0.964400  0.165300  1.0
  C  C22  1  0.964400  0.649050  0.165300  1.0
  C  C23  1  0.200900  0.516250  0.165300  1.0
  C  C24  1  0.649050  0.200900  0.165300  1.0
  C  C25  1  0.486420  0.005320  0.783840  1.0
  C  C26  1  0.005320  0.297420  0.783840  1.0
  C  C27  1  0.778520  0.486420  0.783840  1.0
  C  C28  1  0.297420  0.778520  0.783840  1.0
  C  C29  1  0.513580  0.994680  0.216160  1.0
  C  C30  1  0.994680  0.702580  0.216160  1.0
  C  C31  1  0.221480  0.513580  0.216160  1.0
  C  C32  1  0.702580  0.221480  0.216160  1.0
  C  C33  1  0.491770  0.031570  0.756340  1.0
  C  C34  1  0.031570  0.264570  0.756340  1.0
  C  C35  1  0.724770  0.491770  0.756340  1.0
  C  C36  1  0.264570  0.724770  0.756340  1.0
  C  C37  1  0.508230  0.968430  0.243660  1.0
  C  C38  1  0.968430  0.735430  0.243660  1.0
  C  C39  1  0.275230  0.508230  0.243660  1.0
  C  C40  1  0.735430  0.275230  0.243660  1.0
  C  C41  1  0.489900  0.085600  0.777280  1.0
  C  C42  1  0.085600  0.287380  0.777280  1.0
  C  C43  1  0.691680  0.489900  0.777280  1.0
  C  C44  1  0.287380  0.691680  0.777280  1.0
  C  C45  1  0.510100  0.914400  0.222720  1.0
  C  C46  1  0.914400  0.712620  0.222720  1.0
  C  C47  1  0.308320  0.510100  0.222720  1.0
  C  C48  1  0.712620  0.308320  0.222720  1.0
  C  C49  1  0.485800  0.115210  0.828020  1.0
  C  C50  1  0.115210  0.342220  0.828020  1.0
  C  C51  1  0.712810  0.485800  0.828020  1.0
  C  C52  1  0.342220  0.712810  0.828020  1.0
  C  C53  1  0.514200  0.884790  0.171980  1.0
  C  C54  1  0.884790  0.657780  0.171980  1.0
  C  C55  1  0.287190  0.514200  0.171980  1.0
  C  C56  1  0.657780  0.287190  0.171980  1.0
  C  C57  1  0.490710  0.111040  0.745200  1.0
  C  C58  1  0.111040  0.254490  0.745200  1.0
  C  C59  1  0.634160  0.490710  0.745200  1.0
  C  C60  1  0.254490  0.634160  0.745200  1.0
  C  C61  1  0.509290  0.888960  0.254800  1.0
  C  C62  1  0.888960  0.745510  0.254800  1.0
  C  C63  1  0.365840  0.509290  0.254800  1.0
  C  C64  1  0.745510  0.365840  0.254800  1.0
  C  C65  1  0.484300  0.943400  0.757200  1.0
  C  C66  1  0.943400  0.272900  0.757200  1.0
  C  C67  1  0.813800  0.484300  0.757200  1.0
  C  C68  1  0.272900  0.813800  0.757200  1.0
  C  C69  1  0.515700  0.056600  0.242800  1.0
  C  C70  1  0.056600  0.727100  0.242800  1.0
  C  C71  1  0.186200  0.515700  0.242800  1.0
  C  C72  1  0.727100  0.186200  0.242800  1.0
  C  C73  1  0.494400  0.919500  0.711000  1.0
  C  C74  1  0.919500  0.216600  0.711000  1.0
  C  C75  1  0.791500  0.494400  0.711000  1.0
  C  C76  1  0.216600  0.791500  0.711000  1.0
  C  C77  1  0.505600  0.080500  0.289000  1.0
  C  C78  1  0.080500  0.783400  0.289000  1.0
  C  C79  1  0.208500  0.505600  0.289000  1.0
  C  C80  1  0.783400  0.208500  0.289000  1.0
  C  C81  1  0.517900  0.933200  0.802000  1.0
  C  C82  1  0.933200  0.284100  0.802000  1.0
  C  C83  1  0.868800  0.517900  0.802000  1.0
  C  C84  1  0.284100  0.868800  0.802000  1.0
  C  C85  1  0.482100  0.066800  0.198000  1.0
  C  C86  1  0.066800  0.715900  0.198000  1.0
  C  C87  1  0.131200  0.482100  0.198000  1.0
  C  C88  1  0.715900  0.131200  0.198000  1.0
  C  C89  1  0.774310  0.344290  0.910100  1.0
  C  C90  1  0.344290  0.135790  0.910100  1.0
  C  C91  1  0.565810  0.774310  0.910100  1.0
  C  C92  1  0.135790  0.565810  0.910100  1.0
  C  C93  1  0.225690  0.655710  0.089900  1.0
  C  C94  1  0.655710  0.864210  0.089900  1.0
  C  C95  1  0.434190  0.225690  0.089900  1.0
  C  C96  1  0.864210  0.434190  0.089900  1.0
  C  C97  1  0.745060  0.286420  0.859720  1.0
  C  C98  1  0.286420  0.114660  0.859720  1.0
  C  C99  1  0.573300  0.745060  0.859720  1.0
  C  C100  1  0.114660  0.573300  0.859720  1.0
  C  C101  1  0.254940  0.713580  0.140280  1.0
  C  C102  1  0.713580  0.885340  0.140280  1.0
  C  C103  1  0.426700  0.254940  0.140280  1.0
  C  C104  1  0.885340  0.426700  0.140280  1.0
  C  C105  1  0.686930  0.265020  0.827500  1.0
  C  C106  1  0.265020  0.140570  0.827500  1.0
  C  C107  1  0.562480  0.686930  0.827500  1.0
  C  C108  1  0.140570  0.562480  0.827500  1.0
  C  C109  1  0.313070  0.734980  0.172500  1.0
  C  C110  1  0.734980  0.859430  0.172500  1.0
  C  C111  1  0.437520  0.313070  0.172500  1.0
  C  C112  1  0.859430  0.437520  0.172500  1.0
  C  C113  1  0.659090  0.209310  0.777520  1.0
  C  C114  1  0.209310  0.118430  0.777520  1.0
  C  C115  1  0.568210  0.659090  0.777520  1.0
  C  C116  1  0.118430  0.568210  0.777520  1.0
  C  C117  1  0.340910  0.790690  0.222480  1.0
  C  C118  1  0.790690  0.881570  0.222480  1.0
  C  C119  1  0.431790  0.340910  0.222480  1.0
  C  C120  1  0.881570  0.431790  0.222480  1.0
  C  C121  1  0.690650  0.174450  0.762500  1.0
  C  C122  1  0.174450  0.071850  0.762500  1.0
  C  C123  1  0.588050  0.690650  0.762500  1.0
  C  C124  1  0.071850  0.588050  0.762500  1.0
  C  C125  1  0.309350  0.825550  0.237500  1.0
  C  C126  1  0.825550  0.928150  0.237500  1.0
  C  C127  1  0.411950  0.309350  0.237500  1.0
  C  C128  1  0.928150  0.411950  0.237500  1.0
  C  C129  1  0.747030  0.193130  0.794460  1.0
  C  C130  1  0.193130  0.047430  0.794460  1.0
  C  C131  1  0.601330  0.747030  0.794460  1.0
  C  C132  1  0.047430  0.601330  0.794460  1.0
  C  C133  1  0.252970  0.806870  0.205540  1.0
  C  C134  1  0.806870  0.952570  0.205540  1.0
  C  C135  1  0.398670  0.252970  0.205540  1.0
  C  C136  1  0.952570  0.398670  0.205540  1.0
  C  C137  1  0.774070  0.249770  0.842740  1.0
  C  C138  1  0.249770  0.068670  0.842740  1.0
  C  C139  1  0.592970  0.774070  0.842740  1.0
  C  C140  1  0.068670  0.592970  0.842740  1.0
  C  C141  1  0.225930  0.750230  0.157260  1.0
  C  C142  1  0.750230  0.931330  0.157260  1.0
  C  C143  1  0.407030  0.225930  0.157260  1.0
  C  C144  1  0.931330  0.407030  0.157260  1.0
  C  C145  1  0.597710  0.188730  0.742520  1.0
  C  C146  1  0.188730  0.144810  0.742520  1.0
  C  C147  1  0.553790  0.597710  0.742520  1.0
  C  C148  1  0.144810  0.553790  0.742520  1.0
  C  C149  1  0.402290  0.811270  0.257480  1.0
  C  C150  1  0.811270  0.855190  0.257480  1.0
  C  C151  1  0.446210  0.402290  0.257480  1.0
  C  C152  1  0.855190  0.446210  0.257480  1.0
  C  C153  1  0.780890  0.153690  0.780580  1.0
  C  C154  1  0.153690  0.999690  0.780580  1.0
  C  C155  1  0.626890  0.780890  0.780580  1.0
  C  C156  1  0.999690  0.626890  0.780580  1.0
  C  C157  1  0.219110  0.846310  0.219420  1.0
  C  C158  1  0.846310  0.000310  0.219420  1.0
  C  C159  1  0.373110  0.219110  0.219420  1.0
  C  C160  1  0.000310  0.373110  0.219420  1.0
  C  C161  1  0.747300  0.109500  0.709400  1.0
  C  C162  1  0.109500  0.962100  0.709400  1.0
  C  C163  1  0.599900  0.747300  0.709400  1.0
  C  C164  1  0.962100  0.599900  0.709400  1.0
  C  C165  1  0.252700  0.890500  0.290600  1.0
  C  C166  1  0.890500  0.037900  0.290600  1.0
  C  C167  1  0.400100  0.252700  0.290600  1.0
  C  C168  1  0.037900  0.400100  0.290600  1.0
  C  C169  1  0.783100  0.120000  0.805600  1.0
  C  C170  1  0.120000  0.022500  0.805600  1.0
  C  C171  1  0.685600  0.783100  0.805600  1.0
  C  C172  1  0.022500  0.685600  0.805600  1.0
  C  C173  1  0.216900  0.880000  0.194400  1.0
  C  C174  1  0.880000  0.977500  0.194400  1.0
  C  C175  1  0.314400  0.216900  0.194400  1.0
  C  C176  1  0.977500  0.314400  0.194400  1.0
  C  C177  1  0.833400  0.184500  0.796200  1.0
  C  C178  1  0.184500  0.962800  0.796200  1.0
  C  C179  1  0.611700  0.833400  0.796200  1.0
  C  C180  1  0.962800  0.611700  0.796200  1.0
  C  C181  1  0.166600  0.815500  0.203800  1.0
  C  C182  1  0.815500  0.037200  0.203800  1.0
  C  C183  1  0.388300  0.166600  0.203800  1.0
  C  C184  1  0.037200  0.388300  0.203800  1.0
  C  C185  1  0.371400  0.118150  0.618760  1.0
  C  C186  1  0.118150  0.247360  0.618760  1.0
  C  C187  1  0.500610  0.371400  0.618760  1.0
  C  C188  1  0.247360  0.500610  0.618760  1.0
  C  C189  1  0.628600  0.881850  0.381240  1.0
  C  C190  1  0.881850  0.752640  0.381240  1.0
  C  C191  1  0.499390  0.628600  0.381240  1.0
  C  C192  1  0.752640  0.499390  0.381240  1.0
  C  C193  1  0.312010  0.097690  0.588440  1.0
  C  C194  1  0.097690  0.276430  0.588440  1.0
  C  C195  1  0.490750  0.312010  0.588440  1.0
  C  C196  1  0.276430  0.490750  0.588440  1.0
  C  C197  1  0.687990  0.902310  0.411560  1.0
  C  C198  1  0.902310  0.723570  0.411560  1.0
  C  C199  1  0.509250  0.687990  0.411560  1.0
  C  C200  1  0.723570  0.509250  0.411560  1.0
  C  C201  1  0.284980  0.127970  0.614660  1.0
  C  C202  1  0.127970  0.329680  0.614660  1.0
  C  C203  1  0.486690  0.284980  0.614660  1.0
  C  C204  1  0.329680  0.486690  0.614660  1.0
  C  C205  1  0.715020  0.872030  0.385340  1.0
  C  C206  1  0.872030  0.670320  0.385340  1.0
  C  C207  1  0.513310  0.715020  0.385340  1.0
  C  C208  1  0.670320  0.513310  0.385340  1.0
  C  C209  1  0.197930  0.053660  0.529320  1.0
  C  C210  1  0.053660  0.331390  0.529320  1.0
  C  C211  1  0.475660  0.197930  0.529320  1.0
  C  C212  1  0.331390  0.475660  0.529320  1.0
  C  C213  1  0.802070  0.946340  0.470680  1.0
  C  C214  1  0.946340  0.668610  0.470680  1.0
  C  C215  1  0.524340  0.802070  0.470680  1.0
  C  C216  1  0.668610  0.524340  0.470680  1.0
  C  C217  1  0.224690  0.022100  0.502400  1.0
  C  C218  1  0.022100  0.277710  0.502400  1.0
  C  C219  1  0.480300  0.224690  0.502400  1.0
  C  C220  1  0.277710  0.480300  0.502400  1.0
  C  C221  1  0.775310  0.977900  0.497600  1.0
  C  C222  1  0.977900  0.722290  0.497600  1.0
  C  C223  1  0.519700  0.775310  0.497600  1.0
  C  C224  1  0.722290  0.519700  0.497600  1.0
  C  C225  1  0.280270  0.044410  0.532220  1.0
  C  C226  1  0.044410  0.251950  0.532220  1.0
  C  C227  1  0.487810  0.280270  0.532220  1.0
  C  C228  1  0.251950  0.487810  0.532220  1.0
  C  C229  1  0.719730  0.955590  0.467780  1.0
  C  C230  1  0.955590  0.748050  0.467780  1.0
  C  C231  1  0.512190  0.719730  0.467780  1.0
  C  C232  1  0.748050  0.512190  0.467780  1.0
  C  C233  1  0.192430  0.963830  0.442660  1.0
  C  C234  1  0.963830  0.250230  0.442660  1.0
  C  C235  1  0.478830  0.192430  0.442660  1.0
  C  C236  1  0.250230  0.478830  0.442660  1.0
  C  C237  1  0.807570  0.036170  0.557340  1.0
  C  C238  1  0.036170  0.749770  0.557340  1.0
  C  C239  1  0.521170  0.807570  0.557340  1.0
  C  C240  1  0.749770  0.521170  0.557340  1.0
  C  C241  1  0.228100  0.932600  0.427200  1.0
  C  C242  1  0.932600  0.199100  0.427200  1.0
  C  C243  1  0.494600  0.228100  0.427200  1.0
  C  C244  1  0.199100  0.494600  0.427200  1.0
  C  C245  1  0.771900  0.067400  0.572800  1.0
  C  C246  1  0.067400  0.800900  0.572800  1.0
  C  C247  1  0.505400  0.771900  0.572800  1.0
  C  C248  1  0.800900  0.505400  0.572800  1.0
  C  C249  1  0.227110  0.106080  0.584200  1.0
  C  C250  1  0.106080  0.357090  0.584200  1.0
  C  C251  1  0.478120  0.227110  0.584200  1.0
  C  C252  1  0.357090  0.478120  0.584200  1.0
  C  C253  1  0.772890  0.893920  0.415800  1.0
  C  C254  1  0.893920  0.642910  0.415800  1.0
  C  C255  1  0.521880  0.772890  0.415800  1.0
  C  C256  1  0.642910  0.521880  0.415800  1.0
  C  C257  1  0.199470  0.137530  0.614800  1.0
  C  C258  1  0.137530  0.415330  0.614800  1.0
  C  C259  1  0.477270  0.199470  0.614800  1.0
  C  C260  1  0.415330  0.477270  0.614800  1.0
  C  C261  1  0.800530  0.862470  0.385200  1.0
  C  C262  1  0.862470  0.584670  0.385200  1.0
  C  C263  1  0.522730  0.800530  0.385200  1.0
  C  C264  1  0.584670  0.522730  0.385200  1.0
  C  C265  1  0.169600  0.927800  0.457000  1.0
  C  C266  1  0.927800  0.287400  0.457000  1.0
  C  C267  1  0.529200  0.169600  0.457000  1.0
  C  C268  1  0.287400  0.529200  0.457000  1.0
  C  C269  1  0.830400  0.072200  0.543000  1.0
  C  C270  1  0.072200  0.712600  0.543000  1.0
  C  C271  1  0.470800  0.830400  0.543000  1.0
  C  C272  1  0.712600  0.470800  0.543000  1.0
  C  C273  1  0.149200  0.964000  0.395800  1.0
  C  C274  1  0.964000  0.246600  0.395800  1.0
  C  C275  1  0.431800  0.149200  0.395800  1.0
  C  C276  1  0.246600  0.431800  0.395800  1.0
  C  C277  1  0.850800  0.036000  0.604200  1.0
  C  C278  1  0.036000  0.753400  0.604200  1.0
  C  C279  1  0.568200  0.850800  0.604200  1.0
  C  C280  1  0.753400  0.568200  0.604200  1.0
  C  C281  1  0.427600  0.044900  0.035600  1.0
  C  C282  1  0.044900  0.608000  0.035600  1.0
  C  C283  1  0.990700  0.427600  0.035600  1.0
  C  C284  1  0.608000  0.990700  0.035600  1.0
  C  C285  1  0.572400  0.955100  0.964400  1.0
  C  C286  1  0.955100  0.392000  0.964400  1.0
  C  C287  1  0.009300  0.572400  0.964400  1.0
  C  C288  1  0.392000  0.009300  0.964400  1.0
  C  C289  1  0.424200  0.995600  0.033200  1.0
  C  C290  1  0.995600  0.609000  0.033200  1.0
  C  C291  1  0.037600  0.424200  0.033200  1.0
  C  C292  1  0.609000  0.037600  0.033200  1.0
  C  C293  1  0.575800  0.004400  0.966800  1.0
  C  C294  1  0.004400  0.391000  0.966800  1.0
  C  C295  1  0.962400  0.575800  0.966800  1.0
  C  C296  1  0.391000  0.962400  0.966800  1.0
  C  C297  1  0.426700  0.949190  0.988200  1.0
  C  C298  1  0.949190  0.561500  0.988200  1.0
  C  C299  1  0.039010  0.426700  0.988200  1.0
  C  C300  1  0.561500  0.039010  0.988200  1.0
  C  C301  1  0.573300  0.050810  0.011800  1.0
  C  C302  1  0.050810  0.438500  0.011800  1.0
  C  C303  1  0.960990  0.573300  0.011800  1.0
  C  C304  1  0.438500  0.960990  0.011800  1.0
  C  C305  1  0.486800  0.006300  0.054200  1.0
  C  C306  1  0.006300  0.567400  0.054200  1.0
  C  C307  1  0.047900  0.486800  0.054200  1.0
  C  C308  1  0.567400  0.047900  0.054200  1.0
  C  C309  1  0.513200  0.993700  0.945800  1.0
  C  C310  1  0.993700  0.432600  0.945800  1.0
  C  C311  1  0.952100  0.513200  0.945800  1.0
  C  C312  1  0.432600  0.952100  0.945800  1.0
  C  C313  1  0.436000  0.001400  0.948200  1.0
  C  C314  1  0.001400  0.512200  0.948200  1.0
  C  C315  1  0.946800  0.436000  0.948200  1.0
  C  C316  1  0.512200  0.946800  0.948200  1.0
  C  C317  1  0.564000  0.998600  0.051800  1.0
  C  C318  1  0.998600  0.487800  0.051800  1.0
  C  C319  1  0.053200  0.564000  0.051800  1.0
  C  C320  1  0.487800  0.053200  0.051800  1.0
  C  C321  1  0.431400  0.912400  0.743200  1.0
  C  C322  1  0.912400  0.311800  0.743200  1.0
  C  C323  1  0.830800  0.431400  0.743200  1.0
  C  C324  1  0.311800  0.830800  0.743200  1.0
  C  C325  1  0.568600  0.087600  0.256800  1.0
  C  C326  1  0.087600  0.688200  0.256800  1.0
  C  C327  1  0.169200  0.568600  0.256800  1.0
  C  C328  1  0.688200  0.169200  0.256800  1.0
  C  C329  1  0.412500  0.990400  0.501200  1.0
  C  C330  1  0.990400  0.088700  0.501200  1.0
  C  C331  1  0.510800  0.412500  0.501200  1.0
  C  C332  1  0.088700  0.510800  0.501200  1.0
  C  C333  1  0.587500  0.009600  0.498800  1.0
  C  C334  1  0.009600  0.911300  0.498800  1.0
  C  C335  1  0.489200  0.587500  0.498800  1.0
  C  C336  1  0.911300  0.489200  0.498800  1.0
  C  C337  1  0.494980  0.944680  0.511360  1.0
  C  C338  1  0.944680  0.016380  0.511360  1.0
  C  C339  1  0.566680  0.494980  0.511360  1.0
  C  C340  1  0.016380  0.566680  0.511360  1.0
  C  C341  1  0.505020  0.055320  0.488640  1.0
  C  C342  1  0.055320  0.983620  0.488640  1.0
  C  C343  1  0.433320  0.505020  0.488640  1.0
  C  C344  1  0.983620  0.433320  0.488640  1.0
  C  C345  1  0.499110  0.993010  0.559820  1.0
  C  C346  1  0.993010  0.060710  0.559820  1.0
  C  C347  1  0.566810  0.499110  0.559820  1.0
  C  C348  1  0.060710  0.566810  0.559820  1.0
  C  C349  1  0.500890  0.006990  0.440180  1.0
  C  C350  1  0.006990  0.939290  0.440180  1.0
  C  C351  1  0.433190  0.500890  0.440180  1.0
  C  C352  1  0.939290  0.433190  0.440180  1.0
  C  C353  1  0.447060  0.919760  0.458520  1.0
  C  C354  1  0.919760  0.011460  0.458520  1.0
  C  C355  1  0.538760  0.447060  0.458520  1.0
  C  C356  1  0.011460  0.538760  0.458520  1.0
  C  C357  1  0.552940  0.080240  0.541480  1.0
  C  C358  1  0.080240  0.988540  0.541480  1.0
  C  C359  1  0.461240  0.552940  0.541480  1.0
  C  C360  1  0.988540  0.461240  0.541480  1.0
  C  C361  1  0.406400  0.940200  0.452000  1.0
  C  C362  1  0.940200  0.045600  0.452000  1.0
  C  C363  1  0.511800  0.406400  0.452000  1.0
  C  C364  1  0.045600  0.511800  0.452000  1.0
  C  C365  1  0.593600  0.059800  0.548000  1.0
  C  C366  1  0.059800  0.954400  0.548000  1.0
  C  C367  1  0.488200  0.593600  0.548000  1.0
  C  C368  1  0.954400  0.488200  0.548000  1.0
  H  H369  1  0.482900  0.019300  0.854800  1.0
  H  H370  1  0.019300  0.371900  0.854800  1.0
  H  H371  1  0.835500  0.482900  0.854800  1.0
  H  H372  1  0.371900  0.835500  0.854800  1.0
  H  H373  1  0.517100  0.980700  0.145200  1.0
  H  H374  1  0.980700  0.628100  0.145200  1.0
  H  H375  1  0.164500  0.517100  0.145200  1.0
  H  H376  1  0.628100  0.164500  0.145200  1.0
  H  H377  1  0.496500  0.012400  0.723800  1.0
  H  H378  1  0.012400  0.227300  0.723800  1.0
  H  H379  1  0.711400  0.496500  0.723800  1.0
  H  H380  1  0.227300  0.711400  0.723800  1.0
  H  H381  1  0.503500  0.987600  0.276200  1.0
  H  H382  1  0.987600  0.772700  0.276200  1.0
  H  H383  1  0.288600  0.503500  0.276200  1.0
  H  H384  1  0.772700  0.288600  0.276200  1.0
  H  H385  1  0.485500  0.151900  0.842800  1.0
  H  H386  1  0.151900  0.357300  0.842800  1.0
  H  H387  1  0.690900  0.485500  0.842800  1.0
  H  H388  1  0.357300  0.690900  0.842800  1.0
  H  H389  1  0.514500  0.848100  0.157200  1.0
  H  H390  1  0.848100  0.642700  0.157200  1.0
  H  H391  1  0.309100  0.514500  0.157200  1.0
  H  H392  1  0.642700  0.309100  0.157200  1.0
  H  H393  1  0.468400  0.922900  0.677600  1.0
  H  H394  1  0.922900  0.209200  0.677600  1.0
  H  H395  1  0.754700  0.468400  0.677600  1.0
  H  H396  1  0.209200  0.754700  0.677600  1.0
  H  H397  1  0.531600  0.077100  0.322400  1.0
  H  H398  1  0.077100  0.790800  0.322400  1.0
  H  H399  1  0.245300  0.531600  0.322400  1.0
  H  H400  1  0.790800  0.245300  0.322400  1.0
  H  H401  1  0.489800  0.880700  0.695400  1.0
  H  H402  1  0.880700  0.205600  0.695400  1.0
  H  H403  1  0.814700  0.489800  0.695400  1.0
  H  H404  1  0.205600  0.814700  0.695400  1.0
  H  H405  1  0.510200  0.119300  0.304600  1.0
  H  H406  1  0.119300  0.794400  0.304600  1.0
  H  H407  1  0.185300  0.510200  0.304600  1.0
  H  H408  1  0.794400  0.185300  0.304600  1.0
  H  H409  1  0.531800  0.938100  0.727600  1.0
  H  H410  1  0.938100  0.195800  0.727600  1.0
  H  H411  1  0.789500  0.531800  0.727600  1.0
  H  H412  1  0.195800  0.789500  0.727600  1.0
  H  H413  1  0.468200  0.061900  0.272400  1.0
  H  H414  1  0.061900  0.804200  0.272400  1.0
  H  H415  1  0.210500  0.468200  0.272400  1.0
  H  H416  1  0.804200  0.210500  0.272400  1.0
  H  H417  1  0.512100  0.950700  0.835000  1.0
  H  H418  1  0.950700  0.322900  0.835000  1.0
  H  H419  1  0.884300  0.512100  0.835000  1.0
  H  H420  1  0.322900  0.884300  0.835000  1.0
  H  H421  1  0.487900  0.049300  0.165000  1.0
  H  H422  1  0.049300  0.677100  0.165000  1.0
  H  H423  1  0.115700  0.487900  0.165000  1.0
  H  H424  1  0.677100  0.115700  0.165000  1.0
  H  H425  1  0.556400  0.948000  0.818400  1.0
  H  H426  1  0.948000  0.262000  0.818400  1.0
  H  H427  1  0.870400  0.556400  0.818400  1.0
  H  H428  1  0.262000  0.870400  0.818400  1.0
  H  H429  1  0.443600  0.052000  0.181600  1.0
  H  H430  1  0.052000  0.738000  0.181600  1.0
  H  H431  1  0.129600  0.443600  0.181600  1.0
  H  H432  1  0.738000  0.129600  0.181600  1.0
  H  H433  1  0.508700  0.893700  0.783600  1.0
  H  H434  1  0.893700  0.274900  0.783600  1.0
  H  H435  1  0.889900  0.508700  0.783600  1.0
  H  H436  1  0.274900  0.889900  0.783600  1.0
  H  H437  1  0.491300  0.106300  0.216400  1.0
  H  H438  1  0.106300  0.725100  0.216400  1.0
  H  H439  1  0.110100  0.491300  0.216400  1.0
  H  H440  1  0.725100  0.110100  0.216400  1.0
  H  H441  1  0.667000  0.287900  0.839400  1.0
  H  H442  1  0.287900  0.172400  0.839400  1.0
  H  H443  1  0.551500  0.667000  0.839400  1.0
  H  H444  1  0.172400  0.551500  0.839400  1.0
  H  H445  1  0.333000  0.712100  0.160600  1.0
  H  H446  1  0.712100  0.827600  0.160600  1.0
  H  H447  1  0.448500  0.333000  0.160600  1.0
  H  H448  1  0.827600  0.448500  0.160600  1.0
  H  H449  1  0.672000  0.137200  0.729400  1.0
  H  H450  1  0.137200  0.057400  0.729400  1.0
  H  H451  1  0.592200  0.672000  0.729400  1.0
  H  H452  1  0.057400  0.592200  0.729400  1.0
  H  H453  1  0.328000  0.862800  0.270600  1.0
  H  H454  1  0.862800  0.942600  0.270600  1.0
  H  H455  1  0.407800  0.328000  0.270600  1.0
  H  H456  1  0.942600  0.407800  0.270600  1.0
  H  H457  1  0.812500  0.263500  0.864200  1.0
  H  H458  1  0.263500  0.051700  0.864200  1.0
  H  H459  1  0.600700  0.812500  0.864200  1.0
  H  H460  1  0.051700  0.600700  0.864200  1.0
  H  H461  1  0.187500  0.736500  0.135800  1.0
  H  H462  1  0.736500  0.948300  0.135800  1.0
  H  H463  1  0.399300  0.187500  0.135800  1.0
  H  H464  1  0.948300  0.399300  0.135800  1.0
  H  H465  1  0.743000  0.127700  0.688400  1.0
  H  H466  1  0.127700  0.945400  0.688400  1.0
  H  H467  1  0.560700  0.743000  0.688400  1.0
  H  H468  1  0.945400  0.560700  0.688400  1.0
  H  H469  1  0.257000  0.872300  0.311600  1.0
  H  H470  1  0.872300  0.054600  0.311600  1.0
  H  H471  1  0.439300  0.257000  0.311600  1.0
  H  H472  1  0.054600  0.439300  0.311600  1.0
  H  H473  1  0.766800  0.083000  0.700200  1.0
  H  H474  1  0.083000  0.933400  0.700200  1.0
  H  H475  1  0.617200  0.766800  0.700200  1.0
  H  H476  1  0.933400  0.617200  0.700200  1.0
  H  H477  1  0.233200  0.917000  0.299800  1.0
  H  H478  1  0.917000  0.066600  0.299800  1.0
  H  H479  1  0.382800  0.233200  0.299800  1.0
  H  H480  1  0.066600  0.382800  0.299800  1.0
  H  H481  1  0.711100  0.090300  0.695400  1.0
  H  H482  1  0.090300  0.984300  0.695400  1.0
  H  H483  1  0.605100  0.711100  0.695400  1.0
  H  H484  1  0.984300  0.605100  0.695400  1.0
  H  H485  1  0.288900  0.909700  0.304600  1.0
  H  H486  1  0.909700  0.015700  0.304600  1.0
  H  H487  1  0.394900  0.288900  0.304600  1.0
  H  H488  1  0.015700  0.394900  0.304600  1.0
  H  H489  1  0.745900  0.100600  0.788600  1.0
  H  H490  1  0.100600  0.042700  0.788600  1.0
  H  H491  1  0.688000  0.745900  0.788600  1.0
  H  H492  1  0.042700  0.688000  0.788600  1.0
  H  H493  1  0.254100  0.899400  0.211400  1.0
  H  H494  1  0.899400  0.957300  0.211400  1.0
  H  H495  1  0.312000  0.254100  0.211400  1.0
  H  H496  1  0.957300  0.312000  0.211400  1.0
  H  H497  1  0.802100  0.093600  0.794600  1.0
  H  H498  1  0.093600  0.992500  0.794600  1.0
  H  H499  1  0.701000  0.802100  0.794600  1.0
  H  H500  1  0.992500  0.701000  0.794600  1.0
  H  H501  1  0.197900  0.906400  0.205400  1.0
  H  H502  1  0.906400  0.007500  0.205400  1.0
  H  H503  1  0.299000  0.197900  0.205400  1.0
  H  H504  1  0.007500  0.299000  0.205400  1.0
  H  H505  1  0.803000  0.144100  0.850200  1.0
  H  H506  1  0.144100  0.047200  0.850200  1.0
  H  H507  1  0.706100  0.803000  0.850200  1.0
  H  H508  1  0.047200  0.706100  0.850200  1.0
  H  H509  1  0.197000  0.855900  0.149800  1.0
  H  H510  1  0.855900  0.952800  0.149800  1.0
  H  H511  1  0.293900  0.197000  0.149800  1.0
  H  H512  1  0.952800  0.293900  0.149800  1.0
  H  H513  1  0.824500  0.202000  0.773800  1.0
  H  H514  1  0.202000  0.949300  0.773800  1.0
  H  H515  1  0.571800  0.824500  0.773800  1.0
  H  H516  1  0.949300  0.571800  0.773800  1.0
  H  H517  1  0.175500  0.798000  0.226200  1.0
  H  H518  1  0.798000  0.050700  0.226200  1.0
  H  H519  1  0.428200  0.175500  0.226200  1.0
  H  H520  1  0.050700  0.428200  0.226200  1.0
  H  H521  1  0.856500  0.212300  0.840000  1.0
  H  H522  1  0.212300  0.983500  0.840000  1.0
  H  H523  1  0.627700  0.856500  0.840000  1.0
  H  H524  1  0.983500  0.627700  0.840000  1.0
  H  H525  1  0.143500  0.787700  0.160000  1.0
  H  H526  1  0.787700  0.016500  0.160000  1.0
  H  H527  1  0.372300  0.143500  0.160000  1.0
  H  H528  1  0.016500  0.372300  0.160000  1.0
  H  H529  1  0.852800  0.158900  0.784600  1.0
  H  H530  1  0.158900  0.931800  0.784600  1.0
  H  H531  1  0.625700  0.852800  0.784600  1.0
  H  H532  1  0.931800  0.625700  0.784600  1.0
  H  H533  1  0.147200  0.841100  0.215400  1.0
  H  H534  1  0.841100  0.068200  0.215400  1.0
  H  H535  1  0.374300  0.147200  0.215400  1.0
  H  H536  1  0.068200  0.374300  0.215400  1.0
  H  H537  1  0.304900  0.162600  0.652200  1.0
  H  H538  1  0.162600  0.347300  0.652200  1.0
  H  H539  1  0.489600  0.304900  0.652200  1.0
  H  H540  1  0.347300  0.489600  0.652200  1.0
  H  H541  1  0.695100  0.837400  0.347800  1.0
  H  H542  1  0.837400  0.652700  0.347800  1.0
  H  H543  1  0.510400  0.695100  0.347800  1.0
  H  H544  1  0.652700  0.510400  0.347800  1.0
  H  H545  1  0.159900  0.039200  0.510000  1.0
  H  H546  1  0.039200  0.350100  0.510000  1.0
  H  H547  1  0.470800  0.159900  0.510000  1.0
  H  H548  1  0.350100  0.470800  0.510000  1.0
  H  H549  1  0.840100  0.960800  0.490000  1.0
  H  H550  1  0.960800  0.649900  0.490000  1.0
  H  H551  1  0.529200  0.840100  0.490000  1.0
  H  H552  1  0.649900  0.529200  0.490000  1.0
  H  H553  1  0.298500  0.023700  0.514800  1.0
  H  H554  1  0.023700  0.216300  0.514800  1.0
  H  H555  1  0.491100  0.298500  0.514800  1.0
  H  H556  1  0.216300  0.491100  0.514800  1.0
  H  H557  1  0.701500  0.976300  0.485200  1.0
  H  H558  1  0.976300  0.783700  0.485200  1.0
  H  H559  1  0.508900  0.701500  0.485200  1.0
  H  H560  1  0.783700  0.508900  0.485200  1.0
  H  H561  1  0.253700  0.929400  0.460800  1.0
  H  H562  1  0.929400  0.207100  0.460800  1.0
  H  H563  1  0.531400  0.253700  0.460800  1.0
  H  H564  1  0.207100  0.531400  0.460800  1.0
  H  H565  1  0.746300  0.070600  0.539200  1.0
  H  H566  1  0.070600  0.792900  0.539200  1.0
  H  H567  1  0.468600  0.746300  0.539200  1.0
  H  H568  1  0.792900  0.468600  0.539200  1.0
  H  H569  1  0.248600  0.951900  0.420400  1.0
  H  H570  1  0.951900  0.171800  0.420400  1.0
  H  H571  1  0.468500  0.248600  0.420400  1.0
  H  H572  1  0.171800  0.468500  0.420400  1.0
  H  H573  1  0.751400  0.048100  0.579600  1.0
  H  H574  1  0.048100  0.828200  0.579600  1.0
  H  H575  1  0.531500  0.751400  0.579600  1.0
  H  H576  1  0.828200  0.531500  0.579600  1.0
  H  H577  1  0.205400  0.896000  0.390000  1.0
  H  H578  1  0.896000  0.184600  0.390000  1.0
  H  H579  1  0.494000  0.205400  0.390000  1.0
  H  H580  1  0.184600  0.494000  0.390000  1.0
  H  H581  1  0.794600  0.104000  0.610000  1.0
  H  H582  1  0.104000  0.815400  0.610000  1.0
  H  H583  1  0.506000  0.794600  0.610000  1.0
  H  H584  1  0.815400  0.506000  0.610000  1.0
  H  H585  1  0.145000  0.943400  0.469000  1.0
  H  H586  1  0.943400  0.324000  0.469000  1.0
  H  H587  1  0.525600  0.145000  0.469000  1.0
  H  H588  1  0.324000  0.525600  0.469000  1.0
  H  H589  1  0.855000  0.056600  0.531000  1.0
  H  H590  1  0.056600  0.676000  0.531000  1.0
  H  H591  1  0.474400  0.855000  0.531000  1.0
  H  H592  1  0.676000  0.474400  0.531000  1.0
  H  H593  1  0.200100  0.927300  0.490400  1.0
  H  H594  1  0.927300  0.290300  0.490400  1.0
  H  H595  1  0.563100  0.200100  0.490400  1.0
  H  H596  1  0.290300  0.563100  0.490400  1.0
  H  H597  1  0.799900  0.072700  0.509600  1.0
  H  H598  1  0.072700  0.709700  0.509600  1.0
  H  H599  1  0.436900  0.799900  0.509600  1.0
  H  H600  1  0.709700  0.436900  0.509600  1.0
  H  H601  1  0.149600  0.890400  0.420800  1.0
  H  H602  1  0.890400  0.271200  0.420800  1.0
  H  H603  1  0.530400  0.149600  0.420800  1.0
  H  H604  1  0.271200  0.530400  0.420800  1.0
  H  H605  1  0.850400  0.109600  0.579200  1.0
  H  H606  1  0.109600  0.728800  0.579200  1.0
  H  H607  1  0.469600  0.850400  0.579200  1.0
  H  H608  1  0.728800  0.469600  0.579200  1.0
  H  H609  1  0.128600  0.985800  0.410400  1.0
  H  H610  1  0.985800  0.281800  0.410400  1.0
  H  H611  1  0.424600  0.128600  0.410400  1.0
  H  H612  1  0.281800  0.424600  0.410400  1.0
  H  H613  1  0.871400  0.014200  0.589600  1.0
  H  H614  1  0.014200  0.718200  0.589600  1.0
  H  H615  1  0.575400  0.871400  0.589600  1.0
  H  H616  1  0.718200  0.575400  0.589600  1.0
  H  H617  1  0.125300  0.926500  0.362600  1.0
  H  H618  1  0.926500  0.237300  0.362600  1.0
  H  H619  1  0.436100  0.125300  0.362600  1.0
  H  H620  1  0.237300  0.436100  0.362600  1.0
  H  H621  1  0.874700  0.073500  0.637400  1.0
  H  H622  1  0.073500  0.762700  0.637400  1.0
  H  H623  1  0.563900  0.874700  0.637400  1.0
  H  H624  1  0.762700  0.563900  0.637400  1.0
  H  H625  1  0.163000  0.980000  0.381200  1.0
  H  H626  1  0.980000  0.218200  0.381200  1.0
  H  H627  1  0.401200  0.163000  0.381200  1.0
  H  H628  1  0.218200  0.401200  0.381200  1.0
  H  H629  1  0.837000  0.020000  0.618800  1.0
  H  H630  1  0.020000  0.781800  0.618800  1.0
  H  H631  1  0.598800  0.837000  0.618800  1.0
  H  H632  1  0.781800  0.598800  0.618800  1.0
  H  H633  1  0.399300  0.912200  0.710400  1.0
  H  H634  1  0.912200  0.311100  0.710400  1.0
  H  H635  1  0.798200  0.399300  0.710400  1.0
  H  H636  1  0.311100  0.798200  0.710400  1.0
  H  H637  1  0.600700  0.087800  0.289600  1.0
  H  H638  1  0.087800  0.688900  0.289600  1.0
  H  H639  1  0.201800  0.600700  0.289600  1.0
  H  H640  1  0.688900  0.201800  0.289600  1.0
  H  H641  1  0.430800  0.930800  0.780000  1.0
  H  H642  1  0.930800  0.349200  0.780000  1.0
  H  H643  1  0.849200  0.430800  0.780000  1.0
  H  H644  1  0.349200  0.849200  0.780000  1.0
  H  H645  1  0.569200  0.069200  0.220000  1.0
  H  H646  1  0.069200  0.650800  0.220000  1.0
  H  H647  1  0.150800  0.569200  0.220000  1.0
  H  H648  1  0.650800  0.150800  0.220000  1.0
  H  H649  1  0.430900  0.874700  0.730600  1.0
  H  H650  1  0.874700  0.299700  0.730600  1.0
  H  H651  1  0.855900  0.430900  0.730600  1.0
  H  H652  1  0.299700  0.855900  0.730600  1.0
  H  H653  1  0.569100  0.125300  0.269400  1.0
  H  H654  1  0.125300  0.700300  0.269400  1.0
  H  H655  1  0.144100  0.569100  0.269400  1.0
  H  H656  1  0.700300  0.144100  0.269400  1.0
  H  H657  1  0.382600  0.004600  0.495400  1.0
  H  H658  1  0.004600  0.112800  0.495400  1.0
  H  H659  1  0.490800  0.382600  0.495400  1.0
  H  H660  1  0.112800  0.490800  0.495400  1.0
  H  H661  1  0.617400  0.995400  0.504600  1.0
  H  H662  1  0.995400  0.887200  0.504600  1.0
  H  H663  1  0.509200  0.617400  0.504600  1.0
  H  H664  1  0.887200  0.509200  0.504600  1.0
  H  H665  1  0.524900  0.930700  0.516400  1.0
  H  H666  1  0.930700  0.991500  0.516400  1.0
  H  H667  1  0.585700  0.524900  0.516400  1.0
  H  H668  1  0.991500  0.585700  0.516400  1.0
  H  H669  1  0.475100  0.069300  0.483600  1.0
  H  H670  1  0.069300  0.008500  0.483600  1.0
  H  H671  1  0.414300  0.475100  0.483600  1.0
  H  H672  1  0.008500  0.414300  0.483600  1.0
  H  H673  1  0.532200  0.009400  0.598800  1.0
  H  H674  1  0.009400  0.066600  0.598800  1.0
  H  H675  1  0.589400  0.532200  0.598800  1.0
  H  H676  1  0.066600  0.589400  0.598800  1.0
  H  H677  1  0.467800  0.990600  0.401200  1.0
  H  H678  1  0.990600  0.933400  0.401200  1.0
  H  H679  1  0.410600  0.467800  0.401200  1.0
  H  H680  1  0.933400  0.410600  0.401200  1.0
  H  H681  1  0.442100  0.886700  0.424800  1.0
  H  H682  1  0.886700  0.982700  0.424800  1.0
  H  H683  1  0.538100  0.442100  0.424800  1.0
  H  H684  1  0.982700  0.538100  0.424800  1.0
  H  H685  1  0.557900  0.113300  0.575200  1.0
  H  H686  1  0.113300  0.017300  0.575200  1.0
  H  H687  1  0.461900  0.557900  0.575200  1.0
  H  H688  1  0.017300  0.461900  0.575200  1.0
  H  H689  1  0.372100  0.921100  0.413600  1.0
  H  H690  1  0.921100  0.041500  0.413600  1.0
  H  H691  1  0.492500  0.372100  0.413600  1.0
  H  H692  1  0.041500  0.492500  0.413600  1.0
  H  H693  1  0.627900  0.078900  0.586400  1.0
  H  H694  1  0.078900  0.958500  0.586400  1.0
  H  H695  1  0.507500  0.627900  0.586400  1.0
  H  H696  1  0.958500  0.507500  0.586400  1.0
  Mo  Mo697  1  0.459960  0.209512  0.000000  1.0
  Mo  Mo698  1  0.209512  0.540040  0.000000  1.0
  Mo  Mo699  1  0.790488  0.459960  1.000000  1.0
  Mo  Mo700  1  0.540040  0.790488  1.000000  1.0
  Mo  Mo701  1  0.451740  0.136872  1.000000  1.0
  Mo  Mo702  1  0.136872  0.548260  0.000000  1.0
  Mo  Mo703  1  0.863128  0.451740  0.000000  1.0
  Mo  Mo704  1  0.548260  0.863128  1.000000  1.0
  Mo  Mo705  1  0.483724  0.116869  0.645948  1.0
  Mo  Mo706  1  0.116869  0.162224  0.645948  1.0
  Mo  Mo707  1  0.529079  0.483724  0.645948  1.0
  Mo  Mo708  1  0.162224  0.529079  0.645948  1.0
  Mo  Mo709  1  0.516276  0.883131  0.354052  1.0
  Mo  Mo710  1  0.883131  0.837776  0.354052  1.0
  Mo  Mo711  1  0.470921  0.516276  0.354052  1.0
  Mo  Mo712  1  0.837776  0.470921  0.354052  1.0
  Mo  Mo713  1  0.486173  0.192994  0.714134  1.0
  Mo  Mo714  1  0.192994  0.227961  0.714134  1.0
  Mo  Mo715  1  0.521140  0.486173  0.714134  1.0
  Mo  Mo716  1  0.227961  0.521140  0.714134  1.0
  Mo  Mo717  1  0.513827  0.807006  0.285866  1.0
  Mo  Mo718  1  0.807006  0.772039  0.285866  1.0
  Mo  Mo719  1  0.478860  0.513827  0.285866  1.0
  Mo  Mo720  1  0.772039  0.478860  0.285866  1.0
  N  N721  1  0.433500  0.047820  0.993200  1.0
  N  N722  1  0.047820  0.559700  0.993200  1.0
  N  N723  1  0.945380  0.433500  0.993200  1.0
  N  N724  1  0.559700  0.945380  0.993200  1.0
  N  N725  1  0.566500  0.952180  0.006800  1.0
  N  N726  1  0.952180  0.440300  0.006800  1.0
  N  N727  1  0.054620  0.566500  0.006800  1.0
  N  N728  1  0.440300  0.054620  0.006800  1.0
  N  N729  1  0.460590  0.017890  0.555960  1.0
  N  N730  1  0.017890  0.095370  0.555960  1.0
  N  N731  1  0.538070  0.460590  0.555960  1.0
  N  N732  1  0.095370  0.538070  0.555960  1.0
  N  N733  1  0.539410  0.982110  0.444040  1.0
  N  N734  1  0.982110  0.904630  0.444040  1.0
  N  N735  1  0.461930  0.539410  0.444040  1.0
  N  N736  1  0.904630  0.461930  0.444040  1.0
  O  O737  1  0.489640  0.081110  0.695220  1.0
  O  O738  1  0.081110  0.205580  0.695220  1.0
  O  O739  1  0.614110  0.489640  0.695220  1.0
  O  O740  1  0.205580  0.614110  0.695220  1.0
  O  O741  1  0.510360  0.918890  0.304780  1.0
  O  O742  1  0.918890  0.794420  0.304780  1.0
  O  O743  1  0.385890  0.510360  0.304780  1.0
  O  O744  1  0.794420  0.385890  0.304780  1.0
  O  O745  1  0.491220  0.161440  0.766260  1.0
  O  O746  1  0.161440  0.275040  0.766260  1.0
  O  O747  1  0.604820  0.491220  0.766260  1.0
  O  O748  1  0.275040  0.604820  0.766260  1.0
  O  O749  1  0.508780  0.838560  0.233740  1.0
  O  O750  1  0.838560  0.724960  0.233740  1.0
  O  O751  1  0.395180  0.508780  0.233740  1.0
  O  O752  1  0.724960  0.395180  0.233740  1.0
  O  O753  1  0.396070  0.087880  0.596960  1.0
  O  O754  1  0.087880  0.200890  0.596960  1.0
  O  O755  1  0.509080  0.396070  0.596960  1.0
  O  O756  1  0.200890  0.509080  0.596960  1.0
  O  O757  1  0.603930  0.912120  0.403040  1.0
  O  O758  1  0.912120  0.799110  0.403040  1.0
  O  O759  1  0.490920  0.603930  0.403040  1.0
  O  O760  1  0.799110  0.490920  0.403040  1.0
  O  O761  1  0.399380  0.168190  0.669400  1.0
  O  O762  1  0.168190  0.270020  0.669400  1.0
  O  O763  1  0.501210  0.399380  0.669400  1.0
  O  O764  1  0.270020  0.501210  0.669400  1.0
  O  O765  1  0.600620  0.831810  0.330600  1.0
  O  O766  1  0.831810  0.729980  0.330600  1.0
  O  O767  1  0.498790  0.600620  0.330600  1.0
  O  O768  1  0.729980  0.498790  0.330600  1.0
  O  O769  1  0.570800  0.140870  0.692080  1.0
  O  O770  1  0.140870  0.121280  0.692080  1.0
  O  O771  1  0.551210  0.570800  0.692080  1.0
  O  O772  1  0.121280  0.551210  0.692080  1.0
  O  O773  1  0.429200  0.859130  0.307920  1.0
  O  O774  1  0.859130  0.878720  0.307920  1.0
  O  O775  1  0.448790  0.429200  0.307920  1.0
  O  O776  1  0.878720  0.448790  0.307920  1.0
  O  O777  1  0.573680  0.221320  0.763680  1.0
  O  O778  1  0.221320  0.190000  0.763680  1.0
  O  O779  1  0.542360  0.573680  0.763680  1.0
  O  O780  1  0.190000  0.542360  0.763680  1.0
  O  O781  1  0.426320  0.778680  0.236320  1.0
  O  O782  1  0.778680  0.810000  0.236320  1.0
  O  O783  1  0.457640  0.426320  0.236320  1.0
  O  O784  1  0.810000  0.457640  0.236320  1.0
  O  O785  1  0.477040  0.149230  0.592740  1.0
  O  O786  1  0.149230  0.115700  0.592740  1.0
  O  O787  1  0.443510  0.477040  0.592740  1.0
  O  O788  1  0.115700  0.443510  0.592740  1.0
  O  O789  1  0.522960  0.850770  0.407260  1.0
  O  O790  1  0.850770  0.884300  0.407260  1.0
  O  O791  1  0.556490  0.522960  0.407260  1.0
  O  O792  1  0.884300  0.556490  0.407260  1.0
  O  O793  1  0.479180  0.228530  0.665000  1.0
  O  O794  1  0.228530  0.185820  0.665000  1.0
  O  O795  1  0.436470  0.479180  0.665000  1.0
  O  O796  1  0.185820  0.436470  0.665000  1.0
  O  O797  1  0.520820  0.771470  0.335000  1.0
  O  O798  1  0.771470  0.814180  0.335000  1.0
  O  O799  1  0.563530  0.520820  0.335000  1.0
  O  O800  1  0.814180  0.563530  0.335000  1.0
  O  O801  1  0.468390  0.093890  0.930860  1.0
  O  O802  1  0.093890  0.462470  0.930860  1.0
  O  O803  1  0.836970  0.468390  0.930860  1.0
  O  O804  1  0.462470  0.836970  0.930860  1.0
  O  O805  1  0.531610  0.906110  0.069140  1.0
  O  O806  1  0.906110  0.537530  0.069140  1.0
  O  O807  1  0.163030  0.531610  0.069140  1.0
  O  O808  1  0.537530  0.163030  0.069140  1.0
  O  O809  1  0.475620  0.170590  0.930100  1.0
  O  O810  1  0.170590  0.454480  0.930100  1.0
  O  O811  1  0.759510  0.475620  0.930100  1.0
  O  O812  1  0.454480  0.759510  0.930100  1.0
  O  O813  1  0.524380  0.829410  0.069900  1.0
  O  O814  1  0.829410  0.545520  0.069900  1.0
  O  O815  1  0.240490  0.524380  0.069900  1.0
  O  O816  1  0.545520  0.240490  0.069900  1.0
  O  O817  1  0.443930  0.252130  0.069220  1.0
  O  O818  1  0.252130  0.625290  0.069220  1.0
  O  O819  1  0.817090  0.443930  0.069220  1.0
  O  O820  1  0.625290  0.817090  0.069220  1.0
  O  O821  1  0.556070  0.747870  0.930780  1.0
  O  O822  1  0.747870  0.374710  0.930780  1.0
  O  O823  1  0.182910  0.556070  0.930780  1.0
  O  O824  1  0.374710  0.182910  0.930780  1.0
  O  O825  1  0.433990  0.175300  0.068360  1.0
  O  O826  1  0.175300  0.634370  0.068360  1.0
  O  O827  1  0.893060  0.433990  0.068360  1.0
  O  O828  1  0.634370  0.893060  0.068360  1.0
  O  O829  1  0.566010  0.824700  0.931640  1.0
  O  O830  1  0.824700  0.365630  0.931640  1.0
  O  O831  1  0.106940  0.566010  0.931640  1.0
  O  O832  1  0.365630  0.106940  0.931640  1.0
