# generated using pymatgen
data_Cu24H348C388N12O109
_symmetry_space_group_name_H-M   'P 1'
_cell_length_a   28.49620000
_cell_length_b   28.49620000
_cell_length_c   42.18610000
_cell_angle_alpha   90.00000000
_cell_angle_beta   90.00000000
_cell_angle_gamma   90.00000000
_symmetry_Int_Tables_number   1
_chemical_formula_structural   Cu24H348C388N12O109
_chemical_formula_sum   'Cu48 H696 C776 N24 O218'
_cell_volume   34256.52282491
_cell_formula_units_Z   2
loop_
 _symmetry_equiv_pos_site_id
 _symmetry_equiv_pos_as_xyz
  1  'x, y, z'
loop_
 _atom_site_type_symbol
 _atom_site_label
 _atom_site_symmetry_multiplicity
 _atom_site_fract_x
 _atom_site_fract_y
 _atom_site_fract_z
 _atom_site_occupancy
  Cu  Cu1  1  0.242090  0.242090  0.500000  1.0
  Cu  Cu2  1  0.257910  0.742090  0.000000  1.0
  Cu  Cu3  1  0.742090  0.257910  0.000000  1.0
  Cu  Cu4  1  0.757910  0.757910  0.500000  1.0
  Cu  Cu5  1  0.307240  0.307240  0.500000  1.0
  Cu  Cu6  1  0.192760  0.807240  0.000000  1.0
  Cu  Cu7  1  0.807240  0.192760  0.000000  1.0
  Cu  Cu8  1  0.692760  0.692760  0.500000  1.0
  Cu  Cu9  1  0.500000  0.500000  0.250900  1.0
  Cu  Cu10  1  0.000000  0.000000  0.750900  1.0
  Cu  Cu11  1  0.500000  0.500000  0.749100  1.0
  Cu  Cu12  1  0.000000  0.000000  0.249100  1.0
  Cu  Cu13  1  0.500000  0.500000  0.312950  1.0
  Cu  Cu14  1  0.000000  0.000000  0.812950  1.0
  Cu  Cu15  1  0.500000  0.500000  0.687050  1.0
  Cu  Cu16  1  0.000000  0.000000  0.187050  1.0
  Cu  Cu17  1  0.558268  0.179512  0.373941  1.0
  Cu  Cu18  1  0.320488  0.058268  0.873941  1.0
  Cu  Cu19  1  0.679512  0.941732  0.873941  1.0
  Cu  Cu20  1  0.179512  0.558268  0.626059  1.0
  Cu  Cu21  1  0.058268  0.320488  0.126059  1.0
  Cu  Cu22  1  0.820488  0.441732  0.626059  1.0
  Cu  Cu23  1  0.941732  0.679512  0.126059  1.0
  Cu  Cu24  1  0.441732  0.820488  0.373941  1.0
  Cu  Cu25  1  0.441732  0.820488  0.626059  1.0
  Cu  Cu26  1  0.679512  0.941732  0.126059  1.0
  Cu  Cu27  1  0.320488  0.058268  0.126059  1.0
  Cu  Cu28  1  0.820488  0.441732  0.373941  1.0
  Cu  Cu29  1  0.941732  0.679512  0.873941  1.0
  Cu  Cu30  1  0.179512  0.558268  0.373941  1.0
  Cu  Cu31  1  0.058268  0.320488  0.873941  1.0
  Cu  Cu32  1  0.558268  0.179512  0.626059  1.0
  Cu  Cu33  1  0.547818  0.258126  0.405186  1.0
  Cu  Cu34  1  0.241874  0.047818  0.905186  1.0
  Cu  Cu35  1  0.758126  0.952182  0.905186  1.0
  Cu  Cu36  1  0.258126  0.547818  0.594814  1.0
  Cu  Cu37  1  0.047818  0.241874  0.094814  1.0
  Cu  Cu38  1  0.741874  0.452182  0.594814  1.0
  Cu  Cu39  1  0.952182  0.758126  0.094814  1.0
  Cu  Cu40  1  0.452182  0.741874  0.405186  1.0
  Cu  Cu41  1  0.452182  0.741874  0.594814  1.0
  Cu  Cu42  1  0.758126  0.952182  0.094814  1.0
  Cu  Cu43  1  0.241874  0.047818  0.094814  1.0
  Cu  Cu44  1  0.741874  0.452182  0.405186  1.0
  Cu  Cu45  1  0.952182  0.758126  0.905186  1.0
  Cu  Cu46  1  0.258126  0.547818  0.405186  1.0
  Cu  Cu47  1  0.047818  0.241874  0.905186  1.0
  Cu  Cu48  1  0.547818  0.258126  0.594814  1.0
  H  H49  1  0.510300  0.451800  0.170100  1
  H  H50  1  0.048200  0.010300  0.670100  1
  H  H51  1  0.951800  0.989700  0.670100  1
  H  H52  1  0.451800  0.510300  0.829900  1
  H  H53  1  0.010300  0.048200  0.329900  1
  H  H54  1  0.548200  0.489700  0.829900  1
  H  H55  1  0.989700  0.951800  0.329900  1
  H  H56  1  0.489700  0.548200  0.170100  1
  H  H57  1  0.489700  0.548200  0.829900  1
  H  H58  1  0.951800  0.989700  0.329900  1
  H  H59  1  0.048200  0.010300  0.329900  1
  H  H60  1  0.548200  0.489700  0.170100  1
  H  H61  1  0.989700  0.951800  0.670100  1
  H  H62  1  0.451800  0.510300  0.170100  1
  H  H63  1  0.010300  0.048200  0.670100  1
  H  H64  1  0.510300  0.451800  0.829900  1
  H  H65  1  0.175800  0.136000  0.465500  1
  H  H66  1  0.364000  0.675800  0.965500  1
  H  H67  1  0.636000  0.324200  0.965500  1
  H  H68  1  0.136000  0.175800  0.534500  1
  H  H69  1  0.675800  0.364000  0.034500  1
  H  H70  1  0.864000  0.824200  0.534500  1
  H  H71  1  0.324200  0.636000  0.034500  1
  H  H72  1  0.824200  0.864000  0.465500  1
  H  H73  1  0.824200  0.864000  0.534500  1
  H  H74  1  0.636000  0.324200  0.034500  1
  H  H75  1  0.364000  0.675800  0.034500  1
  H  H76  1  0.864000  0.824200  0.465500  1
  H  H77  1  0.324200  0.636000  0.965500  1
  H  H78  1  0.136000  0.175800  0.465500  1
  H  H79  1  0.675800  0.364000  0.965500  1
  H  H80  1  0.175800  0.136000  0.534500  1
  H  H81  1  0.453700  0.453700  0.500000  1.0
  H  H82  1  0.046300  0.953700  0.000000  1.0
  H  H83  1  0.953700  0.046300  0.000000  1.0
  H  H84  1  0.546300  0.546300  0.500000  1.0
  H  H85  1  0.500000  0.500000  0.453200  1.0
  H  H86  1  0.000000  0.000000  0.953200  1.0
  H  H87  1  0.500000  0.500000  0.546800  1.0
  H  H88  1  0.000000  0.000000  0.046800  1.0
  H  H89  1  0.567100  0.208100  0.500000  1.0
  H  H90  1  0.291900  0.067100  0.000000  1.0
  H  H91  1  0.708100  0.932900  0.000000  1.0
  H  H92  1  0.208100  0.567100  0.500000  1.0
  H  H93  1  0.067100  0.291900  0.000000  1.0
  H  H94  1  0.791900  0.432900  0.500000  1.0
  H  H95  1  0.932900  0.708100  0.000000  1.0
  H  H96  1  0.432900  0.791900  0.500000  1.0
  H  H97  1  0.682400  0.317600  0.391200  1.0
  H  H98  1  0.182400  0.182400  0.891200  1.0
  H  H99  1  0.817600  0.817600  0.891200  1.0
  H  H100  1  0.317600  0.682400  0.608800  1.0
  H  H101  1  0.182400  0.182400  0.108800  1.0
  H  H102  1  0.682400  0.317600  0.608800  1.0
  H  H103  1  0.817600  0.817600  0.108800  1.0
  H  H104  1  0.317600  0.682400  0.391200  1.0
  H  H105  1  0.416900  0.319400  0.500000  1.0
  H  H106  1  0.180600  0.916900  0.000000  1.0
  H  H107  1  0.819400  0.083100  0.000000  1.0
  H  H108  1  0.319400  0.416900  0.500000  1.0
  H  H109  1  0.916900  0.180600  0.000000  1.0
  H  H110  1  0.680600  0.583100  0.500000  1.0
  H  H111  1  0.083100  0.819400  0.000000  1.0
  H  H112  1  0.583100  0.680600  0.500000  1.0
  H  H113  1  0.472600  0.375000  0.500000  1.0
  H  H114  1  0.125000  0.972600  0.000000  1.0
  H  H115  1  0.875000  0.027400  0.000000  1.0
  H  H116  1  0.375000  0.472600  0.500000  1.0
  H  H117  1  0.972600  0.125000  0.000000  1.0
  H  H118  1  0.625000  0.527400  0.500000  1.0
  H  H119  1  0.027400  0.875000  0.000000  1.0
  H  H120  1  0.527400  0.625000  0.500000  1.0
  H  H121  1  0.546900  0.453100  0.370800  1.0
  H  H122  1  0.046900  0.046900  0.870800  1.0
  H  H123  1  0.953100  0.953100  0.870800  1.0
  H  H124  1  0.453100  0.546900  0.629200  1.0
  H  H125  1  0.046900  0.046900  0.129200  1.0
  H  H126  1  0.546900  0.453100  0.629200  1.0
  H  H127  1  0.953100  0.953100  0.129200  1.0
  H  H128  1  0.453100  0.546900  0.370800  1.0
  H  H129  1  0.547800  0.452200  0.423400  1.0
  H  H130  1  0.047800  0.047800  0.923400  1.0
  H  H131  1  0.952200  0.952200  0.923400  1.0
  H  H132  1  0.452200  0.547800  0.576600  1.0
  H  H133  1  0.047800  0.047800  0.076600  1.0
  H  H134  1  0.547800  0.452200  0.576600  1.0
  H  H135  1  0.952200  0.952200  0.076600  1.0
  H  H136  1  0.452200  0.547800  0.423400  1.0
  H  H137  1  0.545500  0.452600  0.198700  1.0
  H  H138  1  0.047400  0.045500  0.698700  1.0
  H  H139  1  0.952600  0.954500  0.698700  1.0
  H  H140  1  0.452600  0.545500  0.801300  1.0
  H  H141  1  0.045500  0.047400  0.301300  1.0
  H  H142  1  0.547400  0.454500  0.801300  1.0
  H  H143  1  0.954500  0.952600  0.301300  1.0
  H  H144  1  0.454500  0.547400  0.198700  1.0
  H  H145  1  0.454500  0.547400  0.801300  1.0
  H  H146  1  0.952600  0.954500  0.301300  1.0
  H  H147  1  0.047400  0.045500  0.301300  1.0
  H  H148  1  0.547400  0.454500  0.198700  1.0
  H  H149  1  0.954500  0.952600  0.698700  1.0
  H  H150  1  0.452600  0.545500  0.198700  1.0
  H  H151  1  0.045500  0.047400  0.698700  1.0
  H  H152  1  0.545500  0.452600  0.801300  1.0
  H  H153  1  0.183600  0.185400  0.450000  1.0
  H  H154  1  0.314600  0.683600  0.950000  1.0
  H  H155  1  0.685400  0.316400  0.950000  1.0
  H  H156  1  0.185400  0.183600  0.550000  1.0
  H  H157  1  0.683600  0.314600  0.050000  1.0
  H  H158  1  0.814600  0.816400  0.550000  1.0
  H  H159  1  0.316400  0.685400  0.050000  1.0
  H  H160  1  0.816400  0.814600  0.450000  1.0
  H  H161  1  0.816400  0.814600  0.550000  1.0
  H  H162  1  0.685400  0.316400  0.050000  1.0
  H  H163  1  0.314600  0.683600  0.050000  1.0
  H  H164  1  0.814600  0.816400  0.450000  1.0
  H  H165  1  0.316400  0.685400  0.950000  1.0
  H  H166  1  0.185400  0.183600  0.450000  1.0
  H  H167  1  0.683600  0.314600  0.950000  1.0
  H  H168  1  0.183600  0.185400  0.550000  1.0
  H  H169  1  0.550000  0.489800  0.171500  1.0
  H  H170  1  0.010200  0.050000  0.671500  1.0
  H  H171  1  0.989800  0.950000  0.671500  1.0
  H  H172  1  0.489800  0.550000  0.828500  1.0
  H  H173  1  0.050000  0.010200  0.328500  1.0
  H  H174  1  0.510200  0.450000  0.828500  1.0
  H  H175  1  0.950000  0.989800  0.328500  1.0
  H  H176  1  0.450000  0.510200  0.171500  1.0
  H  H177  1  0.450000  0.510200  0.828500  1.0
  H  H178  1  0.989800  0.950000  0.328500  1.0
  H  H179  1  0.010200  0.050000  0.328500  1.0
  H  H180  1  0.510200  0.450000  0.171500  1.0
  H  H181  1  0.950000  0.989800  0.671500  1.0
  H  H182  1  0.489800  0.550000  0.171500  1.0
  H  H183  1  0.050000  0.010200  0.671500  1.0
  H  H184  1  0.550000  0.489800  0.828500  1.0
  H  H185  1  0.135600  0.173600  0.466300  1.0
  H  H186  1  0.326400  0.635600  0.966300  1.0
  H  H187  1  0.673600  0.364400  0.966300  1.0
  H  H188  1  0.173600  0.135600  0.533700  1.0
  H  H189  1  0.635600  0.326400  0.033700  1.0
  H  H190  1  0.826400  0.864400  0.533700  1.0
  H  H191  1  0.364400  0.673600  0.033700  1.0
  H  H192  1  0.864400  0.826400  0.466300  1.0
  H  H193  1  0.864400  0.826400  0.533700  1.0
  H  H194  1  0.673600  0.364400  0.033700  1.0
  H  H195  1  0.326400  0.635600  0.033700  1.0
  H  H196  1  0.826400  0.864400  0.466300  1.0
  H  H197  1  0.364400  0.673600  0.966300  1.0
  H  H198  1  0.173600  0.135600  0.466300  1.0
  H  H199  1  0.635600  0.326400  0.966300  1.0
  H  H200  1  0.135600  0.173600  0.533700  1.0
  H  H201  1  0.294400  0.157800  0.424000  1.0
  H  H202  1  0.342200  0.794400  0.924000  1.0
  H  H203  1  0.657800  0.205600  0.924000  1.0
  H  H204  1  0.157800  0.294400  0.576000  1.0
  H  H205  1  0.794400  0.342200  0.076000  1.0
  H  H206  1  0.842200  0.705600  0.576000  1.0
  H  H207  1  0.205600  0.657800  0.076000  1.0
  H  H208  1  0.705600  0.842200  0.424000  1.0
  H  H209  1  0.705600  0.842200  0.576000  1.0
  H  H210  1  0.657800  0.205600  0.076000  1.0
  H  H211  1  0.342200  0.794400  0.076000  1.0
  H  H212  1  0.842200  0.705600  0.424000  1.0
  H  H213  1  0.205600  0.657800  0.924000  1.0
  H  H214  1  0.157800  0.294400  0.424000  1.0
  H  H215  1  0.794400  0.342200  0.924000  1.0
  H  H216  1  0.294400  0.157800  0.576000  1.0
  H  H217  1  0.414300  0.130900  0.377300  1.0
  H  H218  1  0.369100  0.914300  0.877300  1.0
  H  H219  1  0.630900  0.085700  0.877300  1.0
  H  H220  1  0.130900  0.414300  0.622700  1.0
  H  H221  1  0.914300  0.369100  0.122700  1.0
  H  H222  1  0.869100  0.585700  0.622700  1.0
  H  H223  1  0.085700  0.630900  0.122700  1.0
  H  H224  1  0.585700  0.869100  0.377300  1.0
  H  H225  1  0.585700  0.869100  0.622700  1.0
  H  H226  1  0.630900  0.085700  0.122700  1.0
  H  H227  1  0.369100  0.914300  0.122700  1.0
  H  H228  1  0.869100  0.585700  0.377300  1.0
  H  H229  1  0.085700  0.630900  0.877300  1.0
  H  H230  1  0.130900  0.414300  0.377300  1.0
  H  H231  1  0.914300  0.369100  0.877300  1.0
  H  H232  1  0.414300  0.130900  0.622700  1.0
  H  H233  1  0.405700  0.240700  0.436200  1.0
  H  H234  1  0.259300  0.905700  0.936200  1.0
  H  H235  1  0.740700  0.094300  0.936200  1.0
  H  H236  1  0.240700  0.405700  0.563800  1.0
  H  H237  1  0.905700  0.259300  0.063800  1.0
  H  H238  1  0.759300  0.594300  0.563800  1.0
  H  H239  1  0.094300  0.740700  0.063800  1.0
  H  H240  1  0.594300  0.759300  0.436200  1.0
  H  H241  1  0.594300  0.759300  0.563800  1.0
  H  H242  1  0.740700  0.094300  0.063800  1.0
  H  H243  1  0.259300  0.905700  0.063800  1.0
  H  H244  1  0.759300  0.594300  0.436200  1.0
  H  H245  1  0.094300  0.740700  0.936200  1.0
  H  H246  1  0.240700  0.405700  0.436200  1.0
  H  H247  1  0.905700  0.259300  0.936200  1.0
  H  H248  1  0.405700  0.240700  0.563800  1.0
  H  H249  1  0.374000  0.086200  0.347500  1.0
  H  H250  1  0.413800  0.874000  0.847500  1.0
  H  H251  1  0.586200  0.126000  0.847500  1.0
  H  H252  1  0.086200  0.374000  0.652500  1.0
  H  H253  1  0.874000  0.413800  0.152500  1.0
  H  H254  1  0.913800  0.626000  0.652500  1.0
  H  H255  1  0.126000  0.586200  0.152500  1.0
  H  H256  1  0.626000  0.913800  0.347500  1.0
  H  H257  1  0.626000  0.913800  0.652500  1.0
  H  H258  1  0.586200  0.126000  0.152500  1.0
  H  H259  1  0.413800  0.874000  0.152500  1.0
  H  H260  1  0.913800  0.626000  0.347500  1.0
  H  H261  1  0.126000  0.586200  0.847500  1.0
  H  H262  1  0.086200  0.374000  0.347500  1.0
  H  H263  1  0.874000  0.413800  0.847500  1.0
  H  H264  1  0.374000  0.086200  0.652500  1.0
  H  H265  1  0.336400  0.046200  0.350200  1.0
  H  H266  1  0.453800  0.836400  0.850200  1.0
  H  H267  1  0.546200  0.163600  0.850200  1.0
  H  H268  1  0.046200  0.336400  0.649800  1.0
  H  H269  1  0.836400  0.453800  0.149800  1.0
  H  H270  1  0.953800  0.663600  0.649800  1.0
  H  H271  1  0.163600  0.546200  0.149800  1.0
  H  H272  1  0.663600  0.953800  0.350200  1.0
  H  H273  1  0.663600  0.953800  0.649800  1.0
  H  H274  1  0.546200  0.163600  0.149800  1.0
  H  H275  1  0.453800  0.836400  0.149800  1.0
  H  H276  1  0.953800  0.663600  0.350200  1.0
  H  H277  1  0.163600  0.546200  0.850200  1.0
  H  H278  1  0.046200  0.336400  0.350200  1.0
  H  H279  1  0.836400  0.453800  0.850200  1.0
  H  H280  1  0.336400  0.046200  0.649800  1.0
  H  H281  1  0.375700  0.051000  0.376000  1.0
  H  H282  1  0.449000  0.875700  0.876000  1.0
  H  H283  1  0.551000  0.124300  0.876000  1.0
  H  H284  1  0.051000  0.375700  0.624000  1.0
  H  H285  1  0.875700  0.449000  0.124000  1.0
  H  H286  1  0.949000  0.624300  0.624000  1.0
  H  H287  1  0.124300  0.551000  0.124000  1.0
  H  H288  1  0.624300  0.949000  0.376000  1.0
  H  H289  1  0.624300  0.949000  0.624000  1.0
  H  H290  1  0.551000  0.124300  0.124000  1.0
  H  H291  1  0.449000  0.875700  0.124000  1.0
  H  H292  1  0.949000  0.624300  0.376000  1.0
  H  H293  1  0.124300  0.551000  0.876000  1.0
  H  H294  1  0.051000  0.375700  0.376000  1.0
  H  H295  1  0.875700  0.449000  0.876000  1.0
  H  H296  1  0.375700  0.051000  0.624000  1.0
  H  H297  1  0.276600  0.091500  0.413500  1.0
  H  H298  1  0.408500  0.776600  0.913500  1.0
  H  H299  1  0.591500  0.223400  0.913500  1.0
  H  H300  1  0.091500  0.276600  0.586500  1.0
  H  H301  1  0.776600  0.408500  0.086500  1.0
  H  H302  1  0.908500  0.723400  0.586500  1.0
  H  H303  1  0.223400  0.591500  0.086500  1.0
  H  H304  1  0.723400  0.908500  0.413500  1.0
  H  H305  1  0.723400  0.908500  0.586500  1.0
  H  H306  1  0.591500  0.223400  0.086500  1.0
  H  H307  1  0.408500  0.776600  0.086500  1.0
  H  H308  1  0.908500  0.723400  0.413500  1.0
  H  H309  1  0.223400  0.591500  0.913500  1.0
  H  H310  1  0.091500  0.276600  0.413500  1.0
  H  H311  1  0.776600  0.408500  0.913500  1.0
  H  H312  1  0.276600  0.091500  0.586500  1.0
  H  H313  1  0.316300  0.053600  0.416000  1.0
  H  H314  1  0.446400  0.816300  0.916000  1.0
  H  H315  1  0.553600  0.183700  0.916000  1.0
  H  H316  1  0.053600  0.316300  0.584000  1.0
  H  H317  1  0.816300  0.446400  0.084000  1.0
  H  H318  1  0.946400  0.683700  0.584000  1.0
  H  H319  1  0.183700  0.553600  0.084000  1.0
  H  H320  1  0.683700  0.946400  0.416000  1.0
  H  H321  1  0.683700  0.946400  0.584000  1.0
  H  H322  1  0.553600  0.183700  0.084000  1.0
  H  H323  1  0.446400  0.816300  0.084000  1.0
  H  H324  1  0.946400  0.683700  0.416000  1.0
  H  H325  1  0.183700  0.553600  0.916000  1.0
  H  H326  1  0.053600  0.316300  0.416000  1.0
  H  H327  1  0.816300  0.446400  0.916000  1.0
  H  H328  1  0.316300  0.053600  0.584000  1.0
  H  H329  1  0.277600  0.049200  0.389800  1.0
  H  H330  1  0.450800  0.777600  0.889800  1.0
  H  H331  1  0.549200  0.222400  0.889800  1.0
  H  H332  1  0.049200  0.277600  0.610200  1.0
  H  H333  1  0.777600  0.450800  0.110200  1.0
  H  H334  1  0.950800  0.722400  0.610200  1.0
  H  H335  1  0.222400  0.549200  0.110200  1.0
  H  H336  1  0.722400  0.950800  0.389800  1.0
  H  H337  1  0.722400  0.950800  0.610200  1.0
  H  H338  1  0.549200  0.222400  0.110200  1.0
  H  H339  1  0.450800  0.777600  0.110200  1.0
  H  H340  1  0.950800  0.722400  0.389800  1.0
  H  H341  1  0.222400  0.549200  0.889800  1.0
  H  H342  1  0.049200  0.277600  0.389800  1.0
  H  H343  1  0.777600  0.450800  0.889800  1.0
  H  H344  1  0.277600  0.049200  0.610200  1.0
  H  H345  1  0.269300  0.137300  0.368600  1.0
  H  H346  1  0.362700  0.769300  0.868600  1.0
  H  H347  1  0.637300  0.230700  0.868600  1.0
  H  H348  1  0.137300  0.269300  0.631400  1.0
  H  H349  1  0.769300  0.362700  0.131400  1.0
  H  H350  1  0.862700  0.730700  0.631400  1.0
  H  H351  1  0.230700  0.637300  0.131400  1.0
  H  H352  1  0.730700  0.862700  0.368600  1.0
  H  H353  1  0.730700  0.862700  0.631400  1.0
  H  H354  1  0.637300  0.230700  0.131400  1.0
  H  H355  1  0.362700  0.769300  0.131400  1.0
  H  H356  1  0.862700  0.730700  0.368600  1.0
  H  H357  1  0.230700  0.637300  0.868600  1.0
  H  H358  1  0.137300  0.269300  0.368600  1.0
  H  H359  1  0.769300  0.362700  0.868600  1.0
  H  H360  1  0.269300  0.137300  0.631400  1.0
  H  H361  1  0.276700  0.094700  0.345600  1.0
  H  H362  1  0.405300  0.776700  0.845600  1.0
  H  H363  1  0.594700  0.223300  0.845600  1.0
  H  H364  1  0.094700  0.276700  0.654400  1.0
  H  H365  1  0.776700  0.405300  0.154400  1.0
  H  H366  1  0.905300  0.723300  0.654400  1.0
  H  H367  1  0.223300  0.594700  0.154400  1.0
  H  H368  1  0.723300  0.905300  0.345600  1.0
  H  H369  1  0.723300  0.905300  0.654400  1.0
  H  H370  1  0.594700  0.223300  0.154400  1.0
  H  H371  1  0.405300  0.776700  0.154400  1.0
  H  H372  1  0.905300  0.723300  0.345600  1.0
  H  H373  1  0.223300  0.594700  0.845600  1.0
  H  H374  1  0.094700  0.276700  0.345600  1.0
  H  H375  1  0.776700  0.405300  0.845600  1.0
  H  H376  1  0.276700  0.094700  0.654400  1.0
  H  H377  1  0.308700  0.139200  0.342600  1.0
  H  H378  1  0.360800  0.808700  0.842600  1.0
  H  H379  1  0.639200  0.191300  0.842600  1.0
  H  H380  1  0.139200  0.308700  0.657400  1.0
  H  H381  1  0.808700  0.360800  0.157400  1.0
  H  H382  1  0.860800  0.691300  0.657400  1.0
  H  H383  1  0.191300  0.639200  0.157400  1.0
  H  H384  1  0.691300  0.860800  0.342600  1.0
  H  H385  1  0.691300  0.860800  0.657400  1.0
  H  H386  1  0.639200  0.191300  0.157400  1.0
  H  H387  1  0.360800  0.808700  0.157400  1.0
  H  H388  1  0.860800  0.691300  0.342600  1.0
  H  H389  1  0.191300  0.639200  0.842600  1.0
  H  H390  1  0.139200  0.308700  0.342600  1.0
  H  H391  1  0.808700  0.360800  0.842600  1.0
  H  H392  1  0.308700  0.139200  0.657400  1.0
  H  H393  1  0.517700  0.229500  0.281200  1.0
  H  H394  1  0.270500  0.017700  0.781200  1.0
  H  H395  1  0.729500  0.982300  0.781200  1.0
  H  H396  1  0.229500  0.517700  0.718800  1.0
  H  H397  1  0.017700  0.270500  0.218800  1.0
  H  H398  1  0.770500  0.482300  0.718800  1.0
  H  H399  1  0.982300  0.729500  0.218800  1.0
  H  H400  1  0.482300  0.770500  0.281200  1.0
  H  H401  1  0.482300  0.770500  0.718800  1.0
  H  H402  1  0.729500  0.982300  0.218800  1.0
  H  H403  1  0.270500  0.017700  0.218800  1.0
  H  H404  1  0.770500  0.482300  0.281200  1.0
  H  H405  1  0.982300  0.729500  0.781200  1.0
  H  H406  1  0.229500  0.517700  0.281200  1.0
  H  H407  1  0.017700  0.270500  0.781200  1.0
  H  H408  1  0.517700  0.229500  0.718800  1.0
  H  H409  1  0.494600  0.350300  0.234800  1.0
  H  H410  1  0.149700  0.994600  0.734800  1.0
  H  H411  1  0.850300  0.005400  0.734800  1.0
  H  H412  1  0.350300  0.494600  0.765200  1.0
  H  H413  1  0.994600  0.149700  0.265200  1.0
  H  H414  1  0.649700  0.505400  0.765200  1.0
  H  H415  1  0.005400  0.850300  0.265200  1.0
  H  H416  1  0.505400  0.649700  0.234800  1.0
  H  H417  1  0.505400  0.649700  0.765200  1.0
  H  H418  1  0.850300  0.005400  0.265200  1.0
  H  H419  1  0.149700  0.994600  0.265200  1.0
  H  H420  1  0.649700  0.505400  0.234800  1.0
  H  H421  1  0.005400  0.850300  0.734800  1.0
  H  H422  1  0.350300  0.494600  0.234800  1.0
  H  H423  1  0.994600  0.149700  0.734800  1.0
  H  H424  1  0.494600  0.350300  0.765200  1.0
  H  H425  1  0.517100  0.352200  0.328400  1.0
  H  H426  1  0.147800  0.017100  0.828400  1.0
  H  H427  1  0.852200  0.982900  0.828400  1.0
  H  H428  1  0.352200  0.517100  0.671600  1.0
  H  H429  1  0.017100  0.147800  0.171600  1.0
  H  H430  1  0.647800  0.482900  0.671600  1.0
  H  H431  1  0.982900  0.852200  0.171600  1.0
  H  H432  1  0.482900  0.647800  0.328400  1.0
  H  H433  1  0.482900  0.647800  0.671600  1.0
  H  H434  1  0.852200  0.982900  0.171600  1.0
  H  H435  1  0.147800  0.017100  0.171600  1.0
  H  H436  1  0.647800  0.482900  0.328400  1.0
  H  H437  1  0.982900  0.852200  0.828400  1.0
  H  H438  1  0.352200  0.517100  0.328400  1.0
  H  H439  1  0.017100  0.147800  0.828400  1.0
  H  H440  1  0.517100  0.352200  0.671600  1.0
  H  H441  1  0.555900  0.281100  0.200500  1.0
  H  H442  1  0.218900  0.055900  0.700500  1.0
  H  H443  1  0.781100  0.944100  0.700500  1.0
  H  H444  1  0.281100  0.555900  0.799500  1.0
  H  H445  1  0.055900  0.218900  0.299500  1.0
  H  H446  1  0.718900  0.444100  0.799500  1.0
  H  H447  1  0.944100  0.781100  0.299500  1.0
  H  H448  1  0.444100  0.718900  0.200500  1.0
  H  H449  1  0.444100  0.718900  0.799500  1.0
  H  H450  1  0.781100  0.944100  0.299500  1.0
  H  H451  1  0.218900  0.055900  0.299500  1.0
  H  H452  1  0.718900  0.444100  0.200500  1.0
  H  H453  1  0.944100  0.781100  0.700500  1.0
  H  H454  1  0.281100  0.555900  0.200500  1.0
  H  H455  1  0.055900  0.218900  0.700500  1.0
  H  H456  1  0.555900  0.281100  0.799500  1.0
  H  H457  1  0.511200  0.310400  0.191800  1.0
  H  H458  1  0.189600  0.011200  0.691800  1.0
  H  H459  1  0.810400  0.988800  0.691800  1.0
  H  H460  1  0.310400  0.511200  0.808200  1.0
  H  H461  1  0.011200  0.189600  0.308200  1.0
  H  H462  1  0.689600  0.488800  0.808200  1.0
  H  H463  1  0.988800  0.810400  0.308200  1.0
  H  H464  1  0.488800  0.689600  0.191800  1.0
  H  H465  1  0.488800  0.689600  0.808200  1.0
  H  H466  1  0.810400  0.988800  0.308200  1.0
  H  H467  1  0.189600  0.011200  0.308200  1.0
  H  H468  1  0.689600  0.488800  0.191800  1.0
  H  H469  1  0.988800  0.810400  0.691800  1.0
  H  H470  1  0.310400  0.511200  0.191800  1.0
  H  H471  1  0.011200  0.189600  0.691800  1.0
  H  H472  1  0.511200  0.310400  0.808200  1.0
  H  H473  1  0.518900  0.260800  0.176700  1.0
  H  H474  1  0.239200  0.018900  0.676700  1.0
  H  H475  1  0.760800  0.981100  0.676700  1.0
  H  H476  1  0.260800  0.518900  0.823300  1.0
  H  H477  1  0.018900  0.239200  0.323300  1.0
  H  H478  1  0.739200  0.481100  0.823300  1.0
  H  H479  1  0.981100  0.760800  0.323300  1.0
  H  H480  1  0.481100  0.739200  0.176700  1.0
  H  H481  1  0.481100  0.739200  0.823300  1.0
  H  H482  1  0.760800  0.981100  0.323300  1.0
  H  H483  1  0.239200  0.018900  0.323300  1.0
  H  H484  1  0.739200  0.481100  0.176700  1.0
  H  H485  1  0.981100  0.760800  0.676700  1.0
  H  H486  1  0.260800  0.518900  0.176700  1.0
  H  H487  1  0.018900  0.239200  0.676700  1.0
  H  H488  1  0.518900  0.260800  0.823300  1.0
  H  H489  1  0.435900  0.285700  0.215400  1.0
  H  H490  1  0.214300  0.935900  0.715400  1.0
  H  H491  1  0.785700  0.064100  0.715400  1.0
  H  H492  1  0.285700  0.435900  0.784600  1.0
  H  H493  1  0.935900  0.214300  0.284600  1.0
  H  H494  1  0.714300  0.564100  0.784600  1.0
  H  H495  1  0.064100  0.785700  0.284600  1.0
  H  H496  1  0.564100  0.714300  0.215400  1.0
  H  H497  1  0.564100  0.714300  0.784600  1.0
  H  H498  1  0.785700  0.064100  0.284600  1.0
  H  H499  1  0.214300  0.935900  0.284600  1.0
  H  H500  1  0.714300  0.564100  0.215400  1.0
  H  H501  1  0.064100  0.785700  0.715400  1.0
  H  H502  1  0.285700  0.435900  0.215400  1.0
  H  H503  1  0.935900  0.214300  0.715400  1.0
  H  H504  1  0.435900  0.285700  0.784600  1.0
  H  H505  1  0.433900  0.236300  0.231700  1.0
  H  H506  1  0.263700  0.933900  0.731700  1.0
  H  H507  1  0.736300  0.066100  0.731700  1.0
  H  H508  1  0.236300  0.433900  0.768300  1.0
  H  H509  1  0.933900  0.263700  0.268300  1.0
  H  H510  1  0.763700  0.566100  0.768300  1.0
  H  H511  1  0.066100  0.736300  0.268300  1.0
  H  H512  1  0.566100  0.763700  0.231700  1.0
  H  H513  1  0.566100  0.763700  0.768300  1.0
  H  H514  1  0.736300  0.066100  0.268300  1.0
  H  H515  1  0.263700  0.933900  0.268300  1.0
  H  H516  1  0.763700  0.566100  0.231700  1.0
  H  H517  1  0.066100  0.736300  0.731700  1.0
  H  H518  1  0.236300  0.433900  0.231700  1.0
  H  H519  1  0.933900  0.263700  0.731700  1.0
  H  H520  1  0.433900  0.236300  0.768300  1.0
  H  H521  1  0.444600  0.240200  0.195400  1.0
  H  H522  1  0.259800  0.944600  0.695400  1.0
  H  H523  1  0.740200  0.055400  0.695400  1.0
  H  H524  1  0.240200  0.444600  0.804600  1.0
  H  H525  1  0.944600  0.259800  0.304600  1.0
  H  H526  1  0.759800  0.555400  0.804600  1.0
  H  H527  1  0.055400  0.740200  0.304600  1.0
  H  H528  1  0.555400  0.759800  0.195400  1.0
  H  H529  1  0.555400  0.759800  0.804600  1.0
  H  H530  1  0.740200  0.055400  0.304600  1.0
  H  H531  1  0.259800  0.944600  0.304600  1.0
  H  H532  1  0.759800  0.555400  0.195400  1.0
  H  H533  1  0.055400  0.740200  0.695400  1.0
  H  H534  1  0.240200  0.444600  0.195400  1.0
  H  H535  1  0.944600  0.259800  0.695400  1.0
  H  H536  1  0.444600  0.240200  0.804600  1.0
  H  H537  1  0.548100  0.210400  0.227300  1.0
  H  H538  1  0.289600  0.048100  0.727300  1.0
  H  H539  1  0.710400  0.951900  0.727300  1.0
  H  H540  1  0.210400  0.548100  0.772700  1.0
  H  H541  1  0.048100  0.289600  0.272700  1.0
  H  H542  1  0.789600  0.451900  0.772700  1.0
  H  H543  1  0.951900  0.710400  0.272700  1.0
  H  H544  1  0.451900  0.789600  0.227300  1.0
  H  H545  1  0.451900  0.789600  0.772700  1.0
  H  H546  1  0.710400  0.951900  0.272700  1.0
  H  H547  1  0.289600  0.048100  0.272700  1.0
  H  H548  1  0.789600  0.451900  0.227300  1.0
  H  H549  1  0.951900  0.710400  0.727300  1.0
  H  H550  1  0.210400  0.548100  0.227300  1.0
  H  H551  1  0.048100  0.289600  0.727300  1.0
  H  H552  1  0.548100  0.210400  0.772700  1.0
  H  H553  1  0.510700  0.196200  0.201800  1.0
  H  H554  1  0.303800  0.010700  0.701800  1.0
  H  H555  1  0.696200  0.989300  0.701800  1.0
  H  H556  1  0.196200  0.510700  0.798200  1.0
  H  H557  1  0.010700  0.303800  0.298200  1.0
  H  H558  1  0.803800  0.489300  0.798200  1.0
  H  H559  1  0.989300  0.696200  0.298200  1.0
  H  H560  1  0.489300  0.803800  0.201800  1.0
  H  H561  1  0.489300  0.803800  0.798200  1.0
  H  H562  1  0.696200  0.989300  0.298200  1.0
  H  H563  1  0.303800  0.010700  0.298200  1.0
  H  H564  1  0.803800  0.489300  0.201800  1.0
  H  H565  1  0.989300  0.696200  0.701800  1.0
  H  H566  1  0.196200  0.510700  0.201800  1.0
  H  H567  1  0.010700  0.303800  0.701800  1.0
  H  H568  1  0.510700  0.196200  0.798200  1.0
  H  H569  1  0.498800  0.191800  0.238000  1.0
  H  H570  1  0.308200  0.998800  0.738000  1.0
  H  H571  1  0.691800  0.001200  0.738000  1.0
  H  H572  1  0.191800  0.498800  0.762000  1.0
  H  H573  1  0.998800  0.308200  0.262000  1.0
  H  H574  1  0.808200  0.501200  0.762000  1.0
  H  H575  1  0.001200  0.691800  0.262000  1.0
  H  H576  1  0.501200  0.808200  0.238000  1.0
  H  H577  1  0.501200  0.808200  0.762000  1.0
  H  H578  1  0.691800  0.001200  0.262000  1.0
  H  H579  1  0.308200  0.998800  0.262000  1.0
  H  H580  1  0.808200  0.501200  0.238000  1.0
  H  H581  1  0.001200  0.691800  0.738000  1.0
  H  H582  1  0.191800  0.498800  0.238000  1.0
  H  H583  1  0.998800  0.308200  0.738000  1.0
  H  H584  1  0.498800  0.191800  0.762000  1.0
  H  H585  1  0.612900  0.095200  0.452800  1.0
  H  H586  1  0.404800  0.112900  0.952800  1.0
  H  H587  1  0.595200  0.887100  0.952800  1.0
  H  H588  1  0.095200  0.612900  0.547200  1.0
  H  H589  1  0.112900  0.404800  0.047200  1.0
  H  H590  1  0.904800  0.387100  0.547200  1.0
  H  H591  1  0.887100  0.595200  0.047200  1.0
  H  H592  1  0.387100  0.904800  0.452800  1.0
  H  H593  1  0.387100  0.904800  0.547200  1.0
  H  H594  1  0.595200  0.887100  0.047200  1.0
  H  H595  1  0.404800  0.112900  0.047200  1.0
  H  H596  1  0.904800  0.387100  0.452800  1.0
  H  H597  1  0.887100  0.595200  0.952800  1.0
  H  H598  1  0.095200  0.612900  0.452800  1.0
  H  H599  1  0.112900  0.404800  0.952800  1.0
  H  H600  1  0.612900  0.095200  0.547200  1.0
  H  H601  1  0.706900  0.194200  0.348700  1.0
  H  H602  1  0.305800  0.206900  0.848700  1.0
  H  H603  1  0.694200  0.793100  0.848700  1.0
  H  H604  1  0.194200  0.706900  0.651300  1.0
  H  H605  1  0.206900  0.305800  0.151300  1.0
  H  H606  1  0.805800  0.293100  0.651300  1.0
  H  H607  1  0.793100  0.694200  0.151300  1.0
  H  H608  1  0.293100  0.805800  0.348700  1.0
  H  H609  1  0.293100  0.805800  0.651300  1.0
  H  H610  1  0.694200  0.793100  0.151300  1.0
  H  H611  1  0.305800  0.206900  0.151300  1.0
  H  H612  1  0.805800  0.293100  0.348700  1.0
  H  H613  1  0.793100  0.694200  0.848700  1.0
  H  H614  1  0.194200  0.706900  0.348700  1.0
  H  H615  1  0.206900  0.305800  0.848700  1.0
  H  H616  1  0.706900  0.194200  0.651300  1.0
  H  H617  1  0.530200  0.077200  0.381400  1.0
  H  H618  1  0.422800  0.030200  0.881400  1.0
  H  H619  1  0.577200  0.969800  0.881400  1.0
  H  H620  1  0.077200  0.530200  0.618600  1.0
  H  H621  1  0.030200  0.422800  0.118600  1.0
  H  H622  1  0.922800  0.469800  0.618600  1.0
  H  H623  1  0.969800  0.577200  0.118600  1.0
  H  H624  1  0.469800  0.922800  0.381400  1.0
  H  H625  1  0.469800  0.922800  0.618600  1.0
  H  H626  1  0.577200  0.969800  0.118600  1.0
  H  H627  1  0.422800  0.030200  0.118600  1.0
  H  H628  1  0.922800  0.469800  0.381400  1.0
  H  H629  1  0.969800  0.577200  0.881400  1.0
  H  H630  1  0.077200  0.530200  0.381400  1.0
  H  H631  1  0.030200  0.422800  0.881400  1.0
  H  H632  1  0.530200  0.077200  0.618600  1.0
  H  H633  1  0.551900  0.003500  0.363300  1.0
  H  H634  1  0.496500  0.051900  0.863300  1.0
  H  H635  1  0.503500  0.948100  0.863300  1.0
  H  H636  1  0.003500  0.551900  0.636700  1.0
  H  H637  1  0.051900  0.496500  0.136700  1.0
  H  H638  1  0.996500  0.448100  0.636700  1.0
  H  H639  1  0.948100  0.503500  0.136700  1.0
  H  H640  1  0.448100  0.996500  0.363300  1.0
  H  H641  1  0.448100  0.996500  0.636700  1.0
  H  H642  1  0.503500  0.948100  0.136700  1.0
  H  H643  1  0.496500  0.051900  0.136700  1.0
  H  H644  1  0.996500  0.448100  0.363300  1.0
  H  H645  1  0.948100  0.503500  0.863300  1.0
  H  H646  1  0.003500  0.551900  0.363300  1.0
  H  H647  1  0.051900  0.496500  0.863300  1.0
  H  H648  1  0.551900  0.003500  0.636700  1.0
  H  H649  1  0.603200  0.996400  0.320900  1.0
  H  H650  1  0.503600  0.103200  0.820900  1.0
  H  H651  1  0.496400  0.896800  0.820900  1.0
  H  H652  1  0.996400  0.603200  0.679100  1.0
  H  H653  1  0.103200  0.503600  0.179100  1.0
  H  H654  1  0.003600  0.396800  0.679100  1.0
  H  H655  1  0.896800  0.496400  0.179100  1.0
  H  H656  1  0.396800  0.003600  0.320900  1.0
  H  H657  1  0.396800  0.003600  0.679100  1.0
  H  H658  1  0.496400  0.896800  0.179100  1.0
  H  H659  1  0.503600  0.103200  0.179100  1.0
  H  H660  1  0.003600  0.396800  0.320900  1.0
  H  H661  1  0.896800  0.496400  0.820900  1.0
  H  H662  1  0.996400  0.603200  0.320900  1.0
  H  H663  1  0.103200  0.503600  0.820900  1.0
  H  H664  1  0.603200  0.996400  0.679100  1.0
  H  H665  1  0.632900  0.063100  0.296600  1.0
  H  H666  1  0.436900  0.132900  0.796600  1.0
  H  H667  1  0.563100  0.867100  0.796600  1.0
  H  H668  1  0.063100  0.632900  0.703400  1.0
  H  H669  1  0.132900  0.436900  0.203400  1.0
  H  H670  1  0.936900  0.367100  0.703400  1.0
  H  H671  1  0.867100  0.563100  0.203400  1.0
  H  H672  1  0.367100  0.936900  0.296600  1.0
  H  H673  1  0.367100  0.936900  0.703400  1.0
  H  H674  1  0.563100  0.867100  0.203400  1.0
  H  H675  1  0.436900  0.132900  0.203400  1.0
  H  H676  1  0.936900  0.367100  0.296600  1.0
  H  H677  1  0.867100  0.563100  0.796600  1.0
  H  H678  1  0.063100  0.632900  0.296600  1.0
  H  H679  1  0.132900  0.436900  0.796600  1.0
  H  H680  1  0.632900  0.063100  0.703400  1.0
  H  H681  1  0.611300  0.136900  0.314600  1.0
  H  H682  1  0.363100  0.111300  0.814600  1.0
  H  H683  1  0.636900  0.888700  0.814600  1.0
  H  H684  1  0.136900  0.611300  0.685400  1.0
  H  H685  1  0.111300  0.363100  0.185400  1.0
  H  H686  1  0.863100  0.388700  0.685400  1.0
  H  H687  1  0.888700  0.636900  0.185400  1.0
  H  H688  1  0.388700  0.863100  0.314600  1.0
  H  H689  1  0.388700  0.863100  0.685400  1.0
  H  H690  1  0.636900  0.888700  0.185400  1.0
  H  H691  1  0.363100  0.111300  0.185400  1.0
  H  H692  1  0.863100  0.388700  0.314600  1.0
  H  H693  1  0.888700  0.636900  0.814600  1.0
  H  H694  1  0.136900  0.611300  0.314600  1.0
  H  H695  1  0.111300  0.363100  0.814600  1.0
  H  H696  1  0.611300  0.136900  0.685400  1.0
  H  H697  1  0.505500  0.376800  0.439000  1.0
  H  H698  1  0.123200  0.005500  0.939000  1.0
  H  H699  1  0.876800  0.994500  0.939000  1.0
  H  H700  1  0.376800  0.505500  0.561000  1.0
  H  H701  1  0.005500  0.123200  0.061000  1.0
  H  H702  1  0.623200  0.494500  0.561000  1.0
  H  H703  1  0.994500  0.876800  0.061000  1.0
  H  H704  1  0.494500  0.623200  0.439000  1.0
  H  H705  1  0.494500  0.623200  0.561000  1.0
  H  H706  1  0.876800  0.994500  0.061000  1.0
  H  H707  1  0.123200  0.005500  0.061000  1.0
  H  H708  1  0.623200  0.494500  0.439000  1.0
  H  H709  1  0.994500  0.876800  0.939000  1.0
  H  H710  1  0.376800  0.505500  0.439000  1.0
  H  H711  1  0.005500  0.123200  0.939000  1.0
  H  H712  1  0.505500  0.376800  0.561000  1.0
  H  H713  1  0.476600  0.331100  0.432400  1.0
  H  H714  1  0.168900  0.976600  0.932400  1.0
  H  H715  1  0.831100  0.023400  0.932400  1.0
  H  H716  1  0.331100  0.476600  0.567600  1.0
  H  H717  1  0.976600  0.168900  0.067600  1.0
  H  H718  1  0.668900  0.523400  0.567600  1.0
  H  H719  1  0.023400  0.831100  0.067600  1.0
  H  H720  1  0.523400  0.668900  0.432400  1.0
  H  H721  1  0.523400  0.668900  0.567600  1.0
  H  H722  1  0.831100  0.023400  0.067600  1.0
  H  H723  1  0.168900  0.976600  0.067600  1.0
  H  H724  1  0.668900  0.523400  0.432400  1.0
  H  H725  1  0.023400  0.831100  0.932400  1.0
  H  H726  1  0.331100  0.476600  0.432400  1.0
  H  H727  1  0.976600  0.168900  0.932400  1.0
  H  H728  1  0.476600  0.331100  0.567600  1.0
  H  H729  1  0.501600  0.357300  0.404400  1.0
  H  H730  1  0.142700  0.001600  0.904400  1.0
  H  H731  1  0.857300  0.998400  0.904400  1.0
  H  H732  1  0.357300  0.501600  0.595600  1.0
  H  H733  1  0.001600  0.142700  0.095600  1.0
  H  H734  1  0.642700  0.498400  0.595600  1.0
  H  H735  1  0.998400  0.857300  0.095600  1.0
  H  H736  1  0.498400  0.642700  0.404400  1.0
  H  H737  1  0.498400  0.642700  0.595600  1.0
  H  H738  1  0.857300  0.998400  0.095600  1.0
  H  H739  1  0.142700  0.001600  0.095600  1.0
  H  H740  1  0.642700  0.498400  0.404400  1.0
  H  H741  1  0.998400  0.857300  0.904400  1.0
  H  H742  1  0.357300  0.501600  0.404400  1.0
  H  H743  1  0.001600  0.142700  0.904400  1.0
  H  H744  1  0.501600  0.357300  0.595600  1.0
  C  C745  1  0.614000  0.005500  0.478000  1
  C  C746  1  0.494500  0.114000  0.978000  1
  C  C747  1  0.505500  0.886000  0.978000  1
  C  C748  1  0.005500  0.614000  0.522000  1
  C  C749  1  0.114000  0.494500  0.022000  1
  C  C750  1  0.994500  0.386000  0.522000  1
  C  C751  1  0.886000  0.505500  0.022000  1
  C  C752  1  0.386000  0.994500  0.478000  1
  C  C753  1  0.386000  0.994500  0.522000  1
  C  C754  1  0.505500  0.886000  0.022000  1
  C  C755  1  0.494500  0.114000  0.022000  1
  C  C756  1  0.994500  0.386000  0.478000  1
  C  C757  1  0.886000  0.505500  0.978000  1
  C  C758  1  0.005500  0.614000  0.478000  1
  C  C759  1  0.114000  0.494500  0.978000  1
  C  C760  1  0.614000  0.005500  0.522000  1
  C  C761  1  0.649200  0.021400  0.534300  1
  C  C762  1  0.478600  0.149200  0.034300  1
  C  C763  1  0.521400  0.850800  0.034300  1
  C  C764  1  0.021400  0.649200  0.465700  1
  C  C765  1  0.149200  0.478600  0.965700  1
  C  C766  1  0.978600  0.350800  0.465700  1
  C  C767  1  0.850800  0.521400  0.965700  1
  C  C768  1  0.350800  0.978600  0.534300  1
  C  C769  1  0.350800  0.978600  0.465700  1
  C  C770  1  0.521400  0.850800  0.965700  1
  C  C771  1  0.478600  0.149200  0.965700  1
  C  C772  1  0.978600  0.350800  0.534300  1
  C  C773  1  0.850800  0.521400  0.034300  1
  C  C774  1  0.021400  0.649200  0.534300  1
  C  C775  1  0.149200  0.478600  0.034300  1
  C  C776  1  0.649200  0.021400  0.465700  1
  C  C777  1  0.688600  0.044600  0.483000  1
  C  C778  1  0.455400  0.188600  0.983000  1
  C  C779  1  0.544600  0.811400  0.983000  1
  C  C780  1  0.044600  0.688600  0.517000  1
  C  C781  1  0.188600  0.455400  0.017000  1
  C  C782  1  0.955400  0.311400  0.517000  1
  C  C783  1  0.811400  0.544600  0.017000  1
  C  C784  1  0.311400  0.955400  0.483000  1
  C  C785  1  0.311400  0.955400  0.517000  1
  C  C786  1  0.544600  0.811400  0.017000  1
  C  C787  1  0.455400  0.188600  0.017000  1
  C  C788  1  0.955400  0.311400  0.483000  1
  C  C789  1  0.811400  0.544600  0.983000  1
  C  C790  1  0.044600  0.688600  0.483000  1
  C  C791  1  0.188600  0.455400  0.983000  1
  C  C792  1  0.688600  0.044600  0.517000  1
  C  C793  1  0.772600  0.158600  0.320200  1
  C  C794  1  0.341400  0.272600  0.820200  1
  C  C795  1  0.658600  0.727400  0.820200  1
  C  C796  1  0.158600  0.772600  0.679800  1
  C  C797  1  0.272600  0.341400  0.179800  1
  C  C798  1  0.841400  0.227400  0.679800  1
  C  C799  1  0.727400  0.658600  0.179800  1
  C  C800  1  0.227400  0.841400  0.320200  1
  C  C801  1  0.227400  0.841400  0.679800  1
  C  C802  1  0.658600  0.727400  0.179800  1
  C  C803  1  0.341400  0.272600  0.179800  1
  C  C804  1  0.841400  0.227400  0.320200  1
  C  C805  1  0.727400  0.658600  0.820200  1
  C  C806  1  0.158600  0.772600  0.320200  1
  C  C807  1  0.272600  0.341400  0.820200  1
  C  C808  1  0.772600  0.158600  0.679800  1
  C  C809  1  0.837800  0.200000  0.349700  1
  C  C810  1  0.300000  0.337800  0.849700  1
  C  C811  1  0.700000  0.662200  0.849700  1
  C  C812  1  0.200000  0.837800  0.650300  1
  C  C813  1  0.337800  0.300000  0.150300  1
  C  C814  1  0.800000  0.162200  0.650300  1
  C  C815  1  0.662200  0.700000  0.150300  1
  C  C816  1  0.162200  0.800000  0.349700  1
  C  C817  1  0.162200  0.800000  0.650300  1
  C  C818  1  0.700000  0.662200  0.150300  1
  C  C819  1  0.300000  0.337800  0.150300  1
  C  C820  1  0.800000  0.162200  0.349700  1
  C  C821  1  0.662200  0.700000  0.849700  1
  C  C822  1  0.200000  0.837800  0.349700  1
  C  C823  1  0.337800  0.300000  0.849700  1
  C  C824  1  0.837800  0.200000  0.650300  1
  C  C825  1  0.809500  0.231600  0.297400  1
  C  C826  1  0.268400  0.309500  0.797400  1
  C  C827  1  0.731600  0.690500  0.797400  1
  C  C828  1  0.231600  0.809500  0.702600  1
  C  C829  1  0.309500  0.268400  0.202600  1
  C  C830  1  0.768400  0.190500  0.702600  1
  C  C831  1  0.690500  0.731600  0.202600  1
  C  C832  1  0.190500  0.768400  0.297400  1
  C  C833  1  0.190500  0.768400  0.702600  1
  C  C834  1  0.731600  0.690500  0.202600  1
  C  C835  1  0.268400  0.309500  0.202600  1
  C  C836  1  0.768400  0.190500  0.297400  1
  C  C837  1  0.690500  0.731600  0.797400  1
  C  C838  1  0.231600  0.809500  0.297400  1
  C  C839  1  0.309500  0.268400  0.797400  1
  C  C840  1  0.809500  0.231600  0.702600  1
  C  C841  1  0.430600  0.430600  0.500000  1.0
  C  C842  1  0.069400  0.930600  0.000000  1.0
  C  C843  1  0.930600  0.069400  0.000000  1.0
  C  C844  1  0.569400  0.569400  0.500000  1.0
  C  C845  1  0.500000  0.500000  0.431200  1.0
  C  C846  1  0.000000  0.000000  0.931200  1.0
  C  C847  1  0.500000  0.500000  0.568800  1.0
  C  C848  1  0.000000  0.000000  0.068800  1.0
  C  C849  1  0.617400  0.088400  0.500000  1.0
  C  C850  1  0.411600  0.117400  0.000000  1.0
  C  C851  1  0.588400  0.882600  0.000000  1.0
  C  C852  1  0.088400  0.617400  0.500000  1.0
  C  C853  1  0.117400  0.411600  0.000000  1.0
  C  C854  1  0.911600  0.382600  0.500000  1.0
  C  C855  1  0.882600  0.588400  0.000000  1.0
  C  C856  1  0.382600  0.911600  0.500000  1.0
  C  C857  1  0.578670  0.177560  0.500000  1.0
  C  C858  1  0.322440  0.078670  0.000000  1.0
  C  C859  1  0.677560  0.921330  0.000000  1.0
  C  C860  1  0.177560  0.578670  0.500000  1.0
  C  C861  1  0.078670  0.322440  0.000000  1.0
  C  C862  1  0.822440  0.421330  0.500000  1.0
  C  C863  1  0.921330  0.677560  0.000000  1.0
  C  C864  1  0.421330  0.822440  0.500000  1.0
  C  C865  1  0.641600  0.039100  0.500000  1.0
  C  C866  1  0.460900  0.141600  0.000000  1.0
  C  C867  1  0.539100  0.858400  0.000000  1.0
  C  C868  1  0.039100  0.641600  0.500000  1.0
  C  C869  1  0.141600  0.460900  0.000000  1.0
  C  C870  1  0.960900  0.358400  0.500000  1.0
  C  C871  1  0.858400  0.539100  0.000000  1.0
  C  C872  1  0.358400  0.960900  0.500000  1.0
  C  C873  1  0.701970  0.298030  0.379450  1.0
  C  C874  1  0.201970  0.201970  0.879450  1.0
  C  C875  1  0.798030  0.798030  0.879450  1.0
  C  C876  1  0.298030  0.701970  0.620550  1.0
  C  C877  1  0.201970  0.201970  0.120550  1.0
  C  C878  1  0.701970  0.298030  0.620550  1.0
  C  C879  1  0.798030  0.798030  0.120550  1.0
  C  C880  1  0.298030  0.701970  0.379450  1.0
  C  C881  1  0.761650  0.238350  0.345890  1.0
  C  C882  1  0.261650  0.261650  0.845890  1.0
  C  C883  1  0.738350  0.738350  0.845890  1.0
  C  C884  1  0.238350  0.761650  0.654110  1.0
  C  C885  1  0.261650  0.261650  0.154110  1.0
  C  C886  1  0.761650  0.238350  0.654110  1.0
  C  C887  1  0.738350  0.738350  0.154110  1.0
  C  C888  1  0.238350  0.761650  0.345890  1.0
  C  C889  1  0.794900  0.205100  0.327800  1.0
  C  C890  1  0.294900  0.294900  0.827800  1.0
  C  C891  1  0.705100  0.705100  0.827800  1.0
  C  C892  1  0.205100  0.794900  0.672200  1.0
  C  C893  1  0.294900  0.294900  0.172200  1.0
  C  C894  1  0.794900  0.205100  0.672200  1.0
  C  C895  1  0.705100  0.705100  0.172200  1.0
  C  C896  1  0.205100  0.794900  0.327800  1.0
  C  C897  1  0.407700  0.350700  0.500000  1.0
  C  C898  1  0.149300  0.907700  0.000000  1.0
  C  C899  1  0.850700  0.092300  0.000000  1.0
  C  C900  1  0.350700  0.407700  0.500000  1.0
  C  C901  1  0.907700  0.149300  0.000000  1.0
  C  C902  1  0.649300  0.592300  0.500000  1.0
  C  C903  1  0.092300  0.850700  0.000000  1.0
  C  C904  1  0.592300  0.649300  0.500000  1.0
  C  C905  1  0.441300  0.384100  0.500000  1.0
  C  C906  1  0.115900  0.941300  0.000000  1.0
  C  C907  1  0.884100  0.058700  0.000000  1.0
  C  C908  1  0.384100  0.441300  0.500000  1.0
  C  C909  1  0.941300  0.115900  0.000000  1.0
  C  C910  1  0.615900  0.558700  0.500000  1.0
  C  C911  1  0.058700  0.884100  0.000000  1.0
  C  C912  1  0.558700  0.615900  0.500000  1.0
  C  C913  1  0.526600  0.473400  0.381300  1.0
  C  C914  1  0.026600  0.026600  0.881300  1.0
  C  C915  1  0.973400  0.973400  0.881300  1.0
  C  C916  1  0.473400  0.526600  0.618700  1.0
  C  C917  1  0.026600  0.026600  0.118700  1.0
  C  C918  1  0.526600  0.473400  0.618700  1.0
  C  C919  1  0.973400  0.973400  0.118700  1.0
  C  C920  1  0.473400  0.526600  0.381300  1.0
  C  C921  1  0.527300  0.472700  0.413400  1.0
  C  C922  1  0.027300  0.027300  0.913400  1.0
  C  C923  1  0.972700  0.972700  0.913400  1.0
  C  C924  1  0.472700  0.527300  0.586600  1.0
  C  C925  1  0.027300  0.027300  0.086600  1.0
  C  C926  1  0.527300  0.472700  0.586600  1.0
  C  C927  1  0.972700  0.972700  0.086600  1.0
  C  C928  1  0.472700  0.527300  0.413400  1.0
  C  C929  1  0.528400  0.471600  0.183900  1.0
  C  C930  1  0.028400  0.028400  0.683900  1.0
  C  C931  1  0.971600  0.971600  0.683900  1.0
  C  C932  1  0.471600  0.528400  0.816100  1.0
  C  C933  1  0.028400  0.028400  0.316100  1.0
  C  C934  1  0.528400  0.471600  0.816100  1.0
  C  C935  1  0.971600  0.971600  0.316100  1.0
  C  C936  1  0.471600  0.528400  0.183900  1.0
  C  C937  1  0.168900  0.168900  0.467200  1.0
  C  C938  1  0.331100  0.668900  0.967200  1.0
  C  C939  1  0.668900  0.331100  0.967200  1.0
  C  C940  1  0.168900  0.168900  0.532800  1.0
  C  C941  1  0.668900  0.331100  0.032800  1.0
  C  C942  1  0.831100  0.831100  0.532800  1.0
  C  C943  1  0.331100  0.668900  0.032800  1.0
  C  C944  1  0.831100  0.831100  0.467200  1.0
  C  C945  1  0.345960  0.202090  0.433460  1.0
  C  C946  1  0.297910  0.845960  0.933460  1.0
  C  C947  1  0.702090  0.154040  0.933460  1.0
  C  C948  1  0.202090  0.345960  0.566540  1.0
  C  C949  1  0.845960  0.297910  0.066540  1.0
  C  C950  1  0.797910  0.654040  0.566540  1.0
  C  C951  1  0.154040  0.702090  0.066540  1.0
  C  C952  1  0.654040  0.797910  0.433460  1.0
  C  C953  1  0.654040  0.797910  0.566540  1.0
  C  C954  1  0.702090  0.154040  0.066540  1.0
  C  C955  1  0.297910  0.845960  0.066540  1.0
  C  C956  1  0.797910  0.654040  0.433460  1.0
  C  C957  1  0.154040  0.702090  0.933460  1.0
  C  C958  1  0.202090  0.345960  0.433460  1.0
  C  C959  1  0.845960  0.297910  0.933460  1.0
  C  C960  1  0.345960  0.202090  0.566540  1.0
  C  C961  1  0.325290  0.165360  0.419030  1.0
  C  C962  1  0.334640  0.825290  0.919030  1.0
  C  C963  1  0.665360  0.174710  0.919030  1.0
  C  C964  1  0.165360  0.325290  0.580970  1.0
  C  C965  1  0.825290  0.334640  0.080970  1.0
  C  C966  1  0.834640  0.674710  0.580970  1.0
  C  C967  1  0.174710  0.665360  0.080970  1.0
  C  C968  1  0.674710  0.834640  0.419030  1.0
  C  C969  1  0.674710  0.834640  0.580970  1.0
  C  C970  1  0.665360  0.174710  0.080970  1.0
  C  C971  1  0.334640  0.825290  0.080970  1.0
  C  C972  1  0.834640  0.674710  0.419030  1.0
  C  C973  1  0.174710  0.665360  0.919030  1.0
  C  C974  1  0.165360  0.325290  0.419030  1.0
  C  C975  1  0.825290  0.334640  0.919030  1.0
  C  C976  1  0.325290  0.165360  0.580970  1.0
  C  C977  1  0.349610  0.138260  0.396660  1.0
  C  C978  1  0.361740  0.849610  0.896660  1.0
  C  C979  1  0.638260  0.150390  0.896660  1.0
  C  C980  1  0.138260  0.349610  0.603340  1.0
  C  C981  1  0.849610  0.361740  0.103340  1.0
  C  C982  1  0.861740  0.650390  0.603340  1.0
  C  C983  1  0.150390  0.638260  0.103340  1.0
  C  C984  1  0.650390  0.861740  0.396660  1.0
  C  C985  1  0.650390  0.861740  0.603340  1.0
  C  C986  1  0.638260  0.150390  0.103340  1.0
  C  C987  1  0.361740  0.849610  0.103340  1.0
  C  C988  1  0.861740  0.650390  0.396660  1.0
  C  C989  1  0.150390  0.638260  0.896660  1.0
  C  C990  1  0.138260  0.349610  0.396660  1.0
  C  C991  1  0.849610  0.361740  0.896660  1.0
  C  C992  1  0.349610  0.138260  0.603340  1.0
  C  C993  1  0.396600  0.149400  0.391030  1.0
  C  C994  1  0.350600  0.896600  0.891030  1.0
  C  C995  1  0.649400  0.103400  0.891030  1.0
  C  C996  1  0.149400  0.396600  0.608970  1.0
  C  C997  1  0.896600  0.350600  0.108970  1.0
  C  C998  1  0.850600  0.603400  0.608970  1.0
  C  C999  1  0.103400  0.649400  0.108970  1.0
  C  C1000  1  0.603400  0.850600  0.391030  1.0
  C  C1001  1  0.603400  0.850600  0.608970  1.0
  C  C1002  1  0.649400  0.103400  0.108970  1.0
  C  C1003  1  0.350600  0.896600  0.108970  1.0
  C  C1004  1  0.850600  0.603400  0.391030  1.0
  C  C1005  1  0.103400  0.649400  0.891030  1.0
  C  C1006  1  0.149400  0.396600  0.391030  1.0
  C  C1007  1  0.896600  0.350600  0.891030  1.0
  C  C1008  1  0.396600  0.149400  0.608970  1.0
  C  C1009  1  0.417000  0.187590  0.405620  1.0
  C  C1010  1  0.312410  0.917000  0.905620  1.0
  C  C1011  1  0.687590  0.083000  0.905620  1.0
  C  C1012  1  0.187590  0.417000  0.594380  1.0
  C  C1013  1  0.917000  0.312410  0.094380  1.0
  C  C1014  1  0.812410  0.583000  0.594380  1.0
  C  C1015  1  0.083000  0.687590  0.094380  1.0
  C  C1016  1  0.583000  0.812410  0.405620  1.0
  C  C1017  1  0.583000  0.812410  0.594380  1.0
  C  C1018  1  0.687590  0.083000  0.094380  1.0
  C  C1019  1  0.312410  0.917000  0.094380  1.0
  C  C1020  1  0.812410  0.583000  0.405620  1.0
  C  C1021  1  0.083000  0.687590  0.905620  1.0
  C  C1022  1  0.187590  0.417000  0.405620  1.0
  C  C1023  1  0.917000  0.312410  0.905620  1.0
  C  C1024  1  0.417000  0.187590  0.594380  1.0
  C  C1025  1  0.392070  0.214650  0.426680  1.0
  C  C1026  1  0.285350  0.892070  0.926680  1.0
  C  C1027  1  0.714650  0.107930  0.926680  1.0
  C  C1028  1  0.214650  0.392070  0.573320  1.0
  C  C1029  1  0.892070  0.285350  0.073320  1.0
  C  C1030  1  0.785350  0.607930  0.573320  1.0
  C  C1031  1  0.107930  0.714650  0.073320  1.0
  C  C1032  1  0.607930  0.785350  0.426680  1.0
  C  C1033  1  0.607930  0.785350  0.573320  1.0
  C  C1034  1  0.714650  0.107930  0.073320  1.0
  C  C1035  1  0.285350  0.892070  0.073320  1.0
  C  C1036  1  0.785350  0.607930  0.426680  1.0
  C  C1037  1  0.107930  0.714650  0.926680  1.0
  C  C1038  1  0.214650  0.392070  0.426680  1.0
  C  C1039  1  0.892070  0.285350  0.926680  1.0
  C  C1040  1  0.392070  0.214650  0.573320  1.0
  C  C1041  1  0.318970  0.230510  0.458700  1.0
  C  C1042  1  0.269490  0.818970  0.958700  1.0
  C  C1043  1  0.730510  0.181030  0.958700  1.0
  C  C1044  1  0.230510  0.318970  0.541300  1.0
  C  C1045  1  0.818970  0.269490  0.041300  1.0
  C  C1046  1  0.769490  0.681030  0.541300  1.0
  C  C1047  1  0.181030  0.730510  0.041300  1.0
  C  C1048  1  0.681030  0.769490  0.458700  1.0
  C  C1049  1  0.681030  0.769490  0.541300  1.0
  C  C1050  1  0.730510  0.181030  0.041300  1.0
  C  C1051  1  0.269490  0.818970  0.041300  1.0
  C  C1052  1  0.769490  0.681030  0.458700  1.0
  C  C1053  1  0.181030  0.730510  0.958700  1.0
  C  C1054  1  0.230510  0.318970  0.458700  1.0
  C  C1055  1  0.818970  0.269490  0.958700  1.0
  C  C1056  1  0.318970  0.230510  0.541300  1.0
  C  C1057  1  0.468320  0.198840  0.399860  1.0
  C  C1058  1  0.301160  0.968320  0.899860  1.0
  C  C1059  1  0.698840  0.031680  0.899860  1.0
  C  C1060  1  0.198840  0.468320  0.600140  1.0
  C  C1061  1  0.968320  0.301160  0.100140  1.0
  C  C1062  1  0.801160  0.531680  0.600140  1.0
  C  C1063  1  0.031680  0.698840  0.100140  1.0
  C  C1064  1  0.531680  0.801160  0.399860  1.0
  C  C1065  1  0.531680  0.801160  0.600140  1.0
  C  C1066  1  0.698840  0.031680  0.100140  1.0
  C  C1067  1  0.301160  0.968320  0.100140  1.0
  C  C1068  1  0.801160  0.531680  0.399860  1.0
  C  C1069  1  0.031680  0.698840  0.899860  1.0
  C  C1070  1  0.198840  0.468320  0.399860  1.0
  C  C1071  1  0.968320  0.301160  0.899860  1.0
  C  C1072  1  0.468320  0.198840  0.600140  1.0
  C  C1073  1  0.325900  0.098300  0.379800  1.0
  C  C1074  1  0.401700  0.825900  0.879800  1.0
  C  C1075  1  0.598300  0.174100  0.879800  1.0
  C  C1076  1  0.098300  0.325900  0.620200  1.0
  C  C1077  1  0.825900  0.401700  0.120200  1.0
  C  C1078  1  0.901700  0.674100  0.620200  1.0
  C  C1079  1  0.174100  0.598300  0.120200  1.0
  C  C1080  1  0.674100  0.901700  0.379800  1.0
  C  C1081  1  0.674100  0.901700  0.620200  1.0
  C  C1082  1  0.598300  0.174100  0.120200  1.0
  C  C1083  1  0.401700  0.825900  0.120200  1.0
  C  C1084  1  0.901700  0.674100  0.379800  1.0
  C  C1085  1  0.174100  0.598300  0.879800  1.0
  C  C1086  1  0.098300  0.325900  0.379800  1.0
  C  C1087  1  0.825900  0.401700  0.879800  1.0
  C  C1088  1  0.325900  0.098300  0.620200  1.0
  C  C1089  1  0.355400  0.068000  0.361900  1.0
  C  C1090  1  0.432000  0.855400  0.861900  1.0
  C  C1091  1  0.568000  0.144600  0.861900  1.0
  C  C1092  1  0.068000  0.355400  0.638100  1.0
  C  C1093  1  0.855400  0.432000  0.138100  1.0
  C  C1094  1  0.932000  0.644600  0.638100  1.0
  C  C1095  1  0.144600  0.568000  0.138100  1.0
  C  C1096  1  0.644600  0.932000  0.361900  1.0
  C  C1097  1  0.644600  0.932000  0.638100  1.0
  C  C1098  1  0.568000  0.144600  0.138100  1.0
  C  C1099  1  0.432000  0.855400  0.138100  1.0
  C  C1100  1  0.932000  0.644600  0.361900  1.0
  C  C1101  1  0.144600  0.568000  0.861900  1.0
  C  C1102  1  0.068000  0.355400  0.361900  1.0
  C  C1103  1  0.855400  0.432000  0.861900  1.0
  C  C1104  1  0.355400  0.068000  0.638100  1.0
  C  C1105  1  0.296500  0.070800  0.401700  1.0
  C  C1106  1  0.429200  0.796500  0.901700  1.0
  C  C1107  1  0.570800  0.203500  0.901700  1.0
  C  C1108  1  0.070800  0.296500  0.598300  1.0
  C  C1109  1  0.796500  0.429200  0.098300  1.0
  C  C1110  1  0.929200  0.703500  0.598300  1.0
  C  C1111  1  0.203500  0.570800  0.098300  1.0
  C  C1112  1  0.703500  0.929200  0.401700  1.0
  C  C1113  1  0.703500  0.929200  0.598300  1.0
  C  C1114  1  0.570800  0.203500  0.098300  1.0
  C  C1115  1  0.429200  0.796500  0.098300  1.0
  C  C1116  1  0.929200  0.703500  0.401700  1.0
  C  C1117  1  0.203500  0.570800  0.901700  1.0
  C  C1118  1  0.070800  0.296500  0.401700  1.0
  C  C1119  1  0.796500  0.429200  0.901700  1.0
  C  C1120  1  0.296500  0.070800  0.598300  1.0
  C  C1121  1  0.292200  0.119200  0.357200  1.0
  C  C1122  1  0.380800  0.792200  0.857200  1.0
  C  C1123  1  0.619200  0.207800  0.857200  1.0
  C  C1124  1  0.119200  0.292200  0.642800  1.0
  C  C1125  1  0.792200  0.380800  0.142800  1.0
  C  C1126  1  0.880800  0.707800  0.642800  1.0
  C  C1127  1  0.207800  0.619200  0.142800  1.0
  C  C1128  1  0.707800  0.880800  0.357200  1.0
  C  C1129  1  0.707800  0.880800  0.642800  1.0
  C  C1130  1  0.619200  0.207800  0.142800  1.0
  C  C1131  1  0.380800  0.792200  0.142800  1.0
  C  C1132  1  0.880800  0.707800  0.357200  1.0
  C  C1133  1  0.207800  0.619200  0.857200  1.0
  C  C1134  1  0.119200  0.292200  0.357200  1.0
  C  C1135  1  0.792200  0.380800  0.857200  1.0
  C  C1136  1  0.292200  0.119200  0.642800  1.0
  C  C1137  1  0.519020  0.286660  0.309390  1.0
  C  C1138  1  0.213340  0.019020  0.809390  1.0
  C  C1139  1  0.786660  0.980980  0.809390  1.0
  C  C1140  1  0.286660  0.519020  0.690610  1.0
  C  C1141  1  0.019020  0.213340  0.190610  1.0
  C  C1142  1  0.713340  0.480980  0.690610  1.0
  C  C1143  1  0.980980  0.786660  0.190610  1.0
  C  C1144  1  0.480980  0.713340  0.309390  1.0
  C  C1145  1  0.480980  0.713340  0.690610  1.0
  C  C1146  1  0.786660  0.980980  0.190610  1.0
  C  C1147  1  0.213340  0.019020  0.190610  1.0
  C  C1148  1  0.713340  0.480980  0.309390  1.0
  C  C1149  1  0.980980  0.786660  0.809390  1.0
  C  C1150  1  0.286660  0.519020  0.309390  1.0
  C  C1151  1  0.019020  0.213340  0.809390  1.0
  C  C1152  1  0.519020  0.286660  0.690610  1.0
  C  C1153  1  0.514030  0.261980  0.281080  1.0
  C  C1154  1  0.238020  0.014030  0.781080  1.0
  C  C1155  1  0.761980  0.985970  0.781080  1.0
  C  C1156  1  0.261980  0.514030  0.718920  1.0
  C  C1157  1  0.014030  0.238020  0.218920  1.0
  C  C1158  1  0.738020  0.485970  0.718920  1.0
  C  C1159  1  0.985970  0.761980  0.218920  1.0
  C  C1160  1  0.485970  0.738020  0.281080  1.0
  C  C1161  1  0.485970  0.738020  0.718920  1.0
  C  C1162  1  0.761980  0.985970  0.218920  1.0
  C  C1163  1  0.238020  0.014030  0.218920  1.0
  C  C1164  1  0.738020  0.485970  0.281080  1.0
  C  C1165  1  0.985970  0.761980  0.781080  1.0
  C  C1166  1  0.261980  0.514030  0.281080  1.0
  C  C1167  1  0.014030  0.238020  0.781080  1.0
  C  C1168  1  0.514030  0.261980  0.718920  1.0
  C  C1169  1  0.503690  0.284750  0.252520  1.0
  C  C1170  1  0.215250  0.003690  0.752520  1.0
  C  C1171  1  0.784750  0.996310  0.752520  1.0
  C  C1172  1  0.284750  0.503690  0.747480  1.0
  C  C1173  1  0.003690  0.215250  0.247480  1.0
  C  C1174  1  0.715250  0.496310  0.747480  1.0
  C  C1175  1  0.996310  0.784750  0.247480  1.0
  C  C1176  1  0.496310  0.715250  0.252520  1.0
  C  C1177  1  0.496310  0.715250  0.747480  1.0
  C  C1178  1  0.784750  0.996310  0.247480  1.0
  C  C1179  1  0.215250  0.003690  0.247480  1.0
  C  C1180  1  0.715250  0.496310  0.252520  1.0
  C  C1181  1  0.996310  0.784750  0.752520  1.0
  C  C1182  1  0.284750  0.503690  0.252520  1.0
  C  C1183  1  0.003690  0.215250  0.752520  1.0
  C  C1184  1  0.503690  0.284750  0.747480  1.0
  C  C1185  1  0.500130  0.334040  0.253540  1.0
  C  C1186  1  0.165960  0.000130  0.753540  1.0
  C  C1187  1  0.834040  0.999870  0.753540  1.0
  C  C1188  1  0.334040  0.500130  0.746460  1.0
  C  C1189  1  0.000130  0.165960  0.246460  1.0
  C  C1190  1  0.665960  0.499870  0.746460  1.0
  C  C1191  1  0.999870  0.834040  0.246460  1.0
  C  C1192  1  0.499870  0.665960  0.253540  1.0
  C  C1193  1  0.499870  0.665960  0.746460  1.0
  C  C1194  1  0.834040  0.999870  0.246460  1.0
  C  C1195  1  0.165960  0.000130  0.246460  1.0
  C  C1196  1  0.665960  0.499870  0.253540  1.0
  C  C1197  1  0.999870  0.834040  0.753540  1.0
  C  C1198  1  0.334040  0.500130  0.253540  1.0
  C  C1199  1  0.000130  0.165960  0.753540  1.0
  C  C1200  1  0.500130  0.334040  0.746460  1.0
  C  C1201  1  0.504600  0.359210  0.281490  1.0
  C  C1202  1  0.140790  0.004600  0.781490  1.0
  C  C1203  1  0.859210  0.995400  0.781490  1.0
  C  C1204  1  0.359210  0.504600  0.718510  1.0
  C  C1205  1  0.004600  0.140790  0.218510  1.0
  C  C1206  1  0.640790  0.495400  0.718510  1.0
  C  C1207  1  0.995400  0.859210  0.218510  1.0
  C  C1208  1  0.495400  0.640790  0.281490  1.0
  C  C1209  1  0.495400  0.640790  0.718510  1.0
  C  C1210  1  0.859210  0.995400  0.218510  1.0
  C  C1211  1  0.140790  0.004600  0.218510  1.0
  C  C1212  1  0.640790  0.495400  0.281490  1.0
  C  C1213  1  0.995400  0.859210  0.781490  1.0
  C  C1214  1  0.359210  0.504600  0.281490  1.0
  C  C1215  1  0.004600  0.140790  0.781490  1.0
  C  C1216  1  0.504600  0.359210  0.718510  1.0
  C  C1217  1  0.514050  0.335630  0.309540  1.0
  C  C1218  1  0.164370  0.014050  0.809540  1.0
  C  C1219  1  0.835630  0.985950  0.809540  1.0
  C  C1220  1  0.335630  0.514050  0.690460  1.0
  C  C1221  1  0.014050  0.164370  0.190460  1.0
  C  C1222  1  0.664370  0.485950  0.690460  1.0
  C  C1223  1  0.985950  0.835630  0.190460  1.0
  C  C1224  1  0.485950  0.664370  0.309540  1.0
  C  C1225  1  0.485950  0.664370  0.690460  1.0
  C  C1226  1  0.835630  0.985950  0.190460  1.0
  C  C1227  1  0.164370  0.014050  0.190460  1.0
  C  C1228  1  0.664370  0.485950  0.309540  1.0
  C  C1229  1  0.985950  0.835630  0.809540  1.0
  C  C1230  1  0.335630  0.514050  0.309540  1.0
  C  C1231  1  0.014050  0.164370  0.809540  1.0
  C  C1232  1  0.514050  0.335630  0.690460  1.0
  C  C1233  1  0.531900  0.261570  0.339280  1.0
  C  C1234  1  0.238430  0.031900  0.839280  1.0
  C  C1235  1  0.761570  0.968100  0.839280  1.0
  C  C1236  1  0.261570  0.531900  0.660720  1.0
  C  C1237  1  0.031900  0.238430  0.160720  1.0
  C  C1238  1  0.738430  0.468100  0.660720  1.0
  C  C1239  1  0.968100  0.761570  0.160720  1.0
  C  C1240  1  0.468100  0.738430  0.339280  1.0
  C  C1241  1  0.468100  0.738430  0.660720  1.0
  C  C1242  1  0.761570  0.968100  0.160720  1.0
  C  C1243  1  0.238430  0.031900  0.160720  1.0
  C  C1244  1  0.738430  0.468100  0.339280  1.0
  C  C1245  1  0.968100  0.761570  0.839280  1.0
  C  C1246  1  0.261570  0.531900  0.339280  1.0
  C  C1247  1  0.031900  0.238430  0.839280  1.0
  C  C1248  1  0.531900  0.261570  0.660720  1.0
  C  C1249  1  0.501700  0.412230  0.281300  1.0
  C  C1250  1  0.087770  0.001700  0.781300  1.0
  C  C1251  1  0.912230  0.998300  0.781300  1.0
  C  C1252  1  0.412230  0.501700  0.718700  1.0
  C  C1253  1  0.001700  0.087770  0.218700  1.0
  C  C1254  1  0.587770  0.498300  0.718700  1.0
  C  C1255  1  0.998300  0.912230  0.218700  1.0
  C  C1256  1  0.498300  0.587770  0.281300  1.0
  C  C1257  1  0.498300  0.587770  0.718700  1.0
  C  C1258  1  0.912230  0.998300  0.218700  1.0
  C  C1259  1  0.087770  0.001700  0.218700  1.0
  C  C1260  1  0.587770  0.498300  0.281300  1.0
  C  C1261  1  0.998300  0.912230  0.781300  1.0
  C  C1262  1  0.412230  0.501700  0.281300  1.0
  C  C1263  1  0.001700  0.087770  0.781300  1.0
  C  C1264  1  0.501700  0.412230  0.718700  1.0
  C  C1265  1  0.497200  0.257480  0.222310  1.0
  C  C1266  1  0.242520  0.997200  0.722310  1.0
  C  C1267  1  0.757480  0.002800  0.722310  1.0
  C  C1268  1  0.257480  0.497200  0.777690  1.0
  C  C1269  1  0.997200  0.242520  0.277690  1.0
  C  C1270  1  0.742520  0.502800  0.777690  1.0
  C  C1271  1  0.002800  0.757480  0.277690  1.0
  C  C1272  1  0.502800  0.742520  0.222310  1.0
  C  C1273  1  0.502800  0.742520  0.777690  1.0
  C  C1274  1  0.757480  0.002800  0.277690  1.0
  C  C1275  1  0.242520  0.997200  0.277690  1.0
  C  C1276  1  0.742520  0.502800  0.222310  1.0
  C  C1277  1  0.002800  0.757480  0.722310  1.0
  C  C1278  1  0.257480  0.497200  0.222310  1.0
  C  C1279  1  0.997200  0.242520  0.722310  1.0
  C  C1280  1  0.497200  0.257480  0.777690  1.0
  C  C1281  1  0.523100  0.279400  0.195400  1.0
  C  C1282  1  0.220600  0.023100  0.695400  1.0
  C  C1283  1  0.779400  0.976900  0.695400  1.0
  C  C1284  1  0.279400  0.523100  0.804600  1.0
  C  C1285  1  0.023100  0.220600  0.304600  1.0
  C  C1286  1  0.720600  0.476900  0.804600  1.0
  C  C1287  1  0.976900  0.779400  0.304600  1.0
  C  C1288  1  0.476900  0.720600  0.195400  1.0
  C  C1289  1  0.476900  0.720600  0.804600  1.0
  C  C1290  1  0.779400  0.976900  0.304600  1.0
  C  C1291  1  0.220600  0.023100  0.304600  1.0
  C  C1292  1  0.720600  0.476900  0.195400  1.0
  C  C1293  1  0.976900  0.779400  0.695400  1.0
  C  C1294  1  0.279400  0.523100  0.195400  1.0
  C  C1295  1  0.023100  0.220600  0.695400  1.0
  C  C1296  1  0.523100  0.279400  0.804600  1.0
  C  C1297  1  0.449100  0.254700  0.215700  1.0
  C  C1298  1  0.245300  0.949100  0.715700  1.0
  C  C1299  1  0.754700  0.050900  0.715700  1.0
  C  C1300  1  0.254700  0.449100  0.784300  1.0
  C  C1301  1  0.949100  0.245300  0.284300  1.0
  C  C1302  1  0.745300  0.550900  0.784300  1.0
  C  C1303  1  0.050900  0.754700  0.284300  1.0
  C  C1304  1  0.550900  0.745300  0.215700  1.0
  C  C1305  1  0.550900  0.745300  0.784300  1.0
  C  C1306  1  0.754700  0.050900  0.284300  1.0
  C  C1307  1  0.245300  0.949100  0.284300  1.0
  C  C1308  1  0.745300  0.550900  0.215700  1.0
  C  C1309  1  0.050900  0.754700  0.715700  1.0
  C  C1310  1  0.254700  0.449100  0.215700  1.0
  C  C1311  1  0.949100  0.245300  0.715700  1.0
  C  C1312  1  0.449100  0.254700  0.784300  1.0
  C  C1313  1  0.515200  0.210000  0.222350  1.0
  C  C1314  1  0.290000  0.015200  0.722350  1.0
  C  C1315  1  0.710000  0.984800  0.722350  1.0
  C  C1316  1  0.210000  0.515200  0.777650  1.0
  C  C1317  1  0.015200  0.290000  0.277650  1.0
  C  C1318  1  0.790000  0.484800  0.777650  1.0
  C  C1319  1  0.984800  0.710000  0.277650  1.0
  C  C1320  1  0.484800  0.790000  0.222350  1.0
  C  C1321  1  0.484800  0.790000  0.777650  1.0
  C  C1322  1  0.710000  0.984800  0.277650  1.0
  C  C1323  1  0.290000  0.015200  0.277650  1.0
  C  C1324  1  0.790000  0.484800  0.222350  1.0
  C  C1325  1  0.984800  0.710000  0.722350  1.0
  C  C1326  1  0.210000  0.515200  0.222350  1.0
  C  C1327  1  0.015200  0.290000  0.722350  1.0
  C  C1328  1  0.515200  0.210000  0.777650  1.0
  C  C1329  1  0.573930  0.179180  0.440750  1.0
  C  C1330  1  0.320820  0.073930  0.940750  1.0
  C  C1331  1  0.679180  0.926070  0.940750  1.0
  C  C1332  1  0.179180  0.573930  0.559250  1.0
  C  C1333  1  0.073930  0.320820  0.059250  1.0
  C  C1334  1  0.820820  0.426070  0.559250  1.0
  C  C1335  1  0.926070  0.679180  0.059250  1.0
  C  C1336  1  0.426070  0.820820  0.440750  1.0
  C  C1337  1  0.426070  0.820820  0.559250  1.0
  C  C1338  1  0.679180  0.926070  0.059250  1.0
  C  C1339  1  0.320820  0.073930  0.059250  1.0
  C  C1340  1  0.820820  0.426070  0.440750  1.0
  C  C1341  1  0.926070  0.679180  0.940750  1.0
  C  C1342  1  0.179180  0.573930  0.440750  1.0
  C  C1343  1  0.073930  0.320820  0.940750  1.0
  C  C1344  1  0.573930  0.179180  0.559250  1.0
  C  C1345  1  0.586930  0.155880  0.471750  1.0
  C  C1346  1  0.344120  0.086930  0.971750  1.0
  C  C1347  1  0.655880  0.913070  0.971750  1.0
  C  C1348  1  0.155880  0.586930  0.528250  1.0
  C  C1349  1  0.086930  0.344120  0.028250  1.0
  C  C1350  1  0.844120  0.413070  0.528250  1.0
  C  C1351  1  0.913070  0.655880  0.028250  1.0
  C  C1352  1  0.413070  0.844120  0.471750  1.0
  C  C1353  1  0.413070  0.844120  0.528250  1.0
  C  C1354  1  0.655880  0.913070  0.028250  1.0
  C  C1355  1  0.344120  0.086930  0.028250  1.0
  C  C1356  1  0.844120  0.413070  0.471750  1.0
  C  C1357  1  0.913070  0.655880  0.971750  1.0
  C  C1358  1  0.155880  0.586930  0.471750  1.0
  C  C1359  1  0.086930  0.344120  0.971750  1.0
  C  C1360  1  0.586930  0.155880  0.528250  1.0
  C  C1361  1  0.606850  0.110380  0.471940  1.0
  C  C1362  1  0.389620  0.106850  0.971940  1.0
  C  C1363  1  0.610380  0.893150  0.971940  1.0
  C  C1364  1  0.110380  0.606850  0.528060  1.0
  C  C1365  1  0.106850  0.389620  0.028060  1.0
  C  C1366  1  0.889620  0.393150  0.528060  1.0
  C  C1367  1  0.893150  0.610380  0.028060  1.0
  C  C1368  1  0.393150  0.889620  0.471940  1.0
  C  C1369  1  0.393150  0.889620  0.528060  1.0
  C  C1370  1  0.610380  0.893150  0.028060  1.0
  C  C1371  1  0.389620  0.106850  0.028060  1.0
  C  C1372  1  0.889620  0.393150  0.471940  1.0
  C  C1373  1  0.893150  0.610380  0.971940  1.0
  C  C1374  1  0.110380  0.606850  0.471940  1.0
  C  C1375  1  0.106850  0.389620  0.971940  1.0
  C  C1376  1  0.606850  0.110380  0.528060  1.0
  C  C1377  1  0.686290  0.254200  0.370990  1.0
  C  C1378  1  0.245800  0.186290  0.870990  1.0
  C  C1379  1  0.754200  0.813710  0.870990  1.0
  C  C1380  1  0.254200  0.686290  0.629010  1.0
  C  C1381  1  0.186290  0.245800  0.129010  1.0
  C  C1382  1  0.745800  0.313710  0.629010  1.0
  C  C1383  1  0.813710  0.754200  0.129010  1.0
  C  C1384  1  0.313710  0.745800  0.370990  1.0
  C  C1385  1  0.313710  0.745800  0.629010  1.0
  C  C1386  1  0.754200  0.813710  0.129010  1.0
  C  C1387  1  0.245800  0.186290  0.129010  1.0
  C  C1388  1  0.745800  0.313710  0.370990  1.0
  C  C1389  1  0.813710  0.754200  0.870990  1.0
  C  C1390  1  0.254200  0.686290  0.370990  1.0
  C  C1391  1  0.186290  0.245800  0.870990  1.0
  C  C1392  1  0.686290  0.254200  0.629010  1.0
  C  C1393  1  0.717010  0.224130  0.354220  1.0
  C  C1394  1  0.275870  0.217010  0.854220  1.0
  C  C1395  1  0.724130  0.782990  0.854220  1.0
  C  C1396  1  0.224130  0.717010  0.645780  1.0
  C  C1397  1  0.217010  0.275870  0.145780  1.0
  C  C1398  1  0.775870  0.282990  0.645780  1.0
  C  C1399  1  0.782990  0.724130  0.145780  1.0
  C  C1400  1  0.282990  0.775870  0.354220  1.0
  C  C1401  1  0.282990  0.775870  0.645780  1.0
  C  C1402  1  0.724130  0.782990  0.145780  1.0
  C  C1403  1  0.275870  0.217010  0.145780  1.0
  C  C1404  1  0.775870  0.282990  0.354220  1.0
  C  C1405  1  0.782990  0.724130  0.854220  1.0
  C  C1406  1  0.224130  0.717010  0.354220  1.0
  C  C1407  1  0.217010  0.275870  0.854220  1.0
  C  C1408  1  0.717010  0.224130  0.645780  1.0
  C  C1409  1  0.550780  0.074410  0.364380  1.0
  C  C1410  1  0.425590  0.050780  0.864380  1.0
  C  C1411  1  0.574410  0.949220  0.864380  1.0
  C  C1412  1  0.074410  0.550780  0.635620  1.0
  C  C1413  1  0.050780  0.425590  0.135620  1.0
  C  C1414  1  0.925590  0.449220  0.635620  1.0
  C  C1415  1  0.949220  0.574410  0.135620  1.0
  C  C1416  1  0.449220  0.925590  0.364380  1.0
  C  C1417  1  0.449220  0.925590  0.635620  1.0
  C  C1418  1  0.574410  0.949220  0.135620  1.0
  C  C1419  1  0.425590  0.050780  0.135620  1.0
  C  C1420  1  0.925590  0.449220  0.364380  1.0
  C  C1421  1  0.949220  0.574410  0.864380  1.0
  C  C1422  1  0.074410  0.550780  0.364380  1.0
  C  C1423  1  0.050780  0.425590  0.864380  1.0
  C  C1424  1  0.550780  0.074410  0.635620  1.0
  C  C1425  1  0.563800  0.030200  0.353560  1.0
  C  C1426  1  0.469800  0.063800  0.853560  1.0
  C  C1427  1  0.530200  0.936200  0.853560  1.0
  C  C1428  1  0.030200  0.563800  0.646440  1.0
  C  C1429  1  0.063800  0.469800  0.146440  1.0
  C  C1430  1  0.969800  0.436200  0.646440  1.0
  C  C1431  1  0.936200  0.530200  0.146440  1.0
  C  C1432  1  0.436200  0.969800  0.353560  1.0
  C  C1433  1  0.436200  0.969800  0.646440  1.0
  C  C1434  1  0.530200  0.936200  0.146440  1.0
  C  C1435  1  0.469800  0.063800  0.146440  1.0
  C  C1436  1  0.969800  0.436200  0.353560  1.0
  C  C1437  1  0.936200  0.530200  0.853560  1.0
  C  C1438  1  0.030200  0.563800  0.353560  1.0
  C  C1439  1  0.063800  0.469800  0.853560  1.0
  C  C1440  1  0.563800  0.030200  0.646440  1.0
  C  C1441  1  0.594600  0.025960  0.328160  1.0
  C  C1442  1  0.474040  0.094600  0.828160  1.0
  C  C1443  1  0.525960  0.905400  0.828160  1.0
  C  C1444  1  0.025960  0.594600  0.671840  1.0
  C  C1445  1  0.094600  0.474040  0.171840  1.0
  C  C1446  1  0.974040  0.405400  0.671840  1.0
  C  C1447  1  0.905400  0.525960  0.171840  1.0
  C  C1448  1  0.405400  0.974040  0.328160  1.0
  C  C1449  1  0.405400  0.974040  0.671840  1.0
  C  C1450  1  0.525960  0.905400  0.171840  1.0
  C  C1451  1  0.474040  0.094600  0.171840  1.0
  C  C1452  1  0.974040  0.405400  0.328160  1.0
  C  C1453  1  0.905400  0.525960  0.828160  1.0
  C  C1454  1  0.025960  0.594600  0.328160  1.0
  C  C1455  1  0.094600  0.474040  0.828160  1.0
  C  C1456  1  0.594600  0.025960  0.671840  1.0
  C  C1457  1  0.612300  0.065900  0.313580  1.0
  C  C1458  1  0.434100  0.112300  0.813580  1.0
  C  C1459  1  0.565900  0.887700  0.813580  1.0
  C  C1460  1  0.065900  0.612300  0.686420  1.0
  C  C1461  1  0.112300  0.434100  0.186420  1.0
  C  C1462  1  0.934100  0.387700  0.686420  1.0
  C  C1463  1  0.887700  0.565900  0.186420  1.0
  C  C1464  1  0.387700  0.934100  0.313580  1.0
  C  C1465  1  0.387700  0.934100  0.686420  1.0
  C  C1466  1  0.565900  0.887700  0.186420  1.0
  C  C1467  1  0.434100  0.112300  0.186420  1.0
  C  C1468  1  0.934100  0.387700  0.313580  1.0
  C  C1469  1  0.887700  0.565900  0.813580  1.0
  C  C1470  1  0.065900  0.612300  0.313580  1.0
  C  C1471  1  0.112300  0.434100  0.813580  1.0
  C  C1472  1  0.612300  0.065900  0.686420  1.0
  C  C1473  1  0.599360  0.110130  0.324400  1.0
  C  C1474  1  0.389870  0.099360  0.824400  1.0
  C  C1475  1  0.610130  0.900640  0.824400  1.0
  C  C1476  1  0.110130  0.599360  0.675600  1.0
  C  C1477  1  0.099360  0.389870  0.175600  1.0
  C  C1478  1  0.889870  0.400640  0.675600  1.0
  C  C1479  1  0.900640  0.610130  0.175600  1.0
  C  C1480  1  0.400640  0.889870  0.324400  1.0
  C  C1481  1  0.400640  0.889870  0.675600  1.0
  C  C1482  1  0.610130  0.900640  0.175600  1.0
  C  C1483  1  0.389870  0.099360  0.175600  1.0
  C  C1484  1  0.889870  0.400640  0.324400  1.0
  C  C1485  1  0.900640  0.610130  0.824400  1.0
  C  C1486  1  0.110130  0.599360  0.324400  1.0
  C  C1487  1  0.099360  0.389870  0.824400  1.0
  C  C1488  1  0.599360  0.110130  0.675600  1.0
  C  C1489  1  0.636480  0.239480  0.378530  1.0
  C  C1490  1  0.260520  0.136480  0.878530  1.0
  C  C1491  1  0.739480  0.863520  0.878530  1.0
  C  C1492  1  0.239480  0.636480  0.621470  1.0
  C  C1493  1  0.136480  0.260520  0.121470  1.0
  C  C1494  1  0.760520  0.363520  0.621470  1.0
  C  C1495  1  0.863520  0.739480  0.121470  1.0
  C  C1496  1  0.363520  0.760520  0.378530  1.0
  C  C1497  1  0.363520  0.760520  0.621470  1.0
  C  C1498  1  0.739480  0.863520  0.121470  1.0
  C  C1499  1  0.260520  0.136480  0.121470  1.0
  C  C1500  1  0.760520  0.363520  0.378530  1.0
  C  C1501  1  0.863520  0.739480  0.878530  1.0
  C  C1502  1  0.239480  0.636480  0.378530  1.0
  C  C1503  1  0.136480  0.260520  0.878530  1.0
  C  C1504  1  0.636480  0.239480  0.621470  1.0
  C  C1505  1  0.503800  0.348900  0.426400  1.0
  C  C1506  1  0.151100  0.003800  0.926400  1.0
  C  C1507  1  0.848900  0.996200  0.926400  1.0
  C  C1508  1  0.348900  0.503800  0.573600  1.0
  C  C1509  1  0.003800  0.151100  0.073600  1.0
  C  C1510  1  0.651100  0.496200  0.573600  1.0
  C  C1511  1  0.996200  0.848900  0.073600  1.0
  C  C1512  1  0.496200  0.651100  0.426400  1.0
  C  C1513  1  0.496200  0.651100  0.573600  1.0
  C  C1514  1  0.848900  0.996200  0.073600  1.0
  C  C1515  1  0.151100  0.003800  0.073600  1.0
  C  C1516  1  0.651100  0.496200  0.426400  1.0
  C  C1517  1  0.996200  0.848900  0.926400  1.0
  C  C1518  1  0.348900  0.503800  0.426400  1.0
  C  C1519  1  0.003800  0.151100  0.926400  1.0
  C  C1520  1  0.503800  0.348900  0.573600  1.0
  N  N1521  1  0.360810  0.360810  0.500000  1.0
  N  N1522  1  0.139190  0.860810  0.000000  1.0
  N  N1523  1  0.860810  0.139190  0.000000  1.0
  N  N1524  1  0.639190  0.639190  0.500000  1.0
  N  N1525  1  0.500000  0.500000  0.363950  1.0
  N  N1526  1  0.000000  0.000000  0.863950  1.0
  N  N1527  1  0.500000  0.500000  0.636050  1.0
  N  N1528  1  0.000000  0.000000  0.136050  1.0
  N  N1529  1  0.568570  0.114370  0.349800  1.0
  N  N1530  1  0.385630  0.068570  0.849800  1.0
  N  N1531  1  0.614370  0.931430  0.849800  1.0
  N  N1532  1  0.114370  0.568570  0.650200  1.0
  N  N1533  1  0.068570  0.385630  0.150200  1.0
  N  N1534  1  0.885630  0.431430  0.650200  1.0
  N  N1535  1  0.931430  0.614370  0.150200  1.0
  N  N1536  1  0.431430  0.885630  0.349800  1.0
  N  N1537  1  0.431430  0.885630  0.650200  1.0
  N  N1538  1  0.614370  0.931430  0.150200  1.0
  N  N1539  1  0.385630  0.068570  0.150200  1.0
  N  N1540  1  0.885630  0.431430  0.349800  1.0
  N  N1541  1  0.931430  0.614370  0.849800  1.0
  N  N1542  1  0.114370  0.568570  0.349800  1.0
  N  N1543  1  0.068570  0.385630  0.849800  1.0
  N  N1544  1  0.568570  0.114370  0.650200  1.0
  O  O1545  1  0.500000  0.500000  0.500000  1
  O  O1546  1  0.000000  0.000000  0.000000  1
  O  O1547  1  0.188410  0.188410  0.500000  1.0
  O  O1548  1  0.311590  0.688410  0.000000  1.0
  O  O1549  1  0.688410  0.311590  0.000000  1.0
  O  O1550  1  0.811590  0.811590  0.500000  1.0
  O  O1551  1  0.500000  0.500000  0.199470  1.0
  O  O1552  1  0.000000  0.000000  0.699470  1.0
  O  O1553  1  0.500000  0.500000  0.800530  1.0
  O  O1554  1  0.000000  0.000000  0.300530  1.0
  O  O1555  1  0.280720  0.212690  0.467330  1.0
  O  O1556  1  0.287310  0.780720  0.967330  1.0
  O  O1557  1  0.712690  0.219280  0.967330  1.0
  O  O1558  1  0.212690  0.280720  0.532670  1.0
  O  O1559  1  0.780720  0.287310  0.032670  1.0
  O  O1560  1  0.787310  0.719280  0.532670  1.0
  O  O1561  1  0.219280  0.712690  0.032670  1.0
  O  O1562  1  0.719280  0.787310  0.467330  1.0
  O  O1563  1  0.719280  0.787310  0.532670  1.0
  O  O1564  1  0.712690  0.219280  0.032670  1.0
  O  O1565  1  0.287310  0.780720  0.032670  1.0
  O  O1566  1  0.787310  0.719280  0.467330  1.0
  O  O1567  1  0.219280  0.712690  0.967330  1.0
  O  O1568  1  0.212690  0.280720  0.467330  1.0
  O  O1569  1  0.780720  0.287310  0.967330  1.0
  O  O1570  1  0.280720  0.212690  0.532670  1.0
  O  O1571  1  0.336480  0.267760  0.467410  1.0
  O  O1572  1  0.232240  0.836480  0.967410  1.0
  O  O1573  1  0.767760  0.163520  0.967410  1.0
  O  O1574  1  0.267760  0.336480  0.532590  1.0
  O  O1575  1  0.836480  0.232240  0.032590  1.0
  O  O1576  1  0.732240  0.663520  0.532590  1.0
  O  O1577  1  0.163520  0.767760  0.032590  1.0
  O  O1578  1  0.663520  0.732240  0.467410  1.0
  O  O1579  1  0.663520  0.732240  0.532590  1.0
  O  O1580  1  0.767760  0.163520  0.032590  1.0
  O  O1581  1  0.232240  0.836480  0.032590  1.0
  O  O1582  1  0.732240  0.663520  0.467410  1.0
  O  O1583  1  0.163520  0.767760  0.967410  1.0
  O  O1584  1  0.267760  0.336480  0.467410  1.0
  O  O1585  1  0.836480  0.232240  0.967410  1.0
  O  O1586  1  0.336480  0.267760  0.532590  1.0
  O  O1587  1  0.491630  0.169520  0.384190  1.0
  O  O1588  1  0.330480  0.991630  0.884190  1.0
  O  O1589  1  0.669520  0.008370  0.884190  1.0
  O  O1590  1  0.169520  0.491630  0.615810  1.0
  O  O1591  1  0.991630  0.330480  0.115810  1.0
  O  O1592  1  0.830480  0.508370  0.615810  1.0
  O  O1593  1  0.008370  0.669520  0.115810  1.0
  O  O1594  1  0.508370  0.830480  0.384190  1.0
  O  O1595  1  0.508370  0.830480  0.615810  1.0
  O  O1596  1  0.669520  0.008370  0.115810  1.0
  O  O1597  1  0.330480  0.991630  0.115810  1.0
  O  O1598  1  0.830480  0.508370  0.384190  1.0
  O  O1599  1  0.008370  0.669520  0.884190  1.0
  O  O1600  1  0.169520  0.491630  0.384190  1.0
  O  O1601  1  0.991630  0.330480  0.884190  1.0
  O  O1602  1  0.491630  0.169520  0.615810  1.0
  O  O1603  1  0.482910  0.237570  0.410260  1.0
  O  O1604  1  0.262430  0.982910  0.910260  1.0
  O  O1605  1  0.737570  0.017090  0.910260  1.0
  O  O1606  1  0.237570  0.482910  0.589740  1.0
  O  O1607  1  0.982910  0.262430  0.089740  1.0
  O  O1608  1  0.762430  0.517090  0.589740  1.0
  O  O1609  1  0.017090  0.737570  0.089740  1.0
  O  O1610  1  0.517090  0.762430  0.410260  1.0
  O  O1611  1  0.517090  0.762430  0.589740  1.0
  O  O1612  1  0.737570  0.017090  0.089740  1.0
  O  O1613  1  0.262430  0.982910  0.089740  1.0
  O  O1614  1  0.762430  0.517090  0.410260  1.0
  O  O1615  1  0.017090  0.737570  0.910260  1.0
  O  O1616  1  0.237570  0.482910  0.410260  1.0
  O  O1617  1  0.982910  0.262430  0.910260  1.0
  O  O1618  1  0.482910  0.237570  0.589740  1.0
  O  O1619  1  0.531900  0.285760  0.364120  1.0
  O  O1620  1  0.214240  0.031900  0.864120  1.0
  O  O1621  1  0.785760  0.968100  0.864120  1.0
  O  O1622  1  0.285760  0.531900  0.635880  1.0
  O  O1623  1  0.031900  0.214240  0.135880  1.0
  O  O1624  1  0.714240  0.468100  0.635880  1.0
  O  O1625  1  0.968100  0.785760  0.135880  1.0
  O  O1626  1  0.468100  0.714240  0.364120  1.0
  O  O1627  1  0.468100  0.714240  0.635880  1.0
  O  O1628  1  0.785760  0.968100  0.135880  1.0
  O  O1629  1  0.214240  0.031900  0.135880  1.0
  O  O1630  1  0.714240  0.468100  0.364120  1.0
  O  O1631  1  0.968100  0.785760  0.864120  1.0
  O  O1632  1  0.285760  0.531900  0.364120  1.0
  O  O1633  1  0.031900  0.214240  0.864120  1.0
  O  O1634  1  0.531900  0.285760  0.635880  1.0
  O  O1635  1  0.539200  0.218310  0.337160  1.0
  O  O1636  1  0.281690  0.039200  0.837160  1.0
  O  O1637  1  0.718310  0.960800  0.837160  1.0
  O  O1638  1  0.218310  0.539200  0.662840  1.0
  O  O1639  1  0.039200  0.281690  0.162840  1.0
  O  O1640  1  0.781690  0.460800  0.662840  1.0
  O  O1641  1  0.960800  0.718310  0.162840  1.0
  O  O1642  1  0.460800  0.781690  0.337160  1.0
  O  O1643  1  0.460800  0.781690  0.662840  1.0
  O  O1644  1  0.718310  0.960800  0.162840  1.0
  O  O1645  1  0.281690  0.039200  0.162840  1.0
  O  O1646  1  0.781690  0.460800  0.337160  1.0
  O  O1647  1  0.960800  0.718310  0.837160  1.0
  O  O1648  1  0.218310  0.539200  0.337160  1.0
  O  O1649  1  0.039200  0.281690  0.837160  1.0
  O  O1650  1  0.539200  0.218310  0.662840  1.0
  O  O1651  1  0.500420  0.431410  0.308120  1.0
  O  O1652  1  0.068590  0.000420  0.808120  1.0
  O  O1653  1  0.931410  0.999580  0.808120  1.0
  O  O1654  1  0.431410  0.500420  0.691880  1.0
  O  O1655  1  0.000420  0.068590  0.191880  1.0
  O  O1656  1  0.568590  0.499580  0.691880  1.0
  O  O1657  1  0.999580  0.931410  0.191880  1.0
  O  O1658  1  0.499580  0.568590  0.308120  1.0
  O  O1659  1  0.499580  0.568590  0.691880  1.0
  O  O1660  1  0.931410  0.999580  0.191880  1.0
  O  O1661  1  0.068590  0.000420  0.191880  1.0
  O  O1662  1  0.568590  0.499580  0.308120  1.0
  O  O1663  1  0.999580  0.931410  0.808120  1.0
  O  O1664  1  0.431410  0.500420  0.308120  1.0
  O  O1665  1  0.000420  0.068590  0.808120  1.0
  O  O1666  1  0.500420  0.431410  0.691880  1.0
  O  O1667  1  0.500320  0.431330  0.255000  1.0
  O  O1668  1  0.068670  0.000320  0.755000  1.0
  O  O1669  1  0.931330  0.999680  0.755000  1.0
  O  O1670  1  0.431330  0.500320  0.745000  1.0
  O  O1671  1  0.000320  0.068670  0.245000  1.0
  O  O1672  1  0.568670  0.499680  0.745000  1.0
  O  O1673  1  0.999680  0.931330  0.245000  1.0
  O  O1674  1  0.499680  0.568670  0.255000  1.0
  O  O1675  1  0.499680  0.568670  0.745000  1.0
  O  O1676  1  0.931330  0.999680  0.245000  1.0
  O  O1677  1  0.068670  0.000320  0.245000  1.0
  O  O1678  1  0.568670  0.499680  0.255000  1.0
  O  O1679  1  0.999680  0.931330  0.755000  1.0
  O  O1680  1  0.431330  0.500320  0.255000  1.0
  O  O1681  1  0.000320  0.068670  0.755000  1.0
  O  O1682  1  0.500320  0.431330  0.745000  1.0
  O  O1683  1  0.614490  0.266720  0.395600  1.0
  O  O1684  1  0.233280  0.114490  0.895600  1.0
  O  O1685  1  0.766720  0.885510  0.895600  1.0
  O  O1686  1  0.266720  0.614490  0.604400  1.0
  O  O1687  1  0.114490  0.233280  0.104400  1.0
  O  O1688  1  0.733280  0.385510  0.604400  1.0
  O  O1689  1  0.885510  0.766720  0.104400  1.0
  O  O1690  1  0.385510  0.733280  0.395600  1.0
  O  O1691  1  0.385510  0.733280  0.604400  1.0
  O  O1692  1  0.766720  0.885510  0.104400  1.0
  O  O1693  1  0.233280  0.114490  0.104400  1.0
  O  O1694  1  0.733280  0.385510  0.395600  1.0
  O  O1695  1  0.885510  0.766720  0.895600  1.0
  O  O1696  1  0.266720  0.614490  0.395600  1.0
  O  O1697  1  0.114490  0.233280  0.895600  1.0
  O  O1698  1  0.614490  0.266720  0.604400  1.0
  O  O1699  1  0.623070  0.200970  0.367550  1.0
  O  O1700  1  0.299030  0.123070  0.867550  1.0
  O  O1701  1  0.700970  0.876930  0.867550  1.0
  O  O1702  1  0.200970  0.623070  0.632450  1.0
  O  O1703  1  0.123070  0.299030  0.132450  1.0
  O  O1704  1  0.799030  0.376930  0.632450  1.0
  O  O1705  1  0.876930  0.700970  0.132450  1.0
  O  O1706  1  0.376930  0.799030  0.367550  1.0
  O  O1707  1  0.376930  0.799030  0.632450  1.0
  O  O1708  1  0.700970  0.876930  0.132450  1.0
  O  O1709  1  0.299030  0.123070  0.132450  1.0
  O  O1710  1  0.799030  0.376930  0.367550  1.0
  O  O1711  1  0.876930  0.700970  0.867550  1.0
  O  O1712  1  0.200970  0.623070  0.367550  1.0
  O  O1713  1  0.123070  0.299030  0.867550  1.0
  O  O1714  1  0.623070  0.200970  0.632450  1.0
  O  O1715  1  0.564510  0.222260  0.442710  1.0
  O  O1716  1  0.277740  0.064510  0.942710  1.0
  O  O1717  1  0.722260  0.935490  0.942710  1.0
  O  O1718  1  0.222260  0.564510  0.557290  1.0
  O  O1719  1  0.064510  0.277740  0.057290  1.0
  O  O1720  1  0.777740  0.435490  0.557290  1.0
  O  O1721  1  0.935490  0.722260  0.057290  1.0
  O  O1722  1  0.435490  0.777740  0.442710  1.0
  O  O1723  1  0.435490  0.777740  0.557290  1.0
  O  O1724  1  0.722260  0.935490  0.057290  1.0
  O  O1725  1  0.277740  0.064510  0.057290  1.0
  O  O1726  1  0.777740  0.435490  0.442710  1.0
  O  O1727  1  0.935490  0.722260  0.942710  1.0
  O  O1728  1  0.222260  0.564510  0.442710  1.0
  O  O1729  1  0.064510  0.277740  0.942710  1.0
  O  O1730  1  0.564510  0.222260  0.557290  1.0
  O  O1731  1  0.576120  0.154950  0.416050  1.0
  O  O1732  1  0.345050  0.076120  0.916050  1.0
  O  O1733  1  0.654950  0.923880  0.916050  1.0
  O  O1734  1  0.154950  0.576120  0.583950  1.0
  O  O1735  1  0.076120  0.345050  0.083950  1.0
  O  O1736  1  0.845050  0.423880  0.583950  1.0
  O  O1737  1  0.923880  0.654950  0.083950  1.0
  O  O1738  1  0.423880  0.845050  0.416050  1.0
  O  O1739  1  0.423880  0.845050  0.583950  1.0
  O  O1740  1  0.654950  0.923880  0.083950  1.0
  O  O1741  1  0.345050  0.076120  0.083950  1.0
  O  O1742  1  0.845050  0.423880  0.416050  1.0
  O  O1743  1  0.923880  0.654950  0.916050  1.0
  O  O1744  1  0.154950  0.576120  0.416050  1.0
  O  O1745  1  0.076120  0.345050  0.916050  1.0
  O  O1746  1  0.576120  0.154950  0.583950  1.0
  O  O1747  1  0.541380  0.323720  0.430950  1.0
  O  O1748  1  0.176280  0.041380  0.930950  1.0
  O  O1749  1  0.823720  0.958620  0.930950  1.0
  O  O1750  1  0.323720  0.541380  0.569050  1.0
  O  O1751  1  0.041380  0.176280  0.069050  1.0
  O  O1752  1  0.676280  0.458620  0.569050  1.0
  O  O1753  1  0.958620  0.823720  0.069050  1.0
  O  O1754  1  0.458620  0.676280  0.430950  1.0
  O  O1755  1  0.458620  0.676280  0.569050  1.0
  O  O1756  1  0.823720  0.958620  0.069050  1.0
  O  O1757  1  0.176280  0.041380  0.069050  1.0
  O  O1758  1  0.676280  0.458620  0.430950  1.0
  O  O1759  1  0.958620  0.823720  0.930950  1.0
  O  O1760  1  0.323720  0.541380  0.430950  1.0
  O  O1761  1  0.041380  0.176280  0.930950  1.0
  O  O1762  1  0.541380  0.323720  0.569050  1.0
