# generated using pymatgen
data_MoH4(C2O)4
_symmetry_space_group_name_H-M   'P 1'
_cell_length_a   39.54894055
_cell_length_b   39.54894055
_cell_length_c   39.54894055
_cell_angle_alpha   107.76805150
_cell_angle_beta   107.76805150
_cell_angle_gamma   112.93404904
_symmetry_Int_Tables_number   1
_chemical_formula_structural   MoH4(C2O)4
_chemical_formula_sum   'Mo96 H384 C768 O384'
_cell_volume   47487.96378819
_cell_formula_units_Z   96
loop_
 _symmetry_equiv_pos_site_id
 _symmetry_equiv_pos_as_xyz
  1  'x, y, z'
loop_
 _atom_site_type_symbol
 _atom_site_label
 _atom_site_symmetry_multiplicity
 _atom_site_fract_x
 _atom_site_fract_y
 _atom_site_fract_z
 _atom_site_occupancy
  C  C1  1  0.127100  0.127100  0.311400  1
  C  C2  1  0.184300  0.872900  0.000000  1
  C  C3  1  0.815700  0.815700  0.688600  1
  C  C4  1  0.872900  0.184300  0.000000  1
  C  C5  1  0.102900  0.102900  0.362800  1
  C  C6  1  0.259900  0.897100  0.000000  1
  C  C7  1  0.740100  0.740100  0.637200  1
  C  C8  1  0.897100  0.259900  1.000000  1
  C  C9  1  0.834900  0.834900  0.309400  1
  C  C10  1  0.474500  0.165100  0.000000  1
  C  C11  1  0.525500  0.525500  0.690600  1
  C  C12  1  0.165100  0.474500  0.000000  1
  C  C13  1  0.771900  0.771900  0.218800  1
  C  C14  1  0.446900  0.228100  1.000000  1
  C  C15  1  0.553100  0.553100  0.781200  1
  C  C16  1  0.228100  0.446900  0.000000  1
  C  C17  1  0.993300  0.993300  0.857600  1
  C  C18  1  0.864300  0.006700  0.000000  1
  C  C19  1  0.135700  0.135700  0.142400  1
  C  C20  1  0.006700  0.864300  1.000000  1
  C  C21  1  0.002500  0.002500  0.796400  1
  C  C22  1  0.793900  0.997500  0.000000  1
  C  C23  1  0.206100  0.206100  0.203600  1
  C  C24  1  0.997500  0.793900  0.000000  1
  C  C25  1  0.380600  0.380600  0.686600  1
  C  C26  1  0.306000  0.619400  0.000000  1
  C  C27  1  0.694000  0.694000  0.313400  1
  C  C28  1  0.619400  0.306000  0.000000  1
  C  C29  1  0.308200  0.308200  0.674600  1
  C  C30  1  0.366400  0.691800  0.000000  1
  C  C31  1  0.633600  0.633600  0.325400  1
  C  C32  1  0.691800  0.366400  0.000000  1
  C  C33  1  0.821600  0.766500  0.475900  1.0
  C  C34  1  0.709400  0.233500  0.055100  1.0
  C  C35  1  0.290600  0.345700  0.524100  1.0
  C  C36  1  0.178400  0.654300  0.944900  1.0
  C  C37  1  0.345700  0.290600  0.524100  1.0
  C  C38  1  0.233500  0.709400  0.055100  1.0
  C  C39  1  0.654300  0.178400  0.944900  1.0
  C  C40  1  0.766500  0.821600  0.475900  1.0
  C  C41  1  0.822000  0.737700  0.446300  1.0
  C  C42  1  0.708600  0.262300  0.084300  1.0
  C  C43  1  0.291400  0.375700  0.553700  1.0
  C  C44  1  0.178000  0.624300  0.915700  1.0
  C  C45  1  0.375700  0.291400  0.553700  1.0
  C  C46  1  0.262300  0.708600  0.084300  1.0
  C  C47  1  0.624300  0.178000  0.915700  1.0
  C  C48  1  0.737700  0.822000  0.446300  1.0
  C  C49  1  0.791900  0.695200  0.421100  1.0
  C  C50  1  0.725900  0.304800  0.096700  1.0
  C  C51  1  0.274100  0.370800  0.578900  1.0
  C  C52  1  0.208100  0.629200  0.903300  1.0
  C  C53  1  0.370800  0.274100  0.578900  1.0
  C  C54  1  0.304800  0.725900  0.096700  1.0
  C  C55  1  0.629200  0.208100  0.903300  1.0
  C  C56  1  0.695200  0.791900  0.421100  1.0
  C  C57  1  0.791600  0.673300  0.385900  1.0
  C  C58  1  0.712600  0.326700  0.118300  1.0
  C  C59  1  0.287400  0.405700  0.614100  1.0
  C  C60  1  0.208400  0.594300  0.881700  1.0
  C  C61  1  0.405700  0.287400  0.614100  1.0
  C  C62  1  0.326700  0.712600  0.118300  1.0
  C  C63  1  0.594300  0.208400  0.881700  1.0
  C  C64  1  0.673300  0.791600  0.385900  1.0
  C  C65  1  0.821300  0.693800  0.375900  1.0
  C  C66  1  0.682100  0.306200  0.127500  1.0
  C  C67  1  0.317900  0.445400  0.624100  1.0
  C  C68  1  0.178700  0.554600  0.872500  1.0
  C  C69  1  0.445400  0.317900  0.624100  1.0
  C  C70  1  0.306200  0.682100  0.127500  1.0
  C  C71  1  0.554600  0.178700  0.872500  1.0
  C  C72  1  0.693800  0.821300  0.375900  1.0
  C  C73  1  0.851500  0.736300  0.401200  1.0
  C  C74  1  0.664900  0.263700  0.115200  1.0
  C  C75  1  0.335100  0.450300  0.598800  1.0
  C  C76  1  0.148500  0.549700  0.884800  1.0
  C  C77  1  0.450300  0.335100  0.598800  1.0
  C  C78  1  0.263700  0.664900  0.115200  1.0
  C  C79  1  0.549700  0.148500  0.884800  1.0
  C  C80  1  0.736300  0.851500  0.401200  1.0
  C  C81  1  0.851900  0.758300  0.436400  1.0
  C  C82  1  0.678100  0.241700  0.093600  1.0
  C  C83  1  0.321900  0.415500  0.563600  1.0
  C  C84  1  0.148100  0.584500  0.906400  1.0
  C  C85  1  0.415500  0.321900  0.563600  1.0
  C  C86  1  0.241700  0.678100  0.093600  1.0
  C  C87  1  0.584500  0.148100  0.906400  1.0
  C  C88  1  0.758300  0.851900  0.436400  1.0
  C  C89  1  0.879900  0.755800  0.389500  1.0
  C  C90  1  0.633700  0.244200  0.124100  1.0
  C  C91  1  0.366300  0.490400  0.610500  1.0
  C  C92  1  0.120100  0.509600  0.875900  1.0
  C  C93  1  0.490400  0.366300  0.610500  1.0
  C  C94  1  0.244200  0.633700  0.124100  1.0
  C  C95  1  0.509600  0.120100  0.875900  1.0
  C  C96  1  0.755800  0.879900  0.389500  1.0
  C  C97  1  0.981300  0.820700  0.321200  1.0
  C  C98  1  0.500500  0.179300  0.160600  1.0
  C  C99  1  0.499500  0.660100  0.678800  1.0
  C  C100  1  0.018700  0.339900  0.839400  1.0
  C  C101  1  0.660100  0.499500  0.678800  1.0
  C  C102  1  0.179300  0.500500  0.160600  1.0
  C  C103  1  0.339900  0.018700  0.839400  1.0
  C  C104  1  0.820700  0.981300  0.321200  1.0
  C  C105  1  0.999200  0.836900  0.302500  1.0
  C  C106  1  0.465600  0.163100  0.162300  1.0
  C  C107  1  0.534400  0.696700  0.697500  1.0
  C  C108  1  0.000800  0.303300  0.837700  1.0
  C  C109  1  0.696700  0.534400  0.697500  1.0
  C  C110  1  0.163100  0.465600  0.162300  1.0
  C  C111  1  0.303300  0.000800  0.837700  1.0
  C  C112  1  0.836900  0.999200  0.302500  1.0
  C  C113  1  0.033800  0.877600  0.326400  1.0
  C  C114  1  0.448800  0.122400  0.156200  1.0
  C  C115  1  0.551200  0.707400  0.673600  1.0
  C  C116  1  0.966200  0.292600  0.843800  1.0
  C  C117  1  0.707400  0.551200  0.673600  1.0
  C  C118  1  0.122400  0.448800  0.156200  1.0
  C  C119  1  0.292600  0.966200  0.843800  1.0
  C  C120  1  0.877600  0.033800  0.326400  1.0
  C  C121  1  0.056600  0.896400  0.309800  1.0
  C  C122  1  0.413400  0.103600  0.160200  1.0
  C  C123  1  0.586600  0.746800  0.690200  1.0
  C  C124  1  0.943400  0.253200  0.839800  1.0
  C  C125  1  0.746800  0.586600  0.690200  1.0
  C  C126  1  0.103600  0.413400  0.160200  1.0
  C  C127  1  0.253200  0.943400  0.839800  1.0
  C  C128  1  0.896400  0.056600  0.309800  1.0
  C  C129  1  0.044600  0.874300  0.269100  1.0
  C  C130  1  0.394800  0.125700  0.170300  1.0
  C  C131  1  0.605200  0.775500  0.730900  1.0
  C  C132  1  0.955400  0.224500  0.829700  1.0
  C  C133  1  0.775500  0.605200  0.730900  1.0
  C  C134  1  0.125700  0.394800  0.170300  1.0
  C  C135  1  0.224500  0.955400  0.829700  1.0
  C  C136  1  0.874300  0.044600  0.269100  1.0
  C  C137  1  0.010000  0.833500  0.245100  1.0
  C  C138  1  0.411600  0.166500  0.176500  1.0
  C  C139  1  0.588400  0.764900  0.754900  1.0
  C  C140  1  0.990000  0.235100  0.823500  1.0
  C  C141  1  0.764900  0.588400  0.754900  1.0
  C  C142  1  0.166500  0.411600  0.176500  1.0
  C  C143  1  0.235100  0.990000  0.823500  1.0
  C  C144  1  0.833500  0.010000  0.245100  1.0
  C  C145  1  0.987200  0.814800  0.261800  1.0
  C  C146  1  0.447000  0.185200  0.172400  1.0
  C  C147  1  0.553000  0.725400  0.738200  1.0
  C  C148  1  0.012800  0.274600  0.827600  1.0
  C  C149  1  0.725400  0.553000  0.738200  1.0
  C  C150  1  0.185200  0.447000  0.172400  1.0
  C  C151  1  0.274600  0.012800  0.827600  1.0
  C  C152  1  0.814800  0.987200  0.261800  1.0
  C  C153  1  0.088900  0.938300  0.335800  1.0
  C  C154  1  0.397500  0.061700  0.150600  1.0
  C  C155  1  0.602500  0.753100  0.664200  1.0
  C  C156  1  0.911100  0.246900  0.849400  1.0
  C  C157  1  0.753100  0.602500  0.664200  1.0
  C  C158  1  0.061700  0.397500  0.150600  1.0
  C  C159  1  0.246900  0.911100  0.849400  1.0
  C  C160  1  0.938300  0.088900  0.335800  1.0
  C  C161  1  0.247700  0.094700  0.455600  1.0
  C  C162  1  0.360900  0.905300  0.153000  1.0
  C  C163  1  0.639100  0.792100  0.544400  1.0
  C  C164  1  0.752300  0.207900  0.847000  1.0
  C  C165  1  0.792100  0.639100  0.544400  1.0
  C  C166  1  0.905300  0.360900  0.153000  1.0
  C  C167  1  0.207900  0.752300  0.847000  1.0
  C  C168  1  0.094700  0.247700  0.455600  1.0
  C  C169  1  0.287100  0.123900  0.484600  1.0
  C  C170  1  0.360700  0.876100  0.163200  1.0
  C  C171  1  0.639300  0.802500  0.515400  1.0
  C  C172  1  0.712900  0.197500  0.836800  1.0
  C  C173  1  0.802500  0.639300  0.515400  1.0
  C  C174  1  0.876100  0.360700  0.163200  1.0
  C  C175  1  0.197500  0.712900  0.836800  1.0
  C  C176  1  0.123900  0.287100  0.484600  1.0
  C  C177  1  0.292800  0.134900  0.523700  1.0
  C  C178  1  0.388800  0.865100  0.157900  1.0
  C  C179  1  0.611200  0.769100  0.476300  1.0
  C  C180  1  0.707200  0.230900  0.842100  1.0
  C  C181  1  0.769100  0.611200  0.476300  1.0
  C  C182  1  0.865100  0.388800  0.157900  1.0
  C  C183  1  0.230900  0.707200  0.842100  1.0
  C  C184  1  0.134900  0.292800  0.523700  1.0
  C  C185  1  0.332700  0.163700  0.556800  1.0
  C  C186  1  0.393100  0.836300  0.169000  1.0
  C  C187  1  0.606900  0.775900  0.443200  1.0
  C  C188  1  0.667300  0.224100  0.831000  1.0
  C  C189  1  0.775900  0.606900  0.443200  1.0
  C  C190  1  0.836300  0.393100  0.169000  1.0
  C  C191  1  0.224100  0.667300  0.831000  1.0
  C  C192  1  0.163700  0.332700  0.556800  1.0
  C  C193  1  0.366900  0.181600  0.550900  1.0
  C  C194  1  0.369300  0.818400  0.185300  1.0
  C  C195  1  0.630700  0.816000  0.449100  1.0
  C  C196  1  0.633100  0.184000  0.814700  1.0
  C  C197  1  0.816000  0.630700  0.449100  1.0
  C  C198  1  0.818400  0.369300  0.185300  1.0
  C  C199  1  0.184000  0.633100  0.814700  1.0
  C  C200  1  0.181600  0.366900  0.550900  1.0
  C  C201  1  0.361200  0.170600  0.511800  1.0
  C  C202  1  0.341200  0.829400  0.190600  1.0
  C  C203  1  0.658800  0.849400  0.488200  1.0
  C  C204  1  0.638800  0.150600  0.809400  1.0
  C  C205  1  0.849400  0.658800  0.488200  1.0
  C  C206  1  0.829400  0.341200  0.190600  1.0
  C  C207  1  0.150600  0.638800  0.809400  1.0
  C  C208  1  0.170600  0.361200  0.511800  1.0
  C  C209  1  0.321300  0.141700  0.478600  1.0
  C  C210  1  0.336900  0.858300  0.179600  1.0
  C  C211  1  0.663100  0.842700  0.521400  1.0
  C  C212  1  0.678700  0.157300  0.820400  1.0
  C  C213  1  0.842700  0.663100  0.521400  1.0
  C  C214  1  0.858300  0.336900  0.179600  1.0
  C  C215  1  0.157300  0.678700  0.820400  1.0
  C  C216  1  0.141700  0.321300  0.478600  1.0
  C  C217  1  0.342400  0.179900  0.603300  1.0
  C  C218  1  0.423400  0.820100  0.162500  1.0
  C  C219  1  0.576600  0.739100  0.396700  1.0
  C  C220  1  0.657600  0.260900  0.837500  1.0
  C  C221  1  0.739100  0.576600  0.396700  1.0
  C  C222  1  0.820100  0.423400  0.162500  1.0
  C  C223  1  0.260900  0.657600  0.837500  1.0
  C  C224  1  0.179900  0.342400  0.603300  1.0
  C  C225  1  0.352300  0.228500  0.750400  1.0
  C  C226  1  0.521900  0.771500  0.123800  1.0
  C  C227  1  0.478100  0.601900  0.249600  1.0
  C  C228  1  0.647700  0.398100  0.876200  1.0
  C  C229  1  0.601900  0.478100  0.249600  1.0
  C  C230  1  0.771500  0.521900  0.123800  1.0
  C  C231  1  0.398100  0.647700  0.876200  1.0
  C  C232  1  0.228500  0.352300  0.750400  1.0
  C  C233  1  0.360800  0.243200  0.793000  1.0
  C  C234  1  0.549800  0.756800  0.117600  1.0
  C  C235  1  0.450200  0.567800  0.207000  1.0
  C  C236  1  0.639200  0.432200  0.882400  1.0
  C  C237  1  0.567800  0.450200  0.207000  1.0
  C  C238  1  0.756800  0.549800  0.117600  1.0
  C  C239  1  0.432200  0.639200  0.882400  1.0
  C  C240  1  0.243200  0.360800  0.793000  1.0
  C  C241  1  0.401600  0.266900  0.825100  1.0
  C  C242  1  0.558200  0.733100  0.134700  1.0
  C  C243  1  0.441800  0.576500  0.174900  1.0
  C  C244  1  0.598400  0.423500  0.865300  1.0
  C  C245  1  0.576500  0.441800  0.174900  1.0
  C  C246  1  0.733100  0.558200  0.134700  1.0
  C  C247  1  0.423500  0.598400  0.865300  1.0
  C  C248  1  0.266900  0.401600  0.825100  1.0
  C  C249  1  0.408900  0.284600  0.864700  1.0
  C  C250  1  0.580100  0.715400  0.124300  1.0
  C  C251  1  0.419900  0.544200  0.135300  1.0
  C  C252  1  0.591100  0.455800  0.875700  1.0
  C  C253  1  0.544200  0.419900  0.135300  1.0
  C  C254  1  0.715400  0.580100  0.124300  1.0
  C  C255  1  0.455800  0.591100  0.875700  1.0
  C  C256  1  0.284600  0.408900  0.864700  1.0
  C  C257  1  0.375500  0.278500  0.872400  1.0
  C  C258  1  0.593900  0.721500  0.097000  1.0
  C  C259  1  0.406100  0.503100  0.127600  1.0
  C  C260  1  0.624500  0.496900  0.903000  1.0
  C  C261  1  0.503100  0.406100  0.127600  1.0
  C  C262  1  0.721500  0.593900  0.097000  1.0
  C  C263  1  0.496900  0.624500  0.903000  1.0
  C  C264  1  0.278500  0.375500  0.872400  1.0
  C  C265  1  0.334800  0.254800  0.840400  1.0
  C  C266  1  0.585600  0.745200  0.080000  1.0
  C  C267  1  0.414400  0.494400  0.159600  1.0
  C  C268  1  0.665200  0.505600  0.920000  1.0
  C  C269  1  0.494400  0.414400  0.159600  1.0
  C  C270  1  0.745200  0.585600  0.080000  1.0
  C  C271  1  0.505600  0.665200  0.920000  1.0
  C  C272  1  0.254800  0.334800  0.840400  1.0
  C  C273  1  0.327500  0.237200  0.800700  1.0
  C  C274  1  0.563500  0.762800  0.090300  1.0
  C  C275  1  0.436500  0.526800  0.199300  1.0
  C  C276  1  0.672500  0.473200  0.909700  1.0
  C  C277  1  0.526800  0.436500  0.199300  1.0
  C  C278  1  0.762800  0.563500  0.090300  1.0
  C  C279  1  0.473200  0.672500  0.909700  1.0
  C  C280  1  0.237200  0.327500  0.800700  1.0
  C  C281  1  0.293500  0.243300  0.849200  1.0
  C  C282  1  0.605900  0.756700  0.050200  1.0
  C  C283  1  0.394100  0.444300  0.150800  1.0
  C  C284  1  0.706500  0.555700  0.949800  1.0
  C  C285  1  0.444300  0.394100  0.150800  1.0
  C  C286  1  0.756700  0.605900  0.050200  1.0
  C  C287  1  0.555700  0.706500  0.949800  1.0
  C  C288  1  0.243300  0.293500  0.849200  1.0
  C  C289  1  0.013600  0.870700  0.708900  1.0
  C  C290  1  0.838200  0.129300  0.142900  1.0
  C  C291  1  0.161800  0.304700  0.291100  1.0
  C  C292  1  0.986400  0.695300  0.857100  1.0
  C  C293  1  0.304700  0.161800  0.291100  1.0
  C  C294  1  0.129300  0.838200  0.142900  1.0
  C  C295  1  0.695300  0.986400  0.857100  1.0
  C  C296  1  0.870700  0.013600  0.708900  1.0
  C  C297  1  0.967400  0.827400  0.684000  1.0
  C  C298  1  0.856600  0.172600  0.140000  1.0
  C  C299  1  0.143400  0.283400  0.316000  1.0
  C  C300  1  0.032600  0.716600  0.860000  1.0
  C  C301  1  0.283400  0.143400  0.316000  1.0
  C  C302  1  0.172600  0.856600  0.140000  1.0
  C  C303  1  0.716600  0.032600  0.860000  1.0
  C  C304  1  0.827400  0.967400  0.684000  1.0
  C  C305  1  0.947500  0.791900  0.687600  1.0
  C  C306  1  0.895700  0.208100  0.155600  1.0
  C  C307  1  0.104300  0.259900  0.312400  1.0
  C  C308  1  0.052500  0.740100  0.844400  1.0
  C  C309  1  0.259900  0.104300  0.312400  1.0
  C  C310  1  0.208100  0.895700  0.155600  1.0
  C  C311  1  0.740100  0.052500  0.844400  1.0
  C  C312  1  0.791900  0.947500  0.687600  1.0
  C  C313  1  0.904700  0.763100  0.662400  1.0
  C  C314  1  0.899300  0.236900  0.141600  1.0
  C  C315  1  0.100700  0.242300  0.337600  1.0
  C  C316  1  0.095300  0.757700  0.858400  1.0
  C  C317  1  0.242300  0.100700  0.337600  1.0
  C  C318  1  0.236900  0.899300  0.141600  1.0
  C  C319  1  0.757700  0.095300  0.858400  1.0
  C  C320  1  0.763100  0.904700  0.662400  1.0
  C  C321  1  0.881800  0.769600  0.633400  1.0
  C  C322  1  0.863800  0.230400  0.112200  1.0
  C  C323  1  0.136200  0.248400  0.366600  1.0
  C  C324  1  0.118200  0.751600  0.887800  1.0
  C  C325  1  0.248400  0.136200  0.366600  1.0
  C  C326  1  0.230400  0.863800  0.112200  1.0
  C  C327  1  0.751600  0.118200  0.887800  1.0
  C  C328  1  0.769600  0.881800  0.633400  1.0
  C  C329  1  0.901600  0.805000  0.629800  1.0
  C  C330  1  0.824800  0.195000  0.096600  1.0
  C  C331  1  0.175200  0.271800  0.370200  1.0
  C  C332  1  0.098400  0.728200  0.903400  1.0
  C  C333  1  0.271800  0.175200  0.370200  1.0
  C  C334  1  0.195000  0.824800  0.096600  1.0
  C  C335  1  0.728200  0.098400  0.903400  1.0
  C  C336  1  0.805000  0.901600  0.629800  1.0
  C  C337  1  0.944300  0.833800  0.654900  1.0
  C  C338  1  0.821100  0.166200  0.110500  1.0
  C  C339  1  0.178900  0.289400  0.345100  1.0
  C  C340  1  0.055700  0.710600  0.889500  1.0
  C  C341  1  0.289400  0.178900  0.345100  1.0
  C  C342  1  0.166200  0.821100  0.110500  1.0
  C  C343  1  0.710600  0.055700  0.889500  1.0
  C  C344  1  0.833800  0.944300  0.654900  1.0
  C  C345  1  0.863800  0.804400  0.595200  1.0
  C  C346  1  0.790800  0.195600  0.059400  1.0
  C  C347  1  0.209200  0.268600  0.404800  1.0
  C  C348  1  0.136200  0.731400  0.940600  1.0
  C  C349  1  0.268600  0.209200  0.404800  1.0
  C  C350  1  0.195600  0.790800  0.059400  1.0
  C  C351  1  0.731400  0.136200  0.940600  1.0
  C  C352  1  0.804400  0.863800  0.595200  1.0
  C  C353  1  0.119500  0.833100  0.515600  1.0
  C  C354  1  0.682500  0.166900  0.286400  1.0
  C  C355  1  0.317500  0.603900  0.484400  1.0
  C  C356  1  0.880500  0.396100  0.713600  1.0
  C  C357  1  0.603900  0.317500  0.484400  1.0
  C  C358  1  0.166900  0.682500  0.286400  1.0
  C  C359  1  0.396100  0.880500  0.713600  1.0
  C  C360  1  0.833100  0.119500  0.515600  1.0
  C  C361  1  0.081800  0.794700  0.482900  1.0
  C  C362  1  0.688200  0.205300  0.287100  1.0
  C  C363  1  0.311800  0.598900  0.517100  1.0
  C  C364  1  0.918200  0.401100  0.712900  1.0
  C  C365  1  0.598900  0.311800  0.517100  1.0
  C  C366  1  0.205300  0.688200  0.287100  1.0
  C  C367  1  0.401100  0.918200  0.712900  1.0
  C  C368  1  0.794700  0.081800  0.482900  1.0
  C  C369  1  0.076100  0.755100  0.470200  1.0
  C  C370  1  0.715100  0.244900  0.321000  1.0
  C  C371  1  0.284900  0.605900  0.529800  1.0
  C  C372  1  0.923900  0.394100  0.679000  1.0
  C  C373  1  0.605900  0.284900  0.529800  1.0
  C  C374  1  0.244900  0.715100  0.321000  1.0
  C  C375  1  0.394100  0.923900  0.679000  1.0
  C  C376  1  0.755100  0.076100  0.470200  1.0
  C  C377  1  0.040400  0.720900  0.434700  1.0
  C  C378  1  0.713800  0.279100  0.319500  1.0
  C  C379  1  0.286200  0.605700  0.565300  1.0
  C  C380  1  0.959600  0.394300  0.680500  1.0
  C  C381  1  0.605700  0.286200  0.565300  1.0
  C  C382  1  0.279100  0.713800  0.319500  1.0
  C  C383  1  0.394300  0.959600  0.680500  1.0
  C  C384  1  0.720900  0.040400  0.434700  1.0
  C  C385  1  0.010400  0.726500  0.411900  1.0
  C  C386  1  0.685400  0.273500  0.283900  1.0
  C  C387  1  0.314600  0.598500  0.588100  1.0
  C  C388  1  0.989600  0.401500  0.716100  1.0
  C  C389  1  0.598500  0.314600  0.588100  1.0
  C  C390  1  0.273500  0.685400  0.283900  1.0
  C  C391  1  0.401500  0.989600  0.716100  1.0
  C  C392  1  0.726500  0.010400  0.411900  1.0
  C  C393  1  0.016300  0.766200  0.424700  1.0
  C  C394  1  0.658500  0.233800  0.250100  1.0
  C  C395  1  0.341500  0.591600  0.575300  1.0
  C  C396  1  0.983700  0.408400  0.749900  1.0
  C  C397  1  0.591600  0.341500  0.575300  1.0
  C  C398  1  0.233800  0.658500  0.250100  1.0
  C  C399  1  0.408400  0.983700  0.749900  1.0
  C  C400  1  0.766200  0.016300  0.424700  1.0
  C  C401  1  0.051900  0.800200  0.460100  1.0
  C  C402  1  0.659900  0.199800  0.251700  1.0
  C  C403  1  0.340100  0.591800  0.539900  1.0
  C  C404  1  0.948100  0.408200  0.748300  1.0
  C  C405  1  0.591800  0.340100  0.539900  1.0
  C  C406  1  0.199800  0.659900  0.251700  1.0
  C  C407  1  0.408200  0.948100  0.748300  1.0
  C  C408  1  0.800200  0.051900  0.460100  1.0
  C  C409  1  0.984900  0.772400  0.400500  1.0
  C  C410  1  0.628100  0.227600  0.212500  1.0
  C  C411  1  0.371900  0.584400  0.599500  1.0
  C  C412  1  0.015100  0.415600  0.787500  1.0
  C  C413  1  0.584400  0.371900  0.599500  1.0
  C  C414  1  0.227600  0.628100  0.212500  1.0
  C  C415  1  0.415600  0.015100  0.787500  1.0
  C  C416  1  0.772400  0.984900  0.400500  1.0
  C  C417  1  0.208500  0.916800  0.507700  1.0
  C  C418  1  0.590900  0.083200  0.291700  1.0
  C  C419  1  0.409100  0.700800  0.492300  1.0
  C  C420  1  0.791500  0.299200  0.708300  1.0
  C  C421  1  0.700800  0.409100  0.492300  1.0
  C  C422  1  0.083200  0.590900  0.291700  1.0
  C  C423  1  0.299200  0.791500  0.708300  1.0
  C  C424  1  0.916800  0.208500  0.507700  1.0
  C  C425  1  0.216000  0.920500  0.476700  1.0
  C  C426  1  0.556200  0.079500  0.295500  1.0
  C  C427  1  0.443800  0.739300  0.523300  1.0
  C  C428  1  0.784000  0.260700  0.704500  1.0
  C  C429  1  0.739300  0.443800  0.523300  1.0
  C  C430  1  0.079500  0.556200  0.295500  1.0
  C  C431  1  0.260700  0.784000  0.704500  1.0
  C  C432  1  0.920500  0.216000  0.476700  1.0
  C  C433  1  0.238500  0.906900  0.461600  1.0
  C  C434  1  0.554700  0.093100  0.331600  1.0
  C  C435  1  0.445300  0.776900  0.538400  1.0
  C  C436  1  0.761500  0.223100  0.668400  1.0
  C  C437  1  0.776900  0.445300  0.538400  1.0
  C  C438  1  0.093100  0.554700  0.331600  1.0
  C  C439  1  0.223100  0.761500  0.668400  1.0
  C  C440  1  0.906900  0.238500  0.461600  1.0
  C  C441  1  0.247700  0.917100  0.433600  1.0
  C  C442  1  0.516500  0.082900  0.330600  1.0
  C  C443  1  0.483500  0.814100  0.566400  1.0
  C  C444  1  0.752300  0.185900  0.669400  1.0
  C  C445  1  0.814100  0.483500  0.566400  1.0
  C  C446  1  0.082900  0.516500  0.330600  1.0
  C  C447  1  0.185900  0.752300  0.669400  1.0
  C  C448  1  0.917100  0.247700  0.433600  1.0
  C  C449  1  0.234500  0.941000  0.420700  1.0
  C  C450  1  0.479700  0.059000  0.293500  1.0
  C  C451  1  0.520300  0.813800  0.579300  1.0
  C  C452  1  0.765500  0.186200  0.706500  1.0
  C  C453  1  0.813800  0.520300  0.579300  1.0
  C  C454  1  0.059000  0.479700  0.293500  1.0
  C  C455  1  0.186200  0.765500  0.706500  1.0
  C  C456  1  0.941000  0.234500  0.420700  1.0
  C  C457  1  0.212100  0.954500  0.435800  1.0
  C  C458  1  0.481300  0.045500  0.257600  1.0
  C  C459  1  0.518700  0.776300  0.564200  1.0
  C  C460  1  0.787900  0.223700  0.742400  1.0
  C  C461  1  0.776300  0.518700  0.564200  1.0
  C  C462  1  0.045500  0.481300  0.257600  1.0
  C  C463  1  0.223700  0.787900  0.742400  1.0
  C  C464  1  0.954500  0.212100  0.435800  1.0
  C  C465  1  0.202800  0.944200  0.463800  1.0
  C  C466  1  0.519600  0.055800  0.258600  1.0
  C  C467  1  0.480400  0.739000  0.536200  1.0
  C  C468  1  0.797200  0.261000  0.741400  1.0
  C  C469  1  0.739000  0.480400  0.536200  1.0
  C  C470  1  0.055800  0.519600  0.258600  1.0
  C  C471  1  0.261000  0.797200  0.741400  1.0
  C  C472  1  0.944200  0.202800  0.463800  1.0
  C  C473  1  0.193900  0.979100  0.423000  1.0
  C  C474  1  0.443900  0.020900  0.214800  1.0
  C  C475  1  0.556100  0.770900  0.577000  1.0
  C  C476  1  0.806100  0.229100  0.785200  1.0
  C  C477  1  0.770900  0.556100  0.577000  1.0
  C  C478  1  0.020900  0.443900  0.214800  1.0
  C  C479  1  0.229100  0.806100  0.785200  1.0
  C  C480  1  0.979100  0.193900  0.423000  1.0
  C  C481  1  0.128100  0.913100  0.736200  1.0
  C  C482  1  0.823100  0.086900  0.215000  1.0
  C  C483  1  0.176900  0.391900  0.263800  1.0
  C  C484  1  0.871900  0.608100  0.785000  1.0
  C  C485  1  0.391900  0.176900  0.263800  1.0
  C  C486  1  0.086900  0.823100  0.215000  1.0
  C  C487  1  0.608100  0.871900  0.785000  1.0
  C  C488  1  0.913100  0.128100  0.736200  1.0
  C  C489  1  0.153400  0.896100  0.717500  1.0
  C  C490  1  0.821400  0.103900  0.257300  1.0
  C  C491  1  0.178600  0.435900  0.282500  1.0
  C  C492  1  0.846600  0.564100  0.742700  1.0
  C  C493  1  0.435900  0.178600  0.282500  1.0
  C  C494  1  0.103900  0.821400  0.257300  1.0
  C  C495  1  0.564100  0.846600  0.742700  1.0
  C  C496  1  0.896100  0.153400  0.717500  1.0
  C  C497  1  0.168600  0.876200  0.735400  1.0
  C  C498  1  0.859200  0.123800  0.292400  1.0
  C  C499  1  0.140800  0.433200  0.264600  1.0
  C  C500  1  0.831400  0.566800  0.707600  1.0
  C  C501  1  0.433200  0.140800  0.264600  1.0
  C  C502  1  0.123800  0.859200  0.292400  1.0
  C  C503  1  0.566800  0.831400  0.707600  1.0
  C  C504  1  0.876200  0.168600  0.735400  1.0
  C  C505  1  0.191700  0.861600  0.722700  1.0
  C  C506  1  0.861100  0.138400  0.330100  1.0
  C  C507  1  0.138900  0.469000  0.277300  1.0
  C  C508  1  0.808300  0.531000  0.669900  1.0
  C  C509  1  0.469000  0.138900  0.277300  1.0
  C  C510  1  0.138400  0.861100  0.330100  1.0
  C  C511  1  0.531000  0.808300  0.669900  1.0
  C  C512  1  0.861600  0.191700  0.722700  1.0
  C  C513  1  0.199500  0.866800  0.692100  1.0
  C  C514  1  0.825300  0.133200  0.332700  1.0
  C  C515  1  0.174700  0.507400  0.307900  1.0
  C  C516  1  0.800500  0.492600  0.667300  1.0
  C  C517  1  0.507400  0.174700  0.307900  1.0
  C  C518  1  0.133200  0.825300  0.332700  1.0
  C  C519  1  0.492600  0.800500  0.667300  1.0
  C  C520  1  0.866800  0.199500  0.692100  1.0
  C  C521  1  0.184300  0.886800  0.674300  1.0
  C  C522  1  0.787500  0.113200  0.297500  1.0
  C  C523  1  0.212500  0.510000  0.325700  1.0
  C  C524  1  0.815700  0.490000  0.702500  1.0
  C  C525  1  0.510000  0.212500  0.325700  1.0
  C  C526  1  0.113200  0.787500  0.297500  1.0
  C  C527  1  0.490000  0.815700  0.702500  1.0
  C  C528  1  0.886800  0.184300  0.674300  1.0
  C  C529  1  0.161300  0.901500  0.687000  1.0
  C  C530  1  0.785500  0.098500  0.259800  1.0
  C  C531  1  0.214500  0.474300  0.313000  1.0
  C  C532  1  0.838700  0.525700  0.740200  1.0
  C  C533  1  0.474300  0.214500  0.313000  1.0
  C  C534  1  0.098500  0.785500  0.259800  1.0
  C  C535  1  0.525700  0.838700  0.740200  1.0
  C  C536  1  0.901500  0.161300  0.687000  1.0
  C  C537  1  0.189500  0.894600  0.637300  1.0
  C  C538  1  0.742700  0.105400  0.294900  1.0
  C  C539  1  0.257300  0.552200  0.362700  1.0
  C  C540  1  0.810500  0.447800  0.705100  1.0
  C  C541  1  0.552200  0.257300  0.362700  1.0
  C  C542  1  0.105400  0.742700  0.294900  1.0
  C  C543  1  0.447800  0.810500  0.705100  1.0
  C  C544  1  0.894600  0.189500  0.637300  1.0
  C  C545  1  0.136300  0.058900  0.362000  1.0
  C  C546  1  0.303100  0.941100  0.077400  1.0
  C  C547  1  0.696900  0.774300  0.638000  1.0
  C  C548  1  0.863700  0.225700  0.922600  1.0
  C  C549  1  0.774300  0.696900  0.638000  1.0
  C  C550  1  0.941100  0.303100  0.077400  1.0
  C  C551  1  0.225700  0.863700  0.922600  1.0
  C  C552  1  0.058900  0.136300  0.362000  1.0
  C  C553  1  0.125700  0.088200  0.351500  1.0
  C  C554  1  0.263300  0.911800  0.037500  1.0
  C  C555  1  0.736700  0.774200  0.648500  1.0
  C  C556  1  0.874300  0.225800  0.962500  1.0
  C  C557  1  0.774200  0.736700  0.648500  1.0
  C  C558  1  0.911800  0.263300  0.037500  1.0
  C  C559  1  0.225800  0.874300  0.962500  1.0
  C  C560  1  0.088200  0.125700  0.351500  1.0
  C  C561  1  0.136600  0.100300  0.322900  1.0
  C  C562  1  0.222600  0.899700  0.036300  1.0
  C  C563  1  0.777400  0.813700  0.677100  1.0
  C  C564  1  0.863400  0.186300  0.963700  1.0
  C  C565  1  0.813700  0.777400  0.677100  1.0
  C  C566  1  0.899700  0.222600  0.036300  1.0
  C  C567  1  0.186300  0.863400  0.963700  1.0
  C  C568  1  0.100300  0.136600  0.322900  1.0
  C  C569  1  0.878600  0.801100  0.319500  1.0
  C  C570  1  0.518400  0.198900  0.077500  1.0
  C  C571  1  0.481600  0.559100  0.680500  1.0
  C  C572  1  0.121400  0.440900  0.922500  1.0
  C  C573  1  0.559100  0.481600  0.680500  1.0
  C  C574  1  0.198900  0.518400  0.077500  1.0
  C  C575  1  0.440900  0.121400  0.922500  1.0
  C  C576  1  0.801100  0.878600  0.319500  1.0
  C  C577  1  0.840800  0.802700  0.289900  1.0
  C  C578  1  0.487200  0.197300  0.038100  1.0
  C  C579  1  0.512800  0.550900  0.710100  1.0
  C  C580  1  0.159200  0.449100  0.961900  1.0
  C  C581  1  0.550900  0.512800  0.710100  1.0
  C  C582  1  0.197300  0.487200  0.038100  1.0
  C  C583  1  0.449100  0.159200  0.961900  1.0
  C  C584  1  0.802700  0.840800  0.289900  1.0
  C  C585  1  0.807100  0.774400  0.244500  1.0
  C  C586  1  0.470100  0.225600  0.032700  1.0
  C  C587  1  0.529900  0.562600  0.755500  1.0
  C  C588  1  0.192900  0.437400  0.967300  1.0
  C  C589  1  0.562600  0.529900  0.755500  1.0
  C  C590  1  0.225600  0.470100  0.032700  1.0
  C  C591  1  0.437400  0.192900  0.967300  1.0
  C  C592  1  0.774400  0.807100  0.244500  1.0
  C  C593  1  0.018900  0.983200  0.816100  1.0
  C  C594  1  0.832900  0.016800  0.035700  1.0
  C  C595  1  0.167100  0.202800  0.183900  1.0
  C  C596  1  0.981100  0.797200  0.964300  1.0
  C  C597  1  0.202800  0.167100  0.183900  1.0
  C  C598  1  0.016800  0.832900  0.035700  1.0
  C  C599  1  0.797200  0.981100  0.964300  1.0
  C  C600  1  0.983200  0.018900  0.816100  1.0
  C  C601  1  0.008900  0.972600  0.837700  1.0
  C  C602  1  0.865100  0.027400  0.036300  1.0
  C  C603  1  0.134900  0.171200  0.162300  1.0
  C  C604  1  0.991100  0.828800  0.963700  1.0
  C  C605  1  0.171200  0.134900  0.162300  1.0
  C  C606  1  0.027400  0.865100  0.036300  1.0
  C  C607  1  0.828800  0.991100  0.963700  1.0
  C  C608  1  0.972600  0.008900  0.837700  1.0
  C  C609  1  0.043300  0.964700  0.793400  1.0
  C  C610  1  0.828700  0.035300  0.078600  1.0
  C  C611  1  0.171300  0.249900  0.206600  1.0
  C  C612  1  0.956700  0.750100  0.921400  1.0
  C  C613  1  0.249900  0.171300  0.206600  1.0
  C  C614  1  0.035300  0.828700  0.078600  1.0
  C  C615  1  0.750100  0.956700  0.921400  1.0
  C  C616  1  0.964700  0.043300  0.793400  1.0
  C  C617  1  0.342500  0.274400  0.675700  1.0
  C  C618  1  0.401300  0.725600  0.068100  1.0
  C  C619  1  0.598700  0.666800  0.324300  1.0
  C  C620  1  0.657500  0.333200  0.931900  1.0
  C  C621  1  0.666800  0.598700  0.324300  1.0
  C  C622  1  0.725600  0.401300  0.068100  1.0
  C  C623  1  0.333200  0.657500  0.931900  1.0
  C  C624  1  0.274400  0.342500  0.675700  1.0
  C  C625  1  0.338500  0.305400  0.677300  1.0
  C  C626  1  0.371900  0.694600  0.033100  1.0
  C  C627  1  0.628100  0.661200  0.322700  1.0
  C  C628  1  0.661500  0.338800  0.966900  1.0
  C  C629  1  0.661200  0.628100  0.322700  1.0
  C  C630  1  0.694600  0.371900  0.033100  1.0
  C  C631  1  0.338800  0.661500  0.966900  1.0
  C  C632  1  0.305400  0.338500  0.677300  1.0
  C  C633  1  0.377500  0.341800  0.682900  1.0
  C  C634  1  0.341100  0.658200  0.035700  1.0
  C  C635  1  0.658900  0.694600  0.317100  1.0
  C  C636  1  0.622500  0.305400  0.964300  1.0
  C  C637  1  0.694600  0.658900  0.317100  1.0
  C  C638  1  0.658200  0.341100  0.035700  1.0
  C  C639  1  0.305400  0.622500  0.964300  1.0
  C  C640  1  0.341800  0.377500  0.682900  1.0
  C  C641  1  0.226600  0.173400  0.876200  1.0
  C  C642  1  0.702800  0.826600  0.053200  1.0
  C  C643  1  0.297200  0.350400  0.123800  1.0
  C  C644  1  0.773400  0.649600  0.946800  1.0
  C  C645  1  0.350400  0.297200  0.123800  1.0
  C  C646  1  0.826600  0.702800  0.053200  1.0
  C  C647  1  0.649600  0.773400  0.946800  1.0
  C  C648  1  0.173400  0.226600  0.876200  1.0
  C  C649  1  0.160700  0.015500  0.824800  1.0
  C  C650  1  0.809300  0.984500  0.145200  1.0
  C  C651  1  0.190700  0.335900  0.175200  1.0
  C  C652  1  0.839300  0.664100  0.854800  1.0
  C  C653  1  0.335900  0.190700  0.175200  1.0
  C  C654  1  0.984500  0.809300  0.145200  1.0
  C  C655  1  0.664100  0.839300  0.854800  1.0
  C  C656  1  0.015500  0.160700  0.824800  1.0
  C  C657  1  0.192400  0.094300  0.849900  1.0
  C  C658  1  0.755600  0.905700  0.098100  1.0
  C  C659  1  0.244400  0.342500  0.150100  1.0
  C  C660  1  0.807600  0.657500  0.901900  1.0
  C  C661  1  0.342500  0.244400  0.150100  1.0
  C  C662  1  0.905700  0.755600  0.098100  1.0
  C  C663  1  0.657500  0.807600  0.901900  1.0
  C  C664  1  0.094300  0.192400  0.849900  1.0
  C  C665  1  0.186900  0.059800  0.855500  1.0
  C  C666  1  0.795700  0.940200  0.127100  1.0
  C  C667  1  0.204300  0.331400  0.144500  1.0
  C  C668  1  0.813100  0.668600  0.872900  1.0
  C  C669  1  0.331400  0.204300  0.144500  1.0
  C  C670  1  0.940200  0.795700  0.127100  1.0
  C  C671  1  0.668600  0.813100  0.872900  1.0
  C  C672  1  0.059800  0.186900  0.855500  1.0
  C  C673  1  0.211900  0.065600  0.892700  1.0
  C  C674  1  0.827100  0.934400  0.146300  1.0
  C  C675  1  0.172900  0.319200  0.107300  1.0
  C  C676  1  0.788100  0.680800  0.853700  1.0
  C  C677  1  0.319200  0.172900  0.107300  1.0
  C  C678  1  0.934400  0.827100  0.146300  1.0
  C  C679  1  0.680800  0.788100  0.853700  1.0
  C  C680  1  0.065600  0.211900  0.892700  1.0
  C  C681  1  0.242400  0.105900  0.924500  1.0
  C  C682  1  0.818600  0.894100  0.136500  1.0
  C  C683  1  0.181400  0.317900  0.075500  1.0
  C  C684  1  0.757600  0.682100  0.863500  1.0
  C  C685  1  0.317900  0.181400  0.075500  1.0
  C  C686  1  0.894100  0.818600  0.136500  1.0
  C  C687  1  0.682100  0.757600  0.863500  1.0
  C  C688  1  0.105900  0.242400  0.924500  1.0
  C  C689  1  0.248000  0.140400  0.919000  1.0
  C  C690  1  0.778600  0.859600  0.107600  1.0
  C  C691  1  0.221400  0.329000  0.081000  1.0
  C  C692  1  0.752000  0.671000  0.892400  1.0
  C  C693  1  0.329000  0.221400  0.081000  1.0
  C  C694  1  0.859600  0.778600  0.107600  1.0
  C  C695  1  0.671000  0.752000  0.892400  1.0
  C  C696  1  0.140400  0.248000  0.919000  1.0
  C  C697  1  0.223000  0.134600  0.881800  1.0
  C  C698  1  0.747200  0.865400  0.088400  1.0
  C  C699  1  0.252800  0.341200  0.118200  1.0
  C  C700  1  0.777000  0.658800  0.911600  1.0
  C  C701  1  0.341200  0.252800  0.118200  1.0
  C  C702  1  0.865400  0.747200  0.088400  1.0
  C  C703  1  0.658800  0.777000  0.911600  1.0
  C  C704  1  0.134600  0.223000  0.881800  1.0
  C  C705  1  0.349100  0.134800  0.670500  1.0
  C  C706  1  0.535700  0.865200  0.214300  1.0
  C  C707  1  0.464300  0.678600  0.329500  1.0
  C  C708  1  0.650900  0.321400  0.785700  1.0
  C  C709  1  0.678600  0.464300  0.329500  1.0
  C  C710  1  0.865200  0.535700  0.214300  1.0
  C  C711  1  0.321400  0.650900  0.785700  1.0
  C  C712  1  0.134800  0.349100  0.670500  1.0
  C  C713  1  0.352400  0.095300  0.665700  1.0
  C  C714  1  0.570400  0.904700  0.257100  1.0
  C  C715  1  0.429600  0.686700  0.334300  1.0
  C  C716  1  0.647600  0.313300  0.742900  1.0
  C  C717  1  0.686700  0.429600  0.334300  1.0
  C  C718  1  0.904700  0.570400  0.257100  1.0
  C  C719  1  0.313300  0.647600  0.742900  1.0
  C  C720  1  0.095300  0.352400  0.665700  1.0
  C  C721  1  0.389000  0.094900  0.674700  1.0
  C  C722  1  0.579800  0.905100  0.294100  1.0
  C  C723  1  0.420200  0.714300  0.325300  1.0
  C  C724  1  0.611000  0.285700  0.705900  1.0
  C  C725  1  0.714300  0.420200  0.325300  1.0
  C  C726  1  0.905100  0.579800  0.294100  1.0
  C  C727  1  0.285700  0.611000  0.705900  1.0
  C  C728  1  0.094900  0.389000  0.674700  1.0
  C  C729  1  0.387500  0.057400  0.667100  1.0
  C  C730  1  0.609700  0.942600  0.330100  1.0
  C  C731  1  0.390300  0.720400  0.332900  1.0
  C  C732  1  0.612500  0.279600  0.669900  1.0
  C  C733  1  0.720400  0.390300  0.332900  1.0
  C  C734  1  0.942600  0.609700  0.330100  1.0
  C  C735  1  0.279600  0.612500  0.669900  1.0
  C  C736  1  0.057400  0.387500  0.667100  1.0
  C  C737  1  0.349400  0.020500  0.650500  1.0
  C  C738  1  0.630000  0.979500  0.328900  1.0
  C  C739  1  0.370000  0.698900  0.349500  1.0
  C  C740  1  0.650600  0.301100  0.671100  1.0
  C  C741  1  0.698900  0.370000  0.349500  1.0
  C  C742  1  0.979500  0.630000  0.328900  1.0
  C  C743  1  0.301100  0.650600  0.671100  1.0
  C  C744  1  0.020500  0.349400  0.650500  1.0
  C  C745  1  0.312800  0.021000  0.641600  1.0
  C  C746  1  0.620600  0.979000  0.291800  1.0
  C  C747  1  0.379400  0.671200  0.358400  1.0
  C  C748  1  0.687200  0.328800  0.708200  1.0
  C  C749  1  0.671200  0.379400  0.358400  1.0
  C  C750  1  0.979000  0.620600  0.291800  1.0
  C  C751  1  0.328800  0.687200  0.708200  1.0
  C  C752  1  0.021000  0.312800  0.641600  1.0
  C  C753  1  0.314400  0.058400  0.649200  1.0
  C  C754  1  0.590800  0.941600  0.256000  1.0
  C  C755  1  0.409200  0.665200  0.350800  1.0
  C  C756  1  0.685600  0.334800  0.744000  1.0
  C  C757  1  0.665200  0.409200  0.350800  1.0
  C  C758  1  0.941600  0.590800  0.256000  1.0
  C  C759  1  0.334800  0.685600  0.744000  1.0
  C  C760  1  0.058400  0.314400  0.649200  1.0
  C  C761  1  0.266400  0.974400  0.622000  1.0
  C  C762  1  0.647600  0.025600  0.292000  1.0
  C  C763  1  0.352400  0.644400  0.378000  1.0
  C  C764  1  0.733600  0.355600  0.708000  1.0
  C  C765  1  0.644400  0.352400  0.378000  1.0
  C  C766  1  0.025600  0.647600  0.292000  1.0
  C  C767  1  0.355600  0.733600  0.708000  1.0
  C  C768  1  0.974400  0.266400  0.622000  1.0
  H  H769  1  0.138200  0.138200  0.297000  1
  H  H770  1  0.158800  0.861800  0.000000  1
  H  H771  1  0.841200  0.841200  0.703000  1
  H  H772  1  0.861800  0.158800  0.000000  1
  H  H773  1  0.096200  0.096200  0.381400  1
  H  H774  1  0.285200  0.903800  0.000000  1
  H  H775  1  0.714800  0.714800  0.618600  1
  H  H776  1  0.903800  0.285200  0.000000  1
  H  H777  1  0.853500  0.853500  0.336800  1
  H  H778  1  0.483300  0.146500  0.000000  1
  H  H779  1  0.516700  0.516700  0.663200  1
  H  H780  1  0.146500  0.483300  0.000000  1
  H  H781  1  0.752100  0.752100  0.192000  1
  H  H782  1  0.439900  0.247900  0.000000  1
  H  H783  1  0.560100  0.560100  0.808000  1
  H  H784  1  0.247900  0.439900  0.000000  1
  H  H785  1  0.996600  0.996600  0.883000  1
  H  H786  1  0.886400  0.003400  1.000000  1
  H  H787  1  0.113600  0.113600  0.117000  1
  H  H788  1  0.003400  0.886400  0.000000  1
  H  H789  1  0.004200  0.004200  0.774000  1
  H  H790  1  0.769800  0.995800  1.000000  1
  H  H791  1  0.230200  0.230200  0.226000  1
  H  H792  1  0.995800  0.769800  1.000000  1
  H  H793  1  0.403700  0.403700  0.690600  1
  H  H794  1  0.286900  0.596300  0.000000  1
  H  H795  1  0.713100  0.713100  0.309400  1
  H  H796  1  0.596300  0.286900  0.000000  1
  H  H797  1  0.285000  0.285000  0.670000  1
  H  H798  1  0.385000  0.715000  0.000000  1
  H  H799  1  0.615000  0.615000  0.330000  1
  H  H800  1  0.715000  0.385000  0.000000  1
  H  H801  1  0.772000  0.681500  0.427700  1.0
  H  H802  1  0.746200  0.318500  0.090500  1.0
  H  H803  1  0.253800  0.344300  0.572300  1.0
  H  H804  1  0.228000  0.655700  0.909500  1.0
  H  H805  1  0.344300  0.253800  0.572300  1.0
  H  H806  1  0.318500  0.746200  0.090500  1.0
  H  H807  1  0.655700  0.228000  0.909500  1.0
  H  H808  1  0.681500  0.772000  0.427700  1.0
  H  H809  1  0.771300  0.644800  0.368900  1.0
  H  H810  1  0.724100  0.355200  0.126500  1.0
  H  H811  1  0.275900  0.402400  0.631100  1.0
  H  H812  1  0.228700  0.597600  0.873500  1.0
  H  H813  1  0.402400  0.275900  0.631100  1.0
  H  H814  1  0.355200  0.724100  0.126500  1.0
  H  H815  1  0.597600  0.228700  0.873500  1.0
  H  H816  1  0.644800  0.771300  0.368900  1.0
  H  H817  1  0.821100  0.679100  0.352400  1.0
  H  H818  1  0.673300  0.320900  0.142000  1.0
  H  H819  1  0.326700  0.468700  0.647600  1.0
  H  H820  1  0.178900  0.531300  0.858000  1.0
  H  H821  1  0.468700  0.326700  0.647600  1.0
  H  H822  1  0.320900  0.673300  0.142000  1.0
  H  H823  1  0.531300  0.178900  0.858000  1.0
  H  H824  1  0.679100  0.821100  0.352400  1.0
  H  H825  1  0.872100  0.786700  0.453400  1.0
  H  H826  1  0.666700  0.213300  0.085400  1.0
  H  H827  1  0.333300  0.418700  0.546600  1.0
  H  H828  1  0.127900  0.581300  0.914600  1.0
  H  H829  1  0.418700  0.333300  0.546600  1.0
  H  H830  1  0.213300  0.666700  0.085400  1.0
  H  H831  1  0.581300  0.127900  0.914600  1.0
  H  H832  1  0.786700  0.872100  0.453400  1.0
  H  H833  1  0.041800  0.892400  0.353600  1.0
  H  H834  1  0.461200  0.107600  0.149400  1.0
  H  H835  1  0.538800  0.688200  0.646400  1.0
  H  H836  1  0.958200  0.311800  0.850600  1.0
  H  H837  1  0.688200  0.538800  0.646400  1.0
  H  H838  1  0.107600  0.461200  0.149400  1.0
  H  H839  1  0.311800  0.958200  0.850600  1.0
  H  H840  1  0.892400  0.041800  0.353600  1.0
  H  H841  1  0.059800  0.886700  0.257900  1.0
  H  H842  1  0.371200  0.113300  0.173100  1.0
  H  H843  1  0.628800  0.801900  0.742100  1.0
  H  H844  1  0.940200  0.198100  0.826900  1.0
  H  H845  1  0.801900  0.628800  0.742100  1.0
  H  H846  1  0.113300  0.371200  0.173100  1.0
  H  H847  1  0.198100  0.940200  0.826900  1.0
  H  H848  1  0.886700  0.059800  0.257900  1.0
  H  H849  1  0.002000  0.818700  0.217900  1.0
  H  H850  1  0.399200  0.181300  0.183300  1.0
  H  H851  1  0.600800  0.784100  0.782100  1.0
  H  H852  1  0.998000  0.215900  0.816700  1.0
  H  H853  1  0.784100  0.600800  0.782100  1.0
  H  H854  1  0.181300  0.399200  0.183300  1.0
  H  H855  1  0.215900  0.998000  0.816700  1.0
  H  H856  1  0.818700  0.002000  0.217900  1.0
  H  H857  1  0.964000  0.787500  0.245700  1.0
  H  H858  1  0.458200  0.212500  0.176500  1.0
  H  H859  1  0.541800  0.718300  0.754300  1.0
  H  H860  1  0.036000  0.281700  0.823500  1.0
  H  H861  1  0.718300  0.541800  0.754300  1.0
  H  H862  1  0.212500  0.458200  0.176500  1.0
  H  H863  1  0.281700  0.036000  0.823500  1.0
  H  H864  1  0.787500  0.964000  0.245700  1.0
  H  H865  1  0.270000  0.123000  0.527800  1.0
  H  H866  1  0.404800  0.877000  0.147000  1.0
  H  H867  1  0.595200  0.742200  0.472200  1.0
  H  H868  1  0.730000  0.257800  0.853000  1.0
  H  H869  1  0.742200  0.595200  0.472200  1.0
  H  H870  1  0.877000  0.404800  0.147000  1.0
  H  H871  1  0.257800  0.730000  0.853000  1.0
  H  H872  1  0.123000  0.270000  0.527800  1.0
  H  H873  1  0.393700  0.201000  0.573100  1.0
  H  H874  1  0.372100  0.799000  0.192700  1.0
  H  H875  1  0.627900  0.820600  0.426900  1.0
  H  H876  1  0.606300  0.179400  0.807300  1.0
  H  H877  1  0.820600  0.627900  0.426900  1.0
  H  H878  1  0.799000  0.372100  0.192700  1.0
  H  H879  1  0.179400  0.606300  0.807300  1.0
  H  H880  1  0.201000  0.393700  0.573100  1.0
  H  H881  1  0.384000  0.182500  0.507700  1.0
  H  H882  1  0.325200  0.817500  0.201500  1.0
  H  H883  1  0.674800  0.876300  0.492300  1.0
  H  H884  1  0.616000  0.123700  0.798500  1.0
  H  H885  1  0.876300  0.674800  0.492300  1.0
  H  H886  1  0.817500  0.325200  0.201500  1.0
  H  H887  1  0.123700  0.616000  0.798500  1.0
  H  H888  1  0.182500  0.384000  0.507700  1.0
  H  H889  1  0.317400  0.134300  0.452500  1.0
  H  H890  1  0.318200  0.865700  0.183100  1.0
  H  H891  1  0.681800  0.864900  0.547500  1.0
  H  H892  1  0.682600  0.135100  0.816900  1.0
  H  H893  1  0.864900  0.681800  0.547500  1.0
  H  H894  1  0.865700  0.318200  0.183100  1.0
  H  H895  1  0.135100  0.682600  0.816900  1.0
  H  H896  1  0.134300  0.317400  0.452500  1.0
  H  H897  1  0.423800  0.270900  0.819900  1.0
  H  H898  1  0.549000  0.729100  0.152900  1.0
  H  H899  1  0.451000  0.603900  0.180100  1.0
  H  H900  1  0.576200  0.396100  0.847100  1.0
  H  H901  1  0.603900  0.451000  0.180100  1.0
  H  H902  1  0.729100  0.549000  0.152900  1.0
  H  H903  1  0.396100  0.576200  0.847100  1.0
  H  H904  1  0.270900  0.423800  0.819900  1.0
  H  H905  1  0.436200  0.300500  0.886300  1.0
  H  H906  1  0.585800  0.699500  0.135700  1.0
  H  H907  1  0.414200  0.549900  0.113700  1.0
  H  H908  1  0.563800  0.450100  0.864300  1.0
  H  H909  1  0.549900  0.414200  0.113700  1.0
  H  H910  1  0.699500  0.585800  0.135700  1.0
  H  H911  1  0.450100  0.563800  0.864300  1.0
  H  H912  1  0.300500  0.436200  0.886300  1.0
  H  H913  1  0.380400  0.290400  0.899000  1.0
  H  H914  1  0.608600  0.709600  0.090000  1.0
  H  H915  1  0.391400  0.481400  0.101000  1.0
  H  H916  1  0.619600  0.518600  0.910000  1.0
  H  H917  1  0.481400  0.391400  0.101000  1.0
  H  H918  1  0.709600  0.608600  0.090000  1.0
  H  H919  1  0.518600  0.619600  0.910000  1.0
  H  H920  1  0.290400  0.380400  0.899000  1.0
  H  H921  1  0.300200  0.221200  0.779200  1.0
  H  H922  1  0.558000  0.778800  0.079000  1.0
  H  H923  1  0.442000  0.521000  0.220800  1.0
  H  H924  1  0.699800  0.479000  0.921000  1.0
  H  H925  1  0.521000  0.442000  0.220800  1.0
  H  H926  1  0.778800  0.558000  0.079000  1.0
  H  H927  1  0.479000  0.699800  0.921000  1.0
  H  H928  1  0.221200  0.300200  0.779200  1.0
  H  H929  1  0.963000  0.787700  0.707100  1.0
  H  H930  1  0.919400  0.212300  0.175300  1.0
  H  H931  1  0.080600  0.255900  0.292900  1.0
  H  H932  1  0.037000  0.744100  0.824700  1.0
  H  H933  1  0.255900  0.080600  0.292900  1.0
  H  H934  1  0.212300  0.919400  0.175300  1.0
  H  H935  1  0.744100  0.037000  0.824700  1.0
  H  H936  1  0.787700  0.963000  0.707100  1.0
  H  H937  1  0.891500  0.739400  0.664900  1.0
  H  H938  1  0.925500  0.260600  0.152100  1.0
  H  H939  1  0.074500  0.226600  0.335100  1.0
  H  H940  1  0.108500  0.773400  0.847900  1.0
  H  H941  1  0.226600  0.074500  0.335100  1.0
  H  H942  1  0.260600  0.925500  0.152100  1.0
  H  H943  1  0.773400  0.108500  0.847900  1.0
  H  H944  1  0.739400  0.891500  0.664900  1.0
  H  H945  1  0.853100  0.750200  0.616500  1.0
  H  H946  1  0.866300  0.249800  0.102900  1.0
  H  H947  1  0.133700  0.236600  0.383500  1.0
  H  H948  1  0.146900  0.763400  0.897100  1.0
  H  H949  1  0.236600  0.133700  0.383500  1.0
  H  H950  1  0.249800  0.866300  0.102900  1.0
  H  H951  1  0.763400  0.146900  0.897100  1.0
  H  H952  1  0.750200  0.853100  0.616500  1.0
  H  H953  1  0.957600  0.857500  0.652500  1.0
  H  H954  1  0.795000  0.142500  0.100100  1.0
  H  H955  1  0.205000  0.305100  0.347500  1.0
  H  H956  1  0.042400  0.694900  0.899900  1.0
  H  H957  1  0.305100  0.205000  0.347500  1.0
  H  H958  1  0.142500  0.795000  0.100100  1.0
  H  H959  1  0.694900  0.042400  0.899900  1.0
  H  H960  1  0.857500  0.957600  0.652500  1.0
  H  H961  1  0.096100  0.751300  0.485400  1.0
  H  H962  1  0.734100  0.248700  0.344800  1.0
  H  H963  1  0.265900  0.610700  0.514600  1.0
  H  H964  1  0.903900  0.389300  0.655200  1.0
  H  H965  1  0.610700  0.265900  0.514600  1.0
  H  H966  1  0.248700  0.734100  0.344800  1.0
  H  H967  1  0.389300  0.903900  0.655200  1.0
  H  H968  1  0.751300  0.096100  0.485400  1.0
  H  H969  1  0.036500  0.694500  0.426200  1.0
  H  H970  1  0.731700  0.305500  0.342000  1.0
  H  H971  1  0.268300  0.610300  0.573800  1.0
  H  H972  1  0.963500  0.389700  0.658000  1.0
  H  H973  1  0.610300  0.268300  0.573800  1.0
  H  H974  1  0.305500  0.731700  0.342000  1.0
  H  H975  1  0.389700  0.963500  0.658000  1.0
  H  H976  1  0.694500  0.036500  0.426200  1.0
  H  H977  1  0.986600  0.703800  0.388200  1.0
  H  H978  1  0.684400  0.296200  0.282800  1.0
  H  H979  1  0.315600  0.598400  0.611800  1.0
  H  H980  1  0.013400  0.401600  0.717200  1.0
  H  H981  1  0.598400  0.315600  0.611800  1.0
  H  H982  1  0.296200  0.684400  0.282800  1.0
  H  H983  1  0.401600  0.013400  0.717200  1.0
  H  H984  1  0.703800  0.986600  0.388200  1.0
  H  H985  1  0.055700  0.826700  0.468600  1.0
  H  H986  1  0.641900  0.173300  0.229000  1.0
  H  H987  1  0.358100  0.587100  0.531400  1.0
  H  H988  1  0.944300  0.412900  0.771000  1.0
  H  H989  1  0.587100  0.358100  0.531400  1.0
  H  H990  1  0.173300  0.641900  0.229000  1.0
  H  H991  1  0.412900  0.944300  0.771000  1.0
  H  H992  1  0.826700  0.055700  0.468600  1.0
  H  H993  1  0.247200  0.891000  0.470200  1.0
  H  H994  1  0.579200  0.109000  0.356200  1.0
  H  H995  1  0.420800  0.777000  0.529800  1.0
  H  H996  1  0.752800  0.223000  0.643800  1.0
  H  H997  1  0.777000  0.420800  0.529800  1.0
  H  H998  1  0.109000  0.579200  0.356200  1.0
  H  H999  1  0.223000  0.752800  0.643800  1.0
  H  H1000  1  0.891000  0.247200  0.470200  1.0
  H  H1001  1  0.262800  0.908100  0.423500  1.0
  H  H1002  1  0.515400  0.091900  0.354700  1.0
  H  H1003  1  0.484600  0.839300  0.576500  1.0
  H  H1004  1  0.737200  0.160700  0.645300  1.0
  H  H1005  1  0.839300  0.484600  0.576500  1.0
  H  H1006  1  0.091900  0.515400  0.354700  1.0
  H  H1007  1  0.160700  0.737200  0.645300  1.0
  H  H1008  1  0.908100  0.262800  0.423500  1.0
  H  H1009  1  0.240700  0.947800  0.401900  1.0
  H  H1010  1  0.454100  0.052200  0.292900  1.0
  H  H1011  1  0.545900  0.838800  0.598100  1.0
  H  H1012  1  0.759300  0.161200  0.707100  1.0
  H  H1013  1  0.838800  0.545900  0.598100  1.0
  H  H1014  1  0.052200  0.454100  0.292900  1.0
  H  H1015  1  0.161200  0.759300  0.707100  1.0
  H  H1016  1  0.947800  0.240700  0.401900  1.0
  H  H1017  1  0.187800  0.953300  0.473900  1.0
  H  H1018  1  0.520600  0.046700  0.234500  1.0
  H  H1019  1  0.479400  0.713900  0.526100  1.0
  H  H1020  1  0.812200  0.286100  0.765500  1.0
  H  H1021  1  0.713900  0.479400  0.526100  1.0
  H  H1022  1  0.046700  0.520600  0.234500  1.0
  H  H1023  1  0.286100  0.812200  0.765500  1.0
  H  H1024  1  0.953300  0.187800  0.473900  1.0
  H  H1025  1  0.163400  0.872600  0.755800  1.0
  H  H1026  1  0.883200  0.127400  0.290800  1.0
  H  H1027  1  0.116800  0.407600  0.244200  1.0
  H  H1028  1  0.836600  0.592400  0.709200  1.0
  H  H1029  1  0.407600  0.116800  0.244200  1.0
  H  H1030  1  0.127400  0.883200  0.290800  1.0
  H  H1031  1  0.592400  0.836600  0.709200  1.0
  H  H1032  1  0.872600  0.163400  0.755800  1.0
  H  H1033  1  0.201800  0.848200  0.734600  1.0
  H  H1034  1  0.886400  0.151800  0.353600  1.0
  H  H1035  1  0.113600  0.467200  0.265400  1.0
  H  H1036  1  0.798200  0.532800  0.646400  1.0
  H  H1037  1  0.467200  0.113600  0.265400  1.0
  H  H1038  1  0.151800  0.886400  0.353600  1.0
  H  H1039  1  0.532800  0.798200  0.646400  1.0
  H  H1040  1  0.848200  0.201800  0.734600  1.0
  H  H1041  1  0.215000  0.857100  0.683700  1.0
  H  H1042  1  0.826600  0.142900  0.357900  1.0
  H  H1043  1  0.173400  0.531300  0.316300  1.0
  H  H1044  1  0.785000  0.468700  0.642100  1.0
  H  H1045  1  0.531300  0.173400  0.316300  1.0
  H  H1046  1  0.142900  0.826600  0.357900  1.0
  H  H1047  1  0.468700  0.785000  0.642100  1.0
  H  H1048  1  0.857100  0.215000  0.683700  1.0
  H  H1049  1  0.151100  0.914800  0.675100  1.0
  H  H1050  1  0.760300  0.085200  0.236300  1.0
  H  H1051  1  0.239700  0.476000  0.324900  1.0
  H  H1052  1  0.848900  0.524000  0.763700  1.0
  H  H1053  1  0.476000  0.239700  0.324900  1.0
  H  H1054  1  0.085200  0.760300  0.236300  1.0
  H  H1055  1  0.524000  0.848900  0.763700  1.0
  H  H1056  1  0.914800  0.151100  0.675100  1.0
  H  H1057  1  0.150300  0.089700  0.311800  1.0
  H  H1058  1  0.222100  0.910300  0.060600  1.0
  H  H1059  1  0.777900  0.838500  0.688200  1.0
  H  H1060  1  0.849700  0.161500  0.939400  1.0
  H  H1061  1  0.838500  0.777900  0.688200  1.0
  H  H1062  1  0.910300  0.222100  0.060600  1.0
  H  H1063  1  0.161500  0.849700  0.939400  1.0
  H  H1064  1  0.089700  0.150300  0.311800  1.0
  H  H1065  1  0.811500  0.754100  0.231000  1.0
  H  H1066  1  0.476900  0.245900  0.057400  1.0
  H  H1067  1  0.523100  0.580500  0.769000  1.0
  H  H1068  1  0.188500  0.419500  0.942600  1.0
  H  H1069  1  0.580500  0.523100  0.769000  1.0
  H  H1070  1  0.245900  0.476900  0.057400  1.0
  H  H1071  1  0.419500  0.188500  0.942600  1.0
  H  H1072  1  0.754100  0.811500  0.231000  1.0
  H  H1073  1  0.011200  0.951400  0.841600  1.0
  H  H1074  1  0.890200  0.048600  0.059800  1.0
  H  H1075  1  0.109800  0.169600  0.158400  1.0
  H  H1076  1  0.988800  0.830400  0.940200  1.0
  H  H1077  1  0.169600  0.109800  0.158400  1.0
  H  H1078  1  0.048600  0.890200  0.059800  1.0
  H  H1079  1  0.830400  0.988800  0.940200  1.0
  H  H1080  1  0.951400  0.011200  0.841600  1.0
  H  H1081  1  0.399900  0.338800  0.683900  1.0
  H  H1082  1  0.345100  0.661200  0.061100  1.0
  H  H1083  1  0.654900  0.716000  0.316100  1.0
  H  H1084  1  0.600100  0.284000  0.938900  1.0
  H  H1085  1  0.716000  0.654900  0.316100  1.0
  H  H1086  1  0.661200  0.345100  0.061100  1.0
  H  H1087  1  0.284000  0.600100  0.938900  1.0
  H  H1088  1  0.338800  0.399900  0.683900  1.0
  H  H1089  1  0.175600  0.090300  0.824900  1.0
  H  H1090  1  0.734600  0.909700  0.085300  1.0
  H  H1091  1  0.265400  0.350700  0.175100  1.0
  H  H1092  1  0.824400  0.649300  0.914700  1.0
  H  H1093  1  0.350700  0.265400  0.175100  1.0
  H  H1094  1  0.909700  0.734600  0.085300  1.0
  H  H1095  1  0.649300  0.824400  0.914700  1.0
  H  H1096  1  0.090300  0.175600  0.824900  1.0
  H  H1097  1  0.208200  0.042600  0.896400  1.0
  H  H1098  1  0.853800  0.957400  0.165600  1.0
  H  H1099  1  0.146200  0.311800  0.103600  1.0
  H  H1100  1  0.791800  0.688200  0.834400  1.0
  H  H1101  1  0.311800  0.146200  0.103600  1.0
  H  H1102  1  0.957400  0.853800  0.165600  1.0
  H  H1103  1  0.688200  0.791800  0.834400  1.0
  H  H1104  1  0.042600  0.208200  0.896400  1.0
  H  H1105  1  0.259200  0.109900  0.949500  1.0
  H  H1106  1  0.839600  0.890100  0.149300  1.0
  H  H1107  1  0.160400  0.309700  0.050500  1.0
  H  H1108  1  0.740800  0.690300  0.850700  1.0
  H  H1109  1  0.309700  0.160400  0.050500  1.0
  H  H1110  1  0.890100  0.839600  0.149300  1.0
  H  H1111  1  0.690300  0.740800  0.850700  1.0
  H  H1112  1  0.109900  0.259200  0.949500  1.0
  H  H1113  1  0.268500  0.167400  0.940300  1.0
  H  H1114  1  0.772900  0.832600  0.101100  1.0
  H  H1115  1  0.227100  0.328200  0.059700  1.0
  H  H1116  1  0.731500  0.671800  0.898900  1.0
  H  H1117  1  0.328200  0.227100  0.059700  1.0
  H  H1118  1  0.832600  0.772900  0.101100  1.0
  H  H1119  1  0.671800  0.731500  0.898900  1.0
  H  H1120  1  0.167400  0.268500  0.940300  1.0
  H  H1121  1  0.414500  0.119600  0.685700  1.0
  H  H1122  1  0.566100  0.880400  0.294900  1.0
  H  H1123  1  0.433900  0.728800  0.314300  1.0
  H  H1124  1  0.585500  0.271200  0.705100  1.0
  H  H1125  1  0.728800  0.433900  0.314300  1.0
  H  H1126  1  0.880400  0.566100  0.294900  1.0
  H  H1127  1  0.271200  0.585500  0.705100  1.0
  H  H1128  1  0.119600  0.414500  0.685700  1.0
  H  H1129  1  0.412000  0.057100  0.673100  1.0
  H  H1130  1  0.616000  0.942900  0.354900  1.0
  H  H1131  1  0.384000  0.738900  0.326900  1.0
  H  H1132  1  0.588000  0.261100  0.645100  1.0
  H  H1133  1  0.738900  0.384000  0.326900  1.0
  H  H1134  1  0.942900  0.616000  0.354900  1.0
  H  H1135  1  0.261100  0.588000  0.645100  1.0
  H  H1136  1  0.057100  0.412000  0.673100  1.0
  H  H1137  1  0.348400  0.995500  0.645500  1.0
  H  H1138  1  0.650000  0.004500  0.352900  1.0
  H  H1139  1  0.350000  0.702900  0.354500  1.0
  H  H1140  1  0.651600  0.297100  0.647100  1.0
  H  H1141  1  0.702900  0.350000  0.354500  1.0
  H  H1142  1  0.004500  0.650000  0.352900  1.0
  H  H1143  1  0.297100  0.651600  0.647100  1.0
  H  H1144  1  0.995500  0.348400  0.645500  1.0
  H  H1145  1  0.289900  0.058700  0.643200  1.0
  H  H1146  1  0.584500  0.941300  0.231200  1.0
  H  H1147  1  0.415500  0.646700  0.356800  1.0
  H  H1148  1  0.710100  0.353300  0.768800  1.0
  H  H1149  1  0.646700  0.415500  0.356800  1.0
  H  H1150  1  0.941300  0.584500  0.231200  1.0
  H  H1151  1  0.353300  0.710100  0.768800  1.0
  H  H1152  1  0.058700  0.289900  0.643200  1.0
  Mo  Mo1153  1  0.843740  0.843740  0.547120  1
  Mo  Mo1154  1  0.703380  0.156260  0.000000  1
  Mo  Mo1155  1  0.296620  0.296620  0.452880  1
  Mo  Mo1156  1  0.156260  0.703380  1.000000  1
  Mo  Mo1157  1  0.790430  0.790430  0.536540  1
  Mo  Mo1158  1  0.746110  0.209570  0.000000  1
  Mo  Mo1159  1  0.253890  0.253890  0.463460  1
  Mo  Mo1160  1  0.209570  0.746110  0.000000  1
  Mo  Mo1161  1  0.254910  0.254910  0.892880  1
  Mo  Mo1162  1  0.637970  0.745090  0.000000  1
  Mo  Mo1163  1  0.362030  0.362030  0.107120  1
  Mo  Mo1164  1  0.745090  0.637970  0.000000  1
  Mo  Mo1165  1  0.213810  0.213810  0.831200  1
  Mo  Mo1166  1  0.617390  0.786190  0.000000  1
  Mo  Mo1167  1  0.382610  0.382610  0.168800  1
  Mo  Mo1168  1  0.786190  0.617390  0.000000  1
  Mo  Mo1169  1  0.177690  0.014450  0.371380  1.0
  Mo  Mo1170  1  0.356930  0.985550  0.163240  1.0
  Mo  Mo1171  1  0.643070  0.806310  0.628620  1.0
  Mo  Mo1172  1  0.822310  0.193690  0.836760  1.0
  Mo  Mo1173  1  0.806310  0.643070  0.628620  1.0
  Mo  Mo1174  1  0.985550  0.356930  0.163240  1.0
  Mo  Mo1175  1  0.193690  0.822310  0.836760  1.0
  Mo  Mo1176  1  0.014450  0.177690  0.371380  1.0
  Mo  Mo1177  1  0.181890  0.921670  0.577260  1.0
  Mo  Mo1178  1  0.655590  0.078330  0.260220  1.0
  Mo  Mo1179  1  0.344410  0.604630  0.422740  1.0
  Mo  Mo1180  1  0.818110  0.395370  0.739780  1.0
  Mo  Mo1181  1  0.604630  0.344410  0.422740  1.0
  Mo  Mo1182  1  0.078330  0.655590  0.260220  1.0
  Mo  Mo1183  1  0.395370  0.818110  0.739780  1.0
  Mo  Mo1184  1  0.921670  0.181890  0.577260  1.0
  Mo  Mo1185  1  0.916880  0.755680  0.332420  1.0
  Mo  Mo1186  1  0.576740  0.244320  0.161200  1.0
  Mo  Mo1187  1  0.423260  0.584460  0.667580  1.0
  Mo  Mo1188  1  0.083120  0.415540  0.838800  1.0
  Mo  Mo1189  1  0.584460  0.423260  0.667580  1.0
  Mo  Mo1190  1  0.244320  0.576740  0.161200  1.0
  Mo  Mo1191  1  0.415540  0.083120  0.838800  1.0
  Mo  Mo1192  1  0.755680  0.916880  0.332420  1.0
  Mo  Mo1193  1  0.153510  0.022010  0.412340  1.0
  Mo  Mo1194  1  0.390330  0.977990  0.131500  1.0
  Mo  Mo1195  1  0.609670  0.741170  0.587660  1.0
  Mo  Mo1196  1  0.846490  0.258830  0.868500  1.0
  Mo  Mo1197  1  0.741170  0.609670  0.587660  1.0
  Mo  Mo1198  1  0.977990  0.390330  0.131500  1.0
  Mo  Mo1199  1  0.258830  0.846490  0.868500  1.0
  Mo  Mo1200  1  0.022010  0.153510  0.412340  1.0
  Mo  Mo1201  1  0.314940  0.184770  0.664370  1.0
  Mo  Mo1202  1  0.479600  0.815230  0.130170  1.0
  Mo  Mo1203  1  0.520400  0.650570  0.335630  1.0
  Mo  Mo1204  1  0.685060  0.349430  0.869830  1.0
  Mo  Mo1205  1  0.650570  0.520400  0.335630  1.0
  Mo  Mo1206  1  0.815230  0.479600  0.130170  1.0
  Mo  Mo1207  1  0.349430  0.685060  0.869830  1.0
  Mo  Mo1208  1  0.184770  0.314940  0.664370  1.0
  Mo  Mo1209  1  0.213350  0.888680  0.577630  1.0
  Mo  Mo1210  1  0.688950  0.111320  0.324670  1.0
  Mo  Mo1211  1  0.311050  0.635720  0.422370  1.0
  Mo  Mo1212  1  0.786650  0.364280  0.675330  1.0
  Mo  Mo1213  1  0.635720  0.311050  0.422370  1.0
  Mo  Mo1214  1  0.111320  0.688950  0.324670  1.0
  Mo  Mo1215  1  0.364280  0.786650  0.675330  1.0
  Mo  Mo1216  1  0.888680  0.213350  0.577630  1.0
  Mo  Mo1217  1  0.945530  0.815620  0.381670  1.0
  Mo  Mo1218  1  0.566050  0.184380  0.129910  1.0
  Mo  Mo1219  1  0.433950  0.563860  0.618330  1.0
  Mo  Mo1220  1  0.054470  0.436140  0.870090  1.0
  Mo  Mo1221  1  0.563860  0.433950  0.618330  1.0
  Mo  Mo1222  1  0.184380  0.566050  0.129910  1.0
  Mo  Mo1223  1  0.436140  0.054470  0.870090  1.0
  Mo  Mo1224  1  0.815620  0.945530  0.381670  1.0
  Mo  Mo1225  1  0.082010  0.950850  0.743920  1.0
  Mo  Mo1226  1  0.793070  0.049150  0.131160  1.0
  Mo  Mo1227  1  0.206930  0.338090  0.256080  1.0
  Mo  Mo1228  1  0.917990  0.661910  0.868840  1.0
  Mo  Mo1229  1  0.338090  0.206930  0.256080  1.0
  Mo  Mo1230  1  0.049150  0.793070  0.131160  1.0
  Mo  Mo1231  1  0.661910  0.917990  0.868840  1.0
  Mo  Mo1232  1  0.950850  0.082010  0.743920  1.0
  Mo  Mo1233  1  0.089390  0.925890  0.784120  1.0
  Mo  Mo1234  1  0.858230  0.074110  0.163500  1.0
  Mo  Mo1235  1  0.141770  0.305270  0.215880  1.0
  Mo  Mo1236  1  0.910610  0.694730  0.836500  1.0
  Mo  Mo1237  1  0.305270  0.141770  0.215880  1.0
  Mo  Mo1238  1  0.074110  0.858230  0.163500  1.0
  Mo  Mo1239  1  0.694730  0.910610  0.836500  1.0
  Mo  Mo1240  1  0.925890  0.089390  0.784120  1.0
  Mo  Mo1241  1  0.380770  0.218700  0.687430  1.0
  Mo  Mo1242  1  0.468730  0.781300  0.162070  1.0
  Mo  Mo1243  1  0.531270  0.693340  0.312570  1.0
  Mo  Mo1244  1  0.619230  0.306660  0.837930  1.0
  Mo  Mo1245  1  0.693340  0.531270  0.312570  1.0
  Mo  Mo1246  1  0.781300  0.468730  0.162070  1.0
  Mo  Mo1247  1  0.306660  0.619230  0.837930  1.0
  Mo  Mo1248  1  0.218700  0.380770  0.687430  1.0
  O  O1249  1  0.173400  0.912800  0.625400  1.0
  O  O1250  1  0.712600  0.087200  0.260600  1.0
  O  O1251  1  0.287400  0.548000  0.374600  1.0
  O  O1252  1  0.826600  0.452000  0.739400  1.0
  O  O1253  1  0.548000  0.287400  0.374600  1.0
  O  O1254  1  0.087200  0.712600  0.260600  1.0
  O  O1255  1  0.452000  0.826600  0.739400  1.0
  O  O1256  1  0.912800  0.173400  0.625400  1.0
  O  O1257  1  0.206900  0.880500  0.624600  1.0
  O  O1258  1  0.744100  0.119500  0.326400  1.0
  O  O1259  1  0.255900  0.582300  0.375400  1.0
  O  O1260  1  0.793100  0.417700  0.673600  1.0
  O  O1261  1  0.582300  0.255900  0.375400  1.0
  O  O1262  1  0.119500  0.744100  0.326400  1.0
  O  O1263  1  0.417700  0.793100  0.673600  1.0
  O  O1264  1  0.880500  0.206900  0.624600  1.0
  O  O1265  1  0.189000  0.930500  0.529300  1.0
  O  O1266  1  0.598800  0.069500  0.258500  1.0
  O  O1267  1  0.401200  0.659700  0.470700  1.0
  O  O1268  1  0.811000  0.340300  0.741500  1.0
  O  O1269  1  0.659700  0.401200  0.470700  1.0
  O  O1270  1  0.069500  0.598800  0.258500  1.0
  O  O1271  1  0.340300  0.811000  0.741500  1.0
  O  O1272  1  0.930500  0.189000  0.529300  1.0
  O  O1273  1  0.220800  0.895100  0.528500  1.0
  O  O1274  1  0.633400  0.104900  0.325700  1.0
  O  O1275  1  0.366600  0.692300  0.471500  1.0
  O  O1276  1  0.779200  0.307700  0.674300  1.0
  O  O1277  1  0.692300  0.366600  0.471500  1.0
  O  O1278  1  0.104900  0.633400  0.325700  1.0
  O  O1279  1  0.307700  0.779200  0.674300  1.0
  O  O1280  1  0.895100  0.220800  0.528500  1.0
  O  O1281  1  0.238400  0.980200  0.617000  1.0
  O  O1282  1  0.636800  0.019800  0.258200  1.0
  O  O1283  1  0.363200  0.621400  0.383000  1.0
  O  O1284  1  0.761600  0.378600  0.741800  1.0
  O  O1285  1  0.621400  0.363200  0.383000  1.0
  O  O1286  1  0.019800  0.636800  0.258200  1.0
  O  O1287  1  0.378600  0.761600  0.741800  1.0
  O  O1288  1  0.980200  0.238400  0.617000  1.0
  O  O1289  1  0.272500  0.946300  0.615800  1.0
  O  O1290  1  0.669500  0.053700  0.326200  1.0
  O  O1291  1  0.330500  0.656700  0.384200  1.0
  O  O1292  1  0.727500  0.343300  0.673800  1.0
  O  O1293  1  0.656700  0.330500  0.384200  1.0
  O  O1294  1  0.053700  0.669500  0.326200  1.0
  O  O1295  1  0.343300  0.727500  0.673800  1.0
  O  O1296  1  0.946300  0.272500  0.615800  1.0
  O  O1297  1  0.122600  0.866900  0.535300  1.0
  O  O1298  1  0.668400  0.133100  0.255700  1.0
  O  O1299  1  0.331600  0.587300  0.464700  1.0
  O  O1300  1  0.877400  0.412700  0.744300  1.0
  O  O1301  1  0.587300  0.331600  0.464700  1.0
  O  O1302  1  0.133100  0.668400  0.255700  1.0
  O  O1303  1  0.412700  0.877400  0.744300  1.0
  O  O1304  1  0.866900  0.122600  0.535300  1.0
  O  O1305  1  0.153900  0.831200  0.532300  1.0
  O  O1306  1  0.701100  0.168800  0.322700  1.0
  O  O1307  1  0.298900  0.621600  0.467700  1.0
  O  O1308  1  0.846100  0.378400  0.677300  1.0
  O  O1309  1  0.621600  0.298900  0.467700  1.0
  O  O1310  1  0.168800  0.701100  0.322700  1.0
  O  O1311  1  0.378400  0.846100  0.677300  1.0
  O  O1312  1  0.831200  0.153900  0.532300  1.0
  O  O1313  1  0.047500  0.971600  0.764300  1.0
  O  O1314  1  0.792700  0.028400  0.075900  1.0
  O  O1315  1  0.207300  0.283200  0.235700  1.0
  O  O1316  1  0.952500  0.716800  0.924100  1.0
  O  O1317  1  0.283200  0.207300  0.235700  1.0
  O  O1318  1  0.028400  0.792700  0.075900  1.0
  O  O1319  1  0.716800  0.952500  0.924100  1.0
  O  O1320  1  0.971600  0.047500  0.764300  1.0
  O  O1321  1  0.055600  0.947100  0.806700  1.0
  O  O1322  1  0.859600  0.052900  0.108500  1.0
  O  O1323  1  0.140400  0.248900  0.193300  1.0
  O  O1324  1  0.944400  0.751100  0.891500  1.0
  O  O1325  1  0.248900  0.140400  0.193300  1.0
  O  O1326  1  0.052900  0.859600  0.108500  1.0
  O  O1327  1  0.751100  0.944400  0.891500  1.0
  O  O1328  1  0.947100  0.055600  0.806700  1.0
  O  O1329  1  0.119900  0.900200  0.761300  1.0
  O  O1330  1  0.861100  0.099800  0.219700  1.0
  O  O1331  1  0.138900  0.358600  0.238700  1.0
  O  O1332  1  0.880100  0.641400  0.780300  1.0
  O  O1333  1  0.358600  0.138900  0.238700  1.0
  O  O1334  1  0.099800  0.861100  0.219700  1.0
  O  O1335  1  0.641400  0.880100  0.780300  1.0
  O  O1336  1  0.900200  0.119900  0.761300  1.0
  O  O1337  1  0.113600  0.933000  0.721600  1.0
  O  O1338  1  0.788600  0.067000  0.180600  1.0
  O  O1339  1  0.211400  0.392000  0.278400  1.0
  O  O1340  1  0.886400  0.608000  0.819400  1.0
  O  O1341  1  0.392000  0.211400  0.278400  1.0
  O  O1342  1  0.067000  0.788600  0.180600  1.0
  O  O1343  1  0.608000  0.886400  0.819400  1.0
  O  O1344  1  0.933000  0.113600  0.721600  1.0
  O  O1345  1  0.146000  0.986500  0.832300  1.0
  O  O1346  1  0.845800  0.013500  0.159500  1.0
  O  O1347  1  0.154200  0.313700  0.167700  1.0
  O  O1348  1  0.854000  0.686300  0.840500  1.0
  O  O1349  1  0.313700  0.154200  0.167700  1.0
  O  O1350  1  0.013500  0.845800  0.159500  1.0
  O  O1351  1  0.686300  0.854000  0.840500  1.0
  O  O1352  1  0.986500  0.146000  0.832300  1.0
  O  O1353  1  0.138000  0.011400  0.789200  1.0
  O  O1354  1  0.777800  0.988600  0.126600  1.0
  O  O1355  1  0.222200  0.348800  0.210800  1.0
  O  O1356  1  0.862000  0.651200  0.873400  1.0
  O  O1357  1  0.348800  0.222200  0.210800  1.0
  O  O1358  1  0.988600  0.777800  0.126600  1.0
  O  O1359  1  0.651200  0.862000  0.873400  1.0
  O  O1360  1  0.011400  0.138000  0.789200  1.0
  O  O1361  1  0.024200  0.895900  0.698100  1.0
  O  O1362  1  0.802200  0.104100  0.128300  1.0
  O  O1363  1  0.197800  0.326100  0.301900  1.0
  O  O1364  1  0.975800  0.673900  0.871700  1.0
  O  O1365  1  0.326100  0.197800  0.301900  1.0
  O  O1366  1  0.104100  0.802200  0.128300  1.0
  O  O1367  1  0.673900  0.975800  0.871700  1.0
  O  O1368  1  0.895900  0.024200  0.698100  1.0
  O  O1369  1  0.031300  0.868000  0.740300  1.0
  O  O1370  1  0.872300  0.132000  0.163300  1.0
  O  O1371  1  0.127700  0.291000  0.259700  1.0
  O  O1372  1  0.968700  0.709000  0.836700  1.0
  O  O1373  1  0.291000  0.127700  0.259700  1.0
  O  O1374  1  0.132000  0.872300  0.163300  1.0
  O  O1375  1  0.709000  0.968700  0.836700  1.0
  O  O1376  1  0.868000  0.031300  0.740300  1.0
  O  O1377  1  0.959600  0.746000  0.368400  1.0
  O  O1378  1  0.622400  0.254000  0.213600  1.0
  O  O1379  1  0.377600  0.591200  0.631600  1.0
  O  O1380  1  0.040400  0.408800  0.786400  1.0
  O  O1381  1  0.591200  0.377600  0.631600  1.0
  O  O1382  1  0.254000  0.622400  0.213600  1.0
  O  O1383  1  0.408800  0.040400  0.786400  1.0
  O  O1384  1  0.746000  0.959600  0.368400  1.0
  O  O1385  1  0.986700  0.806200  0.417100  1.0
  O  O1386  1  0.610900  0.193800  0.180500  1.0
  O  O1387  1  0.389100  0.569600  0.582900  1.0
  O  O1388  1  0.013300  0.430400  0.819500  1.0
  O  O1389  1  0.569600  0.389100  0.582900  1.0
  O  O1390  1  0.193800  0.610900  0.180500  1.0
  O  O1391  1  0.430400  0.013300  0.819500  1.0
  O  O1392  1  0.806200  0.986700  0.417100  1.0
  O  O1393  1  0.872500  0.764500  0.295600  1.0
  O  O1394  1  0.531100  0.235500  0.108000  1.0
  O  O1395  1  0.468900  0.576900  0.704400  1.0
  O  O1396  1  0.127500  0.423100  0.892000  1.0
  O  O1397  1  0.576900  0.468900  0.704400  1.0
  O  O1398  1  0.235500  0.531100  0.108000  1.0
  O  O1399  1  0.423100  0.127500  0.892000  1.0
  O  O1400  1  0.764500  0.872500  0.295600  1.0
  O  O1401  1  0.904400  0.830600  0.352800  1.0
  O  O1402  1  0.522200  0.169400  0.073800  1.0
  O  O1403  1  0.477800  0.551600  0.647200  1.0
  O  O1404  1  0.095600  0.448400  0.926200  1.0
  O  O1405  1  0.551600  0.477800  0.647200  1.0
  O  O1406  1  0.169400  0.522200  0.073800  1.0
  O  O1407  1  0.448400  0.095600  0.926200  1.0
  O  O1408  1  0.830600  0.904400  0.352800  1.0
  O  O1409  1  0.955500  0.781200  0.309900  1.0
  O  O1410  1  0.528700  0.218800  0.174300  1.0
  O  O1411  1  0.471300  0.645600  0.690100  1.0
  O  O1412  1  0.044500  0.354400  0.825700  1.0
  O  O1413  1  0.645600  0.471300  0.690100  1.0
  O  O1414  1  0.218800  0.528700  0.174300  1.0
  O  O1415  1  0.354400  0.044500  0.825700  1.0
  O  O1416  1  0.781200  0.955500  0.309900  1.0
  O  O1417  1  0.986300  0.844900  0.358800  1.0
  O  O1418  1  0.513900  0.155100  0.141400  1.0
  O  O1419  1  0.486100  0.627500  0.641200  1.0
  O  O1420  1  0.013700  0.372500  0.858600  1.0
  O  O1421  1  0.627500  0.486100  0.641200  1.0
  O  O1422  1  0.155100  0.513900  0.141400  1.0
  O  O1423  1  0.372500  0.013700  0.858600  1.0
  O  O1424  1  0.844900  0.986300  0.358800  1.0
  O  O1425  1  0.874200  0.728300  0.353300  1.0
  O  O1426  1  0.625000  0.271700  0.145900  1.0
  O  O1427  1  0.375000  0.520900  0.646700  1.0
  O  O1428  1  0.125800  0.479100  0.854100  1.0
  O  O1429  1  0.520900  0.375000  0.646700  1.0
  O  O1430  1  0.271700  0.625000  0.145900  1.0
  O  O1431  1  0.479100  0.125800  0.854100  1.0
  O  O1432  1  0.728300  0.874200  0.353300  1.0
  O  O1433  1  0.902900  0.787100  0.401600  1.0
  O  O1434  1  0.614500  0.212900  0.115800  1.0
  O  O1435  1  0.385500  0.501300  0.598400  1.0
  O  O1436  1  0.097100  0.498700  0.884200  1.0
  O  O1437  1  0.501300  0.385500  0.598400  1.0
  O  O1438  1  0.212900  0.614500  0.115800  1.0
  O  O1439  1  0.498700  0.097100  0.884200  1.0
  O  O1440  1  0.787100  0.902900  0.401600  1.0
  O  O1441  1  0.097300  0.964600  0.369100  1.0
  O  O1442  1  0.404500  0.035400  0.132700  1.0
  O  O1443  1  0.595500  0.728200  0.630900  1.0
  O  O1444  1  0.902700  0.271800  0.867300  1.0
  O  O1445  1  0.728200  0.595500  0.630900  1.0
  O  O1446  1  0.035400  0.404500  0.132700  1.0
  O  O1447  1  0.271800  0.902700  0.867300  1.0
  O  O1448  1  0.964600  0.097300  0.369100  1.0
  O  O1449  1  0.122700  0.958400  0.326900  1.0
  O  O1450  1  0.368500  0.041600  0.164300  1.0
  O  O1451  1  0.631500  0.795800  0.673100  1.0
  O  O1452  1  0.877300  0.204200  0.835700  1.0
  O  O1453  1  0.795800  0.631500  0.673100  1.0
  O  O1454  1  0.041600  0.368500  0.164300  1.0
  O  O1455  1  0.204200  0.877300  0.835700  1.0
  O  O1456  1  0.958400  0.122700  0.326900  1.0
  O  O1457  1  0.156500  0.047200  0.347700  1.0
  O  O1458  1  0.300500  0.952800  0.109300  1.0
  O  O1459  1  0.699500  0.808800  0.652300  1.0
  O  O1460  1  0.843500  0.191200  0.890700  1.0
  O  O1461  1  0.808800  0.699500  0.652300  1.0
  O  O1462  1  0.952800  0.300500  0.109300  1.0
  O  O1463  1  0.191200  0.843500  0.890700  1.0
  O  O1464  1  0.047200  0.156500  0.347700  1.0
  O  O1465  1  0.131000  0.053800  0.391200  1.0
  O  O1466  1  0.337400  0.946200  0.077200  1.0
  O  O1467  1  0.662600  0.739800  0.608800  1.0
  O  O1468  1  0.869000  0.260200  0.922800  1.0
  O  O1469  1  0.739800  0.662600  0.608800  1.0
  O  O1470  1  0.946200  0.337400  0.077200  1.0
  O  O1471  1  0.260200  0.869000  0.922800  1.0
  O  O1472  1  0.053800  0.131000  0.391200  1.0
  O  O1473  1  0.237600  0.070900  0.417100  1.0
  O  O1474  1  0.346200  0.929100  0.166700  1.0
  O  O1475  1  0.653800  0.820500  0.582900  1.0
  O  O1476  1  0.762400  0.179500  0.833300  1.0
  O  O1477  1  0.820500  0.653800  0.582900  1.0
  O  O1478  1  0.929100  0.346200  0.166700  1.0
  O  O1479  1  0.179500  0.762400  0.833300  1.0
  O  O1480  1  0.070900  0.237600  0.417100  1.0
  O  O1481  1  0.210600  0.076900  0.458500  1.0
  O  O1482  1  0.381600  0.923100  0.133700  1.0
  O  O1483  1  0.618400  0.752100  0.541500  1.0
  O  O1484  1  0.789400  0.247900  0.866300  1.0
  O  O1485  1  0.752100  0.618400  0.541500  1.0
  O  O1486  1  0.923100  0.381600  0.133700  1.0
  O  O1487  1  0.247900  0.789400  0.866300  1.0
  O  O1488  1  0.076900  0.210600  0.458500  1.0
  O  O1489  1  0.199900  0.978500  0.393800  1.0
  O  O1490  1  0.415300  0.021500  0.221400  1.0
  O  O1491  1  0.584700  0.806100  0.606200  1.0
  O  O1492  1  0.800100  0.193900  0.778600  1.0
  O  O1493  1  0.806100  0.584700  0.606200  1.0
  O  O1494  1  0.021500  0.415300  0.221400  1.0
  O  O1495  1  0.193900  0.800100  0.778600  1.0
  O  O1496  1  0.978500  0.199900  0.393800  1.0
  O  O1497  1  0.172700  0.989700  0.434200  1.0
  O  O1498  1  0.444500  0.010300  0.183000  1.0
  O  O1499  1  0.555500  0.738500  0.565800  1.0
  O  O1500  1  0.827300  0.261500  0.817000  1.0
  O  O1501  1  0.738500  0.555500  0.565800  1.0
  O  O1502  1  0.010300  0.444500  0.183000  1.0
  O  O1503  1  0.261500  0.827300  0.817000  1.0
  O  O1504  1  0.989700  0.172700  0.434200  1.0
  O  O1505  1  0.315000  0.130500  0.660500  1.0
  O  O1506  1  0.530000  0.869500  0.184500  1.0
  O  O1507  1  0.470000  0.654500  0.339500  1.0
  O  O1508  1  0.685000  0.345500  0.815500  1.0
  O  O1509  1  0.654500  0.470000  0.339500  1.0
  O  O1510  1  0.869500  0.530000  0.184500  1.0
  O  O1511  1  0.345500  0.685000  0.815500  1.0
  O  O1512  1  0.130500  0.315000  0.660500  1.0
  O  O1513  1  0.384000  0.164900  0.683100  1.0
  O  O1514  1  0.518200  0.835100  0.219100  1.0
  O  O1515  1  0.481800  0.700900  0.316900  1.0
  O  O1516  1  0.616000  0.299100  0.780900  1.0
  O  O1517  1  0.700900  0.481800  0.316900  1.0
  O  O1518  1  0.835100  0.518200  0.219100  1.0
  O  O1519  1  0.299100  0.616000  0.780900  1.0
  O  O1520  1  0.164900  0.384000  0.683100  1.0
  O  O1521  1  0.307600  0.235500  0.665700  1.0
  O  O1522  1  0.430200  0.764500  0.072100  1.0
  O  O1523  1  0.569800  0.641900  0.334300  1.0
  O  O1524  1  0.692400  0.358100  0.927900  1.0
  O  O1525  1  0.641900  0.569800  0.334300  1.0
  O  O1526  1  0.764500  0.430200  0.072100  1.0
  O  O1527  1  0.358100  0.692400  0.927900  1.0
  O  O1528  1  0.235500  0.307600  0.665700  1.0
  O  O1529  1  0.377400  0.270000  0.686800  1.0
  O  O1530  1  0.416800  0.730000  0.107400  1.0
  O  O1531  1  0.583200  0.690600  0.313200  1.0
  O  O1532  1  0.622600  0.309400  0.892600  1.0
  O  O1533  1  0.690600  0.583200  0.313200  1.0
  O  O1534  1  0.730000  0.416800  0.107400  1.0
  O  O1535  1  0.309400  0.622600  0.892600  1.0
  O  O1536  1  0.270000  0.377400  0.686800  1.0
  O  O1537  1  0.319000  0.201200  0.721200  1.0
  O  O1538  1  0.520000  0.798800  0.117800  1.0
  O  O1539  1  0.480000  0.597800  0.278800  1.0
  O  O1540  1  0.681000  0.402200  0.882200  1.0
  O  O1541  1  0.597800  0.480000  0.278800  1.0
  O  O1542  1  0.798800  0.520000  0.117800  1.0
  O  O1543  1  0.402200  0.681000  0.882200  1.0
  O  O1544  1  0.201200  0.319000  0.721200  1.0
  O  O1545  1  0.390700  0.240100  0.746600  1.0
  O  O1546  1  0.506500  0.759900  0.150600  1.0
  O  O1547  1  0.493500  0.644100  0.253400  1.0
  O  O1548  1  0.609300  0.355900  0.849400  1.0
  O  O1549  1  0.644100  0.493500  0.253400  1.0
  O  O1550  1  0.759900  0.506500  0.150600  1.0
  O  O1551  1  0.355900  0.609300  0.849400  1.0
  O  O1552  1  0.240100  0.390700  0.746600  1.0
  O  O1553  1  0.304200  0.167000  0.603400  1.0
  O  O1554  1  0.436400  0.833000  0.137200  1.0
  O  O1555  1  0.563600  0.700800  0.396600  1.0
  O  O1556  1  0.695800  0.299200  0.862800  1.0
  O  O1557  1  0.700800  0.563600  0.396600  1.0
  O  O1558  1  0.833000  0.436400  0.137200  1.0
  O  O1559  1  0.299200  0.695800  0.862800  1.0
  O  O1560  1  0.167000  0.304200  0.603400  1.0
  O  O1561  1  0.373800  0.201800  0.629800  1.0
  O  O1562  1  0.428000  0.798200  0.172000  1.0
  O  O1563  1  0.572000  0.744000  0.370200  1.0
  O  O1564  1  0.626200  0.256000  0.828000  1.0
  O  O1565  1  0.744000  0.572000  0.370200  1.0
  O  O1566  1  0.798200  0.428000  0.172000  1.0
  O  O1567  1  0.256000  0.626200  0.828000  1.0
  O  O1568  1  0.201800  0.373800  0.629800  1.0
  O  O1569  1  0.795100  0.751500  0.491800  1.0
  O  O1570  1  0.740300  0.248500  0.043600  1.0
  O  O1571  1  0.259700  0.303300  0.508200  1.0
  O  O1572  1  0.204900  0.696700  0.956400  1.0
  O  O1573  1  0.303300  0.259700  0.508200  1.0
  O  O1574  1  0.248500  0.740300  0.043600  1.0
  O  O1575  1  0.696700  0.204900  0.956400  1.0
  O  O1576  1  0.751500  0.795100  0.491800  1.0
  O  O1577  1  0.851800  0.808500  0.503500  1.0
  O  O1578  1  0.695000  0.191500  0.043300  1.0
  O  O1579  1  0.305000  0.348300  0.496500  1.0
  O  O1580  1  0.148200  0.651700  0.956700  1.0
  O  O1581  1  0.348300  0.305000  0.496500  1.0
  O  O1582  1  0.191500  0.695000  0.043300  1.0
  O  O1583  1  0.651700  0.148200  0.956700  1.0
  O  O1584  1  0.808500  0.851800  0.503500  1.0
  O  O1585  1  0.881500  0.837300  0.590400  1.0
  O  O1586  1  0.753100  0.162700  0.044200  1.0
  O  O1587  1  0.246900  0.291100  0.409600  1.0
  O  O1588  1  0.118500  0.708900  0.955800  1.0
  O  O1589  1  0.291100  0.246900  0.409600  1.0
  O  O1590  1  0.162700  0.753100  0.044200  1.0
  O  O1591  1  0.708900  0.118500  0.955800  1.0
  O  O1592  1  0.837300  0.881500  0.590400  1.0
  O  O1593  1  0.827300  0.780100  0.579400  1.0
  O  O1594  1  0.799300  0.219900  0.047200  1.0
  O  O1595  1  0.200700  0.247900  0.420600  1.0
  O  O1596  1  0.172700  0.752100  0.952800  1.0
  O  O1597  1  0.247900  0.200700  0.420600  1.0
  O  O1598  1  0.219900  0.799300  0.047200  1.0
  O  O1599  1  0.752100  0.172700  0.952800  1.0
  O  O1600  1  0.780100  0.827300  0.579400  1.0
  O  O1601  1  0.307400  0.263700  0.883700  1.0
  O  O1602  1  0.620000  0.736300  0.043700  1.0
  O  O1603  1  0.380000  0.423700  0.116300  1.0
  O  O1604  1  0.692600  0.576300  0.956300  1.0
  O  O1605  1  0.423700  0.380000  0.116300  1.0
  O  O1606  1  0.736300  0.620000  0.043700  1.0
  O  O1607  1  0.576300  0.692600  0.956300  1.0
  O  O1608  1  0.263700  0.307400  0.883700  1.0
  O  O1609  1  0.263700  0.218300  0.816200  1.0
  O  O1610  1  0.597900  0.781700  0.045400  1.0
  O  O1611  1  0.402100  0.447500  0.183800  1.0
  O  O1612  1  0.736300  0.552500  0.954600  1.0
  O  O1613  1  0.447500  0.402100  0.183800  1.0
  O  O1614  1  0.781700  0.597900  0.045400  1.0
  O  O1615  1  0.552500  0.736300  0.954600  1.0
  O  O1616  1  0.218300  0.263700  0.816200  1.0
  O  O1617  1  0.207300  0.161300  0.838400  1.0
  O  O1618  1  0.677100  0.838700  0.046000  1.0
  O  O1619  1  0.322900  0.368900  0.161600  1.0
  O  O1620  1  0.792700  0.631100  0.954000  1.0
  O  O1621  1  0.368900  0.322900  0.161600  1.0
  O  O1622  1  0.838700  0.677100  0.046000  1.0
  O  O1623  1  0.631100  0.792700  0.954000  1.0
  O  O1624  1  0.161300  0.207300  0.838400  1.0
  O  O1625  1  0.251100  0.205000  0.904300  1.0
  O  O1626  1  0.699300  0.795000  0.046100  1.0
  O  O1627  1  0.300700  0.346800  0.095700  1.0
  O  O1628  1  0.748900  0.653200  0.953900  1.0
  O  O1629  1  0.346800  0.300700  0.095700  1.0
  O  O1630  1  0.795000  0.699300  0.046100  1.0
  O  O1631  1  0.653200  0.748900  0.953900  1.0
  O  O1632  1  0.205000  0.251100  0.904300  1.0
