
#######################################################################
#
#                 Cambridge Crystallographic Data Centre
#                                CCDC 
#
#######################################################################
#
# If this CIF has been generated from an entry in the Cambridge 
# Structural Database, then it will include bibliographic, chemical, 
# crystal, experimental, refinement or atomic coordinate data resulting 
# from the CCDC's data processing and validation procedures.
#
#######################################################################

data_MAQPIE
_chemical_formula_moiety         'C348 H348 Cu24 N12 O96,12(C1 H4 O1),H2 O1'
_chemical_name_systematic        
'tetracosakis(\m~4~-5-t-Butylbenzene-1,3-dicarboxylato)-decapyridyl-decamethanol-tetracosa-copper monohydrate clathrate'
_symmetry_cell_setting           tetragonal
_symmetry_space_group_name_H-M   'P 42/m n m'
_symmetry_Int_Tables_number      136
_space_group_name_Hall           '-P 4n 2n'
loop_
_symmetry_equiv_pos_site_id
_symmetry_equiv_pos_as_xyz
1 x,y,z
2 1/2-y,1/2+x,1/2+z
3 1/2+y,1/2-x,1/2+z
4 y,x,-z
5 1/2+x,1/2-y,1/2-z
6 -y,-x,-z
7 1/2-x,1/2+y,1/2-z
8 -x,-y,z
9 -x,-y,-z
10 1/2+y,1/2-x,1/2-z
11 1/2-y,1/2+x,1/2-z
12 -y,-x,z
13 1/2-x,1/2+y,1/2+z
14 y,x,z
15 1/2+x,1/2-y,1/2+z
16 x,y,-z
_cell_length_a                   28.4962(5)
_cell_length_b                   28.4962(5)
_cell_length_c                   42.1861(16)
_cell_angle_alpha                90
_cell_angle_beta                 90
_cell_angle_gamma                90
_cell_volume                     34256.5
_exptl_crystal_colour            blue
_exptl_crystal_description       block
_cell_formula_units_Z            4
loop_
_atom_site_label
_atom_site_type_symbol
_atom_site_fract_x
_atom_site_fract_y
_atom_site_fract_z
Cu1 Cu 0.24209(2) 0.24209(2) 0.5000
Cu2 Cu 0.30724(2) 0.30724(2) 0.5000
Cu3 Cu 0.558268(17) 0.179512(15) 0.373941(12)
Cu4 Cu 0.547818(18) 0.258126(16) 0.405186(12)
Cu5 Cu 0.5000 0.5000 0.25090(2)
Cu6 Cu 0.5000 0.5000 0.31295(2)
O1 O 0.28072(10) 0.21269(10) 0.46733(7)
O2 O 0.33648(9) 0.26776(9) 0.46741(7)
O3 O 0.49163(9) 0.16952(10) 0.38419(7)
O4 O 0.48291(10) 0.23757(10) 0.41026(7)
O5 O 0.53190(11) 0.28576(9) 0.36412(7)
O6 O 0.53920(11) 0.21831(9) 0.33716(7)
O7 O 0.50042(10) 0.43141(9) 0.30812(6)
O8 O 0.50032(10) 0.43133(9) 0.25500(7)
O9 O 0.61449(11) 0.26672(10) 0.39560(8)
O10 O 0.62307(10) 0.20097(10) 0.36755(7)
O11 O 0.56451(12) 0.22226(11) 0.44271(7)
O12 O 0.57612(10) 0.15495(10) 0.41605(7)
C1 C 0.34596(14) 0.20209(14) 0.43346(10)
C2 C 0.32529(15) 0.16536(16) 0.41903(12)
H1 H 0.2944 0.1578 0.4240
C3 C 0.34961(19) 0.13826(19) 0.39666(13)
C4 C 0.39660(15) 0.14940(17) 0.39103(12)
H2 H 0.4143 0.1309 0.3773
C5 C 0.41700(14) 0.18759(14) 0.40562(9)
C6 C 0.39207(13) 0.21465(13) 0.42668(9)
H3 H 0.4057 0.2407 0.4362
C7 C 0.31897(13) 0.23051(14) 0.45870(10)
C8 C 0.46832(14) 0.19884(13) 0.39986(9)
C9 C 0.3259(2) 0.0983(3) 0.3798(2)
C10 C 0.3554(4) 0.0680(4) 0.3619(3)
H4 H 0.3740 0.0862 0.3475
H5 H 0.3364 0.0462 0.3502
H6 H 0.3757 0.0510 0.3760
C11 C 0.2965(7) 0.0708(6) 0.4017(4)
H7 H 0.2766 0.0915 0.4135
H8 H 0.3163 0.0536 0.4160
H9 H 0.2776 0.0492 0.3898
C12 C 0.2922(8) 0.1192(7) 0.3572(6)
H10 H 0.2693 0.1373 0.3686
H11 H 0.2767 0.0947 0.3456
H12 H 0.3087 0.1392 0.3426
C13 C 0.51902(14) 0.28666(13) 0.30939(10)
C14 C 0.51403(16) 0.26198(14) 0.28108(11)
H13 H 0.5177 0.2295 0.2812
C15 C 0.50369(17) 0.28475(16) 0.25252(11)
C16 C 0.50013(16) 0.33404(15) 0.25354(10)
H14 H 0.4946 0.3503 0.2348
C17 C 0.50460(13) 0.35921(14) 0.28149(10)
C18 C 0.51405(13) 0.33563(13) 0.30954(10)
H15 H 0.5171 0.3522 0.3284
C19 C 0.53190(15) 0.26157(12) 0.33928(9)
C20 C 0.50170(14) 0.41223(14) 0.28130(9)
C21 C 0.4972(2) 0.25748(19) 0.22231(12)
C22 C 0.5231(7) 0.2794(4) 0.1954(2)
H16 H 0.5559 0.2811 0.2005
H17 H 0.5112 0.3104 0.1918
H18 H 0.5189 0.2608 0.1767
C23 C 0.4491(5) 0.2547(7) 0.2157(4)
H19 H 0.4359 0.2857 0.2154
H20 H 0.4339 0.2363 0.2317
H21 H 0.4446 0.2402 0.1954
C24 C 0.5152(3) 0.2100(3) 0.22235(16)
H22 H 0.5481 0.2104 0.2273
H23 H 0.5107 0.1962 0.2018
H24 H 0.4988 0.1918 0.2380
C25 C 0.57393(15) 0.17918(13) 0.44075(10)
C26 C 0.58693(15) 0.15588(14) 0.47175(10)
C27 C 0.60685(15) 0.11038(14) 0.47194(11)
H25 H 0.6129 0.0952 0.4528
C28 C 0.6174(2) 0.0884(2) 0.5000
C29 C 0.57867(19) 0.17756(19) 0.5000
H26 H 0.5671 0.2081 0.5000
C30 C 0.6416(2) 0.0391(2) 0.5000
C34 C 0.68629(15) 0.25420(15) 0.37099(10)
C35 C 0.70197(16) 0.29803(16) 0.37945(14)
H27 H 0.6824 0.3176 0.3912
C36 C 0.71701(16) 0.22413(16) 0.35422(11)
H28 H 0.7069 0.1942 0.3487
C37 C 0.76165(18) 0.23835(18) 0.34589(17)
C38 C 0.7949(2) 0.2051(2) 0.3278(2)
N1 N 0.56857(12) 0.11437(9) 0.34980(8)
C42 C 0.55078(18) 0.07441(14) 0.36438(12)
H29 H 0.5302 0.0772 0.3814
C43 C 0.5638(3) 0.03020(10) 0.35356(18)
H30 H 0.5519 0.0035 0.3633
C44 C 0.5946(3) 0.02596(15) 0.32816(19)
H31 H 0.6032 -0.0036 0.3209
C45 C 0.6123(2) 0.0659(2) 0.31358(14)
H32 H 0.6329 0.0631 0.2966
C46 C 0.59936(16) 0.11013(17) 0.32440(10)
H33 H 0.6113 0.1369 0.3146
C47 C 0.63648(16) 0.23948(15) 0.37853(10)
C48 C 0.4077(3) 0.3507(4) 0.5000
H34 H 0.4169 0.3194 0.5000
C49 C 0.4413(4) 0.3841(4) 0.5000
H35 H 0.4726 0.3750 0.5000
C50 C 0.4306(3) 0.4306(3) 0.5000
H36 H 0.4537 0.4537 0.5000
C51 C 0.5038(4) 0.3489(3) 0.4264(3)
H37 H 0.5055 0.3768 0.4390
H38 H 0.4766 0.3311 0.4324
H39 H 0.5016 0.3573 0.4044
O13 O 0.54138(15) 0.32372(12) 0.43095(10)
O14 O 0.18841(18) 0.18841(18) 0.5000
O15 O 0.5000 0.5000 0.19947(17)
N2 N 0.36081(17) 0.36081(17) 0.5000
N3 N 0.5000 0.5000 0.36395(16)
C52 C 0.5000 0.5000 0.4312(5)
H40 H 0.5000 0.5000 0.4532
C53 C 0.5266(3) 0.4734(3) 0.3813(3)
H41 H 0.5469 0.4531 0.3708
C54 C 0.5273(5) 0.4727(5) 0.4134(4)
H42 H 0.5478 0.4522 0.4234
C55 C 0.5284(11) 0.4716(11) 0.1839(6)
H43 H 0.5455 0.4526 0.1987
H44 H 0.5500 0.4898 0.1715
H45 H 0.5103 0.4518 0.1701
C56 C 0.1689(8) 0.1689(8) 0.4672(11)
H46 H 0.1836 0.1854 0.4500
H47 H 0.1356 0.1736 0.4663
H48 H 0.1758 0.1360 0.4655
Cu1H Cu 0.75791(2) 0.75791(2) 0.5000
Cu2H Cu 0.69276(2) 0.69276(2) 0.5000
Cu3C Cu 0.179512(15) 0.558268(17) 0.626059(12)
Cu3M Cu 0.179512(15) 0.558268(17) 0.373941(12)
Cu3G Cu 0.441732(17) 0.820488(15) 0.373941(12)
Cu3H Cu 0.441732(17) 0.820488(15) 0.626059(12)
Cu3O Cu 0.558268(17) 0.179512(15) 0.626059(12)
Cu3K Cu 0.820488(15) 0.441732(17) 0.373941(12)
Cu3E Cu 0.820488(15) 0.441732(17) 0.626059(12)
Cu4C Cu 0.258126(16) 0.547818(18) 0.594814(12)
Cu4M Cu 0.258126(16) 0.547818(18) 0.405186(12)
Cu4G Cu 0.452182(18) 0.741874(16) 0.405186(12)
Cu4H Cu 0.452182(18) 0.741874(16) 0.594814(12)
Cu4O Cu 0.547818(18) 0.258126(16) 0.594814(12)
Cu4K Cu 0.741874(16) 0.452182(18) 0.405186(12)
Cu4E Cu 0.741874(16) 0.452182(18) 0.594814(12)
Cu5O Cu 0.5000 0.5000 0.74910(2)
Cu6O Cu 0.5000 0.5000 0.68705(2)
O1M O 0.21269(10) 0.28072(10) 0.46733(7)
O1O O 0.28072(10) 0.21269(10) 0.53267(7)
O1C O 0.21269(10) 0.28072(10) 0.53267(7)
O1E O 0.78731(10) 0.71928(10) 0.53267(7)
O1H O 0.71928(10) 0.78731(10) 0.53267(7)
O1K O 0.78731(10) 0.71928(10) 0.46733(7)
O1G O 0.71928(10) 0.78731(10) 0.46733(7)
O2M O 0.26776(9) 0.33648(9) 0.46741(7)
O2O O 0.33648(9) 0.26776(9) 0.53259(7)
O2C O 0.26776(9) 0.33648(9) 0.53259(7)
O2E O 0.73224(9) 0.66352(9) 0.53259(7)
O2H O 0.66352(9) 0.73224(9) 0.53259(7)
O2K O 0.73224(9) 0.66352(9) 0.46741(7)
O2G O 0.66352(9) 0.73224(9) 0.46741(7)
O3C O 0.16952(10) 0.49163(9) 0.61581(7)
O3M O 0.16952(10) 0.49163(9) 0.38419(7)
O3G O 0.50837(9) 0.83048(10) 0.38419(7)
O3H O 0.50837(9) 0.83048(10) 0.61581(7)
O3O O 0.49163(9) 0.16952(10) 0.61581(7)
O3K O 0.83048(10) 0.50837(9) 0.38419(7)
O3E O 0.83048(10) 0.50837(9) 0.61581(7)
O4C O 0.23757(10) 0.48291(10) 0.58974(7)
O4M O 0.23757(10) 0.48291(10) 0.41026(7)
O4G O 0.51709(10) 0.76243(10) 0.41026(7)
O4H O 0.51709(10) 0.76243(10) 0.58974(7)
O4O O 0.48291(10) 0.23757(10) 0.58974(7)
O4K O 0.76243(10) 0.51709(10) 0.41026(7)
O4E O 0.76243(10) 0.51709(10) 0.58974(7)
O5C O 0.28576(9) 0.53190(11) 0.63588(7)
O5M O 0.28576(9) 0.53190(11) 0.36412(7)
O5G O 0.46810(11) 0.71424(9) 0.36412(7)
O5H O 0.46810(11) 0.71424(9) 0.63588(7)
O5O O 0.53190(11) 0.28576(9) 0.63588(7)
O5K O 0.71424(9) 0.46810(11) 0.36412(7)
O5E O 0.71424(9) 0.46810(11) 0.63588(7)
O6C O 0.21831(9) 0.53920(11) 0.66284(7)
O6M O 0.21831(9) 0.53920(11) 0.33716(7)
O6G O 0.46080(11) 0.78169(9) 0.33716(7)
O6H O 0.46080(11) 0.78169(9) 0.66284(7)
O6O O 0.53920(11) 0.21831(9) 0.66284(7)
O6K O 0.78169(9) 0.46080(11) 0.33716(7)
O6E O 0.78169(9) 0.46080(11) 0.66284(7)
O7H O 0.49958(10) 0.56859(9) 0.69188(6)
O7E O 0.56859(9) 0.49958(10) 0.69188(6)
O7O O 0.50042(10) 0.43141(9) 0.69188(6)
O7C O 0.43141(9) 0.50042(10) 0.69188(6)
O7K O 0.56859(9) 0.49958(10) 0.30812(6)
O7M O 0.43141(9) 0.50042(10) 0.30812(6)
O7G O 0.49958(10) 0.56859(9) 0.30812(6)
O8H O 0.49968(10) 0.56867(9) 0.74500(7)
O8E O 0.56867(9) 0.49968(10) 0.74500(7)
O8O O 0.50032(10) 0.43133(9) 0.74500(7)
O8C O 0.43133(9) 0.50032(10) 0.74500(7)
O8M O 0.43133(9) 0.50032(10) 0.25500(7)
O8G O 0.49968(10) 0.56867(9) 0.25500(7)
O8K O 0.56867(9) 0.49968(10) 0.25500(7)
O9C O 0.26672(10) 0.61449(11) 0.60440(8)
O9M O 0.26672(10) 0.61449(11) 0.39560(8)
O9G O 0.38551(11) 0.73328(10) 0.39560(8)
O9H O 0.38551(11) 0.73328(10) 0.60440(8)
O9O O 0.61449(11) 0.26672(10) 0.60440(8)
O9K O 0.73328(10) 0.38551(11) 0.39560(8)
O9E O 0.73328(10) 0.38551(11) 0.60440(8)
O10C O 0.20097(10) 0.62307(10) 0.63245(7)
O10M O 0.20097(10) 0.62307(10) 0.36755(7)
O10G O 0.37693(10) 0.79903(10) 0.36755(7)
O10H O 0.37693(10) 0.79903(10) 0.63245(7)
O10O O 0.62307(10) 0.20097(10) 0.63245(7)
O10K O 0.79903(10) 0.37693(10) 0.36755(7)
O10E O 0.79903(10) 0.37693(10) 0.63245(7)
O11C O 0.22226(11) 0.56451(12) 0.55729(7)
O11M O 0.22226(11) 0.56451(12) 0.44271(7)
O11G O 0.43549(12) 0.77774(11) 0.44271(7)
O11H O 0.43549(12) 0.77774(11) 0.55729(7)
O11O O 0.56451(12) 0.22226(11) 0.55729(7)
O11K O 0.77774(11) 0.43549(12) 0.44271(7)
O11E O 0.77774(11) 0.43549(12) 0.55729(7)
O12C O 0.15495(10) 0.57612(10) 0.58395(7)
O12G O 0.42388(10) 0.84505(10) 0.41605(7)
O12H O 0.42388(10) 0.84505(10) 0.58395(7)
O12O O 0.57612(10) 0.15495(10) 0.58395(7)
O12K O 0.84505(10) 0.42388(10) 0.41605(7)
O12E O 0.84505(10) 0.42388(10) 0.58395(7)
O12M O 0.15495(10) 0.57612(10) 0.41605(7)
C1C C 0.20209(14) 0.34596(14) 0.56654(10)
C1E C 0.79791(14) 0.65404(14) 0.56654(10)
C1G C 0.65404(14) 0.79791(14) 0.43346(10)
C1K C 0.79791(14) 0.65404(14) 0.43346(10)
C1H C 0.65404(14) 0.79791(14) 0.56654(10)
C1O C 0.34596(14) 0.20209(14) 0.56654(10)
C1M C 0.20209(14) 0.34596(14) 0.43346(10)
C2C C 0.16536(16) 0.32529(15) 0.58097(12)
C2E C 0.83464(16) 0.67471(15) 0.58097(12)
C2G C 0.67471(15) 0.83464(16) 0.41903(12)
C2K C 0.83464(16) 0.67471(15) 0.41903(12)
C2H C 0.67471(15) 0.83464(16) 0.58097(12)
C2O C 0.32529(15) 0.16536(16) 0.58097(12)
C2M C 0.16536(16) 0.32529(15) 0.41903(12)
H1C H 0.1578 0.2944 0.5760
H1G H 0.7056 0.8422 0.4240
H1K H 0.8422 0.7056 0.4240
H1H H 0.7056 0.8422 0.5760
H1E H 0.8422 0.7056 0.5760
H1O H 0.2944 0.1578 0.5760
H1M H 0.1578 0.2944 0.4240
C3C C 0.13826(19) 0.34961(19) 0.60334(13)
C3E C 0.86174(19) 0.65039(19) 0.60334(13)
C3G C 0.65039(19) 0.86174(19) 0.39666(13)
C3K C 0.86174(19) 0.65039(19) 0.39666(13)
C3H C 0.65039(19) 0.86174(19) 0.60334(13)
C3O C 0.34961(19) 0.13826(19) 0.60334(13)
C3M C 0.13826(19) 0.34961(19) 0.39666(13)
C4C C 0.14940(17) 0.39660(15) 0.60897(12)
C4E C 0.85060(17) 0.60340(15) 0.60897(12)
C4G C 0.60340(15) 0.85060(17) 0.39103(12)
C4K C 0.85060(17) 0.60340(15) 0.39103(12)
C4H C 0.60340(15) 0.85060(17) 0.60897(12)
C4O C 0.39660(15) 0.14940(17) 0.60897(12)
C4M C 0.14940(17) 0.39660(15) 0.39103(12)
H2C H 0.1309 0.4143 0.6227
H2G H 0.5857 0.8691 0.3773
H2K H 0.8691 0.5857 0.3773
H2H H 0.5857 0.8691 0.6227
H2E H 0.8691 0.5857 0.6227
H2O H 0.4143 0.1309 0.6227
H2M H 0.1309 0.4143 0.3773
C5C C 0.18759(14) 0.41700(14) 0.59438(9)
C5E C 0.81241(14) 0.58300(14) 0.59438(9)
C5G C 0.58300(14) 0.81241(14) 0.40562(9)
C5K C 0.81241(14) 0.58300(14) 0.40562(9)
C5H C 0.58300(14) 0.81241(14) 0.59438(9)
C5O C 0.41700(14) 0.18759(14) 0.59438(9)
C5M C 0.18759(14) 0.41700(14) 0.40562(9)
C6C C 0.21465(13) 0.39207(13) 0.57332(9)
C6E C 0.78535(13) 0.60793(13) 0.57332(9)
C6G C 0.60793(13) 0.78535(13) 0.42668(9)
C6K C 0.78535(13) 0.60793(13) 0.42668(9)
C6H C 0.60793(13) 0.78535(13) 0.57332(9)
C6O C 0.39207(13) 0.21465(13) 0.57332(9)
C6M C 0.21465(13) 0.39207(13) 0.42668(9)
H3C H 0.2407 0.4057 0.5638
H3E H 0.7593 0.5943 0.5638
H3G H 0.5943 0.7593 0.4362
H3K H 0.7593 0.5943 0.4362
H3H H 0.5943 0.7593 0.5638
H3O H 0.4057 0.2407 0.5638
H3M H 0.2407 0.4057 0.4362
C7M C 0.23051(14) 0.31897(13) 0.45870(10)
C7O C 0.31897(13) 0.23051(14) 0.54130(10)
C7C C 0.23051(14) 0.31897(13) 0.54130(10)
C7E C 0.76949(14) 0.68103(13) 0.54130(10)
C7H C 0.68103(13) 0.76949(14) 0.54130(10)
C7K C 0.76949(14) 0.68103(13) 0.45870(10)
C7G C 0.68103(13) 0.76949(14) 0.45870(10)
C8C C 0.19884(13) 0.46832(14) 0.60014(9)
C8M C 0.19884(13) 0.46832(14) 0.39986(9)
C8G C 0.53168(14) 0.80116(13) 0.39986(9)
C8H C 0.53168(14) 0.80116(13) 0.60014(9)
C8O C 0.46832(14) 0.19884(13) 0.60014(9)
C8K C 0.80116(13) 0.53168(14) 0.39986(9)
C8E C 0.80116(13) 0.53168(14) 0.60014(9)
C9G C 0.6741(2) 0.9017(3) 0.3798(2)
C9K C 0.9017(3) 0.6741(2) 0.3798(2)
C9H C 0.6741(2) 0.9017(3) 0.6202(2)
C9E C 0.9017(3) 0.6741(2) 0.6202(2)
C9O C 0.3259(2) 0.0983(3) 0.6202(2)
C9M C 0.0983(3) 0.3259(2) 0.3798(2)
C9C C 0.0983(3) 0.3259(2) 0.6202(2)
C10G C 0.6446(4) 0.9320(4) 0.3619(3)
C10K C 0.9320(4) 0.6446(4) 0.3619(3)
C10H C 0.6446(4) 0.9320(4) 0.6381(3)
C10E C 0.9320(4) 0.6446(4) 0.6381(3)
C10O C 0.3554(4) 0.0680(4) 0.6381(3)
C10M C 0.0680(4) 0.3554(4) 0.3619(3)
C10C C 0.0680(4) 0.3554(4) 0.6381(3)
H4G H 0.6260 0.9138 0.3475
H4K H 0.9138 0.6260 0.3475
H4H H 0.6260 0.9138 0.6525
H4E H 0.9138 0.6260 0.6525
H4O H 0.3740 0.0862 0.6525
H4M H 0.0862 0.3740 0.3475
H4C H 0.0862 0.3740 0.6525
H5G H 0.6636 0.9538 0.3502
H5K H 0.9538 0.6636 0.3502
H5H H 0.6636 0.9538 0.6498
H5E H 0.9538 0.6636 0.6498
H5O H 0.3364 0.0462 0.6498
H5M H 0.0462 0.3364 0.3502
H5C H 0.0462 0.3364 0.6498
H6G H 0.6243 0.9490 0.3760
H6K H 0.9490 0.6243 0.3760
H6H H 0.6243 0.9490 0.6240
H6E H 0.9490 0.6243 0.6240
H6O H 0.3757 0.0510 0.6240
H6M H 0.0510 0.3757 0.3760
H6C H 0.0510 0.3757 0.6240
C11G C 0.7035(7) 0.9292(6) 0.4017(4)
C11K C 0.9292(6) 0.7035(7) 0.4017(4)
C11H C 0.7035(7) 0.9292(6) 0.5983(4)
C11E C 0.9292(6) 0.7035(7) 0.5983(4)
C11O C 0.2965(7) 0.0708(6) 0.5983(4)
C11M C 0.0708(6) 0.2965(7) 0.4017(4)
C11C C 0.0708(6) 0.2965(7) 0.5983(4)
H7G H 0.7234 0.9085 0.4135
H7K H 0.9085 0.7234 0.4135
H7H H 0.7234 0.9085 0.5865
H7E H 0.9085 0.7234 0.5865
H7O H 0.2766 0.0915 0.5865
H7M H 0.0915 0.2766 0.4135
H7C H 0.0915 0.2766 0.5865
H8G H 0.6837 0.9464 0.4160
H8K H 0.9464 0.6837 0.4160
H8H H 0.6837 0.9464 0.5840
H8E H 0.9464 0.6837 0.5840
H8O H 0.3163 0.0536 0.5840
H8M H 0.0536 0.3163 0.4160
H8C H 0.0536 0.3163 0.5840
H9G H 0.7224 0.9508 0.3898
H9K H 0.9508 0.7224 0.3898
H9H H 0.7224 0.9508 0.6102
H9E H 0.9508 0.7224 0.6102
H9O H 0.2776 0.0492 0.6102
H9M H 0.0492 0.2776 0.3898
H9C H 0.0492 0.2776 0.6102
C12G C 0.7078(8) 0.8808(7) 0.3572(6)
C12K C 0.8808(7) 0.7078(8) 0.3572(6)
C12H C 0.7078(8) 0.8808(7) 0.6428(6)
C12E C 0.8808(7) 0.7078(8) 0.6428(6)
C12O C 0.2922(8) 0.1192(7) 0.6428(6)
C12M C 0.1192(7) 0.2922(8) 0.3572(6)
C12C C 0.1192(7) 0.2922(8) 0.6428(6)
H10G H 0.7307 0.8627 0.3686
H10K H 0.8627 0.7307 0.3686
H10H H 0.7307 0.8627 0.6314
H10E H 0.8627 0.7307 0.6314
H10O H 0.2693 0.1373 0.6314
H10M H 0.1373 0.2693 0.3686
H10C H 0.1373 0.2693 0.6314
H11G H 0.7233 0.9053 0.3456
H11K H 0.9053 0.7233 0.3456
H11H H 0.7233 0.9053 0.6544
H11E H 0.9053 0.7233 0.6544
H11O H 0.2767 0.0947 0.6544
H11M H 0.0947 0.2767 0.3456
H11C H 0.0947 0.2767 0.6544
H12G H 0.6913 0.8608 0.3426
H12K H 0.8608 0.6913 0.3426
H12H H 0.6913 0.8608 0.6574
H12E H 0.8608 0.6913 0.6574
H12O H 0.3087 0.1392 0.6574
H12M H 0.1392 0.3087 0.3426
H12C H 0.1392 0.3087 0.6574
C13H C 0.48098(14) 0.71334(13) 0.69061(10)
C13C C 0.28666(13) 0.51902(14) 0.69061(10)
C13O C 0.51902(14) 0.28666(13) 0.69061(10)
C13E C 0.71334(13) 0.48098(14) 0.69061(10)
C13K C 0.71334(13) 0.48098(14) 0.30939(10)
C13G C 0.48098(14) 0.71334(13) 0.30939(10)
C13M C 0.28666(13) 0.51902(14) 0.30939(10)
C14H C 0.48597(16) 0.73802(14) 0.71892(11)
C14C C 0.26198(14) 0.51403(16) 0.71892(11)
C14O C 0.51403(16) 0.26198(14) 0.71892(11)
C14E C 0.73802(14) 0.48597(16) 0.71892(11)
C14K C 0.73802(14) 0.48597(16) 0.28108(11)
C14G C 0.48597(16) 0.73802(14) 0.28108(11)
C14M C 0.26198(14) 0.51403(16) 0.28108(11)
H13H H 0.4823 0.7705 0.7188
H13C H 0.2295 0.5177 0.7188
H13E H 0.7705 0.4823 0.7188
H13K H 0.7705 0.4823 0.2812
H13G H 0.4823 0.7705 0.2812
H13M H 0.2295 0.5177 0.2812
H13O H 0.5177 0.2295 0.7188
C15H C 0.49631(17) 0.71525(16) 0.74748(11)
C15C C 0.28475(16) 0.50369(17) 0.74748(11)
C15O C 0.50369(17) 0.28475(16) 0.74748(11)
C15E C 0.71525(16) 0.49631(17) 0.74748(11)
C15K C 0.71525(16) 0.49631(17) 0.25252(11)
C15G C 0.49631(17) 0.71525(16) 0.25252(11)
C15M C 0.28475(16) 0.50369(17) 0.25252(11)
C16H C 0.49987(16) 0.66596(15) 0.74646(10)
C16C C 0.33404(15) 0.50013(16) 0.74646(10)
C16O C 0.50013(16) 0.33404(15) 0.74646(10)
C16E C 0.66596(15) 0.49987(16) 0.74646(10)
C16K C 0.66596(15) 0.49987(16) 0.25354(10)
C16G C 0.49987(16) 0.66596(15) 0.25354(10)
C16M C 0.33404(15) 0.50013(16) 0.25354(10)
H14H H 0.5054 0.6497 0.7652
H14C H 0.3503 0.4946 0.7652
H14E H 0.6497 0.5054 0.7652
H14K H 0.6497 0.5054 0.2348
H14G H 0.5054 0.6497 0.2348
H14M H 0.3503 0.4946 0.2348
H14O H 0.4946 0.3503 0.7652
C17H C 0.49540(13) 0.64079(14) 0.71851(10)
C17C C 0.35921(14) 0.50460(13) 0.71851(10)
C17O C 0.50460(13) 0.35921(14) 0.71851(10)
C17E C 0.64079(14) 0.49540(13) 0.71851(10)
C17K C 0.64079(14) 0.49540(13) 0.28149(10)
C17G C 0.49540(13) 0.64079(14) 0.28149(10)
C17M C 0.35921(14) 0.50460(13) 0.28149(10)
C18H C 0.48595(13) 0.66437(13) 0.69046(10)
C18C C 0.33563(13) 0.51405(13) 0.69046(10)
C18O C 0.51405(13) 0.33563(13) 0.69046(10)
C18E C 0.66437(13) 0.48595(13) 0.69046(10)
C18K C 0.66437(13) 0.48595(13) 0.30954(10)
C18G C 0.48595(13) 0.66437(13) 0.30954(10)
C18M C 0.33563(13) 0.51405(13) 0.30954(10)
H15H H 0.4829 0.6478 0.6716
H15C H 0.3522 0.5171 0.6716
H15O H 0.5171 0.3522 0.6716
H15E H 0.6478 0.4829 0.6716
H15K H 0.6478 0.4829 0.3284
H15G H 0.4829 0.6478 0.3284
H15M H 0.3522 0.5171 0.3284
C19C C 0.26157(12) 0.53190(15) 0.66072(9)
C19M C 0.26157(12) 0.53190(15) 0.33928(9)
C19G C 0.46810(15) 0.73843(12) 0.33928(9)
C19H C 0.46810(15) 0.73843(12) 0.66072(9)
C19O C 0.53190(15) 0.26157(12) 0.66072(9)
C19K C 0.73843(12) 0.46810(15) 0.33928(9)
C19E C 0.73843(12) 0.46810(15) 0.66072(9)
C20H C 0.49830(14) 0.58777(14) 0.71870(9)
C20E C 0.58777(14) 0.49830(14) 0.71870(9)
C20O C 0.50170(14) 0.41223(14) 0.71870(9)
C20C C 0.41223(14) 0.50170(14) 0.71870(9)
C20K C 0.58777(14) 0.49830(14) 0.28130(9)
C20M C 0.41223(14) 0.50170(14) 0.28130(9)
C20G C 0.49830(14) 0.58777(14) 0.28130(9)
C21C C 0.25748(19) 0.4972(2) 0.77769(12)
C21E C 0.74252(19) 0.5028(2) 0.77769(12)
C21G C 0.5028(2) 0.74252(19) 0.22231(12)
C21M C 0.25748(19) 0.4972(2) 0.22231(12)
C21K C 0.74252(19) 0.5028(2) 0.22231(12)
C21O C 0.4972(2) 0.25748(19) 0.77769(12)
C21H C 0.5028(2) 0.74252(19) 0.77769(12)
C22C C 0.2794(4) 0.5231(7) 0.8046(2)
C22E C 0.7206(4) 0.4769(7) 0.8046(2)
C22G C 0.4769(7) 0.7206(4) 0.1954(2)
C22M C 0.2794(4) 0.5231(7) 0.1954(2)
C22K C 0.7206(4) 0.4769(7) 0.1954(2)
C22O C 0.5231(7) 0.2794(4) 0.8046(2)
C22H C 0.4769(7) 0.7206(4) 0.8046(2)
H16C H 0.2811 0.5559 0.7995
H16E H 0.7189 0.4441 0.7995
H16G H 0.4441 0.7189 0.2005
H16M H 0.2811 0.5559 0.2005
H16K H 0.7189 0.4441 0.2005
H16O H 0.5559 0.2811 0.7995
H16H H 0.4441 0.7189 0.7995
H17C H 0.3104 0.5112 0.8082
H17E H 0.6896 0.4888 0.8082
H17G H 0.4888 0.6896 0.1918
H17M H 0.3104 0.5112 0.1918
H17K H 0.6896 0.4888 0.1918
H17O H 0.5112 0.3104 0.8082
H17H H 0.4888 0.6896 0.8082
H18C H 0.2608 0.5189 0.8233
H18E H 0.7392 0.4811 0.8233
H18G H 0.4811 0.7392 0.1767
H18M H 0.2608 0.5189 0.1767
H18K H 0.7392 0.4811 0.1767
H18O H 0.5189 0.2608 0.8233
H18H H 0.4811 0.7392 0.8233
C23C C 0.2547(7) 0.4491(5) 0.7843(4)
C23E C 0.7453(7) 0.5509(5) 0.7843(4)
C23G C 0.5509(5) 0.7453(7) 0.2157(4)
C23M C 0.2547(7) 0.4491(5) 0.2157(4)
C23K C 0.7453(7) 0.5509(5) 0.2157(4)
C23O C 0.4491(5) 0.2547(7) 0.7843(4)
C23H C 0.5509(5) 0.7453(7) 0.7843(4)
H19C H 0.2857 0.4359 0.7846
H19E H 0.7143 0.5641 0.7846
H19G H 0.5641 0.7143 0.2154
H19M H 0.2857 0.4359 0.2154
H19K H 0.7143 0.5641 0.2154
H19O H 0.4359 0.2857 0.7846
H19H H 0.5641 0.7143 0.7846
H20C H 0.2363 0.4339 0.7683
H20E H 0.7637 0.5661 0.7683
H20G H 0.5661 0.7637 0.2317
H20M H 0.2363 0.4339 0.2317
H20K H 0.7637 0.5661 0.2317
H20O H 0.4339 0.2363 0.7683
H20H H 0.5661 0.7637 0.7683
H21C H 0.2402 0.4446 0.8046
H21E H 0.7598 0.5554 0.8046
H21G H 0.5554 0.7598 0.1954
H21M H 0.2402 0.4446 0.1954
H21K H 0.7598 0.5554 0.1954
H21O H 0.4446 0.2402 0.8046
H21H H 0.5554 0.7598 0.8046
C24C C 0.2100(3) 0.5152(3) 0.77765(16)
C24E C 0.7900(3) 0.4848(3) 0.77765(16)
C24G C 0.4848(3) 0.7900(3) 0.22235(16)
C24M C 0.2100(3) 0.5152(3) 0.22235(16)
C24K C 0.7900(3) 0.4848(3) 0.22235(16)
C24O C 0.5152(3) 0.2100(3) 0.77765(16)
C24H C 0.4848(3) 0.7900(3) 0.77765(16)
H22C H 0.2104 0.5481 0.7727
H22E H 0.7896 0.4519 0.7727
H22G H 0.4519 0.7896 0.2273
H22M H 0.2104 0.5481 0.2273
H22K H 0.7896 0.4519 0.2273
H22O H 0.5481 0.2104 0.7727
H22H H 0.4519 0.7896 0.7727
H23C H 0.1962 0.5107 0.7982
H23E H 0.8038 0.4893 0.7982
H23G H 0.4893 0.8038 0.2018
H23M H 0.1962 0.5107 0.2018
H23K H 0.8038 0.4893 0.2018
H23O H 0.5107 0.1962 0.7982
H23H H 0.4893 0.8038 0.7982
H24C H 0.1918 0.4988 0.7620
H24E H 0.8082 0.5012 0.7620
H24G H 0.5012 0.8082 0.2380
H24M H 0.1918 0.4988 0.2380
H24K H 0.8082 0.5012 0.2380
H24O H 0.4988 0.1918 0.7620
H24H H 0.5012 0.8082 0.7620
C25C C 0.17918(13) 0.57393(15) 0.55925(10)
C25M C 0.17918(13) 0.57393(15) 0.44075(10)
C25G C 0.42607(15) 0.82082(13) 0.44075(10)
C25H C 0.42607(15) 0.82082(13) 0.55925(10)
C25O C 0.57393(15) 0.17918(13) 0.55925(10)
C25K C 0.82082(13) 0.42607(15) 0.44075(10)
C25E C 0.82082(13) 0.42607(15) 0.55925(10)
C26C C 0.15588(14) 0.58693(15) 0.52825(10)
C26M C 0.15588(14) 0.58693(15) 0.47175(10)
C26G C 0.41307(15) 0.84412(14) 0.47175(10)
C26H C 0.41307(15) 0.84412(14) 0.52825(10)
C26O C 0.58693(15) 0.15588(14) 0.52825(10)
C26K C 0.84412(14) 0.41307(15) 0.47175(10)
C26E C 0.84412(14) 0.41307(15) 0.52825(10)
C27C C 0.11038(14) 0.60685(15) 0.52806(11)
C27M C 0.11038(14) 0.60685(15) 0.47194(11)
C27G C 0.39315(15) 0.88962(14) 0.47194(11)
C27H C 0.39315(15) 0.88962(14) 0.52806(11)
C27O C 0.60685(15) 0.11038(14) 0.52806(11)
C27K C 0.88962(14) 0.39315(15) 0.47194(11)
C27E C 0.88962(14) 0.39315(15) 0.52806(11)
H25C H 0.0952 0.6129 0.5472
H25G H 0.3871 0.9048 0.4528
H25O H 0.6129 0.0952 0.5472
H25K H 0.9048 0.3871 0.4528
H25E H 0.9048 0.3871 0.5472
H25H H 0.3871 0.9048 0.5472
H25M H 0.0952 0.6129 0.4528
C28M C 0.0884(2) 0.6174(2) 0.5000
C28H C 0.3826(2) 0.9116(2) 0.5000
C28E C 0.9116(2) 0.3826(2) 0.5000
C29E C 0.82244(19) 0.42133(19) 0.5000
C29H C 0.42133(19) 0.82244(19) 0.5000
C29M C 0.17756(19) 0.57867(19) 0.5000
H26E H 0.7919 0.4329 0.5000
H26H H 0.4329 0.7919 0.5000
H26M H 0.2081 0.5671 0.5000
C30E C 0.9609(2) 0.3584(2) 0.5000
C30H C 0.3584(2) 0.9609(2) 0.5000
C30M C 0.0391(2) 0.6416(2) 0.5000
C34M C 0.25420(15) 0.68629(15) 0.37099(10)
C34G C 0.31371(15) 0.74580(15) 0.37099(10)
C34H C 0.31371(15) 0.74580(15) 0.62901(10)
C34C C 0.25420(15) 0.68629(15) 0.62901(10)
C34K C 0.74580(15) 0.31371(15) 0.37099(10)
C34E C 0.74580(15) 0.31371(15) 0.62901(10)
C34O C 0.68629(15) 0.25420(15) 0.62901(10)
C35M C 0.29803(16) 0.70197(16) 0.37945(14)
C35C C 0.29803(16) 0.70197(16) 0.62055(14)
C35O C 0.70197(16) 0.29803(16) 0.62055(14)
H27C H 0.3176 0.6824 0.6088
H27O H 0.6824 0.3176 0.6088
H27M H 0.3176 0.6824 0.3912
C36G C 0.28299(16) 0.77587(16) 0.35422(11)
C36M C 0.22413(16) 0.71701(16) 0.35422(11)
C36C C 0.22413(16) 0.71701(16) 0.64578(11)
C36H C 0.28299(16) 0.77587(16) 0.64578(11)
C36K C 0.77587(16) 0.28299(16) 0.35422(11)
C36O C 0.71701(16) 0.22413(16) 0.64578(11)
C36E C 0.77587(16) 0.28299(16) 0.64578(11)
H28G H 0.2931 0.8058 0.3487
H28M H 0.1942 0.7069 0.3487
H28C H 0.1942 0.7069 0.6513
H28H H 0.2931 0.8058 0.6513
H28K H 0.8058 0.2931 0.3487
H28O H 0.7069 0.1942 0.6513
H28E H 0.8058 0.2931 0.6513
C37M C 0.23835(18) 0.76165(18) 0.34589(17)
C37C C 0.23835(18) 0.76165(18) 0.65411(17)
C37O C 0.76165(18) 0.23835(18) 0.65411(17)
C38M C 0.2051(2) 0.7949(2) 0.3278(2)
C38C C 0.2051(2) 0.7949(2) 0.6722(2)
C38O C 0.7949(2) 0.2051(2) 0.6722(2)
N1C N 0.11437(9) 0.56857(12) 0.65020(8)
N1H N 0.43143(12) 0.88563(9) 0.65020(8)
N1E N 0.88563(9) 0.43143(12) 0.65020(8)
N1K N 0.88563(9) 0.43143(12) 0.34980(8)
N1O N 0.56857(12) 0.11437(9) 0.65020(8)
N1G N 0.43143(12) 0.88563(9) 0.34980(8)
N1M N 0.11437(9) 0.56857(12) 0.34980(8)
C42C C 0.07441(14) 0.55078(18) 0.63562(12)
C42H C 0.44922(18) 0.92559(14) 0.63562(12)
C42E C 0.92559(14) 0.44922(18) 0.63562(12)
C42K C 0.92559(14) 0.44922(18) 0.36438(12)
C42O C 0.55078(18) 0.07441(14) 0.63562(12)
C42G C 0.44922(18) 0.92559(14) 0.36438(12)
C42M C 0.07441(14) 0.55078(18) 0.36438(12)
H29C H 0.0772 0.5302 0.6186
H29H H 0.4698 0.9228 0.6186
H29E H 0.9228 0.4698 0.6186
H29K H 0.9228 0.4698 0.3814
H29O H 0.5302 0.0772 0.6186
H29G H 0.4698 0.9228 0.3814
H29M H 0.0772 0.5302 0.3814
C43C C 0.03020(10) 0.5638(3) 0.64644(18)
C43H C 0.4362(3) 0.96980(10) 0.64644(18)
C43E C 0.96980(10) 0.4362(3) 0.64644(18)
C43K C 0.96980(10) 0.4362(3) 0.35356(18)
C43O C 0.5638(3) 0.03020(10) 0.64644(18)
C43G C 0.4362(3) 0.96980(10) 0.35356(18)
C43M C 0.03020(10) 0.5638(3) 0.35356(18)
H30C H 0.0035 0.5519 0.6367
H30H H 0.4481 0.9965 0.6367
H30E H 0.9965 0.4481 0.6367
H30K H 0.9965 0.4481 0.3633
H30O H 0.5519 0.0035 0.6367
H30G H 0.4481 0.9965 0.3633
H30M H 0.0035 0.5519 0.3633
C44C C 0.02596(15) 0.5946(3) 0.67184(19)
C44H C 0.4054(3) 0.97404(15) 0.67184(19)
C44E C 0.97404(15) 0.4054(3) 0.67184(19)
C44K C 0.97404(15) 0.4054(3) 0.32816(19)
C44O C 0.5946(3) 0.02596(15) 0.67184(19)
C44G C 0.4054(3) 0.97404(15) 0.32816(19)
C44M C 0.02596(15) 0.5946(3) 0.32816(19)
H31C H -0.0036 0.6032 0.6791
H31H H 0.3968 1.0036 0.6791
H31E H 1.0036 0.3968 0.6791
H31K H 1.0036 0.3968 0.3209
H31O H 0.6032 -0.0036 0.6791
H31G H 0.3968 1.0036 0.3209
H31M H -0.0036 0.6032 0.3209
C45C C 0.0659(2) 0.6123(2) 0.68642(14)
C45H C 0.3877(2) 0.9341(2) 0.68642(14)
C45E C 0.9341(2) 0.3877(2) 0.68642(14)
C45K C 0.9341(2) 0.3877(2) 0.31358(14)
C45O C 0.6123(2) 0.0659(2) 0.68642(14)
C45G C 0.3877(2) 0.9341(2) 0.31358(14)
C45M C 0.0659(2) 0.6123(2) 0.31358(14)
H32C H 0.0631 0.6329 0.7034
H32H H 0.3671 0.9369 0.7034
H32E H 0.9369 0.3671 0.7034
H32K H 0.9369 0.3671 0.2966
H32O H 0.6329 0.0631 0.7034
H32G H 0.3671 0.9369 0.2966
H32M H 0.0631 0.6329 0.2966
C46C C 0.11013(17) 0.59936(16) 0.67560(10)
C46H C 0.40064(16) 0.88987(17) 0.67560(10)
C46E C 0.88987(17) 0.40064(16) 0.67560(10)
C46K C 0.88987(17) 0.40064(16) 0.32440(10)
C46O C 0.59936(16) 0.11013(17) 0.67560(10)
C46G C 0.40064(16) 0.88987(17) 0.32440(10)
C46M C 0.11013(17) 0.59936(16) 0.32440(10)
H33C H 0.1369 0.6113 0.6854
H33H H 0.3887 0.8631 0.6854
H33E H 0.8631 0.3887 0.6854
H33K H 0.8631 0.3887 0.3146
H33O H 0.6113 0.1369 0.6854
H33G H 0.3887 0.8631 0.3146
H33M H 0.1369 0.6113 0.3146
C47C C 0.23948(15) 0.63648(16) 0.62147(10)
C47M C 0.23948(15) 0.63648(16) 0.37853(10)
C47G C 0.36352(16) 0.76052(15) 0.37853(10)
C47H C 0.36352(16) 0.76052(15) 0.62147(10)
C47O C 0.63648(16) 0.23948(15) 0.62147(10)
C47K C 0.76052(15) 0.36352(16) 0.37853(10)
C47E C 0.76052(15) 0.36352(16) 0.62147(10)
C48M C 0.3507(4) 0.4077(3) 0.5000
C48E C 0.6493(4) 0.5923(3) 0.5000
C48H C 0.5923(3) 0.6493(4) 0.5000
H34M H 0.3194 0.4169 0.5000
H34E H 0.6806 0.5831 0.5000
H34H H 0.5831 0.6806 0.5000
C49M C 0.3841(4) 0.4413(4) 0.5000
C49E C 0.6159(4) 0.5587(4) 0.5000
C49H C 0.5587(4) 0.6159(4) 0.5000
H35M H 0.3750 0.4726 0.5000
H35E H 0.6250 0.5274 0.5000
H35H H 0.5274 0.6250 0.5000
C50H C 0.5694(3) 0.5694(3) 0.5000
H36H H 0.5463 0.5463 0.5000
C51M C 0.3489(3) 0.5038(4) 0.4264(3)
C51G C 0.4962(4) 0.6511(3) 0.4264(3)
C51H C 0.4962(4) 0.6511(3) 0.5736(3)
C51O C 0.5038(4) 0.3489(3) 0.5736(3)
C51K C 0.6511(3) 0.4962(4) 0.4264(3)
C51E C 0.6511(3) 0.4962(4) 0.5736(3)
C51C C 0.3489(3) 0.5038(4) 0.5736(3)
H37M H 0.3768 0.5055 0.4390
H37G H 0.4945 0.6232 0.4390
H37H H 0.4945 0.6232 0.5610
H37O H 0.5055 0.3768 0.5610
H37K H 0.6232 0.4945 0.4390
H37E H 0.6232 0.4945 0.5610
H37C H 0.3768 0.5055 0.5610
H38M H 0.3311 0.4766 0.4324
H38G H 0.5234 0.6689 0.4324
H38H H 0.5234 0.6689 0.5676
H38O H 0.4766 0.3311 0.5676
H38K H 0.6689 0.5234 0.4324
H38E H 0.6689 0.5234 0.5676
H38C H 0.3311 0.4766 0.5676
H39M H 0.3573 0.5016 0.4044
H39G H 0.4984 0.6427 0.4044
H39H H 0.4984 0.6427 0.5956
H39O H 0.5016 0.3573 0.5956
H39K H 0.6427 0.4984 0.4044
H39E H 0.6427 0.4984 0.5956
H39C H 0.3573 0.5016 0.5956
O13M O 0.32372(12) 0.54138(15) 0.43095(10)
O13G O 0.45862(15) 0.67628(12) 0.43095(10)
O13H O 0.45862(15) 0.67628(12) 0.56905(10)
O13O O 0.54138(15) 0.32372(12) 0.56905(10)
O13K O 0.67628(12) 0.45862(15) 0.43095(10)
O13E O 0.67628(12) 0.45862(15) 0.56905(10)
O13C O 0.32372(12) 0.54138(15) 0.56905(10)
O14H O 0.81159(18) 0.81159(18) 0.5000
O15O O 0.5000 0.5000 0.80053(17)
N2H N 0.63919(17) 0.63919(17) 0.5000
N3O N 0.5000 0.5000 0.63605(16)
C52O C 0.5000 0.5000 0.5688(5)
H40O H 0.5000 0.5000 0.5468
C53C C 0.4734(3) 0.5266(3) 0.6187(3)
C53O C 0.5266(3) 0.4734(3) 0.6187(3)
C53M C 0.4734(3) 0.5266(3) 0.3813(3)
H41C H 0.4531 0.5469 0.6292
H41O H 0.5469 0.4531 0.6292
H41M H 0.4531 0.5469 0.3708
C54C C 0.4727(5) 0.5273(5) 0.5866(4)
C54O C 0.5273(5) 0.4727(5) 0.5866(4)
C54M C 0.4727(5) 0.5273(5) 0.4134(4)
H42O H 0.5478 0.4522 0.5766
H42C H 0.4522 0.5478 0.5766
H42M H 0.4522 0.5478 0.4234
C55C C 0.4716(11) 0.5284(11) 0.8161(6)
C55O C 0.5284(11) 0.4716(11) 0.8161(6)
C55M C 0.4716(11) 0.5284(11) 0.1839(6)
H43H H 0.4545 0.5474 0.8013
H43E H 0.5474 0.4545 0.8013
H43M H 0.4526 0.5455 0.1987
H44H H 0.4500 0.5102 0.8285
H44C H 0.4898 0.5500 0.8285
H44E H 0.5102 0.4500 0.8285
H44O H 0.5500 0.4898 0.8285
H44M H 0.4898 0.5500 0.1715
H44G H 0.4500 0.5102 0.1715
C56H C 0.8311(8) 0.8311(8) 0.5328(11)
C56G C 0.8311(8) 0.8311(8) 0.4672(11)
C56O C 0.1689(8) 0.1689(8) 0.5328(11)
H46E H 0.8146 0.8164 0.5500
H46K H 0.8146 0.8164 0.4500
H46O H 0.1836 0.1854 0.5500
H47E H 0.8264 0.8644 0.5337
H47H H 0.8644 0.8264 0.5337
H47K H 0.8264 0.8644 0.4663
H47G H 0.8644 0.8264 0.4663
H47O H 0.1356 0.1736 0.5337
H47C H 0.1736 0.1356 0.5337
O16 O 0.5000 0.5000 0.5000
C31? C 0.6140(8) 0.0055(5) 0.4780(5)
C32? C 0.6492(5) 0.0214(5) 0.5343(3)
C33? C 0.6886(4) 0.0446(4) 0.4830(4)
C39? C 0.7726(6) 0.1586(4) 0.3202(4)
C40? C 0.8378(4) 0.2000(5) 0.3497(4)
C41? C 0.8095(6) 0.2316(5) 0.2974(4)
loop_
_geom_bond_atom_site_label_1
_geom_bond_atom_site_label_2
_geom_bond_site_symmetry_1
_geom_bond_site_symmetry_2
Cu1 Cu2 1_555 1_555
Cu2 O2 1_555 1_555
Cu3 Cu4 1_555 1_555
Cu4 O4 1_555 1_555
Cu5 Cu6 1_555 1_555
Cu6 O7 1_555 1_555
O1 Cu1 1_555 1_555
O2 C7 1_555 1_555
O3 Cu3 1_555 1_555
O4 C8 1_555 1_555
O5 Cu4 1_555 1_555
O6 Cu3 1_555 1_555
O7 C20 1_555 1_555
O8 Cu5 1_555 1_555
O9 Cu4 1_555 1_555
O10 Cu3 1_555 1_555
O11 Cu4 1_555 1_555
O12 Cu3 1_555 1_555
C1 C2 1_555 1_555
C2 H1 1_555 1_555
C3 C2 1_555 1_555
C4 C3 1_555 1_555
H2 C4 1_555 1_555
C5 C4 1_555 1_555
C6 C1 1_555 1_555
H3 C6 1_555 1_555
C7 O1 1_555 1_555
C8 O3 1_555 1_555
C9 C3 1_555 1_555
C10 C9 1_555 1_555
H4 C10 1_555 1_555
H5 C10 1_555 1_555
H6 C10 1_555 1_555
C11 C9 1_555 1_555
H7 C11 1_555 1_555
H8 C11 1_555 1_555
H9 C11 1_555 1_555
C12 C9 1_555 1_555
H10 C12 1_555 1_555
H11 C12 1_555 1_555
H12 C12 1_555 1_555
C13 C14 1_555 1_555
C14 H13 1_555 1_555
C15 C14 1_555 1_555
C16 C15 1_555 1_555
H14 C16 1_555 1_555
C17 C16 1_555 1_555
C18 C13 1_555 1_555
H15 C18 1_555 1_555
C19 O5 1_555 1_555
C20 O8 1_555 1_555
C21 C15 1_555 1_555
C22 C21 1_555 1_555
H16 C22 1_555 1_555
H17 C22 1_555 1_555
H18 C22 1_555 1_555
C23 C21 1_555 1_555
H19 C23 1_555 1_555
H20 C23 1_555 1_555
H21 C23 1_555 1_555
C24 C21 1_555 1_555
H22 C24 1_555 1_555
H23 C24 1_555 1_555
H24 C24 1_555 1_555
C25 O11 1_555 1_555
C26 C25 1_555 1_555
C27 C26 1_555 1_555
H25 C27 1_555 1_555
C28 C27 1_555 1_555
C29 C26 1_555 1_555
H26 C29 1_555 1_555
C30 C28 1_555 1_555
C34 C35 1_555 1_555
C35 H27 1_555 1_555
C36 C34 1_555 1_555
H28 C36 1_555 1_555
C37 C36 1_555 1_555
C38 C37 1_555 1_555
N1 Cu3 1_555 1_555
C42 N1 1_555 1_555
H29 C42 1_555 1_555
C43 C42 1_555 1_555
H30 C43 1_555 1_555
C44 C43 1_555 1_555
H31 C44 1_555 1_555
C45 C44 1_555 1_555
H32 C45 1_555 1_555
C46 N1 1_555 1_555
H33 C46 1_555 1_555
C47 O9 1_555 1_555
C48 H34 1_555 1_555
C49 C48 1_555 1_555
H35 C49 1_555 1_555
C50 C49 1_555 1_555
H36 C50 1_555 1_555
C51 H37 1_555 1_555
H38 C51 1_555 1_555
H39 C51 1_555 1_555
O13 Cu4 1_555 1_555
O14 Cu1 1_555 1_555
O15 Cu5 1_555 1_555
N2 Cu2 1_555 1_555
N3 Cu6 1_555 1_555
C52 H40 1_555 1_555
C53 N3 1_555 1_555
H41 C53 1_555 1_555
C54 C52 1_555 1_555
H42 C54 1_555 1_555
C55 O15 1_555 1_555
H43 C55 1_555 1_555
H44 C55 1_555 1_555
H45 C55 1_555 1_555
C56 O14 1_555 1_555
H46 C56 1_555 1_555
H47 C56 1_555 1_555
H48 C56 1_555 1_555
Cu1H Cu2H 1_555 1_555
Cu2H O2E 1_555 1_555
Cu3C Cu4C 1_555 1_555
Cu3M Cu4M 1_555 1_555
Cu3G Cu4G 1_555 1_555
Cu3H Cu4H 1_555 1_555
Cu3O Cu4O 1_555 1_555
Cu3K Cu4K 1_555 1_555
Cu3E Cu4E 1_555 1_555
Cu4C O4C 1_555 1_555
Cu4M O4M 1_555 1_555
Cu4G O4G 1_555 1_555
Cu4H O4H 1_555 1_555
Cu4O O4O 1_555 1_555
Cu4K O4K 1_555 1_555
Cu4E O4E 1_555 1_555
Cu5O Cu6O 1_555 1_555
Cu6O O7H 1_555 1_555
O1M Cu1 1_555 1_555
O1O Cu1 1_555 1_555
O1C Cu1 1_555 1_555
O1E Cu1H 1_555 1_555
O1H Cu1H 1_555 1_555
O1K Cu1H 1_555 1_555
O1G Cu1H 1_555 1_555
O2M Cu2 1_555 1_555
O2O Cu2 1_555 1_555
O2C Cu2 1_555 1_555
O2E C7E 1_555 1_555
O2H Cu2H 1_555 1_555
O2K Cu2H 1_555 1_555
O2G Cu2H 1_555 1_555
O3C Cu3C 1_555 1_555
O3M Cu3M 1_555 1_555
O3G Cu3G 1_555 1_555
O3H Cu3H 1_555 1_555
O3O Cu3O 1_555 1_555
O3K Cu3K 1_555 1_555
O3E Cu3E 1_555 1_555
O4C C8C 1_555 1_555
O4M C8M 1_555 1_555
O4G C8G 1_555 1_555
O4H C8H 1_555 1_555
O4O C8O 1_555 1_555
O4K C8K 1_555 1_555
O4E C8E 1_555 1_555
O5C Cu4C 1_555 1_555
O5M Cu4M 1_555 1_555
O5G Cu4G 1_555 1_555
O5H Cu4H 1_555 1_555
O5O Cu4O 1_555 1_555
O5K Cu4K 1_555 1_555
O5E Cu4E 1_555 1_555
O6C Cu3C 1_555 1_555
O6M Cu3M 1_555 1_555
O6G Cu3G 1_555 1_555
O6H Cu3H 1_555 1_555
O6O Cu3O 1_555 1_555
O6K Cu3K 1_555 1_555
O6E Cu3E 1_555 1_555
O7H C20H 1_555 1_555
O7E Cu6O 1_555 1_555
O7O Cu6O 1_555 1_555
O7C Cu6O 1_555 1_555
O7K Cu6 1_555 1_555
O7M Cu6 1_555 1_555
O7G Cu6 1_555 1_555
O8H Cu5O 1_555 1_555
O8E Cu5O 1_555 1_555
O8O Cu5O 1_555 1_555
O8C Cu5O 1_555 1_555
O8M Cu5 1_555 1_555
O8G Cu5 1_555 1_555
O8K Cu5 1_555 1_555
O9C Cu4C 1_555 1_555
O9M Cu4M 1_555 1_555
O9G Cu4G 1_555 1_555
O9H Cu4H 1_555 1_555
O9O Cu4O 1_555 1_555
O9K Cu4K 1_555 1_555
O9E Cu4E 1_555 1_555
O10C Cu3C 1_555 1_555
O10M Cu3M 1_555 1_555
O10G Cu3G 1_555 1_555
O10H Cu3H 1_555 1_555
O10O Cu3O 1_555 1_555
O10K Cu3K 1_555 1_555
O10E Cu3E 1_555 1_555
O11C Cu4C 1_555 1_555
O11M Cu4M 1_555 1_555
O11G Cu4G 1_555 1_555
O11H Cu4H 1_555 1_555
O11O Cu4O 1_555 1_555
O11K Cu4K 1_555 1_555
O11E Cu4E 1_555 1_555
O12C Cu3C 1_555 1_555
O12G Cu3G 1_555 1_555
O12H Cu3H 1_555 1_555
O12O Cu3O 1_555 1_555
O12K Cu3K 1_555 1_555
O12E Cu3E 1_555 1_555
O12M Cu3M 1_555 1_555
C1C C2C 1_555 1_555
C1E C2E 1_555 1_555
C1G C2G 1_555 1_555
C1K C2K 1_555 1_555
C1H C2H 1_555 1_555
C1O C2O 1_555 1_555
C1M C2M 1_555 1_555
C2C H1C 1_555 1_555
C2E H1E 1_555 1_555
C2G H1G 1_555 1_555
C2K H1K 1_555 1_555
C2H H1H 1_555 1_555
C2O H1O 1_555 1_555
C2M H1M 1_555 1_555
C3C C2C 1_555 1_555
C3E C2E 1_555 1_555
C3G C2G 1_555 1_555
C3K C2K 1_555 1_555
C3H C2H 1_555 1_555
C3O C2O 1_555 1_555
C3M C2M 1_555 1_555
C4C C3C 1_555 1_555
C4E C3E 1_555 1_555
C4G C3G 1_555 1_555
C4K C3K 1_555 1_555
C4H C3H 1_555 1_555
C4O C3O 1_555 1_555
C4M C3M 1_555 1_555
H2C C4C 1_555 1_555
H2G C4G 1_555 1_555
H2K C4K 1_555 1_555
H2H C4H 1_555 1_555
H2E C4E 1_555 1_555
H2O C4O 1_555 1_555
H2M C4M 1_555 1_555
C5C C4C 1_555 1_555
C5E C4E 1_555 1_555
C5G C4G 1_555 1_555
C5K C4K 1_555 1_555
C5H C4H 1_555 1_555
C5O C4O 1_555 1_555
C5M C4M 1_555 1_555
C6C C1C 1_555 1_555
C6E C1E 1_555 1_555
C6G C1G 1_555 1_555
C6K C1K 1_555 1_555
C6H C1H 1_555 1_555
C6O C1O 1_555 1_555
C6M C1M 1_555 1_555
H3C C6C 1_555 1_555
H3E C6E 1_555 1_555
H3G C6G 1_555 1_555
H3K C6K 1_555 1_555
H3H C6H 1_555 1_555
H3O C6O 1_555 1_555
H3M C6M 1_555 1_555
C7M O1M 1_555 1_555
C7O O1O 1_555 1_555
C7C O1C 1_555 1_555
C7E O1E 1_555 1_555
C7H O1H 1_555 1_555
C7K O1K 1_555 1_555
C7G O1G 1_555 1_555
C8C O3C 1_555 1_555
C8M O3M 1_555 1_555
C8G O3G 1_555 1_555
C8H O3H 1_555 1_555
C8O O3O 1_555 1_555
C8K O3K 1_555 1_555
C8E O3E 1_555 1_555
C9G C3G 1_555 1_555
C9K C3K 1_555 1_555
C9H C3H 1_555 1_555
C9E C3E 1_555 1_555
C9O C3O 1_555 1_555
C9M C3M 1_555 1_555
C9C C3C 1_555 1_555
C10G C9G 1_555 1_555
C10K C9K 1_555 1_555
C10H C9H 1_555 1_555
C10E C9E 1_555 1_555
C10O C9O 1_555 1_555
C10M C9M 1_555 1_555
C10C C9C 1_555 1_555
H4G C10G 1_555 1_555
H4K C10K 1_555 1_555
H4H C10H 1_555 1_555
H4E C10E 1_555 1_555
H4O C10O 1_555 1_555
H4M C10M 1_555 1_555
H4C C10C 1_555 1_555
H5G C10G 1_555 1_555
H5K C10K 1_555 1_555
H5H C10H 1_555 1_555
H5E C10E 1_555 1_555
H5O C10O 1_555 1_555
H5M C10M 1_555 1_555
H5C C10C 1_555 1_555
H6G C10G 1_555 1_555
H6K C10K 1_555 1_555
H6H C10H 1_555 1_555
H6E C10E 1_555 1_555
H6O C10O 1_555 1_555
H6M C10M 1_555 1_555
H6C C10C 1_555 1_555
C11G C9G 1_555 1_555
C11K C9K 1_555 1_555
C11H C9H 1_555 1_555
C11E C9E 1_555 1_555
C11O C9O 1_555 1_555
C11M C9M 1_555 1_555
C11C C9C 1_555 1_555
H7G C11G 1_555 1_555
H7K C11K 1_555 1_555
H7H C11H 1_555 1_555
H7E C11E 1_555 1_555
H7O C11O 1_555 1_555
H7M C11M 1_555 1_555
H7C C11C 1_555 1_555
H8G C11G 1_555 1_555
H8K C11K 1_555 1_555
H8H C11H 1_555 1_555
H8E C11E 1_555 1_555
H8O C11O 1_555 1_555
H8M C11M 1_555 1_555
H8C C11C 1_555 1_555
H9G C11G 1_555 1_555
H9K C11K 1_555 1_555
H9H C11H 1_555 1_555
H9E C11E 1_555 1_555
H9O C11O 1_555 1_555
H9M C11M 1_555 1_555
H9C C11C 1_555 1_555
C12G C9G 1_555 1_555
C12K C9K 1_555 1_555
C12H C9H 1_555 1_555
C12E C9E 1_555 1_555
C12O C9O 1_555 1_555
C12M C9M 1_555 1_555
C12C C9C 1_555 1_555
H10G C12G 1_555 1_555
H10K C12K 1_555 1_555
H10H C12H 1_555 1_555
H10E C12E 1_555 1_555
H10O C12O 1_555 1_555
H10M C12M 1_555 1_555
H10C C12C 1_555 1_555
H11G C12G 1_555 1_555
H11K C12K 1_555 1_555
H11H C12H 1_555 1_555
H11E C12E 1_555 1_555
H11O C12O 1_555 1_555
H11M C12M 1_555 1_555
H11C C12C 1_555 1_555
H12G C12G 1_555 1_555
H12K C12K 1_555 1_555
H12H C12H 1_555 1_555
H12E C12E 1_555 1_555
H12O C12O 1_555 1_555
H12M C12M 1_555 1_555
H12C C12C 1_555 1_555
C13H C14H 1_555 1_555
C13C C14C 1_555 1_555
C13O C14O 1_555 1_555
C13E C14E 1_555 1_555
C13K C14K 1_555 1_555
C13G C14G 1_555 1_555
C13M C14M 1_555 1_555
C14H H13H 1_555 1_555
C14C H13C 1_555 1_555
C14O H13O 1_555 1_555
C14E H13E 1_555 1_555
C14K H13K 1_555 1_555
C14G H13G 1_555 1_555
C14M H13M 1_555 1_555
C15H C14H 1_555 1_555
C15C C14C 1_555 1_555
C15O C14O 1_555 1_555
C15E C14E 1_555 1_555
C15K C14K 1_555 1_555
C15G C14G 1_555 1_555
C15M C14M 1_555 1_555
C16H C15H 1_555 1_555
C16C C15C 1_555 1_555
C16O C15O 1_555 1_555
C16E C15E 1_555 1_555
C16K C15K 1_555 1_555
C16G C15G 1_555 1_555
C16M C15M 1_555 1_555
H14H C16H 1_555 1_555
H14C C16C 1_555 1_555
H14E C16E 1_555 1_555
H14K C16K 1_555 1_555
H14G C16G 1_555 1_555
H14M C16M 1_555 1_555
H14O C16O 1_555 1_555
C17H C16H 1_555 1_555
C17C C16C 1_555 1_555
C17O C16O 1_555 1_555
C17E C16E 1_555 1_555
C17K C16K 1_555 1_555
C17G C16G 1_555 1_555
C17M C16M 1_555 1_555
C18H C13H 1_555 1_555
C18C C13C 1_555 1_555
C18O C13O 1_555 1_555
C18E C13E 1_555 1_555
C18K C13K 1_555 1_555
C18G C13G 1_555 1_555
C18M C13M 1_555 1_555
H15H C18H 1_555 1_555
H15C C18C 1_555 1_555
H15O C18O 1_555 1_555
H15E C18E 1_555 1_555
H15K C18K 1_555 1_555
H15G C18G 1_555 1_555
H15M C18M 1_555 1_555
C19C O5C 1_555 1_555
C19M O5M 1_555 1_555
C19G O5G 1_555 1_555
C19H O5H 1_555 1_555
C19O O5O 1_555 1_555
C19K O5K 1_555 1_555
C19E O5E 1_555 1_555
C20H O8H 1_555 1_555
C20E O7E 1_555 1_555
C20O O7O 1_555 1_555
C20C O7C 1_555 1_555
C20K O7K 1_555 1_555
C20M O7M 1_555 1_555
C20G O7G 1_555 1_555
C21C C15C 1_555 1_555
C21E C15E 1_555 1_555
C21G C15G 1_555 1_555
C21M C15M 1_555 1_555
C21K C15K 1_555 1_555
C21O C15O 1_555 1_555
C21H C15H 1_555 1_555
C22C C21C 1_555 1_555
C22E C21E 1_555 1_555
C22G C21G 1_555 1_555
C22M C21M 1_555 1_555
C22K C21K 1_555 1_555
C22O C21O 1_555 1_555
C22H C21H 1_555 1_555
H16C C22C 1_555 1_555
H16E C22E 1_555 1_555
H16G C22G 1_555 1_555
H16M C22M 1_555 1_555
H16K C22K 1_555 1_555
H16O C22O 1_555 1_555
H16H C22H 1_555 1_555
H17C C22C 1_555 1_555
H17E C22E 1_555 1_555
H17G C22G 1_555 1_555
H17M C22M 1_555 1_555
H17K C22K 1_555 1_555
H17O C22O 1_555 1_555
H17H C22H 1_555 1_555
H18C C22C 1_555 1_555
H18E C22E 1_555 1_555
H18G C22G 1_555 1_555
H18M C22M 1_555 1_555
H18K C22K 1_555 1_555
H18O C22O 1_555 1_555
H18H C22H 1_555 1_555
C23C C21C 1_555 1_555
C23E C21E 1_555 1_555
C23G C21G 1_555 1_555
C23M C21M 1_555 1_555
C23K C21K 1_555 1_555
C23O C21O 1_555 1_555
C23H C21H 1_555 1_555
H19C C23C 1_555 1_555
H19E C23E 1_555 1_555
H19G C23G 1_555 1_555
H19M C23M 1_555 1_555
H19K C23K 1_555 1_555
H19O C23O 1_555 1_555
H19H C23H 1_555 1_555
H20C C23C 1_555 1_555
H20E C23E 1_555 1_555
H20G C23G 1_555 1_555
H20M C23M 1_555 1_555
H20K C23K 1_555 1_555
H20O C23O 1_555 1_555
H20H C23H 1_555 1_555
H21C C23C 1_555 1_555
H21E C23E 1_555 1_555
H21G C23G 1_555 1_555
H21M C23M 1_555 1_555
H21K C23K 1_555 1_555
H21O C23O 1_555 1_555
H21H C23H 1_555 1_555
C24C C21C 1_555 1_555
C24E C21E 1_555 1_555
C24G C21G 1_555 1_555
C24M C21M 1_555 1_555
C24K C21K 1_555 1_555
C24O C21O 1_555 1_555
C24H C21H 1_555 1_555
H22C C24C 1_555 1_555
H22E C24E 1_555 1_555
H22G C24G 1_555 1_555
H22M C24M 1_555 1_555
H22K C24K 1_555 1_555
H22O C24O 1_555 1_555
H22H C24H 1_555 1_555
H23C C24C 1_555 1_555
H23E C24E 1_555 1_555
H23G C24G 1_555 1_555
H23M C24M 1_555 1_555
H23K C24K 1_555 1_555
H23O C24O 1_555 1_555
H23H C24H 1_555 1_555
H24C C24C 1_555 1_555
H24E C24E 1_555 1_555
H24G C24G 1_555 1_555
H24M C24M 1_555 1_555
H24K C24K 1_555 1_555
H24O C24O 1_555 1_555
H24H C24H 1_555 1_555
C25C O11C 1_555 1_555
C25M O11M 1_555 1_555
C25G O11G 1_555 1_555
C25H O11H 1_555 1_555
C25O O11O 1_555 1_555
C25K O11K 1_555 1_555
C25E O11E 1_555 1_555
C26C C25C 1_555 1_555
C26M C25M 1_555 1_555
C26G C25G 1_555 1_555
C26H C25H 1_555 1_555
C26O C29 1_555 1_555
C26K C25K 1_555 1_555
C26E C25E 1_555 1_555
C27C C26C 1_555 1_555
C27M C26M 1_555 1_555
C27G C26G 1_555 1_555
C27H C26H 1_555 1_555
C27O C28 1_555 1_555
C27K C26K 1_555 1_555
C27E C26E 1_555 1_555
H25C C27C 1_555 1_555
H25G C27G 1_555 1_555
H25O C27O 1_555 1_555
H25K C27K 1_555 1_555
H25E C27E 1_555 1_555
H25H C27H 1_555 1_555
H25M C27M 1_555 1_555
C28M C27C 1_555 1_555
C28H C27G 1_555 1_555
C28E C27K 1_555 1_555
C29E C26K 1_555 1_555
C29H C26G 1_555 1_555
C29M C26C 1_555 1_555
H26E C29E 1_555 1_555
H26H C29H 1_555 1_555
H26M C29M 1_555 1_555
C30E C28E 1_555 1_555
C30H C28H 1_555 1_555
C30M C28M 1_555 1_555
C34M C35M 1_555 1_555
C34G C35M 1_555 1_555
C34H C35C 1_555 1_555
C34C C35C 1_555 1_555
C34K C35 1_555 1_555
C34E C35O 1_555 1_555
C34O C35O 1_555 1_555
C35M H27M 1_555 1_555
C35C H27C 1_555 1_555
C35O H27O 1_555 1_555
C36G C34G 1_555 1_555
C36M C34M 1_555 1_555
C36C C34C 1_555 1_555
C36H C34H 1_555 1_555
C36K C37 1_555 1_555
C36O C34O 1_555 1_555
C36E C34E 1_555 1_555
H28G C36G 1_555 1_555
H28M C36M 1_555 1_555
H28C C36C 1_555 1_555
H28H C36H 1_555 1_555
H28K C36K 1_555 1_555
H28O C36O 1_555 1_555
H28E C36E 1_555 1_555
C37M C36G 1_555 1_555
C37C C36C 1_555 1_555
C37O C36O 1_555 1_555
C38M C37M 1_555 1_555
C38C C37C 1_555 1_555
C38O C37O 1_555 1_555
N1C Cu3C 1_555 1_555
N1H Cu3H 1_555 1_555
N1E Cu3E 1_555 1_555
N1K Cu3K 1_555 1_555
N1O Cu3O 1_555 1_555
N1G Cu3G 1_555 1_555
N1M Cu3M 1_555 1_555
C42C N1C 1_555 1_555
C42H N1H 1_555 1_555
C42E N1E 1_555 1_555
C42K N1K 1_555 1_555
C42O N1O 1_555 1_555
C42G N1G 1_555 1_555
C42M N1M 1_555 1_555
H29C C42C 1_555 1_555
H29H C42H 1_555 1_555
H29E C42E 1_555 1_555
H29K C42K 1_555 1_555
H29O C42O 1_555 1_555
H29G C42G 1_555 1_555
H29M C42M 1_555 1_555
C43C C42C 1_555 1_555
C43H C42H 1_555 1_555
C43E C42E 1_555 1_555
C43K C42K 1_555 1_555
C43O C42O 1_555 1_555
C43G C42G 1_555 1_555
C43M C42M 1_555 1_555
H30C C43C 1_555 1_555
H30H C43H 1_555 1_555
H30E C43E 1_555 1_555
H30K C43K 1_555 1_555
H30O C43O 1_555 1_555
H30G C43G 1_555 1_555
H30M C43M 1_555 1_555
C44C C43C 1_555 1_555
C44H C43H 1_555 1_555
C44E C43E 1_555 1_555
C44K C43K 1_555 1_555
C44O C43O 1_555 1_555
C44G C43G 1_555 1_555
C44M C43M 1_555 1_555
H31C C44C 1_555 1_555
H31H C44H 1_555 1_555
H31E C44E 1_555 1_555
H31K C44K 1_555 1_555
H31O C44O 1_555 1_555
H31G C44G 1_555 1_555
H31M C44M 1_555 1_555
C45C C44C 1_555 1_555
C45H C44H 1_555 1_555
C45E C44E 1_555 1_555
C45K C44K 1_555 1_555
C45O C44O 1_555 1_555
C45G C44G 1_555 1_555
C45M C44M 1_555 1_555
H32C C45C 1_555 1_555
H32H C45H 1_555 1_555
H32E C45E 1_555 1_555
H32K C45K 1_555 1_555
H32O C45O 1_555 1_555
H32G C45G 1_555 1_555
H32M C45M 1_555 1_555
C46C N1C 1_555 1_555
C46H N1H 1_555 1_555
C46E N1E 1_555 1_555
C46K N1K 1_555 1_555
C46O N1O 1_555 1_555
C46G N1G 1_555 1_555
C46M N1M 1_555 1_555
H33C C46C 1_555 1_555
H33H C46H 1_555 1_555
H33E C46E 1_555 1_555
H33K C46K 1_555 1_555
H33O C46O 1_555 1_555
H33G C46G 1_555 1_555
H33M C46M 1_555 1_555
C47C O9C 1_555 1_555
C47M O9M 1_555 1_555
C47G O9G 1_555 1_555
C47H O9H 1_555 1_555
C47O O9O 1_555 1_555
C47K O9K 1_555 1_555
C47E O9E 1_555 1_555
C48M N2 1_555 1_555
C48E H34E 1_555 1_555
C48H H34H 1_555 1_555
H34M C48M 1_555 1_555
C49M C50 1_555 1_555
C49E C48E 1_555 1_555
C49H C48H 1_555 1_555
H35M C49M 1_555 1_555
H35E C49E 1_555 1_555
H35H C49H 1_555 1_555
C50H C49E 1_555 1_555
H36H C50H 1_555 1_555
C51M H37M 1_555 1_555
C51G H37G 1_555 1_555
C51H H37H 1_555 1_555
C51O H37O 1_555 1_555
C51K H37K 1_555 1_555
C51E H37E 1_555 1_555
C51C H37C 1_555 1_555
H38M C51M 1_555 1_555
H38G C51G 1_555 1_555
H38H C51H 1_555 1_555
H38O C51O 1_555 1_555
H38K C51K 1_555 1_555
H38E C51E 1_555 1_555
H38C C51C 1_555 1_555
H39M C51M 1_555 1_555
H39G C51G 1_555 1_555
H39H C51H 1_555 1_555
H39O C51O 1_555 1_555
H39K C51K 1_555 1_555
H39E C51E 1_555 1_555
H39C C51C 1_555 1_555
O13M Cu4M 1_555 1_555
O13G Cu4G 1_555 1_555
O13H Cu4H 1_555 1_555
O13O Cu4O 1_555 1_555
O13K Cu4K 1_555 1_555
O13E Cu4E 1_555 1_555
O13C Cu4C 1_555 1_555
O14H Cu1H 1_555 1_555
O15O Cu5O 1_555 1_555
N2H Cu2H 1_555 1_555
N3O Cu6O 1_555 1_555
C52O H40O 1_555 1_555
C53C N3O 1_555 1_555
C53O N3O 1_555 1_555
C53M N3 1_555 1_555
H41C C53C 1_555 1_555
H41O C53O 1_555 1_555
H41M C53M 1_555 1_555
C54C C52O 1_555 1_555
C54O C52O 1_555 1_555
C54M C52 1_555 1_555
H42O C54O 1_555 1_555
H42C C54C 1_555 1_555
H42M C54M 1_555 1_555
C55C O15O 1_555 1_555
C55O O15O 1_555 1_555
C55M O15 1_555 1_555
H43H C55C 1_555 1_555
H43E C55O 1_555 1_555
H43M C55M 1_555 1_555
H44H C55C 1_555 1_555
H44C C55C 1_555 1_555
H44E C55O 1_555 1_555
H44O C55O 1_555 1_555
H44M C55M 1_555 1_555
H44G C55M 1_555 1_555
C56H O14H 1_555 1_555
C56G O14H 1_555 1_555
C56O O14 1_555 1_555
H46E C56H 1_555 1_555
H46K C56G 1_555 1_555
H46O C56O 1_555 1_555
H47E C56H 1_555 1_555
H47H C56H 1_555 1_555
H47K C56G 1_555 1_555
H47G C56G 1_555 1_555
H47O C56O 1_555 1_555
H47C C56O 1_555 1_555
O6 C19 1_555 1_555
O10 C47 1_555 1_555
O12 C25 1_555 1_555
C1 C7 1_555 1_555
C5 C6 1_555 1_555
C5 C8 1_555 1_555
C13 C19 1_555 1_555
C17 C18 1_555 1_555
C17 C20 1_555 1_555
C34 C47 1_555 1_555
C45 C46 1_555 1_555
C48 N2 1_555 1_555
C51 O13 1_555 1_555
C53 C54 1_555 1_555
O2M C7M 1_555 1_555
O2O C7O 1_555 1_555
O2C C7C 1_555 1_555
O2H C7H 1_555 1_555
O2K C7K 1_555 1_555
O2G C7G 1_555 1_555
O6C C19C 1_555 1_555
O6M C19M 1_555 1_555
O6G C19G 1_555 1_555
O6H C19H 1_555 1_555
O6O C19O 1_555 1_555
O6K C19K 1_555 1_555
O6E C19E 1_555 1_555
O8E C20E 1_555 1_555
O8O C20O 1_555 1_555
O8C C20C 1_555 1_555
O8M C20M 1_555 1_555
O8G C20G 1_555 1_555
O8K C20K 1_555 1_555
O10C C47C 1_555 1_555
O10M C47M 1_555 1_555
O10G C47G 1_555 1_555
O10H C47H 1_555 1_555
O10O C47O 1_555 1_555
O10K C47K 1_555 1_555
O10E C47E 1_555 1_555
O12C C25C 1_555 1_555
O12G C25G 1_555 1_555
O12H C25H 1_555 1_555
O12O C25O 1_555 1_555
O12K C25K 1_555 1_555
O12E C25E 1_555 1_555
O12M C25M 1_555 1_555
C1C C7C 1_555 1_555
C1E C7E 1_555 1_555
C1G C7G 1_555 1_555
C1K C7K 1_555 1_555
C1H C7H 1_555 1_555
C1O C7O 1_555 1_555
C1M C7M 1_555 1_555
C5C C6C 1_555 1_555
C5C C8C 1_555 1_555
C5E C6E 1_555 1_555
C5E C8E 1_555 1_555
C5G C6G 1_555 1_555
C5G C8G 1_555 1_555
C5K C6K 1_555 1_555
C5K C8K 1_555 1_555
C5H C6H 1_555 1_555
C5H C8H 1_555 1_555
C5O C6O 1_555 1_555
C5O C8O 1_555 1_555
C5M C6M 1_555 1_555
C5M C8M 1_555 1_555
C13H C19H 1_555 1_555
C13C C19C 1_555 1_555
C13O C19O 1_555 1_555
C13E C19E 1_555 1_555
C13K C19K 1_555 1_555
C13G C19G 1_555 1_555
C13M C19M 1_555 1_555
C17H C18H 1_555 1_555
C17H C20H 1_555 1_555
C17C C18C 1_555 1_555
C17C C20C 1_555 1_555
C17O C18O 1_555 1_555
C17O C20O 1_555 1_555
C17E C18E 1_555 1_555
C17E C20E 1_555 1_555
C17K C18K 1_555 1_555
C17K C20K 1_555 1_555
C17G C18G 1_555 1_555
C17G C20G 1_555 1_555
C17M C18M 1_555 1_555
C17M C20M 1_555 1_555
C25O C26O 1_555 1_555
C26M C29M 1_555 1_555
C26H C29H 1_555 1_555
C26O C27O 1_555 1_555
C26E C29E 1_555 1_555
C27M C28M 1_555 1_555
C27H C28H 1_555 1_555
C27E C28E 1_555 1_555
C34M C47M 1_555 1_555
C34G C47G 1_555 1_555
C34H C47H 1_555 1_555
C34C C47C 1_555 1_555
C34K C36K 1_555 1_555
C34K C47K 1_555 1_555
C34E C47E 1_555 1_555
C34O C47O 1_555 1_555
C36M C37M 1_555 1_555
C36H C37C 1_555 1_555
C36E C37O 1_555 1_555
C45C C46C 1_555 1_555
C45H C46H 1_555 1_555
C45E C46E 1_555 1_555
C45K C46K 1_555 1_555
C45O C46O 1_555 1_555
C45G C46G 1_555 1_555
C45M C46M 1_555 1_555
C48M C49M 1_555 1_555
C48E N2H 1_555 1_555
C48H N2H 1_555 1_555
C49H C50H 1_555 1_555
C51M O13M 1_555 1_555
C51G O13G 1_555 1_555
C51H O13H 1_555 1_555
C51O O13O 1_555 1_555
C51K O13K 1_555 1_555
C51E O13E 1_555 1_555
C51C O13C 1_555 1_555
C53C C54C 1_555 1_555
C53O C54O 1_555 1_555
C53M C54M 1_555 1_555

#END
