
#######################################################################
#
#                 Cambridge Crystallographic Data Centre
#                                CCDC 
#
#######################################################################
#
# If this CIF has been generated from an entry in the Cambridge 
# Structural Database, then it will include bibliographic, chemical, 
# crystal, experimental, refinement or atomic coordinate data resulting 
# from the CCDC's data processing and validation procedures.
#
#######################################################################

data_MAQPOK
_chemical_formula_moiety         'C348 H348 Mo24 N12 O96'
_chemical_name_systematic        
'tetracosakis(\m~4~-5-t-Butylbenzene-1,3-dicarboxylato)-decapyridyl-tetracosa-molybdenum unknown solvent'
_symmetry_cell_setting           tetragonal
_symmetry_space_group_name_H-M   'I 4/m'
_symmetry_Int_Tables_number      87
_space_group_name_Hall           '-I 4'
loop_
_symmetry_equiv_pos_site_id
_symmetry_equiv_pos_as_xyz
1 x,y,z
2 -y,x,z
3 y,-x,z
4 1/2+x,1/2+y,1/2+z
5 1/2-y,1/2+x,1/2+z
6 1/2+y,1/2-x,1/2+z
7 -x,-y,z
8 1/2-x,1/2-y,1/2+z
9 -x,-y,-z
10 y,-x,-z
11 -y,x,-z
12 1/2-x,1/2-y,1/2-z
13 1/2+y,1/2-x,1/2-z
14 1/2-y,1/2+x,1/2-z
15 x,y,-z
16 1/2+x,1/2+y,1/2-z
_cell_length_a                   28.8679(10)
_cell_length_b                   28.8679(10)
_cell_length_c                   42.999(3)
_cell_angle_alpha                90
_cell_angle_beta                 90
_cell_angle_gamma                90
_cell_volume                     35833.5
_exptl_crystal_colour            orange
_exptl_crystal_description       block
_cell_formula_units_Z            4
_chemical_properties_physical    air-sensitive
loop_
_atom_site_label
_atom_site_type_symbol
_atom_site_fract_x
_atom_site_fract_y
_atom_site_fract_z
Mo1 Mo 0.54004(2) 0.209512(19) 0.0000
Mo2 Mo 0.339250(14) 0.293895(14) 0.177026(8)
Mo3 Mo 0.54826(2) 0.136872(19) 0.0000
Mo4 Mo 0.370894(14) 0.335927(14) 0.142933(8)
C1 C 0.47914(18) 0.16618(17) 0.04555(10)
C2 C 0.4464(2) 0.16174(17) 0.07145(11)
C3 C 0.4336(2) 0.11825(19) 0.08265(13)
H1 H 0.4445 0.0919 0.0726
C4 C 0.4055(3) 0.1134(2) 0.10808(17)
C5 C 0.3864(3) 0.1534(2) 0.12183(14)
H2 H 0.3654 0.1505 0.1381
C6 C 0.39874(19) 0.19696(18) 0.11136(11)
C7 C 0.42821(19) 0.20120(17) 0.08599(11)
H3 H 0.4359 0.2305 0.0786
C8 C 0.38189(17) 0.23844(17) 0.12740(10)
C9 C 0.3943(5) 0.0648(3) 0.1214(3)
C10 C 0.3611(5) 0.0640(3) 0.1445(4)
H4 H 0.3704 0.0841 0.1612
H5 H 0.3579 0.0330 0.1523
H6 H 0.3320 0.0743 0.1362
C11 C 0.3831(6) 0.0322(4) 0.0990(3)
H7 H 0.4054 0.0332 0.0825
H8 H 0.3528 0.0388 0.0908
H9 H 0.3831 0.0019 0.1082
C12 C 0.18074(18) 0.38924(17) 0.04495(10)
C13 C 0.18480(19) 0.35656(16) 0.07014(11)
C14 C 0.22682(17) 0.35127(17) 0.08625(10)
H10 H 0.2527 0.3682 0.0803
C15 C 0.22967(18) 0.32055(18) 0.11124(11)
C16 C 0.1906(2) 0.29320(19) 0.11875(12)
H11 H 0.1927 0.2725 0.1353
C17 C 0.1502(2) 0.2959(2) 0.10277(13)
C18 C 0.1473(2) 0.32840(18) 0.07863(12)
H12 H 0.1196 0.3314 0.0679
C19 C 0.27355(17) 0.31747(17) 0.12874(10)
C20 C 0.1094(3) 0.2634(2) 0.10971(16)
C21 C 0.1074(4) 0.2548(4) 0.1453(2)
H13 H 0.1012 0.2835 0.1558
H14 H 0.0833 0.2329 0.1499
H15 H 0.1366 0.2426 0.1523
C22 C 0.1197(3) 0.2172(3) 0.0972(3)
H16 H 0.1484 0.2063 0.1057
H17 H 0.0952 0.1963 0.1027
H18 H 0.1221 0.2190 0.0749
C23 C 0.0647(5) 0.2864(3) 0.1019(4)
H19 H 0.0624 0.3151 0.1131
H20 H 0.0635 0.2923 0.0800
H21 H 0.0395 0.2666 0.1077
C24 C 0.43798(17) 0.30877(17) 0.19062(10)
C25 C 0.48221(17) 0.30347(17) 0.20578(11)
C26 C 0.52235(16) 0.32064(16) 0.19267(11)
H22 H 0.5212 0.3365 0.1739
C27 C 0.56673(18) 0.2890(2) 0.23534(12)
H23 H 0.5951 0.2842 0.2450
C28 C 0.52651(19) 0.2709(2) 0.24880(12)
C29 C 0.48584(19) 0.2783(2) 0.23389(12)
H24 H 0.4589 0.2663 0.2426
C30 C 0.5289(2) 0.2425(3) 0.27867(17)
C31 C 0.4855(4) 0.2190(4) 0.2864(2)
H25 H 0.4767 0.1990 0.2696
H26 H 0.4616 0.2417 0.2898
H27 H 0.4896 0.2010 0.3050
C32 C 0.56499(15) 0.31398(17) 0.20790(10)
C33 C 0.60793(16) 0.33013(16) 0.19260(10)
C34 C 0.5589(8) 0.1993(8) 0.2715(5)
H28 H 0.5895 0.2089 0.2655
H29 H 0.5451 0.1821 0.2548
H30 H 0.5608 0.1800 0.2896
C35 C 0.5487(13) 0.2661(10) 0.3021(3)
H31 H 0.5766 0.2806 0.2948
H32 H 0.5560 0.2452 0.3187
H33 H 0.5276 0.2894 0.3094
C36 C 0.5902(3) 0.0271(3) -0.0178(2)
C37 C 0.5924(4) -0.0210(3) -0.0166(3)
C38 C 0.5674(4) -0.04491(19) 0.0059(3)
C39 C 0.5403(3) -0.0208(3) -0.0271(2)
C40 C 0.5381(3) 0.0273(3) 0.0259(2)
N1 N 0.5631(3) 0.05122(19) 0.0034(3)
O1 O 0.35797(12) 0.23350(11) 0.15239(7)
O2 O 0.39191(11) 0.27831(10) 0.11687(7)
O3 O 0.40241(10) 0.28940(11) 0.20152(6)
O4 O 0.43532(11) 0.33349(11) 0.16530(6)
O5 O 0.27524(11) 0.29483(11) 0.15396(7)
O6 O 0.30816(11) 0.33948(10) 0.11816(6)
O7 O 0.31933(10) 0.35286(11) 0.20363(7)
O8 O 0.35332(10) 0.39603(11) 0.16750(6)
O9 O 0.49704(12) 0.12846(10) 0.03457(7)
O10 O 0.48943(12) 0.20554(10) 0.03495(7)
O11 O 0.59068(11) 0.21752(10) -0.03461(7)
O12 O 0.60019(12) 0.14112(10) -0.03418(7)
C41 C 0.4402(7) 0.0408(6) 0.1284(6)
H34 H 0.4559 0.0570 0.1448
H35 H 0.4592 0.0408 0.1100
H36 H 0.4344 0.0094 0.1347
N2 N 0.31739(16) 0.23991(16) 0.22202(11)
C42 C 0.3381(2) 0.2398(2) 0.24940(15)
H37 H 0.3651 0.2569 0.2523
C43 C 0.2607(3) 0.1890(3) 0.24432(17)
H38 H 0.2333 0.1725 0.2418
C44 C 0.2808(2) 0.2131(2) 0.22009(17)
H39 H 0.2672 0.2100 0.2006
C45 C 0.2822(3) 0.1905(3) 0.27074(18)
H40 H 0.2703 0.1743 0.2876
C46 C 0.3196(3) 0.2142(3) 0.2740(2)
H41 H 0.3347 0.2143 0.2932
Mo1A Mo 0.790488(19) 0.54004(2) 0.0000
Mo1H Mo 0.45996(2) 0.790488(19) 0.0000
Mo1B Mo 0.209512(19) 0.45996(2) 0.0000
Mo2A Mo 0.706105(14) 0.339250(14) 0.177026(8)
Mo2J Mo 0.706105(14) 0.339250(14) -0.177026(8)
Mo2H Mo 0.660750(14) 0.706105(14) -0.177026(8)
Mo2F Mo 0.660750(14) 0.706105(14) 0.177026(8)
Mo2B Mo 0.293895(14) 0.660750(14) 0.177026(8)
Mo2I Mo 0.293895(14) 0.660750(14) -0.177026(8)
Mo2N Mo 0.339250(14) 0.293895(14) -0.177026(8)
Mo3A Mo 0.863128(19) 0.54826(2) 0.0000
Mo3H Mo 0.45174(2) 0.863128(19) 0.0000
Mo3B Mo 0.136872(19) 0.45174(2) 0.0000
Mo4A Mo 0.664073(14) 0.370894(14) 0.142933(8)
Mo4J Mo 0.664073(14) 0.370894(14) -0.142933(8)
Mo4H Mo 0.629106(14) 0.664073(14) -0.142933(8)
Mo4F Mo 0.629106(14) 0.664073(14) 0.142933(8)
Mo4B Mo 0.335927(14) 0.629106(14) 0.142933(8)
Mo4I Mo 0.335927(14) 0.629106(14) -0.142933(8)
Mo4N Mo 0.370894(14) 0.335927(14) -0.142933(8)
C1A C 0.83382(17) 0.47914(18) 0.04555(10)
C1J C 0.83382(17) 0.47914(18) -0.04555(10)
C1H C 0.52086(18) 0.83382(17) -0.04555(10)
C1F C 0.52086(18) 0.83382(17) 0.04555(10)
C1B C 0.16618(17) 0.52086(18) 0.04555(10)
C1I C 0.16618(17) 0.52086(18) -0.04555(10)
C1N C 0.47914(18) 0.16618(17) -0.04555(10)
C2A C 0.83826(17) 0.4464(2) 0.07145(11)
C2J C 0.83826(17) 0.4464(2) -0.07145(11)
C2H C 0.5536(2) 0.83826(17) -0.07145(11)
C2F C 0.5536(2) 0.83826(17) 0.07145(11)
C2B C 0.16174(17) 0.5536(2) 0.07145(11)
C2I C 0.16174(17) 0.5536(2) -0.07145(11)
C2N C 0.4464(2) 0.16174(17) -0.07145(11)
C3A C 0.88175(19) 0.4336(2) 0.08265(13)
C3J C 0.88175(19) 0.4336(2) -0.08265(13)
C3H C 0.5664(2) 0.88175(19) -0.08265(13)
C3F C 0.5664(2) 0.88175(19) 0.08265(13)
C3B C 0.11825(19) 0.5664(2) 0.08265(13)
C3I C 0.11825(19) 0.5664(2) -0.08265(13)
C3N C 0.4336(2) 0.11825(19) -0.08265(13)
H1J H 0.9081 0.4445 -0.0726
H1F H 0.5555 0.9081 0.0726
H1I H 0.0919 0.5555 -0.0726
H1N H 0.4445 0.0919 -0.0726
H1B H 0.0919 0.5555 0.0726
H1H H 0.5555 0.9081 -0.0726
H1A H 0.9081 0.4445 0.0726
C4A C 0.8866(2) 0.4055(3) 0.10808(17)
C4J C 0.8866(2) 0.4055(3) -0.10808(17)
C4H C 0.5945(3) 0.8866(2) -0.10808(17)
C4F C 0.5945(3) 0.8866(2) 0.10808(17)
C4B C 0.1134(2) 0.5945(3) 0.10808(17)
C4I C 0.1134(2) 0.5945(3) -0.10808(17)
C4N C 0.4055(3) 0.1134(2) -0.10808(17)
C5A C 0.8466(2) 0.3864(3) 0.12183(14)
C5J C 0.8466(2) 0.3864(3) -0.12183(14)
C5H C 0.6136(3) 0.8466(2) -0.12183(14)
C5F C 0.6136(3) 0.8466(2) 0.12183(14)
C5B C 0.1534(2) 0.6136(3) 0.12183(14)
C5I C 0.1534(2) 0.6136(3) -0.12183(14)
C5N C 0.3864(3) 0.1534(2) -0.12183(14)
H2J H 0.8495 0.3654 -0.1381
H2F H 0.6346 0.8495 0.1381
H2I H 0.1505 0.6346 -0.1381
H2N H 0.3654 0.1505 -0.1381
H2B H 0.1505 0.6346 0.1381
H2H H 0.6346 0.8495 -0.1381
H2A H 0.8495 0.3654 0.1381
C6A C 0.80304(18) 0.39874(19) 0.11136(11)
C6J C 0.80304(18) 0.39874(19) -0.11136(11)
C6H C 0.60126(19) 0.80304(18) -0.11136(11)
C6F C 0.60126(19) 0.80304(18) 0.11136(11)
C6B C 0.19696(18) 0.60126(19) 0.11136(11)
C6I C 0.19696(18) 0.60126(19) -0.11136(11)
C6N C 0.39874(19) 0.19696(18) -0.11136(11)
C7J C 0.79880(17) 0.42821(19) -0.08599(11)
C7F C 0.57179(19) 0.79880(17) 0.08599(11)
C7I C 0.20120(17) 0.57179(19) -0.08599(11)
C7N C 0.42821(19) 0.20120(17) -0.08599(11)
C7B C 0.20120(17) 0.57179(19) 0.08599(11)
C7H C 0.57179(19) 0.79880(17) -0.08599(11)
C7A C 0.79880(17) 0.42821(19) 0.08599(11)
H3J H 0.7695 0.4359 -0.0786
H3F H 0.5641 0.7695 0.0786
H3I H 0.2305 0.5641 -0.0786
H3N H 0.4359 0.2305 -0.0786
H3B H 0.2305 0.5641 0.0786
H3H H 0.5641 0.7695 -0.0786
H3A H 0.7695 0.4359 0.0786
C8A C 0.76156(17) 0.38189(17) 0.12740(10)
C8J C 0.76156(17) 0.38189(17) -0.12740(10)
C8H C 0.61811(17) 0.76156(17) -0.12740(10)
C8F C 0.61811(17) 0.76156(17) 0.12740(10)
C8B C 0.23844(17) 0.61811(17) 0.12740(10)
C8I C 0.23844(17) 0.61811(17) -0.12740(10)
C8N C 0.38189(17) 0.23844(17) -0.12740(10)
C9N C 0.3943(5) 0.0648(3) -0.1214(3)
C9I C 0.0648(3) 0.6057(5) -0.1214(3)
C9B C 0.0648(3) 0.6057(5) 0.1214(3)
C9F C 0.6057(5) 0.9352(3) 0.1214(3)
C9H C 0.6057(5) 0.9352(3) -0.1214(3)
C9J C 0.9352(3) 0.3943(5) -0.1214(3)
C9A C 0.9352(3) 0.3943(5) 0.1214(3)
C10N C 0.3611(5) 0.0640(3) -0.1445(4)
C10I C 0.0640(3) 0.6389(5) -0.1445(4)
C10B C 0.0640(3) 0.6389(5) 0.1445(4)
C10F C 0.6389(5) 0.9360(3) 0.1445(4)
C10H C 0.6389(5) 0.9360(3) -0.1445(4)
C10J C 0.9360(3) 0.3611(5) -0.1445(4)
C10A C 0.9360(3) 0.3611(5) 0.1445(4)
H4N H 0.3704 0.0841 -0.1612
H4I H 0.0841 0.6296 -0.1612
H4B H 0.0841 0.6296 0.1612
H4F H 0.6296 0.9159 0.1612
H4H H 0.6296 0.9159 -0.1612
H4J H 0.9159 0.3704 -0.1612
H4A H 0.9159 0.3704 0.1612
H5N H 0.3579 0.0330 -0.1523
H5I H 0.0330 0.6421 -0.1523
H5B H 0.0330 0.6421 0.1523
H5F H 0.6421 0.9670 0.1523
H5H H 0.6421 0.9670 -0.1523
H5J H 0.9670 0.3579 -0.1523
H5A H 0.9670 0.3579 0.1523
H6N H 0.3320 0.0743 -0.1362
H6I H 0.0743 0.6680 -0.1362
H6B H 0.0743 0.6680 0.1362
H6F H 0.6680 0.9257 0.1362
H6H H 0.6680 0.9257 -0.1362
H6J H 0.9257 0.3320 -0.1362
H6A H 0.9257 0.3320 0.1362
C11N C 0.3831(6) 0.0322(4) -0.0990(3)
C11I C 0.0322(4) 0.6169(6) -0.0990(3)
C11B C 0.0322(4) 0.6169(6) 0.0990(3)
C11F C 0.6169(6) 0.9678(4) 0.0990(3)
C11H C 0.6169(6) 0.9678(4) -0.0990(3)
C11J C 0.9678(4) 0.3831(6) -0.0990(3)
C11A C 0.9678(4) 0.3831(6) 0.0990(3)
H7N H 0.4054 0.0332 -0.0825
H7I H 0.0332 0.5946 -0.0825
H7B H 0.0332 0.5946 0.0825
H7F H 0.5946 0.9668 0.0825
H7H H 0.5946 0.9668 -0.0825
H7J H 0.9668 0.4054 -0.0825
H7A H 0.9668 0.4054 0.0825
H8N H 0.3528 0.0388 -0.0908
H8I H 0.0388 0.6472 -0.0908
H8B H 0.0388 0.6472 0.0908
H8F H 0.6472 0.9612 0.0908
H8H H 0.6472 0.9612 -0.0908
H8J H 0.9612 0.3528 -0.0908
H8A H 0.9612 0.3528 0.0908
H9N H 0.3831 0.0019 -0.1082
H9I H 0.0019 0.6169 -0.1082
H9B H 0.0019 0.6169 0.1082
H9F H 0.6169 0.9981 0.1082
H9H H 0.6169 0.9981 -0.1082
H9J H 0.9981 0.3831 -0.1082
H9A H 0.9981 0.3831 0.1082
C12J C 0.61076(17) 0.18074(18) -0.04495(10)
C12N C 0.18074(18) 0.38924(17) -0.04495(10)
C12B C 0.38924(17) 0.81926(18) 0.04495(10)
C12I C 0.38924(17) 0.81926(18) -0.04495(10)
C12H C 0.81926(18) 0.61076(17) -0.04495(10)
C12F C 0.81926(18) 0.61076(17) 0.04495(10)
C12A C 0.61076(17) 0.18074(18) 0.04495(10)
C13J C 0.64344(16) 0.18480(19) -0.07014(11)
C13N C 0.18480(19) 0.35656(16) -0.07014(11)
C13B C 0.35656(16) 0.81520(19) 0.07014(11)
C13I C 0.35656(16) 0.81520(19) -0.07014(11)
C13H C 0.81520(19) 0.64344(16) -0.07014(11)
C13F C 0.81520(19) 0.64344(16) 0.07014(11)
C13A C 0.64344(16) 0.18480(19) 0.07014(11)
C14J C 0.64873(17) 0.22682(17) -0.08625(10)
C14N C 0.22682(17) 0.35127(17) -0.08625(10)
C14B C 0.35127(17) 0.77318(17) 0.08625(10)
C14I C 0.35127(17) 0.77318(17) -0.08625(10)
C14H C 0.77318(17) 0.64873(17) -0.08625(10)
C14F C 0.77318(17) 0.64873(17) 0.08625(10)
C14A C 0.64873(17) 0.22682(17) 0.08625(10)
H10J H 0.6318 0.2527 -0.0803
H10I H 0.3682 0.7473 -0.0803
H10F H 0.7473 0.6318 0.0803
H10A H 0.6318 0.2527 0.0803
H10H H 0.7473 0.6318 -0.0803
H10B H 0.3682 0.7473 0.0803
H10N H 0.2527 0.3682 -0.0803
C15J C 0.67945(18) 0.22967(18) -0.11124(11)
C15N C 0.22967(18) 0.32055(18) -0.11124(11)
C15B C 0.32055(18) 0.77033(18) 0.11124(11)
C15I C 0.32055(18) 0.77033(18) -0.11124(11)
C15H C 0.77033(18) 0.67945(18) -0.11124(11)
C15F C 0.77033(18) 0.67945(18) 0.11124(11)
C15A C 0.67945(18) 0.22967(18) 0.11124(11)
C16J C 0.70680(19) 0.1906(2) -0.11875(12)
C16I C 0.29320(19) 0.8094(2) -0.11875(12)
C16F C 0.8094(2) 0.70680(19) 0.11875(12)
C16A C 0.70680(19) 0.1906(2) 0.11875(12)
C16H C 0.8094(2) 0.70680(19) -0.11875(12)
C16B C 0.29320(19) 0.8094(2) 0.11875(12)
C16N C 0.1906(2) 0.29320(19) -0.11875(12)
H11J H 0.7275 0.1927 -0.1353
H11I H 0.2725 0.8073 -0.1353
H11F H 0.8073 0.7275 0.1353
H11A H 0.7275 0.1927 0.1353
H11H H 0.8073 0.7275 -0.1353
H11B H 0.2725 0.8073 0.1353
H11N H 0.1927 0.2725 -0.1353
C17J C 0.7041(2) 0.1502(2) -0.10277(13)
C17I C 0.2959(2) 0.8498(2) -0.10277(13)
C17F C 0.8498(2) 0.7041(2) 0.10277(13)
C17A C 0.7041(2) 0.1502(2) 0.10277(13)
C17H C 0.8498(2) 0.7041(2) -0.10277(13)
C17B C 0.2959(2) 0.8498(2) 0.10277(13)
C17N C 0.1502(2) 0.2959(2) -0.10277(13)
C18J C 0.67160(18) 0.1473(2) -0.07863(12)
C18I C 0.32840(18) 0.8527(2) -0.07863(12)
C18F C 0.8527(2) 0.67160(18) 0.07863(12)
C18A C 0.67160(18) 0.1473(2) 0.07863(12)
C18H C 0.8527(2) 0.67160(18) -0.07863(12)
C18B C 0.32840(18) 0.8527(2) 0.07863(12)
C18N C 0.1473(2) 0.32840(18) -0.07863(12)
H12J H 0.6686 0.1196 -0.0679
H12I H 0.3314 0.8804 -0.0679
H12F H 0.8804 0.6686 0.0679
H12A H 0.6686 0.1196 0.0679
H12H H 0.8804 0.6686 -0.0679
H12B H 0.3314 0.8804 0.0679
H12N H 0.1196 0.3314 -0.0679
C19J C 0.68253(17) 0.27355(17) -0.12874(10)
C19N C 0.27355(17) 0.31747(17) -0.12874(10)
C19B C 0.31747(17) 0.72645(17) 0.12874(10)
C19I C 0.31747(17) 0.72645(17) -0.12874(10)
C19H C 0.72645(17) 0.68253(17) -0.12874(10)
C19F C 0.72645(17) 0.68253(17) 0.12874(10)
C19A C 0.68253(17) 0.27355(17) 0.12874(10)
C20J C 0.7366(2) 0.1094(3) -0.10971(16)
C20I C 0.2634(2) 0.8906(3) -0.10971(16)
C20F C 0.8906(3) 0.7366(2) 0.10971(16)
C20A C 0.7366(2) 0.1094(3) 0.10971(16)
C20H C 0.8906(3) 0.7366(2) -0.10971(16)
C20B C 0.2634(2) 0.8906(3) 0.10971(16)
C20N C 0.1094(3) 0.2634(2) -0.10971(16)
C21J C 0.7452(4) 0.1074(4) -0.1453(2)
C21I C 0.2548(4) 0.8926(4) -0.1453(2)
C21F C 0.8926(4) 0.7452(4) 0.1453(2)
C21A C 0.7452(4) 0.1074(4) 0.1453(2)
C21H C 0.8926(4) 0.7452(4) -0.1453(2)
C21B C 0.2548(4) 0.8926(4) 0.1453(2)
C21N C 0.1074(4) 0.2548(4) -0.1453(2)
H13J H 0.7165 0.1012 -0.1558
H13I H 0.2835 0.8988 -0.1558
H13F H 0.8988 0.7165 0.1558
H13A H 0.7165 0.1012 0.1558
H13H H 0.8988 0.7165 -0.1558
H13B H 0.2835 0.8988 0.1558
H13N H 0.1012 0.2835 -0.1558
H14J H 0.7671 0.0833 -0.1499
H14I H 0.2329 0.9167 -0.1499
H14F H 0.9167 0.7671 0.1499
H14A H 0.7671 0.0833 0.1499
H14H H 0.9167 0.7671 -0.1499
H14B H 0.2329 0.9167 0.1499
H14N H 0.0833 0.2329 -0.1499
H15J H 0.7574 0.1366 -0.1523
H15I H 0.2426 0.8634 -0.1523
H15F H 0.8634 0.7574 0.1523
H15A H 0.7574 0.1366 0.1523
H15H H 0.8634 0.7574 -0.1523
H15B H 0.2426 0.8634 0.1523
H15N H 0.1366 0.2426 -0.1523
C22J C 0.7828(3) 0.1197(3) -0.0972(3)
C22I C 0.2172(3) 0.8803(3) -0.0972(3)
C22F C 0.8803(3) 0.7828(3) 0.0972(3)
C22A C 0.7828(3) 0.1197(3) 0.0972(3)
C22H C 0.8803(3) 0.7828(3) -0.0972(3)
C22B C 0.2172(3) 0.8803(3) 0.0972(3)
C22N C 0.1197(3) 0.2172(3) -0.0972(3)
H16J H 0.7937 0.1484 -0.1057
H16I H 0.2063 0.8516 -0.1057
H16F H 0.8516 0.7937 0.1057
H16A H 0.7937 0.1484 0.1057
H16H H 0.8516 0.7937 -0.1057
H16B H 0.2063 0.8516 0.1057
H16N H 0.1484 0.2063 -0.1057
H17J H 0.8037 0.0952 -0.1027
H17I H 0.1963 0.9048 -0.1027
H17F H 0.9048 0.8037 0.1027
H17A H 0.8037 0.0952 0.1027
H17H H 0.9048 0.8037 -0.1027
H17B H 0.1963 0.9048 0.1027
H17N H 0.0952 0.1963 -0.1027
H18J H 0.7810 0.1221 -0.0749
H18I H 0.2190 0.8779 -0.0749
H18F H 0.8779 0.7810 0.0749
H18A H 0.7810 0.1221 0.0749
H18H H 0.8779 0.7810 -0.0749
H18B H 0.2190 0.8779 0.0749
H18N H 0.1221 0.2190 -0.0749
C23J C 0.7136(3) 0.0647(5) -0.1019(4)
C23I C 0.2864(3) 0.9353(5) -0.1019(4)
C23F C 0.9353(5) 0.7136(3) 0.1019(4)
C23A C 0.7136(3) 0.0647(5) 0.1019(4)
C23H C 0.9353(5) 0.7136(3) -0.1019(4)
C23B C 0.2864(3) 0.9353(5) 0.1019(4)
C23N C 0.0647(5) 0.2864(3) -0.1019(4)
H19J H 0.6849 0.0624 -0.1131
H19I H 0.3151 0.9376 -0.1131
H19F H 0.9376 0.6849 0.1131
H19A H 0.6849 0.0624 0.1131
H19H H 0.9376 0.6849 -0.1131
H19B H 0.3151 0.9376 0.1131
H19N H 0.0624 0.3151 -0.1131
H20J H 0.7077 0.0635 -0.0800
H20I H 0.2923 0.9365 -0.0800
H20F H 0.9365 0.7077 0.0800
H20A H 0.7077 0.0635 0.0800
H20H H 0.9365 0.7077 -0.0800
H20B H 0.2923 0.9365 0.0800
H20N H 0.0635 0.2923 -0.0800
H21J H 0.7334 0.0395 -0.1077
H21I H 0.2666 0.9605 -0.1077
H21F H 0.9605 0.7334 0.1077
H21A H 0.7334 0.0395 0.1077
H21H H 0.9605 0.7334 -0.1077
H21B H 0.2666 0.9605 0.1077
H21N H 0.0395 0.2666 -0.1077
C24J C 0.69123(17) 0.43798(17) -0.19062(10)
C24F C 0.56202(17) 0.69123(17) 0.19062(10)
C24I C 0.30877(17) 0.56202(17) -0.19062(10)
C24N C 0.43798(17) 0.30877(17) -0.19062(10)
C24B C 0.30877(17) 0.56202(17) 0.19062(10)
C24H C 0.56202(17) 0.69123(17) -0.19062(10)
C24A C 0.69123(17) 0.43798(17) 0.19062(10)
C25J C 0.69653(17) 0.48221(17) -0.20578(11)
C25F C 0.51779(17) 0.69653(17) 0.20578(11)
C25I C 0.30347(17) 0.51779(17) -0.20578(11)
C25N C 0.48221(17) 0.30347(17) -0.20578(11)
C25B C 0.30347(17) 0.51779(17) 0.20578(11)
C25H C 0.51779(17) 0.69653(17) -0.20578(11)
C25A C 0.69653(17) 0.48221(17) 0.20578(11)
C26J C 0.67936(16) 0.52235(16) -0.19267(11)
C26F C 0.47765(16) 0.67936(16) 0.19267(11)
C26I C 0.32064(16) 0.47765(16) -0.19267(11)
C26N C 0.52235(16) 0.32064(16) -0.19267(11)
C26B C 0.32064(16) 0.47765(16) 0.19267(11)
C26H C 0.47765(16) 0.67936(16) -0.19267(11)
C26A C 0.67936(16) 0.52235(16) 0.19267(11)
H22J H 0.6635 0.5212 -0.1739
H22F H 0.4788 0.6635 0.1739
H22I H 0.3365 0.4788 -0.1739
H22A H 0.6635 0.5212 0.1739
H22H H 0.4788 0.6635 -0.1739
H22B H 0.3365 0.4788 0.1739
H22N H 0.5212 0.3365 -0.1739
C27J C 0.7110(2) 0.56673(18) -0.23534(12)
C27F C 0.43327(18) 0.7110(2) 0.23534(12)
C27I C 0.2890(2) 0.43327(18) -0.23534(12)
C27A C 0.7110(2) 0.56673(18) 0.23534(12)
C27H C 0.43327(18) 0.7110(2) -0.23534(12)
C27B C 0.2890(2) 0.43327(18) 0.23534(12)
C27N C 0.56673(18) 0.2890(2) -0.23534(12)
H23J H 0.7158 0.5951 -0.2450
H23F H 0.4049 0.7158 0.2450
H23I H 0.2842 0.4049 -0.2450
H23A H 0.7158 0.5951 0.2450
H23H H 0.4049 0.7158 -0.2450
H23B H 0.2842 0.4049 0.2450
H23N H 0.5951 0.2842 -0.2450
C28J C 0.7291(2) 0.52651(19) -0.24880(12)
C28F C 0.47349(19) 0.7291(2) 0.24880(12)
C28I C 0.2709(2) 0.47349(19) -0.24880(12)
C28A C 0.7291(2) 0.52651(19) 0.24880(12)
C28H C 0.47349(19) 0.7291(2) -0.24880(12)
C28B C 0.2709(2) 0.47349(19) 0.24880(12)
C28N C 0.52651(19) 0.2709(2) -0.24880(12)
C29J C 0.7217(2) 0.48584(19) -0.23389(12)
C29F C 0.51416(19) 0.7217(2) 0.23389(12)
C29I C 0.2783(2) 0.51416(19) -0.23389(12)
C29A C 0.7217(2) 0.48584(19) 0.23389(12)
C29H C 0.51416(19) 0.7217(2) -0.23389(12)
C29B C 0.2783(2) 0.51416(19) 0.23389(12)
C29N C 0.48584(19) 0.2783(2) -0.23389(12)
H24J H 0.7337 0.4589 -0.2426
H24F H 0.5411 0.7337 0.2426
H24I H 0.2663 0.5411 -0.2426
H24A H 0.7337 0.4589 0.2426
H24H H 0.5411 0.7337 -0.2426
H24B H 0.2663 0.5411 0.2426
H24N H 0.4589 0.2663 -0.2426
C30J C 0.7575(3) 0.5289(2) -0.27867(17)
C30F C 0.4711(2) 0.7575(3) 0.27867(17)
C30I C 0.2425(3) 0.4711(2) -0.27867(17)
C30A C 0.7575(3) 0.5289(2) 0.27867(17)
C30H C 0.4711(2) 0.7575(3) -0.27867(17)
C30B C 0.2425(3) 0.4711(2) 0.27867(17)
C30N C 0.5289(2) 0.2425(3) -0.27867(17)
C31J C 0.7810(4) 0.4855(4) -0.2864(2)
C31F C 0.5145(4) 0.7810(4) 0.2864(2)
C31I C 0.2190(4) 0.5145(4) -0.2864(2)
C31A C 0.7810(4) 0.4855(4) 0.2864(2)
C31H C 0.5145(4) 0.7810(4) -0.2864(2)
C31B C 0.2190(4) 0.5145(4) 0.2864(2)
C31N C 0.4855(4) 0.2190(4) -0.2864(2)
H25J H 0.8010 0.4767 -0.2696
H25F H 0.5233 0.8010 0.2696
H25I H 0.1990 0.5233 -0.2696
H25A H 0.8010 0.4767 0.2696
H25H H 0.5233 0.8010 -0.2696
H25B H 0.1990 0.5233 0.2696
H25N H 0.4767 0.1990 -0.2696
H26J H 0.7583 0.4616 -0.2898
H26F H 0.5384 0.7583 0.2898
H26I H 0.2417 0.5384 -0.2898
H26A H 0.7583 0.4616 0.2898
H26H H 0.5384 0.7583 -0.2898
H26B H 0.2417 0.5384 0.2898
H26N H 0.4616 0.2417 -0.2898
H27J H 0.7990 0.4896 -0.3050
H27F H 0.5104 0.7990 0.3050
H27I H 0.2010 0.5104 -0.3050
H27A H 0.7990 0.4896 0.3050
H27H H 0.5104 0.7990 -0.3050
H27B H 0.2010 0.5104 0.3050
H27N H 0.4896 0.2010 -0.3050
C32J C 0.68602(17) 0.56499(15) -0.20790(10)
C32F C 0.43501(15) 0.68602(17) 0.20790(10)
C32I C 0.31398(17) 0.43501(15) -0.20790(10)
C32N C 0.56499(15) 0.31398(17) -0.20790(10)
C32B C 0.31398(17) 0.43501(15) 0.20790(10)
C32H C 0.43501(15) 0.68602(17) -0.20790(10)
C32A C 0.68602(17) 0.56499(15) 0.20790(10)
C33J C 0.66987(16) 0.60793(16) -0.19260(10)
C33F C 0.39207(16) 0.66987(16) 0.19260(10)
C33I C 0.33013(16) 0.39207(16) -0.19260(10)
C33N C 0.60793(16) 0.33013(16) -0.19260(10)
C33B C 0.33013(16) 0.39207(16) 0.19260(10)
C33H C 0.39207(16) 0.66987(16) -0.19260(10)
C33A C 0.66987(16) 0.60793(16) 0.19260(10)
C34J C 0.8007(8) 0.5589(8) -0.2715(5)
C34F C 0.4411(8) 0.8007(8) 0.2715(5)
C34I C 0.1993(8) 0.4411(8) -0.2715(5)
C34A C 0.8007(8) 0.5589(8) 0.2715(5)
C34H C 0.4411(8) 0.8007(8) -0.2715(5)
C34B C 0.1993(8) 0.4411(8) 0.2715(5)
C34N C 0.5589(8) 0.1993(8) -0.2715(5)
H28J H 0.7911 0.5895 -0.2655
H28F H 0.4105 0.7911 0.2655
H28I H 0.2089 0.4105 -0.2655
H28A H 0.7911 0.5895 0.2655
H28H H 0.4105 0.7911 -0.2655
H28B H 0.2089 0.4105 0.2655
H28N H 0.5895 0.2089 -0.2655
H29J H 0.8179 0.5451 -0.2548
H29F H 0.4549 0.8179 0.2548
H29I H 0.1821 0.4549 -0.2548
H29A H 0.8179 0.5451 0.2548
H29H H 0.4549 0.8179 -0.2548
H29B H 0.1821 0.4549 0.2548
H29N H 0.5451 0.1821 -0.2548
H30J H 0.8200 0.5608 -0.2896
H30F H 0.4392 0.8200 0.2896
H30I H 0.1800 0.4392 -0.2896
H30A H 0.8200 0.5608 0.2896
H30H H 0.4392 0.8200 -0.2896
H30B H 0.1800 0.4392 0.2896
H30N H 0.5608 0.1800 -0.2896
C35J C 0.7339(10) 0.5487(13) -0.3021(3)
C35F C 0.4513(13) 0.7339(10) 0.3021(3)
C35I C 0.2661(10) 0.4513(13) -0.3021(3)
C35A C 0.7339(10) 0.5487(13) 0.3021(3)
C35H C 0.4513(13) 0.7339(10) -0.3021(3)
C35B C 0.2661(10) 0.4513(13) 0.3021(3)
C35N C 0.5487(13) 0.2661(10) -0.3021(3)
H31J H 0.7194 0.5766 -0.2948
H31F H 0.4234 0.7194 0.2948
H31I H 0.2806 0.4234 -0.2948
H31A H 0.7194 0.5766 0.2948
H31H H 0.4234 0.7194 -0.2948
H31B H 0.2806 0.4234 0.2948
H31N H 0.5766 0.2806 -0.2948
H32J H 0.7548 0.5560 -0.3187
H32F H 0.4440 0.7548 0.3187
H32I H 0.2452 0.4440 -0.3187
H32A H 0.7548 0.5560 0.3187
H32H H 0.4440 0.7548 -0.3187
H32B H 0.2452 0.4440 0.3187
H32N H 0.5560 0.2452 -0.3187
H33J H 0.7106 0.5276 -0.3094
H33F H 0.4724 0.7106 0.3094
H33I H 0.2894 0.4724 -0.3094
H33A H 0.7106 0.5276 0.3094
H33H H 0.4724 0.7106 -0.3094
H33B H 0.2894 0.4724 0.3094
H33N H 0.5276 0.2894 -0.3094
C36N C 0.5902(3) 0.0271(3) 0.0178(2)
C36A C 0.9729(3) 0.5902(3) -0.0178(2)
C36J C 0.9729(3) 0.5902(3) 0.0178(2)
C36H C 0.4098(3) 0.9729(3) 0.0178(2)
C36F C 0.4098(3) 0.9729(3) -0.0178(2)
C36B C 0.0271(3) 0.4098(3) -0.0178(2)
C36I C 0.0271(3) 0.4098(3) 0.0178(2)
C37N C 0.5924(4) -0.0210(3) 0.0166(3)
C37A C 1.0210(3) 0.5924(4) -0.0166(3)
C37J C 1.0210(3) 0.5924(4) 0.0166(3)
C37F C 0.4076(4) 1.0210(3) -0.0166(3)
C37H C 0.4076(4) 1.0210(3) 0.0166(3)
C37B C -0.0210(3) 0.4076(4) -0.0166(3)
C37I C -0.0210(3) 0.4076(4) 0.0166(3)
C38N C 0.5674(4) -0.04491(19) -0.0059(3)
C38J C 1.04491(19) 0.5674(4) -0.0059(3)
C38A C 1.04491(19) 0.5674(4) 0.0059(3)
C38F C 0.4326(4) 1.04491(19) 0.0059(3)
C38H C 0.4326(4) 1.04491(19) -0.0059(3)
C38B C -0.04491(19) 0.4326(4) 0.0059(3)
C38I C -0.04491(19) 0.4326(4) -0.0059(3)
C39N C 0.5403(3) -0.0208(3) 0.0271(2)
C39J C 1.0208(3) 0.5403(3) 0.0271(2)
C39A C 1.0208(3) 0.5403(3) -0.0271(2)
C39H C 0.4597(3) 1.0208(3) 0.0271(2)
C39F C 0.4597(3) 1.0208(3) -0.0271(2)
C39I C -0.0208(3) 0.4597(3) 0.0271(2)
C39B C -0.0208(3) 0.4597(3) -0.0271(2)
C40N C 0.5381(3) 0.0273(3) -0.0259(2)
C40A C 0.9727(3) 0.5381(3) 0.0259(2)
C40J C 0.9727(3) 0.5381(3) -0.0259(2)
C40F C 0.4619(3) 0.9727(3) 0.0259(2)
C40H C 0.4619(3) 0.9727(3) -0.0259(2)
C40B C 0.0273(3) 0.4619(3) 0.0259(2)
C40I C 0.0273(3) 0.4619(3) -0.0259(2)
N1N N 0.5631(3) 0.05122(19) -0.0034(3)
N1A N 0.94878(19) 0.5631(3) 0.0034(3)
N1J N 0.94878(19) 0.5631(3) -0.0034(3)
N1H N 0.4369(3) 0.94878(19) -0.0034(3)
N1F N 0.4369(3) 0.94878(19) 0.0034(3)
N1B N 0.05122(19) 0.4369(3) 0.0034(3)
N1I N 0.05122(19) 0.4369(3) -0.0034(3)
O1J O 0.76650(11) 0.35797(12) -0.15239(7)
O1F O 0.64203(12) 0.76650(11) 0.15239(7)
O1I O 0.23350(11) 0.64203(12) -0.15239(7)
O1N O 0.35797(12) 0.23350(11) -0.15239(7)
O1B O 0.23350(11) 0.64203(12) 0.15239(7)
O1H O 0.64203(12) 0.76650(11) -0.15239(7)
O1A O 0.76650(11) 0.35797(12) 0.15239(7)
O2A O 0.72169(10) 0.39191(11) 0.11687(7)
O2J O 0.72169(10) 0.39191(11) -0.11687(7)
O2H O 0.60809(11) 0.72169(10) -0.11687(7)
O2F O 0.60809(11) 0.72169(10) 0.11687(7)
O2B O 0.27831(10) 0.60809(11) 0.11687(7)
O2I O 0.27831(10) 0.60809(11) -0.11687(7)
O2N O 0.39191(11) 0.27831(10) -0.11687(7)
O3J O 0.71060(11) 0.40241(10) -0.20152(6)
O3N O 0.40241(10) 0.28940(11) -0.20152(6)
O3B O 0.28940(11) 0.59759(10) 0.20152(6)
O3I O 0.28940(11) 0.59759(10) -0.20152(6)
O3H O 0.59759(10) 0.71060(11) -0.20152(6)
O3F O 0.59759(10) 0.71060(11) 0.20152(6)
O3A O 0.71060(11) 0.40241(10) 0.20152(6)
O4J O 0.66651(11) 0.43532(11) -0.16530(6)
O4F O 0.56468(11) 0.66651(11) 0.16530(6)
O4I O 0.33349(11) 0.56468(11) -0.16530(6)
O4A O 0.66651(11) 0.43532(11) 0.16530(6)
O4H O 0.56468(11) 0.66651(11) -0.16530(6)
O4B O 0.33349(11) 0.56468(11) 0.16530(6)
O4N O 0.43532(11) 0.33349(11) -0.16530(6)
O5J O 0.70517(11) 0.27524(11) -0.15396(7)
O5N O 0.27524(11) 0.29483(11) -0.15396(7)
O5B O 0.29483(11) 0.72476(11) 0.15396(7)
O5I O 0.29483(11) 0.72476(11) -0.15396(7)
O5H O 0.72476(11) 0.70517(11) -0.15396(7)
O5F O 0.72476(11) 0.70517(11) 0.15396(7)
O5A O 0.70517(11) 0.27524(11) 0.15396(7)
O6A O 0.66052(10) 0.30816(11) 0.11816(6)
O6F O 0.69184(11) 0.66052(10) 0.11816(6)
O6H O 0.69184(11) 0.66052(10) -0.11816(6)
O6I O 0.33948(10) 0.69184(11) -0.11816(6)
O6B O 0.33948(10) 0.69184(11) 0.11816(6)
O6N O 0.30816(11) 0.33948(10) -0.11816(6)
O6J O 0.66052(10) 0.30816(11) -0.11816(6)
O7A O 0.64714(11) 0.31933(10) 0.20363(7)
O7H O 0.68067(10) 0.64714(11) -0.20363(7)
O7B O 0.35286(11) 0.68067(10) 0.20363(7)
O7N O 0.31933(10) 0.35286(11) -0.20363(7)
O7J O 0.64714(11) 0.31933(10) -0.20363(7)
O7I O 0.35286(11) 0.68067(10) -0.20363(7)
O7F O 0.68067(10) 0.64714(11) 0.20363(7)
O8A O 0.60397(11) 0.35332(10) 0.16750(6)
O8F O 0.64668(10) 0.60397(11) 0.16750(6)
O8H O 0.64668(10) 0.60397(11) -0.16750(6)
O8I O 0.39603(11) 0.64668(10) -0.16750(6)
O8B O 0.39603(11) 0.64668(10) 0.16750(6)
O8N O 0.35332(10) 0.39603(11) -0.16750(6)
O8J O 0.60397(11) 0.35332(10) -0.16750(6)
O9A O 0.87154(10) 0.49704(12) 0.03457(7)
O9H O 0.50296(12) 0.87154(10) -0.03457(7)
O9B O 0.12846(10) 0.50296(12) 0.03457(7)
O9N O 0.49704(12) 0.12846(10) -0.03457(7)
O9J O 0.87154(10) 0.49704(12) -0.03457(7)
O9F O 0.50296(12) 0.87154(10) 0.03457(7)
O9I O 0.12846(10) 0.50296(12) -0.03457(7)
O10A O 0.79446(10) 0.48943(12) 0.03495(7)
O10J O 0.79446(10) 0.48943(12) -0.03495(7)
O10H O 0.51057(12) 0.79446(10) -0.03495(7)
O10F O 0.51057(12) 0.79446(10) 0.03495(7)
O10B O 0.20554(10) 0.51057(12) 0.03495(7)
O10I O 0.20554(10) 0.51057(12) -0.03495(7)
O10N O 0.48943(12) 0.20554(10) -0.03495(7)
O11B O 0.21752(10) 0.40932(11) -0.03461(7)
O11I O 0.21752(10) 0.40932(11) 0.03461(7)
O11H O 0.40932(11) 0.78248(10) 0.03461(7)
O11F O 0.40932(11) 0.78248(10) -0.03461(7)
O11A O 0.78248(10) 0.59068(11) -0.03461(7)
O11J O 0.78248(10) 0.59068(11) 0.03461(7)
O11N O 0.59068(11) 0.21752(10) 0.03461(7)
O12N O 0.60019(12) 0.14112(10) 0.03418(7)
O12J O 0.85888(10) 0.60019(12) 0.03418(7)
O12A O 0.85888(10) 0.60019(12) -0.03418(7)
O12F O 0.39981(12) 0.85888(10) -0.03418(7)
O12H O 0.39981(12) 0.85888(10) 0.03418(7)
O12I O 0.14112(10) 0.39981(12) 0.03418(7)
O12B O 0.14112(10) 0.39981(12) -0.03418(7)
C41N C 0.4402(7) 0.0408(6) -0.1284(6)
C41I C 0.0408(6) 0.5598(7) -0.1284(6)
C41B C 0.0408(6) 0.5598(7) 0.1284(6)
C41F C 0.5598(7) 0.9592(6) 0.1284(6)
C41H C 0.5598(7) 0.9592(6) -0.1284(6)
C41J C 0.9592(6) 0.4402(7) -0.1284(6)
C41A C 0.9592(6) 0.4402(7) 0.1284(6)
H34N H 0.4559 0.0570 -0.1448
H34I H 0.0570 0.5441 -0.1448
H34B H 0.0570 0.5441 0.1448
H34F H 0.5441 0.9430 0.1448
H34H H 0.5441 0.9430 -0.1448
H34J H 0.9430 0.4559 -0.1448
H34A H 0.9430 0.4559 0.1448
H35N H 0.4592 0.0408 -0.1100
H35I H 0.0408 0.5408 -0.1100
H35B H 0.0408 0.5408 0.1100
H35F H 0.5408 0.9592 0.1100
H35H H 0.5408 0.9592 -0.1100
H35J H 0.9592 0.4592 -0.1100
H35A H 0.9592 0.4592 0.1100
H36N H 0.4344 0.0094 -0.1347
H36I H 0.0094 0.5656 -0.1347
H36B H 0.0094 0.5656 0.1347
H36F H 0.5656 0.9906 0.1347
H36H H 0.5656 0.9906 -0.1347
H36J H 0.9906 0.4344 -0.1347
H36A H 0.9906 0.4344 0.1347
N2A N 0.76009(16) 0.31739(16) 0.22202(11)
N2F N 0.68261(16) 0.76009(16) 0.22202(11)
N2H N 0.68261(16) 0.76009(16) -0.22202(11)
N2I N 0.23991(16) 0.68261(16) -0.22202(11)
N2B N 0.23991(16) 0.68261(16) 0.22202(11)
N2N N 0.31739(16) 0.23991(16) -0.22202(11)
N2J N 0.76009(16) 0.31739(16) -0.22202(11)
C42A C 0.7602(2) 0.3381(2) 0.24940(15)
C42F C 0.6619(2) 0.7602(2) 0.24940(15)
C42H C 0.6619(2) 0.7602(2) -0.24940(15)
C42I C 0.2398(2) 0.6619(2) -0.24940(15)
C42B C 0.2398(2) 0.6619(2) 0.24940(15)
C42N C 0.3381(2) 0.2398(2) -0.24940(15)
C42J C 0.7602(2) 0.3381(2) -0.24940(15)
H37A H 0.7431 0.3651 0.2523
H37F H 0.6349 0.7431 0.2523
H37H H 0.6349 0.7431 -0.2523
H37I H 0.2569 0.6349 -0.2523
H37B H 0.2569 0.6349 0.2523
H37N H 0.3651 0.2569 -0.2523
H37J H 0.7431 0.3651 -0.2523
C43A C 0.8110(3) 0.2607(3) 0.24432(17)
C43F C 0.7393(3) 0.8110(3) 0.24432(17)
C43H C 0.7393(3) 0.8110(3) -0.24432(17)
C43I C 0.1890(3) 0.7393(3) -0.24432(17)
C43B C 0.1890(3) 0.7393(3) 0.24432(17)
C43N C 0.2607(3) 0.1890(3) -0.24432(17)
C43J C 0.8110(3) 0.2607(3) -0.24432(17)
H38A H 0.8275 0.2333 0.2418
H38F H 0.7667 0.8275 0.2418
H38H H 0.7667 0.8275 -0.2418
H38I H 0.1725 0.7667 -0.2418
H38B H 0.1725 0.7667 0.2418
H38N H 0.2333 0.1725 -0.2418
H38J H 0.8275 0.2333 -0.2418
C44A C 0.7869(2) 0.2808(2) 0.22009(17)
C44F C 0.7192(2) 0.7869(2) 0.22009(17)
C44H C 0.7192(2) 0.7869(2) -0.22009(17)
C44I C 0.2131(2) 0.7192(2) -0.22009(17)
C44B C 0.2131(2) 0.7192(2) 0.22009(17)
C44N C 0.2808(2) 0.2131(2) -0.22009(17)
C44J C 0.7869(2) 0.2808(2) -0.22009(17)
H39A H 0.7900 0.2672 0.2006
H39F H 0.7328 0.7900 0.2006
H39H H 0.7328 0.7900 -0.2006
H39I H 0.2100 0.7328 -0.2006
H39B H 0.2100 0.7328 0.2006
H39N H 0.2672 0.2100 -0.2006
H39J H 0.7900 0.2672 -0.2006
C45A C 0.8095(3) 0.2822(3) 0.27074(18)
C45F C 0.7178(3) 0.8095(3) 0.27074(18)
C45H C 0.7178(3) 0.8095(3) -0.27074(18)
C45I C 0.1905(3) 0.7178(3) -0.27074(18)
C45B C 0.1905(3) 0.7178(3) 0.27074(18)
C45N C 0.2822(3) 0.1905(3) -0.27074(18)
C45J C 0.8095(3) 0.2822(3) -0.27074(18)
H40A H 0.8257 0.2703 0.2876
H40F H 0.7297 0.8257 0.2876
H40H H 0.7297 0.8257 -0.2876
H40I H 0.1743 0.7297 -0.2876
H40B H 0.1743 0.7297 0.2876
H40N H 0.2703 0.1743 -0.2876
H40J H 0.8257 0.2703 -0.2876
C46A C 0.7858(3) 0.3196(3) 0.2740(2)
C46F C 0.6804(3) 0.7858(3) 0.2740(2)
C46H C 0.6804(3) 0.7858(3) -0.2740(2)
C46I C 0.2142(3) 0.6804(3) -0.2740(2)
C46B C 0.2142(3) 0.6804(3) 0.2740(2)
C46N C 0.3196(3) 0.2142(3) -0.2740(2)
C46J C 0.7858(3) 0.3196(3) -0.2740(2)
H41A H 0.7857 0.3347 0.2932
H41F H 0.6653 0.7857 0.2932
H41H H 0.6653 0.7857 -0.2932
H41I H 0.2143 0.6653 -0.2932
H41B H 0.2143 0.6653 0.2932
H41N H 0.3347 0.2143 -0.2932
H41J H 0.7857 0.3347 -0.2932
loop_
_geom_bond_atom_site_label_1
_geom_bond_atom_site_label_2
_geom_bond_site_symmetry_1
_geom_bond_site_symmetry_2
Mo1 Mo3 1_555 1_555
Mo2 Mo4 1_555 1_555
Mo3 N1 1_555 1_555
Mo4 O2 1_555 1_555
C1 C2 1_555 1_555
C2 C3 1_555 1_555
C3 H1 1_555 1_555
C4 C3 1_555 1_555
C5 C4 1_555 1_555
H2 C5 1_555 1_555
C6 C5 1_555 1_555
C7 C2 1_555 1_555
H3 C7 1_555 1_555
C8 C6 1_555 1_555
C9 C4 1_555 1_555
C10 C9 1_555 1_555
H4 C10 1_555 1_555
H5 C10 1_555 1_555
H6 C10 1_555 1_555
C11 C9 1_555 1_555
H7 C11 1_555 1_555
H8 C11 1_555 1_555
H9 C11 1_555 1_555
C12 C13 1_555 1_555
C13 C14 1_555 1_555
C14 H10 1_555 1_555
C15 C14 1_555 1_555
C16 C15 1_555 1_555
H11 C16 1_555 1_555
C17 C16 1_555 1_555
C18 C13 1_555 1_555
H12 C18 1_555 1_555
C19 C15 1_555 1_555
C20 C17 1_555 1_555
C21 C20 1_555 1_555
H13 C21 1_555 1_555
H14 C21 1_555 1_555
H15 C21 1_555 1_555
C22 C20 1_555 1_555
H16 C22 1_555 1_555
H17 C22 1_555 1_555
H18 C22 1_555 1_555
C23 C20 1_555 1_555
H19 C23 1_555 1_555
H20 C23 1_555 1_555
H21 C23 1_555 1_555
C24 C25 1_555 1_555
C25 C26 1_555 1_555
C26 H22 1_555 1_555
C27 H23 1_555 1_555
C28 C27 1_555 1_555
C29 C25 1_555 1_555
H24 C29 1_555 1_555
C30 C28 1_555 1_555
C31 C30 1_555 1_555
H25 C31 1_555 1_555
H26 C31 1_555 1_555
H27 C31 1_555 1_555
C32 C26 1_555 1_555
C33 C32 1_555 1_555
C34 C30 1_555 1_555
H28 C34 1_555 1_555
H29 C34 1_555 1_555
H30 C34 1_555 1_555
C35 C30 1_555 1_555
H31 C35 1_555 1_555
H32 C35 1_555 1_555
H33 C35 1_555 1_555
C36 C37 1_555 1_555
C37 C38 1_555 1_555
C38 C39 1_555 1_555
C39 C37 1_555 1_555
C40 N1 1_555 1_555
N1 C36 1_555 1_555
O1 Mo2 1_555 1_555
O2 C8 1_555 1_555
O3 Mo2 1_555 1_555
O4 Mo4 1_555 1_555
O5 Mo2 1_555 1_555
O6 Mo4 1_555 1_555
O7 Mo2 1_555 1_555
O8 Mo4 1_555 1_555
O9 Mo3 1_555 1_555
O10 Mo1 1_555 1_555
O11 Mo1 1_555 1_555
O12 Mo3 1_555 1_555
C41 C9 1_555 1_555
H34 C41 1_555 1_555
H35 C41 1_555 1_555
H36 C41 1_555 1_555
N2 Mo2 1_555 1_555
C42 N2 1_555 1_555
H37 C42 1_555 1_555
C43 H38 1_555 1_555
C44 N2 1_555 1_555
H39 C44 1_555 1_555
C45 C43 1_555 1_555
H40 C45 1_555 1_555
C46 C42 1_555 1_555
H41 C46 1_555 1_555
Mo1A Mo3A 1_555 1_555
Mo1H Mo3H 1_555 1_555
Mo1B Mo3B 1_555 1_555
Mo2A Mo4A 1_555 1_555
Mo2J Mo4J 1_555 1_555
Mo2H Mo4H 1_555 1_555
Mo2F Mo4F 1_555 1_555
Mo2B Mo4B 1_555 1_555
Mo2I Mo4I 1_555 1_555
Mo2N Mo4N 1_555 1_555
Mo3A N1A 1_555 1_555
Mo3H N1H 1_555 1_555
Mo3B N1B 1_555 1_555
Mo4A O2A 1_555 1_555
Mo4J O2J 1_555 1_555
Mo4H O2H 1_555 1_555
Mo4F O2F 1_555 1_555
Mo4B O2B 1_555 1_555
Mo4I O2I 1_555 1_555
Mo4N O2N 1_555 1_555
C1A C2A 1_555 1_555
C1J C2J 1_555 1_555
C1H C2H 1_555 1_555
C1F C2F 1_555 1_555
C1B C2B 1_555 1_555
C1I C2I 1_555 1_555
C1N C2N 1_555 1_555
C2A C3A 1_555 1_555
C2J C3J 1_555 1_555
C2H C3H 1_555 1_555
C2F C3F 1_555 1_555
C2B C3B 1_555 1_555
C2I C3I 1_555 1_555
C2N C3N 1_555 1_555
C3A H1A 1_555 1_555
C3J H1J 1_555 1_555
C3H H1H 1_555 1_555
C3F H1F 1_555 1_555
C3B H1B 1_555 1_555
C3I H1I 1_555 1_555
C3N H1N 1_555 1_555
C4A C3A 1_555 1_555
C4J C3J 1_555 1_555
C4H C3H 1_555 1_555
C4F C3F 1_555 1_555
C4B C3B 1_555 1_555
C4I C3I 1_555 1_555
C4N C3N 1_555 1_555
C5A C4A 1_555 1_555
C5J C4J 1_555 1_555
C5H C4H 1_555 1_555
C5F C4F 1_555 1_555
C5B C4B 1_555 1_555
C5I C4I 1_555 1_555
C5N C4N 1_555 1_555
H2J C5J 1_555 1_555
H2F C5F 1_555 1_555
H2I C5I 1_555 1_555
H2N C5N 1_555 1_555
H2B C5B 1_555 1_555
H2H C5H 1_555 1_555
H2A C5A 1_555 1_555
C6A C5A 1_555 1_555
C6J C5J 1_555 1_555
C6H C5H 1_555 1_555
C6F C5F 1_555 1_555
C6B C5B 1_555 1_555
C6I C5I 1_555 1_555
C6N C5N 1_555 1_555
C7J C2J 1_555 1_555
C7F C2F 1_555 1_555
C7I C2I 1_555 1_555
C7N C2N 1_555 1_555
C7B C2B 1_555 1_555
C7H C2H 1_555 1_555
C7A C2A 1_555 1_555
H3J C7J 1_555 1_555
H3F C7F 1_555 1_555
H3I C7I 1_555 1_555
H3N C7N 1_555 1_555
H3B C7B 1_555 1_555
H3H C7H 1_555 1_555
H3A C7A 1_555 1_555
C8A C6A 1_555 1_555
C8J C6J 1_555 1_555
C8H C6H 1_555 1_555
C8F C6F 1_555 1_555
C8B C6B 1_555 1_555
C8I C6I 1_555 1_555
C8N C6N 1_555 1_555
C9N C4N 1_555 1_555
C9I C4I 1_555 1_555
C9B C4B 1_555 1_555
C9F C4F 1_555 1_555
C9H C4H 1_555 1_555
C9J C4J 1_555 1_555
C9A C4A 1_555 1_555
C10N C9N 1_555 1_555
C10I C9I 1_555 1_555
C10B C9B 1_555 1_555
C10F C9F 1_555 1_555
C10H C9H 1_555 1_555
C10J C9J 1_555 1_555
C10A C9A 1_555 1_555
H4N C10N 1_555 1_555
H4I C10I 1_555 1_555
H4B C10B 1_555 1_555
H4F C10F 1_555 1_555
H4H C10H 1_555 1_555
H4J C10J 1_555 1_555
H4A C10A 1_555 1_555
H5N C10N 1_555 1_555
H5I C10I 1_555 1_555
H5B C10B 1_555 1_555
H5F C10F 1_555 1_555
H5H C10H 1_555 1_555
H5J C10J 1_555 1_555
H5A C10A 1_555 1_555
H6N C10N 1_555 1_555
H6I C10I 1_555 1_555
H6B C10B 1_555 1_555
H6F C10F 1_555 1_555
H6H C10H 1_555 1_555
H6J C10J 1_555 1_555
H6A C10A 1_555 1_555
C11N C9N 1_555 1_555
C11I C9I 1_555 1_555
C11B C9B 1_555 1_555
C11F C9F 1_555 1_555
C11H C9H 1_555 1_555
C11J C9J 1_555 1_555
C11A C9A 1_555 1_555
H7N C11N 1_555 1_555
H7I C11I 1_555 1_555
H7B C11B 1_555 1_555
H7F C11F 1_555 1_555
H7H C11H 1_555 1_555
H7J C11J 1_555 1_555
H7A C11A 1_555 1_555
H8N C11N 1_555 1_555
H8I C11I 1_555 1_555
H8B C11B 1_555 1_555
H8F C11F 1_555 1_555
H8H C11H 1_555 1_555
H8J C11J 1_555 1_555
H8A C11A 1_555 1_555
H9N C11N 1_555 1_555
H9I C11I 1_555 1_555
H9B C11B 1_555 1_555
H9F C11F 1_555 1_555
H9H C11H 1_555 1_555
H9J C11J 1_555 1_555
H9A C11A 1_555 1_555
C12J O11 1_555 1_555
C12N C13N 1_555 1_555
C12B C13B 1_555 1_555
C12I C13I 1_555 1_555
C12H C13H 1_555 1_555
C12F C13F 1_555 1_555
C12A C13A 1_555 1_555
C13J C12J 1_555 1_555
C13N C14N 1_555 1_555
C13B C14B 1_555 1_555
C13I C14I 1_555 1_555
C13H C14H 1_555 1_555
C13F C14F 1_555 1_555
C13A C14A 1_555 1_555
C14J C13J 1_555 1_555
C14N H10N 1_555 1_555
C14B H10B 1_555 1_555
C14I H10I 1_555 1_555
C14H H10H 1_555 1_555
C14F H10F 1_555 1_555
C14A H10A 1_555 1_555
H10J C14J 1_555 1_555
C15J C14J 1_555 1_555
C15N C14N 1_555 1_555
C15B C14B 1_555 1_555
C15I C14I 1_555 1_555
C15H C14H 1_555 1_555
C15F C14F 1_555 1_555
C15A C14A 1_555 1_555
C16J C15J 1_555 1_555
C16I C15I 1_555 1_555
C16F C15F 1_555 1_555
C16A C15A 1_555 1_555
C16H C15H 1_555 1_555
C16B C15B 1_555 1_555
C16N C15N 1_555 1_555
H11J C16J 1_555 1_555
H11I C16I 1_555 1_555
H11F C16F 1_555 1_555
H11A C16A 1_555 1_555
H11H C16H 1_555 1_555
H11B C16B 1_555 1_555
H11N C16N 1_555 1_555
C17J C16J 1_555 1_555
C17I C16I 1_555 1_555
C17F C16F 1_555 1_555
C17A C16A 1_555 1_555
C17H C16H 1_555 1_555
C17B C16B 1_555 1_555
C17N C16N 1_555 1_555
C18J C13J 1_555 1_555
C18I C13I 1_555 1_555
C18F C13F 1_555 1_555
C18A C13A 1_555 1_555
C18H C13H 1_555 1_555
C18B C13B 1_555 1_555
C18N C13N 1_555 1_555
H12J C18J 1_555 1_555
H12I C18I 1_555 1_555
H12F C18F 1_555 1_555
H12A C18A 1_555 1_555
H12H C18H 1_555 1_555
H12B C18B 1_555 1_555
H12N C18N 1_555 1_555
C19J C15J 1_555 1_555
C19N C15N 1_555 1_555
C19B C15B 1_555 1_555
C19I C15I 1_555 1_555
C19H C15H 1_555 1_555
C19F C15F 1_555 1_555
C19A C15A 1_555 1_555
C20J C17J 1_555 1_555
C20I C17I 1_555 1_555
C20F C17F 1_555 1_555
C20A C17A 1_555 1_555
C20H C17H 1_555 1_555
C20B C17B 1_555 1_555
C20N C17N 1_555 1_555
C21J C20J 1_555 1_555
C21I C20I 1_555 1_555
C21F C20F 1_555 1_555
C21A C20A 1_555 1_555
C21H C20H 1_555 1_555
C21B C20B 1_555 1_555
C21N C20N 1_555 1_555
H13J C21J 1_555 1_555
H13I C21I 1_555 1_555
H13F C21F 1_555 1_555
H13A C21A 1_555 1_555
H13H C21H 1_555 1_555
H13B C21B 1_555 1_555
H13N C21N 1_555 1_555
H14J C21J 1_555 1_555
H14I C21I 1_555 1_555
H14F C21F 1_555 1_555
H14A C21A 1_555 1_555
H14H C21H 1_555 1_555
H14B C21B 1_555 1_555
H14N C21N 1_555 1_555
H15J C21J 1_555 1_555
H15I C21I 1_555 1_555
H15F C21F 1_555 1_555
H15A C21A 1_555 1_555
H15H C21H 1_555 1_555
H15B C21B 1_555 1_555
H15N C21N 1_555 1_555
C22J C20J 1_555 1_555
C22I C20I 1_555 1_555
C22F C20F 1_555 1_555
C22A C20A 1_555 1_555
C22H C20H 1_555 1_555
C22B C20B 1_555 1_555
C22N C20N 1_555 1_555
H16J C22J 1_555 1_555
H16I C22I 1_555 1_555
H16F C22F 1_555 1_555
H16A C22A 1_555 1_555
H16H C22H 1_555 1_555
H16B C22B 1_555 1_555
H16N C22N 1_555 1_555
H17J C22J 1_555 1_555
H17I C22I 1_555 1_555
H17F C22F 1_555 1_555
H17A C22A 1_555 1_555
H17H C22H 1_555 1_555
H17B C22B 1_555 1_555
H17N C22N 1_555 1_555
H18J C22J 1_555 1_555
H18I C22I 1_555 1_555
H18F C22F 1_555 1_555
H18A C22A 1_555 1_555
H18H C22H 1_555 1_555
H18B C22B 1_555 1_555
H18N C22N 1_555 1_555
C23J C20J 1_555 1_555
C23I C20I 1_555 1_555
C23F C20F 1_555 1_555
C23A C20A 1_555 1_555
C23H C20H 1_555 1_555
C23B C20B 1_555 1_555
C23N C20N 1_555 1_555
H19J C23J 1_555 1_555
H19I C23I 1_555 1_555
H19F C23F 1_555 1_555
H19A C23A 1_555 1_555
H19H C23H 1_555 1_555
H19B C23B 1_555 1_555
H19N C23N 1_555 1_555
H20J C23J 1_555 1_555
H20I C23I 1_555 1_555
H20F C23F 1_555 1_555
H20A C23A 1_555 1_555
H20H C23H 1_555 1_555
H20B C23B 1_555 1_555
H20N C23N 1_555 1_555
H21J C23J 1_555 1_555
H21I C23I 1_555 1_555
H21F C23F 1_555 1_555
H21A C23A 1_555 1_555
H21H C23H 1_555 1_555
H21B C23B 1_555 1_555
H21N C23N 1_555 1_555
C24J C25J 1_555 1_555
C24F C25F 1_555 1_555
C24I C25I 1_555 1_555
C24N C25N 1_555 1_555
C24B C25B 1_555 1_555
C24H C25H 1_555 1_555
C24A C25A 1_555 1_555
C25J C26J 1_555 1_555
C25F C26F 1_555 1_555
C25I C26I 1_555 1_555
C25N C26N 1_555 1_555
C25B C26B 1_555 1_555
C25H C26H 1_555 1_555
C25A C26A 1_555 1_555
C26J H22J 1_555 1_555
C26F H22F 1_555 1_555
C26I H22I 1_555 1_555
C26N H22N 1_555 1_555
C26B H22B 1_555 1_555
C26H H22H 1_555 1_555
C26A H22A 1_555 1_555
C27J H23J 1_555 1_555
C27F H23F 1_555 1_555
C27I H23I 1_555 1_555
C27A H23A 1_555 1_555
C27H H23H 1_555 1_555
C27B H23B 1_555 1_555
C27N H23N 1_555 1_555
C28J C27J 1_555 1_555
C28F C27F 1_555 1_555
C28I C27I 1_555 1_555
C28A C27A 1_555 1_555
C28H C27H 1_555 1_555
C28B C27B 1_555 1_555
C28N C27N 1_555 1_555
C29J C25J 1_555 1_555
C29F C25F 1_555 1_555
C29I C25I 1_555 1_555
C29A C25A 1_555 1_555
C29H C25H 1_555 1_555
C29B C25B 1_555 1_555
C29N C25N 1_555 1_555
H24J C29J 1_555 1_555
H24F C29F 1_555 1_555
H24I C29I 1_555 1_555
H24A C29A 1_555 1_555
H24H C29H 1_555 1_555
H24B C29B 1_555 1_555
H24N C29N 1_555 1_555
C30J C28J 1_555 1_555
C30F C28F 1_555 1_555
C30I C28I 1_555 1_555
C30A C28A 1_555 1_555
C30H C28H 1_555 1_555
C30B C28B 1_555 1_555
C30N C28N 1_555 1_555
C31J C30J 1_555 1_555
C31F C30F 1_555 1_555
C31I C30I 1_555 1_555
C31A C30A 1_555 1_555
C31H C30H 1_555 1_555
C31B C30B 1_555 1_555
C31N C30N 1_555 1_555
H25J C31J 1_555 1_555
H25F C31F 1_555 1_555
H25I C31I 1_555 1_555
H25A C31A 1_555 1_555
H25H C31H 1_555 1_555
H25B C31B 1_555 1_555
H25N C31N 1_555 1_555
H26J C31J 1_555 1_555
H26F C31F 1_555 1_555
H26I C31I 1_555 1_555
H26A C31A 1_555 1_555
H26H C31H 1_555 1_555
H26B C31B 1_555 1_555
H26N C31N 1_555 1_555
H27J C31J 1_555 1_555
H27F C31F 1_555 1_555
H27I C31I 1_555 1_555
H27A C31A 1_555 1_555
H27H C31H 1_555 1_555
H27B C31B 1_555 1_555
H27N C31N 1_555 1_555
C32J C26J 1_555 1_555
C32F C26F 1_555 1_555
C32I C26I 1_555 1_555
C32N C26N 1_555 1_555
C32B C26B 1_555 1_555
C32H C26H 1_555 1_555
C32A C26A 1_555 1_555
C33J C32J 1_555 1_555
C33F C32F 1_555 1_555
C33I C32I 1_555 1_555
C33N C32N 1_555 1_555
C33B O7 1_555 1_555
C33H C32H 1_555 1_555
C33A C32A 1_555 1_555
C34J C30J 1_555 1_555
C34F C30F 1_555 1_555
C34I C30I 1_555 1_555
C34A C30A 1_555 1_555
C34H C30H 1_555 1_555
C34B C30B 1_555 1_555
C34N C30N 1_555 1_555
H28J C34J 1_555 1_555
H28F C34F 1_555 1_555
H28I C34I 1_555 1_555
H28A C34A 1_555 1_555
H28H C34H 1_555 1_555
H28B C34B 1_555 1_555
H28N C34N 1_555 1_555
H29J C34J 1_555 1_555
H29F C34F 1_555 1_555
H29I C34I 1_555 1_555
H29A C34A 1_555 1_555
H29H C34H 1_555 1_555
H29B C34B 1_555 1_555
H29N C34N 1_555 1_555
H30J C34J 1_555 1_555
H30F C34F 1_555 1_555
H30I C34I 1_555 1_555
H30A C34A 1_555 1_555
H30H C34H 1_555 1_555
H30B C34B 1_555 1_555
H30N C34N 1_555 1_555
C35J C30J 1_555 1_555
C35F C30F 1_555 1_555
C35I C30I 1_555 1_555
C35A C30A 1_555 1_555
C35H C30H 1_555 1_555
C35B C30B 1_555 1_555
C35N C30N 1_555 1_555
H31J C35J 1_555 1_555
H31F C35F 1_555 1_555
H31I C35I 1_555 1_555
H31A C35A 1_555 1_555
H31H C35H 1_555 1_555
H31B C35B 1_555 1_555
H31N C35N 1_555 1_555
H32J C35J 1_555 1_555
H32F C35F 1_555 1_555
H32I C35I 1_555 1_555
H32A C35A 1_555 1_555
H32H C35H 1_555 1_555
H32B C35B 1_555 1_555
H32N C35N 1_555 1_555
H33J C35J 1_555 1_555
H33F C35F 1_555 1_555
H33I C35I 1_555 1_555
H33A C35A 1_555 1_555
H33H C35H 1_555 1_555
H33B C35B 1_555 1_555
H33N C35N 1_555 1_555
C36N C36 1_555 1_555
C36A C36J 1_555 1_555
C36J C37J 1_555 1_555
C36H C36F 1_555 1_555
C36F C37F 1_555 1_555
C36B C36I 1_555 1_555
C36I C37I 1_555 1_555
C37N C37 1_555 1_555
C37A C36A 1_555 1_555
C37J C37A 1_555 1_555
C37F C37H 1_555 1_555
C37H C36H 1_555 1_555
C37B C36B 1_555 1_555
C37I C37B 1_555 1_555
C38N C37 1_555 1_555
C38J C37A 1_555 1_555
C38A C37A 1_555 1_555
C38F C37F 1_555 1_555
C38H C37F 1_555 1_555
C38B C37B 1_555 1_555
C38I C37B 1_555 1_555
C39N C38 1_555 1_555
C39J C37J 1_555 1_555
C39A C37A 1_555 1_555
C39H C37H 1_555 1_555
C39F C37F 1_555 1_555
C39I C37I 1_555 1_555
C39B C37B 1_555 1_555
C40N C36 1_555 1_555
C40A C36J 1_555 1_555
C40J C36A 1_555 1_555
C40F C36H 1_555 1_555
C40H C36F 1_555 1_555
C40B C36I 1_555 1_555
C40I C36B 1_555 1_555
N1N Mo3 1_555 1_555
N1A C36A 1_555 1_555
N1J Mo3A 1_555 1_555
N1H C36H 1_555 1_555
N1F Mo3H 1_555 1_555
N1B C36B 1_555 1_555
N1I Mo3B 1_555 1_555
O1J Mo2J 1_555 1_555
O1F Mo2F 1_555 1_555
O1I Mo2I 1_555 1_555
O1N Mo2N 1_555 1_555
O1B Mo2B 1_555 1_555
O1H Mo2H 1_555 1_555
O1A Mo2A 1_555 1_555
O2A C8A 1_555 1_555
O2J C8J 1_555 1_555
O2H C8H 1_555 1_555
O2F C8F 1_555 1_555
O2B C8B 1_555 1_555
O2I C8I 1_555 1_555
O2N C8N 1_555 1_555
O3J Mo2J 1_555 1_555
O3N Mo2N 1_555 1_555
O3B Mo2B 1_555 1_555
O3I Mo2I 1_555 1_555
O3H Mo2H 1_555 1_555
O3F Mo2F 1_555 1_555
O3A Mo2A 1_555 1_555
O4J Mo4J 1_555 1_555
O4F Mo4F 1_555 1_555
O4I Mo4I 1_555 1_555
O4A Mo4A 1_555 1_555
O4H Mo4H 1_555 1_555
O4B Mo4B 1_555 1_555
O4N Mo4N 1_555 1_555
O5J Mo2J 1_555 1_555
O5N Mo2N 1_555 1_555
O5B Mo2B 1_555 1_555
O5I Mo2I 1_555 1_555
O5H Mo2H 1_555 1_555
O5F Mo2F 1_555 1_555
O5A Mo2A 1_555 1_555
O6A Mo4A 1_555 1_555
O6F Mo4F 1_555 1_555
O6H Mo4H 1_555 1_555
O6I Mo4I 1_555 1_555
O6B Mo4B 1_555 1_555
O6N Mo4N 1_555 1_555
O6J Mo4J 1_555 1_555
O7A C33 1_555 1_555
O7H Mo2H 1_555 1_555
O7B Mo2B 1_555 1_555
O7N Mo2N 1_555 1_555
O7J Mo2J 1_555 1_555
O7I Mo2I 1_555 1_555
O7F Mo2F 1_555 1_555
O8A C33 1_555 1_555
O8F Mo4F 1_555 1_555
O8H Mo4H 1_555 1_555
O8I Mo4I 1_555 1_555
O8B Mo4B 1_555 1_555
O8N Mo4N 1_555 1_555
O8J Mo4J 1_555 1_555
O9A Mo3A 1_555 1_555
O9H Mo3H 1_555 1_555
O9B Mo3B 1_555 1_555
O9N Mo3 1_555 1_555
O9J Mo3A 1_555 1_555
O9F Mo3H 1_555 1_555
O9I Mo3B 1_555 1_555
O10A Mo1A 1_555 1_555
O10J Mo1A 1_555 1_555
O10H Mo1H 1_555 1_555
O10F Mo1H 1_555 1_555
O10B Mo1B 1_555 1_555
O10I Mo1B 1_555 1_555
O10N Mo1 1_555 1_555
O11B Mo1B 1_555 1_555
O11I C12 1_555 1_555
O11H Mo1H 1_555 1_555
O11F Mo1H 1_555 1_555
O11A Mo1A 1_555 1_555
O11J Mo1A 1_555 1_555
O11N Mo1 1_555 1_555
O12N Mo3 1_555 1_555
O12J Mo3A 1_555 1_555
O12A Mo3A 1_555 1_555
O12F Mo3H 1_555 1_555
O12H Mo3H 1_555 1_555
O12I C12 1_555 1_555
O12B Mo3B 1_555 1_555
C41N C9N 1_555 1_555
C41I C9I 1_555 1_555
C41B C9B 1_555 1_555
C41F C9F 1_555 1_555
C41H C9H 1_555 1_555
C41J C9J 1_555 1_555
C41A C9A 1_555 1_555
H34N C41N 1_555 1_555
H34I C41I 1_555 1_555
H34B C41B 1_555 1_555
H34F C41F 1_555 1_555
H34H C41H 1_555 1_555
H34J C41J 1_555 1_555
H34A C41A 1_555 1_555
H35N C41N 1_555 1_555
H35I C41I 1_555 1_555
H35B C41B 1_555 1_555
H35F C41F 1_555 1_555
H35H C41H 1_555 1_555
H35J C41J 1_555 1_555
H35A C41A 1_555 1_555
H36N C41N 1_555 1_555
H36I C41I 1_555 1_555
H36B C41B 1_555 1_555
H36F C41F 1_555 1_555
H36H C41H 1_555 1_555
H36J C41J 1_555 1_555
H36A C41A 1_555 1_555
N2A Mo2A 1_555 1_555
N2F Mo2F 1_555 1_555
N2H Mo2H 1_555 1_555
N2I Mo2I 1_555 1_555
N2B Mo2B 1_555 1_555
N2N Mo2N 1_555 1_555
N2J Mo2J 1_555 1_555
C42A N2A 1_555 1_555
C42F N2F 1_555 1_555
C42H N2H 1_555 1_555
C42I N2I 1_555 1_555
C42B N2B 1_555 1_555
C42N N2N 1_555 1_555
C42J N2J 1_555 1_555
H37A C42A 1_555 1_555
H37F C42F 1_555 1_555
H37H C42H 1_555 1_555
H37I C42I 1_555 1_555
H37B C42B 1_555 1_555
H37N C42N 1_555 1_555
H37J C42J 1_555 1_555
C43A H38A 1_555 1_555
C43F H38F 1_555 1_555
C43H H38H 1_555 1_555
C43I H38I 1_555 1_555
C43B H38B 1_555 1_555
C43N H38N 1_555 1_555
C43J H38J 1_555 1_555
C44A N2A 1_555 1_555
C44F N2F 1_555 1_555
C44H N2H 1_555 1_555
C44I N2I 1_555 1_555
C44B N2B 1_555 1_555
C44N N2N 1_555 1_555
C44J N2J 1_555 1_555
H39A C44A 1_555 1_555
H39F C44F 1_555 1_555
H39H C44H 1_555 1_555
H39I C44I 1_555 1_555
H39B C44B 1_555 1_555
H39N C44N 1_555 1_555
H39J C44J 1_555 1_555
C45A C43A 1_555 1_555
C45F C43F 1_555 1_555
C45H C43H 1_555 1_555
C45I C43I 1_555 1_555
C45B C43B 1_555 1_555
C45N C43N 1_555 1_555
C45J C43J 1_555 1_555
H40A C45A 1_555 1_555
H40F C45F 1_555 1_555
H40H C45H 1_555 1_555
H40I C45I 1_555 1_555
H40B C45B 1_555 1_555
H40N C45N 1_555 1_555
H40J C45J 1_555 1_555
C46A C42A 1_555 1_555
C46F C42F 1_555 1_555
C46H C42H 1_555 1_555
C46I C42I 1_555 1_555
C46B C42B 1_555 1_555
C46N C42N 1_555 1_555
C46J C42J 1_555 1_555
H41A C46A 1_555 1_555
H41F C46F 1_555 1_555
H41H C46H 1_555 1_555
H41I C46I 1_555 1_555
H41B C46B 1_555 1_555
H41N C46N 1_555 1_555
H41J C46J 1_555 1_555
C1 O9 1_555 1_555
C1 O10 1_555 1_555
C6 C7 1_555 1_555
C8 O1 1_555 1_555
C17 C18 1_555 1_555
C19 O5 1_555 1_555
C19 O6 1_555 1_555
C24 O3 1_555 1_555
C24 O4 1_555 1_555
C27 C32 1_555 1_555
C28 C29 1_555 1_555
C36 N1N 1_555 1_555
C38 C37N 1_555 1_555
C38 C38N 1_555 1_555
C39 C38N 1_555 1_555
C39 C40N 1_555 1_555
C40 C36N 1_555 1_555
C40 C39N 1_555 1_555
C40 N1N 1_555 1_555
N1 C36N 1_555 1_555
N1 C40N 1_555 1_555
N1 N1N 1_555 1_555
O8 C33B 1_555 1_555
O12 C12J 1_555 1_555
C43 C44 1_555 1_555
C45 C46 1_555 1_555
Mo1B O11I 1_555 1_555
Mo2A O7A 1_555 1_555
Mo3B O12I 1_555 1_555
Mo4A O8A 1_555 1_555
C1A O9A 1_555 1_555
C1A O10A 1_555 1_555
C1J O9J 1_555 1_555
C1J O10J 1_555 1_555
C1H O9H 1_555 1_555
C1H O10H 1_555 1_555
C1F O9F 1_555 1_555
C1F O10F 1_555 1_555
C1B O9B 1_555 1_555
C1B O10B 1_555 1_555
C1I O9I 1_555 1_555
C1I O10I 1_555 1_555
C1N O9N 1_555 1_555
C1N O10N 1_555 1_555
C6A C7A 1_555 1_555
C6J C7J 1_555 1_555
C6H C7H 1_555 1_555
C6F C7F 1_555 1_555
C6B C7B 1_555 1_555
C6I C7I 1_555 1_555
C6N C7N 1_555 1_555
C8A O1A 1_555 1_555
C8J O1J 1_555 1_555
C8H O1H 1_555 1_555
C8F O1F 1_555 1_555
C8B O1B 1_555 1_555
C8I O1I 1_555 1_555
C8N O1N 1_555 1_555
C12N O11B 1_555 1_555
C12N O12B 1_555 1_555
C12B O11H 1_555 1_555
C12B O12H 1_555 1_555
C12I O11F 1_555 1_555
C12I O12F 1_555 1_555
C12H O11A 1_555 1_555
C12H O12A 1_555 1_555
C12F O11J 1_555 1_555
C12F O12J 1_555 1_555
C12A O11N 1_555 1_555
C12A O12N 1_555 1_555
C17J C18J 1_555 1_555
C17I C18I 1_555 1_555
C17F C18F 1_555 1_555
C17A C18A 1_555 1_555
C17H C18H 1_555 1_555
C17B C18B 1_555 1_555
C17N C18N 1_555 1_555
C19J O5J 1_555 1_555
C19J O6J 1_555 1_555
C19N O5N 1_555 1_555
C19N O6N 1_555 1_555
C19B O5B 1_555 1_555
C19B O6B 1_555 1_555
C19I O5I 1_555 1_555
C19I O6I 1_555 1_555
C19H O5H 1_555 1_555
C19H O6H 1_555 1_555
C19F O5F 1_555 1_555
C19F O6F 1_555 1_555
C19A O5A 1_555 1_555
C19A O6A 1_555 1_555
C24J O3J 1_555 1_555
C24J O4J 1_555 1_555
C24F O3F 1_555 1_555
C24F O4F 1_555 1_555
C24I O3I 1_555 1_555
C24I O4I 1_555 1_555
C24N O3N 1_555 1_555
C24N O4N 1_555 1_555
C24B O3B 1_555 1_555
C24B O4B 1_555 1_555
C24H O3H 1_555 1_555
C24H O4H 1_555 1_555
C24A O3A 1_555 1_555
C24A O4A 1_555 1_555
C27J C32J 1_555 1_555
C27F C32F 1_555 1_555
C27I C32I 1_555 1_555
C27A C32A 1_555 1_555
C27H C32H 1_555 1_555
C27B C32B 1_555 1_555
C27N C32N 1_555 1_555
C28J C29J 1_555 1_555
C28F C29F 1_555 1_555
C28I C29I 1_555 1_555
C28A C29A 1_555 1_555
C28H C29H 1_555 1_555
C28B C29B 1_555 1_555
C28N C29N 1_555 1_555
C32B C33B 1_555 1_555
C33J O7H 1_555 1_555
C33J O8H 1_555 1_555
C33F O7B 1_555 1_555
C33F O8B 1_555 1_555
C33I O7N 1_555 1_555
C33I O8N 1_555 1_555
C33N O7J 1_555 1_555
C33N O8J 1_555 1_555
C33H O7I 1_555 1_555
C33H O8I 1_555 1_555
C33A O7F 1_555 1_555
C33A O8F 1_555 1_555
C36N C37N 1_555 1_555
C36N N1N 1_555 1_555
C36A N1J 1_555 1_555
C36J N1A 1_555 1_555
C36J N1J 1_555 1_555
C36H N1F 1_555 1_555
C36F N1H 1_555 1_555
C36F N1F 1_555 1_555
C36B N1I 1_555 1_555
C36I N1B 1_555 1_555
C36I N1I 1_555 1_555
C37N C38N 1_555 1_555
C37N C39N 1_555 1_555
C37J C38J 1_555 1_555
C37J C38A 1_555 1_555
C37H C38F 1_555 1_555
C37H C38H 1_555 1_555
C37I C38B 1_555 1_555
C37I C38I 1_555 1_555
C38N C39N 1_555 1_555
C38J C38A 1_555 1_555
C38J C39J 1_555 1_555
C38J C39A 1_555 1_555
C38A C39J 1_555 1_555
C38A C39A 1_555 1_555
C38F C38H 1_555 1_555
C38F C39H 1_555 1_555
C38F C39F 1_555 1_555
C38H C39H 1_555 1_555
C38H C39F 1_555 1_555
C38B C38I 1_555 1_555
C38B C39I 1_555 1_555
C38B C39B 1_555 1_555
C38I C39I 1_555 1_555
C38I C39B 1_555 1_555
C39J C40A 1_555 1_555
C39A C40J 1_555 1_555
C39H C40F 1_555 1_555
C39F C40H 1_555 1_555
C39I C40B 1_555 1_555
C39B C40I 1_555 1_555
C40N N1N 1_555 1_555
C40A N1A 1_555 1_555
C40A N1J 1_555 1_555
C40J N1A 1_555 1_555
C40J N1J 1_555 1_555
C40F N1H 1_555 1_555
C40F N1F 1_555 1_555
C40H N1H 1_555 1_555
C40H N1F 1_555 1_555
C40B N1B 1_555 1_555
C40B N1I 1_555 1_555
C40I N1B 1_555 1_555
C40I N1I 1_555 1_555
N1A N1J 1_555 1_555
N1H N1F 1_555 1_555
N1B N1I 1_555 1_555
C43A C44A 1_555 1_555
C43F C44F 1_555 1_555
C43H C44H 1_555 1_555
C43I C44I 1_555 1_555
C43B C44B 1_555 1_555
C43N C44N 1_555 1_555
C43J C44J 1_555 1_555
C45A C46A 1_555 1_555
C45F C46F 1_555 1_555
C45H C46H 1_555 1_555
C45I C46I 1_555 1_555
C45B C46B 1_555 1_555
C45N C46N 1_555 1_555
C45J C46J 1_555 1_555

#END
