
#######################################################################
#
#                 Cambridge Crystallographic Data Centre
#                                CCDC 
#
#######################################################################
#
# If this CIF has been generated from an entry in the Cambridge 
# Structural Database, then it will include bibliographic, chemical, 
# crystal, experimental, refinement or atomic coordinate data resulting 
# from the CCDC's data processing and validation procedures.
#
#######################################################################

data_MAQPEA
_chemical_formula_moiety         'C192 H96 Mo24 O96'
_chemical_name_systematic        
'tetracosakis((\m~4~-Benzene-1,3-dicarboxylato)-molybdenum) unknown solvent'
_symmetry_cell_setting           tetragonal
_symmetry_space_group_name_H-M   'I -4 2 m'
_symmetry_Int_Tables_number      121
_space_group_name_Hall           'I -4 2'
loop_
_symmetry_equiv_pos_site_id
_symmetry_equiv_pos_as_xyz
1 x,y,z
2 x,-y,-z
3 -x,-y,z
4 -x,y,-z
5 -y,-x,z
6 -y,x,-z
7 y,-x,-z
8 y,x,z
9 1/2+x,1/2+y,1/2+z
10 1/2+x,1/2-y,1/2-z
11 1/2-x,1/2-y,1/2+z
12 1/2-x,1/2+y,1/2-z
13 1/2-y,1/2-x,1/2+z
14 1/2-y,1/2+x,1/2-z
15 1/2+y,1/2-x,1/2-z
16 1/2+y,1/2+x,1/2+z
_cell_length_a                   46.622(3)
_cell_length_b                   46.622(3)
_cell_length_c                   43.695(5)
_cell_angle_alpha                90
_cell_angle_beta                 90
_cell_angle_gamma                90
_cell_volume                     94975.9
_exptl_crystal_colour            orange
_exptl_crystal_description       rod
_cell_formula_units_Z            8
_chemical_properties_physical    air-sensitive
loop_
_atom_site_label
_atom_site_type_symbol
_atom_site_fract_x
_atom_site_fract_y
_atom_site_fract_z
C1 C 0.7345(5) 0.7896(7) 0.4439(3)
C2 C 0.7347(4) 0.8190(3) 0.4433(4)
C3 C 0.7411(4) 0.8378(4) 0.4670(3)
H1 H 0.7409 0.8314 0.4871
C4 C 0.7479(3) 0.8662(4) 0.4605(4)
H2 H 0.7523 0.8788 0.4764
C5 C 0.7483(4) 0.8758(3) 0.4304(5)
H3 H 0.7528 0.8948 0.4261
C6 C 0.7418(3) 0.8570(4) 0.4067(3)
C7 C 0.7350(3) 0.8286(4) 0.4131(3)
H4 H 0.7306 0.8160 0.3973
C8 C 0.7432(6) 0.8673(6) 0.3769(7)
C9 C 0.7591(5) 0.9197(5) 0.2596(7)
C10 C 0.7676(4) 0.9299(4) 0.2332(3)
C11 C 0.7587(3) 0.9149(3) 0.2075(5)
H5 H 0.7485 0.8979 0.2097
C12 C 0.7650(4) 0.9252(4) 0.1784(4)
C13 C 0.7803(3) 0.9506(4) 0.1751(3)
H6 H 0.7845 0.9576 0.1557
C14 C 0.7892(3) 0.9657(3) 0.2008(5)
H7 H 0.7994 0.9827 0.1986
C15 C 0.7829(4) 0.9553(4) 0.2299(4)
H8 H 0.7889 0.9654 0.2471
C16 C 0.7568(4) 0.9074(5) 0.1543(7)
C17 C 0.6957(6) 0.8487(6) 0.0566(6)
C18 C 0.6761(3) 0.8393(4) 0.0368(5)
C19 C 0.6592(4) 0.8171(4) 0.0480(3)
H9 H 0.6626 0.8096 0.0674
C20 C 0.6371(4) 0.8061(3) 0.0302(5)
C21 C 0.6319(4) 0.8172(5) 0.0012(4)
H10 H 0.6171 0.8098 -0.0108
C22 C 0.6488(5) 0.8394(5) -0.0100(3)
H11 H 0.6454 0.8469 -0.0294
C23 C 0.6709(5) 0.8505(4) 0.0078(5)
H12 H 0.6822 0.8653 0.0004
C24 C 0.6171(4) 0.7796(4) 0.0405(6)
C25 C 0.5629(8) 0.6867(9) 0.0848(5)
C26 C 0.5447(4) 0.6623(3) 0.0945(4)
C27 C 0.5201(4) 0.6548(4) 0.0783(3)
H13 H 0.5136 0.6665 0.0626
C28 C 0.5055(3) 0.6298(5) 0.0856(4)
H14 H 0.4890 0.6247 0.0748
C29 C 0.5153(4) 0.6123(3) 0.1092(4)
H15 H 0.5055 0.5955 0.1141
C30 C 0.5398(5) 0.6198(4) 0.1254(3)
C31 C 0.5545(3) 0.6448(4) 0.1180(4)
H16 H 0.5709 0.6499 0.1289
C32 C 0.5503(5) 0.6005(6) 0.1562(4)
C33 C 0.5741(5) 0.7170(5) 0.4123(6)
C34 C 0.5880(3) 0.7280(4) 0.4446(4)
C35 C 0.5784(3) 0.7340(4) 0.4741(5)
H17 H 0.5588 0.7341 0.4782
C36 C 0.5980(6) 0.7396(4) 0.4973(3)
H18 H 0.5915 0.7436 0.5170
C37 C 0.6272(5) 0.7394(4) 0.4910(3)
H19 H 0.6403 0.7432 0.5066
C38 C 0.6368(3) 0.7334(3) 0.4616(4)
C39 C 0.6173(4) 0.7278(3) 0.4384(3)
H20 H 0.6237 0.7238 0.4187
C40 C 0.6727(8) 0.7321(4) 0.4635(6)
C41 C 0.5990(6) 0.8854(7) 0.2815(6)
C42 C 0.6150(4) 0.9021(3) 0.3032(3)
C43 C 0.6044(4) 0.9254(4) 0.3195(4)
H21 H 0.5849 0.9297 0.3190
C44 C 0.6229(6) 0.9424(3) 0.3367(4)
H22 H 0.6159 0.9579 0.3476
C45 C 0.6521(5) 0.9360(4) 0.3375(3)
H23 H 0.6645 0.9473 0.3489
C46 C 0.6626(3) 0.9127(5) 0.3211(4)
C47 C 0.6441(4) 0.8958(3) 0.3040(3)
H24 H 0.6512 0.8802 0.2931
C48 C 0.6935(5) 0.9060(6) 0.3216(5)
C49 C 0.6003(5) 0.8920(8) 0.1912(9)
C50 C 0.6139(3) 0.9094(3) 0.1701(3)
C51 C 0.6034(3) 0.9350(3) 0.1581(4)
H25 H 0.5868 0.9430 0.1660
C52 C 0.6179(4) 0.9485(3) 0.1344(4)
H26 H 0.6109 0.9656 0.1263
C53 C 0.6429(4) 0.9364(4) 0.1226(3)
H27 H 0.6526 0.9455 0.1067
C54 C 0.6533(3) 0.9109(4) 0.1346(3)
C55 C 0.6388(3) 0.8974(3) 0.1584(3)
H28 H 0.6458 0.8803 0.1664
C56 C 0.6811(4) 0.8959(5) 0.1250(4)
C57 C 0.5244(3) 0.7394(6) 0.3475(3)
C58 C 0.5126(4) 0.7699(3) 0.3340(4)
C59 C 0.4861(4) 0.7785(4) 0.3453(3)
H29 H 0.4767 0.7675 0.3599
C60 C 0.4736(3) 0.8037(5) 0.3347(4)
H30 H 0.4559 0.8095 0.3423
C61 C 0.4876(4) 0.8203(3) 0.3129(4)
H31 H 0.4792 0.8371 0.3058
C62 C 0.5141(4) 0.8116(4) 0.3016(3)
C63 C 0.5266(3) 0.7864(4) 0.3121(3)
H32 H 0.5443 0.7806 0.3046
C64 C 0.5339(5) 0.8288(6) 0.2766(5)
C65 C 0.7803(5) 0.8577(6) 0.0834(5)
C66 C 0.8055(4) 0.8430(4) 0.0688(4)
C67 C 0.8204(7) 0.8567(5) 0.0430(7)
H33 H 0.8138 0.8744 0.0359
C68 C 0.8443(5) 0.8443(5) 0.0286(7)
H34 H 0.8515 0.8515 0.0103
C69 C 0.8186(3) 0.8186(3) 0.0785(5)
H35 H 0.8093 0.8093 0.0945
C70 C 0.8015(7) 0.8790(5) 0.3199(4)
C71 C 0.8360(4) 0.8741(5) 0.3232(3)
C72 C 0.8453(5) 0.8453(5) 0.3198(6)
H36 H 0.8316 0.8316 0.3149
C73 C 0.8614(6) 0.8941(5) 0.3315(4)
H37 H 0.8558 0.9132 0.3327
C74 C 0.8906(9) 0.8906(9) 0.3375(12)
H38 H 0.9040 0.9040 0.3439
C75 C 0.5741(6) 0.6098(6) 0.4070(6)
C76 C 0.5630(6) 0.5993(5) 0.4281(6)
H39 H 0.5493 0.6091 0.4395
C77 C 0.5712(5) 0.5712(5) 0.4355(12)
H40 H 0.5585 0.5585 0.4449
C78 C 0.6018(3) 0.6018(3) 0.3957(6)
H41 H 0.6130 0.6130 0.3828
C79 C 0.5640(5) 0.6426(7) 0.3927(6)
C80 C 0.6281(6) 0.6962(5) 0.0294(12)
C81 C 0.6448(4) 0.6779(4) 0.0167(6)
C82 C 0.6407(7) 0.6764(7) -0.0182(5)
H42 H 0.6275 0.6886 -0.0274
C83 C 0.6567(10) 0.6567(10) -0.0373(12)
H43 H 0.6547 0.6547 -0.0584
C84 C 0.6627(3) 0.6627(3) 0.0291(5)
H44 H 0.6650 0.6650 0.0500
C85 C 0.5353(7) 0.5885(8) 0.2381(5)
C86 C 0.5150(4) 0.6602(5) 0.3243(6)
C87 C 0.5260(3) 0.6241(4) 0.2816(4)
H45 H 0.5449 0.6302 0.2795
C88 C 0.5087(4) 0.6358(4) 0.3044(3)
C89 C 0.4805(4) 0.6268(5) 0.3076(4)
H46 H 0.4690 0.6346 0.3228
C90 C 0.4695(3) 0.6060(5) 0.2881(4)
H47 H 0.4506 0.5999 0.2902
C91 C 0.4867(4) 0.5943(4) 0.2653(4)
H48 H 0.4793 0.5804 0.2522
C92 C 0.5149(4) 0.6033(4) 0.2621(4)
C93 C 0.5576(4) 0.7719(4) 0.0933(4)
C94 C 0.5386(3) 0.7957(3) 0.1090(3)
C95 C 0.5156(3) 0.8097(3) 0.0954(2)
H49 H 0.5097 0.8046 0.0758
C96 C 0.5014(3) 0.8315(3) 0.1111(3)
H50 H 0.4860 0.8409 0.1020
C97 C 0.5103(3) 0.8392(3) 0.1403(3)
H51 H 0.5008 0.8537 0.1508
C98 C 0.5333(3) 0.8251(3) 0.1539(2)
C99 C 0.5474(2) 0.8034(3) 0.1382(3)
H52 H 0.5628 0.7940 0.1473
C100 C 0.5430(4) 0.8350(4) 0.1906(4)
O1 O 0.5570(3) 0.8176(3) 0.2696(3)
O2 O 0.5245(3) 0.8509(3) 0.2686(3)
O3 O 0.6061(3) 0.8646(3) 0.2049(3)
O4 O 0.5729(3) 0.8986(2) 0.2063(2)
O5 O 0.5624(2) 0.8206(2) 0.1992(3)
O6 O 0.5290(2) 0.8552(3) 0.1985(3)
O7 O 0.6045(3) 0.8602(3) 0.2729(3)
O8 O 0.5725(4) 0.8952(3) 0.2736(3)
O9 O 0.5799(3) 0.6558(3) 0.3726(3)
O10 O 0.5424(4) 0.6509(3) 0.4020(3)
O11 O 0.5095(3) 0.7292(4) 0.3706(3)
O12 O 0.5489(3) 0.7295(3) 0.3375(4)
O13 O 0.5041(3) 0.6636(3) 0.3499(3)
O14 O 0.5421(3) 0.6687(3) 0.3199(2)
O15 O 0.5868(3) 0.7151(3) 0.3890(3)
O16 O 0.5482(3) 0.7115(3) 0.4205(3)
O17 O 0.7090(4) 0.9226(4) 0.3314(3)
O18 O 0.7012(3) 0.8817(3) 0.3121(3)
O19 O 0.7982(3) 0.9062(3) 0.3293(3)
O20 O 0.7867(4) 0.8605(4) 0.3089(3)
O21 O 0.7579(4) 0.9322(3) 0.2866(3)
O22 O 0.7499(3) 0.8913(4) 0.2638(3)
O23 O 0.7504(3) 0.8963(4) 0.3754(3)
O24 O 0.7413(3) 0.8571(3) 0.3558(3)
O25 O 0.7491(2) 0.8818(3) 0.1536(2)
O26 O 0.7544(2) 0.9187(2) 0.1229(3)
O27 O 0.7715(3) 0.8808(3) 0.0720(3)
O28 O 0.7658(3) 0.8430(3) 0.1032(3)
O29 O 0.7081(3) 0.8748(3) 0.0543(2)
O30 O 0.7039(2) 0.8376(2) 0.0855(3)
O31 O 0.6924(3) 0.9138(3) 0.1077(3)
O32 O 0.6914(3) 0.8744(3) 0.1359(3)
O33 O 0.5775(3) 0.7620(2) 0.1075(3)
O34 O 0.5489(3) 0.7680(4) 0.0671(3)
O35 O 0.6311(3) 0.7032(4) 0.0613(2)
O36 O 0.6029(3) 0.7103(3) 0.0197(3)
O37 O 0.5805(3) 0.6983(4) 0.1005(3)
O38 O 0.5514(3) 0.7020(4) 0.0579(4)
O39 O 0.6297(3) 0.7669(3) 0.0661(3)
O40 O 0.5991(3) 0.7711(3) 0.0271(3)
O41 O 0.7323(2) 0.7759(2) 0.4726(3)
O42 O 0.7266(3) 0.7699(3) 0.4216(3)
O43 O 0.6827(3) 0.7269(3) 0.4358(3)
O44 O 0.6867(3) 0.7339(3) 0.4860(3)
O45 O 0.5363(3) 0.5800(3) 0.1563(2)
O46 O 0.5692(3) 0.6146(3) 0.1671(3)
O47 O 0.5578(4) 0.6038(3) 0.2349(3)
O48 O 0.5248(4) 0.5709(4) 0.2241(4)
Mo1 Mo 0.73269(4) 0.89593(4) 0.08962(4)
Mo2 Mo 0.72644(4) 0.72644(4) 0.42982(5)
Mo3 Mo 0.58126(4) 0.84148(4) 0.23685(4)
Mo4 Mo 0.75319(4) 0.91439(4) 0.32993(4)
Mo5 Mo 0.72808(4) 0.85958(4) 0.11841(4)
Mo6 Mo 0.73173(4) 0.73173(4) 0.47784(5)
Mo7 Mo 0.60273(4) 0.73290(5) 0.08233(4)
Mo8 Mo 0.54885(4) 0.87352(4) 0.23780(4)
Mo9 Mo 0.74421(4) 0.87412(4) 0.31026(4)
Mo10 Mo 0.56246(4) 0.69362(5) 0.35553(4)
Mo11 Mo 0.55356(4) 0.55356(4) 0.19153(6)
Mo12 Mo 0.58440(4) 0.58440(4) 0.20179(6)
Mo13 Mo 0.52619(4) 0.68969(5) 0.38442(4)
Mo14 Mo 0.57525(4) 0.73732(5) 0.04398(4)
C1G C 0.7896(7) 0.7345(5) 0.4439(3)
C2G C 0.8190(3) 0.7347(4) 0.4433(4)
C3G C 0.8378(4) 0.7411(4) 0.4670(3)
H1G H 0.8314 0.7409 0.4871
C4G C 0.8662(4) 0.7479(3) 0.4605(4)
H2G H 0.8788 0.7523 0.4764
C5G C 0.8758(3) 0.7483(4) 0.4304(5)
H3G H 0.8948 0.7528 0.4261
C6G C 0.8570(4) 0.7418(3) 0.4067(3)
C7G C 0.8286(4) 0.7350(3) 0.4131(3)
H4G H 0.8160 0.7306 0.3973
C8G C 0.8673(6) 0.7432(6) 0.3769(7)
C9G C 0.9197(5) 0.7591(5) 0.2596(7)
C10G C 0.9299(4) 0.7676(4) 0.2332(3)
C11G C 0.9149(3) 0.7587(3) 0.2075(5)
H5G H 0.8979 0.7485 0.2097
C12G C 0.9252(4) 0.7650(4) 0.1784(4)
C13G C 0.9506(4) 0.7803(3) 0.1751(3)
H6G H 0.9576 0.7845 0.1557
C14G C 0.9657(3) 0.7892(3) 0.2008(5)
H7G H 0.9827 0.7994 0.1986
C15G C 0.9553(4) 0.7829(4) 0.2299(4)
H8G H 0.9654 0.7889 0.2471
C16G C 0.9074(5) 0.7568(4) 0.1543(7)
C17G C 0.8487(6) 0.6957(6) 0.0566(6)
C18G C 0.8393(4) 0.6761(3) 0.0368(5)
C19G C 0.8171(4) 0.6592(4) 0.0480(3)
H9G H 0.8096 0.6626 0.0674
C20G C 0.8061(3) 0.6371(4) 0.0302(5)
C21G C 0.8172(5) 0.6319(4) 0.0012(4)
H10G H 0.8098 0.6171 -0.0108
C22G C 0.8394(5) 0.6488(5) -0.0100(3)
H11G H 0.8469 0.6454 -0.0294
C23G C 0.8505(4) 0.6709(5) 0.0078(5)
H12G H 0.8653 0.6822 0.0004
C24G C 0.7796(4) 0.6171(4) 0.0405(6)
C25G C 0.6867(9) 0.5629(8) 0.0848(5)
C26G C 0.6623(3) 0.5447(4) 0.0945(4)
C27G C 0.6548(4) 0.5201(4) 0.0783(3)
H13G H 0.6665 0.5136 0.0626
C28G C 0.6298(5) 0.5055(3) 0.0856(4)
H14G H 0.6247 0.4890 0.0748
C29G C 0.6123(3) 0.5153(4) 0.1092(4)
H15G H 0.5955 0.5055 0.1141
C30G C 0.6198(4) 0.5398(5) 0.1254(3)
C31G C 0.6448(4) 0.5545(3) 0.1180(4)
H16G H 0.6499 0.5709 0.1289
C32G C 0.6005(6) 0.5503(5) 0.1562(4)
C33G C 0.7170(5) 0.5741(5) 0.4123(6)
C34G C 0.7280(4) 0.5880(3) 0.4446(4)
C35G C 0.7340(4) 0.5784(3) 0.4741(5)
H17G H 0.7341 0.5588 0.4782
C36G C 0.7396(4) 0.5980(6) 0.4973(3)
H18G H 0.7436 0.5915 0.5170
C37G C 0.7394(4) 0.6272(5) 0.4910(3)
H19G H 0.7432 0.6403 0.5066
C38G C 0.7334(3) 0.6368(3) 0.4616(4)
C39G C 0.7278(3) 0.6173(4) 0.4384(3)
H20G H 0.7238 0.6237 0.4187
C40G C 0.7321(4) 0.6727(8) 0.4635(6)
C41G C 0.8854(7) 0.5990(6) 0.2815(6)
C42G C 0.9021(3) 0.6150(4) 0.3032(3)
C43G C 0.9254(4) 0.6044(4) 0.3195(4)
H21G H 0.9297 0.5849 0.3190
C44G C 0.9424(3) 0.6229(6) 0.3367(4)
H22G H 0.9579 0.6159 0.3476
C45G C 0.9360(4) 0.6521(5) 0.3375(3)
H23G H 0.9473 0.6645 0.3489
C46G C 0.9127(5) 0.6626(3) 0.3211(4)
C47G C 0.8958(3) 0.6441(4) 0.3040(3)
H24G H 0.8802 0.6512 0.2931
C48G C 0.9060(6) 0.6935(5) 0.3216(5)
C49G C 0.8920(8) 0.6003(5) 0.1912(9)
C50G C 0.9094(3) 0.6139(3) 0.1701(3)
C51G C 0.9350(3) 0.6034(3) 0.1581(4)
H25G H 0.9430 0.5868 0.1660
C52G C 0.9485(3) 0.6179(4) 0.1344(4)
H26G H 0.9656 0.6109 0.1263
C53G C 0.9364(4) 0.6429(4) 0.1226(3)
H27G H 0.9455 0.6526 0.1067
C54G C 0.9109(4) 0.6533(3) 0.1346(3)
C55G C 0.8974(3) 0.6388(3) 0.1584(3)
H28G H 0.8803 0.6458 0.1664
C56G C 0.8959(5) 0.6811(4) 0.1250(4)
C57G C 0.7394(6) 0.5244(3) 0.3475(3)
C58G C 0.7699(3) 0.5126(4) 0.3340(4)
C59G C 0.7785(4) 0.4861(4) 0.3453(3)
H29G H 0.7675 0.4767 0.3599
C60G C 0.8037(5) 0.4736(3) 0.3347(4)
H30G H 0.8095 0.4559 0.3423
C61G C 0.8203(3) 0.4876(4) 0.3129(4)
H31G H 0.8371 0.4792 0.3058
C62G C 0.8116(4) 0.5141(4) 0.3016(3)
C63G C 0.7864(4) 0.5266(3) 0.3121(3)
H32G H 0.7806 0.5443 0.3046
C64G C 0.8288(6) 0.5339(5) 0.2766(5)
C65G C 0.8577(6) 0.7803(5) 0.0834(5)
C66G C 0.8430(4) 0.8055(4) 0.0688(4)
C67G C 0.8567(5) 0.8204(7) 0.0430(7)
H33G H 0.8744 0.8138 0.0359
C70G C 0.8790(5) 0.8015(7) 0.3199(4)
C71G C 0.8741(5) 0.8360(4) 0.3232(3)
C73G C 0.8941(5) 0.8614(6) 0.3315(4)
H37G H 0.9132 0.8558 0.3327
C75G C 0.6098(6) 0.5741(6) 0.4070(6)
C76G C 0.5993(5) 0.5630(6) 0.4281(6)
H39G H 0.6091 0.5493 0.4395
C79G C 0.6426(7) 0.5640(5) 0.3927(6)
C80G C 0.6962(5) 0.6281(6) 0.0294(12)
C81G C 0.6779(4) 0.6448(4) 0.0167(6)
C82G C 0.6764(7) 0.6407(7) -0.0182(5)
H42G H 0.6886 0.6275 -0.0274
C85G C 0.5885(8) 0.5353(7) 0.2381(5)
C86G C 0.6602(5) 0.5150(4) 0.3243(6)
C87G C 0.6241(4) 0.5260(3) 0.2816(4)
H45G H 0.6302 0.5449 0.2795
C88G C 0.6358(4) 0.5087(4) 0.3044(3)
C89G C 0.6268(5) 0.4805(4) 0.3076(4)
H46G H 0.6346 0.4690 0.3228
C90G C 0.6060(5) 0.4695(3) 0.2881(4)
H47G H 0.5999 0.4506 0.2902
C91G C 0.5943(4) 0.4867(4) 0.2653(4)
H48G H 0.5804 0.4793 0.2522
C92G C 0.6033(4) 0.5149(4) 0.2621(4)
C93G C 0.7719(4) 0.5576(4) 0.0933(4)
C94G C 0.7957(3) 0.5386(3) 0.1090(3)
C95G C 0.8097(3) 0.5156(3) 0.0954(2)
H49G H 0.8046 0.5097 0.0758
C96G C 0.8315(3) 0.5014(3) 0.1111(3)
H50G H 0.8409 0.4860 0.1020
C97G C 0.8392(3) 0.5103(3) 0.1403(3)
H51G H 0.8537 0.5008 0.1508
C98G C 0.8251(3) 0.5333(3) 0.1539(2)
C99G C 0.8034(3) 0.5474(2) 0.1382(3)
H52G H 0.7940 0.5628 0.1473
C100G C 0.8350(4) 0.5430(4) 0.1906(4)
O1G O 0.8176(3) 0.5570(3) 0.2696(3)
O2G O 0.8509(3) 0.5245(3) 0.2686(3)
O3G O 0.8646(3) 0.6061(3) 0.2049(3)
O4G O 0.8986(2) 0.5729(3) 0.2063(2)
O5G O 0.8206(2) 0.5624(2) 0.1992(3)
O6G O 0.8552(3) 0.5290(2) 0.1985(3)
O7G O 0.8602(3) 0.6045(3) 0.2729(3)
O8G O 0.8952(3) 0.5725(4) 0.2736(3)
O9G O 0.6558(3) 0.5799(3) 0.3726(3)
O10G O 0.6509(3) 0.5424(4) 0.4020(3)
O11G O 0.7292(4) 0.5095(3) 0.3706(3)
O12G O 0.7295(3) 0.5489(3) 0.3375(4)
O13G O 0.6636(3) 0.5041(3) 0.3499(3)
O14G O 0.6687(3) 0.5421(3) 0.3199(2)
O15G O 0.7151(3) 0.5868(3) 0.3890(3)
O16G O 0.7115(3) 0.5482(3) 0.4205(3)
O17G O 0.9226(4) 0.7090(4) 0.3314(3)
O18G O 0.8817(3) 0.7012(3) 0.3121(3)
O19G O 0.9062(3) 0.7982(3) 0.3293(3)
O20G O 0.8605(4) 0.7867(4) 0.3089(3)
O21G O 0.9322(3) 0.7579(4) 0.2866(3)
O22G O 0.8913(4) 0.7499(3) 0.2638(3)
O23G O 0.8963(4) 0.7504(3) 0.3754(3)
O24G O 0.8571(3) 0.7413(3) 0.3558(3)
O25G O 0.8818(3) 0.7491(2) 0.1536(2)
O26G O 0.9187(2) 0.7544(2) 0.1229(3)
O27G O 0.8808(3) 0.7715(3) 0.0720(3)
O28G O 0.8430(3) 0.7658(3) 0.1032(3)
O29G O 0.8748(3) 0.7081(3) 0.0543(2)
O30G O 0.8376(2) 0.7039(2) 0.0855(3)
O31G O 0.9138(3) 0.6924(3) 0.1077(3)
O32G O 0.8744(3) 0.6914(3) 0.1359(3)
O33G O 0.7620(2) 0.5775(3) 0.1075(3)
O34G O 0.7680(4) 0.5489(3) 0.0671(3)
O35G O 0.7032(4) 0.6311(3) 0.0613(2)
O36G O 0.7103(3) 0.6029(3) 0.0197(3)
O37G O 0.6983(4) 0.5805(3) 0.1005(3)
O38G O 0.7020(4) 0.5514(3) 0.0579(4)
O39G O 0.7669(3) 0.6297(3) 0.0661(3)
O40G O 0.7711(3) 0.5991(3) 0.0271(3)
O41G O 0.7759(2) 0.7323(2) 0.4726(3)
O42G O 0.7699(3) 0.7266(3) 0.4216(3)
O43G O 0.7269(3) 0.6827(3) 0.4358(3)
O44G O 0.7339(3) 0.6867(3) 0.4860(3)
O45G O 0.5800(3) 0.5363(3) 0.1563(2)
O46G O 0.6146(3) 0.5692(3) 0.1671(3)
O47G O 0.6038(3) 0.5578(4) 0.2349(3)
O48G O 0.5709(4) 0.5248(4) 0.2241(4)
Mo1G Mo 0.89593(4) 0.73269(4) 0.08962(4)
Mo3G Mo 0.84148(4) 0.58126(4) 0.23685(4)
Mo4G Mo 0.91439(4) 0.75319(4) 0.32993(4)
Mo5G Mo 0.85958(4) 0.72808(4) 0.11841(4)
Mo7G Mo 0.73290(5) 0.60273(4) 0.08233(4)
Mo8G Mo 0.87352(4) 0.54885(4) 0.23780(4)
Mo9G Mo 0.87412(4) 0.74421(4) 0.31026(4)
Mo10G Mo 0.69362(5) 0.56246(4) 0.35553(4)
Mo13G Mo 0.68969(5) 0.52619(4) 0.38442(4)
Mo14G Mo 0.73732(5) 0.57525(4) 0.04398(4)
loop_
_geom_bond_atom_site_label_1
_geom_bond_atom_site_label_2
_geom_bond_site_symmetry_1
_geom_bond_site_symmetry_2
C1 C2 1_555 1_555
C2 C3 1_555 1_555
C3 H1 1_555 1_555
C4 C3 1_555 1_555
H2 C4 1_555 1_555
C5 C4 1_555 1_555
H3 C5 1_555 1_555
C6 C5 1_555 1_555
C7 C2 1_555 1_555
H4 C7 1_555 1_555
C8 C6 1_555 1_555
C9 C10 1_555 1_555
C10 C11 1_555 1_555
C11 H5 1_555 1_555
C12 C11 1_555 1_555
C13 C12 1_555 1_555
H6 C13 1_555 1_555
C14 C13 1_555 1_555
H7 C14 1_555 1_555
C15 C10 1_555 1_555
H8 C15 1_555 1_555
C16 C12 1_555 1_555
C17 C18 1_555 1_555
C18 C19 1_555 1_555
C19 H9 1_555 1_555
C20 C19 1_555 1_555
C21 C20 1_555 1_555
H10 C21 1_555 1_555
C22 C21 1_555 1_555
H11 C22 1_555 1_555
C23 C18 1_555 1_555
H12 C23 1_555 1_555
C24 C20 1_555 1_555
C25 C26 1_555 1_555
C26 C27 1_555 1_555
C27 H13 1_555 1_555
C28 C27 1_555 1_555
H14 C28 1_555 1_555
C29 C28 1_555 1_555
H15 C29 1_555 1_555
C30 C29 1_555 1_555
C31 C26 1_555 1_555
H16 C31 1_555 1_555
C32 C30 1_555 1_555
C33 C34 1_555 1_555
C34 C35 1_555 1_555
C35 H17 1_555 1_555
C36 C35 1_555 1_555
H18 C36 1_555 1_555
C37 C36 1_555 1_555
H19 C37 1_555 1_555
C38 C37 1_555 1_555
C39 C34 1_555 1_555
H20 C39 1_555 1_555
C40 C38 1_555 1_555
C41 C42 1_555 1_555
C42 C43 1_555 1_555
C43 H21 1_555 1_555
C44 C43 1_555 1_555
H22 C44 1_555 1_555
C45 C44 1_555 1_555
H23 C45 1_555 1_555
C46 C45 1_555 1_555
C47 C42 1_555 1_555
H24 C47 1_555 1_555
C48 C46 1_555 1_555
C49 C50 1_555 1_555
C50 C51 1_555 1_555
C51 H25 1_555 1_555
C52 C51 1_555 1_555
H26 C52 1_555 1_555
C53 C52 1_555 1_555
H27 C53 1_555 1_555
C54 C53 1_555 1_555
C55 C50 1_555 1_555
H28 C55 1_555 1_555
C56 C54 1_555 1_555
C57 C58 1_555 1_555
C58 C59 1_555 1_555
C59 H29 1_555 1_555
C60 C59 1_555 1_555
H30 C60 1_555 1_555
C61 C60 1_555 1_555
H31 C61 1_555 1_555
C62 C61 1_555 1_555
C63 C58 1_555 1_555
H32 C63 1_555 1_555
C64 C62 1_555 1_555
C65 C66 1_555 1_555
C66 C67 1_555 1_555
C67 H33 1_555 1_555
C68 C67 1_555 1_555
H34 C68 1_555 1_555
C69 C66 1_555 1_555
H35 C69 1_555 1_555
C70 C71 1_555 1_555
C71 C72 1_555 1_555
C72 H36 1_555 1_555
C73 C71 1_555 1_555
H37 C73 1_555 1_555
C74 C73 1_555 1_555
H38 C74 1_555 1_555
C75 C76 1_555 1_555
C76 H39 1_555 1_555
C77 C76 1_555 1_555
H40 C77 1_555 1_555
C78 C75 1_555 1_555
H41 C78 1_555 1_555
C79 C75 1_555 1_555
C80 C81 1_555 1_555
C81 C82 1_555 1_555
C82 H42 1_555 1_555
C83 C82 1_555 1_555
H43 C83 1_555 1_555
C84 C81 1_555 1_555
H44 C84 1_555 1_555
C85 C92 1_555 1_555
C86 C88 1_555 1_555
C87 H45 1_555 1_555
C88 C87 1_555 1_555
C89 C88 1_555 1_555
H46 C89 1_555 1_555
C90 C89 1_555 1_555
H47 C90 1_555 1_555
C91 C90 1_555 1_555
H48 C91 1_555 1_555
C92 C87 1_555 1_555
C93 C94 1_555 1_555
C94 C95 1_555 1_555
C95 H49 1_555 1_555
C96 C95 1_555 1_555
H50 C96 1_555 1_555
C97 C96 1_555 1_555
H51 C97 1_555 1_555
C98 C97 1_555 1_555
C99 C94 1_555 1_555
H52 C99 1_555 1_555
C100 C98 1_555 1_555
O1 C64 1_555 1_555
O2 C64 1_555 1_555
O3 C49 1_555 1_555
O4 C49 1_555 1_555
O5 C100 1_555 1_555
O6 C100 1_555 1_555
O7 C41 1_555 1_555
O8 C41 1_555 1_555
O9 C79 1_555 1_555
O10 C79 1_555 1_555
O11 C57 1_555 1_555
O12 C57 1_555 1_555
O13 C86 1_555 1_555
O14 C86 1_555 1_555
O15 C33 1_555 1_555
O16 C33 1_555 1_555
O17 C48 1_555 1_555
O18 C48 1_555 1_555
O19 C70 1_555 1_555
O20 C70 1_555 1_555
O21 C9 1_555 1_555
O22 C9 1_555 1_555
O23 C8 1_555 1_555
O24 C8 1_555 1_555
O25 C16 1_555 1_555
O26 C16 1_555 1_555
O27 C65 1_555 1_555
O28 C65 1_555 1_555
O29 C17 1_555 1_555
O30 C17 1_555 1_555
O31 C56 1_555 1_555
O32 C56 1_555 1_555
O33 C93 1_555 1_555
O34 C93 1_555 1_555
O35 C80 1_555 1_555
O36 C80 1_555 1_555
O37 C25 1_555 1_555
O38 C25 1_555 1_555
O39 C24 1_555 1_555
O40 C24 1_555 1_555
O41 C1 1_555 1_555
O42 C1 1_555 1_555
O43 C40 1_555 1_555
O44 C40 1_555 1_555
O45 C32 1_555 1_555
O46 C32 1_555 1_555
O47 C85 1_555 1_555
O48 C85 1_555 1_555
Mo1 O26 1_555 1_555
Mo2 O42 1_555 1_555
Mo3 O1 1_555 1_555
Mo4 O17 1_555 1_555
Mo5 O25 1_555 1_555
Mo6 O41 1_555 1_555
Mo7 O33 1_555 1_555
Mo8 O2 1_555 1_555
Mo9 O18 1_555 1_555
Mo10 O9 1_555 1_555
Mo11 O45 1_555 1_555
Mo12 O46 1_555 1_555
Mo13 O10 1_555 1_555
Mo14 O34 1_555 1_555
C1G C2G 1_555 1_555
C2G C3G 1_555 1_555
C3G H1G 1_555 1_555
C4G C3G 1_555 1_555
H2G C4G 1_555 1_555
C5G C4G 1_555 1_555
H3G C5G 1_555 1_555
C6G C5G 1_555 1_555
C7G C2G 1_555 1_555
H4G C7G 1_555 1_555
C8G C6G 1_555 1_555
C9G C10G 1_555 1_555
C10G C11G 1_555 1_555
C11G H5G 1_555 1_555
C12G C11G 1_555 1_555
C13G C12G 1_555 1_555
H6G C13G 1_555 1_555
C14G C13G 1_555 1_555
H7G C14G 1_555 1_555
C15G C10G 1_555 1_555
H8G C15G 1_555 1_555
C16G C12G 1_555 1_555
C17G C18G 1_555 1_555
C18G C19G 1_555 1_555
C19G H9G 1_555 1_555
C20G C19G 1_555 1_555
C21G C20G 1_555 1_555
H10G C21G 1_555 1_555
C22G C21G 1_555 1_555
H11G C22G 1_555 1_555
C23G C18G 1_555 1_555
H12G C23G 1_555 1_555
C24G C20G 1_555 1_555
C25G C26G 1_555 1_555
C26G C27G 1_555 1_555
C27G H13G 1_555 1_555
C28G C27G 1_555 1_555
H14G C28G 1_555 1_555
C29G C28G 1_555 1_555
H15G C29G 1_555 1_555
C30G C29G 1_555 1_555
C31G C26G 1_555 1_555
H16G C31G 1_555 1_555
C32G C30G 1_555 1_555
C33G C34G 1_555 1_555
C34G C35G 1_555 1_555
C35G H17G 1_555 1_555
C36G C35G 1_555 1_555
H18G C36G 1_555 1_555
C37G C36G 1_555 1_555
H19G C37G 1_555 1_555
C38G C37G 1_555 1_555
C39G C34G 1_555 1_555
H20G C39G 1_555 1_555
C40G C38G 1_555 1_555
C41G C42G 1_555 1_555
C42G C43G 1_555 1_555
C43G H21G 1_555 1_555
C44G C43G 1_555 1_555
H22G C44G 1_555 1_555
C45G C44G 1_555 1_555
H23G C45G 1_555 1_555
C46G C45G 1_555 1_555
C47G C42G 1_555 1_555
H24G C47G 1_555 1_555
C48G C46G 1_555 1_555
C49G C50G 1_555 1_555
C50G C51G 1_555 1_555
C51G H25G 1_555 1_555
C52G C51G 1_555 1_555
H26G C52G 1_555 1_555
C53G C52G 1_555 1_555
H27G C53G 1_555 1_555
C54G C53G 1_555 1_555
C55G C50G 1_555 1_555
H28G C55G 1_555 1_555
C56G C54G 1_555 1_555
C57G C58G 1_555 1_555
C58G C59G 1_555 1_555
C59G H29G 1_555 1_555
C60G C59G 1_555 1_555
H30G C60G 1_555 1_555
C61G C60G 1_555 1_555
H31G C61G 1_555 1_555
C62G C61G 1_555 1_555
C63G C58G 1_555 1_555
H32G C63G 1_555 1_555
C64G C62G 1_555 1_555
C65G C66G 1_555 1_555
C66G C69 1_555 1_555
C67G C68 1_555 1_555
H33G C67G 1_555 1_555
C70G C71G 1_555 1_555
C71G C72 1_555 1_555
C73G C74 1_555 1_555
H37G C73G 1_555 1_555
C75G C78 1_555 1_555
C76G C77 1_555 1_555
H39G C76G 1_555 1_555
C79G C75G 1_555 1_555
C80G C81G 1_555 1_555
C81G C84 1_555 1_555
C82G C83 1_555 1_555
H42G C82G 1_555 1_555
C85G C92G 1_555 1_555
C86G C88G 1_555 1_555
C87G H45G 1_555 1_555
C88G C87G 1_555 1_555
C89G C88G 1_555 1_555
H46G C89G 1_555 1_555
C90G C89G 1_555 1_555
H47G C90G 1_555 1_555
C91G C90G 1_555 1_555
H48G C91G 1_555 1_555
C92G C87G 1_555 1_555
C93G C94G 1_555 1_555
C94G C95G 1_555 1_555
C95G H49G 1_555 1_555
C96G C95G 1_555 1_555
H50G C96G 1_555 1_555
C97G C96G 1_555 1_555
H51G C97G 1_555 1_555
C98G C97G 1_555 1_555
C99G C94G 1_555 1_555
H52G C99G 1_555 1_555
C100G C98G 1_555 1_555
O1G C64G 1_555 1_555
O2G C64G 1_555 1_555
O3G C49G 1_555 1_555
O4G C49G 1_555 1_555
O5G C100G 1_555 1_555
O6G C100G 1_555 1_555
O7G C41G 1_555 1_555
O8G C41G 1_555 1_555
O9G C79G 1_555 1_555
O10G C79G 1_555 1_555
O11G C57G 1_555 1_555
O12G C57G 1_555 1_555
O13G C86G 1_555 1_555
O14G C86G 1_555 1_555
O15G C33G 1_555 1_555
O16G C33G 1_555 1_555
O17G C48G 1_555 1_555
O18G C48G 1_555 1_555
O19G C70G 1_555 1_555
O20G C70G 1_555 1_555
O21G C9G 1_555 1_555
O22G C9G 1_555 1_555
O23G C8G 1_555 1_555
O24G C8G 1_555 1_555
O25G C16G 1_555 1_555
O26G C16G 1_555 1_555
O27G C65G 1_555 1_555
O28G C65G 1_555 1_555
O29G C17G 1_555 1_555
O30G C17G 1_555 1_555
O31G C56G 1_555 1_555
O32G C56G 1_555 1_555
O33G C93G 1_555 1_555
O34G C93G 1_555 1_555
O35G C80G 1_555 1_555
O36G C80G 1_555 1_555
O37G C25G 1_555 1_555
O38G C25G 1_555 1_555
O39G C24G 1_555 1_555
O40G C24G 1_555 1_555
O41G Mo6 1_555 1_555
O42G Mo2 1_555 1_555
O43G Mo2 1_555 1_555
O44G Mo6 1_555 1_555
O45G Mo11 1_555 1_555
O46G Mo12 1_555 1_555
O47G Mo12 1_555 1_555
O48G Mo11 1_555 1_555
Mo1G O26G 1_555 1_555
Mo3G O1G 1_555 1_555
Mo4G O17G 1_555 1_555
Mo5G O25G 1_555 1_555
Mo7G O33G 1_555 1_555
Mo8G O2G 1_555 1_555
Mo9G O18G 1_555 1_555
Mo10G O9G 1_555 1_555
Mo13G O10G 1_555 1_555
Mo14G O34G 1_555 1_555
C6 C7 1_555 1_555
C14 C15 1_555 1_555
C22 C23 1_555 1_555
C30 C31 1_555 1_555
C38 C39 1_555 1_555
C46 C47 1_555 1_555
C54 C55 1_555 1_555
C62 C63 1_555 1_555
C91 C92 1_555 1_555
C98 C99 1_555 1_555
O3 Mo3 1_555 1_555
O4 Mo8 1_555 1_555
O5 Mo3 1_555 1_555
O6 Mo8 1_555 1_555
O7 Mo3 1_555 1_555
O8 Mo8 1_555 1_555
O11 Mo13 1_555 1_555
O12 Mo10 1_555 1_555
O13 Mo13 1_555 1_555
O14 Mo10 1_555 1_555
O15 Mo10 1_555 1_555
O16 Mo13 1_555 1_555
O19 Mo4 1_555 1_555
O20 Mo9 1_555 1_555
O21 Mo4 1_555 1_555
O22 Mo9 1_555 1_555
O23 Mo4 1_555 1_555
O24 Mo9 1_555 1_555
O27 Mo1 1_555 1_555
O28 Mo5 1_555 1_555
O29 Mo1 1_555 1_555
O30 Mo5 1_555 1_555
O31 Mo1 1_555 1_555
O32 Mo5 1_555 1_555
O35 Mo7 1_555 1_555
O36 Mo14 1_555 1_555
O37 Mo7 1_555 1_555
O38 Mo14 1_555 1_555
O39 Mo7 1_555 1_555
O40 Mo14 1_555 1_555
O43 Mo2 1_555 1_555
O44 Mo6 1_555 1_555
O47 Mo12 1_555 1_555
O48 Mo11 1_555 1_555
Mo1 Mo5 1_555 1_555
Mo2 Mo6 1_555 1_555
Mo3 Mo8 1_555 1_555
Mo4 Mo9 1_555 1_555
Mo7 Mo14 1_555 1_555
Mo10 Mo13 1_555 1_555
Mo11 Mo12 1_555 1_555
C1G O41G 1_555 1_555
C1G O42G 1_555 1_555
C6G C7G 1_555 1_555
C14G C15G 1_555 1_555
C22G C23G 1_555 1_555
C30G C31G 1_555 1_555
C32G O45G 1_555 1_555
C32G O46G 1_555 1_555
C38G C39G 1_555 1_555
C40G O43G 1_555 1_555
C40G O44G 1_555 1_555
C46G C47G 1_555 1_555
C54G C55G 1_555 1_555
C62G C63G 1_555 1_555
C66G C67G 1_555 1_555
C71G C73G 1_555 1_555
C75G C76G 1_555 1_555
C81G C82G 1_555 1_555
C85G O47G 1_555 1_555
C85G O48G 1_555 1_555
C91G C92G 1_555 1_555
C98G C99G 1_555 1_555
O3G Mo3G 1_555 1_555
O4G Mo8G 1_555 1_555
O5G Mo3G 1_555 1_555
O6G Mo8G 1_555 1_555
O7G Mo3G 1_555 1_555
O8G Mo8G 1_555 1_555
O11G Mo13G 1_555 1_555
O12G Mo10G 1_555 1_555
O13G Mo13G 1_555 1_555
O14G Mo10G 1_555 1_555
O15G Mo10G 1_555 1_555
O16G Mo13G 1_555 1_555
O19G Mo4G 1_555 1_555
O20G Mo9G 1_555 1_555
O21G Mo4G 1_555 1_555
O22G Mo9G 1_555 1_555
O23G Mo4G 1_555 1_555
O24G Mo9G 1_555 1_555
O27G Mo1G 1_555 1_555
O28G Mo5G 1_555 1_555
O29G Mo1G 1_555 1_555
O30G Mo5G 1_555 1_555
O31G Mo1G 1_555 1_555
O32G Mo5G 1_555 1_555
O35G Mo7G 1_555 1_555
O36G Mo14G 1_555 1_555
O37G Mo7G 1_555 1_555
O38G Mo14G 1_555 1_555
O39G Mo7G 1_555 1_555
O40G Mo14G 1_555 1_555
Mo1G Mo5G 1_555 1_555
Mo3G Mo8G 1_555 1_555
Mo4G Mo9G 1_555 1_555
Mo7G Mo14G 1_555 1_555
Mo10G Mo13G 1_555 1_555

#END
