# generated using pymatgen
data_Dy21H324C334N70Cl7O85F21
_symmetry_space_group_name_H-M   'P 1'
_cell_length_a   28.63300000
_cell_length_b   29.97000000
_cell_length_c   33.07500000
_cell_angle_alpha   111.74800000
_cell_angle_beta   97.58800000
_cell_angle_gamma   108.63100000
_symmetry_Int_Tables_number   1
_chemical_formula_structural   Dy21H324C334N70Cl7O85F21
_chemical_formula_sum   'Dy42 H648 C668 N140 Cl14 O170 F42'
_cell_volume   23948.49462988
_cell_formula_units_Z   2
loop_
 _symmetry_equiv_pos_site_id
 _symmetry_equiv_pos_as_xyz
  1  'x, y, z'
loop_
 _atom_site_type_symbol
 _atom_site_label
 _atom_site_symmetry_multiplicity
 _atom_site_fract_x
 _atom_site_fract_y
 _atom_site_fract_z
 _atom_site_occupancy
  Dy  Dy1  1  0.206360  0.952990  0.321350  1
  Dy  Dy2  1  0.793640  0.047010  0.678650  1
  Dy  Dy3  1  0.348390  0.845990  0.006000  1
  Dy  Dy4  1  0.651610  0.154010  0.994000  1
  Dy  Dy5  1  0.267790  0.897730  0.540210  1
  Dy  Dy6  1  0.732210  0.102270  0.459790  1
  Dy  Dy7  1  0.218090  0.337980  0.356580  1
  Dy  Dy8  1  0.781910  0.662020  0.643420  1
  Dy  Dy9  1  0.229970  0.816990  0.044900  1
  Dy  Dy10  1  0.770030  0.183010  0.955100  1
  Dy  Dy11  1  0.092050  0.461280  0.377250  1
  Dy  Dy12  1  0.907950  0.538720  0.622750  1
  Dy  Dy13  1  0.377070  0.996200  0.213170  1
  Dy  Dy14  1  0.622930  0.003800  0.786830  1
  Dy  Dy15  1  0.390560  0.735660  0.946070  1
  Dy  Dy16  1  0.609440  0.264340  0.053930  1
  Dy  Dy17  1  0.254830  0.681650  0.545650  1
  Dy  Dy18  1  0.745170  0.318350  0.454350  1
  Dy  Dy19  1  0.146500  0.779350  0.465750  1
  Dy  Dy20  1  0.853500  0.220650  0.534250  1
  Dy  Dy21  1  0.091200  0.231190  0.143320  1
  Dy  Dy22  1  0.908800  0.768810  0.856680  1
  Dy  Dy23  1  0.342950  0.978820  0.485590  1
  Dy  Dy24  1  0.657050  0.021180  0.514410  1
  Dy  Dy25  1  0.185110  0.531750  0.493590  1
  Dy  Dy26  1  0.814890  0.468250  0.506410  1
  Dy  Dy27  1  0.333200  0.491920  0.845110  1
  Dy  Dy28  1  0.666800  0.508080  0.154890  1
  Dy  Dy29  1  0.348890  0.396840  0.891290  1
  Dy  Dy30  1  0.651110  0.603160  0.108710  1
  Dy  Dy31  1  0.260210  0.206250  0.065960  1
  Dy  Dy32  1  0.739790  0.793750  0.934040  1
  Dy  Dy33  1  0.220250  0.527530  0.857210  1
  Dy  Dy34  1  0.779750  0.472470  0.142790  1
  Dy  Dy35  1  0.332560  0.039940  0.319490  1
  Dy  Dy36  1  0.667440  0.960060  0.680510  1
  Dy  Dy37  1  0.175030  0.227020  0.237700  1
  Dy  Dy38  1  0.824970  0.772980  0.762300  1
  Dy  Dy39  1  0.254390  0.216640  0.954240  1
  Dy  Dy40  1  0.745610  0.783360  0.045760  1
  Dy  Dy41  1  0.163010  0.270140  0.919170  1
  Dy  Dy42  1  0.836990  0.729860  0.080830  1
  H  H43  1  0.169500  0.777700  0.559800  1
  H  H44  1  0.830500  0.222300  0.440200  1
  H  H45  1  0.157400  0.794500  0.642200  1
  H  H46  1  0.842600  0.205500  0.357800  1
  H  H47  1  0.174700  0.778800  0.705100  1
  H  H48  1  0.825300  0.221200  0.294900  1
  H  H49  1  0.219200  0.741200  0.748500  1
  H  H50  1  0.780800  0.258800  0.251500  1
  H  H51  1  0.272100  0.685800  0.407500  1
  H  H52  1  0.727900  0.314200  0.592500  1
  H  H53  1  0.238100  0.811800  0.410100  1
  H  H54  1  0.761900  0.188200  0.589900  1
  H  H55  1  0.255200  0.874200  0.433400  1
  H  H56  1  0.744800  0.125800  0.566600  1
  H  H57  1  0.183800  0.830900  0.368900  1
  H  H58  1  0.816200  0.169100  0.631100  1
  H  H59  1  0.173100  0.865900  0.413600  1
  H  H60  1  0.826900  0.134100  0.586400  1
  H  H61  1  0.251300  0.670800  0.330100  1
  H  H62  1  0.748700  0.329200  0.669900  1
  H  H63  1  0.140700  0.753600  0.328600  1
  H  H64  1  0.859300  0.246400  0.671400  1
  H  H65  1  0.099800  0.714200  0.341300  1
  H  H66  1  0.900200  0.285800  0.658700  1
  H  H67  1  0.265000  0.692500  0.746700  1
  H  H68  1  0.735000  0.307500  0.253300  1
  H  H69  1  0.293900  0.657500  0.684300  1
  H  H70  1  0.706100  0.342500  0.315700  1
  H  H71  1  0.063500  0.776600  0.350900  1
  H  H72  1  0.936500  0.223400  0.649100  1
  H  H73  1  0.191300  0.700000  0.308100  1
  H  H74  1  0.808700  0.300000  0.691900  1
  H  H75  1  0.108200  0.869600  0.428700  1
  H  H76  1  0.891800  0.130400  0.571300  1
  H  H77  1  0.047600  0.834700  0.413300  1
  H  H78  1  0.952400  0.165300  0.586700  1
  H  H79  1  0.479500  0.033500  0.446900  1
  H  H80  1  0.520500  0.966500  0.553100  1
  H  H81  1  0.251400  0.024700  0.229400  1
  H  H82  1  0.748600  0.975300  0.770600  1
  H  H83  1  0.285800  0.042600  0.199200  1
  H  H84  1  0.714200  0.957400  0.800800  1
  H  H85  1  0.366100  0.178400  0.331700  1
  H  H86  1  0.633900  0.821600  0.668300  1
  H  H87  1  0.318700  0.186300  0.349500  1
  H  H88  1  0.681300  0.813700  0.650500  1
  H  H89  1  0.379900  0.774800  0.476900  1
  H  H90  1  0.620100  0.225200  0.523100  1
  H  H91  1  0.511400  0.963500  0.434200  1
  H  H92  1  0.488600  0.036500  0.565800  1
  H  H93  1  0.325300  0.817100  0.498700  1
  H  H94  1  0.674700  0.182900  0.501300  1
  H  H95  1  0.224600  0.067800  0.285500  1
  H  H96  1  0.775400  0.932200  0.714500  1
  H  H97  1  0.240700  0.127900  0.320300  1
  H  H98  1  0.759300  0.872100  0.679700  1
  H  H99  1  0.336000  0.123100  0.261800  1
  H  H100  1  0.664000  0.876900  0.738200  1
  H  H101  1  0.277000  0.115000  0.252000  1
  H  H102  1  0.723000  0.885000  0.748000  1
  H  H103  1  0.451000  0.811000  0.457400  1
  H  H104  1  0.549000  0.189000  0.542600  1
  H  H105  1  0.269100  0.111500  0.382000  1
  H  H106  1  0.730900  0.888500  0.618000  1
  H  H107  1  0.210200  0.072000  0.355600  1
  H  H108  1  0.789800  0.928000  0.644400  1
  H  H109  1  0.422400  0.247800  0.495600  1
  H  H110  1  0.577600  0.752200  0.504400  1
  H  H111  1  0.501300  0.882400  0.437700  1
  H  H112  1  0.498700  0.117600  0.562300  1
  H  H113  1  0.379400  0.247300  0.430200  1
  H  H114  1  0.620600  0.752700  0.569800  1
  H  H115  1  0.439200  0.176400  0.492200  1
  H  H116  1  0.560800  0.823600  0.507800  1
  H  H117  1  0.417700  0.137700  0.343500  1
  H  H118  1  0.582300  0.862300  0.656500  1
  H  H119  1  0.412700  0.106600  0.298000  1
  H  H120  1  0.587300  0.893400  0.702000  1
  H  H121  1  0.105400  0.594500  0.504300  1
  H  H122  1  0.894600  0.405500  0.495700  1
  H  H123  1  0.135900  0.648300  0.549400  1
  H  H124  1  0.864100  0.351700  0.450600  1
  H  H125  1  0.045400  0.412300  0.457100  1
  H  H126  1  0.954600  0.587700  0.542900  1
  H  H127  1  0.053200  0.514800  0.492500  1
  H  H128  1  0.946800  0.485200  0.507500  1
  H  H129  1  0.041200  0.481200  0.520600  1
  H  H130  1  0.958800  0.518800  0.479400  1
  H  H131  1  0.145400  0.602800  0.591300  1
  H  H132  1  0.854600  0.397200  0.408700  1
  H  H133  1  0.085700  0.582400  0.566300  1
  H  H134  1  0.914300  0.417600  0.433700  1
  H  H135  1  0.340300  0.455200  0.473100  1
  H  H136  1  0.659700  0.544800  0.526900  1
  H  H137  1  0.093100  0.495800  0.580500  1
  H  H138  1  0.906900  0.504200  0.419500  1
  H  H139  1  0.151100  0.538400  0.601200  1
  H  H140  1  0.848900  0.461600  0.398800  1
  H  H141  1  0.202100  0.370200  0.520900  1
  H  H142  1  0.797900  0.629800  0.479100  1
  H  H143  1  0.114600  0.427300  0.592000  1
  H  H144  1  0.885400  0.572700  0.408000  1
  H  H145  1  0.151400  0.367400  0.568500  1
  H  H146  1  0.848600  0.632600  0.431500  1
  H  H147  1  0.270500  0.310800  0.218800  1
  H  H148  1  0.729500  0.689200  0.781200  1
  H  H149  1  0.411200  0.485000  0.435600  1
  H  H150  1  0.588800  0.515000  0.564400  1
  H  H151  1  0.436300  0.474100  0.369400  1
  H  H152  1  0.563700  0.525900  0.630600  1
  H  H153  1  0.412900  0.432900  0.286200  1
  H  H154  1  0.587100  0.567100  0.713800  1
  H  H155  1  0.346200  0.376200  0.217200  1
  H  H156  1  0.653800  0.623800  0.782800  1
  H  H157  1  0.320200  0.907500  0.910400  1
  H  H158  1  0.679800  0.092500  0.089600  1
  H  H159  1  0.369300  0.893800  0.917600  1
  H  H160  1  0.630700  0.106200  0.082400  1
  H  H161  1  0.372800  0.004100  0.954000  1
  H  H162  1  0.627200  0.995900  0.046000  1
  H  H163  1  0.260300  0.752800  0.911900  1
  H  H164  1  0.739700  0.247200  0.088100  1
  H  H165  1  0.289700  0.728500  0.877500  1
  H  H166  1  0.710300  0.271500  0.122500  1
  H  H167  1  0.232000  0.818000  0.922400  1
  H  H168  1  0.768000  0.182000  0.077600  1
  H  H169  1  0.249600  0.872100  0.918600  1
  H  H170  1  0.750400  0.127900  0.081400  1
  H  H171  1  0.431900  0.055800  0.091600  1
  H  H172  1  0.568100  0.944200  0.908400  1
  H  H173  1  0.335800  0.811500  0.882300  1
  H  H174  1  0.664200  0.188500  0.117700  1
  H  H175  1  0.275200  0.796600  0.866400  1
  H  H176  1  0.724800  0.203400  0.133600  1
  H  H177  1  0.415800  0.075100  0.031400  1
  H  H178  1  0.584200  0.924900  0.968600  1
  H  H179  1  0.246200  0.910300  0.995200  1
  H  H180  1  0.753800  0.089700  0.004800  1
  H  H181  1  0.365800  0.948600  0.339700  1
  H  H182  1  0.634200  0.051400  0.660300  1
  H  H183  1  0.406600  0.900400  0.353800  1
  H  H184  1  0.593400  0.099600  0.646200  1
  H  H185  1  0.503600  0.980600  0.165200  1
  H  H186  1  0.496400  0.019400  0.834800  1
  H  H187  1  0.479500  0.897800  0.329900  1
  H  H188  1  0.520500  0.102200  0.670100  1
  H  H189  1  0.536700  0.931800  0.218400  1
  H  H190  1  0.463300  0.068200  0.781600  1
  H  H191  1  0.528800  0.913800  0.278200  1
  H  H192  1  0.471200  0.086200  0.721800  1
  H  H193  1  0.963700  0.425900  0.249400  1
  H  H194  1  0.036300  0.574100  0.750600  1
  H  H195  1  0.932700  0.363600  0.225100  1
  H  H196  1  0.067300  0.636400  0.774900  1
  H  H197  1  0.985500  0.389500  0.215400  1
  H  H198  1  0.014500  0.610500  0.784600  1
  H  H199  1  0.948200  0.316600  0.263400  1
  H  H200  1  0.051800  0.683400  0.736600  1
  H  H201  1  0.265700  0.044500  0.420100  1
  H  H202  1  0.734300  0.955500  0.579900  1
  H  H203  1  0.124500  0.816600  0.241000  1
  H  H204  1  0.875500  0.183400  0.759000  1
  H  H205  1  0.154500  0.806300  0.203500  1
  H  H206  1  0.845500  0.193700  0.796500  1
  H  H207  1  0.267900  0.888000  0.253600  1
  H  H208  1  0.732100  0.112000  0.746400  1
  H  H209  1  0.289700  0.927500  0.232000  1
  H  H210  1  0.710300  0.072500  0.768000  1
  H  H211  1  0.205400  0.861900  0.187800  1
  H  H212  1  0.794600  0.138100  0.812200  1
  H  H213  1  0.208400  0.920200  0.203000  1
  H  H214  1  0.791600  0.079800  0.797000  1
  H  H215  1  0.262600  0.761600  0.277400  1
  H  H216  1  0.737400  0.238400  0.722600  1
  H  H217  1  0.194600  0.757200  0.225900  1
  H  H218  1  0.805400  0.242800  0.774100  1
  H  H219  1  0.290500  0.137300  0.485300  1
  H  H220  1  0.709500  0.862700  0.514700  1
  H  H221  1  0.302900  0.837700  0.346900  1
  H  H222  1  0.697100  0.162300  0.653100  1
  H  H223  1  0.447800  0.108400  0.641800  1
  H  H224  1  0.552200  0.891600  0.358200  1
  H  H225  1  0.454000  0.196300  0.671500  1
  H  H226  1  0.546000  0.803700  0.328500  1
  H  H227  1  0.342500  0.200100  0.557400  1
  H  H228  1  0.657500  0.799900  0.442600  1
  H  H229  1  0.091400  0.870200  0.226100  1
  H  H230  1  0.908600  0.129800  0.773900  1
  H  H231  1  0.111100  0.864400  0.182100  1
  H  H232  1  0.888900  0.135600  0.817900  1
  H  H233  1  0.153500  0.954800  0.210900  1
  H  H234  1  0.846500  0.045200  0.789100  1
  H  H235  1  0.095600  0.942500  0.214300  1
  H  H236  1  0.904400  0.057500  0.785700  1
  H  H237  1  0.410500  0.221700  0.633900  1
  H  H238  1  0.589500  0.778300  0.366100  1
  H  H239  1  0.970500  0.143400  0.997000  1
  H  H240  1  0.029500  0.856600  0.003000  1
  H  H241  1  0.950200  0.245200  0.052300  1
  H  H242  1  0.049800  0.754800  0.947700  1
  H  H243  1  0.956700  0.220200  0.002500  1
  H  H244  1  0.043300  0.779800  0.997500  1
  H  H245  1  0.998600  0.276100  0.039900  1
  H  H246  1  0.001400  0.723900  0.960100  1
  H  H247  1  0.221200  0.414500  0.750100  1
  H  H248  1  0.778800  0.585500  0.249900  1
  H  H249  1  0.241700  0.422700  0.709500  1
  H  H250  1  0.758300  0.577300  0.290500  1
  H  H251  1  0.507700  0.677100  0.941300  1
  H  H252  1  0.492300  0.322900  0.058700  1
  H  H253  1  0.233700  0.377600  0.796600  1
  H  H254  1  0.766300  0.622400  0.203400  1
  H  H255  1  0.256900  0.334400  0.791600  1
  H  H256  1  0.743100  0.665600  0.208400  1
  H  H257  1  0.284600  0.513100  0.755500  1
  H  H258  1  0.715400  0.486900  0.244500  1
  H  H259  1  0.224900  0.494900  0.753400  1
  H  H260  1  0.775100  0.505100  0.246600  1
  H  H261  1  0.309100  0.363200  0.750700  1
  H  H262  1  0.690900  0.636800  0.249300  1
  H  H263  1  0.251200  0.351200  0.727000  1
  H  H264  1  0.748800  0.648800  0.273000  1
  H  H265  1  0.313000  0.421200  0.700800  1
  H  H266  1  0.687000  0.578800  0.299200  1
  H  H267  1  0.355800  0.419600  0.736200  1
  H  H268  1  0.644200  0.580400  0.263800  1
  H  H269  1  0.444100  0.637300  0.795100  1
  H  H270  1  0.555900  0.362700  0.204900  1
  H  H271  1  0.381500  0.497100  0.691800  1
  H  H272  1  0.618500  0.502900  0.308200  1
  H  H273  1  0.425400  0.580300  0.718100  1
  H  H274  1  0.574600  0.419700  0.281900  1
  H  H275  1  0.553700  0.711400  0.024200  1
  H  H276  1  0.446300  0.288600  0.975800  1
  H  H277  1  0.401400  0.845900  0.101700  1
  H  H278  1  0.598600  0.154100  0.898300  1
  H  H279  1  0.450600  0.846500  0.164500  1
  H  H280  1  0.549400  0.153500  0.835500  1
  H  H281  1  0.506700  0.803700  0.154700  1
  H  H282  1  0.493300  0.196300  0.845300  1
  H  H283  1  0.551500  0.754400  0.098000  1
  H  H284  1  0.448500  0.245600  0.902000  1
  H  H285  1  0.093300  0.860200  0.087000  1
  H  H286  1  0.906700  0.139800  0.913000  1
  H  H287  1  0.174900  0.957700  0.069200  1
  H  H288  1  0.825100  0.042300  0.930800  1
  H  H289  1  0.118300  0.935400  0.074300  1
  H  H290  1  0.881700  0.064600  0.925700  1
  H  H291  1  0.127800  0.915100  0.025300  1
  H  H292  1  0.872200  0.084900  0.974700  1
  H  H293  1  0.099800  0.373700  0.407200  1
  H  H294  1  0.900200  0.626300  0.592800  1
  H  H295  1  0.047600  0.564000  0.428400  1
  H  H296  1  0.952400  0.436000  0.571600  1
  H  H297  1  0.989700  0.536800  0.396300  1
  H  H298  1  0.010300  0.463200  0.603700  1
  H  H299  1  0.123600  0.600300  0.427000  1
  H  H300  1  0.876400  0.399700  0.573000  1
  H  H301  1  0.147700  0.615500  0.390600  1
  H  H302  1  0.852300  0.384500  0.609400  1
  H  H303  1  0.018500  0.519900  0.331100  1
  H  H304  1  0.981500  0.480100  0.668900  1
  H  H305  1  0.048000  0.581300  0.364800  1
  H  H306  1  0.952000  0.418700  0.635200  1
  H  H307  1  0.247300  0.462500  0.302900  1
  H  H308  1  0.752700  0.537500  0.697100  1
  H  H309  1  0.215900  0.594000  0.415500  1
  H  H310  1  0.784100  0.406000  0.584500  1
  H  H311  1  0.257700  0.213400  0.400600  1
  H  H312  1  0.742300  0.786600  0.599400  1
  H  H313  1  0.084300  0.244300  0.459200  1
  H  H314  1  0.915700  0.755700  0.540800  1
  H  H315  1  0.069400  0.305100  0.440200  1
  H  H316  1  0.930600  0.694900  0.559800  1
  H  H317  1  0.179100  0.554500  0.279300  1
  H  H318  1  0.820900  0.445500  0.720700  1
  H  H319  1  0.072300  0.506100  0.291800  1
  H  H320  1  0.927700  0.493900  0.708200  1
  H  H321  1  0.113500  0.565500  0.313800  1
  H  H322  1  0.886500  0.434500  0.686200  1
  H  H323  1  0.244000  0.522400  0.270100  1
  H  H324  1  0.756000  0.477600  0.729900  1
  H  H325  1  0.137600  0.185600  0.453700  1
  H  H326  1  0.862400  0.814400  0.546300  1
  H  H327  1  0.212100  0.173300  0.439100  1
  H  H328  1  0.787900  0.826700  0.560900  1
  H  H329  1  0.442700  0.366200  0.982600  1
  H  H330  1  0.557300  0.633800  0.017400  1
  H  H331  1  0.200100  0.078700  0.940400  1
  H  H332  1  0.799900  0.921300  0.059600  1
  H  H333  1  0.143800  0.060300  0.908100  1
  H  H334  1  0.856200  0.939700  0.091900  1
  H  H335  1  0.141500  0.142000  0.951700  1
  H  H336  1  0.858500  0.858000  0.048300  1
  H  H337  1  0.149900  0.114200  0.983500  1
  H  H338  1  0.850100  0.885800  0.016500  1
  H  H339  1  0.488000  0.462900  0.053900  1
  H  H340  1  0.512000  0.537100  0.946100  1
  H  H341  1  0.432500  0.645700  0.027300  1
  H  H342  1  0.567500  0.354300  0.972700  1
  H  H343  1  0.491200  0.544800  0.085900  1
  H  H344  1  0.508800  0.455200  0.914100  1
  H  H345  1  0.385800  0.585100  0.952500  1
  H  H346  1  0.614200  0.414900  0.047500  1
  H  H347  1  0.195300  0.155900  0.834600  1
  H  H348  1  0.804700  0.844100  0.165400  1
  H  H349  1  0.140300  0.158600  0.835100  1
  H  H350  1  0.859700  0.841400  0.164900  1
  H  H351  1  0.204700  0.059100  0.848200  1
  H  H352  1  0.795300  0.940900  0.151800  1
  H  H353  1  0.245600  0.078600  0.895600  1
  H  H354  1  0.754400  0.921400  0.104400  1
  H  H355  1  0.372800  0.216700  0.842700  1
  H  H356  1  0.627200  0.783300  0.157300  1
  H  H357  1  0.472300  0.618000  0.073400  1
  H  H358  1  0.527700  0.382000  0.926600  1
  H  H359  1  0.341200  0.130000  0.793800  1
  H  H360  1  0.658800  0.870000  0.206200  1
  H  H361  1  0.143500  0.081300  0.838700  1
  H  H362  1  0.856500  0.918700  0.161300  1
  H  H363  1  0.127500  0.115300  0.880200  1
  H  H364  1  0.872500  0.884700  0.119800  1
  H  H365  1  0.270400  0.067400  0.806100  1
  H  H366  1  0.729600  0.932600  0.193900  1
  H  H367  1  0.397200  0.817400  0.598100  1
  H  H368  1  0.602800  0.182600  0.401900  1
  H  H369  1  0.262600  0.028300  0.579700  1
  H  H370  1  0.737400  0.971700  0.420300  1
  H  H371  1  0.201500  0.009100  0.562200  1
  H  H372  1  0.798500  0.990900  0.437800  1
  H  H373  1  0.275000  0.529300  0.439000  1
  H  H374  1  0.725000  0.470700  0.561000  1
  H  H375  1  0.150000  0.921000  0.534200  1
  H  H376  1  0.850000  0.079000  0.465800  1
  H  H377  1  0.149800  0.943200  0.586300  1
  H  H378  1  0.850200  0.056800  0.413700  1
  H  H379  1  0.199000  0.946100  0.492100  1
  H  H380  1  0.801000  0.053900  0.507900  1
  H  H381  1  0.238500  0.003000  0.501200  1
  H  H382  1  0.761500  0.997000  0.498800  1
  H  H383  1  0.453800  0.780000  0.558200  1
  H  H384  1  0.546200  0.220000  0.441800  1
  H  H385  1  0.216300  0.993600  0.640500  1
  H  H386  1  0.783700  0.006400  0.359500  1
  H  H387  1  0.273400  0.015500  0.636600  1
  H  H388  1  0.726600  0.984500  0.363400  1
  H  H389  1  0.166900  0.873000  0.594100  1
  H  H390  1  0.833100  0.127000  0.405900  1
  H  H391  1  0.118700  0.846700  0.550000  1
  H  H392  1  0.881300  0.153300  0.450000  1
  H  H393  1  0.462100  0.709100  0.500300  1
  H  H394  1  0.537900  0.290900  0.499700  1
  H  H395  1  0.300700  0.871000  0.692900  1
  H  H396  1  0.699300  0.129000  0.307100  1
  H  H397  1  0.243600  0.978600  0.706700  1
  H  H398  1  0.756400  0.021400  0.293300  1
  H  H399  1  0.260000  0.925300  0.735000  1
  H  H400  1  0.740000  0.074700  0.265000  1
  H  H401  1  0.348900  0.533100  0.413400  1
  H  H402  1  0.651100  0.466900  0.586600  1
  H  H403  1  0.418300  0.614200  0.440600  1
  H  H404  1  0.581700  0.385800  0.559400  1
  H  H405  1  0.358800  0.002600  0.592300  1
  H  H406  1  0.641200  0.997400  0.407700  1
  H  H407  1  0.396800  0.944800  0.608900  1
  H  H408  1  0.603200  0.055200  0.391100  1
  H  H409  1  0.372300  0.963300  0.649600  1
  H  H410  1  0.627700  0.036700  0.350400  1
  H  H411  1  0.415500  0.005900  0.641600  1
  H  H412  1  0.584500  0.994100  0.358400  1
  H  H413  1  0.501200  0.874000  0.913300  1
  H  H414  1  0.498800  0.126000  0.086700  1
  H  H415  1  0.293100  0.601500  0.824300  1
  H  H416  1  0.706900  0.398500  0.175700  1
  H  H417  1  0.491400  0.872000  0.842000  1
  H  H418  1  0.508600  0.128000  0.158000  1
  H  H419  1  0.370200  0.698500  0.746300  1
  H  H420  1  0.629800  0.301500  0.253700  1
  H  H421  1  0.198700  0.535400  0.018900  1
  H  H422  1  0.801300  0.464600  0.981100  1
  H  H423  1  0.332100  0.650700  0.033400  1
  H  H424  1  0.667900  0.349300  0.966600  1
  H  H425  1  0.145500  0.465900  0.940000  1
  H  H426  1  0.854500  0.534100  0.060000  1
  H  H427  1  0.131000  0.502900  0.920500  1
  H  H428  1  0.869000  0.497100  0.079500  1
  H  H429  1  0.272800  0.606700  0.068100  1
  H  H430  1  0.727200  0.393300  0.931900  1
  H  H431  1  0.440900  0.791800  0.777400  1
  H  H432  1  0.559100  0.208200  0.222600  1
  H  H433  1  0.328000  0.630100  0.763300  1
  H  H434  1  0.672000  0.369900  0.236700  1
  H  H435  1  0.189800  0.402400  0.860000  1
  H  H436  1  0.810200  0.597600  0.140000  1
  H  H437  1  0.186500  0.417600  0.911100  1
  H  H438  1  0.813500  0.582400  0.088900  1
  H  H439  1  0.277600  0.471900  0.933900  1
  H  H440  1  0.722400  0.528100  0.066100  1
  H  H441  1  0.101200  0.398500  0.858700  1
  H  H442  1  0.898800  0.601500  0.141300  1
  H  H443  1  0.094500  0.447300  0.853500  1
  H  H444  1  0.905500  0.552700  0.146500  1
  H  H445  1  0.087300  0.391200  0.785500  1
  H  H446  1  0.912700  0.608800  0.214500  1
  H  H447  1  0.136800  0.382300  0.803400  1
  H  H448  1  0.863200  0.617700  0.196600  1
  H  H449  1  0.435300  0.862300  0.962500  1
  H  H450  1  0.564700  0.137700  0.037500  1
  H  H451  1  0.505000  0.911000  0.010100  1
  H  H452  1  0.495000  0.089000  0.989900  1
  H  H453  1  0.476400  0.924100  0.048700  1
  H  H454  1  0.523600  0.075900  0.951300  1
  H  H455  1  0.478600  0.951900  0.015600  1
  H  H456  1  0.521400  0.048100  0.984400  1
  H  H457  1  0.293000  0.031300  0.076000  1
  H  H458  1  0.707000  0.968700  0.924000  1
  H  H459  1  0.276400  0.941100  0.079600  1
  H  H460  1  0.723600  0.058900  0.920400  1
  H  H461  1  0.485700  0.184200  0.272800  1
  H  H462  1  0.514300  0.815800  0.727200  1
  H  H463  1  0.340700  0.119400  0.108600  1
  H  H464  1  0.659300  0.880600  0.891400  1
  H  H465  1  0.227700  0.702100  0.962100  1
  H  H466  1  0.772300  0.297900  0.037900  1
  H  H467  1  0.227700  0.666667  0.988300  1
  H  H468  1  0.772300  0.333333  0.011700  1
  H  H469  1  0.153500  0.696500  0.054000  1
  H  H470  1  0.846500  0.303500  0.946000  1
  H  H471  1  0.186100  0.661900  0.037700  1
  H  H472  1  0.813900  0.338100  0.962300  1
  H  H473  1  0.327500  0.828900  0.201200  1
  H  H474  1  0.672500  0.171100  0.798800  1
  H  H475  1  0.314200  0.730700  0.032100  1
  H  H476  1  0.685800  0.269300  0.967900  1
  H  H477  1  0.412800  0.202300  0.172600  1
  H  H478  1  0.587200  0.797700  0.827400  1
  H  H479  1  0.164200  0.706900  0.925700  1
  H  H480  1  0.835800  0.293100  0.074300  1
  H  H481  1  0.108800  0.706300  0.929800  1
  H  H482  1  0.891200  0.293700  0.070200  1
  H  H483  1  0.223700  0.681000  0.114800  1
  H  H484  1  0.776300  0.319000  0.885200  1
  H  H485  1  0.118400  0.695200  0.994000  1
  H  H486  1  0.881600  0.304800  0.006000  1
  H  H487  1  0.137400  0.655000  0.960600  1
  H  H488  1  0.862600  0.345000  0.039400  1
  H  H489  1  0.473200  0.236600  0.241100  1
  H  H490  1  0.526800  0.763400  0.758900  1
  H  H491  1  0.289400  0.736800  0.183100  1
  H  H492  1  0.710600  0.263200  0.816900  1
  H  H493  1  0.262200  0.554600  0.570000  1
  H  H494  1  0.737800  0.445400  0.430000  1
  H  H495  1  0.222900  0.564900  0.587900  1
  H  H496  1  0.777100  0.435100  0.412100  1
  H  H497  1  0.122100  0.137300  0.096200  1
  H  H498  1  0.877900  0.862700  0.903800  1
  H  H499  1  0.124500  0.973600  0.000700  1
  H  H500  1  0.875500  0.026400  0.999300  1
  H  H501  1  0.323900  0.074200  0.985000  1
  H  H502  1  0.676100  0.925800  0.015000  1
  H  H503  1  0.078500  0.378000  0.187600  1
  H  H504  1  0.921500  0.622000  0.812400  1
  H  H505  1  0.056200  0.331600  0.137100  1
  H  H506  1  0.943800  0.668400  0.862900  1
  H  H507  1  0.995400  0.283000  0.149400  1
  H  H508  1  0.004600  0.717000  0.850600  1
  H  H509  1  0.005900  0.316200  0.202800  1
  H  H510  1  0.994100  0.683800  0.797200  1
  H  H511  1  0.969300  0.231700  0.202300  1
  H  H512  1  0.030700  0.768300  0.797700  1
  H  H513  1  0.101000  0.039300  0.047700  1
  H  H514  1  0.899000  0.960700  0.952300  1
  H  H515  1  0.276800  0.986400  0.959200  1
  H  H516  1  0.723200  0.013600  0.040800  1
  H  H517  1  0.193900  0.954300  0.962300  1
  H  H518  1  0.806100  0.045700  0.037700  1
  H  H519  1  0.074300  0.307900  0.248300  1
  H  H520  1  0.925700  0.692100  0.751700  1
  H  H521  1  0.097300  0.365100  0.250200  1
  H  H522  1  0.902700  0.634900  0.749800  1
  H  H523  1  0.157600  0.435500  0.176100  1
  H  H524  1  0.842400  0.564500  0.823900  1
  H  H525  1  0.237800  0.446100  0.164500  1
  H  H526  1  0.762200  0.553900  0.835500  1
  H  H527  1  0.259400  0.373100  0.135500  1
  H  H528  1  0.740600  0.626900  0.864500  1
  H  H529  1  0.170000  0.353700  0.231700  1
  H  H530  1  0.830000  0.646300  0.768300  1
  H  H531  1  0.163600  0.338300  0.272800  1
  H  H532  1  0.836400  0.661700  0.727200  1
  H  H533  1  0.310200  0.156100  0.983400  1
  H  H534  1  0.689800  0.843900  0.016600  1
  H  H535  1  0.367500  0.209200  0.947700  1
  H  H536  1  0.632500  0.790800  0.052300  1
  H  H537  1  0.379100  0.171000  0.967000  1
  H  H538  1  0.620900  0.829000  0.033000  1
  H  H539  1  0.384000  0.227600  0.001300  1
  H  H540  1  0.616000  0.772400  0.998700  1
  H  H541  1  0.063000  0.934000  0.380900  1
  H  H542  1  0.937000  0.066000  0.619100  1
  H  H543  1  0.026400  0.847400  0.275600  1
  H  H544  1  0.973600  0.152600  0.724400  1
  H  H545  1  0.013300  0.848200  0.321300  1
  H  H546  1  0.986700  0.151800  0.678700  1
  H  H547  1  0.044700  0.815000  0.298600  1
  H  H548  1  0.955300  0.185000  0.701400  1
  H  H549  1  0.084700  0.100200  0.156000  1
  H  H550  1  0.915300  0.899800  0.844000  1
  H  H551  1  0.039000  0.115400  0.139900  1
  H  H552  1  0.961000  0.884600  0.860100  1
  H  H553  1  0.110500  0.183100  0.315100  1
  H  H554  1  0.889500  0.816900  0.684900  1
  H  H555  1  0.052900  0.165500  0.286100  1
  H  H556  1  0.947100  0.834500  0.713900  1
  H  H557  1  0.075900  0.253800  0.299700  1
  H  H558  1  0.924100  0.746200  0.700300  1
  H  H559  1  0.225500  0.066900  0.141400  1
  H  H560  1  0.774500  0.933100  0.858600  1
  H  H561  1  0.089100  0.086900  0.247600  1
  H  H562  1  0.910900  0.913100  0.752400  1
  H  H563  1  0.143100  0.131900  0.281500  1
  H  H564  1  0.856900  0.868100  0.718500  1
  H  H565  1  0.039700  0.160000  0.215100  1
  H  H566  1  0.960300  0.840000  0.784900  1
  H  H567  1  0.033700  0.102000  0.206400  1
  H  H568  1  0.966300  0.898000  0.793600  1
  H  H569  1  0.463200  0.421700  0.137100  1
  H  H570  1  0.536800  0.578300  0.862900  1
  H  H571  1  0.420100  0.415300  0.068600  1
  H  H572  1  0.579900  0.584700  0.931400  1
  H  H573  1  0.343700  0.342400  0.022500  1
  H  H574  1  0.656300  0.657600  0.977500  1
  H  H575  1  0.122100  0.019400  0.200900  1
  H  H576  1  0.877900  0.980600  0.799100  1
  H  H577  1  0.348200  0.233100  0.192300  1
  H  H578  1  0.651800  0.766900  0.807700  1
  H  H579  1  0.167400  0.002700  0.156000  1
  H  H580  1  0.832600  0.997300  0.844000  1
  H  H581  1  0.422600  0.327900  0.217500  1
  H  H582  1  0.577400  0.672100  0.782500  1
  H  H583  1  0.467500  0.375700  0.192300  1
  H  H584  1  0.532500  0.624300  0.807700  1
  H  H585  1  0.986800  0.649400  0.447300  1
  H  H586  1  0.013200  0.350600  0.552700  1
  H  H587  1  0.969900  0.663600  0.364300  1
  H  H588  1  0.030100  0.336400  0.635700  1
  H  H589  1  0.970200  0.611200  0.366400  1
  H  H590  1  0.029800  0.388800  0.633600  1
  H  H591  1  0.008500  0.639300  0.343800  1
  H  H592  1  0.991500  0.360700  0.656200  1
  H  H593  1  0.115300  0.611900  0.824000  1
  H  H594  1  0.884700  0.388100  0.176000  1
  H  H595  1  0.057900  0.536300  0.876300  1
  H  H596  1  0.942100  0.463700  0.123700  1
  H  H597  1  0.049100  0.573500  0.854400  1
  H  H598  1  0.950900  0.426500  0.145600  1
  H  H599  1  0.083400  0.598600  0.905800  1
  H  H600  1  0.916600  0.401400  0.094200  1
  H  H601  1  0.225700  0.182200  0.285100  1
  H  H602  1  0.774300  0.817800  0.714900  1
  H  H603  1  0.223500  0.225200  0.320400  1
  H  H604  1  0.776500  0.774800  0.679600  1
  H  H605  1  0.224800  0.249900  0.848200  1
  H  H606  1  0.775200  0.750100  0.151800  1
  H  H607  1  0.297100  0.472000  0.017900  1
  H  H608  1  0.702900  0.528000  0.982100  1
  H  H609  1  0.219400  0.330200  0.033200  1
  H  H610  1  0.780600  0.669800  0.966800  1
  H  H611  1  0.222600  0.281500  0.041300  1
  H  H612  1  0.777400  0.718500  0.958700  1
  H  H613  1  0.237900  0.191900  0.770100  1
  H  H614  1  0.762100  0.808100  0.229900  1
  H  H615  1  0.256900  0.500400  0.074500  1
  H  H616  1  0.743100  0.499600  0.925500  1
  H  H617  1  0.182900  0.440700  0.071700  1
  H  H618  1  0.817100  0.559300  0.928300  1
  H  H619  1  0.134900  0.233500  0.005900  1
  H  H620  1  0.865100  0.766500  0.994100  1
  H  H621  1  0.144000  0.287900  0.047000  1
  H  H622  1  0.856000  0.712100  0.953000  1
  H  H623  1  0.291100  0.188300  0.724200  1
  H  H624  1  0.708900  0.811700  0.275800  1
  H  H625  1  0.046400  0.263000  0.961300  1
  H  H626  1  0.953600  0.737000  0.038700  1
  H  H627  1  0.060400  0.246100  0.000400  1
  H  H628  1  0.939600  0.753900  0.999600  1
  H  H629  1  0.098100  0.341300  0.987600  1
  H  H630  1  0.901900  0.658700  0.012400  1
  H  H631  1  0.119300  0.346000  0.036600  1
  H  H632  1  0.880700  0.654000  0.963400  1
  H  H633  1  0.464100  0.386300  0.791500  1
  H  H634  1  0.535900  0.613700  0.208500  1
  H  H635  1  0.447800  0.309000  0.730000  1
  H  H636  1  0.552200  0.691000  0.270000  1
  H  H637  1  0.372300  0.236700  0.703800  1
  H  H638  1  0.627700  0.763300  0.296200  1
  H  H639  1  0.069300  0.175600  0.952900  1
  H  H640  1  0.930700  0.824400  0.047100  1
  H  H641  1  0.022300  0.176600  0.921700  1
  H  H642  1  0.977700  0.823400  0.078300  1
  H  H643  1  0.466100  0.506200  0.816900  1
  H  H644  1  0.533900  0.493800  0.183100  1
  H  H645  1  0.479400  0.496600  0.860700  1
  H  H646  1  0.520600  0.503400  0.139300  1
  H  H647  1  0.459000  0.541300  0.863800  1
  H  H648  1  0.541000  0.458700  0.136200  1
  H  H649  1  0.049400  0.274300  0.804000  1
  H  H650  1  0.950600  0.725700  0.196000  1
  H  H651  1  0.024500  0.327000  0.909300  1
  H  H652  1  0.975500  0.673000  0.090700  1
  H  H653  1  0.997200  0.305400  0.856500  1
  H  H654  1  0.002800  0.694600  0.143500  1
  H  H655  1  0.045700  0.360500  0.882700  1
  H  H656  1  0.954300  0.639500  0.117300  1
  H  H657  1  0.482200  0.129600  0.364700  1
  H  H658  1  0.517800  0.870400  0.635300  1
  H  H659  1  0.512700  0.134200  0.403500  1
  H  H660  1  0.487300  0.865800  0.596500  1
  H  H661  1  0.106700  0.065300  0.316400  1
  H  H662  1  0.893300  0.934700  0.683600  1
  H  H663  1  0.105100  0.023400  0.325600  1
  H  H664  1  0.894900  0.976600  0.674400  1
  H  H665  1  0.399000  0.203500  0.060300  1
  H  H666  1  0.601000  0.796500  0.939700  1
  H  H667  1  0.456100  0.230200  0.093500  1
  H  H668  1  0.543900  0.769800  0.906500  1
  H  H669  1  0.417400  0.174200  0.086900  1
  H  H670  1  0.582600  0.825800  0.913100  1
  H  H671  1  0.341300  0.287400  0.424600  1
  H  H672  1  0.658700  0.712600  0.575400  1
  H  H673  1  0.365900  0.338600  0.430900  1
  H  H674  1  0.634100  0.661400  0.569100  1
  H  H675  1  0.140800  0.447300  0.771400  1
  H  H676  1  0.859200  0.552700  0.228600  1
  H  H677  1  0.152500  0.787600  0.959600  1
  H  H678  1  0.847500  0.212400  0.040400  1
  H  H679  1  0.987800  0.172500  0.147000  1
  H  H680  1  0.012200  0.827500  0.853000  1
  H  H681  1  0.072100  0.170700  0.879600  1
  H  H682  1  0.927900  0.829300  0.120400  1
  H  H683  1  0.990500  0.468500  0.393200  1
  H  H684  1  0.009500  0.531500  0.606800  1
  H  H685  1  0.054500  0.796400  0.455400  1
  H  H686  1  0.945500  0.203600  0.544600  1
  H  H687  1  0.099700  0.852400  0.485700  1
  H  H688  1  0.900300  0.147600  0.514300  1
  H  H689  1  0.128800  0.986200  0.284800  1
  H  H690  1  0.871200  0.013800  0.715200  1
  C  C691  1  0.186700  0.756700  0.564100  1
  C  C692  1  0.813300  0.243300  0.435900  1
  C  C693  1  0.222800  0.716600  0.469700  1
  C  C694  1  0.777200  0.283400  0.530300  1
  C  C695  1  0.217400  0.710900  0.423000  1
  C  C696  1  0.782600  0.289100  0.577000  1
  C  C697  1  0.235300  0.717000  0.647200  1
  C  C698  1  0.764700  0.283000  0.352800  1
  C  C699  1  0.194800  0.751600  0.606000  1
  C  C700  1  0.805200  0.248400  0.394000  1
  C  C701  1  0.264400  0.688900  0.646900  1
  C  C702  1  0.735600  0.311100  0.353100  1
  C  C703  1  0.217700  0.739000  0.685800  1
  C  C704  1  0.782300  0.261000  0.314200  1
  C  C705  1  0.176700  0.774100  0.643100  1
  C  C706  1  0.823300  0.225900  0.356900  1
  C  C707  1  0.188400  0.765300  0.680900  1
  C  C708  1  0.811600  0.234700  0.319100  1
  C  C709  1  0.230300  0.727900  0.722500  1
  C  C710  1  0.769700  0.272100  0.277500  1
  C  C711  1  0.245000  0.693500  0.395900  1
  C  C712  1  0.755000  0.306500  0.604100  1
  C  C713  1  0.227600  0.840300  0.426700  1
  C  C714  1  0.772400  0.159700  0.573300  1
  C  C715  1  0.179400  0.833800  0.398900  1
  C  C716  1  0.820600  0.166200  0.601100  1
  C  C717  1  0.234500  0.686400  0.350600  1
  C  C718  1  0.765500  0.313600  0.649400  1
  C  C719  1  0.174400  0.723700  0.365400  1
  C  C720  1  0.825600  0.276300  0.634600  1
  C  C721  1  0.134200  0.743400  0.353200  1
  C  C722  1  0.865800  0.256600  0.646800  1
  C  C723  1  0.257300  0.699300  0.721300  1
  C  C724  1  0.742700  0.300700  0.278700  1
  C  C725  1  0.275000  0.678400  0.684200  1
  C  C726  1  0.725000  0.321600  0.315800  1
  C  C727  1  0.087600  0.795000  0.380200  1
  C  C728  1  0.912400  0.205000  0.619800  1
  C  C729  1  0.198900  0.703200  0.338200  1
  C  C730  1  0.801100  0.296800  0.661800  1
  C  C731  1  0.082100  0.834200  0.420200  1
  C  C732  1  0.917900  0.165800  0.579800  1
  C  C733  1  0.450400  0.013800  0.452900  1
  C  C734  1  0.549600  0.986200  0.547100  1
  C  C735  1  0.286400  0.045900  0.230200  1
  C  C736  1  0.713600  0.954100  0.769800  1
  C  C737  1  0.393800  0.077300  0.423800  1
  C  C738  1  0.606200  0.922700  0.576200  1
  C  C739  1  0.362500  0.167700  0.388200  1
  C  C740  1  0.637500  0.832300  0.611800  1
  C  C741  1  0.436900  0.874500  0.461000  1
  C  C742  1  0.563100  0.125500  0.539000  1
  C  C743  1  0.338500  0.164000  0.344200  1
  C  C744  1  0.661500  0.836000  0.655800  1
  C  C745  1  0.404200  0.899500  0.473400  1
  C  C746  1  0.595800  0.100500  0.526600  1
  C  C747  1  0.362900  0.878600  0.488300  1
  C  C748  1  0.637100  0.121400  0.511700  1
  C  C749  1  0.387000  0.807900  0.476600  1
  C  C750  1  0.613000  0.192100  0.523400  1
  C  C751  1  0.484100  0.946000  0.443600  1
  C  C752  1  0.515900  0.054000  0.556400  1
  C  C753  1  0.446700  0.965900  0.456100  1
  C  C754  1  0.553300  0.034100  0.543900  1
  C  C755  1  0.353700  0.832700  0.489400  1
  C  C756  1  0.646300  0.167300  0.510600  1
  C  C757  1  0.249400  0.097000  0.314200  1
  C  C758  1  0.750600  0.903000  0.685800  1
  C  C759  1  0.301700  0.102100  0.262400  1
  C  C760  1  0.698300  0.897900  0.737600  1
  C  C761  1  0.391700  0.125700  0.428500  1
  C  C762  1  0.608300  0.874300  0.571500  1
  C  C763  1  0.428300  0.828200  0.464100  1
  C  C764  1  0.571700  0.171800  0.535900  1
  C  C765  1  0.245800  0.081500  0.353100  1
  C  C766  1  0.754200  0.918500  0.646900  1
  C  C767  1  0.409300  0.216800  0.467800  1
  C  C768  1  0.590700  0.783200  0.532200  1
  C  C769  1  0.478000  0.898400  0.446000  1
  C  C770  1  0.522000  0.101600  0.554000  1
  C  C771  1  0.383500  0.216800  0.429600  1
  C  C772  1  0.616500  0.783200  0.570400  1
  C  C773  1  0.416800  0.173600  0.466700  1
  C  C774  1  0.583200  0.826400  0.533300  1
  C  C775  1  0.133100  0.612000  0.533200  1
  C  C776  1  0.866900  0.388000  0.466800  1
  C  C777  1  0.144700  0.465500  0.556700  1
  C  C778  1  0.855300  0.534500  0.443300  1
  C  C779  1  0.067200  0.447900  0.466600  1
  C  C780  1  0.932800  0.552100  0.533400  1
  C  C781  1  0.065900  0.494300  0.505200  1
  C  C782  1  0.934100  0.505700  0.494800  1
  C  C783  1  0.322100  0.383300  0.328100  1
  C  C784  1  0.677900  0.616700  0.671900  1
  C  C785  1  0.119300  0.583600  0.561300  1
  C  C786  1  0.880700  0.416400  0.438700  1
  C  C787  1  0.225600  0.440200  0.482600  1
  C  C788  1  0.774400  0.559800  0.517400  1
  C  C789  1  0.318600  0.432100  0.443100  1
  C  C790  1  0.681400  0.567900  0.556900  1
  C  C791  1  0.284400  0.344700  0.285500  1
  C  C792  1  0.715600  0.655300  0.714500  1
  C  C793  1  0.125500  0.509100  0.573000  1
  C  C794  1  0.874500  0.490900  0.427000  1
  C  C795  1  0.193700  0.432500  0.515600  1
  C  C796  1  0.806300  0.567500  0.484400  1
  C  C797  1  0.186700  0.394800  0.530100  1
  C  C798  1  0.813300  0.605200  0.469900  1
  C  C799  1  0.135500  0.428700  0.572100  1
  C  C800  1  0.864500  0.571300  0.427900  1
  C  C801  1  0.157300  0.393700  0.558000  1
  C  C802  1  0.842700  0.606300  0.442000  1
  C  C803  1  0.339500  0.424000  0.405500  1
  C  C804  1  0.660500  0.576000  0.594500  1
  C  C805  1  0.370500  0.415500  0.325700  1
  C  C806  1  0.629500  0.584500  0.674300  1
  C  C807  1  0.294200  0.339000  0.246300  1
  C  C808  1  0.705800  0.661000  0.753700  1
  C  C809  1  0.388300  0.458000  0.407200  1
  C  C810  1  0.611700  0.542000  0.592800  1
  C  C811  1  0.402900  0.452000  0.367300  1
  C  C812  1  0.597100  0.548000  0.632700  1
  C  C813  1  0.380200  0.411700  0.286400  1
  C  C814  1  0.619800  0.588300  0.713600  1
  C  C815  1  0.341700  0.376100  0.245100  1
  C  C816  1  0.658300  0.623900  0.754900  1
  C  C817  1  0.407700  0.957800  0.088400  1
  C  C818  1  0.592300  0.042200  0.911600  1
  C  C819  1  0.341400  0.899600  0.930700  1
  C  C820  1  0.658600  0.100400  0.069300  1
  C  C821  1  0.365100  0.946800  0.977200  1
  C  C822  1  0.634900  0.053200  0.022800  1
  C  C823  1  0.379300  0.997700  0.979800  1
  C  C824  1  0.620700  0.002300  0.020200  1
  C  C825  1  0.293300  0.760100  0.904200  1
  C  C826  1  0.706700  0.239900  0.095800  1
  C  C827  1  0.441800  0.959400  0.272700  1
  C  C828  1  0.558200  0.040600  0.727300  1
  C  C829  1  0.258600  0.854200  0.936200  1
  C  C830  1  0.741400  0.145800  0.063800  1
  C  C831  1  0.398100  0.975900  0.053100  1
  C  C832  1  0.601900  0.024100  0.946900  1
  C  C833  1  0.414700  0.028600  0.061700  1
  C  C834  1  0.585300  0.971400  0.938300  1
  C  C835  1  0.303900  0.804900  0.891900  1
  C  C836  1  0.696100  0.195100  0.108100  1
  C  C837  1  0.404200  0.966700  0.293600  1
  C  C838  1  0.595800  0.033300  0.706400  1
  C  C839  1  0.405400  0.039600  0.026300  1
  C  C840  1  0.594600  0.960400  0.973700  1
  C  C841  1  0.257600  0.882600  0.985100  1
  C  C842  1  0.742400  0.117400  0.014900  1
  C  C843  1  0.392000  0.944000  0.325700  1
  C  C844  1  0.608000  0.056000  0.674300  1
  C  C845  1  0.480700  0.961900  0.218100  1
  C  C846  1  0.519300  0.038100  0.781900  1
  C  C847  1  0.417300  0.917100  0.335200  1
  C  C848  1  0.582700  0.082900  0.664800  1
  C  C849  1  0.476300  0.976600  0.178900  1
  C  C850  1  0.523700  0.023400  0.821100  1
  C  C851  1  0.458700  0.912500  0.319200  1
  C  C852  1  0.541300  0.087500  0.680800  1
  C  C853  1  0.467800  0.929900  0.287800  1
  C  C854  1  0.532200  0.070100  0.712200  1
  C  C855  1  0.511600  0.938500  0.233000  1
  C  C856  1  0.488400  0.061500  0.767000  1
  C  C857  1  0.505400  0.926100  0.267400  1
  C  C858  1  0.494600  0.073900  0.732600  1
  C  C859  1  0.996900  0.341500  0.324100  1
  C  C860  1  0.003100  0.658500  0.675900  1
  C  C861  1  0.996700  0.389100  0.278200  1
  C  C862  1  0.003300  0.610900  0.721800  1
  C  C863  1  0.973500  0.290400  0.327500  1
  C  C864  1  0.026500  0.709600  0.672500  1
  C  C865  1  0.966900  0.392200  0.238400  1
  C  C866  1  0.033100  0.607800  0.761600  1
  C  C867  1  0.977300  0.345800  0.285900  1
  C  C868  1  0.022700  0.654200  0.714100  1
  C  C869  1  0.282700  0.919000  0.379500  1
  C  C870  1  0.717300  0.081000  0.620500  1
  C  C871  1  0.369200  0.101600  0.556300  1
  C  C872  1  0.630800  0.898400  0.443700  1
  C  C873  1  0.196800  0.826300  0.265700  1
  C  C874  1  0.803200  0.173700  0.734300  1
  C  C875  1  0.258800  0.872800  0.336300  1
  C  C876  1  0.741200  0.127200  0.663700  1
  C  C877  1  0.284900  0.037800  0.441200  1
  C  C878  1  0.715100  0.962200  0.558800  1
  C  C879  1  0.157900  0.830100  0.235000  1
  C  C880  1  0.842100  0.169900  0.765000  1
  C  C881  1  0.398600  0.085500  0.581800  1
  C  C882  1  0.601400  0.914500  0.418200  1
  C  C883  1  0.311400  0.078900  0.487600  1
  C  C884  1  0.688600  0.921100  0.512400  1
  C  C885  1  0.263100  0.915700  0.246400  1
  C  C886  1  0.736900  0.084300  0.753600  1
  C  C887  1  0.210400  0.894400  0.214300  1
  C  C888  1  0.789600  0.105600  0.785700  1
  C  C889  1  0.251300  0.789400  0.284500  1
  C  C890  1  0.748700  0.210600  0.715500  1
  C  C891  1  0.211400  0.787000  0.254500  1
  C  C892  1  0.788600  0.213000  0.745500  1
  C  C893  1  0.311300  0.128900  0.503700  1
  C  C894  1  0.688700  0.871100  0.496300  1
  C  C895  1  0.274700  0.834600  0.325800  1
  C  C896  1  0.725300  0.165400  0.674200  1
  C  C897  1  0.429000  0.119200  0.624200  1
  C  C898  1  0.571000  0.880800  0.375800  1
  C  C899  1  0.371200  0.153600  0.574300  1
  C  C900  1  0.628800  0.846400  0.425700  1
  C  C901  1  0.432000  0.171700  0.641900  1
  C  C902  1  0.568000  0.828300  0.358100  1
  C  C903  1  0.341700  0.165700  0.546500  1
  C  C904  1  0.658300  0.834300  0.453500  1
  C  C905  1  0.120400  0.885400  0.215300  1
  C  C906  1  0.879600  0.114600  0.784700  1
  C  C907  1  0.128400  0.940600  0.225500  1
  C  C908  1  0.871600  0.059400  0.774500  1
  C  C909  1  0.406500  0.186200  0.619800  1
  C  C910  1  0.593500  0.813800  0.380200  1
  C  C911  1  0.016700  0.134300  0.040900  1
  C  C912  1  0.983300  0.865700  0.959100  1
  C  C913  1  0.994900  0.161800  0.026200  1
  C  C914  1  0.005100  0.838200  0.973800  1
  C  C915  1  0.005700  0.079300  0.011100  1
  C  C916  1  0.994300  0.920700  0.988900  1
  C  C917  1  0.005500  0.214400  0.050500  1
  C  C918  1  0.994500  0.785600  0.949500  1
  C  C919  1  0.975000  0.241400  0.034900  1
  C  C920  1  0.025000  0.758600  0.965100  1
  C  C921  1  0.250400  0.435700  0.742900  1
  C  C922  1  0.749600  0.564300  0.257100  1
  C  C923  1  0.415400  0.608800  0.862000  1
  C  C924  1  0.584600  0.391200  0.138000  1
  C  C925  1  0.484100  0.692200  0.950400  1
  C  C926  1  0.515900  0.307800  0.049600  1
  C  C927  1  0.265100  0.370600  0.795200  1
  C  C928  1  0.734900  0.629400  0.204800  1
  C  C929  1  0.257200  0.492100  0.764400  1
  C  C930  1  0.742800  0.507900  0.235600  1
  C  C931  1  0.280600  0.374900  0.754500  1
  C  C932  1  0.719400  0.625100  0.245500  1
  C  C933  1  0.492500  0.725500  0.998800  1
  C  C934  1  0.507500  0.274500  0.001200  1
  C  C935  1  0.405800  0.579100  0.811800  1
  C  C936  1  0.594200  0.420900  0.188200  1
  C  C937  1  0.332100  0.436800  0.733300  1
  C  C938  1  0.667900  0.563200  0.266700  1
  C  C939  1  0.361800  0.493400  0.749600  1
  C  C940  1  0.638200  0.506600  0.250400  1
  C  C941  1  0.424300  0.600700  0.783700  1
  C  C942  1  0.575700  0.399300  0.216300  1
  C  C943  1  0.386300  0.518700  0.722800  1
  C  C944  1  0.613700  0.481300  0.277200  1
  C  C945  1  0.412800  0.566700  0.738100  1
  C  C946  1  0.587200  0.433300  0.261900  1
  C  C947  1  0.529600  0.726700  0.031200  1
  C  C948  1  0.470400  0.273300  0.968800  1
  C  C949  1  0.490800  0.777600  0.086000  1
  C  C950  1  0.509200  0.222400  0.914000  1
  C  C951  1  0.461600  0.777300  0.048700  1
  C  C952  1  0.538400  0.222700  0.951300  1
  C  C953  1  0.428300  0.802700  0.054600  1
  C  C954  1  0.571700  0.197300  0.945400  1
  C  C955  1  0.424200  0.828500  0.097700  1
  C  C956  1  0.575800  0.171500  0.902300  1
  C  C957  1  0.453400  0.828900  0.135000  1
  C  C958  1  0.546600  0.171100  0.865000  1
  C  C959  1  0.486700  0.803500  0.129200  1
  C  C960  1  0.513300  0.196500  0.870800  1
  C  C961  1  0.527600  0.752300  0.073800  1
  C  C962  1  0.472400  0.247700  0.926200  1
  C  C963  1  0.123000  0.807900  0.078300  1
  C  C964  1  0.877000  0.192100  0.921700  1
  C  C965  1  0.080900  0.771500  0.089700  1
  C  C966  1  0.919100  0.228500  0.910300  1
  C  C967  1  0.120300  0.851400  0.077600  1
  C  C968  1  0.879700  0.148600  0.922400  1
  C  C969  1  0.152800  0.884000  0.064500  1
  C  C970  1  0.847200  0.116000  0.935500  1
  C  C971  1  0.142600  0.926700  0.057700  1
  C  C972  1  0.857400  0.073300  0.942300  1
  C  C973  1  0.185400  0.424300  0.344800  1
  C  C974  1  0.814600  0.575700  0.655200  1
  C  C975  1  0.175000  0.267700  0.412400  1
  C  C976  1  0.825000  0.732300  0.587600  1
  C  C977  1  0.123700  0.358800  0.398700  1
  C  C978  1  0.876300  0.641200  0.601300  1
  C  C979  1  0.128000  0.316800  0.412200  1
  C  C980  1  0.872000  0.683200  0.587800  1
  C  C981  1  0.185100  0.463200  0.325700  1
  C  C982  1  0.814900  0.536800  0.674300  1
  C  C983  1  0.024200  0.535900  0.398600  1
  C  C984  1  0.975800  0.464100  0.601400  1
  C  C985  1  0.136300  0.587300  0.400400  1
  C  C986  1  0.863700  0.412700  0.599600  1
  C  C987  1  0.043700  0.545700  0.360900  1
  C  C988  1  0.956300  0.454300  0.639100  1
  C  C989  1  0.219000  0.257300  0.397900  1
  C  C990  1  0.781000  0.742700  0.602100  1
  C  C991  1  0.221600  0.476300  0.304700  1
  C  C992  1  0.778400  0.523700  0.695300  1
  C  C993  1  0.181500  0.575700  0.414300  1
  C  C994  1  0.818500  0.424300  0.585700  1
  C  C995  1  0.229800  0.221600  0.408600  1
  C  C996  1  0.770200  0.778400  0.591400  1
  C  C997  1  0.105000  0.259200  0.443500  1
  C  C998  1  0.895000  0.740800  0.556500  1
  C  C999  1  0.096700  0.294900  0.433200  1
  C  C1000  1  0.903300  0.705100  0.566800  1
  C  C1001  1  0.144500  0.242400  0.431700  1
  C  C1002  1  0.855500  0.757600  0.568300  1
  C  C1003  1  0.180800  0.529900  0.290500  1
  C  C1004  1  0.819200  0.470100  0.709500  1
  C  C1005  1  0.145000  0.513800  0.311000  1
  C  C1006  1  0.855000  0.486200  0.689000  1
  C  C1007  1  0.104000  0.532100  0.316500  1
  C  C1008  1  0.896000  0.467900  0.683500  1
  C  C1009  1  0.219900  0.511900  0.285400  1
  C  C1010  1  0.780100  0.488100  0.714600  1
  C  C1011  1  0.158100  0.205100  0.440800  1
  C  C1012  1  0.841900  0.794900  0.559200  1
  C  C1013  1  0.201800  0.196500  0.430700  1
  C  C1014  1  0.798200  0.803500  0.569300  1
  C  C1015  1  0.395200  0.521900  0.952900  1
  C  C1016  1  0.604800  0.478100  0.047100  1
  C  C1017  1  0.424900  0.381300  0.969000  1
  C  C1018  1  0.575100  0.618700  0.031000  1
  C  C1019  1  0.421900  0.508500  0.985900  1
  C  C1020  1  0.578100  0.491500  0.014100  1
  C  C1021  1  0.176300  0.091000  0.927500  1
  C  C1022  1  0.823700  0.909000  0.072500  1
  C  C1023  1  0.166000  0.130700  0.965100  1
  C  C1024  1  0.834000  0.869300  0.034900  1
  C  C1025  1  0.469200  0.474100  0.036700  1
  C  C1026  1  0.530800  0.525900  0.963300  1
  C  C1027  1  0.436000  0.436100  0.989200  1
  C  C1028  1  0.564000  0.563900  0.010800  1
  C  C1029  1  0.429600  0.610500  0.016100  1
  C  C1030  1  0.570400  0.389500  0.983900  1
  C  C1031  1  0.343100  0.269800  0.914100  1
  C  C1032  1  0.656900  0.730200  0.085900  1
  C  C1033  1  0.472600  0.522700  0.054900  1
  C  C1034  1  0.527400  0.477300  0.945100  1
  C  C1035  1  0.449500  0.542700  0.029500  1
  C  C1036  1  0.550500  0.457300  0.970500  1
  C  C1037  1  0.401600  0.573600  0.971500  1
  C  C1038  1  0.598400  0.426400  0.028500  1
  C  C1039  1  0.171200  0.159400  0.853300  1
  C  C1040  1  0.828800  0.840600  0.146700  1
  C  C1041  1  0.323500  0.211600  0.881700  1
  C  C1042  1  0.676500  0.788400  0.118300  1
  C  C1043  1  0.228500  0.090500  0.876100  1
  C  C1044  1  0.771500  0.909500  0.123900  1
  C  C1045  1  0.344900  0.192600  0.846500  1
  C  C1046  1  0.655100  0.807400  0.153500  1
  C  C1047  1  0.452700  0.593100  0.043100  1
  C  C1048  1  0.547300  0.406900  0.956900  1
  C  C1049  1  0.269300  0.126300  0.863200  1
  C  C1050  1  0.730700  0.873700  0.136800  1
  C  C1051  1  0.327200  0.141700  0.818200  1
  C  C1052  1  0.672800  0.858300  0.181800  1
  C  C1053  1  0.156200  0.114800  0.866500  1
  C  C1054  1  0.843800  0.885200  0.133500  1
  C  C1055  1  0.285200  0.103900  0.825500  1
  C  C1056  1  0.714800  0.896100  0.174500  1
  C  C1057  1  0.370200  0.783600  0.581700  1
  C  C1058  1  0.629800  0.216400  0.418300  1
  C  C1059  1  0.230200  0.997300  0.560600  1
  C  C1060  1  0.769800  0.002700  0.439400  1
  C  C1061  1  0.379600  0.740000  0.552200  1
  C  C1062  1  0.620400  0.260000  0.447800  1
  C  C1063  1  0.346000  0.653400  0.504200  1
  C  C1064  1  0.654000  0.346600  0.495800  1
  C  C1065  1  0.303300  0.605500  0.486000  1
  C  C1066  1  0.696700  0.394500  0.514000  1
  C  C1067  1  0.301500  0.846500  0.604600  1
  C  C1068  1  0.698500  0.153500  0.395400  1
  C  C1069  1  0.304400  0.561600  0.451800  1
  C  C1070  1  0.695600  0.438400  0.548200  1
  C  C1071  1  0.165900  0.925300  0.564600  1
  C  C1072  1  0.834100  0.074700  0.435400  1
  C  C1073  1  0.232200  0.975500  0.511900  1
  C  C1074  1  0.767800  0.024500  0.488100  1
  C  C1075  1  0.284300  0.881600  0.635700  1
  C  C1076  1  0.715700  0.118400  0.364300  1
  C  C1077  1  0.256100  0.949500  0.647200  1
  C  C1078  1  0.743900  0.050500  0.352800  1
  C  C1079  1  0.425700  0.746800  0.542500  1
  C  C1080  1  0.574300  0.253200  0.457500  1
  C  C1081  1  0.242400  0.983200  0.627300  1
  C  C1082  1  0.757600  0.016800  0.372700  1
  C  C1083  1  0.155900  0.869400  0.562900  1
  C  C1084  1  0.844100  0.130600  0.437100  1
  C  C1085  1  0.391700  0.658600  0.491700  1
  C  C1086  1  0.608300  0.341400  0.508300  1
  C  C1087  1  0.431500  0.704800  0.509500  1
  C  C1088  1  0.568500  0.295200  0.490500  1
  C  C1089  1  0.286000  0.888900  0.680300  1
  C  C1090  1  0.714000  0.111100  0.319700  1
  C  C1091  1  0.254100  0.952700  0.688700  1
  C  C1092  1  0.745900  0.047300  0.311300  1
  C  C1093  1  0.265300  0.923500  0.706700  1
  C  C1094  1  0.734700  0.076500  0.293300  1
  C  C1095  1  0.348200  0.563800  0.435800  1
  C  C1096  1  0.651800  0.436200  0.564200  1
  C  C1097  1  0.390200  0.611500  0.453300  1
  C  C1098  1  0.609800  0.388500  0.546700  1
  C  C1099  1  0.385900  0.972000  0.626600  1
  C  C1100  1  0.614100  0.028000  0.373400  1
  C  C1101  1  0.446800  0.803600  0.896000  1
  C  C1102  1  0.553200  0.196400  0.104000  1
  C  C1103  1  0.476400  0.843400  0.888100  1
  C  C1104  1  0.523600  0.156600  0.111900  1
  C  C1105  1  0.316900  0.635500  0.846100  1
  C  C1106  1  0.683100  0.364500  0.153900  1
  C  C1107  1  0.281700  0.605300  0.967100  1
  C  C1108  1  0.718300  0.394700  0.032900  1
  C  C1109  1  0.312300  0.633500  0.945400  1
  C  C1110  1  0.687700  0.366500  0.054600  1
  C  C1111  1  0.349600  0.673800  0.831600  1
  C  C1112  1  0.650400  0.326200  0.168400  1
  C  C1113  1  0.207500  0.536900  0.959600  1
  C  C1114  1  0.792500  0.463100  0.040400  1
  C  C1115  1  0.472600  0.841700  0.845400  1
  C  C1116  1  0.527400  0.158300  0.154600  1
  C  C1117  1  0.407000  0.750400  0.811700  1
  C  C1118  1  0.593000  0.249600  0.188300  1
  C  C1119  1  0.411900  0.755100  0.856100  1
  C  C1120  1  0.588100  0.244900  0.143900  1
  C  C1121  1  0.374400  0.703700  0.776900  1
  C  C1122  1  0.625600  0.296300  0.223100  1
  C  C1123  1  0.221300  0.554100  0.006700  1
  C  C1124  1  0.778700  0.445900  0.993300  1
  C  C1125  1  0.299600  0.622900  0.015600  1
  C  C1126  1  0.700400  0.377100  0.984400  1
  C  C1127  1  0.157900  0.490100  0.926300  1
  C  C1128  1  0.842100  0.509900  0.073700  1
  C  C1129  1  0.265000  0.595800  0.036200  1
  C  C1130  1  0.735000  0.404200  0.963800  1
  C  C1131  1  0.440500  0.794600  0.806900  1
  C  C1132  1  0.559500  0.205400  0.193100  1
  C  C1133  1  0.347800  0.664300  0.787000  1
  C  C1134  1  0.652200  0.335700  0.213000  1
  C  C1135  1  0.196900  0.432000  0.889600  1
  C  C1136  1  0.803100  0.568000  0.110400  1
  C  C1137  1  0.254800  0.467300  0.907600  1
  C  C1138  1  0.745200  0.532700  0.092400  1
  C  C1139  1  0.117200  0.428100  0.851600  1
  C  C1140  1  0.882800  0.571900  0.148400  1
  C  C1141  1  0.121900  0.408800  0.807400  1
  C  C1142  1  0.878100  0.591200  0.192600  1
  C  C1143  1  0.475900  0.919400  0.017700  1
  C  C1144  1  0.524100  0.080600  0.982300  1
  C  C1145  1  0.325900  0.018100  0.127200  1
  C  C1146  1  0.674100  0.981900  0.872800  1
  C  C1147  1  0.384700  0.124700  0.163000  1
  C  C1148  1  0.615300  0.875300  0.837000  1
  C  C1149  1  0.318300  0.047600  0.104500  1
  C  C1150  1  0.681700  0.952400  0.895500  1
  C  C1151  1  0.299800  0.961500  0.109200  1
  C  C1152  1  0.700200  0.038500  0.890800  1
  C  C1153  1  0.392100  0.093300  0.185400  1
  C  C1154  1  0.607900  0.906700  0.814600  1
  C  C1155  1  0.309000  0.875100  0.150200  1
  C  C1156  1  0.691000  0.124900  0.849800  1
  C  C1157  1  0.430200  0.113600  0.227600  1
  C  C1158  1  0.569800  0.886400  0.772400  1
  C  C1159  1  0.459100  0.168100  0.245200  1
  C  C1160  1  0.540900  0.831900  0.754800  1
  C  C1161  1  0.347200  0.099600  0.123700  1
  C  C1162  1  0.652800  0.900400  0.876300  1
  C  C1163  1  0.285400  0.815900  0.139800  1
  C  C1164  1  0.714600  0.184100  0.860200  1
  C  C1165  1  0.233000  0.702600  0.992500  1
  C  C1166  1  0.767000  0.297400  0.007500  1
  C  C1167  1  0.187000  0.697700  0.048500  1
  C  C1168  1  0.813000  0.302300  0.951500  1
  C  C1169  1  0.228600  0.733100  0.090800  1
  C  C1170  1  0.771400  0.266900  0.909200  1
  C  C1171  1  0.302400  0.803500  0.173300  1
  C  C1172  1  0.697600  0.196500  0.826700  1
  C  C1173  1  0.288200  0.740000  0.021100  1
  C  C1174  1  0.711800  0.260000  0.978900  1
  C  C1175  1  0.416700  0.179900  0.185800  1
  C  C1176  1  0.583300  0.820100  0.814200  1
  C  C1177  1  0.144700  0.717900  0.947400  1
  C  C1178  1  0.855300  0.282100  0.052600  1
  C  C1179  1  0.241300  0.716800  0.121500  1
  C  C1180  1  0.758700  0.283200  0.878500  1
  C  C1181  1  0.145400  0.692600  0.978500  1
  C  C1182  1  0.854600  0.307400  0.021500  1
  C  C1183  1  0.452500  0.200000  0.226000  1
  C  C1184  1  0.547500  0.800000  0.774000  1
  C  C1185  1  0.279400  0.749900  0.162800  1
  C  C1186  1  0.720600  0.250100  0.837200  1
  C  C1187  1  0.224800  0.078800  0.026300  1
  C  C1188  1  0.775200  0.921200  0.973700  1
  C  C1189  1  0.151300  0.143400  0.085000  1
  C  C1190  1  0.848700  0.856600  0.915000  1
  C  C1191  1  0.167900  0.102400  0.060200  1
  C  C1192  1  0.832100  0.897600  0.939800  1
  C  C1193  1  0.147400  0.009500  0.014100  1
  C  C1194  1  0.852600  0.990500  0.985900  1
  C  C1195  1  0.292100  0.062200  0.991400  1
  C  C1196  1  0.707900  0.937800  0.008600  1
  C  C1197  1  0.081100  0.345600  0.167100  1
  C  C1198  1  0.918900  0.654400  0.832900  1
  C  C1199  1  0.134600  0.358900  0.161700  1
  C  C1200  1  0.865400  0.641100  0.838300  1
  C  C1201  1  0.013100  0.288800  0.179900  1
  C  C1202  1  0.986900  0.711200  0.820100  1
  C  C1203  1  0.196600  0.024900  0.007000  1
  C  C1204  1  0.803400  0.975100  0.993000  1
  C  C1205  1  0.274200  0.098000  0.018600  1
  C  C1206  1  0.725800  0.902000  0.981400  1
  C  C1207  1  0.992100  0.238300  0.184800  1
  C  C1208  1  0.007900  0.761700  0.815200  1
  C  C1209  1  0.133300  0.048500  0.041600  1
  C  C1210  1  0.866700  0.951500  0.958400  1
  C  C1211  1  0.262900  0.010400  0.974600  1
  C  C1212  1  0.737100  0.989600  0.025400  1
  C  C1213  1  0.203500  0.271900  0.119700  1
  C  C1214  1  0.796500  0.728100  0.880300  1
  C  C1215  1  0.191200  0.322300  0.138900  1
  C  C1216  1  0.808800  0.677700  0.861100  1
  C  C1217  1  0.214800  0.990700  0.978600  1
  C  C1218  1  0.785200  0.009300  0.021400  1
  C  C1219  1  0.094400  0.328600  0.234400  1
  C  C1220  1  0.905600  0.671400  0.765600  1
  C  C1221  1  0.167200  0.406600  0.167000  1
  C  C1222  1  0.832800  0.593400  0.833000  1
  C  C1223  1  0.214300  0.412400  0.159000  1
  C  C1224  1  0.785700  0.587600  0.841000  1
  C  C1225  1  0.228100  0.370400  0.143100  1
  C  C1226  1  0.771900  0.629600  0.856900  1
  C  C1227  1  0.147900  0.328000  0.240500  1
  C  C1228  1  0.852100  0.672000  0.759500  1
  C  C1229  1  0.364800  0.197600  0.971700  1
  C  C1230  1  0.635200  0.802400  0.028300  1
  C  C1231  1  0.092000  0.937200  0.369300  1
  C  C1232  1  0.908000  0.062800  0.630700  1
  C  C1233  1  0.134900  0.984500  0.390400  1
  C  C1234  1  0.865100  0.015500  0.609600  1
  C  C1235  1  0.090000  0.895800  0.333000  1
  C  C1236  1  0.910000  0.104200  0.667000  1
  C  C1237  1  0.137600  0.025200  0.436300  1
  C  C1238  1  0.862400  0.974800  0.563700  1
  C  C1239  1  0.038900  0.847100  0.304500  1
  C  C1240  1  0.961100  0.152900  0.695500  1
  C  C1241  1  0.070300  0.127200  0.164400  1
  C  C1242  1  0.929700  0.872800  0.835600  1
  C  C1243  1  0.089600  0.183800  0.289200  1
  C  C1244  1  0.910400  0.816200  0.710800  1
  C  C1245  1  0.100900  0.239200  0.297600  1
  C  C1246  1  0.899100  0.760800  0.702400  1
  C  C1247  1  0.202800  0.123300  0.180800  1
  C  C1248  1  0.797200  0.876700  0.819200  1
  C  C1249  1  0.204000  0.074500  0.160200  1
  C  C1250  1  0.796000  0.925500  0.839800  1
  C  C1251  1  0.146000  0.097300  0.216100  1
  C  C1252  1  0.854000  0.902700  0.783900  1
  C  C1253  1  0.119300  0.117100  0.250800  1
  C  C1254  1  0.880700  0.882900  0.749200  1
  C  C1255  1  0.057700  0.135900  0.209200  1
  C  C1256  1  0.942300  0.864100  0.790800  1
  C  C1257  1  0.235000  0.170300  0.176100  1
  C  C1258  1  0.765000  0.829700  0.823900  1
  C  C1259  1  0.367000  0.309500  0.104300  1
  C  C1260  1  0.633000  0.690500  0.895700  1
  C  C1261  1  0.412400  0.352700  0.131700  1
  C  C1262  1  0.587600  0.647300  0.868300  1
  C  C1263  1  0.432200  0.392200  0.118400  1
  C  C1264  1  0.567800  0.607800  0.881600  1
  C  C1265  1  0.406600  0.388300  0.077700  1
  C  C1266  1  0.593400  0.611700  0.922300  1
  C  C1267  1  0.361200  0.345100  0.050300  1
  C  C1268  1  0.638800  0.654900  0.949700  1
  C  C1269  1  0.341400  0.305600  0.063600  1
  C  C1270  1  0.658600  0.694400  0.936400  1
  C  C1271  1  0.143800  0.046500  0.195300  1
  C  C1272  1  0.856200  0.953500  0.804700  1
  C  C1273  1  0.336600  0.235900  0.165400  1
  C  C1274  1  0.663400  0.764100  0.834600  1
  C  C1275  1  0.170100  0.037700  0.170200  1
  C  C1276  1  0.829900  0.962300  0.829800  1
  C  C1277  1  0.367600  0.272700  0.156900  1
  C  C1278  1  0.632400  0.727300  0.843100  1
  C  C1279  1  0.411300  0.320500  0.186500  1
  C  C1280  1  0.588700  0.679500  0.813500  1
  C  C1281  1  0.433800  0.350900  0.174100  1
  C  C1282  1  0.566200  0.649100  0.825900  1
  C  C1283  1  0.050400  0.709200  0.492800  1
  C  C1284  1  0.949600  0.290800  0.507200  1
  C  C1285  1  0.018600  0.675200  0.450400  1
  C  C1286  1  0.981400  0.324800  0.549600  1
  C  C1287  1  0.030400  0.676400  0.411900  1
  C  C1288  1  0.969600  0.323600  0.588100  1
  C  C1289  1  0.036000  0.705900  0.535600  1
  C  C1290  1  0.964000  0.294100  0.464400  1
  C  C1291  1  0.991600  0.645000  0.368000  1
  C  C1292  1  0.008400  0.355000  0.632000  1
  C  C1293  1  0.126500  0.572700  0.856700  1
  C  C1294  1  0.873500  0.427300  0.143300  1
  C  C1295  1  0.176700  0.594700  0.810700  1
  C  C1296  1  0.823300  0.405300  0.189300  1
  C  C1297  1  0.136200  0.594900  0.830300  1
  C  C1298  1  0.863800  0.405100  0.169700  1
  C  C1299  1  0.192300  0.621100  0.782400  1
  C  C1300  1  0.807700  0.378900  0.217600  1
  C  C1301  1  0.073700  0.570000  0.875300  1
  C  C1302  1  0.926300  0.430000  0.124700  1
  C  C1303  1  0.253400  0.277900  0.849500  1
  C  C1304  1  0.746600  0.722100  0.150500  1
  C  C1305  1  0.358300  0.307100  0.799700  1
  C  C1306  1  0.641700  0.692900  0.200300  1
  C  C1307  1  0.174600  0.383100  0.014500  1
  C  C1308  1  0.825400  0.616900  0.985500  1
  C  C1309  1  0.242100  0.397200  0.983600  1
  C  C1310  1  0.757900  0.602800  0.016400  1
  C  C1311  1  0.281900  0.267800  0.814500  1
  C  C1312  1  0.718100  0.732200  0.185500  1
  C  C1313  1  0.403800  0.357400  0.815800  1
  C  C1314  1  0.596200  0.642600  0.184200  1
  C  C1315  1  0.265400  0.448700  0.017600  1
  C  C1316  1  0.734600  0.551300  0.982400  1
  C  C1317  1  0.267700  0.382300  0.948200  1
  C  C1318  1  0.732300  0.617700  0.051800  1
  C  C1319  1  0.204700  0.291400  0.020500  1
  C  C1320  1  0.795300  0.708600  0.979500  1
  C  C1321  1  0.268300  0.221600  0.777100  1
  C  C1322  1  0.731700  0.778400  0.222900  1
  C  C1323  1  0.242100  0.465700  0.050900  1
  C  C1324  1  0.757900  0.534300  0.949100  1
  C  C1325  1  0.198400  0.430900  0.048000  1
  C  C1326  1  0.801600  0.569100  0.952000  1
  C  C1327  1  0.149100  0.272000  0.016700  1
  C  C1328  1  0.850900  0.728000  0.983300  1
  C  C1329  1  0.300500  0.220300  0.750500  1
  C  C1330  1  0.699500  0.779700  0.249500  1
  C  C1331  1  0.069000  0.248900  0.973200  1
  C  C1332  1  0.931000  0.751100  0.026800  1
  C  C1333  1  0.126300  0.339300  0.006800  1
  C  C1334  1  0.873700  0.660700  0.993200  1
  C  C1335  1  0.347100  0.262400  0.758300  1
  C  C1336  1  0.652900  0.737600  0.241700  1
  C  C1337  1  0.435100  0.355600  0.785400  1
  C  C1338  1  0.564900  0.644400  0.214600  1
  C  C1339  1  0.423700  0.309800  0.747100  1
  C  C1340  1  0.576300  0.690200  0.252900  1
  C  C1341  1  0.379800  0.265400  0.732300  1
  C  C1342  1  0.620200  0.734600  0.267700  1
  C  C1343  1  0.059500  0.195600  0.937800  1
  C  C1344  1  0.940500  0.804400  0.062200  1
  C  C1345  1  0.456300  0.506200  0.844300  1
  C  C1346  1  0.543700  0.493800  0.155700  1
  C  C1347  1  0.109100  0.248500  0.814600  1
  C  C1348  1  0.890900  0.751500  0.185400  1
  C  C1349  1  0.110800  0.225900  0.769100  1
  C  C1350  1  0.889200  0.774100  0.230900  1
  C  C1351  1  0.072700  0.291600  0.865500  1
  C  C1352  1  0.927300  0.708400  0.134500  1
  C  C1353  1  0.072500  0.273200  0.826600  1
  C  C1354  1  0.927500  0.726800  0.173400  1
  C  C1355  1  0.030200  0.325000  0.880300  1
  C  C1356  1  0.969800  0.675000  0.119700  1
  C  C1357  1  0.428200  0.196900  0.071800  1
  C  C1358  1  0.571800  0.803100  0.928200  1
  N  N1359  1  0.196900  0.739500  0.493200  1
  N  N1360  1  0.803100  0.260500  0.506800  1
  N  N1361  1  0.203900  0.731500  0.532600  1
  N  N1362  1  0.796100  0.268500  0.467400  1
  N  N1363  1  0.182100  0.727600  0.409800  1
  N  N1364  1  0.817900  0.272400  0.590200  1
  N  N1365  1  0.222800  0.723800  0.609000  1
  N  N1366  1  0.777200  0.276200  0.391000  1
  N  N1367  1  0.133500  0.788400  0.391400  1
  N  N1368  1  0.866500  0.211600  0.608600  1
  N  N1369  1  0.410400  0.945100  0.471900  1
  N  N1370  1  0.589600  0.054900  0.528100  1
  N  N1371  1  0.416700  0.078900  0.460800  1
  N  N1372  1  0.583300  0.921100  0.539200  1
  N  N1373  1  0.303500  0.110000  0.309600  1
  N  N1374  1  0.696500  0.890000  0.690400  1
  N  N1375  1  0.364900  0.123700  0.389900  1
  N  N1376  1  0.635100  0.876300  0.610100  1
  N  N1377  1  0.412700  0.029600  0.458700  1
  N  N1378  1  0.587300  0.970400  0.541300  1
  N  N1379  1  0.270800  0.408100  0.436200  1
  N  N1380  1  0.729200  0.591900  0.563800  1
  N  N1381  1  0.116400  0.529200  0.539100  1
  N  N1382  1  0.883600  0.470800  0.460900  1
  N  N1383  1  0.171500  0.466700  0.526600  1
  N  N1384  1  0.828500  0.533300  0.473400  1
  N  N1385  1  0.309500  0.386800  0.365800  1
  N  N1386  1  0.690500  0.613200  0.634200  1
  N  N1387  1  0.251400  0.409900  0.472200  1
  N  N1388  1  0.748600  0.590100  0.527800  1
  N  N1389  1  0.309700  0.851700  0.932100  1
  N  N1390  1  0.690300  0.148300  0.067900  1
  N  N1391  1  0.374200  0.937800  0.013100  1
  N  N1392  1  0.625800  0.062200  0.986900  1
  N  N1393  1  0.447900  0.974300  0.241400  1
  N  N1394  1  0.552100  0.025700  0.758600  1
  N  N1395  1  0.435500  0.998300  0.128500  1
  N  N1396  1  0.564500  0.001700  0.871500  1
  N  N1397  1  0.438200  0.983400  0.164100  1
  N  N1398  1  0.561800  0.016600  0.835900  1
  N  N1399  1  0.287300  0.994400  0.429200  1
  N  N1400  1  0.712700  0.005600  0.570800  1
  N  N1401  1  0.263900  0.956000  0.385500  1
  N  N1402  1  0.736100  0.044000  0.614500  1
  N  N1403  1  0.339100  0.066100  0.513300  1
  N  N1404  1  0.660900  0.933900  0.486700  1
  N  N1405  1  0.166300  0.882100  0.236900  1
  N  N1406  1  0.833700  0.117900  0.763100  1
  N  N1407  1  0.220700  0.870300  0.306700  1
  N  N1408  1  0.779300  0.129700  0.693300  1
  N  N1409  1  0.460900  0.750800  0.006800  1
  N  N1410  1  0.539100  0.249200  0.993200  1
  N  N1411  1  0.372000  0.524600  0.791900  1
  N  N1412  1  0.628000  0.475400  0.208100  1
  N  N1413  1  0.447000  0.684200  0.922500  1
  N  N1414  1  0.553000  0.315800  0.077500  1
  N  N1415  1  0.443100  0.656000  0.879300  1
  N  N1416  1  0.556900  0.344000  0.120700  1
  N  N1417  1  0.296900  0.428100  0.758800  1
  N  N1418  1  0.703100  0.571900  0.241200  1
  N  N1419  1  0.167400  0.304800  0.401200  1
  N  N1420  1  0.832600  0.695200  0.598800  1
  N  N1421  1  0.093400  0.540600  0.362800  1
  N  N1422  1  0.906600  0.459400  0.637200  1
  N  N1423  1  0.152600  0.374200  0.375700  1
  N  N1424  1  0.847400  0.625800  0.624300  1
  N  N1425  1  0.147400  0.481600  0.328300  1
  N  N1426  1  0.852600  0.518400  0.671700  1
  N  N1427  1  0.147300  0.412000  0.363700  1
  N  N1428  1  0.852700  0.588000  0.636300  1
  N  N1429  1  0.413800  0.453300  0.964200  1
  N  N1430  1  0.586200  0.546700  0.035800  1
  N  N1431  1  0.199900  0.117100  0.899800  1
  N  N1432  1  0.800100  0.882900  0.100200  1
  N  N1433  1  0.388900  0.353800  0.931000  1
  N  N1434  1  0.611100  0.646200  0.069000  1
  N  N1435  1  0.379100  0.301200  0.906300  1
  N  N1436  1  0.620900  0.698800  0.093700  1
  N  N1437  1  0.285900  0.177100  0.889300  1
  N  N1438  1  0.714100  0.822900  0.110700  1
  N  N1439  1  0.339600  0.693500  0.534800  1
  N  N1440  1  0.660400  0.306500  0.465200  1
  N  N1441  1  0.270100  0.913600  0.621300  1
  N  N1442  1  0.729900  0.086400  0.378700  1
  N  N1443  1  0.316100  0.817200  0.618000  1
  N  N1444  1  0.683900  0.182800  0.382000  1
  N  N1445  1  0.222900  0.958500  0.578900  1
  N  N1446  1  0.777100  0.041500  0.421100  1
  N  N1447  1  0.322800  0.775400  0.585500  1
  N  N1448  1  0.677200  0.224600  0.414500  1
  N  N1449  1  0.380600  0.717700  0.865500  1
  N  N1450  1  0.619400  0.282300  0.134500  1
  N  N1451  1  0.321900  0.650100  0.888900  1
  N  N1452  1  0.678100  0.349900  0.111100  1
  N  N1453  1  0.292200  0.612700  0.901600  1
  N  N1454  1  0.707800  0.387300  0.098400  1
  N  N1455  1  0.235900  0.565300  0.940900  1
  N  N1456  1  0.764100  0.434700  0.059100  1
  N  N1457  1  0.166800  0.462800  0.884400  1
  N  N1458  1  0.833200  0.537200  0.115600  1
  N  N1459  1  0.309800  0.939500  0.135900  1
  N  N1460  1  0.690200  0.060500  0.864100  1
  N  N1461  1  0.249800  0.785100  0.102400  1
  N  N1462  1  0.750200  0.214900  0.897600  1
  N  N1463  1  0.288200  0.886400  0.120500  1
  N  N1464  1  0.711800  0.113600  0.879500  1
  N  N1465  1  0.362000  0.040400  0.166900  1
  N  N1466  1  0.638000  0.959600  0.833100  1
  N  N1467  1  0.195800  0.717400  0.013000  1
  N  N1468  1  0.804200  0.282600  0.987000  1
  N  N1469  1  0.210700  0.115000  0.050100  1
  N  N1470  1  0.789300  0.885000  0.949900  1
  N  N1471  1  0.165900  0.229600  0.113000  1
  N  N1472  1  0.834100  0.770400  0.887000  1
  N  N1473  1  0.067200  0.306500  0.185600  1
  N  N1474  1  0.932800  0.693500  0.814400  1
  N  N1475  1  0.180300  0.188200  0.089700  1
  N  N1476  1  0.819700  0.811800  0.910300  1
  N  N1477  1  0.146300  0.314800  0.145200  1
  N  N1478  1  0.853700  0.685200  0.854800  1
  N  N1479  1  0.176800  0.137100  0.209500  1
  N  N1480  1  0.823200  0.862900  0.790500  1
  N  N1481  1  0.101800  0.157300  0.247400  1
  N  N1482  1  0.898200  0.842700  0.752600  1
  N  N1483  1  0.292900  0.204900  0.139700  1
  N  N1484  1  0.707100  0.795100  0.860300  1
  N  N1485  1  0.267400  0.165400  0.150200  1
  N  N1486  1  0.732600  0.834600  0.849800  1
  N  N1487  1  0.347300  0.273100  0.115200  1
  N  N1488  1  0.652700  0.726900  0.884800  1
  N  N1489  1  0.193900  0.363600  0.978900  1
  N  N1490  1  0.806100  0.636400  0.021100  1
  N  N1491  1  0.240900  0.332200  0.913100  1
  N  N1492  1  0.759100  0.667800  0.086900  1
  N  N1493  1  0.327100  0.311700  0.827000  1
  N  N1494  1  0.672900  0.688300  0.173000  1
  N  N1495  1  0.267200  0.323900  0.880800  1
  N  N1496  1  0.732800  0.676100  0.119200  1
  N  N1497  1  0.122500  0.284700  0.985800  1
  N  N1498  1  0.877500  0.715300  0.014200  1
  Cl  Cl1499  1  0.122900  0.822200  0.920700  1
  Cl  Cl1500  1  0.877100  0.177800  0.079300  1
  Cl  Cl1501  1  0.101900  0.495700  0.677620  1
  Cl  Cl1502  1  0.898100  0.504300  0.322380  1
  Cl  Cl1503  1  0.918400  0.415100  0.339600  1
  Cl  Cl1504  1  0.081600  0.584900  0.660400  1
  Cl  Cl1505  1  0.176200  0.970900  0.767500  1
  Cl  Cl1506  1  0.823800  0.029100  0.232500  1
  Cl  Cl1507  1  0.862600  0.260700  0.175500  1
  Cl  Cl1508  1  0.137400  0.739300  0.824500  1
  Cl  Cl1509  1  0.542800  0.106000  0.289700  1
  Cl  Cl1510  1  0.457200  0.894000  0.710300  1
  Cl  Cl1511  1  0.015300  0.125100  0.814900  1
  Cl  Cl1512  1  0.984700  0.874900  0.185100  1
  O  O1513  1  0.220100  0.838800  0.467900  1
  O  O1514  1  0.779900  0.161200  0.532100  1
  O  O1515  1  0.281400  0.671400  0.610300  1
  O  O1516  1  0.718600  0.328600  0.389700  1
  O  O1517  1  0.254400  0.698600  0.482400  1
  O  O1518  1  0.745600  0.301400  0.517600  1
  O  O1519  1  0.088900  0.820000  0.457200  1
  O  O1520  1  0.911100  0.180000  0.542800  1
  O  O1521  1  0.321100  0.027600  0.244300  1
  O  O1522  1  0.678900  0.972400  0.755700  1
  O  O1523  1  0.336200  0.906800  0.502800  1
  O  O1524  1  0.663800  0.093200  0.497200  1
  O  O1525  1  0.371700  0.037600  0.384000  1
  O  O1526  1  0.628300  0.962400  0.616000  1
  O  O1527  1  0.259700  0.038100  0.344800  1
  O  O1528  1  0.740300  0.961900  0.655200  1
  O  O1529  1  0.413600  0.106900  0.324300  1
  O  O1530  1  0.586400  0.893100  0.675700  1
  O  O1531  1  0.179500  0.613300  0.523700  1
  O  O1532  1  0.820500  0.386700  0.476300  1
  O  O1533  1  0.222900  0.473100  0.467900  1
  O  O1534  1  0.777100  0.526900  0.532100  1
  O  O1535  1  0.241600  0.311300  0.288400  1
  O  O1536  1  0.758400  0.688700  0.711600  1
  O  O1537  1  0.104800  0.465300  0.447100  1
  O  O1538  1  0.895200  0.534700  0.552900  1
  O  O1539  1  0.332400  0.770300  0.941000  1
  O  O1540  1  0.667600  0.229700  0.059000  1
  O  O1541  1  0.275400  0.863000  0.012700  1
  O  O1542  1  0.724600  0.137000  0.987300  1
  O  O1543  1  0.378000  0.991000  0.283300  1
  O  O1544  1  0.622000  0.009000  0.716700  1
  O  O1545  1  0.389200  0.911000  0.078600  1
  O  O1546  1  0.610800  0.089000  0.921400  1
  O  O1547  1  0.035300  0.429200  0.305700  1
  O  O1548  1  0.964700  0.570800  0.694300  1
  O  O1549  1  0.032400  0.378200  0.359400  1
  O  O1550  1  0.967600  0.621800  0.640600  1
  O  O1551  1  0.317700  0.920000  0.408500  1
  O  O1552  1  0.682300  0.080000  0.591500  1
  O  O1553  1  0.267900  0.957500  0.285800  1
  O  O1554  1  0.732100  0.042500  0.714200  1
  O  O1555  1  0.393700  0.035100  0.559300  1
  O  O1556  1  0.606300  0.964900  0.440700  1
  O  O1557  1  0.148200  0.970500  0.275500  1
  O  O1558  1  0.851800  0.029500  0.724500  1
  O  O1559  1  0.039700  0.242200  0.087700  1
  O  O1560  1  0.960300  0.757800  0.912300  1
  O  O1561  1  0.049900  0.152500  0.079600  1
  O  O1562  1  0.950100  0.847500  0.920400  1
  O  O1563  1  0.388200  0.579600  0.879200  1
  O  O1564  1  0.611800  0.420400  0.120800  1
  O  O1565  1  0.398500  0.799400  0.018200  1
  O  O1566  1  0.601500  0.200600  0.981800  1
  O  O1567  1  0.304600  0.406400  0.836500  1
  O  O1568  1  0.695400  0.593600  0.163500  1
  O  O1569  1  0.270400  0.511800  0.811500  1
  O  O1570  1  0.729600  0.488200  0.188500  1
  O  O1571  1  0.156200  0.791200  0.070200  1
  O  O1572  1  0.843800  0.208800  0.929800  1
  O  O1573  1  0.191800  0.876100  0.053000  1
  O  O1574  1  0.808200  0.123900  0.947000  1
  O  O1575  1  0.021400  0.486600  0.395500  1
  O  O1576  1  0.978600  0.513400  0.604500  1
  O  O1577  1  0.245100  0.283200  0.379900  1
  O  O1578  1  0.754900  0.716800  0.620100  1
  O  O1579  1  0.221400  0.409300  0.342600  1
  O  O1580  1  0.778600  0.590700  0.657400  1
  O  O1581  1  0.164300  0.532500  0.425500  1
  O  O1582  1  0.835700  0.467500  0.574500  1
  O  O1583  1  0.212200  0.175500  0.993800  1
  O  O1584  1  0.787800  0.824500  0.006200  1
  O  O1585  1  0.371600  0.487400  0.911600  1
  O  O1586  1  0.628400  0.512600  0.088400  1
  O  O1587  1  0.315500  0.276900  0.941500  1
  O  O1588  1  0.684500  0.723100  0.058500  1
  O  O1589  1  0.196200  0.210000  0.895300  1
  O  O1590  1  0.803800  0.790000  0.104700  1
  O  O1591  1  0.261400  0.602100  0.501900  1
  O  O1592  1  0.738600  0.397900  0.498100  1
  O  O1593  1  0.272000  0.957700  0.509800  1
  O  O1594  1  0.728000  0.042300  0.490200  1
  O  O1595  1  0.295100  0.843700  0.563500  1
  O  O1596  1  0.704900  0.156300  0.436500  1
  O  O1597  1  0.184300  0.845800  0.535300  1
  O  O1598  1  0.815700  0.154200  0.464700  1
  O  O1599  1  0.345700  0.975100  0.596200  1
  O  O1600  1  0.654300  0.024900  0.403800  1
  O  O1601  1  0.450000  0.801900  0.936900  1
  O  O1602  1  0.550000  0.198100  0.063100  1
  O  O1603  1  0.268400  0.490900  0.880100  1
  O  O1604  1  0.731600  0.509100  0.119900  1
  O  O1605  1  0.352000  0.673400  0.970900  1
  O  O1606  1  0.648000  0.326600  0.029100  1
  O  O1607  1  0.155300  0.451100  0.797400  1
  O  O1608  1  0.844700  0.548900  0.202600  1
  O  O1609  1  0.430100  0.878700  0.987500  1
  O  O1610  1  0.569900  0.121300  0.012500  1
  O  O1611  1  0.435200  0.082400  0.244600  1
  O  O1612  1  0.564800  0.917600  0.755400  1
  O  O1613  1  0.293100  0.791000  0.028100  1
  O  O1614  1  0.706900  0.209000  0.971900  1
  O  O1615  1  0.167200  0.773600  0.972600  1
  O  O1616  1  0.832800  0.226400  0.027400  1
  O  O1617  1  0.344700  0.905600  0.186200  1
  O  O1618  1  0.655300  0.094400  0.813800  1
  O  O1619  1  0.240900  0.569500  0.569700  1
  O  O1620  1  0.759100  0.430500  0.430300  1
  O  O1621  1  0.301200  0.151600  0.037800  1
  O  O1622  1  0.698800  0.848400  0.962200  1
  O  O1623  1  0.011000  0.203600  0.160100  1
  O  O1624  1  0.989000  0.796400  0.839900  1
  O  O1625  1  0.145300  0.278500  0.214000  1
  O  O1626  1  0.854700  0.721500  0.786000  1
  O  O1627  1  0.246300  0.279300  0.111300  1
  O  O1628  1  0.753700  0.720700  0.888700  1
  O  O1629  1  0.313000  0.176100  0.970200  1
  O  O1630  1  0.687000  0.823900  0.029800  1
  O  O1631  1  0.175600  0.996300  0.379700  1
  O  O1632  1  0.824400  0.003700  0.620300  1
  O  O1633  1  0.125500  0.894800  0.316900  1
  O  O1634  1  0.874500  0.105200  0.683100  1
  O  O1635  1  0.151700  0.267000  0.302000  1
  O  O1636  1  0.848300  0.733000  0.698000  1
  O  O1637  1  0.108300  0.177800  0.171200  1
  O  O1638  1  0.891700  0.822200  0.828800  1
  O  O1639  1  0.232500  0.216600  0.195400  1
  O  O1640  1  0.767500  0.783400  0.804600  1
  O  O1641  1  0.300100  0.262000  0.034500  1
  O  O1642  1  0.699900  0.738000  0.965500  1
  O  O1643  1  0.093000  0.748800  0.504700  1
  O  O1644  1  0.907000  0.251200  0.495300  1
  O  O1645  1  0.073800  0.706600  0.412600  1
  O  O1646  1  0.926200  0.293400  0.587400  1
  O  O1647  1  0.150200  0.549400  0.870700  1
  O  O1648  1  0.849800  0.450600  0.129300  1
  O  O1649  1  0.204200  0.569400  0.814200  1
  O  O1650  1  0.795800  0.430600  0.185800  1
  O  O1651  1  0.230700  0.214900  0.294700  1
  O  O1652  1  0.769300  0.785100  0.705300  1
  O  O1653  1  0.411700  0.396600  0.853700  1
  O  O1654  1  0.588300  0.603400  0.146300  1
  O  O1655  1  0.212100  0.269500  0.976600  1
  O  O1656  1  0.787900  0.730500  0.023400  1
  O  O1657  1  0.309000  0.408700  0.948400  1
  O  O1658  1  0.691000  0.591300  0.051600  1
  O  O1659  1  0.087800  0.197500  0.905000  1
  O  O1660  1  0.912200  0.802500  0.095000  1
  O  O1661  1  0.406200  0.470300  0.831900  1
  O  O1662  1  0.593800  0.529700  0.168100  1
  O  O1663  1  0.138400  0.241600  0.838800  1
  O  O1664  1  0.861600  0.758400  0.161200  1
  O  O1665  1  0.099800  0.301400  0.904900  1
  O  O1666  1  0.900200  0.698600  0.095100  1
  O  O1667  1  0.072200  0.477200  0.189300  1
  O  O1668  1  0.927800  0.522800  0.810700  1
  O  O1669  1  0.507700  0.124400  0.375100  1
  O  O1670  1  0.492300  0.875600  0.624900  1
  O  O1671  1  0.090900  0.032600  0.307700  1
  O  O1672  1  0.909100  0.967400  0.692300  1
  O  O1673  1  0.446600  0.170200  0.032900  1
  O  O1674  1  0.553400  0.829800  0.967100  1
  O  O1675  1  0.040600  0.935100  0.125900  1
  O  O1676  1  0.959400  0.064900  0.874100  1
  O  O1677  1  0.349800  0.306900  0.411300  1
  O  O1678  1  0.650200  0.693100  0.588700  1
  O  O1679  1  0.434900  0.964900  0.882400  1
  O  O1680  1  0.565100  0.035100  0.117600  1
  O  O1681  1  0.991100  0.003500  0.232500  1
  O  O1682  1  0.008900  0.996500  0.767500  1
  F  F1683  1  0.948600  0.296100  0.358600  1
  F  F1684  1  0.051400  0.703900  0.641400  1
  F  F1685  1  0.006100  0.273700  0.338300  1
  F  F1686  1  0.993900  0.726300  0.661700  1
  F  F1687  1  0.937000  0.252800  0.292300  1
  F  F1688  1  0.063000  0.747200  0.707700  1
  F  F1689  1  0.965700  0.057000  0.974200  1
  F  F1690  1  0.034300  0.943000  0.025800  1
  F  F1691  1  0.045800  0.074600  0.994800  1
  F  F1692  1  0.954200  0.925400  0.005200  1
  F  F1693  1  0.996800  0.048600  0.032300  1
  F  F1694  1  0.003200  0.951400  0.967700  1
  F  F1695  1  0.101500  0.759100  0.120000  1
  F  F1696  1  0.898500  0.240900  0.880000  1
  F  F1697  1  0.055300  0.726000  0.052500  1
  F  F1698  1  0.944700  0.274000  0.947500  1
  F  F1699  1  0.048400  0.790800  0.103700  1
  F  F1700  1  0.951600  0.209200  0.896300  1
  F  F1701  1  0.156400  0.073300  0.436500  1
  F  F1702  1  0.843600  0.926700  0.563500  1
  F  F1703  1  0.163900  0.026700  0.469700  1
  F  F1704  1  0.836100  0.973300  0.530300  1
  F  F1705  1  0.089600  0.021600  0.440600  1
  F  F1706  1  0.910400  0.978400  0.559400  1
  F  F1707  1  0.993600  0.664600  0.525600  1
  F  F1708  1  0.006400  0.335400  0.474400  1
  F  F1709  1  0.027500  0.746500  0.560200  1
  F  F1710  1  0.972500  0.253500  0.439800  1
  F  F1711  1  0.071100  0.701400  0.560900  1
  F  F1712  1  0.928900  0.298600  0.439100  1
  F  F1713  1  0.231900  0.665600  0.801700  1
  F  F1714  1  0.768100  0.334400  0.198300  1
  F  F1715  1  0.156600  0.628300  0.758300  1
  F  F1716  1  0.843400  0.371700  0.241700  1
  F  F1717  1  0.212300  0.594300  0.740500  1
  F  F1718  1  0.787700  0.405700  0.259500  1
  F  F1719  1  0.081100  0.234400  0.746000  1
  F  F1720  1  0.918900  0.765600  0.254000  1
  F  F1721  1  0.111900  0.179000  0.750500  1
  F  F1722  1  0.888100  0.821000  0.249500  1
  F  F1723  1  0.156600  0.260500  0.764700  1
  F  F1724  1  0.843400  0.739500  0.235300  1
