
#######################################################################
#
#                 Cambridge Crystallographic Data Centre
#                                CCDC 
#
#######################################################################
#
# If this CIF has been generated from an entry in the Cambridge 
# Structural Database, then it will include bibliographic, chemical, 
# crystal, experimental, refinement or atomic coordinate data resulting 
# from the CCDC's data processing and validation procedures.
#
#######################################################################

data_MASTUY
_chemical_formula_moiety         
'C333 H323 Dy21 F21 N70 O77 7+,12(H2 O1),7(Cl1 1-),12(C1 H1 Cl3),3(C1 H4 O1)'
_chemical_name_systematic        
'heptakis(\m-2-[(2-[(6-([bis(2-oxidoethyl)amino]methyl)pyridin-2-yl)carbonyl]hydrazinylidene)methyl]quinolin-8-olato)-heptakis(\m-6-([bis(2-oxidoethyl)amino]methyl)-N-[(8-oxidoquinolin-2-yl)methylidene]pyridine-2-carbohydrazonato)-heptakis(1,1,1,5,5,5-hexafluoroacetylacetonato)-tetramethanol-triaqua-henicosa-dysprosium heptachloride methanol chloroform solvate'
_symmetry_cell_setting           triclinic
_symmetry_space_group_name_H-M   'P -1'
_symmetry_Int_Tables_number      2
_space_group_name_Hall           '-P 1'
loop_
_symmetry_equiv_pos_site_id
_symmetry_equiv_pos_as_xyz
1 x,y,z
2 -x,-y,-z
_cell_length_a                   28.633(3)
_cell_length_b                   29.970(3)
_cell_length_c                   33.075(3)
_cell_angle_alpha                111.748(2)
_cell_angle_beta                 97.588(2)
_cell_angle_gamma                108.631(2)
_cell_volume                     23948.5
_exptl_crystal_colour            red
_exptl_crystal_description       block
_cell_formula_units_Z            2
loop_
_atom_site_label
_atom_site_type_symbol
_atom_site_fract_x
_atom_site_fract_y
_atom_site_fract_z
Dy1 Dy 0.20636(2) 0.95299(3) 0.32135(2)
Dy2 Dy 0.34839(2) 0.84599(3) 0.00600(2)
Dy3 Dy 0.26779(2) 0.89773(3) 0.54021(2)
Dy4 Dy 0.21809(2) 0.33798(3) 0.35658(2)
Dy5 Dy 0.22997(2) 0.81699(3) 0.04490(2)
Dy6 Dy 0.09205(2) 0.46128(3) 0.37725(2)
Dy7 Dy 0.37707(2) 0.99620(3) 0.21317(2)
Dy8 Dy 0.39056(2) 0.73566(3) -0.05393(2)
Dy9 Dy 0.25483(2) 0.68165(3) 0.54565(2)
Dy10 Dy 0.14650(3) 0.77935(3) 0.46575(3)
O1 O 0.2201(4) 0.8388(4) 0.4679(3)
O2 O 0.2814(4) 0.6714(4) 0.6103(3)
O3 O 0.2544(3) 0.6986(4) 0.4824(3)
N1 N 0.1969(4) 0.7395(4) 0.4932(3)
N2 N 0.2039(4) 0.7315(4) 0.5326(4)
N3 N 0.1821(4) 0.7276(5) 0.4098(4)
N4 N 0.2228(4) 0.7238(4) 0.6090(4)
C1 C 0.1867(5) 0.7567(6) 0.5641(5)
H1 H 0.1695 0.7777 0.5598
O4 O 0.0889(5) 0.8200(5) 0.4572(5)
C2 C 0.2228(4) 0.7166(5) 0.4697(4)
N5 N 0.1335(5) 0.7884(5) 0.3914(4)
C3 C 0.2174(5) 0.7109(5) 0.4230(4)
C4 C 0.2353(6) 0.7170(5) 0.6472(4)
C5 C 0.1948(5) 0.7516(5) 0.6060(5)
C6 C 0.2644(5) 0.6889(5) 0.6469(5)
C7 C 0.2177(6) 0.7390(6) 0.6858(5)
C8 C 0.1767(6) 0.7741(6) 0.6431(5)
H2 H 0.1574 0.7945 0.6422
C9 C 0.1884(6) 0.7653(7) 0.6809(5)
H3 H 0.1747 0.7788 0.7051
C10 C 0.2303(6) 0.7279(7) 0.7225(5)
H4 H 0.2192 0.7412 0.7485
C11 C 0.2450(6) 0.6935(7) 0.3959(5)
H5 H 0.2721 0.6858 0.4075
C12 C 0.2276(6) 0.8403(7) 0.4267(5)
H6 H 0.2381 0.8118 0.4101
H7 H 0.2552 0.8742 0.4334
C13 C 0.1794(7) 0.8338(7) 0.3989(6)
H8 H 0.1838 0.8309 0.3689
H9 H 0.1731 0.8659 0.4136
C14 C 0.2345(7) 0.6864(7) 0.3506(5)
H10 H 0.2513 0.6708 0.3301
C15 C 0.1744(7) 0.7237(7) 0.3654(6)
C16 C 0.1342(7) 0.7434(7) 0.3532(6)
H11 H 0.1407 0.7536 0.3286
H12 H 0.0998 0.7142 0.3413
C17 C 0.2573(7) 0.6993(7) 0.7213(5)
H13 H 0.2650 0.6925 0.7467
C18 C 0.2750(7) 0.6784(6) 0.6842(6)
H14 H 0.2939 0.6575 0.6843
C19 C 0.0876(8) 0.7950(7) 0.3802(7)
H15 H 0.0635 0.7766 0.3509
C20 C 0.1989(7) 0.7032(7) 0.3382(6)
H16 H 0.1913 0.7000 0.3081
C21 C 0.0821(7) 0.8342(7) 0.4202(7)
H17 H 0.1082 0.8696 0.4287
H18 H 0.0476 0.8347 0.4133
Dy11 Dy 0.09120(3) 0.23119(3) 0.14332(2)
Dy12 Dy 0.34295(2) 0.97882(3) 0.48559(2)
Dy13 Dy 0.18511(2) 0.53175(3) 0.49359(2)
Dy14 Dy 0.33320(3) 0.49192(3) -0.15489(3)
Dy15 Dy 0.34889(3) 0.39684(3) -0.10871(3)
Dy16 Dy 0.26021(2) 0.20625(3) 0.06596(3)
Dy17 Dy 0.22025(3) 0.52753(3) -0.14279(3)
Dy18 Dy 0.33256(2) 1.03994(2) 0.31949(2)
Dy19 Dy 0.17503(3) 0.22702(3) 0.23770(2)
Dy20 Dy 0.25439(3) 0.21664(3) -0.04576(3)
Dy21 Dy 0.16301(3) 0.27014(4) -0.08083(4)
O5 O 0.3211(3) 1.0276(3) 0.2443(3)
O6 O 0.3362(3) 0.9068(4) 0.5028(3)
O7 O 0.3717(3) 1.0376(3) 0.3840(3)
O8 O 0.2597(3) 1.0381(3) 0.3448(3)
N6 N 0.4104(3) 0.9451(4) 0.4719(3)
N7 N 0.4167(4) 1.0789(5) 0.4608(3)
N8 N 0.3035(4) 1.1100(4) 0.3096(4)
N9 N 0.3649(5) 1.1237(4) 0.3899(4)
C22 C 0.4504(5) 1.0138(5) 0.4529(4)
H19 H 0.4795 1.0335 0.4469
C23 C 0.2864(5) 1.0459(5) 0.2302(4)
H20 H 0.2514 1.0247 0.2294
H21 H 0.2858 1.0426 0.1992
C24 C 0.3938(5) 1.0773(5) 0.4238(4)
C25 C 0.3625(5) 1.1677(5) 0.3882(5)
N10 N 0.4127(4) 1.0296(4) 0.4587(3)
C26 C 0.4369(5) 0.8745(6) 0.4610(4)
C27 C 0.3385(6) 1.1640(5) 0.3442(4)
H22 H 0.3661 1.1784 0.3317
H23 H 0.3187 1.1863 0.3495
C28 C 0.4042(5) 0.8995(5) 0.4734(4)
C29 C 0.3629(5) 0.8786(6) 0.4883(4)
C30 C 0.3870(6) 0.8079(6) 0.4766(5)
H24 H 0.3799 0.7748 0.4769
C31 C 0.4841(5) 0.9460(7) 0.4436(4)
H25 H 0.5114 0.9635 0.4342
C32 C 0.4467(5) 0.9659(6) 0.4561(5)
C33 C 0.3537(7) 0.8327(6) 0.4894(4)
H26 H 0.3253 0.8171 0.4987
C34 C 0.2494(6) 1.0970(6) 0.3142(5)
H27 H 0.2246 1.0678 0.2855
H28 H 0.2407 1.1279 0.3203
C35 C 0.3017(5) 1.1021(6) 0.2624(5)
H29 H 0.3360 1.1231 0.2618
H30 H 0.2770 1.1150 0.2520
C36 C 0.3917(6) 1.1257(7) 0.4285(5)
C37 C 0.4283(7) 0.8282(6) 0.4641(5)
H31 H 0.4510 0.8110 0.4574
C38 C 0.2458(5) 1.0815(6) 0.3531(5)
H32 H 0.2691 1.1115 0.3820
H33 H 0.2102 1.0720 0.3556
C39 C 0.4093(8) 1.2168(7) 0.4678(5)
H34 H 0.4224 1.2478 0.4956
C40 C 0.4780(6) 0.8984(7) 0.4460(5)
H35 H 0.5013 0.8824 0.4377
C41 C 0.3835(8) 1.2168(7) 0.4296(6)
H36 H 0.3794 1.2473 0.4302
C42 C 0.4168(7) 1.1736(7) 0.4667(5)
H37 H 0.4392 1.1764 0.4922
O9 O 0.4136(3) 1.1069(3) 0.3243(3)
H38 H 0.4177 1.1377 0.3435
H39 H 0.4127 1.1066 0.2980
O10 O 0.1795(3) 0.6133(4) 0.5237(3)
O11 O 0.2229(3) 0.4731(4) 0.4679(3)
O12 O 0.2416(3) 0.3113(4) 0.2884(3)
N11 N 0.2708(3) 0.4081(4) 0.4362(4)
O13 O 0.1048(3) 0.4653(3) 0.4471(3)
N12 N 0.1164(4) 0.5292(4) 0.5391(4)
N13 N 0.1715(4) 0.4667(4) 0.5266(3)
N14 N 0.3095(4) 0.3868(5) 0.3658(4)
N15 N 0.2514(4) 0.4099(5) 0.4722(4)
C43 C 0.1331(5) 0.6120(7) 0.5332(5)
H40 H 0.1054 0.5945 0.5043
H41 H 0.1359 0.6483 0.5494
C44 C 0.1447(5) 0.4655(5) 0.5567(4)
C45 C 0.0672(5) 0.4479(7) 0.4666(5)
H42 H 0.0454 0.4123 0.4571
C46 C 0.0659(5) 0.4943(6) 0.5052(4)
H43 H 0.0532 0.5148 0.4925
H44 H 0.0412 0.4812 0.5206
C47 C 0.3221(5) 0.3833(6) 0.3281(6)
C48 C 0.1193(5) 0.5836(6) 0.5613(6)
H45 H 0.1454 0.6028 0.5913
H46 H 0.0857 0.5824 0.5663
C49 C 0.2256(5) 0.4402(6) 0.4826(4)
C50 C 0.3186(5) 0.4321(6) 0.4431(5)
H47 H 0.3403 0.4552 0.4731
C51 C 0.2844(5) 0.3447(7) 0.2855(5)
C52 C 0.1255(6) 0.5091(6) 0.5730(5)
H48 H 0.0931 0.4958 0.5805
H49 H 0.1511 0.5384 0.6012
C53 C 0.1937(5) 0.4325(6) 0.5156(5)
C54 C 0.1867(6) 0.3948(6) 0.5301(5)
H50 H 0.2021 0.3702 0.5209
C55 C 0.1355(6) 0.4287(6) 0.5721(5)
H51 H 0.1146 0.4273 0.5920
C56 C 0.1573(7) 0.3937(6) 0.5580(5)
H52 H 0.1514 0.3674 0.5685
C57 C 0.3395(6) 0.4240(7) 0.4055(5)
C58 C 0.3705(6) 0.4155(8) 0.3257(7)
C59 C 0.2942(6) 0.3390(8) 0.2463(6)
H53 H 0.2705 0.3108 0.2188
C60 C 0.3883(6) 0.4580(8) 0.4072(7)
H54 H 0.4112 0.4850 0.4356
C61 C 0.4029(6) 0.4520(9) 0.3673(7)
H55 H 0.4363 0.4741 0.3694
C62 C 0.3802(9) 0.4117(9) 0.2864(7)
H56 H 0.4129 0.4329 0.2862
C63 C 0.3417(8) 0.3761(10) 0.2451(7)
H57 H 0.3462 0.3762 0.2172
O14 O 0.3324(3) 0.7703(3) -0.0590(3)
O15 O 0.2754(3) 0.8630(3) 0.0127(3)
O16 O 0.3780(3) 0.9910(3) 0.2833(3)
O17 O 0.3892(3) 0.9110(4) 0.0786(3)
N16 N 0.3097(4) 0.8517(4) -0.0679(4)
N17 N 0.3742(4) 0.9378(5) 0.0131(4)
N18 N 0.4479(5) 0.9743(5) 0.2414(4)
C64 C 0.4077(5) 0.9578(5) 0.0884(4)
N19 N 0.4355(5) 0.9983(5) 0.1285(4)
C65 C 0.3414(6) 0.8996(6) -0.0693(5)
H58 H 0.3202 0.9075 -0.0896
H59 H 0.3693 0.8938 -0.0824
C66 C 0.3651(5) 0.9468(5) -0.0228(5)
C67 C 0.3793(5) 0.9977(5) -0.0202(5)
H60 H 0.3728 1.0041 -0.0460
N20 N 0.4382(4) 0.9834(5) 0.1641(4)
C68 C 0.2933(5) 0.7601(6) -0.0958(4)
H61 H 0.2603 0.7528 -0.0881
H62 H 0.2897 0.7285 -0.1225
C69 C 0.4418(6) 0.9594(6) 0.2727(5)
C70 C 0.2586(5) 0.8542(5) -0.0638(5)
H63 H 0.2320 0.8180 -0.0776
H64 H 0.2496 0.8721 -0.0814
C71 C 0.3981(6) 0.9759(6) 0.0531(5)
C72 C 0.4147(5) 1.0286(7) 0.0617(5)
H65 H 0.4319 1.0558 0.0916
C73 C 0.3039(6) 0.8049(5) -0.1081(5)
H66 H 0.3358 0.8115 -0.1177
H67 H 0.2752 0.7966 -0.1336
C74 C 0.4042(6) 0.9667(6) 0.2936(5)
C75 C 0.4054(5) 1.0396(6) 0.0263(6)
H68 H 0.4158 1.0751 0.0314
C76 C 0.2576(5) 0.8826(6) -0.0149(5)
H69 H 0.2462 0.9103 -0.0048
C77 C 0.3920(6) 0.9440(6) 0.3257(5)
H70 H 0.3658 0.9486 0.3397
C78 C 0.4807(7) 0.9619(7) 0.2181(5)
C79 C 0.4173(8) 0.9171(7) 0.3352(6)
H71 H 0.4066 0.9004 0.3538
C80 C 0.4763(6) 0.9766(7) 0.1789(5)
H72 H 0.5036 0.9806 0.1652
C81 C 0.4587(8) 0.9125(8) 0.3192(6)
H73 H 0.4795 0.8978 0.3299
C82 C 0.4678(7) 0.9299(9) 0.2878(6)
C83 C 0.5116(7) 0.9385(9) 0.2330(8)
H74 H 0.5367 0.9318 0.2184
C84 C 0.5054(10) 0.9261(12) 0.2674(8)
H75 H 0.5288 0.9138 0.2782
O18 O 0.0353(3) 0.4292(4) 0.3057(3)
O19 O 0.0324(3) 0.3782(3) 0.3594(3)
C85 C -0.0031(4) 0.3415(5) 0.3241(5)
C86 C -0.0033(5) 0.3891(5) 0.2782(5)
F1 F -0.0514(5) 0.2961(5) 0.3586(4)
F2 F 0.0061(4) 0.2737(4) 0.3383(6)
F3 F -0.0630(6) 0.2528(4) 0.2923(4)
C87 C -0.0265(6) 0.2904(6) 0.3275(5)
C88 C -0.0331(6) 0.3922(8) 0.2384(5)
H76 H -0.0363 0.4259 0.2494
H77 H -0.0673 0.3636 0.2251
H78 H -0.0145 0.3895 0.2154
C89 C -0.0227(5) 0.3458(5) 0.2859(5)
H79 H -0.0518 0.3166 0.2634
O20 O 0.3177(3) 0.9200(3) 0.4085(3)
O21 O 0.2679(3) 0.9575(3) 0.2858(3)
O22 O 0.3937(3) 1.0351(4) 0.5593(3)
N21 N 0.2873(4) 0.9944(4) 0.4292(3)
O23 O 0.1482(4) 0.9705(4) 0.2755(4)
N22 N 0.2639(3) 0.9560(4) 0.3855(3)
N23 N 0.3391(4) 1.0661(4) 0.5133(4)
C90 C 0.2827(5) 0.9190(5) 0.3795(4)
N24 N 0.1663(5) 0.8821(4) 0.2369(4)
C91 C 0.3692(5) 1.1016(5) 0.5563(5)
C92 C 0.1968(5) 0.8263(6) 0.2657(4)
C93 C 0.2588(5) 0.8728(5) 0.3363(5)
N25 N 0.2207(4) 0.8703(4) 0.3067(4)
C94 C 0.2849(5) 1.0378(5) 0.4412(4)
H80 H 0.2657 1.0445 0.4201
C95 C 0.1579(6) 0.8301(5) 0.2350(4)
H81 H 0.1245 0.8166 0.2410
H82 H 0.1545 0.8063 0.2035
C96 C 0.3986(5) 1.0855(6) 0.5818(5)
C97 C 0.3114(5) 1.0789(5) 0.4876(5)
C98 C 0.2631(5) 0.9157(5) 0.2464(4)
H83 H 0.2679 0.8880 0.2536
H84 H 0.2897 0.9275 0.2320
C99 C 0.2104(6) 0.8944(5) 0.2143(5)
H85 H 0.2054 0.8619 0.1878
H86 H 0.2084 0.9202 0.2030
C100 C 0.2513(6) 0.7894(6) 0.2845(4)
H87 H 0.2626 0.7616 0.2774
C101 C 0.2114(6) 0.7870(5) 0.2545(5)
H88 H 0.1946 0.7572 0.2259
C102 C 0.3113(6) 1.1289(5) 0.5037(4)
H89 H 0.2905 1.1373 0.4853
C103 C 0.2747(6) 0.8346(6) 0.3258(4)
H90 H 0.3029 0.8377 0.3469
C104 C 0.4290(5) 1.1192(6) 0.6242(5)
H91 H 0.4478 1.1084 0.6418
C105 C 0.3712(6) 1.1536(7) 0.5743(6)
C106 C 0.4320(7) 1.1717(8) 0.6419(6)
H92 H 0.4540 1.1963 0.6715
C107 C 0.3417(7) 1.1657(6) 0.5465(6)
H93 H 0.3425 1.2001 0.5574
C108 C 0.1204(6) 0.8854(6) 0.2153(5)
H94 H 0.0914 0.8702 0.2261
H95 H 0.1111 0.8644 0.1821
C109 C 0.1284(7) 0.9406(7) 0.2255(5)
H96 H 0.1535 0.9548 0.2109
H97 H 0.0956 0.9425 0.2143
C110 C 0.4065(7) 1.1862(7) 0.6198(7)
H98 H 0.4105 1.2217 0.6339
O24 O 0.0397(4) 0.2422(4) 0.0877(3)
O25 O 0.0499(3) 0.1525(4) 0.0796(3)
C111 C 0.0167(4) 0.1343(6) 0.0409(5)
C112 C -0.0051(4) 0.1618(5) 0.0262(4)
H99 H -0.0295 0.1434 -0.0030
F4 F -0.0343(3) 0.0570(3) -0.0258(3)
F5 F 0.0458(3) 0.0746(4) -0.0052(3)
F6 F -0.0032(4) 0.0486(3) 0.0323(3)
C113 C 0.0057(5) 0.0793(5) 0.0111(5)
C114 C 0.0055(5) 0.2144(6) 0.0505(4)
C115 C -0.0250(5) 0.2414(6) 0.0349(5)
H100 H -0.0498 0.2452 0.0523
H101 H -0.0433 0.2202 0.0025
H102 H -0.0014 0.2761 0.0399
O26 O 0.3882(4) 0.5796(4) -0.1208(3)
O27 O 0.3985(3) 0.7994(4) 0.0182(3)
O28 O 0.3046(4) 0.4064(4) -0.1635(3)
O29 O 0.2704(4) 0.5118(4) -0.1885(4)
N26 N 0.4609(4) 0.7508(5) 0.0068(5)
N27 N 0.3720(6) 0.5246(6) -0.2081(5)
N28 N 0.4470(5) 0.6842(5) -0.0775(5)
N29 N 0.4431(5) 0.6560(5) -0.1207(6)
N30 N 0.2969(7) 0.4281(5) -0.2412(4)
C116 C 0.2504(8) 0.4357(6) -0.2571(6)
H103 H 0.2212 0.4145 -0.2499
H104 H 0.2417 0.4227 -0.2905
C117 C 0.4154(6) 0.6088(7) -0.1380(7)
C118 C 0.4841(6) 0.6922(6) -0.0496(8)
H105 H 0.5077 0.6771 -0.0587
C119 C 0.2651(7) 0.3706(6) -0.2048(6)
H106 H 0.2337 0.3776 -0.2034
H107 H 0.2569 0.3344 -0.2084
C120 C 0.2572(7) 0.4921(7) -0.2356(6)
H108 H 0.2846 0.5131 -0.2445
H109 H 0.2249 0.4949 -0.2466
C121 C 0.2806(8) 0.3749(7) -0.2455(6)
H110 H 0.3091 0.3632 -0.2493
H111 H 0.2512 0.3512 -0.2730
C122 C 0.4925(6) 0.7255(7) -0.0012(8)
C123 C 0.4058(8) 0.5791(8) -0.1882(8)
C124 C 0.3321(9) 0.4368(7) -0.2667(6)
H112 H 0.3130 0.4212 -0.2992
H113 H 0.3558 0.4196 -0.2638
C125 C 0.3618(10) 0.4934(9) -0.2504(8)
C126 C 0.4243(9) 0.6007(8) -0.2163(8)
H114 H 0.4441 0.6373 -0.2049
C127 C 0.3863(10) 0.5187(10) -0.2772(7)
H115 H 0.3815 0.4971 -0.3082
C128 C 0.4128(15) 0.5667(12) -0.2619(10)
H116 H 0.4254 0.5803 -0.2819
C129 C 0.5296(8) 0.7267(8) 0.0312(9)
H117 H 0.5537 0.7114 0.0242
C130 C 0.4908(4) 0.7776(4) 0.0860(4)
C131 C 0.4616(4) 0.7773(4) 0.0487(3)
C132 C 0.4283(4) 0.8027(5) 0.0546(3)
C133 C 0.4242(4) 0.8285(4) 0.0977(4)
H118 H 0.4014 0.8459 0.1017
C134 C 0.4534(6) 0.8289(5) 0.1350(3)
H119 H 0.4506 0.8465 0.1645
C135 C 0.4867(5) 0.8035(5) 0.1292(3)
H120 H 0.5067 0.8037 0.1547
C136 C 0.5276(9) 0.7523(9) 0.0738(9)
H121 H 0.5515 0.7544 0.0980
O30 O 0.1562(3) 0.7912(3) 0.0702(3)
O31 O 0.1918(3) 0.8761(4) 0.0530(3)
C137 C 0.1230(4) 0.8079(5) 0.0783(4)
F7 F 0.1015(3) 0.7591(4) 0.1200(3)
F8 F 0.0553(3) 0.7260(4) 0.0525(3)
F9 F 0.0484(3) 0.7908(4) 0.1037(4)
C138 C 0.0809(5) 0.7715(5) 0.0897(5)
C139 C 0.1203(5) 0.8514(5) 0.0776(5)
H122 H 0.0933 0.8602 0.0870
C140 C 0.1528(5) 0.8840(6) 0.0645(4)
C141 C 0.1426(5) 0.9267(6) 0.0577(7)
H123 H 0.1749 0.9577 0.0692
H124 H 0.1183 0.9354 0.0743
H125 H 0.1278 0.9151 0.0253
O32 O 0.0214(3) 0.4866(4) 0.3955(3)
O33 O 0.2451(3) 0.2832(4) 0.3799(3)
O34 O 0.2214(3) 0.4093(4) 0.3426(3)
O35 O 0.1643(4) 0.5325(3) 0.4255(3)
N31 N 0.1674(4) 0.3048(4) 0.4012(4)
N32 N 0.0934(4) 0.5406(4) 0.3628(3)
N33 N 0.1526(4) 0.3742(4) 0.3757(3)
N34 N 0.1474(4) 0.4816(5) 0.3283(4)
C142 C 0.1854(5) 0.4243(5) 0.3448(5)
C143 C 0.1750(5) 0.2677(5) 0.4124(4)
N35 N 0.1473(4) 0.4120(4) 0.3637(3)
C144 C 0.1237(5) 0.3588(5) 0.3987(4)
H126 H 0.0998 0.3737 0.4072
C145 C 0.1280(6) 0.3168(6) 0.4122(5)
C146 C 0.1851(5) 0.4632(6) 0.3257(5)
C147 C 0.0242(5) 0.5359(5) 0.3986(5)
H127 H 0.0476 0.5640 0.4284
H128 H -0.0103 0.5368 0.3963
C148 C 0.1363(6) 0.5873(6) 0.4004(4)
H129 H 0.1236 0.6003 0.4270
H130 H 0.1477 0.6155 0.3906
C149 C 0.0437(5) 0.5457(6) 0.3609(5)
H131 H 0.0185 0.5199 0.3311
H132 H 0.0480 0.5813 0.3648
C150 C 0.2190(6) 0.2573(6) 0.3979(5)
C151 C 0.2216(6) 0.4763(5) 0.3047(5)
H133 H 0.2473 0.4625 0.3029
C152 C 0.1815(6) 0.5757(6) 0.4143(5)
H134 H 0.2159 0.5940 0.4155
C153 C 0.2298(6) 0.2216(7) 0.4086(5)
H135 H 0.2577 0.2134 0.4006
C154 C 0.1050(5) 0.2592(6) 0.4435(5)
H136 H 0.0843 0.2443 0.4592
C155 C 0.0967(6) 0.2949(5) 0.4332(5)
H137 H 0.0694 0.3051 0.4402
C156 C 0.1445(7) 0.2424(6) 0.4317(6)
C157 C 0.1808(6) 0.5299(5) 0.2905(5)
H138 H 0.1791 0.5545 0.2793
C158 C 0.1450(5) 0.5138(6) 0.3110(5)
C159 C 0.1040(6) 0.5321(6) 0.3165(5)
H139 H 0.0723 0.5061 0.2918
H140 H 0.1135 0.5655 0.3138
C160 C 0.2199(6) 0.5119(6) 0.2854(5)
H141 H 0.2440 0.5224 0.2701
C161 C 0.1581(7) 0.2051(6) 0.4408(5)
H142 H 0.1376 0.1856 0.4537
C162 C 0.2018(8) 0.1965(9) 0.4307(7)
H143 H 0.2121 0.1733 0.4391
O36 O 0.2122(3) 0.1755(4) -0.0062(3)
O37 O 0.3716(3) 0.4874(3) -0.0884(3)
O38 O 0.3155(4) 0.2769(4) -0.0585(4)
O39 O 0.1962(4) 0.2100(5) -0.1047(4)
N36 N 0.4138(4) 0.4533(6) -0.0358(4)
N37 N 0.1999(5) 0.1171(5) -0.1002(4)
C163 C 0.3952(5) 0.5219(5) -0.0471(5)
N38 N 0.3889(5) 0.3538(6) -0.0690(5)
C164 C 0.4249(5) 0.3813(6) -0.0310(6)
H144 H 0.4427 0.3662 -0.0174
N39 N 0.3791(4) 0.3012(6) -0.0937(5)
N40 N 0.2859(5) 0.1771(6) -0.1107(5)
C165 C 0.4219(5) 0.5085(7) -0.0141(6)
C166 C 0.1763(5) 0.0910(6) -0.0725(5)
H145 H 0.2001 0.0787 -0.0596
H146 H 0.1438 0.0603 -0.0919
C167 C 0.1660(4) 0.1307(6) -0.0349(5)
H147 H 0.1415 0.1420 -0.0483
H148 H 0.1499 0.1142 -0.0165
C168 C 0.4692(5) 0.4741(8) 0.0367(6)
H149 H 0.4880 0.4629 0.0539
C169 C 0.4360(5) 0.4361(7) -0.0108(6)
C170 C 0.4296(6) 0.6105(7) 0.0161(7)
H150 H 0.4325 0.6457 0.0273
C171 C 0.3431(7) 0.2698(8) -0.0859(7)
C172 C 0.4726(6) 0.5227(7) 0.0549(7)
H151 H 0.4912 0.5448 0.0859
C173 C 0.4495(6) 0.5427(8) 0.0295(6)
C174 C 0.4016(6) 0.5736(7) -0.0285(6)
H152 H 0.3858 0.5851 -0.0475
C175 C 0.1712(6) 0.1594(8) -0.1467(6)
H153 H 0.1953 0.1559 -0.1654
H154 H 0.1403 0.1586 -0.1649
C176 C 0.3235(5) 0.2116(7) -0.1183(5)
C177 C 0.2285(7) 0.0905(7) -0.1239(6)
H155 H 0.2047 0.0591 -0.1518
H156 H 0.2456 0.0786 -0.1044
C178 C 0.3449(7) 0.1926(8) -0.1535(6)
H157 H 0.3728 0.2167 -0.1573
C179 C 0.4527(7) 0.5931(9) 0.0431(8)
H158 H 0.4723 0.6180 0.0734
C180 C 0.2693(7) 0.1263(8) -0.1368(6)
C181 C 0.3272(7) 0.1417(9) -0.1818(7)
H159 H 0.3412 0.1300 -0.2062
C182 C 0.1562(7) 0.1148(7) -0.1335(6)
H160 H 0.1435 0.0813 -0.1613
H161 H 0.1275 0.1153 -0.1198
C183 C 0.2852(8) 0.1039(9) -0.1745(6)
H162 H 0.2704 0.0674 -0.1939
O40 O 0.2614(3) 0.6021(4) 0.5019(3)
O41 O 0.2720(3) 0.9577(3) 0.5098(3)
O42 O 0.2951(3) 0.8437(3) 0.5635(3)
N41 N 0.3396(4) 0.6935(4) 0.5348(4)
O43 O 0.1843(3) 0.8458(4) 0.5353(3)
N42 N 0.2701(5) 0.9136(5) 0.6213(4)
N43 N 0.3161(5) 0.8172(5) 0.6180(4)
N44 N 0.2229(5) 0.9585(5) 0.5789(4)
C184 C 0.3702(5) 0.7836(5) 0.5817(5)
H163 H 0.3972 0.8174 0.5981
N45 N 0.3228(4) 0.7754(5) 0.5855(4)
C185 C 0.2302(5) 0.9973(5) 0.5606(4)
H164 H 0.2626 1.0283 0.5797
H165 H 0.2015 1.0091 0.5622
C186 C 0.3796(5) 0.7400(6) 0.5522(5)
C187 C 0.3460(5) 0.6534(6) 0.5042(5)
C188 C 0.3033(6) 0.6055(6) 0.4860(5)
C189 C 0.3015(6) 0.8465(6) 0.6046(5)
C190 C 0.3044(6) 0.5616(6) 0.4518(5)
H166 H 0.2750 0.5293 0.4390
C191 C 0.1659(6) 0.9253(6) 0.5646(6)
H167 H 0.1500 0.9210 0.5342
H168 H 0.1498 0.9432 0.5863
C192 C 0.2322(6) 0.9755(6) 0.5119(5)
H169 H 0.1990 0.9461 0.4921
H170 H 0.2385 1.0030 0.5012
C193 C 0.2843(6) 0.8816(6) 0.6357(5)
C194 C 0.2561(6) 0.9495(6) 0.6472(5)
C195 C 0.4257(6) 0.7468(8) 0.5425(6)
H171 H 0.4538 0.7800 0.5582
C196 C 0.2424(7) 0.9832(6) 0.6273(5)
H172 H 0.2163 0.9936 0.6405
H173 H 0.2734 1.0155 0.6366
C197 C 0.1559(7) 0.8694(7) 0.5629(6)
H174 H 0.1669 0.8730 0.5941
H175 H 0.1187 0.8467 0.5500
C198 C 0.3917(6) 0.6586(6) 0.4917(6)
C199 C 0.4315(6) 0.7048(8) 0.5095(7)
H176 H 0.4621 0.7091 0.5003
C200 C 0.2860(7) 0.8889(7) 0.6803(5)
H177 H 0.3007 0.8710 0.6929
C201 C 0.2541(8) 0.9527(7) 0.6887(5)
H178 H 0.2436 0.9786 0.7067
C202 C 0.2653(10) 0.9235(10) 0.7067(7)
H179 H 0.2600 0.9253 0.7350
C203 C 0.3482(7) 0.5638(8) 0.4358(8)
H180 H 0.3489 0.5331 0.4134
C204 C 0.3902(10) 0.6115(10) 0.4533(8)
H181 H 0.4183 0.6142 0.4406
O44 O 0.3457(4) 0.9751(3) 0.5962(3)
H182 H 0.3588(13) 1.0026(7) 0.5923(10)
C205 C 0.3859(8) 0.9720(9) 0.6266(7)
H183 H 0.3968 0.9448 0.6089
H184 H 0.3723 0.9633 0.6496
H185 H 0.4155 1.0059 0.6416
O45 O 0.4500(3) 0.8019(3) -0.0631(3)
O46 O 0.2684(4) 0.4909(4) -0.1199(4)
O47 O 0.3520(3) 0.6734(4) -0.0291(3)
N46 N 0.3806(4) 0.7177(4) -0.1345(4)
N47 N 0.3219(4) 0.6501(4) -0.1111(4)
N48 N 0.2922(4) 0.6127(4) -0.0984(4)
C206 C 0.4468(5) 0.8036(6) -0.1040(5)
N49 N 0.2359(4) 0.5653(5) -0.0591(5)
C207 C 0.4764(5) 0.8434(5) -0.1119(5)
H186 H 0.5012 0.8740 -0.0867
C208 C 0.3169(5) 0.6355(5) -0.1539(5)
H187 H 0.2931 0.6015 -0.1757
O48 O 0.1553(5) 0.4511(4) -0.2026(4)
C209 C 0.2817(5) 0.6053(5) -0.0329(5)
C210 C 0.3123(5) 0.6335(6) -0.0546(6)
C211 C 0.3496(5) 0.6738(5) -0.1684(5)
N50 N 0.1668(5) 0.4628(5) -0.1156(5)
C212 C 0.2075(6) 0.5369(6) -0.0404(6)
C213 C 0.4726(6) 0.8417(7) -0.1546(5)
H188 H 0.4914 0.8720 -0.1580
C214 C 0.4070(6) 0.7504(6) -0.1883(5)
C215 C 0.4119(6) 0.7551(6) -0.1439(6)
C216 C 0.3744(6) 0.7037(6) -0.2231(6)
H189 H 0.3702 0.6985 -0.2537
C217 C 0.2213(5) 0.5541(6) 0.0067(7)
H190 H 0.1987 0.5354 0.0189
C218 C 0.2996(6) 0.6229(7) 0.0156(6)
H191 H 0.3321 0.6507 0.0334
C219 C 0.1579(6) 0.4901(7) -0.0737(7)
H192 H 0.1455 0.4659 -0.0600
H193 H 0.1310 0.5029 -0.0795
C220 C 0.2650(7) 0.5958(7) 0.0362(7)
H194 H 0.2728 0.6067 0.0681
C221 C 0.4405(7) 0.7946(7) -0.1931(6)
H195 H 0.4409 0.7918 -0.2226
C222 C 0.3478(7) 0.6643(6) -0.2130(6)
H196 H 0.3280 0.6301 -0.2367
C223 C 0.1969(6) 0.4320(7) -0.1104(7)
H197 H 0.1898 0.4024 -0.1400
H198 H 0.1865 0.4176 -0.0889
C224 C 0.2548(6) 0.4673(6) -0.0924(6)
H199 H 0.2776 0.4719 -0.0661
C225 C 0.1172(7) 0.4281(7) -0.1484(7)
H200 H 0.1012 0.3985 -0.1413
H201 H 0.0945 0.4473 -0.1465
C226 C 0.1219(8) 0.4088(7) -0.1926(8)
H202 H 0.0873 0.3912 -0.2145
H203 H 0.1368 0.3823 -0.1966
O49 O 0.4301(3) 0.8787(3) -0.0125(3)
H204 H 0.4353(9) 0.8623(17) -0.0375(8)
C227 C 0.4759(5) 0.9194(7) 0.0177(7)
H205 H 0.5050 0.9110 0.0101
H206 H 0.4764 0.9241 0.0487
H207 H 0.4786 0.9519 0.0156
O50 O 0.4352(3) 1.0824(4) 0.2446(3)
O51 O 0.2931(3) 0.7910(3) 0.0281(3)
N51 N 0.3098(4) 0.9395(4) 0.1359(4)
O52 O 0.1672(3) 0.7736(4) -0.0274(3)
O53 O 0.3447(4) 0.9056(4) 0.1862(3)
N52 N 0.2498(4) 0.7851(5) 0.1024(4)
N53 N 0.2882(4) 0.8864(4) 0.1205(4)
C228 C 0.3259(5) 1.0181(5) 0.1272(4)
C229 C 0.3847(5) 1.1247(5) 0.1630(5)
C230 C 0.3183(5) 1.0476(5) 0.1045(4)
H208 H 0.2930 1.0313 0.0760
C231 C 0.2998(4) 0.9615(4) 0.1092(5)
H209 H 0.2764 0.9411 0.0796
C232 C 0.3921(5) 1.0933(6) 0.1854(4)
C233 C 0.3090(5) 0.8751(5) 0.1502(5)
N54 N 0.3620(4) 1.0404(4) 0.1669(4)
C234 C 0.4302(5) 1.1136(5) 0.2276(4)
C235 C 0.4591(5) 1.1681(6) 0.2452(5)
H210 H 0.4857 1.1842 0.2728
N55 N 0.1958(5) 0.7174(5) 0.0130(4)
C236 C 0.3472(5) 1.0996(6) 0.1237(5)
H211 H 0.3407 1.1194 0.1086
C237 C 0.2854(5) 0.8159(6) 0.1398(6)
C238 C 0.2330(5) 0.7026(5) -0.0075(5)
H212 H 0.2277 0.7021 -0.0379
H213 H 0.2277 0.6667 -0.0117
C239 C 0.1870(6) 0.6977(5) 0.0485(5)
H214 H 0.1535 0.6965 0.0540
H215 H 0.1861 0.6619 0.0377
C240 C 0.2286(6) 0.7331(6) 0.0908(5)
C241 C 0.3024(7) 0.8035(7) 0.1733(6)
H216 H 0.3275 0.8289 0.2012
C242 C 0.2882(5) 0.7400(5) 0.0211(5)
H217 H 0.3142 0.7307 0.0321
C243 C 0.4167(6) 1.1799(7) 0.1858(6)
H218 H 0.4128 1.2023 0.1726
C244 C 0.1447(6) 0.7179(5) -0.0526(7)
H219 H 0.1642 0.7069 -0.0743
H220 H 0.1088 0.7063 -0.0702
C245 C 0.2413(6) 0.7168(7) 0.1215(6)
H221 H 0.2237 0.6810 0.1148
C246 C 0.1454(6) 0.6926(6) -0.0215(6)
H222 H 0.1184 0.6952 -0.0060
H223 H 0.1374 0.6550 -0.0394
C247 C 0.4525(6) 1.2000(7) 0.2260(5)
H224 H 0.4732 1.2366 0.2411
C248 C 0.2794(8) 0.7499(7) 0.1628(7)
H225 H 0.2894 0.7368 0.1831
O54 O 0.2409(4) 0.5695(4) 0.5697(3)
H226 H 0.2622 0.5546 0.5700
H227 H 0.2229 0.5649 0.5879
O55 O 0.3012(3) 0.1516(4) 0.0378(3)
O56 O 0.0110(4) 0.2036(4) 0.1601(3)
O57 O 0.1453(4) 0.2785(3) 0.2140(3)
N56 N 0.2107(4) 0.1150(4) 0.0501(4)
N57 N 0.1659(4) 0.2296(4) 0.1130(4)
N58 N 0.0672(5) 0.3065(5) 0.1856(4)
N59 N 0.1803(4) 0.1882(4) 0.0897(4)
C249 C 0.2248(5) 0.0788(5) 0.0263(5)
N60 N 0.1463(4) 0.3148(4) 0.1452(4)
C250 C 0.1513(5) 0.1434(6) 0.0850(4)
H228 H 0.1221 0.1373 0.0962
C251 C 0.1679(5) 0.1024(5) 0.0602(4)
C252 C 0.1474(5) 0.0095(6) 0.0141(5)
H229 H 0.1245 -0.0264 0.0007
C253 C 0.2921(5) 0.0622(6) -0.0086(5)
H230 H 0.3239 0.0742 -0.0150
C254 C 0.0811(5) 0.3456(6) 0.1671(5)
H231 H 0.0785 0.3780 0.1876
H232 H 0.0562 0.3316 0.1371
C255 C 0.1346(6) 0.3589(6) 0.1617(5)
C256 C 0.0131(6) 0.2888(7) 0.1799(5)
H233 H -0.0046 0.2830 0.1494
H234 H 0.0059 0.3162 0.2028
C257 C 0.1966(5) 0.0249(6) 0.0070(5)
C258 C 0.2742(5) 0.0980(5) 0.0186(5)
C259 C -0.0079(6) 0.2383(6) 0.1848(6)
H235 H -0.0307 0.2317 0.2023
C260 C 0.1333(5) 0.0485(6) 0.0416(5)
H236 H 0.1010 0.0393 0.0477
O58 O 0.2463(3) 0.2793(4) 0.1113(4)
C261 C 0.2629(6) 0.0104(6) -0.0254(6)
H237 H 0.2768 -0.0136 -0.0408
C262 C 0.2035(5) 0.2719(7) 0.1197(6)
C263 C 0.1912(7) 0.3223(6) 0.1389(5)
C264 C 0.2148(6) -0.0093(7) -0.0214(5)
H238 H 0.1939 -0.0457 -0.0377
C265 C 0.0944(6) 0.3286(6) 0.2344(5)
H239 H 0.0743 0.3079 0.2483
H240 H 0.0973 0.3651 0.2502
C266 C 0.1672(7) 0.4066(6) 0.1670(6)
H241 H 0.1576 0.4355 0.1761
C267 C 0.2143(8) 0.4124(8) 0.1590(8)
H242 H 0.2378 0.4461 0.1645
C268 C 0.2281(7) 0.3704(7) 0.1431(8)
H243 H 0.2594 0.3731 0.1355
C269 C 0.1479(7) 0.3280(7) 0.2405(6)
H244 H 0.1700 0.3537 0.2317
H245 H 0.1636 0.3383 0.2728
O59 O 0.3130(3) 0.1761(4) -0.0298(3)
H246 H 0.3102(9) 0.1561(8) -0.0166(8)
C270 C 0.3648(8) 0.1976(9) -0.0283(8)
H247 H 0.3675 0.2092 -0.0523
H248 H 0.3791 0.1710 -0.0330
H249 H 0.3840 0.2276 0.0013
O60 O 0.1756(4) 0.9963(4) 0.3797(3)
O61 O 0.1255(4) 0.8948(4) 0.3169(3)
C271 C 0.0920(6) 0.9372(7) 0.3693(7)
H250 H 0.0630 0.9340 0.3809
C272 C 0.1349(6) 0.9845(8) 0.3904(6)
F10 F 0.1564(6) 1.0733(6) 0.4365(5)
F11 F 0.1639(7) 1.0267(7) 0.4697(4)
F12 F 0.0896(5) 1.0216(7) 0.4406(6)
C273 C 0.0900(6) 0.8958(7) 0.3330(7)
C274 C 0.1376(8) 1.0252(9) 0.4363(7)
C275 C 0.0389(6) 0.8471(9) 0.3045(7)
H251 H 0.0264 0.8474 0.2756
H252 H 0.0133 0.8482 0.3213
H253 H 0.0447 0.8150 0.2986
O62 O 0.1517(3) 0.2670(4) 0.3020(3)
O63 O 0.1083(3) 0.1778(4) 0.1712(3)
O64 O 0.2325(3) 0.2166(4) 0.1954(3)
O65 O 0.3001(4) 0.2620(4) 0.0345(4)
N61 N 0.1768(5) 0.1371(6) 0.2095(4)
N62 N 0.1018(5) 0.1573(5) 0.2474(4)
C276 C 0.0703(6) 0.1272(6) 0.1644(5)
H254 H 0.0847 0.1002 0.1560
H255 H 0.0390 0.1154 0.1399
N63 N 0.2929(5) 0.2049(6) 0.1397(4)
N64 N 0.2674(5) 0.1654(6) 0.1502(4)
C277 C 0.0896(6) 0.1838(6) 0.2892(5)
H256 H 0.1105 0.1831 0.3151
H257 H 0.0529 0.1655 0.2861
C278 C 0.1009(6) 0.2392(6) 0.2976(5)
H258 H 0.0759 0.2538 0.2997
C279 C 0.2028(7) 0.1233(6) 0.1808(5)
C280 C 0.2040(8) 0.0745(7) 0.1602(5)
H259 H 0.2255 0.0669 0.1414
N65 N 0.3473(5) 0.2731(6) 0.1152(6)
C281 C 0.1460(7) 0.0973(7) 0.2161(5)
C282 C 0.1193(8) 0.1171(7) 0.2508(6)
H260 H 0.0891 0.0869 0.2476
H261 H 0.1431 0.1319 0.2815
C283 C 0.0577(5) 0.1359(7) 0.2092(5)
H262 H 0.0397 0.1600 0.2151
H263 H 0.0337 0.1020 0.2064
C284 C 0.2350(7) 0.1703(10) 0.1761(5)
C285 C 0.3670(5) 0.3095(5) 0.1043(5)
C286 C 0.4124(6) 0.3527(7) 0.1317(5)
C287 C 0.4322(6) 0.3922(6) 0.1184(6)
H264 H 0.4632 0.4217 0.1371
C288 C 0.4066(8) 0.3883(5) 0.0777(6)
H265 H 0.4201 0.4153 0.0686
C289 C 0.3612(7) 0.3451(6) 0.0503(5)
H266 H 0.3437 0.3424 0.0225
C290 C 0.3414(4) 0.3056(4) 0.0636(5)
C291 C 0.1438(8) 0.0465(8) 0.1953(6)
H267 H 0.1221 0.0194 0.2009
C292 C 0.3366(8) 0.2359(10) 0.1654(7)
H268 H 0.3482 0.2331 0.1923
C293 C 0.1701(7) 0.0377(8) 0.1702(6)
H269 H 0.1674 0.0027 0.1560
C294 C 0.3676(7) 0.2727(12) 0.1569(7)
C295 C 0.4113(9) 0.3205(12) 0.1865(11)
H270 H 0.4226 0.3279 0.2175
C296 C 0.4338(9) 0.3509(12) 0.1741(8)
H271 H 0.4675 0.3757 0.1923
O66 O 0.0930(3) 0.7488(4) 0.5047(4)
O67 O 0.0738(3) 0.7066(4) 0.4126(4)
C297 C 0.0504(6) 0.7092(6) 0.4928(6)
C298 C 0.0186(5) 0.6752(6) 0.4504(6)
H272 H -0.0132 0.6494 0.4473
F13 F -0.0064(4) 0.6646(4) 0.5256(4)
F14 F 0.0275(4) 0.7465(4) 0.5602(4)
F15 F 0.0711(5) 0.7014(6) 0.5609(5)
C299 C 0.0304(6) 0.6764(6) 0.4119(7)
C300 C 0.0360(6) 0.7059(8) 0.5356(8)
C301 C -0.0084(6) 0.6450(7) 0.3680(8)
H273 H -0.0301 0.6636 0.3643
H274 H -0.0298 0.6112 0.3664
H275 H 0.0085 0.6393 0.3438
O68 O 0.1502(4) 0.5494(4) -0.1293(4)
O69 O 0.2042(4) 0.5694(4) -0.1858(4)
C302 C 0.1265(7) 0.5727(7) -0.1433(7)
C303 C 0.1767(7) 0.5947(7) -0.1893(7)
C304 C 0.1362(7) 0.5949(8) -0.1697(8)
H276 H 0.1153 0.6119 -0.1760
F16 F 0.2319(7) 0.6656(6) -0.1983(5)
F17 F 0.1566(6) 0.6283(7) -0.2417(6)
F18 F 0.2123(8) 0.5943(7) -0.2595(7)
C305 C 0.1923(7) 0.6211(7) -0.2176(8)
C306 C 0.0737(9) 0.5700(9) -0.1247(8)
H277 H 0.0579 0.5363 -0.1237
H278 H 0.0491 0.5735 -0.1456
H279 H 0.0834 0.5986 -0.0942
O70 O 0.2307(4) 0.2149(4) 0.2947(3)
H280 H 0.2257 0.1822 0.2851
H281 H 0.2235 0.2252 0.3204
O71 O 0.4117(4) 0.3966(4) -0.1463(4)
O72 O 0.2121(4) 0.2695(5) -0.0234(4)
O73 O 0.3090(4) 0.4087(5) -0.0516(4)
N66 N 0.1939(5) 0.3636(5) -0.0211(5)
N67 N 0.2409(4) 0.3322(6) -0.0869(5)
N68 N 0.3271(5) 0.3117(5) -0.1730(4)
O74 O 0.0878(4) 0.1975(5) -0.0950(5)
N69 N 0.2672(5) 0.3239(5) -0.1192(5)
C307 C 0.2534(5) 0.2779(6) -0.1505(6)
H282 H 0.2248 0.2499 -0.1518
C308 C 0.3583(7) 0.3071(7) -0.2003(7)
C309 C 0.1746(5) 0.3831(7) 0.0145(6)
C310 C 0.2421(6) 0.3972(6) -0.0164(6)
C311 C 0.2819(6) 0.2678(6) -0.1855(5)
C312 C 0.4038(6) 0.3574(7) -0.1842(7)
N70 N 0.1225(6) 0.2847(6) -0.0142(6)
C313 C 0.2654(6) 0.4487(8) 0.0176(6)
H283 H 0.2971 0.4720 0.0179
C314 C 0.2677(6) 0.3823(7) -0.0518(6)
C315 C 0.2047(7) 0.2914(8) 0.0205(7)
H284 H 0.2194 0.3302 0.0332
H285 H 0.2226 0.2815 0.0413
C316 C 0.2683(8) 0.2216(7) -0.2229(6)
H286 H 0.2379 0.1919 -0.2299
C317 C 0.2421(7) 0.4657(9) 0.0509(8)
H287 H 0.2569 0.5004 0.0745
C318 C 0.1984(9) 0.4309(8) 0.0480(6)
H288 H 0.1829 0.4407 0.0717
C319 C 0.1491(8) 0.2720(8) 0.0167(7)
H289 H 0.1349 0.2335 0.0059
H290 H 0.1440 0.2879 0.0470
C320 C 0.3005(10) 0.2203(9) -0.2495(7)
H291 H 0.2911 0.1883 -0.2758
C321 C 0.0690(6) 0.2489(7) -0.0268(8)
H292 H 0.0464 0.2630 -0.0387
H293 H 0.0604 0.2461 0.0004
C322 C 0.1263(7) 0.3393(7) 0.0068(8)
H294 H 0.0981 0.3413 -0.0124
H295 H 0.1193 0.3460 0.0366
C323 C 0.3471(8) 0.2624(10) -0.2417(8)
C324 C 0.4351(10) 0.3556(10) -0.2146(9)
H296 H 0.4641 0.3863 -0.2085
C325 C 0.4237(9) 0.3098(9) -0.2529(9)
H297 H 0.4478 0.3090 -0.2700
C326 C 0.3798(9) 0.2654(9) -0.2677(9)
H298 H 0.3723 0.2367 -0.2962
C327 C 0.0595(8) 0.1956(9) -0.0622(7)
H299 H 0.0693 0.1756 -0.0471
H300 H 0.0223 0.1766 -0.0783
O75 O 0.4062(4) 0.4703(4) -0.1681(3)
C328 C 0.4563(7) 0.5062(7) -0.1557(7)
H301 H 0.4661 0.5062 -0.1831
H302 H 0.4794 0.4966 -0.1393
H303 H 0.4590 0.5413 -0.1362
O76 O 0.1384(4) 0.2416(6) -0.1612(5)
O77 O 0.0998(5) 0.3014(7) -0.0951(6)
C329 C 0.1091(8) 0.2485(9) -0.1854(9)
C330 C 0.1108(9) 0.2259(15) -0.2309(9)
C331 C 0.0727(11) 0.2916(11) -0.1345(10)
F19 F 0.0811(15) 0.2344(15) -0.2540(14)
F20 F 0.1119(19) 0.179(2) -0.2495(18)
F21 F 0.1566(13) 0.2605(13) -0.2353(11)
C332 C 0.0725(8) 0.2732(8) -0.1734(8)
H304 H 0.0494 0.2743 -0.1960
C333 C 0.0302(10) 0.3250(10) -0.1197(10)
H305 H 0.0245 0.3270 -0.0907
H306 H -0.0028 0.3054 -0.1435
H307 H 0.0457 0.3605 -0.1173
Cl1 Cl 0.12290(19) 0.8222(3) 0.9207(2)
Cl2 Cl 0.1019(2) 0.4957(2) 0.67762(17)
Cl3 Cl 0.9184(5) 0.4151(7) 0.3396(4)
Cl4 Cl 0.1762(4) 0.9709(4) 0.7675(3)
Cl5 Cl 0.8626(5) 0.2607(4) 0.1755(4)
O78 O 0.0722(6) 0.4772(7) 0.1893(5)
O79 O 0.5077(5) 0.1244(6) 0.3751(5)
H308 H 0.4822 0.1296 0.3647
H309 H 0.5127 0.1342 0.4035
O80 O 0.0909(6) 0.0326(8) 0.3077(7)
H310 H 0.1067 0.0653 0.3164
H311 H 0.1051 0.0234 0.3256
Cl6 Cl 0.5428(8) 0.1060(7) 0.2897(7)
Cl7 Cl 0.0153(5) 0.1251(6) 0.8149(5)
O81 O 0.4466(4) 0.1702(5) 0.0329(5)
C334 C 0.4282(8) 0.1969(9) 0.0718(5)
H312 H 0.3990 0.2035 0.0603
H313 H 0.4561 0.2302 0.0935
H314 H 0.4174 0.1742 0.0869
O82 O 0.0406(8) 0.9351(8) 0.1259(5)
O83 O 0.3498(5) 1.3069(7) 0.4113(7)
H315 H 0.3413 1.2874 0.4246
H316 H 0.3659 1.3386 0.4309
O84 O 0.4349(7) 0.9649(12) -0.1176(7)
O85 O -0.0089(7) 0.0035(7) 0.2325(5)
H317? H 0.1408(16) 0.4473(11) -0.2286(7)
H318? H 0.1525(13) 0.7876(7) -0.0404(9)
H319? H -0.0122(12) 0.1725(7) 0.147(2)
H320? H 0.0721(18) 0.1707(15) -0.1204(9)
H321? H -0.0095(7) 0.4685(9) 0.3932(18)
H322? H 0.0545 0.7964 0.4554
H323? H 0.0997 0.8524 0.4857
H324? H 0.1288(8) 0.9862(10) 0.2848(7)
loop_
_geom_bond_atom_site_label_1
_geom_bond_atom_site_label_2
_geom_bond_site_symmetry_1
_geom_bond_site_symmetry_2
Dy1 O8 1_555 1_555
Dy2 O14 1_555 1_555
Dy3 O1 1_555 1_555
Dy4 O12 1_555 1_555
Dy5 O15 1_555 1_555
Dy6 O13 1_555 1_555
Dy7 O5 1_555 1_555
Dy8 O14 1_555 1_555
Dy9 O2 1_555 1_555
Dy10 O1 1_555 1_555
O1 C12 1_555 1_555
O2 C6 1_555 1_555
O3 Dy9 1_555 1_555
N1 Dy10 1_555 1_555
N2 Dy9 1_555 1_555
N3 Dy10 1_555 1_555
N4 Dy9 1_555 1_555
C1 N2 1_555 1_555
H1 C1 1_555 1_555
O4 Dy10 1_555 1_555
C2 O3 1_555 1_555
N5 Dy10 1_555 1_555
C3 N3 1_555 1_555
C4 N4 1_555 1_555
C5 N4 1_555 1_555
C6 C4 1_555 1_555
C7 C4 1_555 1_555
C8 C5 1_555 1_555
H2 C8 1_555 1_555
C9 C7 1_555 1_555
H3 C9 1_555 1_555
C10 C7 1_555 1_555
H4 C10 1_555 1_555
C11 C3 1_555 1_555
H5 C11 1_555 1_555
C12 H6 1_555 1_555
H7 C12 1_555 1_555
C13 N5 1_555 1_555
H8 C13 1_555 1_555
H9 C13 1_555 1_555
C14 C11 1_555 1_555
H10 C14 1_555 1_555
C15 N3 1_555 1_555
C16 N5 1_555 1_555
H11 C16 1_555 1_555
H12 C16 1_555 1_555
C17 C10 1_555 1_555
H13 C17 1_555 1_555
C18 C6 1_555 1_555
H14 C18 1_555 1_555
C19 N5 1_555 1_555
H15 C19 1_555 1_555
C20 C14 1_555 1_555
H16 C20 1_555 1_555
C21 O4 1_555 1_555
H17 C21 1_555 1_555
H18 C21 1_555 1_555
Dy11 O24 1_555 1_555
Dy12 O6 1_555 1_555
Dy13 O10 1_555 1_555
Dy14 O26 1_555 1_555
Dy15 O28 1_555 1_555
Dy16 O36 1_555 1_555
Dy17 O29 1_555 1_555
Dy18 O5 1_555 1_555
Dy19 O12 1_555 1_555
Dy20 O36 1_555 1_555
Dy21 O39 1_555 1_555
O5 C23 1_555 1_555
O6 Dy3 1_555 1_555
O7 Dy18 1_555 1_555
O8 Dy18 1_555 1_555
N6 Dy12 1_555 1_555
N7 C24 1_555 1_555
N8 Dy18 1_555 1_555
N9 Dy18 1_555 1_555
C22 H19 1_555 1_555
C23 H20 1_555 1_555
H21 C23 1_555 1_555
C24 O7 1_555 1_555
C25 N9 1_555 1_555
N10 Dy12 1_555 1_555
C26 C28 1_555 1_555
C27 N8 1_555 1_555
H22 C27 1_555 1_555
H23 C27 1_555 1_555
C28 N6 1_555 1_555
C29 O6 1_555 1_555
C30 H24 1_555 1_555
C31 H25 1_555 1_555
C32 N6 1_555 1_555
C33 C29 1_555 1_555
H26 C33 1_555 1_555
C34 N8 1_555 1_555
H27 C34 1_555 1_555
H28 C34 1_555 1_555
C35 N8 1_555 1_555
H29 C35 1_555 1_555
H30 C35 1_555 1_555
C36 N9 1_555 1_555
C37 C26 1_555 1_555
H31 C37 1_555 1_555
C38 O8 1_555 1_555
H32 C38 1_555 1_555
H33 C38 1_555 1_555
C39 H34 1_555 1_555
C40 C26 1_555 1_555
H35 C40 1_555 1_555
C41 C25 1_555 1_555
H36 C41 1_555 1_555
C42 C36 1_555 1_555
H37 C42 1_555 1_555
O9 Dy18 1_555 1_555
H38 O9 1_555 1_555
H39 O9 1_555 1_555
O10 Dy9 1_555 1_555
O11 Dy13 1_555 1_555
O12 C51 1_555 1_555
N11 Dy4 1_555 1_555
O13 Dy13 1_555 1_555
N12 Dy13 1_555 1_555
N13 Dy13 1_555 1_555
N14 Dy4 1_555 1_555
N15 N11 1_555 1_555
C43 O10 1_555 1_555
H40 C43 1_555 1_555
H41 C43 1_555 1_555
C44 N13 1_555 1_555
C45 O13 1_555 1_555
H42 C45 1_555 1_555
C46 N12 1_555 1_555
H43 C46 1_555 1_555
H44 C46 1_555 1_555
C47 N14 1_555 1_555
C48 N12 1_555 1_555
H45 C48 1_555 1_555
H46 C48 1_555 1_555
C49 O11 1_555 1_555
C50 N11 1_555 1_555
H47 C50 1_555 1_555
C51 C47 1_555 1_555
C52 N12 1_555 1_555
H48 C52 1_555 1_555
H49 C52 1_555 1_555
C53 N13 1_555 1_555
C54 C53 1_555 1_555
H50 C54 1_555 1_555
C55 C44 1_555 1_555
H51 C55 1_555 1_555
C56 C54 1_555 1_555
H52 C56 1_555 1_555
C57 N14 1_555 1_555
C58 C47 1_555 1_555
C59 C51 1_555 1_555
H53 C59 1_555 1_555
C60 C57 1_555 1_555
H54 C60 1_555 1_555
C61 C58 1_555 1_555
H55 C61 1_555 1_555
C62 C58 1_555 1_555
H56 C62 1_555 1_555
C63 C59 1_555 1_555
H57 C63 1_555 1_555
O14 C68 1_555 1_555
O15 Dy2 1_555 1_555
O16 Dy7 1_555 1_555
O17 Dy2 1_555 1_555
N16 Dy2 1_555 1_555
N17 Dy2 1_555 1_555
N18 Dy7 1_555 1_555
C64 O17 1_555 1_555
N19 C64 1_555 1_555
C65 N16 1_555 1_555
H58 C65 1_555 1_555
H59 C65 1_555 1_555
C66 N17 1_555 1_555
C67 C66 1_555 1_555
H60 C67 1_555 1_555
N20 Dy7 1_555 1_555
C68 H61 1_555 1_555
H62 C68 1_555 1_555
C69 N18 1_555 1_555
C70 N16 1_555 1_555
H63 C70 1_555 1_555
H64 C70 1_555 1_555
C71 N17 1_555 1_555
C72 C71 1_555 1_555
H65 C72 1_555 1_555
C73 N16 1_555 1_555
H66 C73 1_555 1_555
H67 C73 1_555 1_555
C74 O16 1_555 1_555
C75 C67 1_555 1_555
H68 C75 1_555 1_555
C76 O15 1_555 1_555
H69 C76 1_555 1_555
C77 C74 1_555 1_555
H70 C77 1_555 1_555
C78 N18 1_555 1_555
C79 C77 1_555 1_555
H71 C79 1_555 1_555
C80 N20 1_555 1_555
H72 C80 1_555 1_555
C81 C79 1_555 1_555
H73 C81 1_555 1_555
C82 C69 1_555 1_555
C83 C78 1_555 1_555
H74 C83 1_555 1_555
C84 C82 1_555 1_555
H75 C84 1_555 1_555
O18 Dy6 1_555 1_555
O19 Dy6 1_555 1_555
C85 O19 1_555 1_555
C86 O18 1_555 1_555
F1 C87 1_555 1_555
F2 C87 1_555 1_555
F3 C87 1_555 1_555
C87 C85 1_555 1_555
C88 C86 1_555 1_555
H76 C88 1_555 1_555
H77 C88 1_555 1_555
H78 C88 1_555 1_555
C89 C85 1_555 1_555
H79 C89 1_555 1_555
O20 Dy12 1_555 1_555
O21 Dy1 1_555 1_555
O22 Dy12 1_555 1_555
N21 Dy12 1_555 1_555
O23 Dy1 1_555 1_555
N22 Dy1 1_555 1_555
N23 Dy12 1_555 1_555
C90 O20 1_555 1_555
N24 Dy1 1_555 1_555
C91 N23 1_555 1_555
C92 N25 1_555 1_555
C93 C90 1_555 1_555
N25 Dy1 1_555 1_555
C94 N21 1_555 1_555
H80 C94 1_555 1_555
C95 N24 1_555 1_555
H81 C95 1_555 1_555
H82 C95 1_555 1_555
C96 O22 1_555 1_555
C97 N23 1_555 1_555
C98 O21 1_555 1_555
H83 C98 1_555 1_555
H84 C98 1_555 1_555
C99 N24 1_555 1_555
H85 C99 1_555 1_555
H86 C99 1_555 1_555
C100 H87 1_555 1_555
C101 C92 1_555 1_555
H88 C101 1_555 1_555
C102 C97 1_555 1_555
H89 C102 1_555 1_555
C103 C93 1_555 1_555
H90 C103 1_555 1_555
C104 C96 1_555 1_555
H91 C104 1_555 1_555
C105 C91 1_555 1_555
C106 C104 1_555 1_555
H92 C106 1_555 1_555
C107 C102 1_555 1_555
H93 C107 1_555 1_555
C108 N24 1_555 1_555
H94 C108 1_555 1_555
H95 C108 1_555 1_555
C109 O23 1_555 1_555
H96 C109 1_555 1_555
H97 C109 1_555 1_555
C110 C105 1_555 1_555
H98 C110 1_555 1_555
O24 C114 1_555 1_555
O25 Dy11 1_555 1_555
C111 O25 1_555 1_555
C112 C111 1_555 1_555
H99 C112 1_555 1_555
F4 C113 1_555 1_555
F5 C113 1_555 1_555
F6 C113 1_555 1_555
C113 C111 1_555 1_555
C114 C112 1_555 1_555
C115 C114 1_555 1_555
H100 C115 1_555 1_555
H101 C115 1_555 1_555
H102 C115 1_555 1_555
O26 C117 1_555 1_555
O27 Dy2 1_555 1_555
O28 Dy14 1_555 1_555
O29 Dy14 1_555 1_555
N26 Dy8 1_555 1_555
N27 Dy14 1_555 1_555
N28 Dy8 1_555 1_555
N29 N28 1_555 1_555
N30 Dy14 1_555 1_555
C116 N30 1_555 1_555
H103 C116 1_555 1_555
H104 C116 1_555 1_555
C117 N29 1_555 1_555
C118 N28 1_555 1_555
H105 C118 1_555 1_555
C119 O28 1_555 1_555
H106 C119 1_555 1_555
H107 C119 1_555 1_555
C120 O29 1_555 1_555
H108 C120 1_555 1_555
H109 C120 1_555 1_555
C121 N30 1_555 1_555
H110 C121 1_555 1_555
H111 C121 1_555 1_555
C122 N26 1_555 1_555
C123 N27 1_555 1_555
C124 N30 1_555 1_555
H112 C124 1_555 1_555
H113 C124 1_555 1_555
C125 N27 1_555 1_555
C126 C123 1_555 1_555
H114 C126 1_555 1_555
C127 C125 1_555 1_555
H115 C127 1_555 1_555
C128 C126 1_555 1_555
H116 C128 1_555 1_555
C129 C122 1_555 1_555
H117 C129 1_555 1_555
C130 C131 1_555 1_555
C131 N26 1_555 1_555
C132 O27 1_555 1_555
C133 C132 1_555 1_555
H118 C133 1_555 1_555
C134 C133 1_555 1_555
H119 C134 1_555 1_555
C135 C130 1_555 1_555
H120 C135 1_555 1_555
C136 C129 1_555 1_555
H121 C136 1_555 1_555
O30 Dy5 1_555 1_555
O31 Dy5 1_555 1_555
C137 O30 1_555 1_555
F7 C138 1_555 1_555
F8 C138 1_555 1_555
F9 C138 1_555 1_555
C138 C137 1_555 1_555
C139 C137 1_555 1_555
H122 C139 1_555 1_555
C140 O31 1_555 1_555
C141 C140 1_555 1_555
H123 C141 1_555 1_555
H124 C141 1_555 1_555
H125 C141 1_555 1_555
O32 Dy6 1_555 1_555
O33 Dy4 1_555 1_555
O34 Dy4 1_555 1_555
O35 Dy6 1_555 1_555
N31 Dy4 1_555 1_555
N32 Dy6 1_555 1_555
N33 Dy4 1_555 1_555
N34 Dy6 1_555 1_555
C142 O34 1_555 1_555
C143 N31 1_555 1_555
N35 Dy6 1_555 1_555
C144 N33 1_555 1_555
H126 C144 1_555 1_555
C145 N31 1_555 1_555
C146 N34 1_555 1_555
C147 O32 1_555 1_555
H127 C147 1_555 1_555
H128 C147 1_555 1_555
C148 N32 1_555 1_555
H129 C148 1_555 1_555
H130 C148 1_555 1_555
C149 N32 1_555 1_555
H131 C149 1_555 1_555
H132 C149 1_555 1_555
C150 O33 1_555 1_555
C151 C146 1_555 1_555
H133 C151 1_555 1_555
C152 O35 1_555 1_555
H134 C152 1_555 1_555
C153 C150 1_555 1_555
H135 C153 1_555 1_555
C154 H136 1_555 1_555
C155 C145 1_555 1_555
H137 C155 1_555 1_555
C156 C143 1_555 1_555
C157 H138 1_555 1_555
C158 N34 1_555 1_555
C159 N32 1_555 1_555
H139 C159 1_555 1_555
H140 C159 1_555 1_555
C160 C151 1_555 1_555
H141 C160 1_555 1_555
C161 C156 1_555 1_555
H142 C161 1_555 1_555
C162 C153 1_555 1_555
H143 C162 1_555 1_555
O36 C167 1_555 1_555
O37 Dy14 1_555 1_555
O38 Dy20 1_555 1_555
O39 Dy20 1_555 1_555
N36 Dy15 1_555 1_555
N37 Dy20 1_555 1_555
C163 O37 1_555 1_555
N38 Dy15 1_555 1_555
C164 N38 1_555 1_555
H144 C164 1_555 1_555
N39 N38 1_555 1_555
N40 Dy20 1_555 1_555
C165 N36 1_555 1_555
C166 N37 1_555 1_555
H145 C166 1_555 1_555
H146 C166 1_555 1_555
C167 C166 1_555 1_555
H147 C167 1_555 1_555
H148 C167 1_555 1_555
C168 H149 1_555 1_555
C169 N36 1_555 1_555
C170 H150 1_555 1_555
C171 O38 1_555 1_555
C172 C168 1_555 1_555
H151 C172 1_555 1_555
C173 C165 1_555 1_555
C174 C163 1_555 1_555
H152 C174 1_555 1_555
C175 O39 1_555 1_555
H153 C175 1_555 1_555
H154 C175 1_555 1_555
C176 N40 1_555 1_555
C177 N37 1_555 1_555
H155 C177 1_555 1_555
H156 C177 1_555 1_555
C178 C176 1_555 1_555
H157 C178 1_555 1_555
C179 C170 1_555 1_555
H158 C179 1_555 1_555
C180 N40 1_555 1_555
C181 C178 1_555 1_555
H159 C181 1_555 1_555
C182 N37 1_555 1_555
H160 C182 1_555 1_555
H161 C182 1_555 1_555
C183 C180 1_555 1_555
H162 C183 1_555 1_555
O40 Dy9 1_555 1_555
O41 Dy3 1_555 1_555
O42 Dy3 1_555 1_555
N41 Dy9 1_555 1_555
O43 Dy3 1_555 1_555
N42 Dy3 1_555 1_555
N43 N45 1_555 1_555
N44 Dy3 1_555 1_555
C184 H163 1_555 1_555
N45 Dy9 1_555 1_555
C185 N44 1_555 1_555
H164 C185 1_555 1_555
H165 C185 1_555 1_555
C186 N41 1_555 1_555
C187 N41 1_555 1_555
C188 O40 1_555 1_555
C189 O42 1_555 1_555
C190 C188 1_555 1_555
H166 C190 1_555 1_555
C191 N44 1_555 1_555
H167 C191 1_555 1_555
H168 C191 1_555 1_555
C192 O41 1_555 1_555
H169 C192 1_555 1_555
H170 C192 1_555 1_555
C193 N42 1_555 1_555
C194 N42 1_555 1_555
C195 C186 1_555 1_555
H171 C195 1_555 1_555
C196 N44 1_555 1_555
H172 C196 1_555 1_555
H173 C196 1_555 1_555
C197 O43 1_555 1_555
H174 C197 1_555 1_555
H175 C197 1_555 1_555
C198 C187 1_555 1_555
C199 C195 1_555 1_555
H176 C199 1_555 1_555
C200 C193 1_555 1_555
H177 C200 1_555 1_555
C201 C194 1_555 1_555
H178 C201 1_555 1_555
C202 C200 1_555 1_555
H179 C202 1_555 1_555
C203 C190 1_555 1_555
H180 C203 1_555 1_555
C204 C198 1_555 1_555
H181 C204 1_555 1_555
O44 Dy3 1_555 1_555
H182 O44 1_555 1_555
C205 O44 1_555 1_555
H183 C205 1_555 1_555
H184 C205 1_555 1_555
H185 C205 1_555 1_555
O45 Dy8 1_555 1_555
O46 Dy14 1_555 1_555
O47 Dy8 1_555 1_555
N46 Dy8 1_555 1_555
N47 Dy8 1_555 1_555
N48 Dy17 1_555 1_555
C206 O45 1_555 1_555
N49 Dy17 1_555 1_555
C207 C206 1_555 1_555
H186 C207 1_555 1_555
C208 N47 1_555 1_555
H187 C208 1_555 1_555
O48 Dy17 1_555 1_555
C209 N49 1_555 1_555
C210 O47 1_555 1_555
C211 N46 1_555 1_555
N50 Dy17 1_555 1_555
C212 N49 1_555 1_555
C213 C207 1_555 1_555
H188 C213 1_555 1_555
C214 C215 1_555 1_555
C215 N46 1_555 1_555
C216 C214 1_555 1_555
H189 C216 1_555 1_555
C217 C212 1_555 1_555
H190 C217 1_555 1_555
C218 C209 1_555 1_555
H191 C218 1_555 1_555
C219 N50 1_555 1_555
H192 C219 1_555 1_555
H193 C219 1_555 1_555
C220 C217 1_555 1_555
H194 C220 1_555 1_555
C221 C213 1_555 1_555
H195 C221 1_555 1_555
C222 C211 1_555 1_555
H196 C222 1_555 1_555
C223 N50 1_555 1_555
H197 C223 1_555 1_555
H198 C223 1_555 1_555
C224 O46 1_555 1_555
H199 C224 1_555 1_555
C225 N50 1_555 1_555
H200 C225 1_555 1_555
H201 C225 1_555 1_555
C226 O48 1_555 1_555
H202 C226 1_555 1_555
H203 C226 1_555 1_555
O49 Dy2 1_555 1_555
H204 O49 1_555 1_555
C227 O49 1_555 1_555
H205 C227 1_555 1_555
H206 C227 1_555 1_555
H207 C227 1_555 1_555
O50 Dy7 1_555 1_555
O51 Dy2 1_555 1_555
N51 Dy7 1_555 1_555
O52 Dy5 1_555 1_555
O53 Dy7 1_555 1_555
N52 Dy5 1_555 1_555
N53 Dy5 1_555 1_555
C228 C230 1_555 1_555
C229 C232 1_555 1_555
C230 H208 1_555 1_555
C231 N51 1_555 1_555
H209 C231 1_555 1_555
C232 N54 1_555 1_555
C233 O53 1_555 1_555
N54 Dy7 1_555 1_555
C234 O50 1_555 1_555
C235 C234 1_555 1_555
H210 C235 1_555 1_555
N55 Dy5 1_555 1_555
C236 C229 1_555 1_555
H211 C236 1_555 1_555
C237 N52 1_555 1_555
C238 N55 1_555 1_555
H212 C238 1_555 1_555
H213 C238 1_555 1_555
C239 N55 1_555 1_555
H214 C239 1_555 1_555
H215 C239 1_555 1_555
C240 N52 1_555 1_555
C241 C237 1_555 1_555
H216 C241 1_555 1_555
C242 O51 1_555 1_555
H217 C242 1_555 1_555
C243 C229 1_555 1_555
H218 C243 1_555 1_555
C244 O52 1_555 1_555
H219 C244 1_555 1_555
H220 C244 1_555 1_555
C245 C240 1_555 1_555
H221 C245 1_555 1_555
C246 N55 1_555 1_555
H222 C246 1_555 1_555
H223 C246 1_555 1_555
C247 C235 1_555 1_555
H224 C247 1_555 1_555
C248 C241 1_555 1_555
H225 C248 1_555 1_555
O54 Dy13 1_555 1_555
H226 O54 1_555 1_555
H227 O54 1_555 1_555
O55 Dy16 1_555 1_555
O56 Dy11 1_555 1_555
O57 Dy11 1_555 1_555
N56 Dy16 1_555 1_555
N57 Dy11 1_555 1_555
N58 Dy11 1_555 1_555
N59 Dy16 1_555 1_555
C249 N56 1_555 1_555
N60 Dy11 1_555 1_555
C250 N59 1_555 1_555
H228 C250 1_555 1_555
C251 N56 1_555 1_555
C252 H229 1_555 1_555
C253 H230 1_555 1_555
C254 N58 1_555 1_555
H231 C254 1_555 1_555
H232 C254 1_555 1_555
C255 N60 1_555 1_555
C256 N58 1_555 1_555
H233 C256 1_555 1_555
H234 C256 1_555 1_555
C257 C249 1_555 1_555
C258 O55 1_555 1_555
C259 O56 1_555 1_555
H235 C259 1_555 1_555
C260 C251 1_555 1_555
H236 C260 1_555 1_555
O58 Dy16 1_555 1_555
C261 C253 1_555 1_555
H237 C261 1_555 1_555
C262 N57 1_555 1_555
C263 N60 1_555 1_555
C264 C257 1_555 1_555
H238 C264 1_555 1_555
C265 N58 1_555 1_555
H239 C265 1_555 1_555
H240 C265 1_555 1_555
C266 C255 1_555 1_555
H241 C266 1_555 1_555
C267 C266 1_555 1_555
H242 C267 1_555 1_555
C268 C263 1_555 1_555
H243 C268 1_555 1_555
C269 O57 1_555 1_555
H244 C269 1_555 1_555
H245 C269 1_555 1_555
O59 Dy20 1_555 1_555
H246 O59 1_555 1_555
C270 O59 1_555 1_555
H247 C270 1_555 1_555
H248 C270 1_555 1_555
H249 C270 1_555 1_555
O60 Dy1 1_555 1_555
O61 Dy1 1_555 1_555
C271 H250 1_555 1_555
C272 O60 1_555 1_555
F10 C274 1_555 1_555
F11 C274 1_555 1_555
F12 C274 1_555 1_555
C273 O61 1_555 1_555
C274 C272 1_555 1_555
C275 C273 1_555 1_555
H251 C275 1_555 1_555
H252 C275 1_555 1_555
H253 C275 1_555 1_555
O62 Dy4 1_555 1_555
O63 Dy11 1_555 1_555
O64 Dy19 1_555 1_555
O65 Dy16 1_555 1_555
N61 Dy19 1_555 1_555
N62 Dy19 1_555 1_555
C276 O63 1_555 1_555
H254 C276 1_555 1_555
H255 C276 1_555 1_555
N63 Dy16 1_555 1_555
N64 N63 1_555 1_555
C277 N62 1_555 1_555
H256 C277 1_555 1_555
H257 C277 1_555 1_555
C278 O62 1_555 1_555
H258 C278 1_555 1_555
C279 N61 1_555 1_555
C280 C279 1_555 1_555
H259 C280 1_555 1_555
N65 Dy16 1_555 1_555
C281 N61 1_555 1_555
C282 N62 1_555 1_555
H260 C282 1_555 1_555
H261 C282 1_555 1_555
C283 N62 1_555 1_555
H262 C283 1_555 1_555
H263 C283 1_555 1_555
C284 O64 1_555 1_555
C285 N65 1_555 1_555
C286 C285 1_555 1_555
C287 C286 1_555 1_555
H264 C287 1_555 1_555
C288 C287 1_555 1_555
H265 C288 1_555 1_555
C289 C288 1_555 1_555
H266 C289 1_555 1_555
C290 O65 1_555 1_555
C291 C281 1_555 1_555
H267 C291 1_555 1_555
C292 N63 1_555 1_555
H268 C292 1_555 1_555
C293 C280 1_555 1_555
H269 C293 1_555 1_555
C294 N65 1_555 1_555
C295 C294 1_555 1_555
H270 C295 1_555 1_555
C296 C286 1_555 1_555
H271 C296 1_555 1_555
O66 Dy10 1_555 1_555
O67 Dy10 1_555 1_555
C297 O66 1_555 1_555
C298 C297 1_555 1_555
H272 C298 1_555 1_555
F13 C300 1_555 1_555
F14 C300 1_555 1_555
F15 C300 1_555 1_555
C299 O67 1_555 1_555
C300 C297 1_555 1_555
C301 C299 1_555 1_555
H273 C301 1_555 1_555
H274 C301 1_555 1_555
H275 C301 1_555 1_555
O68 Dy17 1_555 1_555
O69 Dy17 1_555 1_555
C302 O68 1_555 1_555
C303 O69 1_555 1_555
C304 C302 1_555 1_555
H276 C304 1_555 1_555
F16 C305 1_555 1_555
F17 C305 1_555 1_555
F18 C305 1_555 1_555
C305 C303 1_555 1_555
C306 C302 1_555 1_555
H277 C306 1_555 1_555
H278 C306 1_555 1_555
H279 C306 1_555 1_555
O70 Dy19 1_555 1_555
H280 O70 1_555 1_555
H281 O70 1_555 1_555
O71 Dy15 1_555 1_555
O72 Dy20 1_555 1_555
O73 Dy15 1_555 1_555
N66 Dy21 1_555 1_555
N67 Dy21 1_555 1_555
N68 Dy15 1_555 1_555
O74 Dy21 1_555 1_555
N69 Dy15 1_555 1_555
C307 N69 1_555 1_555
H282 C307 1_555 1_555
C308 N68 1_555 1_555
C309 N66 1_555 1_555
C310 N66 1_555 1_555
C311 N68 1_555 1_555
C312 O71 1_555 1_555
N70 Dy21 1_555 1_555
C313 C310 1_555 1_555
H283 C313 1_555 1_555
C314 O73 1_555 1_555
C315 O72 1_555 1_555
H284 C315 1_555 1_555
H285 C315 1_555 1_555
C316 C311 1_555 1_555
H286 C316 1_555 1_555
C317 C313 1_555 1_555
H287 C317 1_555 1_555
C318 C309 1_555 1_555
H288 C318 1_555 1_555
C319 N70 1_555 1_555
H289 C319 1_555 1_555
H290 C319 1_555 1_555
C320 C316 1_555 1_555
H291 C320 1_555 1_555
C321 N70 1_555 1_555
H292 C321 1_555 1_555
H293 C321 1_555 1_555
C322 C309 1_555 1_555
H294 C322 1_555 1_555
H295 C322 1_555 1_555
C323 C308 1_555 1_555
C324 C312 1_555 1_555
H296 C324 1_555 1_555
C325 C324 1_555 1_555
H297 C325 1_555 1_555
C326 C323 1_555 1_555
H298 C326 1_555 1_555
C327 O74 1_555 1_555
H299 C327 1_555 1_555
H300 C327 1_555 1_555
O75 Dy14 1_555 1_555
C328 O75 1_555 1_555
H301 C328 1_555 1_555
H302 C328 1_555 1_555
H303 C328 1_555 1_555
O76 Dy21 1_555 1_555
O77 Dy21 1_555 1_555
C329 O76 1_555 1_555
C330 C329 1_555 1_555
C331 O77 1_555 1_555
F19 C330 1_555 1_555
F20 C330 1_555 1_555
F21 C330 1_555 1_555
C332 C329 1_555 1_555
H304 C332 1_555 1_555
C333 C331 1_555 1_555
H305 C333 1_555 1_555
H306 C333 1_555 1_555
H307 C333 1_555 1_555
O79 H308 1_555 1_555
H309 O79 1_555 1_555
O80 H310 1_555 1_555
H311 O80 1_555 1_555
O81 C334 1_555 1_555
C334 H312 1_555 1_555
H313 C334 1_555 1_555
H314 C334 1_555 1_555
O83 H315 1_555 1_555
H316 O83 1_555 1_555
Dy5 O51 1_555 1_555
Dy8 O27 1_555 1_555
Dy10 O43 1_555 1_555
N1 N2 1_555 1_555
N1 C2 1_555 1_555
C1 C5 1_555 1_555
C2 C3 1_555 1_555
C8 C9 1_555 1_555
C12 C13 1_555 1_555
C15 C16 1_555 1_555
C15 C20 1_555 1_555
C17 C18 1_555 1_555
C19 C21 1_555 1_555
Dy12 O41 1_555 1_555
Dy13 O35 1_555 1_555
Dy13 O40 1_555 1_555
Dy15 O37 1_555 1_555
Dy17 O46 1_555 1_555
Dy18 O16 1_555 1_555
Dy18 O21 1_555 1_555
Dy19 O57 1_555 1_555
Dy19 O62 1_555 1_555
Dy19 O63 1_555 1_555
Dy20 O65 1_555 1_555
Dy21 O72 1_555 1_555
N7 N10 1_555 1_555
C22 N10 1_555 1_555
C22 C32 1_555 1_555
C23 C35 1_555 1_555
C24 C36 1_555 1_555
C25 C27 1_555 1_555
C28 C29 1_555 1_555
C30 C33 1_555 1_555
C30 C37 1_555 1_555
C31 C32 1_555 1_555
C31 C40 1_555 1_555
C34 C38 1_555 1_555
C39 C41 1_555 1_555
C39 C42 1_555 1_555
N15 C49 1_555 1_555
C43 C48 1_555 1_555
C44 C52 1_555 1_555
C45 C46 1_555 1_555
C49 C53 1_555 1_555
C50 C57 1_555 1_555
C55 C56 1_555 1_555
C60 C61 1_555 1_555
C62 C63 1_555 1_555
C64 C71 1_555 1_555
N19 N20 1_555 1_555
C65 C66 1_555 1_555
C68 C73 1_555 1_555
C69 C74 1_555 1_555
C70 C76 1_555 1_555
C72 C75 1_555 1_555
C78 C80 1_555 1_555
C81 C82 1_555 1_555
C83 C84 1_555 1_555
C86 C89 1_555 1_555
N21 N22 1_555 1_555
N22 C90 1_555 1_555
C91 C96 1_555 1_555
C92 C95 1_555 1_555
C93 N25 1_555 1_555
C94 C97 1_555 1_555
C98 C99 1_555 1_555
C100 C101 1_555 1_555
C100 C103 1_555 1_555
C105 C107 1_555 1_555
C106 C110 1_555 1_555
C108 C109 1_555 1_555
C116 C120 1_555 1_555
C117 C123 1_555 1_555
C118 C122 1_555 1_555
C119 C121 1_555 1_555
C124 C125 1_555 1_555
C127 C128 1_555 1_555
C130 C136 1_555 1_555
C131 C132 1_555 1_555
C134 C135 1_555 1_555
C139 C140 1_555 1_555
N33 N35 1_555 1_555
C142 N35 1_555 1_555
C142 C146 1_555 1_555
C143 C150 1_555 1_555
C144 C145 1_555 1_555
C147 C149 1_555 1_555
C148 C152 1_555 1_555
C154 C155 1_555 1_555
C154 C156 1_555 1_555
C157 C158 1_555 1_555
C157 C160 1_555 1_555
C158 C159 1_555 1_555
C161 C162 1_555 1_555
C163 C165 1_555 1_555
C164 C169 1_555 1_555
N39 C171 1_555 1_555
C168 C169 1_555 1_555
C170 C174 1_555 1_555
C171 C176 1_555 1_555
C172 C173 1_555 1_555
C173 C179 1_555 1_555
C175 C182 1_555 1_555
C177 C180 1_555 1_555
C181 C183 1_555 1_555
N43 C189 1_555 1_555
C184 N45 1_555 1_555
C184 C186 1_555 1_555
C185 C192 1_555 1_555
C187 C188 1_555 1_555
C189 C193 1_555 1_555
C191 C197 1_555 1_555
C194 C196 1_555 1_555
C198 C199 1_555 1_555
C201 C202 1_555 1_555
C203 C204 1_555 1_555
N47 N48 1_555 1_555
N48 C210 1_555 1_555
C206 C215 1_555 1_555
C208 C211 1_555 1_555
C209 C210 1_555 1_555
C212 C219 1_555 1_555
C214 C221 1_555 1_555
C216 C222 1_555 1_555
C218 C220 1_555 1_555
C223 C224 1_555 1_555
C225 C226 1_555 1_555
N51 N53 1_555 1_555
N53 C233 1_555 1_555
C228 C231 1_555 1_555
C228 N54 1_555 1_555
C230 C236 1_555 1_555
C232 C234 1_555 1_555
C233 C237 1_555 1_555
C238 C242 1_555 1_555
C239 C240 1_555 1_555
C243 C247 1_555 1_555
C244 C246 1_555 1_555
C245 C248 1_555 1_555
N57 N59 1_555 1_555
C249 C258 1_555 1_555
C250 C251 1_555 1_555
C252 C257 1_555 1_555
C252 C260 1_555 1_555
C253 C258 1_555 1_555
C254 C255 1_555 1_555
C256 C259 1_555 1_555
O58 C262 1_555 1_555
C261 C264 1_555 1_555
C262 C263 1_555 1_555
C265 C269 1_555 1_555
C267 C268 1_555 1_555
C271 C272 1_555 1_555
C271 C273 1_555 1_555
C276 C283 1_555 1_555
N64 C284 1_555 1_555
C277 C278 1_555 1_555
C279 C284 1_555 1_555
C281 C282 1_555 1_555
C285 C290 1_555 1_555
C289 C290 1_555 1_555
C291 C293 1_555 1_555
C292 C294 1_555 1_555
C295 C296 1_555 1_555
C298 C299 1_555 1_555
C303 C304 1_555 1_555
N67 N69 1_555 1_555
N67 C314 1_555 1_555
C307 C311 1_555 1_555
C308 C312 1_555 1_555
C310 C314 1_555 1_555
N70 C322 1_555 1_555
C315 C319 1_555 1_555
C317 C318 1_555 1_555
C320 C323 1_555 1_555
C321 C327 1_555 1_555
C325 C326 1_555 1_555
C331 C332 1_555 1_555

#END
