# generated using pymatgen
data_K6Ga4H124C258N17O50
_symmetry_space_group_name_H-M   'P 1'
_cell_length_a   19.40500000
_cell_length_b   24.96781001
_cell_length_c   30.52456271
_cell_angle_alpha   82.90470239
_cell_angle_beta   71.46651823
_cell_angle_gamma   67.13256218
_symmetry_Int_Tables_number   1
_chemical_formula_structural   K6Ga4H124C258N17O50
_chemical_formula_sum   'K12 Ga8 H248 C516 N34 O100'
_cell_volume   12920.11442644
_cell_formula_units_Z   2
loop_
 _symmetry_equiv_pos_site_id
 _symmetry_equiv_pos_as_xyz
  1  'x, y, z'
loop_
 _atom_site_type_symbol
 _atom_site_label
 _atom_site_symmetry_multiplicity
 _atom_site_fract_x
 _atom_site_fract_y
 _atom_site_fract_z
 _atom_site_occupancy
  C  C1  1  0.862800  0.000000  0.202400  1
  C  C2  1  0.065200  0.000000  0.797600  1
  C  C3  1  0.815200  0.500000  0.297600  1
  C  C4  1  0.612800  0.500000  0.702400  1
  C  C5  1  0.733900  0.131800  0.414400  1
  C  C6  1  0.280100  0.868200  0.585600  1
  C  C7  1  0.898300  0.631800  0.085600  1
  C  C8  1  0.615700  0.368200  0.914400  1
  C  C9  1  0.470900  0.512600  0.223600  1
  C  C10  1  0.207100  0.487400  0.776400  1
  C  C11  1  0.444500  0.012600  0.276400  1
  C  C12  1  0.733500  0.987400  0.723600  1
  C  C13  1  0.668100  0.951800  0.424000  1
  C  C14  1  0.043900  0.048200  0.576000  1
  C  C15  1  0.842100  0.451800  0.076000  1
  C  C16  1  0.369900  0.548200  0.924000  1
  C  C17  1  0.783500  0.920800  0.496200  1
  C  C18  1  0.200500  0.079200  0.503800  1
  C  C19  1  0.029700  0.420800  0.003800  1
  C  C20  1  0.454300  0.579200  0.996200  1
  C  C21  1  0.841800  0.958600  0.331800  1
  C  C22  1  0.132200  0.041400  0.668200  1
  C  C23  1  0.923600  0.458600  0.168200  1
  C  C24  1  0.550400  0.541400  0.831800  1
  C  C25  1  0.892200  0.885400  0.406200  1
  C  C26  1  0.183800  0.114600  0.593800  1
  C  C27  1  0.048400  0.385400  0.093800  1
  C  C28  1  0.527600  0.614600  0.906200  1
  C  C29  1  0.828400  0.987400  0.375800  1
  C  C30  1  0.191600  0.012600  0.624200  1
  C  C31  1  0.954200  0.487400  0.124200  1
  C  C32  1  0.565800  0.512600  0.875800  1
  C  C33  1  0.760800  0.895600  0.404800  1
  C  C34  1  0.061200  0.104400  0.595200  1
  C  C35  1  0.915600  0.395600  0.095200  1
  C  C36  1  0.406400  0.604400  0.904800  1
  C  C37  1  0.956200  0.900200  0.397400  1
  C  C38  1  0.253800  0.099800  0.602600  1
  C  C39  1  0.103600  0.400200  0.102600  1
  C  C40  1  0.606400  0.599800  0.897400  1
  C  C41  1  0.789500  0.955400  0.461600  1
  C  C42  1  0.206500  0.044600  0.538400  1
  C  C43  1  0.001100  0.455400  0.038400  1
  C  C44  1  0.494900  0.544600  0.961600  1
  C  C45  1  0.549300  0.732200  0.329200  1
  C  C46  1  0.610700  0.267800  0.670800  1
  C  C47  1  0.628500  0.232200  0.170800  1
  C  C48  1  0.031500  0.767800  0.829200  1
  C  C49  1  0.575700  0.016000  0.578600  1
  C  C50  1  0.170300  0.984000  0.421400  1
  C  C51  1  0.904300  0.516000  0.921400  1
  C  C52  1  0.341700  0.484000  0.078600  1
  C  C53  1  0.755300  0.626000  0.417400  1
  C  C54  1  0.798700  0.374000  0.582600  1
  C  C55  1  0.922700  0.126000  0.082600  1
  C  C56  1  0.131300  0.874000  0.917400  1
  C  C57  1  0.873200  0.566200  0.521400  1
  C  C58  1  0.960800  0.433800  0.478600  1
  C  C59  1  0.144600  0.066200  0.978600  1
  C  C60  1  0.189400  0.933800  0.021400  1
  C  C61  1  0.827100  0.591400  0.564400  1
  C  C62  1  0.982900  0.408600  0.435600  1
  C  C63  1  0.141500  0.091400  0.935600  1
  C  C64  1  0.168500  0.908600  0.064400  1
  C  C65  1  0.835200  0.557600  0.604000  1
  C  C66  1  0.996800  0.442400  0.396000  1
  C  C67  1  0.189200  0.057600  0.896000  1
  C  C68  1  0.142800  0.942400  0.104000  1
  C  C69  1  0.048200  0.401400  0.514200  1
  C  C70  1  0.963800  0.598600  0.485800  1
  C  C71  1  0.312400  0.901400  0.985800  1
  C  C72  1  0.199600  0.098600  0.014200  1
  C  C73  1  0.995800  0.423800  0.556600  1
  C  C74  1  0.976200  0.576200  0.443400  1
  C  C75  1  0.302400  0.923800  0.943400  1
  C  C76  1  0.169600  0.076200  0.056600  1
  C  C77  1  0.860900  0.094000  0.180200  1
  C  C78  1  0.135100  0.906000  0.819800  1
  C  C79  1  0.791100  0.594000  0.319800  1
  C  C80  1  0.704900  0.406000  0.680200  1
  C  C81  1  0.542700  0.778000  0.342600  1
  C  C82  1  0.663300  0.222000  0.657400  1
  C  C83  1  0.635300  0.278000  0.157400  1
  C  C84  1  0.070700  0.722000  0.842600  1
  C  C85  1  0.468200  0.792400  0.327200  1
  C  C86  1  0.587800  0.207600  0.672800  1
  C  C87  1  0.545400  0.292400  0.172800  1
  C  C88  1  0.010600  0.707600  0.827200  1
  C  C89  1  0.506100  0.441200  0.208600  1
  C  C90  1  0.155900  0.558800  0.791400  1
  C  C91  1  0.464700  0.941200  0.291400  1
  C  C92  1  0.697300  0.058800  0.708600  1
  C  C93  1  0.711200  0.744000  0.635600  1
  C  C94  1  0.090800  0.256000  0.364400  1
  C  C95  1  0.096800  0.244000  0.864400  1
  C  C96  1  0.205200  0.756000  0.135600  1
  C  C97  1  0.680300  0.830000  0.645400  1
  C  C98  1  0.155700  0.170000  0.354600  1
  C  C99  1  0.075700  0.330000  0.854600  1
  C  C100  1  0.260300  0.670000  0.145400  1
  C  C101  1  0.597700  0.126600  0.418000  1
  C  C102  1  0.142300  0.873400  0.582000  1
  C  C103  1  0.765700  0.626600  0.082000  1
  C  C104  1  0.474300  0.373400  0.918000  1
  C  C105  1  0.450100  0.136000  0.395800  1
  C  C106  1  0.981900  0.864000  0.604200  1
  C  C107  1  0.595900  0.636000  0.104200  1
  C  C108  1  0.336100  0.364000  0.895800  1
  C  C109  1  0.520000  0.100000  0.480000  1
  C  C110  1  0.100000  0.900000  0.520000  1
  C  C111  1  0.750000  0.600000  0.020000  1
  C  C112  1  0.370000  0.400000  0.980000  1
  C  C113  1  0.673600  0.788000  0.668800  1
  C  C114  1  0.130400  0.212000  0.331200  1
  C  C115  1  0.092400  0.288000  0.831200  1
  C  C116  1  0.211600  0.712000  0.168800  1
  C  C117  1  0.800500  0.060000  0.183000  1
  C  C118  1  0.043500  0.940000  0.817000  1
  C  C119  1  0.733500  0.560000  0.317000  1
  C  C120  1  0.610500  0.440000  0.683000  1
  C  C121  1  0.862300  0.142000  0.153400  1
  C  C122  1  0.157700  0.858000  0.846600  1
  C  C123  1  0.765700  0.642000  0.346600  1
  C  C124  1  0.754300  0.358000  0.653400  1
  C  C125  1  0.456500  0.038000  0.627000  1
  C  C126  1  0.121500  0.962000  0.373000  1
  C  C127  1  0.833500  0.538000  0.873000  1
  C  C128  1  0.244500  0.462000  0.127000  1
  C  C129  1  0.674600  0.852000  0.606800  1
  C  C130  1  0.133400  0.148000  0.393200  1
  C  C131  1  0.031400  0.352000  0.893200  1
  C  C132  1  0.276600  0.648000  0.106800  1
  C  C133  1  0.606200  0.865000  0.700600  1
  C  C134  1  0.171800  0.135000  0.299400  1
  C  C135  1  0.056800  0.365000  0.799400  1
  C  C136  1  0.221200  0.635000  0.200600  1
  C  C137  1  0.605600  0.797400  0.661400  1
  C  C138  1  0.064400  0.202600  0.338600  1
  C  C139  1  0.017000  0.297400  0.838600  1
  C  C140  1  0.153000  0.702600  0.161400  1
  C  C141  1  0.236000  0.542200  0.521800  1.0
  C  C142  1  0.300000  0.457800  0.478200  1.0
  C  C143  1  0.507800  0.042200  0.978200  1.0
  C  C144  1  0.528200  0.957800  0.021800  1.0
  C  C145  1  0.300300  0.566000  0.501400  1.0
  C  C146  1  0.367700  0.434000  0.498600  1.0
  C  C147  1  0.551700  0.066000  0.998600  1.0
  C  C148  1  0.616300  0.934000  0.001400  1.0
  C  C149  1  0.172200  0.516600  0.465000  1.0
  C  C150  1  0.153800  0.483400  0.535000  1.0
  C  C151  1  0.387200  0.016600  0.035000  1.0
  C  C152  1  0.438800  0.983400  0.965000  1.0
  C  C153  1  0.164800  0.471600  0.438800  1.0
  C  C154  1  0.075200  0.528400  0.561200  1.0
  C  C155  1  0.353600  0.971600  0.061200  1.0
  C  C156  1  0.386400  0.028400  0.938800  1.0
  C  C157  1  0.321100  0.646600  0.749600  1.0
  C  C158  1  0.717300  0.353400  0.250400  1.0
  C  C159  1  0.820700  0.146600  0.750400  1.0
  C  C160  1  0.717700  0.853400  0.249600  1.0
  C  C161  1  0.311300  0.629000  0.795200  1.0
  C  C162  1  0.735500  0.371000  0.204800  1.0
  C  C163  1  0.856500  0.129000  0.704800  1.0
  C  C164  1  0.690300  0.871000  0.295200  1.0
  C  C165  1  0.328600  0.571200  0.806400  1.0
  C  C166  1  0.706200  0.428800  0.193600  1.0
  C  C167  1  0.885000  0.071200  0.693600  1.0
  C  C168  1  0.649800  0.928800  0.306400  1.0
  C  C169  1  0.356500  0.529800  0.772000  1.0
  C  C170  1  0.658300  0.470200  0.228000  1.0
  C  C171  1  0.878500  0.029800  0.728000  1.0
  C  C172  1  0.636300  0.970200  0.272000  1.0
  C  C173  1  0.366900  0.547400  0.726400  1.0
  C  C174  1  0.640700  0.452600  0.273600  1.0
  C  C175  1  0.843300  0.047400  0.773600  1.0
  C  C176  1  0.664300  0.952600  0.226400  1.0
  C  C177  1  0.349900  0.605200  0.715600  1.0
  C  C178  1  0.670700  0.394800  0.284400  1.0
  C  C179  1  0.815500  0.105200  0.784400  1.0
  C  C180  1  0.705100  0.894800  0.215600  1.0
  C  C181  1  0.403700  0.502800  0.692800  1.0
  C  C182  1  0.599300  0.497200  0.307200  1.0
  C  C183  1  0.846500  0.002800  0.807200  1.0
  C  C184  1  0.656500  0.997200  0.192800  1.0
  C  C185  1  0.201500  0.733600  0.560400  1.0
  C  C186  1  0.495500  0.266400  0.439600  1.0
  C  C187  1  0.511900  0.233600  0.939600  1.0
  C  C188  1  0.685100  0.766400  0.060400  1.0
  C  C189  1  0.089600  0.720400  0.552200  1.0
  C  C190  1  0.362200  0.279600  0.447800  1.0
  C  C191  1  0.391800  0.220400  0.947800  1.0
  C  C192  1  0.560000  0.779600  0.052200  1.0
  C  C193  1  0.151600  0.763600  0.413000  1.0
  C  C194  1  0.328200  0.236400  0.587000  1.0
  C  C195  1  0.314600  0.263600  0.087000  1.0
  C  C196  1  0.665200  0.736400  0.913000  1.0
  C  C197  1  0.271700  0.765200  0.419200  1.0
  C  C198  1  0.456100  0.234800  0.580800  1.0
  C  C199  1  0.440900  0.265200  0.080800  1.0
  C  C200  1  0.786900  0.734800  0.919200  1.0
  C  C201  1  0.421600  0.733200  0.588400  1.0
  C  C202  1  0.743200  0.266800  0.411600  1.0
  C  C203  1  0.760000  0.233200  0.911600  1.0
  C  C204  1  0.904800  0.766800  0.088400  1.0
  C  C205  1  0.234000  0.697200  0.308600  1.0
  C  C206  1  0.239800  0.302800  0.691400  1.0
  C  C207  1  0.292600  0.197200  0.191400  1.0
  C  C208  1  0.681200  0.802800  0.808600  1.0
  C  C209  1  0.858600  0.745000  0.412400  1.0
  C  C210  1  0.016000  0.255000  0.587600  1.0
  C  C211  1  0.021000  0.245000  0.087600  1.0
  C  C212  1  0.353600  0.755000  0.912400  1.0
  C  C213  1  0.010900  0.611200  0.282600  1.0
  C  C214  1  0.904700  0.388800  0.717400  1.0
  C  C215  1  0.043500  0.111200  0.217400  1.0
  C  C216  1  0.372100  0.888800  0.782600  1.0
  C  C217  1  0.029800  0.553600  0.274600  1.0
  C  C218  1  0.858000  0.446400  0.725400  1.0
  C  C219  1  0.054400  0.053600  0.225400  1.0
  C  C220  1  0.333400  0.946400  0.774600  1.0
  C  C221  1  0.041600  0.799200  0.296800  1.0
  C  C222  1  0.137600  0.200800  0.703200  1.0
  C  C223  1  0.088400  0.299200  0.203200  1.0
  C  C224  1  0.590800  0.700800  0.796800  1.0
  C  C225  1  0.137100  0.846600  0.270400  1.0
  C  C226  1  0.254100  0.153400  0.729600  1.0
  C  C227  1  0.157500  0.346600  0.229600  1.0
  C  C228  1  0.733700  0.653400  0.770400  1.0
  C  C229  1  0.060500  0.848400  0.278200  1.0
  C  C230  1  0.187100  0.151600  0.721800  1.0
  C  C231  1  0.088700  0.348400  0.221800  1.0
  C  C232  1  0.658900  0.651600  0.778200  1.0
  C  C233  1  0.157900  0.783600  0.688800  1.0
  C  C234  1  0.630300  0.216400  0.311200  1.0
  C  C235  1  0.596700  0.283600  0.811200  1.0
  C  C236  1  0.691500  0.716400  0.188800  1.0
  C  C237  1  0.819800  0.750200  0.380000  1.0
  C  C238  1  0.950000  0.249800  0.620000  1.0
  C  C239  1  0.949800  0.250200  0.120000  1.0
  C  C240  1  0.320000  0.749800  0.880000  1.0
  C  C241  1  0.738900  0.765400  0.394400  1.0
  C  C242  1  0.898700  0.234600  0.605600  1.0
  C  C243  1  0.883300  0.265400  0.105600  1.0
  C  C244  1  0.254300  0.734600  0.894400  1.0
  C  C245  1  0.697600  0.776000  0.440800  1.0
  C  C246  1  0.914400  0.224000  0.559200  1.0
  C  C247  1  0.888400  0.276000  0.059200  1.0
  C  C248  1  0.223600  0.724000  0.940800  1.0
  C  C249  1  0.196500  0.795200  0.280600  1.0
  C  C250  1  0.272300  0.204800  0.719400  1.0
  C  C251  1  0.227100  0.295200  0.219400  1.0
  C  C252  1  0.741700  0.704800  0.780600  1.0
  C  C253  1  0.176800  0.746600  0.298400  1.0
  C  C254  1  0.221800  0.253400  0.701600  1.0
  C  C255  1  0.225200  0.246600  0.201600  1.0
  C  C256  1  0.673400  0.753400  0.798400  1.0
  C  C257  1  0.100800  0.748400  0.306600  1.0
  C  C258  1  0.155800  0.251600  0.693400  1.0
  C  C259  1  0.157400  0.248400  0.193400  1.0
  C  C260  1  0.599200  0.751600  0.806600  1.0
  C  C261  1  0.458500  0.728800  0.620000  1.0
  C  C262  1  0.807300  0.271200  0.380000  1.0
  C  C263  1  0.828500  0.228800  0.880000  1.0
  C  C264  1  0.937300  0.771200  0.120000  1.0
  C  C265  1  0.528000  0.735200  0.607600  1.0
  C  C266  1  0.870800  0.264800  0.392400  1.0
  C  C267  1  0.885600  0.235200  0.892400  1.0
  C  C268  1  0.013200  0.764800  0.107600  1.0
  C  C269  1  0.558300  0.747800  0.563000  1.0
  C  C270  1  0.869100  0.252200  0.437000  1.0
  C  C271  1  0.871300  0.247800  0.937000  1.0
  C  C272  1  0.056100  0.752200  0.063000  1.0
  C  C273  1  0.520900  0.753200  0.531600  1.0
  C  C274  1  0.805700  0.246800  0.468400  1.0
  C  C275  1  0.802500  0.253200  0.968400  1.0
  C  C276  1  0.024100  0.746800  0.031600  1.0
  C  C277  1  0.450400  0.746800  0.544400  1.0
  C  C278  1  0.741600  0.253200  0.455600  1.0
  C  C279  1  0.744800  0.246800  0.955600  1.0
  C  C280  1  0.947200  0.753200  0.044400  1.0
  C  C281  1  0.196000  0.820000  0.690200  1.0
  C  C282  1  0.706200  0.180000  0.309800  1.0
  C  C283  1  0.636200  0.320000  0.809800  1.0
  C  C284  1  0.766000  0.680000  0.190200  1.0
  C  C285  1  0.076900  0.803600  0.700000  1.0
  C  C286  1  0.580500  0.196400  0.300000  1.0
  C  C287  1  0.526900  0.303600  0.800000  1.0
  C  C288  1  0.630500  0.696400  0.200000  1.0
  C  C289  1  0.153700  0.879000  0.700200  1.0
  C  C290  1  0.732900  0.121000  0.299800  1.0
  C  C291  1  0.603900  0.379000  0.799800  1.0
  C  C292  1  0.782700  0.621000  0.200200  1.0
  C  C293  1  0.072400  0.900200  0.709400  1.0
  C  C294  1  0.682000  0.099800  0.290600  1.0
  C  C295  1  0.531800  0.400200  0.790600  1.0
  C  C296  1  0.722600  0.599800  0.209400  1.0
  C  C297  1  0.034600  0.863800  0.708400  1.0
  C  C298  1  0.606800  0.136200  0.291600  1.0
  C  C299  1  0.493000  0.363800  0.791600  1.0
  C  C300  1  0.648400  0.636200  0.208400  1.0
  C  C301  1  0.045900  0.535800  0.229800  1.0
  C  C302  1  0.811500  0.464200  0.770200  1.0
  C  C303  1  0.025700  0.035800  0.270200  1.0
  C  C304  1  0.331700  0.964200  0.729800  1.0
  C  C305  1  0.039300  0.576400  0.194600  1.0
  C  C306  1  0.810300  0.423600  0.805400  1.0
  C  C307  1  0.983900  0.076400  0.305400  1.0
  C  C308  1  0.365700  0.923600  0.694600  1.0
  C  C309  1  0.020000  0.634800  0.202600  1.0
  C  C310  1  0.857400  0.365200  0.797400  1.0
  C  C311  1  0.972600  0.134800  0.297400  1.0
  C  C312  1  0.404800  0.865200  0.702600  1.0
  C  C313  1  0.009300  0.651800  0.247000  1.0
  C  C314  1  0.908100  0.348200  0.753000  1.0
  C  C315  1  0.006300  0.151800  0.253000  1.0
  C  C316  1  0.411100  0.848200  0.747000  1.0
  C  C317  1  0.817700  0.755200  0.458600  1.0
  C  C318  1  0.031500  0.244800  0.541400  1.0
  C  C319  1  0.026300  0.255200  0.041400  1.0
  C  C320  1  0.322900  0.744800  0.958600  1.0
  C  C321  1  0.736400  0.771400  0.473000  1.0
  C  C322  1  0.980800  0.228600  0.527000  1.0
  C  C323  1  0.959400  0.271400  0.027000  1.0
  C  C324  1  0.257800  0.728600  0.973000  1.0
  C  C325  1  0.033500  0.512800  0.311000  1.0
  C  C326  1  0.857300  0.487200  0.689000  1.0
  C  C327  1  0.094500  0.012800  0.189000  1.0
  C  C328  1  0.296300  0.987200  0.811000  1.0
  C  C329  1  0.025800  0.497000  0.393400  1.0
  C  C330  1  0.916200  0.503000  0.606600  1.0
  C  C331  1  0.169200  0.997000  0.106600  1.0
  C  C332  1  0.272800  0.003000  0.893400  1.0
  C  C333  1  0.976000  0.520200  0.436400  1.0
  C  C334  1  0.932600  0.479800  0.563600  1.0
  C  C335  1  0.162400  0.020200  0.063600  1.0
  C  C336  1  0.246200  0.979800  0.936400  1.0
  C  C337  1  0.868000  0.598600  0.481400  1.0
  C  C338  1  0.948000  0.401400  0.518600  1.0
  C  C339  1  0.099400  0.098600  0.018600  1.0
  C  C340  1  0.216600  0.901400  0.981400  1.0
  C  C341  1  0.920300  0.576400  0.439000  1.0
  C  C342  1  0.935700  0.423600  0.561000  1.0
  C  C343  1  0.109300  0.076400  0.061000  1.0
  C  C344  1  0.246700  0.923600  0.939000  1.0
  C  C345  1  0.319500  0.762000  0.445600  1.0
  C  C346  1  0.527100  0.238000  0.554400  1.0
  C  C347  1  0.515100  0.262000  0.054400  1.0
  C  C348  1  0.831500  0.738000  0.945600  1.0
  C  C349  1  0.297300  0.750200  0.493000  1.0
  C  C350  1  0.540500  0.249800  0.507000  1.0
  C  C351  1  0.540300  0.250200  0.007000  1.0
  C  C352  1  0.797500  0.749800  0.993000  1.0
  C  C353  1  0.226500  0.742200  0.512800  1.0
  C  C354  1  0.481500  0.257800  0.487200  1.0
  C  C355  1  0.489300  0.242200  0.987200  1.0
  C  C356  1  0.718700  0.757800  0.012800  1.0
  C  C357  1  0.177900  0.747000  0.486400  1.0
  C  C358  1  0.411300  0.253000  0.513600  1.0
  C  C359  1  0.414300  0.247000  0.013600  1.0
  C  C360  1  0.674900  0.753000  0.986400  1.0
  C  C361  1  0.108700  0.737600  0.506000  1.0
  C  C362  1  0.352300  0.262400  0.494000  1.0
  C  C363  1  0.364700  0.237600  0.994000  1.0
  C  C364  1  0.596300  0.762400  0.006000  1.0
  C  C365  1  0.083600  0.752600  0.432200  1.0
  C  C366  1  0.268400  0.247400  0.567800  1.0
  C  C367  1  0.265800  0.252600  0.067800  1.0
  C  C368  1  0.586200  0.747400  0.932200  1.0
  C  C369  1  0.063400  0.737400  0.479000  1.0
  C  C370  1  0.279800  0.262600  0.521000  1.0
  C  C371  1  0.292400  0.237400  0.021000  1.0
  C  C372  1  0.550800  0.762600  0.979000  1.0
  C  C373  1  0.201900  0.756400  0.439000  1.0
  C  C374  1  0.397300  0.243600  0.561000  1.0
  C  C375  1  0.390900  0.256400  0.061000  1.0
  C  C376  1  0.708300  0.743600  0.939000  1.0
  C  C377  1  0.413200  0.754200  0.509200  1.0
  C  C378  1  0.676600  0.245800  0.490800  1.0
  C  C379  1  0.672400  0.254200  0.990800  1.0
  C  C380  1  0.917400  0.745800  0.009200  1.0
  C  C381  1  0.990700  0.733200  0.499400  1.0
  C  C382  1  0.223300  0.266800  0.500600  1.0
  C  C383  1  0.240100  0.233200  0.000600  1.0
  C  C384  1  0.473900  0.766800  0.999400  1.0
  C  C385  1  0.854700  0.752200  0.491800  1.0
  C  C386  1  0.098700  0.247800  0.508200  1.0
  C  C387  1  0.096500  0.252200  0.008200  1.0
  C  C388  1  0.356900  0.747800  0.991800  1.0
  C  C389  1  0.035800  0.767200  0.701600  1.0
  C  C390  1  0.504600  0.232800  0.298400  1.0
  C  C391  1  0.487400  0.267200  0.798400  1.0
  C  C392  1  0.553000  0.732800  0.201600  1.0
  C  C393  1  0.981300  0.488000  0.476200  1.0
  C  C394  1  0.945500  0.512000  0.523800  1.0
  C  C395  1  0.207500  0.988000  0.023800  1.0
  C  C396  1  0.219300  0.012000  0.976200  1.0
  C  C397  1  0.082700  0.441200  0.391000  1.0
  C  C398  1  0.914900  0.558800  0.609000  1.0
  C  C399  1  0.223700  0.941200  0.109000  1.0
  C  C400  1  0.273900  0.058800  0.891000  1.0
  C  C401  1  0.135100  0.720000  0.579600  1.0
  C  C402  1  0.434700  0.280000  0.420400  1.0
  C  C403  1  0.464700  0.220000  0.920400  1.0
  C  C404  1  0.605100  0.780000  0.079600  1.0
  C  C405  1  0.968200  0.721000  0.546600  1.0
  C  C406  1  0.235800  0.279000  0.453400  1.0
  C  C407  1  0.264800  0.221000  0.953400  1.0
  C  C408  1  0.439200  0.779000  0.046600  1.0
  C  C409  1  0.016900  0.716400  0.573000  1.0
  C  C410  1  0.306300  0.283600  0.427000  1.0
  C  C411  1  0.339900  0.216400  0.927000  1.0
  C  C412  1  0.483300  0.783600  0.073000  1.0
  C  C413  1  0.089700  0.409400  0.431200  1.0
  C  C414  1  0.930300  0.590600  0.568800  1.0
  C  C415  1  0.270900  0.909400  0.068800  1.0
  C  C416  1  0.249100  0.090600  0.931200  1.0
  C  C417  1  0.038000  0.432200  0.473800  1.0
  C  C418  1  0.944000  0.567800  0.526200  1.0
  C  C419  1  0.261800  0.932200  0.026200  1.0
  C  C420  1  0.220200  0.067800  0.973800  1.0
  C  C421  1  0.269700  0.601200  0.338200  1.0
  C  C422  1  0.209100  0.398800  0.661800  1.0
  C  C423  1  0.357900  0.101200  0.161800  1.0
  C  C424  1  0.620900  0.898800  0.838200  1.0
  C  C425  1  0.318500  0.604400  0.361600  1.0
  C  C426  1  0.284500  0.395600  0.638400  1.0
  C  C427  1  0.430100  0.104400  0.138400  1.0
  C  C428  1  0.672900  0.895600  0.861600  1.0
  C  C429  1  0.272600  0.546600  0.328600  1.0
  C  C430  1  0.147800  0.453400  0.671400  1.0
  C  C431  1  0.351200  0.046600  0.171400  1.0
  C  C432  1  0.569200  0.953400  0.828600  1.0
  C  C433  1  0.375800  0.553200  0.371200  1.0
  C  C434  1  0.300200  0.446800  0.628800  1.0
  C  C435  1  0.497000  0.053200  0.128800  1.0
  C  C436  1  0.679000  0.946800  0.871200  1.0
  C  C437  1  0.383500  0.499600  0.357400  1.0
  C  C438  1  0.240500  0.500400  0.642600  1.0
  C  C439  1  0.490900  0.999600  0.142600  1.0
  C  C440  1  0.633100  0.000400  0.857400  1.0
  C  C441  1  0.332600  0.496200  0.335200  1.0
  C  C442  1  0.164000  0.503800  0.664800  1.0
  C  C443  1  0.417800  0.996200  0.164800  1.0
  C  C444  1  0.578800  0.003800  0.835200  1.0
  C  C445  1  0.220000  0.543600  0.306800  1.0
  C  C446  1  0.070400  0.456400  0.693200  1.0
  C  C447  1  0.276800  0.043600  0.193200  1.0
  C  C448  1  0.513600  0.956400  0.806800  1.0
  C  C449  1  0.342600  0.442200  0.319400  1.0
  C  C450  1  0.104200  0.557800  0.680600  1.0
  C  C451  1  0.412000  0.942200  0.180600  1.0
  C  C452  1  0.534800  0.057800  0.819400  1.0
  C  C453  1  0.291500  0.439200  0.297000  1.0
  C  C454  1  0.027700  0.560800  0.703000  1.0
  C  C455  1  0.338500  0.939200  0.203000  1.0
  C  C456  1  0.480700  0.060800  0.797000  1.0
  C  C457  1  0.227800  0.490000  0.293000  1.0
  C  C458  1  0.010800  0.510000  0.707000  1.0
  C  C459  1  0.270800  0.990000  0.207000  1.0
  C  C460  1  0.467800  0.010000  0.793000  1.0
  C  C461  1  0.405500  0.392400  0.324000  1.0
  C  C462  1  0.121900  0.607600  0.676000  1.0
  C  C463  1  0.479500  0.892400  0.176000  1.0
  C  C464  1  0.547900  0.107600  0.824000  1.0
  C  C465  1  0.455100  0.395800  0.347800  1.0
  C  C466  1  0.198700  0.604200  0.652200  1.0
  C  C467  1  0.552900  0.895800  0.152200  1.0
  C  C468  1  0.600900  0.104200  0.847800  1.0
  C  C469  1  0.443900  0.448400  0.364200  1.0
  C  C470  1  0.256500  0.551600  0.635800  1.0
  C  C471  1  0.558100  0.948400  0.135800  1.0
  C  C472  1  0.642300  0.051600  0.864200  1.0
  C  C473  1  0.302500  0.385400  0.280800  1.0
  C  C474  1  0.968700  0.614600  0.719200  1.0
  C  C475  1  0.333300  0.885400  0.219200  1.0
  C  C476  1  0.437900  0.114600  0.780800  1.0
  C  C477  1  0.365300  0.335200  0.286000  1.0
  C  C478  1  0.986500  0.664800  0.714000  1.0
  C  C479  1  0.401300  0.835200  0.214000  1.0
  C  C480  1  0.450500  0.164800  0.786000  1.0
  C  C481  1  0.064200  0.660400  0.695000  1.0
  C  C482  1  0.419600  0.339600  0.305000  1.0
  C  C483  1  0.509200  0.160400  0.805000  1.0
  C  C484  1  0.474600  0.839600  0.195000  1.0
  C  C485  1  0.467700  0.487200  0.605400  1.0
  C  C486  1  0.560300  0.512800  0.394600  1.0
  C  C487  1  0.823100  0.987200  0.894600  1.0
  C  C488  1  0.704900  0.012800  0.105400  1.0
  C  C489  1  0.539400  0.395200  0.563400  1.0
  C  C490  1  0.498000  0.604800  0.436600  1.0
  C  C491  1  0.852800  0.895200  0.936600  1.0
  C  C492  1  0.684600  0.104800  0.063400  1.0
  C  C493  1  0.501600  0.425800  0.605600  1.0
  C  C494  1  0.533000  0.574200  0.394400  1.0
  C  C495  1  0.857200  0.925800  0.894400  1.0
  C  C496  1  0.677400  0.074200  0.105600  1.0
  C  C497  1  0.513300  0.485000  0.521400  1.0
  C  C498  1  0.519700  0.515000  0.478600  1.0
  C  C499  1  0.784700  0.985000  0.978600  1.0
  C  C500  1  0.748300  0.015000  0.021400  1.0
  C  C501  1  0.475000  0.516800  0.563000  1.0
  C  C502  1  0.554800  0.483200  0.437000  1.0
  C  C503  1  0.788000  0.016800  0.937000  1.0
  C  C504  1  0.741800  0.983200  0.063000  1.0
  C  C505  1  0.442200  0.578400  0.560400  1.0
  C  C506  1  0.581000  0.421600  0.439600  1.0
  C  C507  1  0.752600  0.078400  0.939600  1.0
  C  C508  1  0.770600  0.921600  0.060400  1.0
  C  C509  1  0.538700  0.427400  0.523800  1.0
  C  C510  1  0.489900  0.572600  0.476200  1.0
  C  C511  1  0.812500  0.927400  0.976200  1.0
  C  C512  1  0.716100  0.072600  0.023800  1.0
  C  C513  1  0.450100  0.605600  0.517000  1.0
  C  C514  1  0.572700  0.394400  0.483000  1.0
  C  C515  1  0.717100  0.105600  0.983000  1.0
  C  C516  1  0.805700  0.894400  0.017000  1.0
  Ga  Ga517  1  0.971350  0.720200  0.322100  1.0
  Ga  Ga518  1  0.013650  0.279800  0.677900  1.0
  Ga  Ga519  1  0.043450  0.220200  0.177900  1.0
  Ga  Ga520  1  0.441550  0.779800  0.822100  1.0
  Ga  Ga521  1  0.320750  0.716840  0.672860  1.0
  Ga  Ga522  1  0.710450  0.283160  0.327140  1.0
  Ga  Ga523  1  0.743610  0.216840  0.827140  1.0
  Ga  Ga524  1  0.787590  0.783160  0.172860  1.0
  H  H525  1  0.791400  0.630600  0.566800  1
  H  H526  1  0.988800  0.369400  0.433200  1
  H  H527  1  0.108200  0.130600  0.933200  1
  H  H528  1  0.172000  0.869400  0.066800  1
  H  H529  1  0.791300  0.566400  0.631000  1
  H  H530  1  0.988700  0.433600  0.369000  1
  H  H531  1  0.172300  0.066400  0.869000  1
  H  H532  1  0.107700  0.933600  0.131000  1
  H  H533  1  0.091700  0.365800  0.512600  1
  H  H534  1  0.970100  0.634200  0.487400  1
  H  H535  1  0.354300  0.865800  0.987400  1
  H  H536  1  0.207500  0.134200  0.012600  1
  H  H537  1  0.000900  0.400200  0.583000  1
  H  H538  1  0.984100  0.599800  0.417000  1
  H  H539  1  0.333900  0.900200  0.917000  1
  H  H540  1  0.151100  0.099800  0.083000  1
  H  H541  1  0.243800  0.524400  0.551400  1.0
  H  H542  1  0.319600  0.475600  0.448600  1.0
  H  H543  1  0.545200  0.024400  0.948600  1.0
  H  H544  1  0.518200  0.975600  0.051400  1.0
  H  H545  1  0.186900  0.576800  0.529800  1.0
  H  H546  1  0.293500  0.423200  0.470200  1.0
  H  H547  1  0.466700  0.076800  0.970200  1.0
  H  H548  1  0.513700  0.923200  0.029800  1.0
  H  H549  1  0.294700  0.595000  0.522400  1.0
  H  H550  1  0.412100  0.405000  0.477600  1.0
  H  H551  1  0.567100  0.095000  0.977600  1.0
  H  H552  1  0.639700  0.905000  0.022400  1.0
  H  H553  1  0.296200  0.584000  0.471400  1.0
  H  H554  1  0.351600  0.416000  0.528600  1.0
  H  H555  1  0.517600  0.084000  0.028600  1.0
  H  H556  1  0.630200  0.916000  0.971400  1.0
  H  H557  1  0.351200  0.534000  0.497200  1.0
  H  H558  1  0.382400  0.466000  0.502800  1.0
  H  H559  1  0.598400  0.034000  0.002800  1.0
  H  H560  1  0.635200  0.966000  0.997200  1.0
  H  H561  1  0.194200  0.541000  0.441400  1.0
  H  H562  1  0.176600  0.459000  0.558600  1.0
  H  H563  1  0.385600  0.041000  0.058600  1.0
  H  H564  1  0.485200  0.959000  0.941400  1.0
  H  H565  1  0.118000  0.542000  0.481400  1.0
  H  H566  1  0.141400  0.458000  0.518600  1.0
  H  H567  1  0.349400  0.042000  0.018600  1.0
  H  H568  1  0.410000  0.958000  0.981400  1.0
  H  H569  1  0.132200  0.491800  0.418200  1.0
  H  H570  1  0.042200  0.508200  0.581800  1.0
  H  H571  1  0.300400  0.991800  0.081800  1.0
  H  H572  1  0.374000  0.008200  0.918200  1.0
  H  H573  1  0.139700  0.447800  0.460800  1.0
  H  H574  1  0.048300  0.552200  0.539200  1.0
  H  H575  1  0.350500  0.947800  0.039200  1.0
  H  H576  1  0.337500  0.052200  0.960800  1.0
  H  H577  1  0.216500  0.446800  0.420400  1.0
  H  H578  1  0.083700  0.553200  0.579600  1.0
  H  H579  1  0.386900  0.946800  0.079600  1.0
  H  H580  1  0.413300  0.053200  0.920400  1.0
  H  H581  1  0.002800  0.568200  0.358400  1.0
  H  H582  1  0.929400  0.431800  0.641600  1.0
  H  H583  1  0.111200  0.068200  0.141600  1.0
  H  H584  1  0.321000  0.931800  0.858400  1.0
  H  H585  1  0.319200  0.749800  0.549400  1.0
  H  H586  1  0.618400  0.250200  0.450600  1.0
  H  H587  1  0.618600  0.249800  0.950600  1.0
  H  H588  1  0.819000  0.750200  0.049400  1.0
  H  H589  1  0.133500  0.702400  0.686800  1.0
  H  H590  1  0.522700  0.297600  0.313200  1.0
  H  H591  1  0.570300  0.202400  0.813200  1.0
  H  H592  1  0.585900  0.797600  0.186800  1.0
  H  H593  1  0.954500  0.725000  0.446000  1.0
  H  H594  1  0.125500  0.275000  0.554000  1.0
  H  H595  1  0.150500  0.225000  0.054000  1.0
  H  H596  1  0.429500  0.775000  0.946000  1.0
  H  H597  1  0.415300  0.558200  0.642600  1.0
  H  H598  1  0.616100  0.441800  0.357400  1.0
  H  H599  1  0.807900  0.058200  0.857400  1.0
  H  H600  1  0.723500  0.941800  0.142600  1.0
  H  H601  1  0.162100  0.651200  0.334400  1.0
  H  H602  1  0.147700  0.348800  0.665600  1.0
  H  H603  1  0.246500  0.151200  0.165600  1.0
  H  H604  1  0.563300  0.848800  0.834400  1.0
  H  H605  1  0.292500  0.657000  0.819000  1.0
  H  H606  1  0.768500  0.343000  0.181000  1.0
  H  H607  1  0.861500  0.157000  0.681000  1.0
  H  H608  1  0.699500  0.843000  0.319000  1.0
  H  H609  1  0.321700  0.559200  0.837800  1.0
  H  H610  1  0.718700  0.440800  0.162200  1.0
  H  H611  1  0.909500  0.059200  0.662200  1.0
  H  H612  1  0.630900  0.940800  0.337800  1.0
  H  H613  1  0.368400  0.489800  0.779600  1.0
  H  H614  1  0.637800  0.510200  0.220400  1.0
  H  H615  1  0.898000  0.989800  0.720400  1.0
  H  H616  1  0.608200  0.010200  0.279600  1.0
  H  H617  1  0.229800  0.736800  0.579600  1.0
  H  H618  1  0.546200  0.263200  0.420400  1.0
  H  H619  1  0.559400  0.236800  0.920400  1.0
  H  H620  1  0.716600  0.763200  0.079600  1.0
  H  H621  1  0.163900  0.776200  0.381800  1.0
  H  H622  1  0.321900  0.223800  0.618200  1.0
  H  H623  1  0.295700  0.276200  0.118200  1.0
  H  H624  1  0.690100  0.723800  0.881800  1.0
  H  H625  1  0.286900  0.773600  0.387200  1.0
  H  H626  1  0.447700  0.226400  0.612800  1.0
  H  H627  1  0.424100  0.273600  0.112800  1.0
  H  H628  1  0.810500  0.726400  0.887200  1.0
  H  H629  1  0.149200  0.880000  0.258600  1.0
  H  H630  1  0.287800  0.120000  0.741400  1.0
  H  H631  1  0.157800  0.380000  0.241400  1.0
  H  H632  1  0.779200  0.620000  0.758600  1.0
  H  H633  1  0.021700  0.882600  0.270800  1.0
  H  H634  1  0.175100  0.117400  0.729200  1.0
  H  H635  1  0.042500  0.382600  0.229200  1.0
  H  H636  1  0.654300  0.617400  0.770800  1.0
  H  H637  1  0.712000  0.768600  0.372600  1.0
  H  H638  1  0.853200  0.231400  0.627400  1.0
  H  H639  1  0.834600  0.268600  0.127400  1.0
  H  H640  1  0.230600  0.731400  0.872600  1.0
  H  H641  1  0.642400  0.786400  0.450600  1.0
  H  H642  1  0.879400  0.213600  0.549400  1.0
  H  H643  1  0.843000  0.286400  0.049400  1.0
  H  H644  1  0.178800  0.713600  0.950600  1.0
  H  H645  1  0.248100  0.794000  0.275200  1.0
  H  H646  1  0.317300  0.206000  0.724800  1.0
  H  H647  1  0.273300  0.294000  0.224800  1.0
  H  H648  1  0.792100  0.706000  0.775200  1.0
  H  H649  1  0.555100  0.730800  0.629600  1.0
  H  H650  1  0.915500  0.269200  0.370400  1.0
  H  H651  1  0.934700  0.230800  0.870400  1.0
  H  H652  1  0.035900  0.769200  0.129600  1.0
  H  H653  1  0.607000  0.753000  0.553600  1.0
  H  H654  1  0.913600  0.247000  0.446400  1.0
  H  H655  1  0.910600  0.253000  0.946400  1.0
  H  H656  1  0.110000  0.747000  0.053600  1.0
  H  H657  1  0.543500  0.761400  0.500400  1.0
  H  H658  1  0.805300  0.238600  0.499600  1.0
  H  H659  1  0.793900  0.261400  0.999600  1.0
  H  H660  1  0.054900  0.738600  0.000400  1.0
  H  H661  1  0.179700  0.904200  0.700800  1.0
  H  H662  1  0.784700  0.095800  0.299200  1.0
  H  H663  1  0.630500  0.404200  0.799200  1.0
  H  H664  1  0.833900  0.595800  0.200800  1.0
  H  H665  1  0.042700  0.940400  0.716400  1.0
  H  H666  1  0.699500  0.059600  0.283600  1.0
  H  H667  1  0.509100  0.440400  0.783600  1.0
  H  H668  1  0.733100  0.559600  0.216400  1.0
  H  H669  1  0.979600  0.879400  0.713400  1.0
  H  H670  1  0.572400  0.120600  0.286600  1.0
  H  H671  1  0.443000  0.379400  0.786600  1.0
  H  H672  1  0.609000  0.620600  0.213400  1.0
  H  H673  1  0.061300  0.495800  0.223400  1.0
  H  H674  1  0.780500  0.504200  0.776600  1.0
  H  H675  1  0.034700  0.995800  0.276600  1.0
  H  H676  1  0.307100  0.004200  0.723400  1.0
  H  H677  1  0.048300  0.564200  0.164200  1.0
  H  H678  1  0.776700  0.435800  0.835800  1.0
  H  H679  1  0.962500  0.064200  0.335800  1.0
  H  H680  1  0.362500  0.935800  0.664200  1.0
  H  H681  1  0.037600  0.659000  0.176000  1.0
  H  H682  1  0.872600  0.341000  0.824000  1.0
  H  H683  1  0.963600  0.159000  0.324000  1.0
  H  H684  1  0.446600  0.841000  0.676000  1.0
  H  H685  1  0.707900  0.779200  0.504600  1.0
  H  H686  1  0.991700  0.220800  0.495400  1.0
  H  H687  1  0.962500  0.279200  0.995400  1.0
  H  H688  1  0.237100  0.720800  0.004600  1.0
  H  H689  1  0.828100  0.636400  0.483200  1.0
  H  H690  1  0.947700  0.363600  0.516800  1.0
  H  H691  1  0.061300  0.136400  0.016800  1.0
  H  H692  1  0.214500  0.863600  0.983200  1.0
  H  H693  1  0.918000  0.599200  0.411800  1.0
  H  H694  1  0.929000  0.400800  0.588200  1.0
  H  H695  1  0.079800  0.099200  0.088200  1.0
  H  H696  1  0.267200  0.900800  0.911800  1.0
  H  H697  1  0.367500  0.767600  0.431600  1.0
  H  H698  1  0.566700  0.232400  0.568400  1.0
  H  H699  1  0.549100  0.267600  0.068400  1.0
  H  H700  1  0.885100  0.732400  0.931600  1.0
  H  H701  1  0.050900  0.755200  0.414000  1.0
  H  H702  1  0.220100  0.244800  0.586000  1.0
  H  H703  1  0.214900  0.255200  0.086000  1.0
  H  H704  1  0.556100  0.744800  0.914000  1.0
  H  H705  1  0.116800  0.425000  0.361800  1.0
  H  H706  1  0.903600  0.575000  0.638200  1.0
  H  H707  1  0.228600  0.925000  0.138200  1.0
  H  H708  1  0.291800  0.075000  0.861800  1.0
  H  H709  1  0.120700  0.710600  0.611400  1.0
  H  H710  1  0.442700  0.289400  0.388600  1.0
  H  H711  1  0.482100  0.210600  0.888600  1.0
  H  H712  1  0.581300  0.789400  0.111400  1.0
  H  H713  1  0.919700  0.716200  0.560600  1.0
  H  H714  1  0.196500  0.283800  0.439400  1.0
  H  H715  1  0.230300  0.216200  0.939400  1.0
  H  H716  1  0.385900  0.783800  0.060600  1.0
  H  H717  1  0.000500  0.710200  0.605400  1.0
  H  H718  1  0.316100  0.289800  0.394600  1.0
  H  H719  1  0.355900  0.210200  0.894600  1.0
  H  H720  1  0.460700  0.789800  0.105400  1.0
  H  H721  1  0.129800  0.372200  0.429600  1.0
  H  H722  1  0.931600  0.627800  0.570400  1.0
  H  H723  1  0.309400  0.872200  0.070400  1.0
  H  H724  1  0.252000  0.127800  0.929600  1.0
  H  H725  1  0.313500  0.641000  0.370800  1.0
  H  H726  1  0.325300  0.359000  0.629200  1.0
  H  H727  1  0.434300  0.141000  0.129200  1.0
  H  H728  1  0.704500  0.859000  0.870800  1.0
  H  H729  1  0.409300  0.555000  0.387400  1.0
  H  H730  1  0.351700  0.445000  0.612600  1.0
  H  H731  1  0.546700  0.055000  0.112600  1.0
  H  H732  1  0.714300  0.945000  0.887400  1.0
  H  H733  1  0.179400  0.578000  0.301600  1.0
  H  H734  1  0.059000  0.422000  0.698400  1.0
  H  H735  1  0.231000  0.078000  0.198400  1.0
  H  H736  1  0.507400  0.922000  0.801600  1.0
  H  H737  1  0.189700  0.487600  0.280800  1.0
  H  H738  1  0.958100  0.512400  0.719200  1.0
  H  H739  1  0.220500  0.987600  0.219200  1.0
  H  H740  1  0.427300  0.012400  0.780800  1.0
  H  H741  1  0.496500  0.361800  0.352400  1.0
  H  H742  1  0.210700  0.638200  0.647600  1.0
  H  H743  1  0.598900  0.861800  0.147600  1.0
  H  H744  1  0.608300  0.138200  0.852400  1.0
  H  H745  1  0.477400  0.450200  0.380400  1.0
  H  H746  1  0.308000  0.549800  0.619600  1.0
  H  H747  1  0.607800  0.950200  0.119600  1.0
  H  H748  1  0.677600  0.049800  0.880400  1.0
  H  H749  1  0.267300  0.383000  0.266200  1.0
  H  H750  1  0.916500  0.617000  0.733800  1.0
  H  H751  1  0.283500  0.883000  0.233800  1.0
  H  H752  1  0.400300  0.117000  0.766200  1.0
  H  H753  1  0.370800  0.298400  0.276800  1.0
  H  H754  1  0.946000  0.701600  0.723200  1.0
  H  H755  1  0.397600  0.798400  0.223200  1.0
  H  H756  1  0.419200  0.201600  0.776800  1.0
  H  H757  1  0.564300  0.354000  0.562600  1.0
  H  H758  1  0.480900  0.646000  0.437400  1.0
  H  H759  1  0.876900  0.854000  0.937400  1.0
  H  H760  1  0.668300  0.146000  0.062600  1.0
  H  H761  1  0.498900  0.405200  0.634000  1.0
  H  H762  1  0.538100  0.594800  0.366000  1.0
  H  H763  1  0.882900  0.905200  0.866000  1.0
  H  H764  1  0.654100  0.094800  0.134000  1.0
  H  H765  1  0.415100  0.601000  0.588000  1.0
  H  H766  1  0.604100  0.399000  0.412000  1.0
  H  H767  1  0.753100  0.101000  0.912000  1.0
  H  H768  1  0.766100  0.899000  0.088000  1.0
  H  H769  1  0.428400  0.646800  0.515200  1.0
  H  H770  1  0.590400  0.353200  0.484800  1.0
  H  H771  1  0.693600  0.146800  0.984800  1.0
  H  H772  1  0.825200  0.853200  0.015200  1.0
  K  K773  1  0.889340  0.816400  0.245320  1
  K  K774  1  0.951060  0.183600  0.754680  1
  K  K775  1  0.884660  0.316400  0.254680  1
  K  K776  1  0.455740  0.683600  0.745320  1
  K  K777  1  0.451560  0.645680  0.280000  1
  K  K778  1  0.377240  0.354320  0.720000  1
  K  K779  1  0.481560  0.145680  0.220000  1
  K  K780  1  0.847240  0.854320  0.780000  1
  K  K781  1  0.834770  0.690800  0.270460  1
  K  K782  1  0.796030  0.309200  0.729540  1
  K  K783  1  0.855230  0.190800  0.229540  1
  K  K784  1  0.275570  0.809200  0.770460  1
  N  N785  1  0.218000  0.500000  0.500000  1
  N  N786  1  0.468000  0.000000  0.000000  1
  N  N787  1  0.825600  0.930200  0.410600  1
  N  N788  1  0.166400  0.069800  0.589400  1
  N  N789  1  0.986200  0.430200  0.089400  1
  N  N790  1  0.505800  0.569800  0.910600  1
  N  N791  1  0.708900  0.813000  0.655200  1
  N  N792  1  0.177100  0.187000  0.344800  1
  N  N793  1  0.114100  0.313000  0.844800  1
  N  N794  1  0.271900  0.687000  0.155200  1
  N  N795  1  0.018900  0.530400  0.354600  1.0
  N  N796  1  0.903900  0.469600  0.645400  1.0
  N  N797  1  0.123500  0.030400  0.145400  1.0
  N  N798  1  0.299300  0.969600  0.854600  1.0
  N  N799  1  0.341700  0.751200  0.519600  1.0
  N  N800  1  0.612500  0.248800  0.480400  1.0
  N  N801  1  0.611300  0.251200  0.980400  1.0
  N  N802  1  0.842900  0.748800  0.019600  1.0
  N  N803  1  0.083100  0.709600  0.693800  1.0
  N  N804  1  0.486500  0.290400  0.306200  1.0
  N  N805  1  0.526900  0.209600  0.806200  1.0
  N  N806  1  0.542700  0.790400  0.193800  1.0
  N  N807  1  0.934000  0.735600  0.475200  1.0
  N  N808  1  0.144800  0.264400  0.524800  1.0
  N  N809  1  0.159200  0.235600  0.024800  1.0
  N  N810  1  0.419600  0.764400  0.975200  1.0
  N  N811  1  0.427300  0.520600  0.646600  1.0
  N  N812  1  0.594500  0.479400  0.353400  1.0
  N  N813  1  0.823900  0.020600  0.853400  1.0
  N  N814  1  0.697900  0.979400  0.146600  1.0
  N  N815  1  0.210400  0.649600  0.328600  1.0
  N  N816  1  0.188600  0.350400  0.671400  1.0
  N  N817  1  0.289000  0.149600  0.171400  1.0
  N  N818  1  0.610000  0.850400  0.828600  1.0
  O  O819  1  0.894200  0.925600  0.216000  1
  O  O820  1  0.035800  0.074400  0.784000  1
  O  O821  1  0.860200  0.425600  0.284000  1
  O  O822  1  0.569800  0.574400  0.716000  1
  O  O823  1  0.799300  0.133200  0.389600  1
  O  O824  1  0.322100  0.866800  0.610400  1
  O  O825  1  0.938900  0.633200  0.110400  1
  O  O826  1  0.682500  0.366800  0.889600  1
  O  O827  1  0.449300  0.578600  0.218200  1
  O  O828  1  0.246100  0.421400  0.781800  1
  O  O829  1  0.417500  0.078600  0.281800  1
  O  O830  1  0.777900  0.921400  0.718200  1
  O  O831  1  0.485400  0.707000  0.330200  1
  O  O832  1  0.522600  0.293000  0.669800  1
  O  O833  1  0.565600  0.207000  0.169800  1
  O  O834  1  0.942400  0.793000  0.830200  1
  O  O835  1  0.523300  0.051800  0.621600  1
  O  O836  1  0.196700  0.948200  0.378400  1
  O  O837  1  0.894900  0.551800  0.878400  1
  O  O838  1  0.325100  0.448200  0.121600  1
  O  O839  1  0.675100  0.619200  0.444600  1
  O  O840  1  0.738900  0.380800  0.555400  1
  O  O841  1  0.869700  0.119200  0.055400  1
  O  O842  1  0.044300  0.880800  0.944600  1
  O  O843  1  0.657800  0.107000  0.433400  1
  O  O844  1  0.198200  0.893000  0.566600  1
  O  O845  1  0.841200  0.607000  0.066600  1
  O  O846  1  0.514800  0.393000  0.933400  1
  O  O847  1  0.854400  0.741200  0.332800  1.0
  O  O848  1  0.928400  0.258800  0.667200  1.0
  O  O849  1  0.937200  0.241200  0.167200  1.0
  O  O850  1  0.345600  0.758800  0.832800  1.0
  O  O851  1  0.936500  0.729200  0.391000  1.0
  O  O852  1  0.056700  0.270800  0.609000  1.0
  O  O853  1  0.077500  0.229200  0.109000  1.0
  O  O854  1  0.415700  0.770800  0.891000  1.0
  O  O855  1  0.994800  0.634400  0.324400  1.0
  O  O856  1  0.953600  0.365600  0.675600  1.0
  O  O857  1  0.069200  0.134400  0.175600  1.0
  O  O858  1  0.379200  0.865600  0.824400  1.0
  O  O859  1  0.987900  0.709200  0.253600  1.0
  O  O860  1  0.950700  0.290800  0.746400  1.0
  O  O861  1  0.991500  0.209200  0.246400  1.0
  O  O862  1  0.447100  0.790800  0.753600  1.0
  O  O863  1  0.966700  0.799600  0.305000  1.0
  O  O864  1  0.071300  0.200400  0.695000  1.0
  O  O865  1  0.021700  0.299600  0.195000  1.0
  O  O866  1  0.516300  0.700400  0.805000  1.0
  O  O867  1  0.070400  0.706200  0.324200  1.0
  O  O868  1  0.100800  0.293800  0.675800  1.0
  O  O869  1  0.144600  0.206200  0.175800  1.0
  O  O870  1  0.526600  0.793800  0.824200  1.0
  O  O871  1  0.052900  0.460800  0.303200  1.0
  O  O872  1  0.816900  0.539200  0.696800  1.0
  O  O873  1  0.106100  0.960800  0.196800  1.0
  O  O874  1  0.263700  0.039200  0.803200  1.0
  O  O875  1  0.450000  0.763400  0.468800  1.0
  O  O876  1  0.682200  0.236600  0.531200  1.0
  O  O877  1  0.668800  0.263400  0.031200  1.0
  O  O878  1  0.963400  0.736600  0.968800  1.0
  O  O879  1  0.350200  0.726800  0.603400  1.0
  O  O880  1  0.680400  0.273200  0.396600  1.0
  O  O881  1  0.703600  0.226800  0.896600  1.0
  O  O882  1  0.827000  0.773200  0.103400  1.0
  O  O883  1  0.427100  0.716400  0.664800  1.0
  O  O884  1  0.808300  0.283600  0.335200  1.0
  O  O885  1  0.841900  0.216400  0.835200  1.0
  O  O886  1  0.893500  0.783600  0.164800  1.0
  O  O887  1  0.359400  0.629600  0.673000  1.0
  O  O888  1  0.662000  0.370400  0.327000  1.0
  O  O889  1  0.782400  0.129600  0.827000  1.0
  O  O890  1  0.739000  0.870400  0.173000  1.0
  O  O891  1  0.208200  0.727600  0.680600  1.0
  O  O892  1  0.616400  0.272400  0.319400  1.0
  O  O893  1  0.638800  0.227600  0.819400  1.0
  O  O894  1  0.685800  0.772400  0.180600  1.0
  O  O895  1  0.274500  0.804000  0.681400  1.0
  O  O896  1  0.759900  0.196000  0.318600  1.0
  O  O897  1  0.705900  0.304000  0.818600  1.0
  O  O898  1  0.828500  0.696000  0.181400  1.0
  O  O899  1  0.301000  0.704600  0.743000  1.0
  O  O900  1  0.748600  0.295400  0.257000  1.0
  O  O901  1  0.794000  0.204600  0.757000  1.0
  O  O902  1  0.755600  0.795400  0.243000  1.0
  O  O903  1  0.816800  0.761600  0.532800  1.0
  O  O904  1  0.111200  0.238400  0.467200  1.0
  O  O905  1  0.099600  0.261600  0.967200  1.0
  O  O906  1  0.328400  0.738400  0.032800  1.0
  O  O907  1  0.965600  0.785800  0.709200  1.0
  O  O908  1  0.460600  0.214200  0.290800  1.0
  O  O909  1  0.424800  0.285800  0.790800  1.0
  O  O910  1  0.501400  0.714200  0.209200  1.0
  O  O911  1  0.410400  0.452000  0.701600  1.0
  O  O912  1  0.564000  0.548000  0.298400  1.0
  O  O913  1  0.862000  0.952000  0.798400  1.0
  O  O914  1  0.612400  0.048000  0.201600  1.0
  O  O915  1  0.298800  0.703400  0.299400  1.0
  O  O916  1  0.301600  0.296600  0.700600  1.0
  O  O917  1  0.348200  0.203400  0.200600  1.0
  O  O918  1  0.752200  0.796600  0.799400  1.0
