
#######################################################################
#
#                 Cambridge Crystallographic Data Centre
#                                CCDC 
#
#######################################################################
#
# If this CIF has been generated from an entry in the Cambridge 
# Structural Database, then it will include bibliographic, chemical, 
# crystal, experimental, refinement or atomic coordinate data resulting 
# from the CCDC's data processing and validation procedures.
#
#######################################################################

data_MERCUH
_chemical_formula_moiety         
'C180 H96 Ga4 N12 O36 12-,6(C8 H20 N1 1+),6(K1 1+),C1 H4 O1,4(H2 O1)'
_chemical_name_systematic        
"Hexa-potassium hexakis(tetraethylammonium) hexakis(\m~2~-N,N'-bis(1,2-dioxybenzoyl)pyrene-1,6-diamine)-tetra-gallium clathrate methanol solvate tetrahydrate"
_symmetry_cell_setting           orthorhombic
_symmetry_space_group_name_H-M   'F d d 2'
_symmetry_Int_Tables_number      43
_space_group_name_Hall           'F 2 -2d'
loop_
_symmetry_equiv_pos_site_id
_symmetry_equiv_pos_as_xyz
1 x,y,z
2 -x,-y,z
3 1/4+x,1/4-y,1/4+z
4 1/4-x,1/4+y,1/4+z
5 x,1/2+y,1/2+z
6 -x,1/2-y,1/2+z
7 1/4+x,3/4-y,3/4+z
8 1/4-x,3/4+y,3/4+z
9 1/2+x,y,1/2+z
10 1/2-x,-y,1/2+z
11 3/4+x,1/4-y,3/4+z
12 3/4-x,1/4+y,3/4+z
13 1/2+x,1/2+y,z
14 1/2-x,1/2-y,z
15 3/4+x,3/4-y,1/4+z
16 3/4-x,3/4+y,1/4+z
_cell_length_a                   46.011(5)
_cell_length_b                   57.883(5)
_cell_length_c                   19.405(2)
_cell_angle_alpha                90
_cell_angle_beta                 90
_cell_angle_gamma                90
_cell_volume                     51680.5
_exptl_crystal_colour            yellow
_exptl_crystal_description       block
_cell_formula_units_Z            8
loop_
_atom_site_label
_atom_site_type_symbol
_atom_site_fract_x
_atom_site_fract_y
_atom_site_fract_z
K2 K -0.5918(2) 0.62266(16) 0.9202(5)
K3 K -0.67716(19) 0.64000(14) 0.4144(5)
O1 O -0.5372(12) 0.6080(9) 0.965(3)
C1 C -0.500(2) 0.6012(18) 0.964(5)
N1 N -0.7500 0.7500 0.218(4)
C2 C -0.7289(12) 0.7609(8) 0.268(4)
H1 H -0.7378 0.7757 0.2817
H2 H -0.7116 0.7649 0.2402
C3 C -0.717(2) 0.7507(15) 0.334(4)
H3 H -0.7025 0.7612 0.3534
H4 H -0.7080 0.7357 0.3239
H5 H -0.7330 0.7486 0.3668
C4 C -0.7417(11) 0.7325(17) 0.163(4)
H6 H -0.7295 0.7207 0.1854
H7 H -0.7290 0.7407 0.1297
C5 C -0.7642(18) 0.7194(17) 0.120(5)
H8 H -0.7541 0.7091 0.0872
H9 H -0.7761 0.7304 0.0940
H10 H -0.7766 0.7102 0.1501
C2M C -0.7711(12) 0.7391(8) 0.268(4)
H1M H -0.7622 0.7243 0.2817
H2M H -0.7884 0.7351 0.2402
C3M C -0.783(2) 0.7493(15) 0.334(4)
H3M H -0.7975 0.7388 0.3534
H4M H -0.7920 0.7643 0.3239
H5M H -0.7670 0.7514 0.3668
C4M C -0.7583(11) 0.7675(17) 0.163(4)
H6M H -0.7705 0.7793 0.1854
H7M H -0.7710 0.7593 0.1297
C5M C -0.7358(18) 0.7806(17) 0.120(5)
H8M H -0.7459 0.7909 0.0872
H9M H -0.7239 0.7696 0.0940
H10M H -0.7234 0.7898 0.1501
O2 O -0.9334(6) 0.6948(5) 0.5607(18)
C6 C -0.9341(19) 0.7072(16) 0.507(6)
O3 O -0.7107(8) 0.6091(6) 0.3477(19)
C7 C -0.7437(14) 0.6118(9) 0.339(3)
C8 C -0.5241(15) 0.7120(12) 0.856(4)
C9 C -0.5396(14) 0.7481(11) 0.992(3)
C10 C -0.5207(14) 0.6659(11) 0.987(4)
C11 C -0.5573(14) 0.7031(11) 1.038(4)
C12 C -0.5063(14) 0.6879(10) 1.010(4)
C13 C -0.5522(17) 0.7024(13) 0.911(4)
C14 C -0.5499(12) 0.6987(9) 1.105(3)
N2 N -0.5349(13) 0.7053(10) 0.996(3)
C15 C -0.5223(16) 0.7308(14) 0.998(4)
O4 O -0.6465(7) 0.6651(6) 0.504(2)
C16 C -0.6339(18) 0.6646(12) 0.580(5)
O5 O -0.9741(13) 0.8108(11) 0.360(4)
C17 C -0.9920(19) 0.7893(16) 0.373(5)
O6 O -0.6904(17) 0.7223(15) 0.707(5)
C18 C -0.6870(18) 0.7087(16) 0.777(5)
Ga1 Ga -0.63990(8) 0.66105(6) 0.9925(3)
Ga2 Ga -0.64158(8) 0.83643(6) 1.5156(3)
O7 O -0.6294(3) 0.6664(3) 0.8914(8)
O8 O -0.6354(3) 0.6955(2) 0.9966(9)
O9 O -0.6828(3) 0.6622(3) 0.9742(9)
O10 O -0.6454(4) 0.6268(3) 0.9693(9)
O11 O -0.6002(4) 0.6525(2) 1.0190(10)
O12 O -0.6469(4) 0.6621(2) 1.0856(10)
O13 O -0.7696(5) 0.6516(4) 0.9349(11)
O14 O -0.6183(5) 0.7344(3) 1.5661(12)
O15 O -0.6366(3) 0.8017(2) 1.5153(9)
O16 O -0.6418(4) 0.8324(3) 1.6177(7)
O17 O -0.6852(3) 0.8365(3) 1.5107(9)
O18 O -0.6362(4) 0.8403(2) 1.4123(8)
O19 O -0.5980(3) 0.8407(2) 1.5172(10)
O20 O -0.6477(4) 0.8715(2) 1.5248(9)
O21 O -0.6192(6) 0.7664(4) 0.9640(13)
O22 O -0.6071(4) 0.8546(3) 1.2131(10)
O23 O -0.7740(5) 0.8508(4) 1.4872(11)
O24 O -0.6483(4) 0.6497(3) 1.3002(11)
N3 N -0.7348(5) 0.6773(3) 0.9614(11)
H11 H -0.7159 0.6792 0.9661
N4 N -0.6244(5) 0.7598(3) 1.4771(7)
H12 H -0.6251 0.7747 1.4688
N5 N -0.6452(4) 0.8469(3) 1.2848(11)
H13 H -0.6488 0.8434 1.3281
N6 N -0.6322(5) 0.7376(4) 1.0394(11)
H14 H -0.6375 0.7230 1.0400
N7 N -0.7397(5) 0.8233(4) 1.5109(10)
H15 H -0.7209 0.8213 1.5157
N8 N -0.6752(3) 0.6643(2) 1.1995(9)
H16 H -0.6744 0.6672 1.1549
C19 C -0.6767(4) 0.8748(5) 1.5192(7)
C20 C -0.6855(6) 0.8976(4) 1.5234(14)
H17 H -0.6715 0.9095 1.5305
C21 C -0.7144(6) 0.9032(4) 1.5174(15)
H18 H -0.7204 0.9189 1.5202
C22 C -0.7351(5) 0.8860(5) 1.5074(14)
H19 H -0.7551 0.8898 1.5031
C23 C -0.7263(5) 0.8632(4) 1.5038(13)
C24 C -0.6974(6) 0.8578(3) 1.5103(13)
C25 C -0.7486(6) 0.8464(4) 1.5015(14)
C26 C -0.6332(7) 0.7802(3) 1.3485(8)
H20 H -0.6316 0.7898 1.3880
C27 C -0.6398(7) 0.7761(3) 1.2259(8)
C28 C -0.6182(7) 0.7065(3) 1.2399(9)
H21 H -0.6119 0.6909 1.2429
C29 C -0.6174(5) 0.7096(3) 1.3639(9)
H22 H -0.6132 0.6936 1.3673
C30 C -0.6334(5) 0.7942(3) 1.5824(9)
C31 C -0.6514(3) 0.6543(2) 1.2369(11)
C32 C -0.6275(2) 0.7062(3) 0.9373(10)
C33 C -0.6944(4) 0.6413(3) 0.9578(6)
C34 C -0.7232(4) 0.6373(3) 0.9439(12)
C35 C -0.6004(5) 0.6484(3) 1.0896(10)
C36 C -0.5767(4) 0.6352(3) 1.1956(12)
H23 H -0.5600 0.6293 1.2185
C37 C -0.5758(5) 0.6391(3) 1.1238(12)
H24 H -0.5587 0.6354 1.0984
C38 C -0.6082(4) 0.8444(4) 1.3941(11)
C39 C -0.6249(5) 0.6900(3) 0.8849(14)
C40 C -0.6173(6) 0.6972(4) 0.8188(13)
H25 H -0.6157 0.6863 0.7826
C41 C -0.6120(6) 0.7204(5) 0.8060(11)
H26 H -0.6068 0.7253 0.7609
C42 C -0.6024(4) 0.6403(3) 1.2344(10)
H27 H -0.6030 0.6376 1.2827
C43 C -0.6267(3) 0.6492(2) 1.1993(10)
C44 C -0.6258(4) 0.6533(2) 1.1283(9)
C45 C -0.6356(3) 0.8100(3) 1.6329(8)
C46 C -0.6324(6) 0.8038(4) 1.6994(10)
H28 H -0.6346 0.8148 1.7353
C47 C -0.6261(6) 0.7815(4) 1.7137(12)
H29 H -0.6235 0.7768 1.7603
C48 C -0.6234(6) 0.7658(4) 1.6633(10)
H30 H -0.6193 0.7502 1.6744
C49 C -0.6266(5) 0.7722(3) 1.5960(8)
C50 C -0.5900(5) 0.8451(2) 1.4511(10)
C51 C -0.5982(4) 0.8500(4) 1.3287(9)
C52 C -0.5605(5) 0.8501(4) 1.4433(12)
H31 H -0.5479 0.8504 1.4822
C53 C -0.5499(4) 0.8547(5) 1.3772(13)
H32 H -0.5298 0.8582 1.3711
C54 C -0.5681(4) 0.8542(4) 1.3207(11)
H33 H -0.5603 0.8567 1.2760
C55 C -0.7321(5) 0.6149(3) 0.9287(14)
H34 H -0.7521 0.6117 0.9209
C56 C -0.7118(6) 0.5973(3) 0.9248(15)
H35 H -0.7179 0.5821 0.9125
C57 C -0.6826(5) 0.6013(4) 0.9387(14)
H36 H -0.6705 0.5880 0.9551
C58 C -0.6741(4) 0.6235(4) 0.9587(13)
C59 C -0.6224(6) 0.7293(3) 0.9246(10)
C60 C -0.6143(6) 0.7365(4) 0.8586(11)
H37 H -0.6104 0.7523 0.8498
C61 C -0.7436(5) 0.6555(3) 0.9454(14)
C62 C -0.7515(4) 0.6967(3) 0.9710(11)
C63 C -0.7399(4) 0.7182(3) 0.9543(9)
C64 C -0.7007(6) 0.7407(5) 0.908(2)
H38 H -0.6818 0.7416 0.8879
C65 C -0.7118(5) 0.7195(4) 0.928(2)
H39 H -0.7004 0.7059 0.9235
C66 C -0.6190(4) 0.7228(3) 1.4233(8)
H40 H -0.6162 0.7158 1.4671
C67 C -0.6249(5) 0.7465(3) 1.4189(6)
C68 C -0.6289(6) 0.7564(3) 1.3540(6)
C69 C -0.6265(7) 0.7432(2) 1.2946(6)
C70 C -0.6312(6) 0.7530(2) 1.2305(6)
C71 C -0.6237(6) 0.7161(3) 1.1760(8)
H41 H -0.6224 0.7070 1.1355
C72 C -0.6313(6) 0.7395(3) 1.1716(7)
C73 C -0.6218(7) 0.7195(3) 1.2996(7)
C74 C -0.6229(6) 0.7546(3) 1.5449(8)
C75 C -0.6334(8) 0.7497(4) 1.1070(7)
C76 C -0.6239(6) 0.7459(4) 0.9767(12)
C77 C -0.6164(4) 0.8508(4) 1.2702(11)
C78 C -0.7560(4) 0.7381(3) 0.9634(14)
C79 C -0.7794(5) 0.6955(4) 0.9988(15)
H42 H -0.7875 0.6809 1.0102
C80 C -0.6400(7) 0.7898(3) 1.2849(9)
H43 H -0.6447 0.8057 1.2817
C81 C -0.6395(7) 0.7733(4) 1.1020(8)
H44 H -0.6419 0.7803 1.0581
C82 C -0.6418(7) 0.7865(3) 1.1616(9)
H45 H -0.6449 0.8027 1.1583
C83 C -0.7953(6) 0.7156(5) 1.010(2)
H46 H -0.8139 0.7148 1.0307
C84 C -0.7839(6) 0.7369(4) 0.991(2)
C85 C -0.6994(3) 0.6691(2) 1.2394(8)
C86 C -0.6978(4) 0.6808(3) 1.3015(8)
H47 H -0.6795 0.6854 1.3194
C87 C -0.7267(3) 0.6643(4) 1.2102(8)
C88 C -0.7234(4) 0.6856(4) 1.3380(10)
H48 H -0.7225 0.6937 1.3805
C89 C -0.7502(3) 0.6787(4) 1.3120(10)
C90 C -0.7519(3) 0.6676(4) 1.2483(8)
C91 C -0.7282(4) 0.6534(4) 1.1452(9)
H49 H -0.7110 0.6508 1.1192
C92 C -0.7789(3) 0.6597(4) 1.2234(8)
C93 C -0.7804(3) 0.6485(5) 1.1596(10)
C94 C -0.7550(4) 0.6465(5) 1.1193(10)
H50 H -0.7562 0.6404 1.0739
C95 C -0.8038(3) 0.6620(4) 1.2637(9)
C96 C -0.8021(4) 0.6739(4) 1.3269(11)
H51 H -0.8191 0.6762 1.3536
C97 C -0.7758(4) 0.6821(4) 1.3502(10)
H52 H -0.7749 0.6902 1.3927
C98 C -0.8073(5) 0.6404(5) 1.1356(12)
H53 H -0.8085 0.6331 1.0919
C99 C -0.8324(4) 0.6430(5) 1.1759(12)
H54 H -0.8508 0.6384 1.1584
C100 C -0.6698(4) 0.8475(5) 1.2419(12)
C101 C -0.7564(5) 0.8027(3) 1.5140(10)
C102 C -0.8024(4) 0.7817(5) 1.5187(15)
H55 H -0.8230 0.7813 1.5226
C103 C -0.7871(5) 0.8028(4) 1.5173(13)
H56 H -0.7974 0.8170 1.5185
C104 C -0.7575(4) 0.7607(3) 1.5165(11)
C105 C -0.7416(4) 0.7815(4) 1.5149(10)
C106 C -0.7108(4) 0.7802(4) 1.5116(11)
H57 H -0.6995 0.7940 1.5096
C107 C -0.7863(5) 0.7619(4) 1.5143(11)
C108 C -0.6972(4) 0.7585(5) 1.5114(10)
H58 H -0.6766 0.7576 1.5094
C100M C -0.8302(4) 0.6525(5) 1.2419(12)
N5M N -0.8548(4) 0.6531(3) 1.2848(11)
H13M H -0.8512 0.6566 1.3281
C77M C -0.8836(4) 0.6492(4) 1.2702(11)
O22M O -0.8929(4) 0.6454(3) 1.2131(10)
C51M C -0.9018(4) 0.6500(4) 1.3287(9)
C38M C -0.8918(4) 0.6556(4) 1.3941(11)
O18M O -0.8638(4) 0.6597(2) 1.4123(8)
Ga2M Ga -0.85842(8) 0.66357(6) 1.5156(3)
O15M O -0.8634(3) 0.6983(2) 1.5153(9)
C30M C -0.8666(5) 0.7058(3) 1.5824(9)
C45M C -0.8644(3) 0.6900(3) 1.6329(8)
O16M O -0.8582(4) 0.6676(3) 1.6177(7)
O17M O -0.8148(3) 0.6635(3) 1.5107(9)
C24M C -0.8026(6) 0.6422(3) 1.5103(13)
C19M C -0.8233(4) 0.6252(5) 1.5192(7)
O20M O -0.8523(4) 0.6285(2) 1.5248(9)
O19M O -0.9020(3) 0.6593(2) 1.5172(10)
C50M C -0.9100(5) 0.6549(2) 1.4511(10)
C52M C -0.9395(5) 0.6499(4) 1.4433(12)
H31M H -0.9521 0.6496 1.4822
C53M C -0.9501(4) 0.6453(5) 1.3772(13)
H32M H -0.9702 0.6418 1.3711
C54M C -0.9319(4) 0.6458(4) 1.3207(11)
H33M H -0.9397 0.6433 1.2760
C20M C -0.8145(6) 0.6024(4) 1.5234(14)
H17M H -0.8285 0.5905 1.5305
C21M C -0.7856(6) 0.5968(4) 1.5174(15)
H18M H -0.7796 0.5811 1.5202
C22M C -0.7649(5) 0.6140(5) 1.5074(14)
H19M H -0.7449 0.6102 1.5031
C23M C -0.7737(5) 0.6368(4) 1.5038(13)
C25M C -0.7514(6) 0.6536(4) 1.5015(14)
O23M O -0.7260(5) 0.6492(4) 1.4872(11)
N7M N -0.7603(5) 0.6767(4) 1.5109(10)
H15M H -0.7791 0.6787 1.5157
C101M C -0.7436(5) 0.6973(3) 1.5140(10)
C103M C -0.7129(5) 0.6972(4) 1.5173(13)
C102M C -0.6976(4) 0.7183(5) 1.5187(15)
H55M H -0.6770 0.7187 1.5226
C107M C -0.7137(5) 0.7381(4) 1.5143(11)
C104M C -0.7425(4) 0.7393(3) 1.5165(11)
C95M C -0.6962(3) 0.8380(4) 1.2637(9)
C92M C -0.7211(3) 0.8403(4) 1.2234(8)
C90M C -0.7481(3) 0.8324(4) 1.2483(8)
C87M C -0.7733(3) 0.8357(4) 1.2102(8)
C85M C -0.8006(3) 0.8309(2) 1.2394(8)
N8M N -0.8248(3) 0.8357(2) 1.1995(9)
H16M H -0.8256 0.8328 1.1549
C31M C -0.8486(3) 0.8457(2) 1.2369(11)
O24M O -0.8517(4) 0.8503(3) 1.3002(11)
C43M C -0.8733(3) 0.8508(2) 1.1993(10)
C42M C -0.8976(4) 0.8597(3) 1.2344(10)
C36M C -0.9233(4) 0.8648(3) 1.1956(12)
H23M H -0.9400 0.8707 1.2185
C37M C -0.9242(5) 0.8609(3) 1.1238(12)
C35M C -0.8996(5) 0.8516(3) 1.0896(10)
O11M O -0.8998(4) 0.8475(2) 1.0190(10)
Ga1M Ga -0.86010(8) 0.83895(6) 0.9925(3)
O7M O -0.8706(3) 0.8336(3) 0.8914(8)
C39M C -0.8751(5) 0.8100(3) 0.8849(14)
C32M C -0.8725(2) 0.7938(3) 0.9373(10)
O8M O -0.8646(3) 0.8045(2) 0.9966(9)
O9M O -0.8172(3) 0.8378(3) 0.9742(9)
C33M C -0.8056(4) 0.8587(3) 0.9578(6)
C34M C -0.7768(4) 0.8627(3) 0.9439(12)
C55M C -0.7679(5) 0.8851(3) 0.9287(14)
H34M H -0.7479 0.8883 0.9209
C56M C -0.7882(6) 0.9027(3) 0.9248(15)
H35M H -0.7821 0.9179 0.9125
C57M C -0.8174(5) 0.8987(4) 0.9387(14)
H36M H -0.8295 0.9120 0.9551
C58M C -0.8259(4) 0.8765(4) 0.9587(13)
O10M O -0.8546(4) 0.8732(3) 0.9693(9)
O12M O -0.8531(4) 0.8379(2) 1.0856(10)
C44M C -0.8742(4) 0.8467(2) 1.1283(9)
C61M C -0.7564(5) 0.8445(3) 0.9454(14)
O13M O -0.7304(5) 0.8484(4) 0.9349(11)
N3M N -0.7652(5) 0.8227(3) 0.9614(11)
H11M H -0.7841 0.8208 0.9661
C62M C -0.7485(4) 0.8033(3) 0.9710(11)
C63M C -0.7601(4) 0.7818(3) 0.9543(9)
C65M C -0.7882(5) 0.7805(4) 0.928(2)
C64M C -0.7993(6) 0.7593(5) 0.908(2)
H38M H -0.8182 0.7584 0.8879
H39M H -0.7996 0.7941 0.9235
C78M C -0.7440(4) 0.7619(3) 0.9634(14)
C84M C -0.7161(6) 0.7631(4) 0.991(2)
C83M C -0.7047(6) 0.7844(5) 1.010(2)
C79M C -0.7206(5) 0.8045(4) 0.9988(15)
H42M H -0.7125 0.8191 1.0102
H46M H -0.6861 0.7852 1.0307
C59M C -0.8776(6) 0.7707(3) 0.9246(10)
C60M C -0.8857(6) 0.7635(4) 0.8586(11)
C41M C -0.8880(6) 0.7796(5) 0.8060(11)
C40M C -0.8827(6) 0.8028(4) 0.8188(13)
H25M H -0.8843 0.8137 0.7826
H26M H -0.8932 0.7747 0.7609
H37M H -0.8896 0.7477 0.8498
C76M C -0.8761(6) 0.7541(4) 0.9767(12)
O21M O -0.8808(6) 0.7336(4) 0.9640(13)
N6M N -0.8678(5) 0.7624(4) 1.0394(11)
H14M H -0.8625 0.7770 1.0400
C75M C -0.8666(8) 0.7503(4) 1.1070(7)
C72M C -0.8687(6) 0.7605(3) 1.1716(7)
C70M C -0.8688(6) 0.7470(2) 1.2305(6)
C27M C -0.8602(7) 0.7239(3) 1.2259(8)
C80M C -0.8600(7) 0.7102(3) 1.2849(9)
C26M C -0.8668(7) 0.7198(3) 1.3485(8)
H20M H -0.8684 0.7102 1.3880
C68M C -0.8711(6) 0.7436(3) 1.3540(6)
C67M C -0.8751(5) 0.7535(3) 1.4189(6)
N4M N -0.8756(5) 0.7402(3) 1.4771(7)
H12M H -0.8749 0.7253 1.4688
C74M C -0.8771(6) 0.7454(3) 1.5449(8)
O14M O -0.8817(5) 0.7656(3) 1.5661(12)
C49M C -0.8734(5) 0.7278(3) 1.5960(8)
C48M C -0.8766(6) 0.7342(4) 1.6633(10)
C47M C -0.8739(6) 0.7185(4) 1.7137(12)
C46M C -0.8676(6) 0.6962(4) 1.6994(10)
H28M H -0.8654 0.6852 1.7353
H29M H -0.8765 0.7232 1.7603
H30M H -0.8807 0.7498 1.6744
C66M C -0.8810(4) 0.7772(3) 1.4233(8)
C29M C -0.8826(5) 0.7904(3) 1.3639(9)
H22M H -0.8868 0.8064 1.3673
C73M C -0.8782(7) 0.7805(3) 1.2996(7)
C28M C -0.8818(7) 0.7935(3) 1.2399(9)
H21M H -0.8881 0.8091 1.2429
C71M C -0.8763(6) 0.7839(3) 1.1760(8)
H41M H -0.8776 0.7930 1.1355
C69M C -0.8735(7) 0.7568(2) 1.2946(6)
H40M H -0.8838 0.7842 1.4671
H43M H -0.8553 0.6943 1.2817
C82M C -0.8582(7) 0.7135(3) 1.1616(9)
C81M C -0.8605(7) 0.7267(4) 1.1020(8)
H44M H -0.8581 0.7197 1.0581
H45M H -0.8551 0.6973 1.1583
H24M H -0.9413 0.8646 1.0984
H27M H -0.8970 0.8624 1.2827
C86M C -0.8022(4) 0.8192(3) 1.3015(8)
H47M H -0.8205 0.8146 1.3194
C88M C -0.7766(4) 0.8144(4) 1.3380(10)
H48M H -0.7775 0.8063 1.3805
C89M C -0.7498(3) 0.8213(4) 1.3120(10)
C97M C -0.7242(4) 0.8179(4) 1.3502(10)
C96M C -0.6979(4) 0.8261(4) 1.3269(11)
H51M H -0.6809 0.8238 1.3536
H52M H -0.7251 0.8098 1.3927
C91M C -0.7718(4) 0.8466(4) 1.1452(9)
H49M H -0.7890 0.8492 1.1192
C94M C -0.7450(4) 0.8535(5) 1.1193(10)
C93M C -0.7196(3) 0.8515(5) 1.1596(10)
C98M C -0.6927(5) 0.8596(5) 1.1356(12)
H53M H -0.6915 0.8669 1.0919
C99M C -0.6676(4) 0.8570(5) 1.1759(12)
H54M H -0.6492 0.8616 1.1584
H50M H -0.7438 0.8596 1.0739
C108M C -0.8028(4) 0.7415(5) 1.5114(10)
C106M C -0.7892(4) 0.7198(4) 1.5116(11)
C105M C -0.7584(4) 0.7185(4) 1.5149(10)
H57M H -0.8005 0.7060 1.5096
H58M H -0.8234 0.7424 1.5094
H56M H -0.7026 0.6830 1.5185
K1 K -0.6546(2) 0.63523(17) 0.8154(5)
C109? C -0.7169(7) 0.7607(5) 0.917(2)
C110? C -0.7043(10) 0.7822(5) 0.905(3)
H59? H -0.6847 0.7834 0.8901
C111? C -0.7212(14) 0.8020(5) 0.916(4)
H60? H -0.7168 0.8155 0.8900
C112? C -0.7993(8) 0.7571(5) 0.006(2)
H61? H -0.8171 0.7563 0.0309
C113? C -0.7881(11) 0.7783(5) 0.986(3)
H62? H -0.7999 0.7915 0.9925
N9? N -0.5935(18) 0.8276(14) 0.943(4)
O25? O -0.9465(14) 0.7167(11) 0.428(4)
C114? C -0.453(2) 0.5901(18) 0.998(6)
C115? C -0.611(2) 0.6713(15) 0.603(5)
C116? C -0.6038(17) 0.6636(13) 0.528(5)
C117? C -0.7794(12) 0.6043(10) 0.331(3)
C118? C -0.628(2) 0.8178(17) 0.901(5)
C119? C -0.585(2) 0.8227(19) 0.918(5)
C120? C -0.9367(17) 0.7090(14) 0.370(5)
C121? C -0.932(2) 0.6979(17) 0.216(5)
C122? C -0.950(3) 0.740(2) 0.310(7)
C123? C -0.606(2) 0.8344(16) 0.902(5)
C124? C -0.470(2) 0.5915(16) 0.922(6)
C125? C -0.429(2) 0.5767(17) 0.010(5)
C126? C -0.981(2) 0.8135(17) 0.289(6)
C127? C -0.5740(14) 0.8034(13) 0.904(3)
C128? C -0.5675(19) 0.8503(16) 0.889(5)
C129? C -0.6013(15) 0.8307(13) 0.835(4)
loop_
_geom_bond_atom_site_label_1
_geom_bond_atom_site_label_2
_geom_bond_site_symmetry_1
_geom_bond_site_symmetry_2
O1 C1 1_555 1_555
N1 C2 1_555 1_555
C2 H1 1_555 1_555
H2 C2 1_555 1_555
C3 C2 1_555 1_555
H3 C3 1_555 1_555
H4 C3 1_555 1_555
H5 C3 1_555 1_555
C4 N1 1_555 1_555
H6 C4 1_555 1_555
H7 C4 1_555 1_555
C5 C4 1_555 1_555
H8 C5 1_555 1_555
H9 C5 1_555 1_555
H10 C5 1_555 1_555
O2 C6 1_555 1_555
O3 C7 1_555 1_555
C8 C13 1_555 1_555
C9 C15 1_555 1_555
C10 C12 1_555 1_555
C11 C14 1_555 1_555
C12 N2 1_555 1_555
C13 N2 1_555 1_555
N2 C11 1_555 1_555
C15 N2 1_555 1_555
O4 C16 1_555 1_555
O5 C17 1_555 1_555
O6 C18 1_555 1_555
Ga1 O7 1_555 1_555
Ga2 O15 1_555 1_555
O7 C39 1_555 1_555
O8 Ga1 1_555 1_555
O9 Ga1 1_555 1_555
O10 Ga1 1_555 1_555
O11 Ga1 1_555 1_555
O12 Ga1 1_555 1_555
O13 C61 1_555 1_555
O14 C74 1_555 1_555
O15 C30 1_555 1_555
O16 Ga2 1_555 1_555
O17 Ga2 1_555 1_555
O18 Ga2 1_555 1_555
O19 Ga2 1_555 1_555
O20 Ga2 1_555 1_555
O21 C76 1_555 1_555
O22 C77 1_555 1_555
O23 C25 1_555 1_555
O24 C31 1_555 1_555
N3 H11 1_555 1_555
N4 H12 1_555 1_555
N5 H13 1_555 1_555
N6 H14 1_555 1_555
N7 H15 1_555 1_555
N8 H16 1_555 1_555
C19 O20 1_555 1_555
C20 C19 1_555 1_555
H17 C20 1_555 1_555
C21 C20 1_555 1_555
H18 C21 1_555 1_555
C22 C21 1_555 1_555
H19 C22 1_555 1_555
C23 C22 1_555 1_555
C24 O17 1_555 1_555
C25 N7 1_555 1_555
C26 H20 1_555 1_555
C27 C70 1_555 1_555
C28 H21 1_555 1_555
C29 H22 1_555 1_555
C30 C45 1_555 1_555
C31 N8 1_555 1_555
C32 O8 1_555 1_555
C33 O9 1_555 1_555
C34 C33 1_555 1_555
C35 O11 1_555 1_555
C36 H23 1_555 1_555
C37 C35 1_555 1_555
H24 C37 1_555 1_555
C38 O18 1_555 1_555
C39 C32 1_555 1_555
C40 C39 1_555 1_555
H25 C40 1_555 1_555
C41 C40 1_555 1_555
H26 C41 1_555 1_555
C42 C36 1_555 1_555
H27 C42 1_555 1_555
C43 C31 1_555 1_555
C44 O12 1_555 1_555
C45 O16 1_555 1_555
C46 C45 1_555 1_555
H28 C46 1_555 1_555
C47 C46 1_555 1_555
H29 C47 1_555 1_555
C48 C47 1_555 1_555
H30 C48 1_555 1_555
C49 C30 1_555 1_555
C50 O19 1_555 1_555
C51 C38 1_555 1_555
C52 C50 1_555 1_555
H31 C52 1_555 1_555
C53 C52 1_555 1_555
H32 C53 1_555 1_555
C54 C51 1_555 1_555
H33 C54 1_555 1_555
C55 C34 1_555 1_555
H34 C55 1_555 1_555
C56 C55 1_555 1_555
H35 C56 1_555 1_555
C57 C56 1_555 1_555
H36 C57 1_555 1_555
C58 O10 1_555 1_555
C59 C32 1_555 1_555
C60 C41 1_555 1_555
H37 C60 1_555 1_555
C61 N3 1_555 1_555
C62 N3 1_555 1_555
C63 C62 1_555 1_555
C64 H38 1_555 1_555
C65 C63 1_555 1_555
H39 C65 1_555 1_555
C66 C29 1_555 1_555
H40 C66 1_555 1_555
C67 N4 1_555 1_555
C68 C26 1_555 1_555
C69 C68 1_555 1_555
C70 C69 1_555 1_555
C71 C28 1_555 1_555
H41 C71 1_555 1_555
C72 C70 1_555 1_555
C73 C28 1_555 1_555
C74 N4 1_555 1_555
C75 N6 1_555 1_555
C76 N6 1_555 1_555
C77 N5 1_555 1_555
C78 C63 1_555 1_555
C79 C62 1_555 1_555
H42 C79 1_555 1_555
C80 C26 1_555 1_555
H43 C80 1_555 1_555
C81 C75 1_555 1_555
H44 C81 1_555 1_555
C82 C27 1_555 1_555
H45 C82 1_555 1_555
C83 C79 1_555 1_555
H46 C83 1_555 1_555
C84 C78 1_555 1_555
C85 N8 1_555 1_555
C86 C85 1_555 1_555
H47 C86 1_555 1_555
C87 C85 1_555 1_555
C88 C86 1_555 1_555
H48 C88 1_555 1_555
C89 C88 1_555 1_555
C90 C87 1_555 1_555
C91 C87 1_555 1_555
H49 C91 1_555 1_555
C92 C90 1_555 1_555
C93 C92 1_555 1_555
C94 C91 1_555 1_555
H50 C94 1_555 1_555
C95 C92 1_555 1_555
C96 C95 1_555 1_555
H51 C96 1_555 1_555
C97 C89 1_555 1_555
H52 C97 1_555 1_555
C98 C93 1_555 1_555
H53 C98 1_555 1_555
C99 C98 1_555 1_555
H54 C99 1_555 1_555
C100 N5 1_555 1_555
C101 N7 1_555 1_555
C102 H55 1_555 1_555
C103 C101 1_555 1_555
H56 C103 1_555 1_555
C104 C105 1_555 1_555
C105 C101 1_555 1_555
C106 C105 1_555 1_555
H57 C106 1_555 1_555
C107 C102 1_555 1_555
C108 C106 1_555 1_555
H58 C108 1_555 1_555
C2M N1 1_555 1_555
H1M C2M 1_555 1_555
H2M C2M 1_555 1_555
C3M C2M 1_555 1_555
H3M C3M 1_555 1_555
H4M C3M 1_555 1_555
H5M C3M 1_555 1_555
C4M N1 1_555 1_555
H6M C4M 1_555 1_555
H7M C4M 1_555 1_555
C5M C4M 1_555 1_555
H8M C5M 1_555 1_555
H9M C5M 1_555 1_555
H10M C5M 1_555 1_555
C100M C95 1_555 1_555
N5M C100M 1_555 1_555
H13M N5M 1_555 1_555
C77M N5M 1_555 1_555
O22M C77M 1_555 1_555
C51M C77M 1_555 1_555
C38M C51M 1_555 1_555
O18M C38M 1_555 1_555
Ga2M O18M 1_555 1_555
O15M Ga2M 1_555 1_555
C30M O15M 1_555 1_555
C45M C30M 1_555 1_555
O16M Ga2M 1_555 1_555
O17M Ga2M 1_555 1_555
C24M O17M 1_555 1_555
C19M C24M 1_555 1_555
O20M Ga2M 1_555 1_555
O19M Ga2M 1_555 1_555
C50M C38M 1_555 1_555
C52M C50M 1_555 1_555
H31M C52M 1_555 1_555
C53M C52M 1_555 1_555
H32M C53M 1_555 1_555
C54M C51M 1_555 1_555
H33M C54M 1_555 1_555
C20M C19M 1_555 1_555
H17M C20M 1_555 1_555
C21M C20M 1_555 1_555
H18M C21M 1_555 1_555
C22M C21M 1_555 1_555
H19M C22M 1_555 1_555
C23M C24M 1_555 1_555
C25M C23M 1_555 1_555
O23M C25M 1_555 1_555
N7M C25M 1_555 1_555
H15M N7M 1_555 1_555
C101M N7M 1_555 1_555
C103M C101M 1_555 1_555
C102M C103M 1_555 1_555
H55M C102M 1_555 1_555
C107M C108 1_555 1_555
C104M C104 1_555 1_555
C95M C100 1_555 1_555
C92M C95M 1_555 1_555
C90M C92M 1_555 1_555
C87M C90M 1_555 1_555
C85M C87M 1_555 1_555
N8M C85M 1_555 1_555
H16M N8M 1_555 1_555
C31M N8M 1_555 1_555
O24M C31M 1_555 1_555
C43M C31M 1_555 1_555
C42M C43M 1_555 1_555
C36M C42M 1_555 1_555
H23M C36M 1_555 1_555
C37M C36M 1_555 1_555
C35M C37M 1_555 1_555
O11M C35M 1_555 1_555
Ga1M O11M 1_555 1_555
O7M Ga1M 1_555 1_555
C39M O7M 1_555 1_555
C32M C39M 1_555 1_555
O8M Ga1M 1_555 1_555
O9M Ga1M 1_555 1_555
C33M O9M 1_555 1_555
C34M C33M 1_555 1_555
C55M C34M 1_555 1_555
H34M C55M 1_555 1_555
C56M C55M 1_555 1_555
H35M C56M 1_555 1_555
C57M C56M 1_555 1_555
H36M C57M 1_555 1_555
C58M C33M 1_555 1_555
O10M Ga1M 1_555 1_555
O12M Ga1M 1_555 1_555
C44M C43M 1_555 1_555
C61M C34M 1_555 1_555
O13M C61M 1_555 1_555
N3M C61M 1_555 1_555
H11M N3M 1_555 1_555
C62M N3M 1_555 1_555
C63M C62M 1_555 1_555
C65M C63M 1_555 1_555
C64M C84 1_555 1_555
H38M C64M 1_555 1_555
H39M C65M 1_555 1_555
C78M C78 1_555 1_555
C84M C64 1_555 1_555
C83M C84M 1_555 1_555
C79M C62M 1_555 1_555
H42M C79M 1_555 1_555
H46M C83M 1_555 1_555
C59M C32M 1_555 1_555
C60M C59M 1_555 1_555
C41M C60M 1_555 1_555
C40M C39M 1_555 1_555
H25M C40M 1_555 1_555
H26M C41M 1_555 1_555
H37M C60M 1_555 1_555
C76M C59M 1_555 1_555
O21M C76M 1_555 1_555
N6M C76M 1_555 1_555
H14M N6M 1_555 1_555
C75M N6M 1_555 1_555
C72M C75M 1_555 1_555
C70M C72M 1_555 1_555
C27M C70M 1_555 1_555
C80M C27M 1_555 1_555
C26M C80M 1_555 1_555
H20M C26M 1_555 1_555
C68M C26M 1_555 1_555
C67M C68M 1_555 1_555
N4M C67M 1_555 1_555
H12M N4M 1_555 1_555
C74M N4M 1_555 1_555
O14M C74M 1_555 1_555
C49M C30M 1_555 1_555
C48M C49M 1_555 1_555
C47M C48M 1_555 1_555
C46M C45M 1_555 1_555
H28M C46M 1_555 1_555
H29M C47M 1_555 1_555
H30M C48M 1_555 1_555
C66M C67M 1_555 1_555
C29M C66M 1_555 1_555
H22M C29M 1_555 1_555
C73M C29M 1_555 1_555
C28M C73M 1_555 1_555
H21M C28M 1_555 1_555
C71M C72M 1_555 1_555
H41M C71M 1_555 1_555
C69M C70M 1_555 1_555
H40M C66M 1_555 1_555
H43M C80M 1_555 1_555
C82M C27M 1_555 1_555
C81M C75M 1_555 1_555
H44M C81M 1_555 1_555
H45M C82M 1_555 1_555
H24M C37M 1_555 1_555
H27M C42M 1_555 1_555
C86M C85M 1_555 1_555
H47M C86M 1_555 1_555
C88M C86M 1_555 1_555
H48M C88M 1_555 1_555
C89M C90M 1_555 1_555
C97M C89M 1_555 1_555
C96M C95M 1_555 1_555
H51M C96M 1_555 1_555
H52M C97M 1_555 1_555
C91M C87M 1_555 1_555
H49M C91M 1_555 1_555
C94M C91M 1_555 1_555
C93M C92M 1_555 1_555
C98M C93M 1_555 1_555
H53M C98M 1_555 1_555
C99M C100 1_555 1_555
H54M C99M 1_555 1_555
H50M C94M 1_555 1_555
C108M C107 1_555 1_555
C106M C108M 1_555 1_555
C105M C101M 1_555 1_555
H57M C106M 1_555 1_555
H58M C108M 1_555 1_555
H56M C103M 1_555 1_555
C19 C24 1_555 1_555
C23 C24 1_555 1_555
C23 C25 1_555 1_555
C27 C80 1_555 1_555
C29 C73 1_555 1_555
C33 C58 1_555 1_555
C34 C61 1_555 1_555
C35 C44 1_555 1_555
C36 C37 1_555 1_555
C38 C50 1_555 1_555
C42 C43 1_555 1_555
C43 C44 1_555 1_555
C48 C49 1_555 1_555
C49 C74 1_555 1_555
C51 C77 1_555 1_555
C53 C54 1_555 1_555
C57 C58 1_555 1_555
C59 C60 1_555 1_555
C59 C76 1_555 1_555
C64 C65 1_555 1_555
C66 C67 1_555 1_555
C67 C68 1_555 1_555
C69 C73 1_555 1_555
C71 C72 1_555 1_555
C72 C75 1_555 1_555
C81 C82 1_555 1_555
C83 C84 1_555 1_555
C89 C90 1_555 1_555
C93 C94 1_555 1_555
C96 C97 1_555 1_555
C99 C100M 1_555 1_555
C102 C103 1_555 1_555
C104 C107 1_555 1_555
C45M O16M 1_555 1_555
C19M O20M 1_555 1_555
O19M C50M 1_555 1_555
C53M C54M 1_555 1_555
C22M C23M 1_555 1_555
C102M C107M 1_555 1_555
C107M C104M 1_555 1_555
C104M C105M 1_555 1_555
C35M C44M 1_555 1_555
C32M O8M 1_555 1_555
C57M C58M 1_555 1_555
C58M O10M 1_555 1_555
O12M C44M 1_555 1_555
C63M C78M 1_555 1_555
C65M C64M 1_555 1_555
C78M C84M 1_555 1_555
C83M C79M 1_555 1_555
C41M C40M 1_555 1_555
C68M C69M 1_555 1_555
C74M C49M 1_555 1_555
C47M C46M 1_555 1_555
C73M C69M 1_555 1_555
C28M C71M 1_555 1_555
C82M C81M 1_555 1_555
C88M C89M 1_555 1_555
C97M C96M 1_555 1_555
C94M C93M 1_555 1_555
C98M C99M 1_555 1_555
C106M C105M 1_555 1_555

#END
