
#######################################################################
#
#                 Cambridge Crystallographic Data Centre
#                                CCDC 
#
#######################################################################
#
# If this CIF has been generated from an entry in the Cambridge 
# Structural Database, then it will include bibliographic, chemical, 
# crystal, experimental, refinement or atomic coordinate data resulting 
# from the CCDC's data processing and validation procedures.
#
#######################################################################

data_MICKOY
_chemical_formula_moiety         'C144 H152 N32 Pd8 16+,16(N1 O3 1-)'
_chemical_name_systematic        
"octakis((\m~4~-3,3',5,5'-tetrakis(3-Pyridyl)-1,1'-biphenyl)-(ethylenediamine)-palladium(ii)) hexadecanitrate"
_symmetry_cell_setting           orthorhombic
_symmetry_space_group_name_H-M   'P n a 21'
_symmetry_Int_Tables_number      33
_space_group_name_Hall           'P 2c -2n'
loop_
_symmetry_equiv_pos_site_id
_symmetry_equiv_pos_as_xyz
1 x,y,z
2 -x,-y,1/2+z
3 1/2-x,1/2+y,1/2+z
4 1/2+x,1/2-y,z
_cell_length_a                   34.020(5)
_cell_length_b                   21.872(3)
_cell_length_c                   35.067(5)
_cell_angle_alpha                90
_cell_angle_beta                 90
_cell_angle_gamma                90
_cell_volume                     26092.8
_cell_formula_units_Z            4
_exptl_crystal_recrystallization_method acetonitrile/water/THF
loop_
_atom_site_label
_atom_site_type_symbol
_atom_site_fract_x
_atom_site_fract_y
_atom_site_fract_z
Pd1 Pd -0.1660(1) -1.0049(2) 0.6397(1)
Pd2 Pd -0.5798(1) -0.9970(2) 0.6575(1)
Pd3 Pd -0.5093(1) -1.1321(2) 0.4928(1)
Pd4 Pd -0.5682(1) -0.5205(2) 0.2784(1)
Pd5 Pd -0.2507(1) -0.6970(2) 0.6950(1)
Pd6 Pd -0.5064(1) -0.3915(2) 0.4472(1)
Pd7 Pd -0.1594(1) -0.4712(3) 0.2953(1)
Pd8 Pd -0.2369(2) -0.7927(3) 0.2346(1)
C1 C -0.4602(11) -0.6244(17) 0.2117(12)
C2 C -0.4976(12) -0.6191(19) 0.1967(13)
C3 C -0.4604(9) -0.6023(15) 0.2477(10)
C4 C -0.5294(10) -0.5830(16) 0.2130(11)
C5 C -0.4075(8) -0.5613(13) 0.2968(9)
C6 C -0.3166(10) -0.4972(16) 0.3305(11)
C7 C -0.3693(10) -0.5669(16) 0.3092(11)
C8 C -0.4184(11) -0.6051(18) 0.2734(12)
C9 C -0.3630(12) -0.6650(20) 0.2835(13)
C10 C -0.3497(10) -0.6150(16) 0.3052(10)
C11 C -0.4921(11) -0.5728(17) 0.2659(11)
C12 C -0.4001(14) -0.6610(20) 0.2639(14)
C13 C -0.1597(9) -0.6514(15) 0.3981(10)
C14 C -0.1765(11) -0.7859(17) 0.5613(11)
C15 C -0.1658(8) -0.8306(13) 0.5343(9)
C16 C -0.1680(10) -0.6957(19) 0.3753(11)
C17 C -0.1808(10) -0.7726(16) 0.4179(11)
C18 C -0.3933(13) -1.1100(20) 0.4448(14)
C19 C -0.2624(8) -1.1310(13) 0.5786(8)
C20 C -0.2693(9) -1.0724(15) 0.5884(10)
C21 C -0.1890(8) -0.7082(13) 0.5166(9)
C22 C -0.4312(9) -1.0868(14) 0.5137(10)
C23 C -0.1594(7) -0.9204(13) 0.5796(8)
C24 C -0.1502(10) -0.8910(16) 0.5427(11)
C25 C -0.1634(9) -0.8062(16) 0.4932(10)
C26 C -0.3109(9) -1.0406(15) 0.5806(10)
C27 C -0.3699(10) -1.0436(17) 0.5423(12)
C28 C -0.1941(8) -0.6227(13) 0.5812(8)
C29 C -0.1720(9) -0.7263(15) 0.4411(10)
C30 C -0.3858(11) -1.0063(18) 0.5653(12)
C31 C -0.2066(11) -0.5805(18) 0.6076(12)
C32 C -0.2253(12) -1.1553(19) 0.5862(13)
C33 C -0.1626(9) -0.6656(14) 0.4399(10)
C34 C -0.2173(9) -0.7096(14) 0.6175(9)
C35 C -0.2421(9) -1.0305(15) 0.6100(10)
C36 C -0.3721(10) -1.0862(16) 0.4742(12)
C37 C -0.1738(10) -0.7500(17) 0.4863(10)
C38 C -0.3314(13) -1.0720(20) 0.5493(14)
C39 C -0.2000(8) -0.6859(13) 0.5825(8)
C40 C -0.1334(10) -1.0103(16) 0.5662(11)
C41 C -0.2001(11) -1.1118(18) 0.6071(12)
C42 C -0.3244(9) -0.9910(14) 0.6025(10)
C43 C -0.1331(10) -0.9303(17) 0.5169(11)
C44 C -0.3875(11) -1.0734(17) 0.5094(12)
C45 C -0.1895(9) -0.7288(14) 0.5528(9)
C46 C -0.5621(8) -0.7352(14) 0.4569(9)
C47 C -0.5666(11) -0.6720(20) 0.4030(12)
C48 C -0.5538(10) -0.8488(17) 0.4594(10)
C49 C -0.5685(10) -0.9083(17) 0.5129(11)
C50 C -0.5473(11) -0.6269(19) 0.4640(11)
C51 C -0.5760(10) -0.7961(15) 0.5132(10)
C52 C -0.5896(10) -0.8567(17) 0.5744(11)
C53 C -0.6124(8) -0.8148(14) 0.6300(9)
C54 C -0.6075(10) -0.8680(17) 0.6472(11)
C55 C -0.5837(7) -0.9112(12) 0.5942(8)
C56 C -0.5589(12) -0.6240(20) 0.4218(13)
C57 C -0.3764(10) -0.8256(16) 0.6473(11)
C58 C -0.6014(9) -0.7986(15) 0.5917(10)
C59 C -0.3591(8) -0.7693(15) 0.6509(9)
C60 C -0.5477(10) -0.6791(17) 0.4756(10)
C61 C -0.2224(10) -0.6011(17) 0.6452(11)
C62 C -0.3260(11) -0.6546(17) 0.6666(11)
C63 C -0.1238(12) -0.9860(20) 0.5293(13)
C64 C -0.5532(9) -0.9043(16) 0.4734(10)
C65 C -0.5980(13) -0.7050(20) 0.2958(14)
C66 C -0.5751(9) -0.6035(15) 0.3430(10)
C67 C -0.5774(11) -0.8565(17) 0.5325(12)
C68 C -0.3197(9) -0.7637(14) 0.6681(9)
C69 C -0.4353(12) -1.1288(18) 0.4513(13)
C70 C -0.3783(11) -0.7134(17) 0.6465(12)
C71 C -0.5947(11) -0.6470(19) 0.2815(13)
C72 C -0.4712(11) -0.9025(17) 0.6791(11)
C73 C -0.5243(11) -0.5157(19) 0.4613(11)
C74 C -0.4324(9) -0.8888(15) 0.6601(10)
C75 C -0.4138(9) -0.8368(15) 0.6628(10)
C76 C -0.5348(9) -0.5703(15) 0.4810(10)
C77 C -0.5719(11) -0.7285(19) 0.4181(12)
C78 C -0.5323(11) -0.5735(18) 0.5209(12)
C79 C -0.1274(12) -0.9670(20) 0.7089(12)
C80 C -0.4774(11) -0.8718(18) 0.7139(12)
C81 C -0.5654(9) -0.7914(14) 0.4723(9)
C82 C -0.5149(13) -0.4660(20) 0.5122(16)
C83 C -0.1525(15) -1.0080(20) 0.7171(16)
C84 C -0.5347(9) -1.0086(16) 0.4756(9)
C85 C -0.5433(10) -0.9639(18) 0.4586(11)
C86 C -0.3072(9) -0.4526(15) 0.3529(10)
C87 C -0.4197(9) -0.9408(15) 0.6370(10)
C88 C -0.5997(16) -1.1180(30) 0.6823(17)
C89 C -0.2109(14) -0.6870(20) 0.7685(14)
C90 C -0.5430(20) -0.9660(40) 0.4170(20)
C91 C -0.3616(11) -0.8728(18) 0.6226(12)
C92 C -0.1757(11) -0.7480(20) 0.3743(11)
C93 C -0.5724(11) -0.3298(18) 0.4071(12)
C94 C -0.3286(9) -0.4290(14) 0.3849(10)
C95 C -0.5167(14) -0.5160(20) 0.5363(15)
C96 C -0.5125(11) -0.8845(18) 0.7349(13)
C97 C -0.5039(10) -0.9393(16) 0.6624(11)
C98 C -0.3626(12) -0.9700(20) 0.5970(14)
C99 C -0.2407(11) -0.4563(17) 0.3274(11)
C100 C -0.3780(10) -0.5012(17) 0.3675(12)
C101 C -0.5333(13) -1.0260(20) 0.3993(13)
C102 C -0.5404(16) -0.2790(20) 0.4134(18)
C103 C -0.3542(12) -0.5146(17) 0.3380(12)
C104 C -0.3776(10) -0.9299(16) 0.6177(11)
C105 C -0.6090(13) -1.1150(20) 0.6339(14)
C106 C -0.5780(10) -0.6602(17) 0.3567(11)
C107 C -0.5430(11) -0.9252(17) 0.7186(11)
C108 C -0.2677(10) -0.4195(17) 0.3467(11)
C109 C -0.2219(12) -0.3297(19) 0.3446(12)
C110 C -0.2394(13) -0.7226(19) 0.7753(13)
C111 C -0.1985(9) -0.3658(17) 0.3272(10)
C112 C -0.3629(12) -0.4558(19) 0.3932(12)
C113 C -0.3642(14) -0.6560(20) 0.6522(15)
C114 C -0.2646(15) -0.3570(20) 0.3560(15)
C115 C -0.5241(17) -1.0700(30) 0.4204(19)
N1 N -0.5267(7) -0.5639(12) 0.2478(8)
N2 N -0.1489(8) -0.9728(13) 0.5884(8)
N3 N -0.2272(7) -0.6637(11) 0.6468(7)
N4 N -0.5241(10) -1.0688(16) 0.4618(11)
N5 N -0.2058(6) -1.0541(10) 0.6157(6)
N6 N -0.4535(9) -1.1093(14) 0.4851(10)
N7 N -0.5815(8) -0.5956(12) 0.3020(8)
N8 N -0.5941(8) -0.9184(13) 0.6295(8)
N9 N -0.3084(8) -0.7054(13) 0.6724(8)
N10 N -0.5158(8) -0.4628(14) 0.4751(9)
N11 N -0.1256(7) -0.9541(11) 0.6668(7)
N12 N -0.1783(9) -1.0386(14) 0.6930(10)
N13 N -0.4990(9) -0.3271(18) 0.4186(12)
N14 N -0.5676(10) -0.3668(17) 0.4400(11)
N15 N -0.6256(10) -1.0461(16) 0.6342(11)
N16 N -0.5626(13) -1.0760(20) 0.6849(13)
N17 N -0.1955(9) -0.6813(15) 0.7248(10)
N18 N -0.2685(11) -0.7244(16) 0.7468(11)
N19 N -0.5337(8) -0.9477(12) 0.6826(8)
N20 N -0.2020(12) -0.4210(19) 0.3198(12)
N21 N -0.1474(8) -0.5081(13) 0.3459(7)
C116 C -0.1534(8) -0.5686(11) 0.3565(8)
C117 C -0.1499(9) -0.5857(11) 0.3945(9)
C118 C -0.1405(10) -0.5423(17) 0.4220(7)
C119 C -0.1345(10) -0.4818(15) 0.4114(9)
C120 C -0.1380(9) -0.4646(10) 0.3734(10)
C121 C -0.4242(7) -0.4278(12) 0.4222(7)
N22 N -0.4467(5) -0.4058(12) 0.4523(9)
C122 C -0.4290(8) -0.3920(12) 0.4870(7)
C123 C -0.3887(8) -0.4002(13) 0.4915(7)
C124 C -0.3662(5) -0.4221(12) 0.4614(9)
C125 C -0.3839(7) -0.4360(12) 0.4268(7)
N23 N -0.2897(7) -0.7848(15) 0.2568(8)
C126 C -0.3097(9) -0.7300(11) 0.2619(9)
C127 C -0.3487(9) -0.7305(13) 0.2736(10)
C128 C -0.3678(7) -0.7857(17) 0.2801(10)
C129 C -0.3477(10) -0.8405(13) 0.2750(11)
C130 C -0.3087(9) -0.8401(11) 0.2633(10)
C131 C -0.2055(10) -0.8779(18) 0.2898(10)
C132 C -0.1881(10) -0.8970(11) 0.3236(11)
C133 C -0.1784(9) -0.8545(16) 0.3515(8)
C134 C -0.1860(9) -0.7928(14) 0.3455(10)
C135 C -0.2033(11) -0.7736(13) 0.3117(12)
N24 N -0.2131(10) -0.8160(20) 0.2838(9)
C136 C -0.5882(17) -0.7226(30) 0.3342(15)
N25 N -0.5582(15) -0.4430(20) 0.2603(14)
C137 C -0.5844(17) -0.3910(30) 0.2735(19)
C138 C -0.5964(15) -0.4120(20) 0.3169(16)
N26 N -0.6082(9) -0.4732(14) 0.3088(9)
N27 N -0.4950 -1.1974 0.5296
C139 C -0.5358 -1.2276 0.5415
C140 C -0.5675 -1.1917 0.5354
N28 N -0.5653 -1.1520 0.5030
N29 N -0.1737(11) -0.4378(18) 0.2438(12)
C141 C -0.1517(14) -0.4670(20) 0.2147(13)
C142 C -0.1090(17) -0.4700(30) 0.2308(19)
N30 N -0.1179(13) -0.5000(20) 0.2766(14)
N31 N -0.2590(18) -0.7590(30) 0.1890(20)
C143 C -0.2270(20) -0.7370(40) 0.1665(15)
C144 C -0.2150(30) -0.6800(40) 0.1910(20)
N32 N -0.2049(5) -0.7180(8) 0.2346(5)
loop_
_geom_bond_atom_site_label_1
_geom_bond_atom_site_label_2
_geom_bond_site_symmetry_1
_geom_bond_site_symmetry_2
Pd1 N2 1_555 1_555
Pd2 N8 1_555 1_555
Pd3 N4 1_555 1_555
Pd4 N1 1_555 1_555
Pd5 N3 1_555 1_555
Pd6 N10 1_555 1_555
Pd7 N20 1_555 1_555
Pd8 N23 1_555 1_555
C1 C2 1_555 1_555
C2 C4 1_555 1_555
C3 C1 1_555 1_555
C4 N1 1_555 1_555
C5 C7 1_555 1_555
C6 C86 1_555 1_555
C7 C10 1_555 1_555
C8 C3 1_555 1_555
C9 C10 1_555 1_555
C11 C3 1_555 1_555
C12 C8 1_555 1_555
C13 C16 1_555 1_555
C14 C15 1_555 1_555
C15 C24 1_555 1_555
C16 C92 1_555 1_555
C17 C29 1_555 1_555
C18 C36 1_555 1_555
C19 C20 1_555 1_555
C20 C26 1_555 1_555
C21 C37 1_555 1_555
C22 C44 1_555 1_555
C23 C24 1_555 1_555
C24 C43 1_555 1_555
C25 C15 1_555 1_555
C26 C38 1_555 1_555
C27 C30 1_555 1_555
C28 C31 1_555 1_555
C29 C33 1_555 1_555
C30 C98 1_555 1_555
C31 C61 1_555 1_555
C32 C19 1_555 1_555
C33 C13 1_555 1_555
C34 C39 1_555 1_555
C35 C20 1_555 1_555
C36 C44 1_555 1_555
C37 C25 1_555 1_555
C38 C27 1_555 1_555
C39 C28 1_555 1_555
C40 C63 1_555 1_555
C41 C32 1_555 1_555
C42 C26 1_555 1_555
C43 C63 1_555 1_555
C44 C27 1_555 1_555
C45 C14 1_555 1_555
C46 C60 1_555 1_555
C47 C56 1_555 1_555
C48 C64 1_555 1_555
C49 C64 1_555 1_555
C50 C56 1_555 1_555
C51 C67 1_555 1_555
C52 C55 1_555 1_555
C53 C54 1_555 1_555
C54 N8 1_555 1_555
C55 N8 1_555 1_555
C57 C59 1_555 1_555
C58 C52 1_555 1_555
C59 C68 1_555 1_555
C60 C50 1_555 1_555
C61 N3 1_555 1_555
C62 C113 1_555 1_555
C64 C85 1_555 1_555
C65 C71 1_555 1_555
C66 C106 1_555 1_555
C67 C49 1_555 1_555
C68 N9 1_555 1_555
C69 C18 1_555 1_555
C70 C59 1_555 1_555
C71 N7 1_555 1_555
C72 C74 1_555 1_555
C73 C76 1_555 1_555
C74 C75 1_555 1_555
C75 C57 1_555 1_555
C76 C50 1_555 1_555
C77 C46 1_555 1_555
C78 C76 1_555 1_555
C79 C83 1_555 1_555
C80 C72 1_555 1_555
C81 C46 1_555 1_555
C82 C95 1_555 1_555
C83 N12 1_555 1_555
C84 C85 1_555 1_555
C85 C90 1_555 1_555
C86 C94 1_555 1_555
C87 C74 1_555 1_555
C88 C105 1_555 1_555
C89 C110 1_555 1_555
C90 C101 1_555 1_555
C91 C57 1_555 1_555
C92 C17 1_555 1_555
C93 C102 1_555 1_555
C94 C112 1_555 1_555
C95 C78 1_555 1_555
C96 C80 1_555 1_555
C97 C72 1_555 1_555
C98 C42 1_555 1_555
C99 C108 1_555 1_555
C100 C103 1_555 1_555
C101 C115 1_555 1_555
C102 N13 1_555 1_555
C103 C6 1_555 1_555
C104 C87 1_555 1_555
C105 N15 1_555 1_555
C106 C47 1_555 1_555
C107 C96 1_555 1_555
C108 C86 1_555 1_555
C109 C111 1_555 1_555
C110 N18 1_555 1_555
C111 N20 1_555 1_555
C112 C100 1_555 1_555
C113 C70 1_555 1_555
C114 C108 1_555 1_555
C115 N4 1_555 1_555
N1 C11 1_555 1_555
N2 C23 1_555 1_555
N3 C34 1_555 1_555
N4 C84 1_555 1_555
N5 Pd1 1_555 1_555
N6 Pd3 1_555 1_555
N7 Pd4 1_555 1_555
N9 Pd5 1_555 1_555
N10 C73 1_555 1_555
N11 Pd1 1_555 1_555
N12 Pd1 1_555 1_555
N13 Pd6 1_555 1_555
N14 Pd6 1_555 1_555
N15 Pd2 1_555 1_555
N16 Pd2 1_555 1_555
N17 Pd5 1_555 1_555
N18 Pd5 1_555 1_555
N19 Pd2 1_555 1_555
N20 C99 1_555 1_555
N21 Pd7 1_555 1_555
C116 N21 1_555 1_555
C117 C13 1_555 1_555
C118 C117 1_555 1_555
C119 C118 1_555 1_555
C120 N21 1_555 1_555
C121 N22 1_555 1_555
N22 Pd6 1_555 1_555
C122 N22 1_555 1_555
C123 C122 1_555 1_555
C124 C123 1_555 1_555
C125 C112 1_555 1_555
N23 C126 1_555 1_555
C126 C127 1_555 1_555
C127 C9 1_555 1_555
C128 C127 1_555 1_555
C129 C128 1_555 1_555
C130 N23 1_555 1_555
C131 C132 1_555 1_555
C132 C133 1_555 1_555
C133 C134 1_555 1_555
C134 C92 1_555 1_555
C135 C134 1_555 1_555
N24 Pd8 1_555 1_555
C136 C65 1_555 1_555
N25 Pd4 1_555 1_555
C137 N25 1_555 1_555
C138 C137 1_555 1_555
N26 Pd4 1_555 1_555
N27 Pd3 1_555 1_555
C139 N27 1_555 1_555
C140 C139 1_555 1_555
N28 Pd3 1_555 1_555
N29 Pd7 1_555 1_555
C141 N29 1_555 1_555
C142 C141 1_555 1_555
N30 Pd7 1_555 1_555
N31 Pd8 1_555 1_555
C143 N31 1_555 1_555
C144 C143 1_555 1_555
N32 Pd8 1_555 1_555
C5 C8 1_555 1_555
C7 C103 1_555 1_555
C9 C12 1_555 1_555
C21 C45 1_555 1_555
C22 N6 1_555 1_555
C29 C37 1_555 1_555
C35 N5 1_555 1_555
C39 C45 1_555 1_555
C40 N2 1_555 1_555
C41 N5 1_555 1_555
C47 C77 1_555 1_555
C48 C81 1_555 1_555
C51 C81 1_555 1_555
C52 C67 1_555 1_555
C53 C58 1_555 1_555
C62 N9 1_555 1_555
C66 N7 1_555 1_555
C69 N6 1_555 1_555
C79 N11 1_555 1_555
C82 N10 1_555 1_555
C88 N16 1_555 1_555
C89 N17 1_555 1_555
C91 C104 1_555 1_555
C93 N14 1_555 1_555
C97 N19 1_555 1_555
C98 C104 1_555 1_555
C106 C136 1_555 1_555
C107 N19 1_555 1_555
C109 C114 1_555 1_555
C116 C117 1_555 1_555
C119 C120 1_555 1_555
C121 C125 1_555 1_555
C124 C125 1_555 1_555
C129 C130 1_555 1_555
C131 N24 1_555 1_555
C135 N24 1_555 1_555
C138 N26 1_555 1_555
C140 N28 1_555 1_555
C142 N30 1_555 1_555
C144 N32 1_555 1_555

#END
