# generated using pymatgen
data_Pd12C638S19N74(O67F8)3
_symmetry_space_group_name_H-M   'P 1'
_cell_length_a   37.57900000
_cell_length_b   38.64178928
_cell_length_c   51.15100000
_cell_angle_alpha   90.00000000
_cell_angle_beta   90.00000000
_cell_angle_gamma   108.95028560
_symmetry_Int_Tables_number   1
_chemical_formula_structural   Pd12C638S19N74(O67F8)3
_chemical_formula_sum   'Pd24 C1276 S38 N148 O402 F48'
_cell_volume   70251.59849698
_cell_formula_units_Z   2
loop_
 _symmetry_equiv_pos_site_id
 _symmetry_equiv_pos_as_xyz
  1  'x, y, z'
loop_
 _atom_site_type_symbol
 _atom_site_label
 _atom_site_symmetry_multiplicity
 _atom_site_fract_x
 _atom_site_fract_y
 _atom_site_fract_z
 _atom_site_occupancy
  Pd  Pd1  1  1.000000  0.500000  0.447340  1
  Pd  Pd2  1  0.500000  0.000000  0.947340  1
  Pd  Pd3  1  0.000000  0.500000  0.139890  1
  Pd  Pd4  1  0.500000  0.000000  0.639890  1
  Pd  Pd5  1  0.366920  0.411520  0.628900  1.0
  Pd  Pd6  1  0.633080  0.588480  0.628900  1.0
  Pd  Pd7  1  0.866920  0.911520  0.128900  1.0
  Pd  Pd8  1  0.133080  0.088480  0.128900  1.0
  Pd  Pd9  1  0.936060  0.104000  0.970250  1.0
  Pd  Pd10  1  0.063940  0.896000  0.970250  1.0
  Pd  Pd11  1  0.436060  0.604000  0.470250  1.0
  Pd  Pd12  1  0.563940  0.396000  0.470250  1.0
  Pd  Pd13  1  0.367710  0.412900  0.960710  1.0
  Pd  Pd14  1  0.632290  0.587100  0.960710  1.0
  Pd  Pd15  1  0.867710  0.912900  0.460710  1.0
  Pd  Pd16  1  0.132290  0.087100  0.460710  1.0
  Pd  Pd17  1  0.936260  0.106580  0.619020  1.0
  Pd  Pd18  1  0.063740  0.893420  0.619020  1.0
  Pd  Pd19  1  0.436260  0.606580  0.119020  1.0
  Pd  Pd20  1  0.563740  0.393420  0.119020  1.0
  Pd  Pd21  1  0.567750  0.172470  0.797260  1.0
  Pd  Pd22  1  0.432250  0.827530  0.797260  1.0
  Pd  Pd23  1  0.067750  0.672470  0.297260  1.0
  Pd  Pd24  1  0.932250  0.327530  0.297260  1.0
  C  C25  1  0.566300  0.508400  0.524900  1
  C  C26  1  0.433700  0.491600  0.524900  1
  C  C27  1  0.066300  0.008400  0.024900  1
  C  C28  1  0.933700  0.991600  0.024900  1
  C  C29  1  0.557300  0.503000  0.064900  1
  C  C30  1  0.442700  0.497000  0.064900  1
  C  C31  1  0.057300  0.003000  0.564900  1
  C  C32  1  0.942700  0.997000  0.564900  1
  C  C33  1  0.447400  0.379800  0.041500  1
  C  C34  1  0.552600  0.620200  0.041500  1
  C  C35  1  0.947400  0.879800  0.541500  1
  C  C36  1  0.052600  0.120200  0.541500  1
  C  C37  1  0.485200  0.431600  0.559600  1
  C  C38  1  0.514800  0.568400  0.559600  1
  C  C39  1  0.985200  0.931600  0.059600  1
  C  C40  1  0.014800  0.068400  0.059600  1
  C  C41  1  0.681700  0.449700  0.588800  1
  C  C42  1  0.318300  0.550300  0.588800  1
  C  C43  1  0.181700  0.949700  0.088800  1
  C  C44  1  0.818300  0.050300  0.088800  1
  C  C45  1  0.679600  0.424400  0.571200  1
  C  C46  1  0.320400  0.575600  0.571200  1
  C  C47  1  0.179600  0.924400  0.071200  1
  C  C48  1  0.820400  0.075600  0.071200  1
  C  C49  1  0.645900  0.461000  0.555800  1
  C  C50  1  0.354100  0.539000  0.555800  1
  C  C51  1  0.145900  0.961000  0.055800  1
  C  C52  1  0.854100  0.039000  0.055800  1
  C  C53  1  0.627300  0.462900  0.576900  1
  C  C54  1  0.372700  0.537100  0.576900  1
  C  C55  1  0.127300  0.962900  0.076900  1
  C  C56  1  0.872700  0.037100  0.076900  1
  C  C57  1  0.089900  0.154900  0.682700  1
  C  C58  1  0.910100  0.845100  0.682700  1
  C  C59  1  0.589900  0.654900  0.182700  1
  C  C60  1  0.410100  0.345100  0.182700  1
  C  C61  1  0.067500  0.122200  0.688800  1
  C  C62  1  0.932500  0.877800  0.688800  1
  C  C63  1  0.567500  0.622200  0.188800  1
  C  C64  1  0.432500  0.377800  0.188800  1
  C  C65  1  0.028200  0.147200  0.710300  1
  C  C66  1  0.971800  0.852800  0.710300  1
  C  C67  1  0.528200  0.647200  0.210300  1
  C  C68  1  0.471800  0.352800  0.210300  1
  C  C69  1  0.050400  0.179500  0.703000  1
  C  C70  1  0.949600  0.820500  0.703000  1
  C  C71  1  0.550400  0.679500  0.203000  1
  C  C72  1  0.449600  0.320500  0.203000  1
  C  C73  1  0.979000  0.934000  0.774400  1
  C  C74  1  0.021000  0.066000  0.774400  1
  C  C75  1  0.479000  0.434000  0.274400  1
  C  C76  1  0.521000  0.566000  0.274400  1
  C  C77  1  0.976000  0.898000  0.785300  1
  C  C78  1  0.024000  0.102000  0.785300  1
  C  C79  1  0.476000  0.398000  0.285300  1
  C  C80  1  0.524000  0.602000  0.285300  1
  C  C81  1  0.822000  0.072000  0.853000  1
  C  C82  1  0.178000  0.928000  0.853000  1
  C  C83  1  0.322000  0.572000  0.353000  1
  C  C84  1  0.678000  0.428000  0.353000  1
  C  C85  1  0.372900  0.394800  0.684000  1
  C  C86  1  0.627100  0.605200  0.684000  1
  C  C87  1  0.872900  0.894800  0.184000  1
  C  C88  1  0.127100  0.105200  0.184000  1
  C  C89  1  0.393100  0.397700  0.707000  1
  C  C90  1  0.606900  0.602300  0.707000  1
  C  C91  1  0.893100  0.897700  0.207000  1
  C  C92  1  0.106900  0.102300  0.207000  1
  C  C93  1  0.431500  0.402800  0.706300  1
  C  C94  1  0.568500  0.597200  0.706300  1
  C  C95  1  0.931500  0.902800  0.206300  1
  C  C96  1  0.068500  0.097200  0.206300  1
  C  C97  1  0.449700  0.404900  0.682200  1
  C  C98  1  0.550300  0.595100  0.682200  1
  C  C99  1  0.949700  0.904900  0.182200  1
  C  C100  1  0.050300  0.095100  0.182200  1
  C  C101  1  0.429300  0.402900  0.659300  1
  C  C102  1  0.570700  0.597100  0.659300  1
  C  C103  1  0.929300  0.902900  0.159300  1
  C  C104  1  0.070700  0.097100  0.159300  1
  C  C105  1  0.451800  0.406700  0.731700  1
  C  C106  1  0.548200  0.593300  0.731700  1
  C  C107  1  0.951800  0.906700  0.231700  1
  C  C108  1  0.048200  0.093300  0.231700  1
  C  C109  1  0.473700  0.409600  0.749000  1
  C  C110  1  0.526300  0.590400  0.749000  1
  C  C111  1  0.973700  0.909600  0.249000  1
  C  C112  1  0.026300  0.090400  0.249000  1
  C  C113  1  0.495900  0.412400  0.771700  1
  C  C114  1  0.504100  0.587600  0.771700  1
  C  C115  1  0.995900  0.912400  0.271700  1
  C  C116  1  0.004100  0.087600  0.271700  1
  C  C117  1  0.533800  0.416100  0.771100  1
  C  C118  1  0.466200  0.583900  0.771100  1
  C  C119  1  0.033800  0.916100  0.271100  1
  C  C120  1  0.966200  0.083900  0.271100  1
  C  C121  1  0.555100  0.423300  0.793900  1
  C  C122  1  0.444900  0.576700  0.793900  1
  C  C123  1  0.055100  0.923300  0.293900  1
  C  C124  1  0.944900  0.076700  0.293900  1
  C  C125  1  0.536300  0.418300  0.817700  1
  C  C126  1  0.463700  0.581700  0.817700  1
  C  C127  1  0.036300  0.918300  0.317700  1
  C  C128  1  0.963700  0.081700  0.317700  1
  C  C129  1  0.497800  0.412800  0.818400  1
  C  C130  1  0.502200  0.587200  0.818400  1
  C  C131  1  0.997800  0.912800  0.318400  1
  C  C132  1  0.002200  0.087200  0.318400  1
  C  C133  1  0.476500  0.407900  0.795500  1
  C  C134  1  0.523500  0.592100  0.795500  1
  C  C135  1  0.976500  0.907900  0.295500  1
  C  C136  1  0.023500  0.092100  0.295500  1
  C  C137  1  0.477300  0.408300  0.840500  1
  C  C138  1  0.522700  0.591700  0.840500  1
  C  C139  1  0.977300  0.908300  0.340500  1
  C  C140  1  0.022700  0.091700  0.340500  1
  C  C141  1  0.466300  0.409300  0.862200  1
  C  C142  1  0.533700  0.590700  0.862200  1
  C  C143  1  0.966300  0.909300  0.362200  1
  C  C144  1  0.033700  0.090700  0.362200  1
  C  C145  1  0.431800  0.406300  0.931800  1
  C  C146  1  0.568200  0.593700  0.931800  1
  C  C147  1  0.931800  0.906300  0.431800  1
  C  C148  1  0.068200  0.093700  0.431800  1
  C  C149  1  0.453400  0.406000  0.909700  1
  C  C150  1  0.546600  0.594000  0.909700  1
  C  C151  1  0.953400  0.906000  0.409700  1
  C  C152  1  0.046600  0.094000  0.409700  1
  C  C153  1  0.437900  0.404600  0.884900  1
  C  C154  1  0.562100  0.595400  0.884900  1
  C  C155  1  0.937900  0.904600  0.384900  1
  C  C156  1  0.062100  0.095400  0.384900  1
  C  C157  1  0.399400  0.398900  0.882200  1
  C  C158  1  0.600600  0.601100  0.882200  1
  C  C159  1  0.899400  0.898900  0.382200  1
  C  C160  1  0.100600  0.101100  0.382200  1
  C  C161  1  0.377700  0.398500  0.904300  1
  C  C162  1  0.622300  0.601500  0.904300  1
  C  C163  1  0.877700  0.898500  0.404300  1
  C  C164  1  0.122300  0.101500  0.404300  1
  C  C165  1  0.405000  0.391000  0.792000  1
  C  C166  1  0.595000  0.609000  0.792000  1
  C  C167  1  0.905000  0.891000  0.292000  1
  C  C168  1  0.095000  0.109000  0.292000  1
  C  C169  1  0.364000  0.367000  0.791000  1
  C  C170  1  0.636000  0.633000  0.791000  1
  C  C171  1  0.864000  0.867000  0.291000  1
  C  C172  1  0.136000  0.133000  0.291000  1
  C  C173  1  0.336000  0.364000  0.767000  1
  C  C174  1  0.664000  0.636000  0.767000  1
  C  C175  1  0.836000  0.864000  0.267000  1
  C  C176  1  0.164000  0.136000  0.267000  1
  C  C177  1  0.557400  0.949100  0.797000  1
  C  C178  1  0.442600  0.050900  0.797000  1
  C  C179  1  0.057400  0.449100  0.297000  1
  C  C180  1  0.942600  0.550900  0.297000  1
  C  C181  1  0.492800  0.968500  0.762400  1
  C  C182  1  0.507200  0.031500  0.762400  1
  C  C183  1  0.992800  0.468500  0.262400  1
  C  C184  1  0.007200  0.531500  0.262400  1
  C  C185  1  0.508400  0.992900  0.722600  1
  C  C186  1  0.491600  0.007100  0.722600  1
  C  C187  1  0.008400  0.492900  0.222600  1
  C  C188  1  0.991600  0.507100  0.222600  1
  C  C189  1  0.037500  0.017600  0.903900  1.0
  C  C190  1  0.962500  0.982400  0.903900  1.0
  C  C191  1  0.537500  0.517600  0.403900  1.0
  C  C192  1  0.462500  0.482400  0.403900  1.0
  C  C193  1  0.030200  0.029200  0.881300  1.0
  C  C194  1  0.969800  0.970800  0.881300  1.0
  C  C195  1  0.530200  0.529200  0.381300  1.0
  C  C196  1  0.469800  0.470800  0.381300  1.0
  C  C197  1  0.858700  0.082100  0.988100  1.0
  C  C198  1  0.141300  0.917900  0.988100  1.0
  C  C199  1  0.358700  0.582100  0.488100  1.0
  C  C200  1  0.641300  0.417900  0.488100  1.0
  C  C201  1  0.821300  0.080700  0.988000  1.0
  C  C202  1  0.178700  0.919300  0.988000  1.0
  C  C203  1  0.321300  0.580700  0.488000  1.0
  C  C204  1  0.678700  0.419300  0.488000  1.0
  C  C205  1  0.806800  0.094000  0.966700  1.0
  C  C206  1  0.193200  0.906000  0.966700  1.0
  C  C207  1  0.306800  0.594000  0.466700  1.0
  C  C208  1  0.693200  0.406000  0.466700  1.0
  C  C209  1  0.829700  0.108800  0.945500  1.0
  C  C210  1  0.170300  0.891200  0.945500  1.0
  C  C211  1  0.329700  0.608800  0.445500  1.0
  C  C212  1  0.670300  0.391200  0.445500  1.0
  C  C213  1  0.867200  0.110300  0.945500  1.0
  C  C214  1  0.132800  0.889700  0.945500  1.0
  C  C215  1  0.367200  0.610300  0.445500  1.0
  C  C216  1  0.632800  0.389700  0.445500  1.0
  C  C217  1  0.767900  0.096500  0.970200  1.0
  C  C218  1  0.232100  0.903500  0.970200  1.0
  C  C219  1  0.267900  0.596500  0.470200  1.0
  C  C220  1  0.732100  0.403500  0.470200  1.0
  C  C221  1  0.735100  0.090100  0.975600  1.0
  C  C222  1  0.264900  0.909900  0.975600  1.0
  C  C223  1  0.235100  0.590100  0.475600  1.0
  C  C224  1  0.764900  0.409900  0.475600  1.0
  C  C225  1  0.697600  0.090900  0.972600  1.0
  C  C226  1  0.302400  0.909100  0.972600  1.0
  C  C227  1  0.197600  0.590900  0.472600  1.0
  C  C228  1  0.802400  0.409100  0.472600  1.0
  C  C229  1  0.673800  0.084200  0.994100  1.0
  C  C230  1  0.326200  0.915800  0.994100  1.0
  C  C231  1  0.173800  0.584200  0.494100  1.0
  C  C232  1  0.826200  0.415800  0.494100  1.0
  C  C233  1  0.637400  0.085500  0.991500  1.0
  C  C234  1  0.362600  0.914500  0.991500  1.0
  C  C235  1  0.137400  0.585500  0.491500  1.0
  C  C236  1  0.862600  0.414500  0.491500  1.0
  C  C237  1  0.625000  0.093700  0.967400  1.0
  C  C238  1  0.375000  0.906300  0.967400  1.0
  C  C239  1  0.125000  0.593700  0.467400  1.0
  C  C240  1  0.875000  0.406300  0.467400  1.0
  C  C241  1  0.648900  0.100500  0.945900  1.0
  C  C242  1  0.351100  0.899500  0.945900  1.0
  C  C243  1  0.148900  0.600500  0.445900  1.0
  C  C244  1  0.851100  0.399500  0.445900  1.0
  C  C245  1  0.685300  0.099100  0.948500  1.0
  C  C246  1  0.314700  0.900900  0.948500  1.0
  C  C247  1  0.185300  0.599100  0.448500  1.0
  C  C248  1  0.814700  0.400900  0.448500  1.0
  C  C249  1  0.637900  0.106800  0.921600  1.0
  C  C250  1  0.362100  0.893200  0.921600  1.0
  C  C251  1  0.137900  0.606800  0.421600  1.0
  C  C252  1  0.862100  0.393200  0.421600  1.0
  C  C253  1  0.624500  0.110600  0.901200  1.0
  C  C254  1  0.375500  0.889400  0.901200  1.0
  C  C255  1  0.124500  0.610600  0.401200  1.0
  C  C256  1  0.875500  0.389400  0.401200  1.0
  C  C257  1  0.619400  0.167800  0.842200  1.0
  C  C258  1  0.380600  0.832200  0.842200  1.0
  C  C259  1  0.119400  0.667800  0.342200  1.0
  C  C260  1  0.880600  0.332200  0.342200  1.0
  C  C261  1  0.630000  0.155500  0.865500  1.0
  C  C262  1  0.370000  0.844500  0.865500  1.0
  C  C263  1  0.130000  0.655500  0.365500  1.0
  C  C264  1  0.870000  0.344500  0.365500  1.0
  C  C265  1  0.609700  0.121100  0.875100  1.0
  C  C266  1  0.390300  0.878900  0.875100  1.0
  C  C267  1  0.109700  0.621100  0.375100  1.0
  C  C268  1  0.890300  0.378900  0.375100  1.0
  C  C269  1  0.578600  0.099000  0.861400  1.0
  C  C270  1  0.421400  0.901000  0.861400  1.0
  C  C271  1  0.078600  0.599000  0.361400  1.0
  C  C272  1  0.921400  0.401000  0.361400  1.0
  C  C273  1  0.568000  0.111400  0.838000  1.0
  C  C274  1  0.432000  0.888600  0.838000  1.0
  C  C275  1  0.068000  0.611400  0.338000  1.0
  C  C276  1  0.932000  0.388600  0.338000  1.0
  C  C277  1  0.708800  0.089100  0.904300  1.0
  C  C278  1  0.291200  0.910900  0.904300  1.0
  C  C279  1  0.208800  0.589100  0.404300  1.0
  C  C280  1  0.791200  0.410900  0.404300  1.0
  C  C281  1  0.733600  0.113100  0.882800  1.0
  C  C282  1  0.266400  0.886900  0.882800  1.0
  C  C283  1  0.233600  0.613100  0.382800  1.0
  C  C284  1  0.766400  0.386900  0.382800  1.0
  C  C285  1  0.719800  0.138500  0.863400  1.0
  C  C286  1  0.280200  0.861500  0.863400  1.0
  C  C287  1  0.219800  0.638500  0.363400  1.0
  C  C288  1  0.780200  0.361500  0.363400  1.0
  C  C289  1  0.767400  0.077000  0.871900  1.0
  C  C290  1  0.232600  0.923000  0.871900  1.0
  C  C291  1  0.267400  0.577000  0.371900  1.0
  C  C292  1  0.732600  0.423000  0.371900  1.0
  C  C293  1  0.068500  0.488900  0.468500  1.0
  C  C294  1  0.931500  0.511100  0.468500  1.0
  C  C295  1  0.568500  0.988900  0.968500  1.0
  C  C296  1  0.431500  0.011100  0.968500  1.0
  C  C297  1  0.105300  0.488300  0.469300  1.0
  C  C298  1  0.894700  0.511700  0.469300  1.0
  C  C299  1  0.605300  0.988300  0.969300  1.0
  C  C300  1  0.394700  0.011700  0.969300  1.0
  C  C301  1  0.128100  0.497800  0.447300  1.0
  C  C302  1  0.871900  0.502200  0.447300  1.0
  C  C303  1  0.628100  0.997800  0.947300  1.0
  C  C304  1  0.371900  0.002200  0.947300  1.0
  C  C305  1  0.114100  0.507900  0.424400  1.0
  C  C306  1  0.885900  0.492100  0.424400  1.0
  C  C307  1  0.614100  0.007900  0.924400  1.0
  C  C308  1  0.385900  0.992100  0.924400  1.0
  C  C309  1  0.077300  0.508500  0.423600  1.0
  C  C310  1  0.922700  0.491500  0.423600  1.0
  C  C311  1  0.577300  0.008500  0.923600  1.0
  C  C312  1  0.422700  0.991500  0.923600  1.0
  C  C313  1  0.163400  0.497100  0.455000  1.0
  C  C314  1  0.836600  0.502900  0.455000  1.0
  C  C315  1  0.663400  0.997100  0.955000  1.0
  C  C316  1  0.336600  0.002900  0.955000  1.0
  C  C317  1  0.193900  0.494100  0.457400  1.0
  C  C318  1  0.806100  0.505900  0.457400  1.0
  C  C319  1  0.693900  0.994100  0.957400  1.0
  C  C320  1  0.306100  0.005900  0.957400  1.0
  C  C321  1  0.231000  0.493400  0.459900  1.0
  C  C322  1  0.769000  0.506600  0.459900  1.0
  C  C323  1  0.731000  0.993400  0.959900  1.0
  C  C324  1  0.269000  0.006600  0.959900  1.0
  C  C325  1  0.256800  0.504200  0.439700  1.0
  C  C326  1  0.743200  0.495800  0.439700  1.0
  C  C327  1  0.756800  0.004200  0.939700  1.0
  C  C328  1  0.243200  0.995800  0.939700  1.0
  C  C329  1  0.293300  0.503300  0.443000  1.0
  C  C330  1  0.706700  0.496700  0.443000  1.0
  C  C331  1  0.793300  0.003300  0.943000  1.0
  C  C332  1  0.206700  0.996700  0.943000  1.0
  C  C333  1  0.303700  0.491500  0.466500  1.0
  C  C334  1  0.696300  0.508500  0.466500  1.0
  C  C335  1  0.803700  0.991500  0.966500  1.0
  C  C336  1  0.196300  0.008500  0.966500  1.0
  C  C337  1  0.277900  0.480700  0.486800  1.0
  C  C338  1  0.722100  0.519300  0.486800  1.0
  C  C339  1  0.777900  0.980700  0.986800  1.0
  C  C340  1  0.222100  0.019300  0.986800  1.0
  C  C341  1  0.241400  0.481600  0.483500  1.0
  C  C342  1  0.758600  0.518400  0.483500  1.0
  C  C343  1  0.741400  0.981600  0.983500  1.0
  C  C344  1  0.258600  0.018400  0.983500  1.0
  C  C345  1  0.285100  0.468300  0.510200  1.0
  C  C346  1  0.714900  0.531700  0.510200  1.0
  C  C347  1  0.785100  0.968300  0.010200  1.0
  C  C348  1  0.214900  0.031700  0.010200  1.0
  C  C349  1  0.300200  0.460300  0.528300  1.0
  C  C350  1  0.699800  0.539700  0.528300  1.0
  C  C351  1  0.800200  0.960300  0.028300  1.0
  C  C352  1  0.199800  0.039700  0.028300  1.0
  C  C353  1  0.357900  0.419200  0.574000  1.0
  C  C354  1  0.642100  0.580800  0.574000  1.0
  C  C355  1  0.857900  0.919200  0.074000  1.0
  C  C356  1  0.142100  0.080800  0.074000  1.0
  C  C357  1  0.343500  0.432000  0.552700  1.0
  C  C358  1  0.656500  0.568000  0.552700  1.0
  C  C359  1  0.843500  0.932000  0.052700  1.0
  C  C360  1  0.156500  0.068000  0.052700  1.0
  C  C361  1  0.313900  0.446200  0.555600  1.0
  C  C362  1  0.686100  0.553800  0.555600  1.0
  C  C363  1  0.813900  0.946200  0.055600  1.0
  C  C364  1  0.186100  0.053800  0.055600  1.0
  C  C365  1  0.299200  0.446900  0.580500  1.0
  C  C366  1  0.700800  0.553100  0.580500  1.0
  C  C367  1  0.799200  0.946900  0.080500  1.0
  C  C368  1  0.200800  0.053100  0.080500  1.0
  C  C369  1  0.313900  0.433500  0.601600  1.0
  C  C370  1  0.686100  0.566500  0.601600  1.0
  C  C371  1  0.813900  0.933500  0.101600  1.0
  C  C372  1  0.186100  0.066500  0.101600  1.0
  C  C373  1  0.215600  0.489900  0.525700  1.0
  C  C374  1  0.784400  0.510100  0.525700  1.0
  C  C375  1  0.715600  0.989900  0.025700  1.0
  C  C376  1  0.284400  0.010100  0.025700  1.0
  C  C377  1  0.181400  0.465700  0.541900  1.0
  C  C378  1  0.818600  0.534300  0.541900  1.0
  C  C379  1  0.681400  0.965700  0.041900  1.0
  C  C380  1  0.318600  0.034300  0.041900  1.0
  C  C381  1  0.974700  0.421200  0.418000  1.0
  C  C382  1  0.025300  0.578800  0.418000  1.0
  C  C383  1  0.474700  0.921200  0.918000  1.0
  C  C384  1  0.525300  0.078800  0.918000  1.0
  C  C385  1  0.960700  0.383100  0.418600  1.0
  C  C386  1  0.039300  0.616900  0.418600  1.0
  C  C387  1  0.460700  0.883100  0.918600  1.0
  C  C388  1  0.539300  0.116900  0.918600  1.0
  C  C389  1  0.954300  0.365500  0.443000  1.0
  C  C390  1  0.045700  0.634500  0.443000  1.0
  C  C391  1  0.454300  0.865500  0.943000  1.0
  C  C392  1  0.545700  0.134500  0.943000  1.0
  C  C393  1  0.963100  0.385900  0.466000  1.0
  C  C394  1  0.036900  0.614100  0.466000  1.0
  C  C395  1  0.463100  0.885900  0.966000  1.0
  C  C396  1  0.536900  0.114100  0.966000  1.0
  C  C397  1  0.974100  0.423700  0.465000  1.0
  C  C398  1  0.025900  0.576300  0.465000  1.0
  C  C399  1  0.474100  0.923700  0.965000  1.0
  C  C400  1  0.525900  0.076300  0.965000  1.0
  C  C401  1  0.945600  0.325000  0.443600  1.0
  C  C402  1  0.054400  0.675000  0.443600  1.0
  C  C403  1  0.445600  0.825000  0.943600  1.0
  C  C404  1  0.554400  0.175000  0.943600  1.0
  C  C405  1  0.927600  0.293300  0.440500  1.0
  C  C406  1  0.072400  0.706700  0.440500  1.0
  C  C407  1  0.427600  0.793300  0.940500  1.0
  C  C408  1  0.572400  0.206700  0.940500  1.0
  C  C409  1  0.915700  0.255100  0.440000  1.0
  C  C410  1  0.084300  0.744900  0.440000  1.0
  C  C411  1  0.415700  0.755100  0.940000  1.0
  C  C412  1  0.584300  0.244900  0.940000  1.0
  C  C413  1  0.894500  0.234600  0.419800  1.0
  C  C414  1  0.105500  0.765400  0.419800  1.0
  C  C415  1  0.394500  0.734600  0.919800  1.0
  C  C416  1  0.605500  0.265400  0.919800  1.0
  C  C417  1  0.884700  0.196500  0.419800  1.0
  C  C418  1  0.115300  0.803500  0.419800  1.0
  C  C419  1  0.384700  0.696500  0.919800  1.0
  C  C420  1  0.615300  0.303500  0.919800  1.0
  C  C421  1  0.892900  0.179000  0.441600  1.0
  C  C422  1  0.107100  0.821000  0.441600  1.0
  C  C423  1  0.392900  0.679000  0.941600  1.0
  C  C424  1  0.607100  0.321000  0.941600  1.0
  C  C425  1  0.916400  0.199600  0.460900  1.0
  C  C426  1  0.083600  0.800400  0.460900  1.0
  C  C427  1  0.416400  0.699600  0.960900  1.0
  C  C428  1  0.583600  0.300400  0.960900  1.0
  C  C429  1  0.923600  0.237600  0.462200  1.0
  C  C430  1  0.076400  0.762400  0.462200  1.0
  C  C431  1  0.423600  0.737600  0.962200  1.0
  C  C432  1  0.576400  0.262400  0.962200  1.0
  C  C433  1  0.928600  0.185200  0.482000  1.0
  C  C434  1  0.071400  0.814800  0.482000  1.0
  C  C435  1  0.428600  0.685200  0.982000  1.0
  C  C436  1  0.571400  0.314800  0.982000  1.0
  C  C437  1  0.924700  0.166200  0.500600  1.0
  C  C438  1  0.075300  0.833800  0.500600  1.0
  C  C439  1  0.424700  0.666200  0.000600  1.0
  C  C440  1  0.575300  0.333800  0.000600  1.0
  C  C441  1  0.945300  0.111600  0.559200  1.0
  C  C442  1  0.054700  0.888400  0.559200  1.0
  C  C443  1  0.445300  0.611600  0.059200  1.0
  C  C444  1  0.554700  0.388400  0.059200  1.0
  C  C445  1  0.938400  0.122800  0.534400  1.0
  C  C446  1  0.061600  0.877200  0.534400  1.0
  C  C447  1  0.438400  0.622800  0.034400  1.0
  C  C448  1  0.561600  0.377200  0.034400  1.0
  C  C449  1  0.926600  0.153300  0.531000  1.0
  C  C450  1  0.073400  0.846700  0.531000  1.0
  C  C451  1  0.426600  0.653300  0.031000  1.0
  C  C452  1  0.573400  0.346700  0.031000  1.0
  C  C453  1  0.923600  0.173500  0.552900  1.0
  C  C454  1  0.076400  0.826500  0.552900  1.0
  C  C455  1  0.423600  0.673500  0.052900  1.0
  C  C456  1  0.576400  0.326500  0.052900  1.0
  C  C457  1  0.929100  0.161400  0.577800  1.0
  C  C458  1  0.070900  0.838600  0.577800  1.0
  C  C459  1  0.429100  0.661400  0.077800  1.0
  C  C460  1  0.570900  0.338600  0.077800  1.0
  C  C461  1  0.929200  0.263400  0.501800  1.0
  C  C462  1  0.070800  0.736600  0.501800  1.0
  C  C463  1  0.429200  0.763400  0.001800  1.0
  C  C464  1  0.570800  0.236600  0.001800  1.0
  C  C465  1  0.957700  0.284500  0.522800  1.0
  C  C466  1  0.042300  0.715500  0.522800  1.0
  C  C467  1  0.457700  0.784500  0.022800  1.0
  C  C468  1  0.542300  0.215500  0.022800  1.0
  C  C469  1  0.980000  0.265600  0.541000  1.0
  C  C470  1  0.020000  0.734400  0.541000  1.0
  C  C471  1  0.480000  0.765600  0.041000  1.0
  C  C472  1  0.520000  0.234400  0.041000  1.0
  C  C473  1  0.002100  0.076900  0.617000  1.0
  C  C474  1  0.997900  0.923100  0.617000  1.0
  C  C475  1  0.502100  0.576900  0.117000  1.0
  C  C476  1  0.497900  0.423100  0.117000  1.0
  C  C477  1  0.040400  0.081300  0.618100  1.0
  C  C478  1  0.959600  0.918700  0.618100  1.0
  C  C479  1  0.540400  0.581300  0.118100  1.0
  C  C480  1  0.459600  0.418700  0.118100  1.0
  C  C481  1  0.066700  0.116100  0.618300  1.0
  C  C482  1  0.933300  0.883900  0.618300  1.0
  C  C483  1  0.566700  0.616100  0.118300  1.0
  C  C484  1  0.433300  0.383900  0.118300  1.0
  C  C485  1  0.054900  0.146700  0.617500  1.0
  C  C486  1  0.945100  0.853300  0.617500  1.0
  C  C487  1  0.554900  0.646700  0.117500  1.0
  C  C488  1  0.445100  0.353300  0.117500  1.0
  C  C489  1  0.016800  0.142400  0.616400  1.0
  C  C490  1  0.983200  0.857600  0.616400  1.0
  C  C491  1  0.516800  0.642400  0.116400  1.0
  C  C492  1  0.483200  0.357600  0.116400  1.0
  C  C493  1  0.107400  0.119500  0.616800  1.0
  C  C494  1  0.892600  0.880500  0.616800  1.0
  C  C495  1  0.607400  0.619500  0.116800  1.0
  C  C496  1  0.392600  0.380500  0.116800  1.0
  C  C497  1  0.140000  0.124200  0.613200  1.0
  C  C498  1  0.860000  0.875800  0.613200  1.0
  C  C499  1  0.640000  0.624200  0.113200  1.0
  C  C500  1  0.360000  0.375800  0.113200  1.0
  C  C501  1  0.179200  0.132500  0.608800  1.0
  C  C502  1  0.820800  0.867500  0.608800  1.0
  C  C503  1  0.679200  0.632500  0.108800  1.0
  C  C504  1  0.320800  0.367500  0.108800  1.0
  C  C505  1  0.195300  0.104800  0.607600  1.0
  C  C506  1  0.804700  0.895200  0.607600  1.0
  C  C507  1  0.695300  0.604800  0.107600  1.0
  C  C508  1  0.304700  0.395200  0.107600  1.0
  C  C509  1  0.233600  0.112700  0.612000  1.0
  C  C510  1  0.766400  0.887300  0.612000  1.0
  C  C511  1  0.733600  0.612700  0.112000  1.0
  C  C512  1  0.266400  0.387300  0.112000  1.0
  C  C513  1  0.255800  0.148300  0.617600  1.0
  C  C514  1  0.744200  0.851700  0.617600  1.0
  C  C515  1  0.755800  0.648300  0.117600  1.0
  C  C516  1  0.244200  0.351700  0.117600  1.0
  C  C517  1  0.239900  0.176100  0.618800  1.0
  C  C518  1  0.760100  0.823900  0.618800  1.0
  C  C519  1  0.739900  0.676100  0.118800  1.0
  C  C520  1  0.260100  0.323900  0.118800  1.0
  C  C521  1  0.201500  0.168100  0.614400  1.0
  C  C522  1  0.798500  0.831900  0.614400  1.0
  C  C523  1  0.701500  0.668100  0.114400  1.0
  C  C524  1  0.298500  0.331900  0.114400  1.0
  C  C525  1  0.258600  0.212400  0.619400  1.0
  C  C526  1  0.741400  0.787600  0.619400  1.0
  C  C527  1  0.758600  0.712400  0.119400  1.0
  C  C528  1  0.241400  0.287600  0.119400  1.0
  C  C529  1  0.278500  0.243400  0.619000  1.0
  C  C530  1  0.721500  0.756600  0.619000  1.0
  C  C531  1  0.778500  0.743400  0.119000  1.0
  C  C532  1  0.221500  0.256600  0.119000  1.0
  C  C533  1  0.356900  0.333800  0.612900  1.0
  C  C534  1  0.643100  0.666200  0.612900  1.0
  C  C535  1  0.856900  0.833800  0.112900  1.0
  C  C536  1  0.143100  0.166200  0.112900  1.0
  C  C537  1  0.336000  0.296800  0.611700  1.0
  C  C538  1  0.664000  0.703200  0.611700  1.0
  C  C539  1  0.836000  0.796800  0.111700  1.0
  C  C540  1  0.164000  0.203200  0.111700  1.0
  C  C541  1  0.299900  0.284400  0.622000  1.0
  C  C542  1  0.700100  0.715600  0.622000  1.0
  C  C543  1  0.799900  0.784400  0.122000  1.0
  C  C544  1  0.200100  0.215600  0.122000  1.0
  C  C545  1  0.284500  0.309000  0.633500  1.0
  C  C546  1  0.715500  0.691000  0.633500  1.0
  C  C547  1  0.784500  0.809000  0.133500  1.0
  C  C548  1  0.215500  0.191000  0.133500  1.0
  C  C549  1  0.305400  0.346000  0.634600  1.0
  C  C550  1  0.694600  0.654000  0.634600  1.0
  C  C551  1  0.805400  0.846000  0.134600  1.0
  C  C552  1  0.194600  0.154000  0.134600  1.0
  C  C553  1  0.181200  0.201900  0.642400  1.0
  C  C554  1  0.818800  0.798100  0.642400  1.0
  C  C555  1  0.681200  0.701900  0.142400  1.0
  C  C556  1  0.318800  0.298100  0.142400  1.0
  C  C557  1  0.173200  0.239400  0.643700  1.0
  C  C558  1  0.826800  0.760600  0.643700  1.0
  C  C559  1  0.673200  0.739400  0.143700  1.0
  C  C560  1  0.326800  0.260600  0.143700  1.0
  C  C561  1  0.151000  0.252000  0.621000  1.0
  C  C562  1  0.849000  0.748000  0.621000  1.0
  C  C563  1  0.651000  0.752000  0.121000  1.0
  C  C564  1  0.349000  0.248000  0.121000  1.0
  C  C565  1  0.016700  0.144600  0.974000  1.0
  C  C566  1  0.983300  0.855400  0.974000  1.0
  C  C567  1  0.516700  0.644600  0.474000  1.0
  C  C568  1  0.483300  0.355400  0.474000  1.0
  C  C569  1  0.054700  0.148500  0.975300  1.0
  C  C570  1  0.945300  0.851500  0.975300  1.0
  C  C571  1  0.554700  0.648500  0.475300  1.0
  C  C572  1  0.445300  0.351500  0.475300  1.0
  C  C573  1  0.066200  0.117700  0.974900  1.0
  C  C574  1  0.933800  0.882300  0.974900  1.0
  C  C575  1  0.566200  0.617700  0.474900  1.0
  C  C576  1  0.433800  0.382300  0.474900  1.0
  C  C577  1  0.039600  0.083100  0.973100  1.0
  C  C578  1  0.960400  0.916900  0.973100  1.0
  C  C579  1  0.539600  0.583100  0.473100  1.0
  C  C580  1  0.460400  0.416900  0.473100  1.0
  C  C581  1  0.001600  0.079200  0.971800  1.0
  C  C582  1  0.998400  0.920800  0.971800  1.0
  C  C583  1  0.501600  0.579200  0.471800  1.0
  C  C584  1  0.498400  0.420800  0.471800  1.0
  C  C585  1  0.107500  0.124100  0.974700  1.0
  C  C586  1  0.892500  0.875900  0.974700  1.0
  C  C587  1  0.607500  0.624100  0.474700  1.0
  C  C588  1  0.392500  0.375900  0.474700  1.0
  C  C589  1  0.140900  0.129700  0.975200  1.0
  C  C590  1  0.859100  0.870300  0.975200  1.0
  C  C591  1  0.640900  0.629700  0.475200  1.0
  C  C592  1  0.359100  0.370300  0.475200  1.0
  C  C593  1  0.179400  0.134900  0.975800  1.0
  C  C594  1  0.820600  0.865100  0.975800  1.0
  C  C595  1  0.679400  0.634900  0.475800  1.0
  C  C596  1  0.320600  0.365100  0.475800  1.0
  C  C597  1  0.195000  0.108000  0.982000  1.0
  C  C598  1  0.805000  0.892000  0.982000  1.0
  C  C599  1  0.695000  0.608000  0.482000  1.0
  C  C600  1  0.305000  0.392000  0.482000  1.0
  C  C601  1  0.231200  0.116700  0.992300  1.0
  C  C602  1  0.768800  0.883300  0.992300  1.0
  C  C603  1  0.731200  0.616700  0.492300  1.0
  C  C604  1  0.268800  0.383300  0.492300  1.0
  C  C605  1  0.256800  0.150900  0.986000  1.0
  C  C606  1  0.743200  0.849100  0.986000  1.0
  C  C607  1  0.756800  0.650900  0.486000  1.0
  C  C608  1  0.243200  0.349100  0.486000  1.0
  C  C609  1  0.241300  0.178700  0.981600  1.0
  C  C610  1  0.758700  0.821300  0.981600  1.0
  C  C611  1  0.741300  0.678700  0.481600  1.0
  C  C612  1  0.258700  0.321300  0.481600  1.0
  C  C613  1  0.204600  0.170100  0.971100  1.0
  C  C614  1  0.795400  0.829900  0.971100  1.0
  C  C615  1  0.704600  0.670100  0.471100  1.0
  C  C616  1  0.295400  0.329900  0.471100  1.0
  C  C617  1  0.263800  0.212300  0.973500  1.0
  C  C618  1  0.736200  0.787700  0.973500  1.0
  C  C619  1  0.763800  0.712300  0.473500  1.0
  C  C620  1  0.236200  0.287700  0.473500  1.0
  C  C621  1  0.281900  0.244000  0.971900  1.0
  C  C622  1  0.718100  0.756000  0.971900  1.0
  C  C623  1  0.781900  0.744000  0.471900  1.0
  C  C624  1  0.218100  0.256000  0.471900  1.0
  C  C625  1  0.301300  0.346600  0.963500  1.0
  C  C626  1  0.698700  0.653400  0.963500  1.0
  C  C627  1  0.801300  0.846600  0.463500  1.0
  C  C628  1  0.198700  0.153400  0.463500  1.0
  C  C629  1  0.284400  0.308600  0.965200  1.0
  C  C630  1  0.715600  0.691400  0.965200  1.0
  C  C631  1  0.784400  0.808600  0.465200  1.0
  C  C632  1  0.215600  0.191400  0.465200  1.0
  C  C633  1  0.304600  0.284800  0.968900  1.0
  C  C634  1  0.695400  0.715200  0.968900  1.0
  C  C635  1  0.804600  0.784800  0.468900  1.0
  C  C636  1  0.195400  0.215200  0.468900  1.0
  C  C637  1  0.343700  0.299300  0.974200  1.0
  C  C638  1  0.656300  0.700700  0.974200  1.0
  C  C639  1  0.843700  0.799300  0.474200  1.0
  C  C640  1  0.156300  0.200700  0.474200  1.0
  C  C641  1  0.360300  0.336800  0.970700  1.0
  C  C642  1  0.639700  0.663200  0.970700  1.0
  C  C643  1  0.860300  0.836800  0.470700  1.0
  C  C644  1  0.139700  0.163200  0.470700  1.0
  C  C645  1  0.177900  0.207500  0.940900  1.0
  C  C646  1  0.822100  0.792500  0.940900  1.0
  C  C647  1  0.677900  0.707500  0.440900  1.0
  C  C648  1  0.322100  0.292500  0.440900  1.0
  C  C649  1  0.159000  0.237300  0.943800  1.0
  C  C650  1  0.841000  0.762700  0.943800  1.0
  C  C651  1  0.659000  0.737300  0.443800  1.0
  C  C652  1  0.341000  0.262700  0.443800  1.0
  C  C653  1  0.120000  0.241000  0.951700  1.0
  C  C654  1  0.880000  0.759000  0.951700  1.0
  C  C655  1  0.620000  0.741000  0.451700  1.0
  C  C656  1  0.380000  0.259000  0.451700  1.0
  C  C657  1  0.975600  0.426200  0.162800  1.0
  C  C658  1  0.024400  0.573800  0.162800  1.0
  C  C659  1  0.475600  0.926200  0.662800  1.0
  C  C660  1  0.524400  0.073800  0.662800  1.0
  C  C661  1  0.966200  0.388400  0.161200  1.0
  C  C662  1  0.033800  0.611600  0.161200  1.0
  C  C663  1  0.466200  0.888400  0.661200  1.0
  C  C664  1  0.533800  0.111600  0.661200  1.0
  C  C665  1  0.962100  0.371400  0.136900  1.0
  C  C666  1  0.037900  0.628600  0.136900  1.0
  C  C667  1  0.462100  0.871400  0.636900  1.0
  C  C668  1  0.537900  0.128600  0.636900  1.0
  C  C669  1  0.967300  0.392200  0.114200  1.0
  C  C670  1  0.032700  0.607800  0.114200  1.0
  C  C671  1  0.467300  0.892200  0.614200  1.0
  C  C672  1  0.532700  0.107800  0.614200  1.0
  C  C673  1  0.976700  0.430100  0.115800  1.0
  C  C674  1  0.023300  0.569900  0.115800  1.0
  C  C675  1  0.476700  0.930100  0.615800  1.0
  C  C676  1  0.523300  0.069900  0.615800  1.0
  C  C677  1  0.950400  0.330400  0.135900  1.0
  C  C678  1  0.049600  0.669600  0.135900  1.0
  C  C679  1  0.450400  0.830400  0.635900  1.0
  C  C680  1  0.549600  0.169600  0.635900  1.0
  C  C681  1  0.938000  0.298000  0.140100  1.0
  C  C682  1  0.062000  0.702000  0.140100  1.0
  C  C683  1  0.438000  0.798000  0.640100  1.0
  C  C684  1  0.562000  0.202000  0.640100  1.0
  C  C685  1  0.927800  0.259500  0.142200  1.0
  C  C686  1  0.072200  0.740500  0.142200  1.0
  C  C687  1  0.427800  0.759500  0.642200  1.0
  C  C688  1  0.572200  0.240500  0.642200  1.0
  C  C689  1  0.911300  0.240600  0.164600  1.0
  C  C690  1  0.088700  0.759400  0.164600  1.0
  C  C691  1  0.411300  0.740600  0.664600  1.0
  C  C692  1  0.588700  0.259400  0.664600  1.0
  C  C693  1  0.898900  0.202600  0.164800  1.0
  C  C694  1  0.101100  0.797400  0.164800  1.0
  C  C695  1  0.398900  0.702600  0.664800  1.0
  C  C696  1  0.601100  0.297400  0.664800  1.0
  C  C697  1  0.902800  0.183400  0.142600  1.0
  C  C698  1  0.097200  0.816600  0.142600  1.0
  C  C699  1  0.402800  0.683400  0.642600  1.0
  C  C700  1  0.597200  0.316600  0.642600  1.0
  C  C701  1  0.919300  0.202300  0.120200  1.0
  C  C702  1  0.080700  0.797700  0.120200  1.0
  C  C703  1  0.419300  0.702300  0.620200  1.0
  C  C704  1  0.580700  0.297700  0.620200  1.0
  C  C705  1  0.931800  0.240300  0.120000  1.0
  C  C706  1  0.068200  0.759700  0.120000  1.0
  C  C707  1  0.431800  0.740300  0.620000  1.0
  C  C708  1  0.568200  0.259700  0.620000  1.0
  C  C709  1  0.926000  0.187500  0.097500  1.0
  C  C710  1  0.074000  0.812500  0.097500  1.0
  C  C711  1  0.426000  0.687500  0.597500  1.0
  C  C712  1  0.574000  0.312500  0.597500  1.0
  C  C713  1  0.937200  0.178200  0.077900  1.0
  C  C714  1  0.062800  0.821800  0.077900  1.0
  C  C715  1  0.437200  0.678200  0.577900  1.0
  C  C716  1  0.562800  0.321800  0.577900  1.0
  C  C717  1  0.927000  0.158600  0.005000  1.0
  C  C718  1  0.073000  0.841400  0.005000  1.0
  C  C719  1  0.427000  0.658600  0.505000  1.0
  C  C720  1  0.573000  0.341400  0.505000  1.0
  C  C721  1  0.926800  0.173900  0.029500  1.0
  C  C722  1  0.073200  0.826100  0.029500  1.0
  C  C723  1  0.426800  0.673900  0.529500  1.0
  C  C724  1  0.573200  0.326100  0.529500  1.0
  C  C725  1  0.937400  0.158200  0.051400  1.0
  C  C726  1  0.062600  0.841800  0.051400  1.0
  C  C727  1  0.437400  0.658200  0.551400  1.0
  C  C728  1  0.562600  0.341800  0.551400  1.0
  C  C729  1  0.948100  0.127200  0.048700  1.0
  C  C730  1  0.051900  0.872800  0.048700  1.0
  C  C731  1  0.448100  0.627200  0.548700  1.0
  C  C732  1  0.551900  0.372800  0.548700  1.0
  C  C733  1  0.948400  0.111900  0.024100  1.0
  C  C734  1  0.051600  0.888100  0.024100  1.0
  C  C735  1  0.448400  0.611900  0.524100  1.0
  C  C736  1  0.551600  0.388100  0.524100  1.0
  C  C737  1  0.987000  0.277600  0.096500  1.0
  C  C738  1  0.013000  0.722400  0.096500  1.0
  C  C739  1  0.487000  0.777600  0.596500  1.0
  C  C740  1  0.513000  0.222400  0.596500  1.0
  C  C741  1  0.993800  0.301300  0.071500  1.0
  C  C742  1  0.006200  0.698700  0.071500  1.0
  C  C743  1  0.493800  0.801300  0.571500  1.0
  C  C744  1  0.506200  0.198700  0.571500  1.0
  C  C745  1  0.872700  0.123600  0.637700  1.0
  C  C746  1  0.127300  0.876400  0.637700  1.0
  C  C747  1  0.372700  0.623600  0.137700  1.0
  C  C748  1  0.627300  0.376400  0.137700  1.0
  C  C749  1  0.835400  0.122300  0.639300  1.0
  C  C750  1  0.164600  0.877700  0.639300  1.0
  C  C751  1  0.335400  0.622300  0.139300  1.0
  C  C752  1  0.664600  0.377700  0.139300  1.0
  C  C753  1  0.809200  0.101900  0.621300  1.0
  C  C754  1  0.190800  0.898100  0.621300  1.0
  C  C755  1  0.309200  0.601900  0.121300  1.0
  C  C756  1  0.690800  0.398100  0.121300  1.0
  C  C757  1  0.820400  0.082800  0.601700  1.0
  C  C758  1  0.179600  0.917200  0.601700  1.0
  C  C759  1  0.320400  0.582800  0.101700  1.0
  C  C760  1  0.679600  0.417200  0.101700  1.0
  C  C761  1  0.857800  0.084100  0.600000  1.0
  C  C762  1  0.142200  0.915900  0.600000  1.0
  C  C763  1  0.357800  0.584100  0.100000  1.0
  C  C764  1  0.642200  0.415900  0.100000  1.0
  C  C765  1  0.768900  0.099500  0.624000  1.0
  C  C766  1  0.231100  0.900500  0.624000  1.0
  C  C767  1  0.268900  0.599500  0.124000  1.0
  C  C768  1  0.731100  0.400500  0.124000  1.0
  C  C769  1  0.737300  0.098800  0.627600  1.0
  C  C770  1  0.262700  0.901200  0.627600  1.0
  C  C771  1  0.237300  0.598800  0.127600  1.0
  C  C772  1  0.762700  0.401200  0.127600  1.0
  C  C773  1  0.701300  0.102400  0.628700  1.0
  C  C774  1  0.298700  0.897600  0.628700  1.0
  C  C775  1  0.201300  0.602400  0.128700  1.0
  C  C776  1  0.798700  0.397600  0.128700  1.0
  C  C777  1  0.676700  0.093000  0.607600  1.0
  C  C778  1  0.323300  0.907000  0.607600  1.0
  C  C779  1  0.176700  0.593000  0.107600  1.0
  C  C780  1  0.823300  0.407000  0.107600  1.0
  C  C781  1  0.638500  0.087200  0.611300  1.0
  C  C782  1  0.361500  0.912800  0.611300  1.0
  C  C783  1  0.138500  0.587200  0.111300  1.0
  C  C784  1  0.861500  0.412800  0.111300  1.0
  C  C785  1  0.625100  0.091000  0.636000  1.0
  C  C786  1  0.374900  0.909000  0.636000  1.0
  C  C787  1  0.125100  0.591000  0.136000  1.0
  C  C788  1  0.874900  0.409000  0.136000  1.0
  C  C789  1  0.649600  0.100400  0.657100  1.0
  C  C790  1  0.350400  0.899600  0.657100  1.0
  C  C791  1  0.149600  0.600400  0.157100  1.0
  C  C792  1  0.850400  0.399600  0.157100  1.0
  C  C793  1  0.687700  0.106100  0.653400  1.0
  C  C794  1  0.312300  0.893900  0.653400  1.0
  C  C795  1  0.187700  0.606100  0.153400  1.0
  C  C796  1  0.812300  0.393900  0.153400  1.0
  C  C797  1  0.639000  0.101000  0.682500  1.0
  C  C798  1  0.361000  0.899000  0.682500  1.0
  C  C799  1  0.139000  0.601000  0.182500  1.0
  C  C800  1  0.861000  0.399000  0.182500  1.0
  C  C801  1  0.628400  0.109400  0.702600  1.0
  C  C802  1  0.371600  0.890600  0.702600  1.0
  C  C803  1  0.128400  0.609400  0.202600  1.0
  C  C804  1  0.871600  0.390600  0.202600  1.0
  C  C805  1  0.567600  0.118300  0.760200  1.0
  C  C806  1  0.432400  0.881700  0.760200  1.0
  C  C807  1  0.067600  0.618300  0.260200  1.0
  C  C808  1  0.932400  0.381700  0.260200  1.0
  C  C809  1  0.581200  0.106700  0.737300  1.0
  C  C810  1  0.418800  0.893300  0.737300  1.0
  C  C811  1  0.081200  0.606700  0.237300  1.0
  C  C812  1  0.918800  0.393300  0.237300  1.0
  C  C813  1  0.617300  0.125100  0.727800  1.0
  C  C814  1  0.382700  0.874900  0.727800  1.0
  C  C815  1  0.117300  0.625100  0.227800  1.0
  C  C816  1  0.882700  0.374900  0.227800  1.0
  C  C817  1  0.640500  0.154600  0.742000  1.0
  C  C818  1  0.359500  0.845400  0.742000  1.0
  C  C819  1  0.140500  0.654600  0.242000  1.0
  C  C820  1  0.859500  0.345400  0.242000  1.0
  C  C821  1  0.626800  0.166600  0.764200  1.0
  C  C822  1  0.373200  0.833400  0.764200  1.0
  C  C823  1  0.126800  0.666600  0.264200  1.0
  C  C824  1  0.873200  0.333400  0.264200  1.0
  C  C825  1  0.724100  0.137100  0.689000  1.0
  C  C826  1  0.275900  0.862900  0.689000  1.0
  C  C827  1  0.224100  0.637100  0.189000  1.0
  C  C828  1  0.775900  0.362900  0.189000  1.0
  C  C829  1  0.747300  0.139300  0.714300  1.0
  C  C830  1  0.252700  0.860700  0.714300  1.0
  C  C831  1  0.247300  0.639300  0.214300  1.0
  C  C832  1  0.752700  0.360700  0.214300  1.0
  C  C833  1  0.952600  0.097900  0.675700  1.0
  C  C834  1  0.047400  0.902100  0.675700  1.0
  C  C835  1  0.452600  0.597900  0.175700  1.0
  C  C836  1  0.547400  0.402100  0.175700  1.0
  C  C837  1  0.946800  0.079800  0.699100  1.0
  C  C838  1  0.053200  0.920200  0.699100  1.0
  C  C839  1  0.446800  0.579800  0.199100  1.0
  C  C840  1  0.553200  0.420200  0.199100  1.0
  C  C841  1  0.921500  0.044500  0.701700  1.0
  C  C842  1  0.078500  0.955500  0.701700  1.0
  C  C843  1  0.421500  0.544500  0.201700  1.0
  C  C844  1  0.578500  0.455500  0.201700  1.0
  C  C845  1  0.900900  0.026500  0.680200  1.0
  C  C846  1  0.099100  0.973500  0.680200  1.0
  C  C847  1  0.400900  0.526500  0.180200  1.0
  C  C848  1  0.599100  0.473500  0.180200  1.0
  C  C849  1  0.904500  0.047300  0.657300  1.0
  C  C850  1  0.095500  0.952700  0.657300  1.0
  C  C851  1  0.404500  0.547300  0.157300  1.0
  C  C852  1  0.595500  0.452700  0.157300  1.0
  C  C853  1  0.917100  0.027000  0.728000  1.0
  C  C854  1  0.082900  0.973000  0.728000  1.0
  C  C855  1  0.417100  0.527000  0.228000  1.0
  C  C856  1  0.582900  0.473000  0.228000  1.0
  C  C857  1  0.907700  0.014000  0.749100  1.0
  C  C858  1  0.092300  0.986000  0.749100  1.0
  C  C859  1  0.407700  0.514000  0.249100  1.0
  C  C860  1  0.592300  0.486000  0.249100  1.0
  C  C861  1  0.894000  0.994100  0.772100  1.0
  C  C862  1  0.106000  0.005900  0.772100  1.0
  C  C863  1  0.394000  0.494100  0.272100  1.0
  C  C864  1  0.606000  0.505900  0.272100  1.0
  C  C865  1  0.873600  0.957000  0.771500  1.0
  C  C866  1  0.126400  0.043000  0.771500  1.0
  C  C867  1  0.373600  0.457000  0.271500  1.0
  C  C868  1  0.626400  0.543000  0.271500  1.0
  C  C869  1  0.862900  0.937700  0.794700  1.0
  C  C870  1  0.137100  0.062300  0.794700  1.0
  C  C871  1  0.362900  0.437700  0.294700  1.0
  C  C872  1  0.637100  0.562300  0.294700  1.0
  C  C873  1  0.872800  0.955600  0.818600  1.0
  C  C874  1  0.127200  0.044400  0.818600  1.0
  C  C875  1  0.372800  0.455600  0.318600  1.0
  C  C876  1  0.627200  0.544400  0.318600  1.0
  C  C877  1  0.893200  0.992700  0.819100  1.0
  C  C878  1  0.106800  0.007300  0.819100  1.0
  C  C879  1  0.393200  0.492700  0.319100  1.0
  C  C880  1  0.606800  0.507300  0.319100  1.0
  C  C881  1  0.903800  0.012000  0.795900  1.0
  C  C882  1  0.096200  0.988000  0.795900  1.0
  C  C883  1  0.403800  0.512000  0.295900  1.0
  C  C884  1  0.596200  0.488000  0.295900  1.0
  C  C885  1  0.902600  0.013100  0.841200  1.0
  C  C886  1  0.097400  0.986900  0.841200  1.0
  C  C887  1  0.402600  0.513100  0.341200  1.0
  C  C888  1  0.597400  0.486900  0.341200  1.0
  C  C889  1  0.908800  0.028900  0.861600  1.0
  C  C890  1  0.091200  0.971100  0.861600  1.0
  C  C891  1  0.408800  0.528900  0.361600  1.0
  C  C892  1  0.591200  0.471100  0.361600  1.0
  C  C893  1  0.906400  0.046900  0.933800  1.0
  C  C894  1  0.093600  0.953100  0.933800  1.0
  C  C895  1  0.406400  0.546900  0.433800  1.0
  C  C896  1  0.593600  0.453100  0.433800  1.0
  C  C897  1  0.902100  0.029600  0.909600  1.0
  C  C898  1  0.097900  0.970400  0.909600  1.0
  C  C899  1  0.402100  0.529600  0.409600  1.0
  C  C900  1  0.597900  0.470400  0.409600  1.0
  C  C901  1  0.920100  0.048700  0.887700  1.0
  C  C902  1  0.079900  0.951300  0.887700  1.0
  C  C903  1  0.420100  0.548700  0.387700  1.0
  C  C904  1  0.579900  0.451300  0.387700  1.0
  C  C905  1  0.942400  0.085100  0.890000  1.0
  C  C906  1  0.057600  0.914900  0.890000  1.0
  C  C907  1  0.442400  0.585100  0.390000  1.0
  C  C908  1  0.557600  0.414900  0.390000  1.0
  C  C909  1  0.946800  0.102500  0.914200  1.0
  C  C910  1  0.053200  0.897500  0.914200  1.0
  C  C911  1  0.446800  0.602500  0.414200  1.0
  C  C912  1  0.553200  0.397500  0.414200  1.0
  C  C913  1  0.904800  0.072900  0.798200  1.0
  C  C914  1  0.095200  0.927100  0.798200  1.0
  C  C915  1  0.404800  0.572900  0.298200  1.0
  C  C916  1  0.595200  0.427100  0.298200  1.0
  C  C917  1  0.937400  0.110000  0.802100  1.0
  C  C918  1  0.062600  0.890000  0.802100  1.0
  C  C919  1  0.437400  0.610000  0.302100  1.0
  C  C920  1  0.562600  0.390000  0.302100  1.0
  C  C921  1  0.960500  0.121600  0.828000  1.0
  C  C922  1  0.039500  0.878400  0.828000  1.0
  C  C923  1  0.460500  0.621600  0.328000  1.0
  C  C924  1  0.539500  0.378400  0.328000  1.0
  C  C925  1  0.517400  0.180800  0.847000  1.0
  C  C926  1  0.482600  0.819200  0.847000  1.0
  C  C927  1  0.017400  0.680800  0.347000  1.0
  C  C928  1  0.982600  0.319200  0.347000  1.0
  C  C929  1  0.508100  0.203200  0.865100  1.0
  C  C930  1  0.491900  0.796800  0.865100  1.0
  C  C931  1  0.008100  0.703200  0.365100  1.0
  C  C932  1  0.991900  0.296800  0.365100  1.0
  C  C933  1  0.527200  0.240600  0.865300  1.0
  C  C934  1  0.472800  0.759400  0.865300  1.0
  C  C935  1  0.027200  0.740600  0.365300  1.0
  C  C936  1  0.972800  0.259400  0.365300  1.0
  C  C937  1  0.555700  0.255600  0.847300  1.0
  C  C938  1  0.444300  0.744400  0.847300  1.0
  C  C939  1  0.055700  0.755600  0.347300  1.0
  C  C940  1  0.944300  0.244400  0.347300  1.0
  C  C941  1  0.565100  0.233300  0.829200  1.0
  C  C942  1  0.434900  0.766700  0.829200  1.0
  C  C943  1  0.065100  0.733300  0.329200  1.0
  C  C944  1  0.934900  0.266700  0.329200  1.0
  C  C945  1  0.516400  0.264600  0.885000  1.0
  C  C946  1  0.483600  0.735400  0.885000  1.0
  C  C947  1  0.016400  0.764600  0.385000  1.0
  C  C948  1  0.983600  0.235400  0.385000  1.0
  C  C949  1  0.505000  0.276000  0.904200  1.0
  C  C950  1  0.495000  0.724000  0.904200  1.0
  C  C951  1  0.005000  0.776000  0.404200  1.0
  C  C952  1  0.995000  0.224000  0.404200  1.0
  C  C953  1  0.501100  0.291200  0.928800  1.0
  C  C954  1  0.498900  0.708800  0.928800  1.0
  C  C955  1  0.001100  0.791200  0.428800  1.0
  C  C956  1  0.998900  0.208800  0.428800  1.0
  C  C957  1  0.480600  0.272700  0.949900  1.0
  C  C958  1  0.519400  0.727300  0.949900  1.0
  C  C959  1  0.980600  0.772700  0.449900  1.0
  C  C960  1  0.019400  0.227300  0.449900  1.0
  C  C961  1  0.480800  0.290300  0.973900  1.0
  C  C962  1  0.519200  0.709700  0.973900  1.0
  C  C963  1  0.980800  0.790300  0.473900  1.0
  C  C964  1  0.019200  0.209700  0.473900  1.0
  C  C965  1  0.497300  0.327900  0.975600  1.0
  C  C966  1  0.502700  0.672100  0.975600  1.0
  C  C967  1  0.997300  0.827900  0.475600  1.0
  C  C968  1  0.002700  0.172100  0.475600  1.0
  C  C969  1  0.518700  0.346900  0.954700  1.0
  C  C970  1  0.481300  0.653100  0.954700  1.0
  C  C971  1  0.018700  0.846900  0.454700  1.0
  C  C972  1  0.981300  0.153100  0.454700  1.0
  C  C973  1  0.521600  0.327900  0.932200  1.0
  C  C974  1  0.478400  0.672100  0.932200  1.0
  C  C975  1  0.021600  0.827900  0.432200  1.0
  C  C976  1  0.978400  0.172100  0.432200  1.0
  C  C977  1  0.537400  0.383700  0.952800  1.0
  C  C978  1  0.462600  0.616300  0.952800  1.0
  C  C979  1  0.037400  0.883700  0.452800  1.0
  C  C980  1  0.962600  0.116300  0.452800  1.0
  C  C981  1  0.553500  0.415800  0.951500  1.0
  C  C982  1  0.446500  0.584200  0.951500  1.0
  C  C983  1  0.053500  0.915800  0.451500  1.0
  C  C984  1  0.946500  0.084200  0.451500  1.0
  C  C985  1  0.548800  0.365700  0.892200  1.0
  C  C986  1  0.451200  0.634300  0.892200  1.0
  C  C987  1  0.048800  0.865700  0.392200  1.0
  C  C988  1  0.951200  0.134300  0.392200  1.0
  C  C989  1  0.592200  0.385800  0.892400  1.0
  C  C990  1  0.407800  0.614200  0.892400  1.0
  C  C991  1  0.092200  0.885800  0.392400  1.0
  C  C992  1  0.907800  0.114200  0.392400  1.0
  C  C993  1  0.623000  0.375000  0.876800  1.0
  C  C994  1  0.377000  0.625000  0.876800  1.0
  C  C995  1  0.123000  0.875000  0.376800  1.0
  C  C996  1  0.877000  0.125000  0.376800  1.0
  C  C997  1  0.427600  0.483400  0.620800  1.0
  C  C998  1  0.572400  0.516600  0.620800  1.0
  C  C999  1  0.927600  0.983400  0.120800  1.0
  C  C1000  1  0.072400  0.016600  0.120800  1.0
  C  C1001  1  0.445300  0.520300  0.626000  1.0
  C  C1002  1  0.554700  0.479700  0.626000  1.0
  C  C1003  1  0.945300  0.020300  0.126000  1.0
  C  C1004  1  0.054700  0.979700  0.126000  1.0
  C  C1005  1  0.430500  0.538000  0.644700  1.0
  C  C1006  1  0.569500  0.462000  0.644700  1.0
  C  C1007  1  0.930500  0.038000  0.144700  1.0
  C  C1008  1  0.069500  0.962000  0.144700  1.0
  C  C1009  1  0.397900  0.518600  0.658100  1.0
  C  C1010  1  0.602100  0.481400  0.658100  1.0
  C  C1011  1  0.897900  0.018600  0.158100  1.0
  C  C1012  1  0.102100  0.981400  0.158100  1.0
  C  C1013  1  0.380200  0.481700  0.652900  1.0
  C  C1014  1  0.619800  0.518300  0.652900  1.0
  C  C1015  1  0.880200  0.981700  0.152900  1.0
  C  C1016  1  0.119800  0.018300  0.152900  1.0
  C  C1017  1  0.446500  0.578600  0.647200  1.0
  C  C1018  1  0.553500  0.421400  0.647200  1.0
  C  C1019  1  0.946500  0.078600  0.147200  1.0
  C  C1020  1  0.053500  0.921400  0.147200  1.0
  C  C1021  1  0.465800  0.608900  0.653100  1.0
  C  C1022  1  0.534200  0.391100  0.653100  1.0
  C  C1023  1  0.965800  0.108900  0.153100  1.0
  C  C1024  1  0.034200  0.891100  0.153100  1.0
  C  C1025  1  0.486600  0.646500  0.652100  1.0
  C  C1026  1  0.513400  0.353500  0.652100  1.0
  C  C1027  1  0.986600  0.146500  0.152100  1.0
  C  C1028  1  0.013400  0.853500  0.152100  1.0
  C  C1029  1  0.515600  0.662400  0.634600  1.0
  C  C1030  1  0.484400  0.337600  0.634600  1.0
  C  C1031  1  0.015600  0.162400  0.134600  1.0
  C  C1032  1  0.984400  0.837600  0.134600  1.0
  C  C1033  1  0.537800  0.698800  0.637700  1.0
  C  C1034  1  0.462200  0.301200  0.637700  1.0
  C  C1035  1  0.037800  0.198800  0.137700  1.0
  C  C1036  1  0.962200  0.801200  0.137700  1.0
  C  C1037  1  0.530800  0.719200  0.658300  1.0
  C  C1038  1  0.469200  0.280800  0.658300  1.0
  C  C1039  1  0.030800  0.219200  0.158300  1.0
  C  C1040  1  0.969200  0.780800  0.158300  1.0
  C  C1041  1  0.501800  0.703300  0.675700  1.0
  C  C1042  1  0.498200  0.296700  0.675700  1.0
  C  C1043  1  0.001800  0.203300  0.175700  1.0
  C  C1044  1  0.998200  0.796700  0.175700  1.0
  C  C1045  1  0.479600  0.666900  0.672600  1.0
  C  C1046  1  0.520400  0.333100  0.672600  1.0
  C  C1047  1  0.979600  0.166900  0.172600  1.0
  C  C1048  1  0.020400  0.833100  0.172600  1.0
  C  C1049  1  0.443800  0.629600  0.711100  1.0
  C  C1050  1  0.556200  0.370400  0.711100  1.0
  C  C1051  1  0.943800  0.129600  0.211100  1.0
  C  C1052  1  0.056200  0.870400  0.211100  1.0
  C  C1053  1  0.400600  0.613600  0.715100  1.0
  C  C1054  1  0.599400  0.386400  0.715100  1.0
  C  C1055  1  0.900600  0.113600  0.215100  1.0
  C  C1056  1  0.099400  0.886400  0.215100  1.0
  C  C1057  1  0.374000  0.584700  0.695300  1.0
  C  C1058  1  0.626000  0.415300  0.695300  1.0
  C  C1059  1  0.874000  0.084700  0.195300  1.0
  C  C1060  1  0.126000  0.915300  0.195300  1.0
  C  C1061  1  0.345300  0.620400  0.706800  1.0
  C  C1062  1  0.654700  0.379600  0.706800  1.0
  C  C1063  1  0.845300  0.120400  0.206800  1.0
  C  C1064  1  0.154700  0.879600  0.206800  1.0
  C  C1065  1  0.390600  0.416700  0.683700  1.0
  C  C1066  1  0.609400  0.583300  0.683700  1.0
  C  C1067  1  0.890600  0.916700  0.183700  1.0
  C  C1068  1  0.109400  0.083300  0.183700  1.0
  C  C1069  1  0.401500  0.402700  0.706000  1.0
  C  C1070  1  0.598500  0.597300  0.706000  1.0
  C  C1071  1  0.901500  0.902700  0.206000  1.0
  C  C1072  1  0.098500  0.097300  0.206000  1.0
  C  C1073  1  0.422700  0.379200  0.703900  1.0
  C  C1074  1  0.577300  0.620800  0.703900  1.0
  C  C1075  1  0.922700  0.879200  0.203900  1.0
  C  C1076  1  0.077300  0.120800  0.203900  1.0
  C  C1077  1  0.437000  0.375000  0.679300  1.0
  C  C1078  1  0.563000  0.625000  0.679300  1.0
  C  C1079  1  0.937000  0.875000  0.179300  1.0
  C  C1080  1  0.063000  0.125000  0.179300  1.0
  C  C1081  1  0.425700  0.389500  0.657100  1.0
  C  C1082  1  0.574300  0.610500  0.657100  1.0
  C  C1083  1  0.925700  0.889500  0.157100  1.0
  C  C1084  1  0.074300  0.110500  0.157100  1.0
  C  C1085  1  0.435600  0.364600  0.728100  1.0
  C  C1086  1  0.564400  0.635400  0.728100  1.0
  C  C1087  1  0.935600  0.864600  0.228100  1.0
  C  C1088  1  0.064400  0.135400  0.228100  1.0
  C  C1089  1  0.444200  0.350900  0.747300  1.0
  C  C1090  1  0.555800  0.649100  0.747300  1.0
  C  C1091  1  0.944200  0.850900  0.247300  1.0
  C  C1092  1  0.055800  0.149100  0.247300  1.0
  C  C1093  1  0.456600  0.338500  0.770700  1.0
  C  C1094  1  0.543400  0.661500  0.770700  1.0
  C  C1095  1  0.956600  0.838500  0.270700  1.0
  C  C1096  1  0.043400  0.161500  0.270700  1.0
  C  C1097  1  0.477900  0.315200  0.770400  1.0
  C  C1098  1  0.522100  0.684800  0.770400  1.0
  C  C1099  1  0.977900  0.815200  0.270400  1.0
  C  C1100  1  0.022100  0.184800  0.270400  1.0
  C  C1101  1  0.493000  0.305300  0.793100  1.0
  C  C1102  1  0.507000  0.694700  0.793100  1.0
  C  C1103  1  0.993000  0.805300  0.293100  1.0
  C  C1104  1  0.007000  0.194700  0.293100  1.0
  C  C1105  1  0.476900  0.310000  0.816800  1.0
  C  C1106  1  0.523100  0.690000  0.816800  1.0
  C  C1107  1  0.976900  0.810000  0.316800  1.0
  C  C1108  1  0.023100  0.190000  0.316800  1.0
  C  C1109  1  0.451900  0.329900  0.817700  1.0
  C  C1110  1  0.548100  0.670100  0.817700  1.0
  C  C1111  1  0.951900  0.829900  0.317700  1.0
  C  C1112  1  0.048100  0.170100  0.317700  1.0
  C  C1113  1  0.442600  0.345300  0.795000  1.0
  C  C1114  1  0.557400  0.654700  0.795000  1.0
  C  C1115  1  0.942600  0.845300  0.295000  1.0
  C  C1116  1  0.057400  0.154700  0.295000  1.0
  C  C1117  1  0.440100  0.341000  0.840500  1.0
  C  C1118  1  0.559900  0.659000  0.840500  1.0
  C  C1119  1  0.940100  0.841000  0.340500  1.0
  C  C1120  1  0.059900  0.159000  0.340500  1.0
  C  C1121  1  0.428800  0.351800  0.859400  1.0
  C  C1122  1  0.571200  0.648200  0.859400  1.0
  C  C1123  1  0.928800  0.851800  0.359400  1.0
  C  C1124  1  0.071200  0.148200  0.359400  1.0
  C  C1125  1  0.410400  0.375400  0.929100  1.0
  C  C1126  1  0.589600  0.624600  0.929100  1.0
  C  C1127  1  0.910400  0.875400  0.429100  1.0
  C  C1128  1  0.089600  0.124600  0.429100  1.0
  C  C1129  1  0.423100  0.361100  0.907300  1.0
  C  C1130  1  0.576900  0.638900  0.907300  1.0
  C  C1131  1  0.923100  0.861100  0.407300  1.0
  C  C1132  1  0.076900  0.138900  0.407300  1.0
  C  C1133  1  0.410700  0.366500  0.882400  1.0
  C  C1134  1  0.589300  0.633500  0.882400  1.0
  C  C1135  1  0.910700  0.866500  0.382400  1.0
  C  C1136  1  0.089300  0.133500  0.382400  1.0
  C  C1137  1  0.384900  0.385300  0.880500  1.0
  C  C1138  1  0.615100  0.614700  0.880500  1.0
  C  C1139  1  0.884900  0.885300  0.380500  1.0
  C  C1140  1  0.115100  0.114700  0.380500  1.0
  C  C1141  1  0.374000  0.400700  0.902400  1.0
  C  C1142  1  0.626000  0.599300  0.902400  1.0
  C  C1143  1  0.874000  0.900700  0.402400  1.0
  C  C1144  1  0.126000  0.099300  0.402400  1.0
  C  C1145  1  0.374600  0.344400  0.790200  1.0
  C  C1146  1  0.625400  0.655600  0.790200  1.0
  C  C1147  1  0.874600  0.844400  0.290200  1.0
  C  C1148  1  0.125400  0.155600  0.290200  1.0
  C  C1149  1  0.360700  0.377300  0.784500  1.0
  C  C1150  1  0.639300  0.622700  0.784500  1.0
  C  C1151  1  0.860700  0.877300  0.284500  1.0
  C  C1152  1  0.139300  0.122700  0.284500  1.0
  C  C1153  1  0.355000  0.405000  0.806000  1.0
  C  C1154  1  0.645000  0.595000  0.806000  1.0
  C  C1155  1  0.855000  0.905000  0.306000  1.0
  C  C1156  1  0.145000  0.095000  0.306000  1.0
  C  C1157  1  0.927900  0.499900  0.160400  1.0
  C  C1158  1  0.072100  0.500100  0.160400  1.0
  C  C1159  1  0.427900  0.999900  0.660400  1.0
  C  C1160  1  0.572100  0.000100  0.660400  1.0
  C  C1161  1  0.889900  0.496000  0.159200  1.0
  C  C1162  1  0.110100  0.504000  0.159200  1.0
  C  C1163  1  0.389900  0.996000  0.659200  1.0
  C  C1164  1  0.610100  0.004000  0.659200  1.0
  C  C1165  1  0.873500  0.496100  0.134900  1.0
  C  C1166  1  0.126500  0.503900  0.134900  1.0
  C  C1167  1  0.373500  0.996100  0.634900  1.0
  C  C1168  1  0.626500  0.003900  0.634900  1.0
  C  C1169  1  0.895100  0.499900  0.112300  1.0
  C  C1170  1  0.104900  0.500100  0.112300  1.0
  C  C1171  1  0.395100  0.999900  0.612300  1.0
  C  C1172  1  0.604900  0.000100  0.612300  1.0
  C  C1173  1  0.933600  0.504400  0.114000  1.0
  C  C1174  1  0.066400  0.495600  0.114000  1.0
  C  C1175  1  0.433600  0.004400  0.614000  1.0
  C  C1176  1  0.566400  0.995600  0.614000  1.0
  C  C1177  1  0.832100  0.490100  0.133900  1.0
  C  C1178  1  0.167900  0.509900  0.133900  1.0
  C  C1179  1  0.332100  0.990100  0.633900  1.0
  C  C1180  1  0.667900  0.009900  0.633900  1.0
  C  C1181  1  0.801000  0.492400  0.135300  1.0
  C  C1182  1  0.199000  0.507600  0.135300  1.0
  C  C1183  1  0.301000  0.992400  0.635300  1.0
  C  C1184  1  0.699000  0.007600  0.635300  1.0
  C  C1185  1  0.306300  0.433200  0.991000  1.0
  C  C1186  1  0.693700  0.566800  0.991000  1.0
  C  C1187  1  0.806300  0.933200  0.491000  1.0
  C  C1188  1  0.193700  0.066800  0.491000  1.0
  C  C1189  1  0.289700  0.440700  0.013600  1.0
  C  C1190  1  0.710300  0.559300  0.013600  1.0
  C  C1191  1  0.789700  0.940700  0.513600  1.0
  C  C1192  1  0.210300  0.059300  0.513600  1.0
  C  C1193  1  0.307000  0.441200  0.037700  1.0
  C  C1194  1  0.693000  0.558800  0.037700  1.0
  C  C1195  1  0.807000  0.941200  0.537700  1.0
  C  C1196  1  0.193000  0.058800  0.537700  1.0
  C  C1197  1  0.340900  0.434200  0.039200  1.0
  C  C1198  1  0.659100  0.565800  0.039200  1.0
  C  C1199  1  0.840900  0.934200  0.539200  1.0
  C  C1200  1  0.159100  0.065800  0.539200  1.0
  C  C1201  1  0.357600  0.426700  0.016600  1.0
  C  C1202  1  0.642400  0.573300  0.016600  1.0
  C  C1203  1  0.857600  0.926700  0.516600  1.0
  C  C1204  1  0.142400  0.073300  0.516600  1.0
  C  C1205  1  0.293000  0.458100  0.058600  1.0
  C  C1206  1  0.707000  0.541900  0.058600  1.0
  C  C1207  1  0.793000  0.958100  0.558600  1.0
  C  C1208  1  0.207000  0.041900  0.558600  1.0
  C  C1209  1  0.293300  0.476600  0.077900  1.0
  C  C1210  1  0.706700  0.523400  0.077900  1.0
  C  C1211  1  0.793300  0.976600  0.577900  1.0
  C  C1212  1  0.206700  0.023400  0.577900  1.0
  C  C1213  1  0.280500  0.486900  0.102800  1.0
  C  C1214  1  0.719500  0.513100  0.102800  1.0
  C  C1215  1  0.780500  0.986900  0.602800  1.0
  C  C1216  1  0.219500  0.013100  0.602800  1.0
  C  C1217  1  0.306300  0.495000  0.123200  1.0
  C  C1218  1  0.693700  0.505000  0.123200  1.0
  C  C1219  1  0.806300  0.995000  0.623200  1.0
  C  C1220  1  0.193700  0.005000  0.623200  1.0
  C  C1221  1  0.296900  0.506900  0.147000  1.0
  C  C1222  1  0.703100  0.493100  0.147000  1.0
  C  C1223  1  0.796900  0.006900  0.647000  1.0
  C  C1224  1  0.203100  0.993100  0.647000  1.0
  C  C1225  1  0.261700  0.510700  0.150500  1.0
  C  C1226  1  0.738300  0.489300  0.150500  1.0
  C  C1227  1  0.761700  0.010700  0.650500  1.0
  C  C1228  1  0.238300  0.989300  0.650500  1.0
  C  C1229  1  0.764100  0.497400  0.130200  1.0
  C  C1230  1  0.235900  0.502600  0.130200  1.0
  C  C1231  1  0.264100  0.997400  0.630200  1.0
  C  C1232  1  0.735900  0.002600  0.630200  1.0
  C  C1233  1  0.245200  0.490700  0.106300  1.0
  C  C1234  1  0.754800  0.509300  0.106300  1.0
  C  C1235  1  0.745200  0.990700  0.606300  1.0
  C  C1236  1  0.254800  0.009300  0.606300  1.0
  C  C1237  1  0.223900  0.510900  0.061500  1.0
  C  C1238  1  0.776100  0.489100  0.061500  1.0
  C  C1239  1  0.723900  0.010900  0.561500  1.0
  C  C1240  1  0.276100  0.989100  0.561500  1.0
  C  C1241  1  0.188800  0.497800  0.042800  1.0
  C  C1242  1  0.811200  0.502200  0.042800  1.0
  C  C1243  1  0.688800  0.997800  0.542800  1.0
  C  C1244  1  0.311200  0.002200  0.542800  1.0
  C  C1245  1  0.190000  0.480000  0.015100  1.0
  C  C1246  1  0.810000  0.520000  0.015100  1.0
  C  C1247  1  0.690000  0.980000  0.515100  1.0
  C  C1248  1  0.310000  0.020000  0.515100  1.0
  C  C1249  1  0.160400  0.541000  0.051000  1.0
  C  C1250  1  0.839600  0.459000  0.051000  1.0
  C  C1251  1  0.660400  0.041000  0.551000  1.0
  C  C1252  1  0.339600  0.959000  0.551000  1.0
  C  C1253  1  0.578000  0.233600  0.759000  1.0
  C  C1254  1  0.422000  0.766400  0.759000  1.0
  C  C1255  1  0.078000  0.733600  0.259000  1.0
  C  C1256  1  0.922000  0.266400  0.259000  1.0
  C  C1257  1  0.564800  0.251900  0.739700  1.0
  C  C1258  1  0.435200  0.748100  0.739700  1.0
  C  C1259  1  0.064800  0.751900  0.239700  1.0
  C  C1260  1  0.935200  0.248100  0.239700  1.0
  C  C1261  1  0.527200  0.240200  0.732700  1.0
  C  C1262  1  0.472800  0.759800  0.732700  1.0
  C  C1263  1  0.027200  0.740200  0.232700  1.0
  C  C1264  1  0.972800  0.259800  0.232700  1.0
  C  C1265  1  0.501100  0.211300  0.746000  1.0
  C  C1266  1  0.498900  0.788700  0.746000  1.0
  C  C1267  1  0.001100  0.711300  0.246000  1.0
  C  C1268  1  0.998900  0.288700  0.246000  1.0
  C  C1269  1  0.515500  0.191100  0.763100  1.0
  C  C1270  1  0.484500  0.808900  0.763100  1.0
  C  C1271  1  0.015500  0.691100  0.263100  1.0
  C  C1272  1  0.984500  0.308900  0.263100  1.0
  C  C1273  1  0.515400  0.259400  0.710500  1.0
  C  C1274  1  0.484600  0.740600  0.710500  1.0
  C  C1275  1  0.015400  0.759400  0.210500  1.0
  C  C1276  1  0.984600  0.240600  0.210500  1.0
  C  C1277  1  0.492000  0.726000  0.691800  1.0
  C  C1278  1  0.508000  0.274000  0.691800  1.0
  C  C1279  1  0.992000  0.226000  0.191800  1.0
  C  C1280  1  0.008000  0.774000  0.191800  1.0
  C  C1281  1  0.381900  0.487500  0.939100  1.0
  C  C1282  1  0.618100  0.512500  0.939100  1.0
  C  C1283  1  0.881900  0.987500  0.439100  1.0
  C  C1284  1  0.118100  0.012500  0.439100  1.0
  C  C1285  1  0.399900  0.525100  0.936500  1.0
  C  C1286  1  0.600100  0.474900  0.936500  1.0
  C  C1287  1  0.899900  0.025100  0.436500  1.0
  C  C1288  1  0.100100  0.974900  0.436500  1.0
  C  C1289  1  0.571200  0.456900  0.952900  1.0
  C  C1290  1  0.428800  0.543100  0.952900  1.0
  C  C1291  1  0.071200  0.956900  0.452900  1.0
  C  C1292  1  0.928800  0.043100  0.452900  1.0
  C  C1293  1  0.557100  0.477100  0.970300  1.0
  C  C1294  1  0.442900  0.522900  0.970300  1.0
  C  C1295  1  0.057100  0.977100  0.470300  1.0
  C  C1296  1  0.942900  0.022900  0.470300  1.0
  C  C1297  1  0.423400  0.485700  0.974100  1.0
  C  C1298  1  0.576600  0.514300  0.974100  1.0
  C  C1299  1  0.923400  0.985700  0.474100  1.0
  C  C1300  1  0.076600  0.014300  0.474100  1.0
  S  S1301  1  0.588700  0.502700  0.493300  1
  S  S1302  1  0.411300  0.497300  0.493300  1
  S  S1303  1  0.088700  0.002700  0.993300  1
  S  S1304  1  0.911300  0.997300  0.993300  1
  S  S1305  1  0.586000  0.500500  0.093700  1
  S  S1306  1  0.414000  0.499500  0.093700  1
  S  S1307  1  0.086000  0.000500  0.593700  1
  S  S1308  1  0.914000  0.999500  0.593700  1
  S  S1309  1  0.460800  0.404400  0.010100  1
  S  S1310  1  0.539200  0.595600  0.010100  1
  S  S1311  1  0.960800  0.904400  0.510100  1
  S  S1312  1  0.039200  0.095600  0.510100  1
  S  S1313  1  0.459100  0.397700  0.584100  1
  S  S1314  1  0.540900  0.602300  0.584100  1
  S  S1315  1  0.959100  0.897700  0.084100  1
  S  S1316  1  0.040900  0.102300  0.084100  1
  S  S1317  1  0.964400  0.213900  0.639200  1
  S  S1318  1  0.035600  0.786100  0.639200  1
  S  S1319  1  0.464400  0.713900  0.139200  1
  S  S1320  1  0.535600  0.286100  0.139200  1
  S  S1321  1  0.269900  0.411600  0.676900  1
  S  S1322  1  0.730100  0.588400  0.676900  1
  S  S1323  1  0.769900  0.911600  0.176900  1
  S  S1324  1  0.230100  0.088400  0.176900  1
  S  S1325  1  1.000000  0.500000  0.524800  1
  S  S1326  1  0.500000  0.000000  0.024800  1
  S  S1327  1  0.955900  0.190000  0.932800  1
  S  S1328  1  0.044100  0.810000  0.932800  1
  S  S1329  1  0.455900  0.690000  0.432800  1
  S  S1330  1  0.544100  0.310000  0.432800  1
  S  S1331  1  0.647900  0.236200  0.788200  1
  S  S1332  1  0.352100  0.763800  0.788200  1
  S  S1333  1  0.147900  0.736200  0.288200  1
  S  S1334  1  0.852100  0.263800  0.288200  1
  S  S1335  1  0.527600  0.900000  0.801100  1
  S  S1336  1  0.472400  0.100000  0.801100  1
  S  S1337  1  0.027600  0.400000  0.301100  1
  S  S1338  1  0.972400  0.600000  0.301100  1
  N  N1339  1  0.975000  0.963000  0.775000  1
  N  N1340  1  0.025000  0.037000  0.775000  1
  N  N1341  1  0.475000  0.463000  0.275000  1
  N  N1342  1  0.525000  0.537000  0.275000  1
  N  N1343  1  0.390700  0.396900  0.660200  1
  N  N1344  1  0.609300  0.603100  0.660200  1
  N  N1345  1  0.890700  0.896900  0.160200  1
  N  N1346  1  0.109300  0.103100  0.160200  1
  N  N1347  1  0.394200  0.403200  0.928900  1
  N  N1348  1  0.605800  0.596800  0.928900  1
  N  N1349  1  0.894200  0.903200  0.428900  1
  N  N1350  1  0.105800  0.096800  0.428900  1
  N  N1351  1  0.345000  0.388000  0.809000  1
  N  N1352  1  0.655000  0.612000  0.809000  1
  N  N1353  1  0.845000  0.888000  0.309000  1
  N  N1354  1  0.155000  0.112000  0.309000  1
  N  N1355  1  0.881600  0.096900  0.966800  1.0
  N  N1356  1  0.118400  0.903100  0.966800  1.0
  N  N1357  1  0.381600  0.596900  0.466800  1.0
  N  N1358  1  0.618400  0.403100  0.466800  1.0
  N  N1359  1  0.588400  0.145800  0.828500  1.0
  N  N1360  1  0.411600  0.854200  0.828500  1.0
  N  N1361  1  0.088400  0.645800  0.328500  1.0
  N  N1362  1  0.911600  0.354200  0.328500  1.0
  N  N1363  1  0.736200  0.086100  0.862200  1.0
  N  N1364  1  0.263800  0.913900  0.862200  1.0
  N  N1365  1  0.236200  0.586100  0.362200  1.0
  N  N1366  1  0.763800  0.413900  0.362200  1.0
  N  N1367  1  0.054500  0.499000  0.445600  1.0
  N  N1368  1  0.945500  0.501000  0.445600  1.0
  N  N1369  1  0.554500  0.999000  0.945600  1.0
  N  N1370  1  0.445500  0.001000  0.945600  1.0
  N  N1371  1  0.343400  0.419700  0.598900  1.0
  N  N1372  1  0.656600  0.580300  0.598900  1.0
  N  N1373  1  0.843400  0.919700  0.098900  1.0
  N  N1374  1  0.156600  0.080300  0.098900  1.0
  N  N1375  1  0.981700  0.440800  0.440900  1.0
  N  N1376  1  0.018300  0.559200  0.440900  1.0
  N  N1377  1  0.481700  0.940800  0.940900  1.0
  N  N1378  1  0.518300  0.059200  0.940900  1.0
  N  N1379  1  0.940900  0.130900  0.581100  1.0
  N  N1380  1  0.059100  0.869100  0.581100  1.0
  N  N1381  1  0.440900  0.630900  0.081100  1.0
  N  N1382  1  0.559100  0.369100  0.081100  1.0
  N  N1383  1  0.990400  0.107500  0.616200  1.0
  N  N1384  1  0.009600  0.892500  0.616200  1.0
  N  N1385  1  0.490400  0.607500  0.116200  1.0
  N  N1386  1  0.509600  0.392500  0.116200  1.0
  N  N1387  1  0.341600  0.358400  0.624300  1.0
  N  N1388  1  0.658400  0.641600  0.624300  1.0
  N  N1389  1  0.841600  0.858400  0.124300  1.0
  N  N1390  1  0.158400  0.141600  0.124300  1.0
  N  N1391  1  0.211000  0.267000  0.638000  1.0
  N  N1392  1  0.789000  0.733000  0.638000  1.0
  N  N1393  1  0.711000  0.767000  0.138000  1.0
  N  N1394  1  0.289000  0.233000  0.138000  1.0
  N  N1395  1  0.990100  0.109900  0.972300  1.0
  N  N1396  1  0.009900  0.890100  0.972300  1.0
  N  N1397  1  0.490100  0.609900  0.472300  1.0
  N  N1398  1  0.509900  0.390100  0.472300  1.0
  N  N1399  1  0.339700  0.359800  0.965000  1.0
  N  N1400  1  0.660300  0.640200  0.965000  1.0
  N  N1401  1  0.839700  0.859800  0.465000  1.0
  N  N1402  1  0.160300  0.140200  0.465000  1.0
  N  N1403  1  0.161400  0.253800  0.916900  1.0
  N  N1404  1  0.838600  0.746200  0.916900  1.0
  N  N1405  1  0.661400  0.753800  0.416900  1.0
  N  N1406  1  0.338600  0.246200  0.416900  1.0
  N  N1407  1  0.980800  0.447000  0.140100  1.0
  N  N1408  1  0.019200  0.553000  0.140100  1.0
  N  N1409  1  0.480800  0.947000  0.640100  1.0
  N  N1410  1  0.519200  0.053000  0.640100  1.0
  N  N1411  1  0.937800  0.127600  0.002300  1.0
  N  N1412  1  0.062200  0.872400  0.002300  1.0
  N  N1413  1  0.437800  0.627600  0.502300  1.0
  N  N1414  1  0.562200  0.372400  0.502300  1.0
  N  N1415  1  0.035400  0.317400  0.069700  1.0
  N  N1416  1  0.964600  0.682600  0.069700  1.0
  N  N1417  1  0.535400  0.817400  0.569700  1.0
  N  N1418  1  0.464600  0.182600  0.569700  1.0
  N  N1419  1  0.883900  0.104500  0.618000  1.0
  N  N1420  1  0.116100  0.895500  0.618000  1.0
  N  N1421  1  0.383900  0.604500  0.118000  1.0
  N  N1422  1  0.616100  0.395500  0.118000  1.0
  N  N1423  1  0.590800  0.148300  0.773600  1.0
  N  N1424  1  0.409200  0.851700  0.773600  1.0
  N  N1425  1  0.090800  0.648300  0.273600  1.0
  N  N1426  1  0.909200  0.351700  0.273600  1.0
  N  N1427  1  0.931400  0.081600  0.654300  1.0
  N  N1428  1  0.068600  0.918400  0.654300  1.0
  N  N1429  1  0.431400  0.581600  0.154300  1.0
  N  N1430  1  0.568600  0.418400  0.154300  1.0
  N  N1431  1  0.928700  0.083300  0.936100  1.0
  N  N1432  1  0.071300  0.916700  0.936100  1.0
  N  N1433  1  0.428700  0.583300  0.436100  1.0
  N  N1434  1  0.571300  0.416700  0.436100  1.0
  N  N1435  1  0.918300  0.138700  0.801900  1.0
  N  N1436  1  0.081700  0.861300  0.801900  1.0
  N  N1437  1  0.418300  0.638700  0.301900  1.0
  N  N1438  1  0.581700  0.361300  0.301900  1.0
  N  N1439  1  0.546000  0.195900  0.829000  1.0
  N  N1440  1  0.454000  0.804100  0.829000  1.0
  N  N1441  1  0.046000  0.695900  0.329000  1.0
  N  N1442  1  0.954000  0.304100  0.329000  1.0
  N  N1443  1  0.601000  0.373000  0.918800  1.0
  N  N1444  1  0.399000  0.627000  0.918800  1.0
  N  N1445  1  0.101000  0.873000  0.418800  1.0
  N  N1446  1  0.899000  0.127000  0.418800  1.0
  N  N1447  1  0.395100  0.464100  0.634300  1.0
  N  N1448  1  0.604900  0.535900  0.634300  1.0
  N  N1449  1  0.895100  0.964100  0.134300  1.0
  N  N1450  1  0.104900  0.035900  0.134300  1.0
  N  N1451  1  0.384000  0.643200  0.709000  1.0
  N  N1452  1  0.616000  0.356800  0.709000  1.0
  N  N1453  1  0.884000  0.143200  0.209000  1.0
  N  N1454  1  0.116000  0.856800  0.209000  1.0
  N  N1455  1  0.400800  0.409800  0.658900  1.0
  N  N1456  1  0.599200  0.590200  0.658900  1.0
  N  N1457  1  0.900800  0.909800  0.158900  1.0
  N  N1458  1  0.099200  0.090200  0.158900  1.0
  N  N1459  1  0.385200  0.395200  0.927500  1.0
  N  N1460  1  0.614800  0.604800  0.927500  1.0
  N  N1461  1  0.885200  0.895200  0.427500  1.0
  N  N1462  1  0.114800  0.104800  0.427500  1.0
  N  N1463  1  0.320000  0.361000  0.777300  1.0
  N  N1464  1  0.680000  0.639000  0.777300  1.0
  N  N1465  1  0.820000  0.861000  0.277300  1.0
  N  N1466  1  0.180000  0.139000  0.277300  1.0
  N  N1467  1  0.948100  0.499000  0.138000  1.0
  N  N1468  1  0.051900  0.501000  0.138000  1.0
  N  N1469  1  0.448100  0.999000  0.638000  1.0
  N  N1470  1  0.551900  0.001000  0.638000  1.0
  N  N1471  1  0.340300  0.426200  0.992500  1.0
  N  N1472  1  0.659700  0.573800  0.992500  1.0
  N  N1473  1  0.840300  0.926200  0.492500  1.0
  N  N1474  1  0.159700  0.073800  0.492500  1.0
  N  N1475  1  0.185800  0.533400  0.032300  1.0
  N  N1476  1  0.814200  0.466600  0.032300  1.0
  N  N1477  1  0.685800  0.033400  0.532300  1.0
  N  N1478  1  0.314200  0.966600  0.532300  1.0
  N  N1479  1  0.553100  0.203200  0.771000  1.0
  N  N1480  1  0.446900  0.796800  0.771000  1.0
  N  N1481  1  0.053100  0.703200  0.271000  1.0
  N  N1482  1  0.946900  0.296800  0.271000  1.0
  N  N1483  1  0.395500  0.467400  0.956700  1.0
  N  N1484  1  0.604500  0.532600  0.956700  1.0
  N  N1485  1  0.895500  0.967400  0.456700  1.0
  N  N1486  1  0.104500  0.032600  0.456700  1.0
  O  O1487  1  0.849000  0.145000  0.798000  1
  O  O1488  1  0.151000  0.855000  0.798000  1
  O  O1489  1  0.349000  0.645000  0.298000  1
  O  O1490  1  0.651000  0.355000  0.298000  1
  O  O1491  1  0.802000  0.083000  0.432000  1
  O  O1492  1  0.198000  0.917000  0.432000  1
  O  O1493  1  0.302000  0.583000  0.932000  1
  O  O1494  1  0.698000  0.417000  0.932000  1
  O  O1495  1  0.624600  0.533700  0.492900  1
  O  O1496  1  0.375400  0.466300  0.492900  1
  O  O1497  1  0.124600  0.033700  0.992900  1
  O  O1498  1  0.875400  0.966300  0.992900  1
  O  O1499  1  0.562900  0.502300  0.472100  1
  O  O1500  1  0.437100  0.497700  0.472100  1
  O  O1501  1  0.062900  0.002300  0.972100  1
  O  O1502  1  0.937100  0.997700  0.972100  1
  O  O1503  1  0.594600  0.469400  0.494300  1
  O  O1504  1  0.405400  0.530600  0.494300  1
  O  O1505  1  0.094600  0.969400  0.994300  1
  O  O1506  1  0.905400  0.030600  0.994300  1
  O  O1507  1  0.590200  0.464100  0.092000  1
  O  O1508  1  0.409800  0.535900  0.092000  1
  O  O1509  1  0.090200  0.964100  0.592000  1
  O  O1510  1  0.909800  0.035900  0.592000  1
  O  O1511  1  0.563700  0.505300  0.116000  1
  O  O1512  1  0.436300  0.494700  0.116000  1
  O  O1513  1  0.063700  0.005300  0.616000  1
  O  O1514  1  0.936300  0.994700  0.616000  1
  O  O1515  1  0.617800  0.531100  0.094400  1
  O  O1516  1  0.382200  0.468900  0.094400  1
  O  O1517  1  0.117800  0.031100  0.594400  1
  O  O1518  1  0.882200  0.968900  0.594400  1
  O  O1519  1  0.501000  0.405300  0.005700  1
  O  O1520  1  0.499000  0.594700  0.005700  1
  O  O1521  1  0.001000  0.905300  0.505700  1
  O  O1522  1  0.999000  0.094700  0.505700  1
  O  O1523  1  0.463700  0.443300  0.015700  1
  O  O1524  1  0.536300  0.556700  0.015700  1
  O  O1525  1  0.963700  0.943300  0.515700  1
  O  O1526  1  0.036300  0.056700  0.515700  1
  O  O1527  1  0.433300  0.392500  0.992200  1
  O  O1528  1  0.566700  0.607500  0.992200  1
  O  O1529  1  0.933300  0.892500  0.492200  1
  O  O1530  1  0.066700  0.107500  0.492200  1
  O  O1531  1  0.429000  0.409700  0.594000  1
  O  O1532  1  0.571000  0.590300  0.594000  1
  O  O1533  1  0.929000  0.909700  0.094000  1
  O  O1534  1  0.071000  0.090300  0.094000  1
  O  O1535  1  0.489700  0.400300  0.602800  1
  O  O1536  1  0.510300  0.599700  0.602800  1
  O  O1537  1  0.989700  0.900300  0.102800  1
  O  O1538  1  0.010300  0.099700  0.102800  1
  O  O1539  1  0.452200  0.362600  0.574300  1
  O  O1540  1  0.547800  0.637400  0.574300  1
  O  O1541  1  0.952200  0.862600  0.074300  1
  O  O1542  1  0.047800  0.137400  0.074300  1
  O  O1543  1  0.000000  0.500000  0.996800  1
  O  O1544  1  0.500000  0.000000  0.496800  1
  O  O1545  1  0.828900  0.903300  0.874000  1
  O  O1546  1  0.171100  0.096700  0.874000  1
  O  O1547  1  0.328900  0.403300  0.374000  1
  O  O1548  1  0.671100  0.596700  0.374000  1
  O  O1549  1  0.876400  0.928400  0.919800  1
  O  O1550  1  0.123600  0.071600  0.919800  1
  O  O1551  1  0.376400  0.428400  0.419800  1
  O  O1552  1  0.623600  0.571600  0.419800  1
  O  O1553  1  0.500000  0.500000  0.804000  1
  O  O1554  1  0.000000  0.000000  0.304000  1
  O  O1555  1  0.366000  0.490000  0.722800  1
  O  O1556  1  0.634000  0.510000  0.722800  1
  O  O1557  1  0.866000  0.990000  0.222800  1
  O  O1558  1  0.134000  0.010000  0.222800  1
  O  O1559  1  0.087200  0.229200  0.004700  1
  O  O1560  1  0.912800  0.770800  0.004700  1
  O  O1561  1  0.587200  0.729200  0.504700  1
  O  O1562  1  0.412800  0.270800  0.504700  1
  O  O1563  1  0.943900  0.145700  0.744000  1
  O  O1564  1  0.056100  0.854300  0.744000  1
  O  O1565  1  0.443900  0.645700  0.244000  1
  O  O1566  1  0.556100  0.354300  0.244000  1
  O  O1567  1  0.389000  0.094000  0.998100  1
  O  O1568  1  0.611000  0.906000  0.998100  1
  O  O1569  1  0.889000  0.594000  0.498100  1
  O  O1570  1  0.111000  0.406000  0.498100  1
  O  O1571  1  0.179000  0.417000  0.166000  1
  O  O1572  1  0.821000  0.583000  0.166000  1
  O  O1573  1  0.679000  0.917000  0.666000  1
  O  O1574  1  0.321000  0.083000  0.666000  1
  O  O1575  1  0.393000  0.244000  0.603300  1
  O  O1576  1  0.607000  0.756000  0.603300  1
  O  O1577  1  0.893000  0.744000  0.103300  1
  O  O1578  1  0.107000  0.256000  0.103300  1
  O  O1579  1  0.411000  0.015000  0.089000  1
  O  O1580  1  0.589000  0.985000  0.089000  1
  O  O1581  1  0.911000  0.515000  0.589000  1
  O  O1582  1  0.089000  0.485000  0.589000  1
  O  O1583  1  0.793000  0.029000  0.752300  1
  O  O1584  1  0.207000  0.971000  0.752300  1
  O  O1585  1  0.293000  0.529000  0.252300  1
  O  O1586  1  0.707000  0.471000  0.252300  1
  O  O1587  1  0.172000  0.159000  0.840400  1
  O  O1588  1  0.828000  0.841000  0.840400  1
  O  O1589  1  0.672000  0.659000  0.340400  1
  O  O1590  1  0.328000  0.341000  0.340400  1
  O  O1591  1  0.691000  0.325000  0.001200  1
  O  O1592  1  0.309000  0.675000  0.001200  1
  O  O1593  1  0.191000  0.825000  0.501200  1
  O  O1594  1  0.809000  0.175000  0.501200  1
  O  O1595  1  0.854600  0.093600  0.495100  1
  O  O1596  1  0.145400  0.906400  0.495100  1
  O  O1597  1  0.354600  0.593600  0.995100  1
  O  O1598  1  0.645400  0.406400  0.995100  1
  O  O1599  1  0.612900  0.332000  0.801500  1
  O  O1600  1  0.387100  0.668000  0.801500  1
  O  O1601  1  0.112900  0.832000  0.301500  1
  O  O1602  1  0.887100  0.168000  0.301500  1
  O  O1603  1  0.027000  0.119000  0.870000  1
  O  O1604  1  0.973000  0.881000  0.870000  1
  O  O1605  1  0.527000  0.619000  0.370000  1
  O  O1606  1  0.473000  0.381000  0.370000  1
  O  O1607  1  0.025000  0.177000  0.885300  1
  O  O1608  1  0.975000  0.823000  0.885300  1
  O  O1609  1  0.525000  0.677000  0.385300  1
  O  O1610  1  0.475000  0.323000  0.385300  1
  O  O1611  1  0.529000  0.534000  0.176600  1
  O  O1612  1  0.471000  0.466000  0.176600  1
  O  O1613  1  0.029000  0.034000  0.676600  1
  O  O1614  1  0.971000  0.966000  0.676600  1
  O  O1615  1  0.866500  0.087500  0.536300  1
  O  O1616  1  0.133500  0.912500  0.536300  1
  O  O1617  1  0.366500  0.587500  0.036300  1
  O  O1618  1  0.633500  0.412500  0.036300  1
  O  O1619  1  0.276100  0.429600  0.914200  1
  O  O1620  1  0.723900  0.570400  0.914200  1
  O  O1621  1  0.776100  0.929600  0.414200  1
  O  O1622  1  0.223900  0.070400  0.414200  1
  O  O1623  1  0.684400  0.568400  0.201900  1
  O  O1624  1  0.315600  0.431600  0.201900  1
  O  O1625  1  0.184400  0.068400  0.701900  1
  O  O1626  1  0.815600  0.931600  0.701900  1
  O  O1627  1  0.687900  0.476200  0.214000  1
  O  O1628  1  0.312100  0.523800  0.214000  1
  O  O1629  1  0.187900  0.976200  0.714000  1
  O  O1630  1  0.812100  0.023800  0.714000  1
  O  O1631  1  0.880000  0.145000  0.699400  1
  O  O1632  1  0.120000  0.855000  0.699400  1
  O  O1633  1  0.380000  0.645000  0.199400  1
  O  O1634  1  0.620000  0.355000  0.199400  1
  O  O1635  1  0.297600  0.335600  0.040000  1
  O  O1636  1  0.702400  0.664400  0.040000  1
  O  O1637  1  0.797600  0.835600  0.540000  1
  O  O1638  1  0.202400  0.164400  0.540000  1
  O  O1639  1  0.166000  0.166000  0.048000  1
  O  O1640  1  0.834000  0.834000  0.048000  1
  O  O1641  1  0.666000  0.666000  0.548000  1
  O  O1642  1  0.334000  0.334000  0.548000  1
  O  O1643  1  0.036000  0.246000  0.963900  1
  O  O1644  1  0.964000  0.754000  0.963900  1
  O  O1645  1  0.536000  0.746000  0.463900  1
  O  O1646  1  0.464000  0.254000  0.463900  1
  O  O1647  1  0.196000  0.373000  0.598000  1
  O  O1648  1  0.804000  0.627000  0.598000  1
  O  O1649  1  0.696000  0.873000  0.098000  1
  O  O1650  1  0.304000  0.127000  0.098000  1
  O  O1651  1  0.652300  0.982300  0.868400  1
  O  O1652  1  0.347700  0.017700  0.868400  1
  O  O1653  1  0.152300  0.482300  0.368400  1
  O  O1654  1  0.847700  0.517700  0.368400  1
  O  O1655  1  0.655800  0.254800  0.872800  1
  O  O1656  1  0.344200  0.745200  0.872800  1
  O  O1657  1  0.155800  0.754800  0.372800  1
  O  O1658  1  0.844200  0.245200  0.372800  1
  O  O1659  1  0.068000  0.378000  0.167900  1
  O  O1660  1  0.932000  0.622000  0.167900  1
  O  O1661  1  0.568000  0.878000  0.667900  1
  O  O1662  1  0.432000  0.122000  0.667900  1
  O  O1663  1  0.810600  0.186400  0.914600  1
  O  O1664  1  0.189400  0.813600  0.914600  1
  O  O1665  1  0.310600  0.686400  0.414600  1
  O  O1666  1  0.689400  0.313600  0.414600  1
  O  O1667  1  0.745000  0.168000  0.054000  1
  O  O1668  1  0.255000  0.832000  0.054000  1
  O  O1669  1  0.245000  0.668000  0.554000  1
  O  O1670  1  0.755000  0.332000  0.554000  1
  O  O1671  1  0.377300  0.219500  0.990300  1
  O  O1672  1  0.622700  0.780500  0.990300  1
  O  O1673  1  0.877300  0.719500  0.490300  1
  O  O1674  1  0.122700  0.280500  0.490300  1
  O  O1675  1  0.247000  0.299000  0.042000  1
  O  O1676  1  0.753000  0.701000  0.042000  1
  O  O1677  1  0.747000  0.799000  0.542000  1
  O  O1678  1  0.253000  0.201000  0.542000  1
  O  O1679  1  0.744000  0.161000  0.011000  1
  O  O1680  1  0.256000  0.839000  0.011000  1
  O  O1681  1  0.244000  0.661000  0.511000  1
  O  O1682  1  0.756000  0.339000  0.511000  1
  O  O1683  1  0.090000  0.300000  0.360600  1
  O  O1684  1  0.910000  0.700000  0.360600  1
  O  O1685  1  0.590000  0.800000  0.860600  1
  O  O1686  1  0.410000  0.200000  0.860600  1
  O  O1687  1  0.031000  0.330000  0.409600  1
  O  O1688  1  0.969000  0.670000  0.409600  1
  O  O1689  1  0.531000  0.830000  0.909600  1
  O  O1690  1  0.469000  0.170000  0.909600  1
  O  O1691  1  0.637000  0.172000  0.953000  1
  O  O1692  1  0.363000  0.828000  0.953000  1
  O  O1693  1  0.137000  0.672000  0.453000  1
  O  O1694  1  0.863000  0.328000  0.453000  1
  O  O1695  1  0.279000  0.232000  0.803000  1
  O  O1696  1  0.721000  0.768000  0.803000  1
  O  O1697  1  0.779000  0.732000  0.303000  1
  O  O1698  1  0.221000  0.268000  0.303000  1
  O  O1699  1  0.829000  0.181000  0.814900  1
  O  O1700  1  0.171000  0.819000  0.814900  1
  O  O1701  1  0.329000  0.681000  0.314900  1
  O  O1702  1  0.671000  0.319000  0.314900  1
  O  O1703  1  0.712000  0.259000  0.706000  1
  O  O1704  1  0.288000  0.741000  0.706000  1
  O  O1705  1  0.212000  0.759000  0.206000  1
  O  O1706  1  0.788000  0.241000  0.206000  1
  O  O1707  1  0.916100  0.251400  0.588000  1
  O  O1708  1  0.083900  0.748600  0.588000  1
  O  O1709  1  0.416100  0.751400  0.088000  1
  O  O1710  1  0.583900  0.248600  0.088000  1
  O  O1711  1  0.642000  0.447700  0.603500  1
  O  O1712  1  0.358000  0.552300  0.603500  1
  O  O1713  1  0.142000  0.947700  0.103500  1
  O  O1714  1  0.858000  0.052300  0.103500  1
  O  O1715  1  0.648100  0.424700  0.555100  1
  O  O1716  1  0.351900  0.575300  0.555100  1
  O  O1717  1  0.148100  0.924700  0.055100  1
  O  O1718  1  0.851900  0.075300  0.055100  1
  O  O1719  1  0.096200  0.187400  0.704600  1
  O  O1720  1  0.903800  0.812600  0.704600  1
  O  O1721  1  0.596200  0.687400  0.204600  1
  O  O1722  1  0.403800  0.312600  0.204600  1
  O  O1723  1  0.053500  0.126500  0.714100  1
  O  O1724  1  0.946500  0.873500  0.714100  1
  O  O1725  1  0.553500  0.626500  0.214100  1
  O  O1726  1  0.446500  0.373500  0.214100  1
  O  O1727  1  0.000000  0.000000  0.922700  1
  O  O1728  1  0.500000  0.500000  0.422700  1
  O  O1729  1  0.000000  0.000000  0.870600  1
  O  O1730  1  0.500000  0.500000  0.370600  1
  O  O1731  1  0.439500  0.390200  0.799400  1
  O  O1732  1  0.560500  0.609800  0.799400  1
  O  O1733  1  0.939500  0.890200  0.299400  1
  O  O1734  1  0.060500  0.109800  0.299400  1
  O  O1735  1  0.978900  0.219900  0.611400  1
  O  O1736  1  0.021100  0.780100  0.611400  1
  O  O1737  1  0.478900  0.719900  0.111400  1
  O  O1738  1  0.521100  0.280100  0.111400  1
  O  O1739  1  0.966000  0.178800  0.648800  1
  O  O1740  1  0.034000  0.821200  0.648800  1
  O  O1741  1  0.466000  0.678800  0.148800  1
  O  O1742  1  0.534000  0.321200  0.148800  1
  O  O1743  1  0.927300  0.211000  0.641800  1
  O  O1744  1  0.072700  0.789000  0.641800  1
  O  O1745  1  0.427300  0.711000  0.141800  1
  O  O1746  1  0.572700  0.289000  0.141800  1
  O  O1747  1  0.302800  0.420900  0.661700  1
  O  O1748  1  0.697200  0.579100  0.661700  1
  O  O1749  1  0.802800  0.920900  0.161700  1
  O  O1750  1  0.197200  0.079100  0.161700  1
  O  O1751  1  0.281500  0.449500  0.669000  1
  O  O1752  1  0.718500  0.550500  0.669000  1
  O  O1753  1  0.781500  0.949500  0.169000  1
  O  O1754  1  0.218500  0.050500  0.169000  1
  O  O1755  1  1.000000  0.500000  0.493900  1
  O  O1756  1  0.500000  0.000000  0.993900  1
  O  O1757  1  0.969000  0.228000  0.922000  1
  O  O1758  1  0.031000  0.772000  0.922000  1
  O  O1759  1  0.469000  0.728000  0.422000  1
  O  O1760  1  0.531000  0.272000  0.422000  1
  O  O1761  1  0.690100  0.253400  0.791300  1
  O  O1762  1  0.309900  0.746600  0.791300  1
  O  O1763  1  0.190100  0.753400  0.291300  1
  O  O1764  1  0.809900  0.246600  0.291300  1
  O  O1765  1  0.527700  0.016300  0.710700  1
  O  O1766  1  0.472300  0.983700  0.710700  1
  O  O1767  1  0.027700  0.516300  0.210700  1
  O  O1768  1  0.972300  0.483700  0.210700  1
  O  O1769  1  0.666900  0.560700  0.172800  1
  O  O1770  1  0.333100  0.439300  0.172800  1
  O  O1771  1  0.166900  0.060700  0.672800  1
  O  O1772  1  0.833100  0.939300  0.672800  1
  O  O1773  1  0.171000  0.209000  0.035000  1
  O  O1774  1  0.829000  0.791000  0.035000  1
  O  O1775  1  0.671000  0.709000  0.535000  1
  O  O1776  1  0.329000  0.291000  0.535000  1
  O  O1777  1  0.789100  0.161100  0.801700  1
  O  O1778  1  0.210900  0.838900  0.801700  1
  O  O1779  1  0.289100  0.661100  0.301700  1
  O  O1780  1  0.710900  0.338900  0.301700  1
  O  O1781  1  0.508500  0.954200  0.735800  1
  O  O1782  1  0.491500  0.045800  0.735800  1
  O  O1783  1  0.008500  0.454200  0.235800  1
  O  O1784  1  0.991500  0.545800  0.235800  1
  O  O1785  1  0.706000  0.108300  0.926200  1.0
  O  O1786  1  0.294000  0.891700  0.926200  1.0
  O  O1787  1  0.206000  0.608300  0.426200  1.0
  O  O1788  1  0.794000  0.391700  0.426200  1.0
  O  O1789  1  0.691200  0.059200  0.908500  1.0
  O  O1790  1  0.308800  0.940800  0.908500  1.0
  O  O1791  1  0.191200  0.559200  0.408500  1.0
  O  O1792  1  0.808800  0.440800  0.408500  1.0
  O  O1793  1  0.785900  0.075800  0.891300  1.0
  O  O1794  1  0.214100  0.924200  0.891300  1.0
  O  O1795  1  0.285900  0.575800  0.391300  1.0
  O  O1796  1  0.714100  0.424200  0.391300  1.0
  O  O1797  1  0.780800  0.063400  0.850900  1.0
  O  O1798  1  0.219200  0.936600  0.850900  1.0
  O  O1799  1  0.280800  0.563400  0.350900  1.0
  O  O1800  1  0.719200  0.436600  0.350900  1.0
  O  O1801  1  0.217900  0.473600  0.503100  1.0
  O  O1802  1  0.782100  0.526400  0.503100  1.0
  O  O1803  1  0.717900  0.973600  0.003100  1.0
  O  O1804  1  0.282100  0.026400  0.003100  1.0
  O  O1805  1  0.239600  0.517600  0.526600  1.0
  O  O1806  1  0.760400  0.482400  0.526600  1.0
  O  O1807  1  0.739600  0.017600  0.026600  1.0
  O  O1808  1  0.260400  0.982400  0.026600  1.0
  O  O1809  1  0.945700  0.254900  0.481200  1.0
  O  O1810  1  0.054300  0.745100  0.481200  1.0
  O  O1811  1  0.445700  0.754900  0.981200  1.0
  O  O1812  1  0.554300  0.245100  0.981200  1.0
  O  O1813  1  0.897400  0.254400  0.498000  1.0
  O  O1814  1  0.102600  0.745600  0.498000  1.0
  O  O1815  1  0.397400  0.754400  0.998000  1.0
  O  O1816  1  0.602600  0.245600  0.998000  1.0
  O  O1817  1  0.185900  0.194900  0.618400  1.0
  O  O1818  1  0.814100  0.805100  0.618400  1.0
  O  O1819  1  0.685900  0.694900  0.118400  1.0
  O  O1820  1  0.314100  0.305100  0.118400  1.0
  O  O1821  1  0.182900  0.185200  0.662000  1.0
  O  O1822  1  0.817100  0.814800  0.662000  1.0
  O  O1823  1  0.682900  0.685200  0.162000  1.0
  O  O1824  1  0.317100  0.314800  0.162000  1.0
  O  O1825  1  0.188600  0.197600  0.964400  1.0
  O  O1826  1  0.811400  0.802400  0.964400  1.0
  O  O1827  1  0.688600  0.697600  0.464400  1.0
  O  O1828  1  0.311400  0.302400  0.464400  1.0
  O  O1829  1  0.185400  0.191000  0.924300  1.0
  O  O1830  1  0.814600  0.809000  0.924300  1.0
  O  O1831  1  0.685400  0.691000  0.424300  1.0
  O  O1832  1  0.314600  0.309000  0.424300  1.0
  O  O1833  1  0.950600  0.265100  0.102500  1.0
  O  O1834  1  0.049400  0.734900  0.102500  1.0
  O  O1835  1  0.450600  0.765100  0.602500  1.0
  O  O1836  1  0.549400  0.234900  0.602500  1.0
  O  O1837  1  0.002800  0.266200  0.111800  1.0
  O  O1838  1  0.997200  0.733800  0.111800  1.0
  O  O1839  1  0.502800  0.766200  0.611800  1.0
  O  O1840  1  0.497200  0.233800  0.611800  1.0
  O  O1841  1  0.712100  0.103400  0.679100  1.0
  O  O1842  1  0.287900  0.896600  0.679100  1.0
  O  O1843  1  0.212100  0.603400  0.179100  1.0
  O  O1844  1  0.787900  0.396600  0.179100  1.0
  O  O1845  1  0.712800  0.155500  0.676000  1.0
  O  O1846  1  0.287200  0.844500  0.676000  1.0
  O  O1847  1  0.212800  0.655500  0.176000  1.0
  O  O1848  1  0.787200  0.344500  0.176000  1.0
  O  O1849  1  0.924400  0.047000  0.795700  1.0
  O  O1850  1  0.075600  0.953000  0.795700  1.0
  O  O1851  1  0.424400  0.547000  0.295700  1.0
  O  O1852  1  0.575600  0.453000  0.295700  1.0
  O  O1853  1  0.871200  0.060500  0.796100  1.0
  O  O1854  1  0.128800  0.939500  0.796100  1.0
  O  O1855  1  0.371200  0.560500  0.296100  1.0
  O  O1856  1  0.628800  0.439500  0.296100  1.0
  O  O1857  1  0.543500  0.340900  0.911500  1.0
  O  O1858  1  0.456500  0.659100  0.911500  1.0
  O  O1859  1  0.043500  0.840900  0.411500  1.0
  O  O1860  1  0.956500  0.159100  0.411500  1.0
  O  O1861  1  0.520400  0.365000  0.883500  1.0
  O  O1862  1  0.479600  0.635000  0.883500  1.0
  O  O1863  1  0.020400  0.865000  0.383500  1.0
  O  O1864  1  0.979600  0.135000  0.383500  1.0
  O  O1865  1  0.450100  0.649300  0.689000  1.0
  O  O1866  1  0.549900  0.350700  0.689000  1.0
  O  O1867  1  0.950100  0.149300  0.189000  1.0
  O  O1868  1  0.049900  0.850700  0.189000  1.0
  O  O1869  1  0.411600  0.355400  0.795200  1.0
  O  O1870  1  0.588400  0.644600  0.795200  1.0
  O  O1871  1  0.911600  0.855400  0.295200  1.0
  O  O1872  1  0.088400  0.144600  0.295200  1.0
  O  O1873  1  0.364900  0.312900  0.791000  1.0
  O  O1874  1  0.635100  0.687100  0.791000  1.0
  O  O1875  1  0.864900  0.812900  0.291000  1.0
  O  O1876  1  0.135100  0.187100  0.291000  1.0
  O  O1877  1  0.221300  0.486700  0.081200  1.0
  O  O1878  1  0.778700  0.513300  0.081200  1.0
  O  O1879  1  0.721300  0.986700  0.581200  1.0
  O  O1880  1  0.278700  0.013300  0.581200  1.0
  O  O1881  1  0.246300  0.538600  0.066100  1.0
  O  O1882  1  0.753700  0.461400  0.066100  1.0
  O  O1883  1  0.746300  0.038600  0.566100  1.0
  O  O1884  1  0.253700  0.961400  0.566100  1.0
  O  O1885  1  0.348000  0.420000  0.837000  1.0
  O  O1886  1  0.652000  0.580000  0.837000  1.0
  O  O1887  1  0.848000  0.920000  0.337000  1.0
  O  O1888  1  0.152000  0.080000  0.337000  1.0
  F  F1889  1  0.583500  0.502000  0.544400  1
  F  F1890  1  0.416500  0.498000  0.544400  1
  F  F1891  1  0.083500  0.002000  0.044400  1
  F  F1892  1  0.916500  0.998000  0.044400  1
  F  F1893  1  0.568700  0.541000  0.524200  1
  F  F1894  1  0.431300  0.459000  0.524200  1
  F  F1895  1  0.068700  0.041000  0.024200  1
  F  F1896  1  0.931300  0.959000  0.024200  1
  F  F1897  1  0.532700  0.484700  0.522800  1
  F  F1898  1  0.467300  0.515300  0.522800  1
  F  F1899  1  0.032700  0.984700  0.022800  1
  F  F1900  1  0.967300  0.015300  0.022800  1
  F  F1901  1  0.577400  0.507600  0.044400  1
  F  F1902  1  0.422600  0.492400  0.044400  1
  F  F1903  1  0.077400  0.007600  0.544400  1
  F  F1904  1  0.922600  0.992400  0.544400  1
  F  F1905  1  0.533500  0.471100  0.066000  1
  F  F1906  1  0.466500  0.528900  0.066000  1
  F  F1907  1  0.033500  0.971100  0.566000  1
  F  F1908  1  0.966500  0.028900  0.566000  1
  F  F1909  1  0.544300  0.529100  0.069700  1
  F  F1910  1  0.455700  0.470900  0.069700  1
  F  F1911  1  0.044300  0.029100  0.569700  1
  F  F1912  1  0.955700  0.970900  0.569700  1
  F  F1913  1  0.449500  0.348300  0.039600  1
  F  F1914  1  0.550500  0.651700  0.039600  1
  F  F1915  1  0.949500  0.848300  0.539600  1
  F  F1916  1  0.050500  0.151700  0.539600  1
  F  F1917  1  0.472900  0.397700  0.056600  1
  F  F1918  1  0.527100  0.602300  0.056600  1
  F  F1919  1  0.972900  0.897700  0.556600  1
  F  F1920  1  0.027100  0.102300  0.556600  1
  F  F1921  1  0.414200  0.381100  0.046300  1
  F  F1922  1  0.585800  0.618900  0.046300  1
  F  F1923  1  0.914200  0.881100  0.546300  1
  F  F1924  1  0.085800  0.118900  0.546300  1
  F  F1925  1  0.476800  0.418700  0.536900  1
  F  F1926  1  0.523200  0.581300  0.536900  1
  F  F1927  1  0.976800  0.918700  0.036900  1
  F  F1928  1  0.023200  0.081300  0.036900  1
  F  F1929  1  0.472100  0.456800  0.565700  1
  F  F1930  1  0.527900  0.543200  0.565700  1
  F  F1931  1  0.972100  0.956800  0.065700  1
  F  F1932  1  0.027900  0.043200  0.065700  1
  F  F1933  1  0.519700  0.437200  0.566300  1
  F  F1934  1  0.480300  0.562800  0.566300  1
  F  F1935  1  0.019700  0.937200  0.066300  1
  F  F1936  1  0.980300  0.062800  0.066300  1
