
#######################################################################
#
#                 Cambridge Crystallographic Data Centre
#                                CCDC 
#
#######################################################################
#
# If this CIF has been generated from an entry in the Cambridge 
# Structural Database, then it will include bibliographic, chemical, 
# crystal, experimental, refinement or atomic coordinate data resulting 
# from the CCDC's data processing and validation procedures.
#
#######################################################################

data_MIJXOT
_chemical_formula_moiety         
'12(C56 H50 N6 O8 Pd1 1+),12(C1 F3 O3 S1 1-),x(C2 H3 N1),x(C4 H8 O2),x(H2 O1)'
_chemical_name_systematic        
'tetracosakis(\m~2~-2,6-bis(Pyridin-4-ylethynyl)phenyl-N-t-butoxycarbonyl-L-alanine)-dodeca-palladium dodecakis(trifluoromethanesulfonate) acetonitrile 1,4-dioxane solvate hydrate'
_symmetry_cell_setting           monoclinic
_symmetry_space_group_name_H-M   'C 2'
_symmetry_Int_Tables_number      5
_space_group_name_Hall           'C 2y'
loop_
_symmetry_equiv_pos_site_id
_symmetry_equiv_pos_as_xyz
1 x,y,z
2 -x,y,-z
3 1/2+x,1/2+y,z
4 1/2-x,1/2+y,-z
_cell_length_a                   44.297(5)
_cell_length_b                   51.151(3)
_cell_length_c                   37.579(4)
_cell_angle_alpha                90
_cell_angle_beta                 124.406(2)
_cell_angle_gamma                90
_cell_volume                     70251.6
_exptl_crystal_colour            'pale yellow'
_exptl_crystal_description       block
_chemical_melting_point          'decomposes above 190 deg.C'
_cell_formula_units_Z            4
loop_
_atom_site_label
_atom_site_type_symbol
_atom_site_fract_x
_atom_site_fract_y
_atom_site_fract_z
O5 O 0.145(2) 0.202(3) 0.296(3)
O22 O 0.083(3) 0.568(2) 0.281(4)
C301 C 0.5084(10) 0.4751(5) -0.0579(10)
F1 F 0.5020(6) 0.4556(4) -0.0815(7)
F2 F 0.5410(8) 0.4758(6) -0.0277(9)
F3 F 0.4847(9) 0.4772(6) -0.0480(11)
S1 S 0.5027(4) 0.5067(3) -0.0860(4)
O29 O 0.5337(7) 0.5071(6) -0.0909(9)
O30 O 0.5023(9) 0.5279(5) -0.0606(9)
O31 O 0.4694(7) 0.5057(6) -0.1252(9)
C302 C 0.5030(8) -0.0649(4) -0.0543(8)
F4 F 0.5076(8) -0.0444(4) -0.0698(8)
F5 F 0.4711(8) -0.0660(6) -0.0624(10)
F6 F 0.5291(7) -0.0697(5) -0.0152(7)
S2 S 0.5005(4) -0.0937(2) -0.0855(5)
O32 O 0.4641(6) -0.0920(5) -0.1261(7)
O33 O 0.5053(7) -0.1160(4) -0.0584(8)
O34 O 0.5311(6) -0.0944(5) -0.0867(9)
C303 C 0.3798(9) -0.0415(6) -0.0676(11)
F7 F 0.3483(8) -0.0396(8) -0.1012(10)
F8 F 0.3977(8) -0.0566(6) -0.0752(10)
F9 F 0.3811(7) -0.0463(5) -0.0331(8)
S3 S 0.4044(5) -0.0101(4) -0.0564(6)
O35 O 0.4053(6) -0.0057(5) -0.0957(7)
O36 O 0.4433(7) -0.0157(8) -0.0204(11)
O37 O 0.3925(8) 0.0078(6) -0.0408(10)
C304 C 0.4316(9) 0.4404(6) -0.0536(12)
F10 F 0.4187(8) 0.4631(5) -0.0581(10)
F11 F 0.4568(10) 0.4343(9) -0.0153(12)
F12 F 0.4372(12) 0.4337(8) -0.0825(14)
S5 S 0.3977(5) 0.4159(3) -0.0614(6)
O41 O 0.4097(9) 0.4060(7) -0.0193(8)
O42 O 0.4003(12) 0.3972(7) -0.0894(13)
O43 O 0.3626(7) 0.4257(8) -0.0896(12)
O49 O 0.5000 0.0032(15) 0.5000
O50 O -0.0967(16) 0.1260(12) 0.0744(19)
O51 O -0.0716(19) 0.0802(14) 0.052(2)
O52 O 0.5000 0.196(3) 0.0000
O54 O 0.490(2) 0.2772(19) 0.124(3)
O55 O 0.2292(18) -0.0047(14) 0.142(2)
O56 O 0.1457(13) 0.2560(10) 0.2018(16)
O57 O 0.0940(18) 0.0019(14) -0.295(2)
O58 O 0.417(3) -0.166(2) 0.238(4)
O59 O 0.244(2) 0.3967(15) -0.149(2)
O60 O 0.015(4) -0.089(3) -0.396(4)
O61 O 0.029(2) 0.2477(15) 0.236(3)
O62 O 0.159(2) 0.1596(16) -0.013(2)
O63 O 0.325(2) -0.0012(15) 0.634(2)
O65 O 0.0936(19) 0.5049(14) 0.239(2)
O67 O 0.3320(13) 0.1985(12) 0.7191(15)
O68 O 0.119(3) 0.130(2) 0.092(3)
O69 O 0.177(2) 0.1147(18) 0.152(3)
O70 O 0.534(2) -0.1766(16) 0.005(3)
O71 O 0.0875(17) 0.4637(13) 0.221(2)
O72 O 0.4296(12) 0.0858(9) 0.1535(13)
O73 O 0.5684(17) -0.2019(14) -0.116(2)
O74 O 0.4762(16) -0.2140(12) -0.2117(19)
O75 O 0.145(2) 0.3006(17) 0.265(3)
O76 O 0.3356(17) -0.0400(13) 0.038(2)
O77 O 0.166(2) -0.0480(17) 0.000(3)
O78 O 0.246(2) 0.0361(18) 0.210(3)
O79 O 0.373(3) 0.402(2) 0.177(4)
O81 O -0.0177(18) 0.1316(13) 0.330(2)
O82 O 0.2548(17) 0.1272(13) 0.599(2)
O83 O 0.378(2) -0.1679(14) 0.310(2)
O84 O 0.1864(16) 0.0854(12) 0.3758(19)
O85 O 0.168(3) -0.054(2) 0.423(4)
O87 O 0.2195(14) 0.0097(10) -0.1578(16)
O88 O 0.299(3) -0.042(2) 0.052(4)
O89 O 0.161(4) -0.011(3) 0.417(5)
O90 O 0.300(2) 0.6394(17) 0.210(3)
O91 O 0.330(2) 0.5904(17) 0.299(3)
O92 O 0.172(3) 0.047(2) 0.535(4)
O93 O 0.232(2) 0.197(2) -0.047(3)
O94 O 0.181(3) 0.1851(19) 0.352(3)
O95 O 0.259(3) 0.294(2) 0.547(3)
O96 O 0.2514(17) 0.4120(13) 0.3353(19)
O97 O 0.4477(11) 0.3965(7) -0.1943(13)
C306 C 0.4497(18) 0.4112(10) -0.2320(15)
C307 C 0.4244(17) 0.4288(11) -0.2552(10)
O98 O 0.4247(11) 0.4449(8) -0.2234(14)
C308 C 0.4610(11) 0.4442(8) -0.1849(13)
C309 C 0.4629(12) 0.4231(9) -0.1644(10)
O99 O 0.1874(12) 0.2954(10) 0.0912(16)
C310 C 0.1549(18) 0.3173(14) 0.065(3)
C311 C 0.1222(14) 0.3112(14) 0.0547(17)
O100 O 0.1265(16) 0.2859(12) 0.073(2)
C312 C 0.1472(18) 0.2897(13) 0.119(2)
C313 C 0.1795(19) 0.297(3) 0.1291(16)
O101 O 0.0000 0.0773(8) 0.0000
C314 C 0.0176(13) 0.0961(8) -0.0199(14)
C315 C 0.0292(9) 0.1187(8) -0.0010(14)
O102 O 0.0000 0.1294(9) 0.0000
C314A C -0.0176(13) 0.0961(8) 0.0199(14)
C315A C -0.0292(9) 0.1187(8) 0.0010(14)
C318 C -0.066(2) 0.2256(14) -0.045(3)
C319 C -0.102(2) 0.2147(18) -0.078(2)
N37 N -0.037(2) 0.2250(13) -0.012(2)
Pd1 Pd 0.5000 0.55266(18) 0.5000
Pd2 Pd 0.41152(11) 0.37110(12) 0.04460(15)
Pd3 Pd 0.10400(12) 0.02975(13) 0.16794(14)
Pd4 Pd 0.41290(11) 0.03929(11) 0.04519(14)
Pd5 Pd 0.10658(13) 0.38098(14) 0.17032(16)
Pd6 Pd 0.17247(9) 0.20274(17) 0.60472(10)
Pd7 Pd 0.5000 -0.13989(15) 0.5000
N1 N 0.0969(8) 0.0332(7) 0.2153(7)
C1 C 0.0821(7) 0.0119(6) 0.2234(8)
C2 C 0.0807(8) 0.0120(5) 0.2594(10)
C3 C 0.0940(8) 0.0333(6) 0.2872(7)
C4 C 0.1088(8) 0.0545(5) 0.2791(9)
C5 C 0.1103(8) 0.0545(6) 0.2431(10)
C6 C 0.0965(15) 0.0298(11) 0.3286(12)
C7 C 0.0901(9) 0.0244(7) 0.3550(9)
C8 C 0.0909(6) 0.0274(5) 0.3933(7)
C9 C 0.0842(8) 0.0059(4) 0.4104(10)
C10 C 0.0855(10) 0.0085(5) 0.4481(10)
C11 C 0.0937(9) 0.0326(6) 0.4687(8)
C12 C 0.1005(7) 0.0541(5) 0.4516(8)
C13 C 0.0991(6) 0.0515(4) 0.4138(8)
C14 C 0.1068(10) 0.0784(6) 0.4689(12)
C15 C 0.1106(9) 0.0988(6) 0.4861(12)
N2 N 0.1458(10) 0.1715(5) 0.5574(9)
C16 C 0.1678(7) 0.1578(6) 0.5484(10)
C17 C 0.1555(8) 0.1345(6) 0.5255(10)
C18 C 0.1211(8) 0.1249(5) 0.5114(10)
C19 C 0.0990(7) 0.1386(6) 0.5204(10)
C20 C 0.1114(9) 0.1620(6) 0.5434(10)
O1 O 0.1083(6) 0.0738(4) 0.4023(8)
O2 O 0.0592(6) 0.0915(5) 0.3680(7)
C21 C 0.0891(8) 0.0957(5) 0.3803(8)
C22 C 0.1131(9) 0.1172(6) 0.3795(12)
C23 C 0.1385(13) 0.1366(9) 0.4187(15)
N3 N 0.0861(14) 0.1378(7) 0.3499(14)
C24 C 0.0770(9) 0.1281(10) 0.3096(14)
O3 O 0.0758(14) 0.1087(11) 0.2899(17)
O4 O 0.0634(11) 0.1491(9) 0.2826(14)
N4 N 0.4990(9) 0.5544(10) 0.4445(9)
C26 C 0.4889(11) 0.5315(7) 0.4204(15)
C27 C 0.4883(9) 0.5307(7) 0.3830(13)
C28 C 0.4978(8) 0.5527(10) 0.3697(8)
C29 C 0.5079(8) 0.5756(7) 0.3938(13)
C30 C 0.5085(8) 0.5764(7) 0.4312(12)
C31 C 0.4971(10) 0.5450(8) 0.3337(10)
C32 C 0.4941(9) 0.5426(8) 0.3002(9)
C33 C 0.4934(6) 0.5401(5) 0.2624(7)
C34 C 0.5042(7) 0.5603(4) 0.2474(9)
C35 C 0.5033(8) 0.5570(5) 0.2100(9)
C36 C 0.4915(6) 0.5335(6) 0.1878(7)
C37 C 0.4807(6) 0.5132(4) 0.2028(8)
C38 C 0.4816(6) 0.5165(5) 0.2402(8)
C39 C 0.4683(13) 0.4898(7) 0.1832(13)
C40 C 0.4603(10) 0.4717(7) 0.1601(14)
N5 N 0.4197(5) 0.4011(5) 0.0763(9)
C41 C 0.4192(6) 0.4260(6) 0.0613(7)
C42 C 0.4320(7) 0.4473(5) 0.0885(10)
C43 C 0.4462(7) 0.4444(6) 0.1323(10)
C44 C 0.4469(7) 0.4195(7) 0.1477(8)
C45 C 0.4335(8) 0.3984(6) 0.1196(10)
O6 O 0.4736(7) 0.4969(5) 0.2557(8)
O7 O 0.5176(12) 0.4734(11) 0.278(2)
C46 C 0.4899(11) 0.4743(6) 0.2743(11)
C47 C 0.4657(14) 0.4581(9) 0.2843(17)
N6 N 0.4408(7) 0.5591(8) 0.4591(10)
C48 C 0.4212(10) 0.5820(7) 0.4465(11)
C49 C 0.3831(9) 0.5814(6) 0.4224(11)
C50 C 0.3655(6) 0.5570(6) 0.4112(10)
C51 C 0.3859(8) 0.5340(6) 0.4228(11)
C52 C 0.4237(8) 0.5350(7) 0.4496(11)
C53 C 0.3250(8) 0.5564(7) 0.3794(11)
C54 C 0.2933(8) 0.5595(8) 0.3657(10)
C55 C 0.2551(7) 0.5600(6) 0.3394(8)
C56 C 0.2346(10) 0.5802(6) 0.3401(11)
C57 C 0.1965(10) 0.5802(8) 0.3118(15)
C58 C 0.1790(9) 0.5584(9) 0.2861(15)
C59 C 0.1996(10) 0.5391(8) 0.2832(13)
C60 C 0.2376(10) 0.5378(7) 0.3140(14)
C61 C 0.1852(15) 0.5180(9) 0.2566(17)
C62 C 0.1662(11) 0.4994(7) 0.2415(14)
N7 N 0.1309(10) 0.4189(6) 0.1900(12)
C63 C 0.1116(8) 0.4408(8) 0.1663(10)
C64 C 0.1228(11) 0.4656(7) 0.1844(13)
C65 C 0.1533(12) 0.4690(6) 0.2267(14)
C66 C 0.1735(10) 0.4471(8) 0.2499(10)
C67 C 0.1614(11) 0.4222(7) 0.2323(12)
O8 O 0.2549(9) 0.5188(6) 0.3092(10)
O9 O 0.2544(11) 0.5020(7) 0.3570(12)
C68 C 0.2634(10) 0.4982(6) 0.3342(12)
C69 C 0.2845(13) 0.4772(9) 0.3268(17)
C70 C 0.2656(14) 0.4590(9) 0.2856(16)
N8 N 0.1075(10) 0.3838(6) 0.1171(8)
C71 C 0.0769(7) 0.3830(6) 0.0748(10)
C72 C 0.0813(7) 0.3819(6) 0.0409(7)
C73 C 0.1161(8) 0.3817(6) 0.0494(8)
C74 C 0.1467(6) 0.3825(7) 0.0918(9)
C75 C 0.1424(8) 0.3836(6) 0.1256(7)
C76 C 0.1195(10) 0.3832(9) 0.0121(10)
C77 C 0.1242(9) 0.3868(8) -0.0158(10)
C78 C 0.1325(7) 0.3912(6) -0.0467(8)
C79 C 0.1048(5) 0.3924(6) -0.0905(9)
C80 C 0.1127(6) 0.3880(6) -0.1209(6)
C81 C 0.1483(7) 0.3824(6) -0.1075(7)
C82 C 0.1761(5) 0.3812(5) -0.0638(8)
C83 C 0.1681(6) 0.3856(5) -0.0334(6)
C84 C 0.2124(8) 0.3806(10) -0.0462(13)
C85 C 0.2434(8) 0.3810(11) -0.0351(15)
N9 N 0.3584(5) 0.3757(6) 0.0168(11)
C86 C 0.3338(8) 0.3871(6) -0.0231(10)
C87 C 0.2968(7) 0.3883(6) -0.0392(7)
C88 C 0.2844(5) 0.3780(6) -0.0155(9)
C89 C 0.3090(8) 0.3665(6) 0.0245(9)
C90 C 0.3460(7) 0.3654(6) 0.0406(8)
O10 O 0.1949(8) 0.3816(7) 0.0090(10)
O11 O 0.1852(14) 0.3380(11) 0.0023(16)
C91 C 0.2019(13) 0.3576(14) 0.0207(16)
C92 C 0.2394(15) 0.3563(12) 0.0662(18)
C93 C 0.252(4) 0.379(3) 0.101(4)
N10 N 0.267(2) 0.362(5) 0.056(3)
N11 N 0.1099(8) 0.0277(5) 0.1198(7)
C94 C 0.1446(7) 0.0260(5) 0.1279(6)
C95 C 0.1485(6) 0.0247(5) 0.0938(9)
C96 C 0.1177(7) 0.0251(4) 0.0515(7)
C97 C 0.0831(6) 0.0269(5) 0.0435(6)
C98 C 0.0792(6) 0.0282(5) 0.0776(9)
C99 C 0.1241(9) 0.0253(6) 0.0166(9)
C100 C 0.1297(7) 0.0248(4) -0.0112(8)
C101 C 0.1349(6) 0.0242(6) -0.0445(7)
C102 C 0.1080(6) 0.0180(7) -0.0870(8)
C103 C 0.1167(8) 0.0077(8) -0.1145(9)
C104 C 0.1509(9) 0.0140(9) -0.1059(9)
C105 C 0.1787(7) 0.0184(8) -0.0626(10)
C106 C 0.1701(7) 0.0289(8) -0.0345(10)
C107 C 0.2123(8) 0.0265(8) -0.0515(12)
C108 C 0.2440(8) 0.0281(6) -0.0379(15)
N12 N 0.3598(7) 0.0350(7) 0.0201(12)
C109 C 0.3466(9) 0.0365(10) 0.0453(10)
C110 C 0.3086(9) 0.0348(10) 0.0242(11)
C111 C 0.2848(6) 0.0311(8) -0.0198(11)
C112 C 0.2993(9) 0.0258(11) -0.0444(10)
C113 C 0.3368(9) 0.0293(9) -0.0235(12)
O12 O 0.1976(8) 0.0356(6) 0.0090(10)
O13 O 0.1910(12) 0.0757(7) 0.0056(13)
C114 C 0.2075(10) 0.0591(7) 0.0296(11)
C115 C 0.2373(18) 0.0562(9) 0.0783(11)
C116 C 0.241(2) 0.0483(13) 0.121(2)
N13 N 0.2538(13) 0.0831(10) 0.0924(13)
N14 N 0.4470(5) -0.1401(7) 0.4662(7)
C117 C 0.4262(8) -0.1628(5) 0.4506(8)
C118 C 0.3884(7) -0.1612(5) 0.4222(9)
C119 C 0.3714(5) -0.1369(6) 0.4093(8)
C120 C 0.3922(8) -0.1142(5) 0.4249(10)
C121 C 0.4301(8) -0.1158(5) 0.4534(9)
C122 C 0.3304(7) -0.1359(12) 0.380(3)
C123 C 0.2980(7) -0.1401(11) 0.360(2)
C124 C 0.2595(6) -0.1422(6) 0.3317(9)
C125 C 0.2406(8) -0.1646(5) 0.3293(12)
C126 C 0.2026(8) -0.1648(5) 0.3037(12)
C127 C 0.1834(6) -0.1426(6) 0.2806(10)
C128 C 0.2023(7) -0.1202(5) 0.2830(9)
C129 C 0.2403(7) -0.1200(5) 0.3085(9)
C130 C 0.1875(10) -0.0975(7) 0.2615(14)
C131 C 0.1782(11) -0.0779(6) 0.2410(13)
N15 N 0.1276(10) -0.0023(5) 0.1898(13)
C132 C 0.1586(10) -0.0050(5) 0.2316(12)
C133 C 0.1739(8) -0.0295(7) 0.2471(8)
C134 C 0.1582(8) -0.0514(5) 0.2208(9)
C135 C 0.1272(7) -0.0487(5) 0.1791(9)
C136 C 0.1119(7) -0.0241(7) 0.1635(9)
O14 O 0.2651(9) -0.1025(6) 0.3145(11)
O15 O 0.2662(14) -0.1118(9) 0.2634(14)
C137 C 0.2776(8) -0.0965(7) 0.2906(11)
C138 C 0.3013(14) -0.0715(8) 0.3075(16)
N16 N 0.3174(16) -0.0697(12) 0.282(2)
N17 N 0.1045(7) 0.3820(6) 0.2206(7)
C139 C 0.1236(7) 0.3623(5) 0.2509(9)
C140 C 0.1223(7) 0.3607(5) 0.2869(8)
C141 C 0.1019(8) 0.3787(6) 0.2927(7)
C142 C 0.0828(7) 0.3983(5) 0.2624(9)
C143 C 0.0841(7) 0.4000(5) 0.2263(7)
C144 C 0.0995(13) 0.3760(10) 0.3306(11)
C145 C 0.0988(11) 0.3724(8) 0.3615(9)
C146 C 0.1024(8) 0.3713(6) 0.4011(8)
C147 C 0.0930(9) 0.3924(5) 0.4163(9)
C148 C 0.0872(8) 0.3887(6) 0.4487(9)
C149 C 0.0910(8) 0.3640(7) 0.4659(8)
C150 C 0.1004(9) 0.3429(5) 0.4508(10)
C151 C 0.1061(9) 0.3466(5) 0.4184(10)
C152 C 0.101(2) 0.3175(8) 0.462(2)
C153 C 0.1094(11) 0.2974(7) 0.4810(12)
N18 N 0.1483(10) 0.2264(5) 0.5575(9)
C154 C 0.1183(9) 0.2398(6) 0.5507(9)
C155 C 0.1067(7) 0.2627(6) 0.5255(9)
C156 C 0.1251(8) 0.2722(5) 0.5078(8)
C157 C 0.1546(8) 0.2580(7) 0.5141(10)
C158 C 0.1666(9) 0.2358(7) 0.5398(12)
O16 O 0.1034(9) 0.3209(7) 0.3913(11)
O17 O 0.1555(11) 0.3240(10) 0.4427(14)
C159 C 0.1371(11) 0.3110(8) 0.4130(13)
C160 C 0.1393(18) 0.2857(11) 0.392(2)
N19 N 0.0816(11) 0.3457(6) 0.1502(10)
C161 C 0.0979(9) 0.3243(8) 0.1453(12)
C162 C 0.0798(9) 0.3009(7) 0.1330(11)
C163 C 0.0445(10) 0.2983(6) 0.1230(12)
C164 C 0.0265(9) 0.3198(7) 0.1256(15)
C165 C 0.0473(12) 0.3427(7) 0.1428(17)
C166 C 0.0270(12) 0.2720(7) 0.1099(14)
C167 C 0.0140(13) 0.2509(7) 0.1063(10)
C168 C -0.0059(9) 0.2279(5) 0.1001(12)
C169 C -0.0430(10) 0.2285(7) 0.0834(13)
C170 C -0.0623(6) 0.2053(9) 0.0748(10)
C171 C -0.0444(8) 0.1814(7) 0.0828(12)
C172 C -0.0073(9) 0.1809(5) 0.0995(11)
C173 C 0.0120(6) 0.2041(7) 0.1082(8)
C174 C 0.0131(13) 0.1588(7) 0.1105(13)
C175 C 0.0289(10) 0.1384(6) 0.1201(10)
N20 N 0.0833(8) 0.0639(5) 0.1546(8)
C176 C 0.0469(8) 0.0662(5) 0.1405(8)
C177 C 0.0296(6) 0.0904(6) 0.1275(8)
C178 C 0.0487(8) 0.1123(4) 0.1286(9)
C179 C 0.0851(7) 0.1100(5) 0.1427(9)
C180 C 0.1025(6) 0.0858(6) 0.1557(8)
O18 O 0.0470(7) 0.2043(9) 0.1226(8)
O19 O 0.0605(11) 0.2039(14) 0.1893(13)
C181 C 0.0729(11) 0.2018(15) 0.1681(18)
C182 C 0.1100(12) 0.1979(9) 0.1726(13)
C183 C 0.1216(14) 0.1720(11) 0.1611(16)
N21 N 0.1387(10) 0.1981(11) 0.2204(13)
N22 N 0.1959(8) 0.1710(5) 0.6499(7)
C184 C 0.1808(6) 0.1530(6) 0.6634(9)
C185 C 0.2032(9) 0.1349(5) 0.6951(9)
C186 C 0.2406(8) 0.1347(5) 0.7134(7)
C187 C 0.2556(6) 0.1527(7) 0.6999(11)
C188 C 0.2333(9) 0.1708(6) 0.6682(11)
C189 C 0.2646(12) 0.1150(7) 0.7482(12)
C190 C 0.2760(14) 0.0958(7) 0.7710(13)
C191 C 0.2912(9) 0.0712(6) 0.7901(8)
C192 C 0.2727(9) 0.0501(7) 0.7921(12)
C193 C 0.2903(10) 0.0261(7) 0.8095(14)
C194 C 0.3279(10) 0.0244(6) 0.8306(14)
C195 C 0.3469(8) 0.0453(7) 0.8282(16)
C196 C 0.3279(9) 0.0678(6) 0.8063(13)
C197 C 0.3837(8) 0.0472(8) 0.8463(12)
C198 C 0.4158(7) 0.0485(10) 0.8623(14)
O20 O 0.3409(9) 0.0885(6) 0.7974(10)
O21 O 0.3650(11) 0.1165(8) 0.8446(13)
C199 C 0.3657(9) 0.1078(6) 0.8169(12)
C200 C 0.3858(13) 0.1076(11) 0.7936(17)
C201 C 0.375(3) 0.1232(14) 0.752(3)
N23 N 0.373(2) 0.0812(11) 0.772(2)
N24 N 0.4641(6) 0.3657(7) 0.0690(11)
C202 C 0.4834(8) 0.3792(5) 0.0558(8)
C203 C 0.5203(7) 0.3740(5) 0.0750(9)
C204 C 0.5380(6) 0.3553(6) 0.1075(9)
C205 C 0.5186(9) 0.3419(6) 0.1207(9)
C206 C 0.4817(9) 0.3471(7) 0.1015(11)
C207 C 0.5786(7) 0.3528(9) 0.1321(14)
C208 C 0.6089(7) 0.3469(8) 0.1431(14)
C209 C 0.6465(6) 0.3479(6) 0.1599(8)
C210 C 0.6624(9) 0.3654(5) 0.1468(9)
C211 C 0.6988(9) 0.3623(7) 0.1610(11)
C212 C 0.7192(6) 0.3417(9) 0.1884(12)
C213 C 0.7033(9) 0.3243(7) 0.2015(10)
C214 C 0.6669(9) 0.3274(5) 0.1873(8)
O23 O 0.6493(8) 0.3110(6) 0.1992(9)
C215 C 0.6296(11) 0.2889(8) 0.1858(13)
C216 C 0.6136(12) 0.2849(9) 0.2130(13)
C217 C 0.5847(14) 0.3047(12) 0.2107(18)
N25 N 0.6432(14) 0.291(2) 0.2592(14)
C218 C 0.6204(18) 0.2932(14) 0.2751(17)
N26 N 0.4098(11) 0.3411(8) 0.0090(15)
C219 C 0.4167(9) 0.3163(10) 0.0261(12)
C220 C 0.4027(10) 0.2940(8) 0.0012(16)
C221 C 0.3792(15) 0.2961(7) -0.0435(15)
C222 C 0.3750(13) 0.3207(9) -0.0620(13)
C223 C 0.3895(14) 0.3429(7) -0.0362(16)
C224 C 0.3646(16) 0.2719(10) -0.071(2)
C225 C 0.3509(15) 0.2527(8) -0.0933(19)
C226 C 0.3385(13) 0.2293(6) -0.1181(11)
C227 C 0.3152(13) 0.2296(8) -0.1627(12)
C228 C 0.3053(13) 0.2069(10) -0.1877(10)
C229 C 0.3100(13) 0.1832(8) -0.1669(11)
C230 C 0.3299(13) 0.1823(6) -0.1220(11)
C231 C 0.3453(13) 0.2050(7) -0.0973(9)
C232 C 0.3410(15) 0.1595(8) -0.0991(19)
C233 C 0.3518(17) 0.1406(11) -0.077(2)
N27 N 0.3952(16) 0.0725(10) 0.010(2)
C234 C 0.3754(14) 0.0709(7) -0.035(2)
C235 C 0.3611(12) 0.0927(9) -0.0620(15)
C236 C 0.3665(13) 0.1176(8) -0.0442(15)
C237 C 0.3853(15) 0.1195(9) 0.0004(16)
C238 C 0.4007(16) 0.0976(12) 0.0267(15)
O24 O 0.3554(10) 0.2048(10) -0.0562(9)
O25 O 0.3129(13) 0.209(2) -0.052(2)
C239 C 0.3444(14) 0.2098(12) -0.0302(14)
C240 C 0.3773(17) 0.2155(16) 0.0166(14)
C241 C 0.405(2) 0.194(2) 0.050(2)
N28 N 0.361(2) 0.2227(17) 0.041(2)
N32 N 0.4990(8) -0.1380(7) 0.5509(8)
C265 C 0.4999(9) -0.1604(5) 0.5720(10)
C266 C 0.4960(12) -0.1592(6) 0.6061(12)
C267 C 0.4961(10) -0.1349(7) 0.6226(10)
C268 C 0.4999(12) -0.1123(6) 0.6048(12)
C269 C 0.5044(10) -0.1140(6) 0.5708(11)
C270 C 0.4901(19) -0.1339(11) 0.6580(16)
C271 C 0.4924(13) -0.1353(10) 0.6914(12)
N33 N 0.4262(7) 0.0075(6) 0.0859(11)
C272 C 0.4332(7) 0.0090(5) 0.1269(12)
C273 C 0.4407(7) -0.0136(8) 0.1510(8)
C274 C 0.4412(7) -0.0377(6) 0.1342(13)
C275 C 0.4342(8) -0.0392(6) 0.0933(14)
C276 C 0.4267(8) -0.0166(9) 0.0691(9)
C277 C 0.4581(12) -0.0586(9) 0.1651(14)
C278 C 0.4766(11) -0.0779(9) 0.1833(12)
C279 C 0.4869(6) -0.1028(5) 0.2064(9)
C280 C 0.4950(8) -0.1232(7) 0.1887(8)
C281 C 0.5069(8) -0.1470(5) 0.2100(12)
C282 C 0.5107(8) -0.1505(5) 0.2490(11)
C283 C 0.4974(8) -0.1302(7) 0.7333(8)
C284 C 0.4907(7) -0.1063(6) 0.2455(10)
O27 O 0.4867(8) -0.0812(6) 0.2654(11)
O28 O 0.5386(7) -0.0661(6) 0.2923(9)
C285 C 0.5109(10) -0.0615(7) 0.2870(14)
C286 C 0.4978(11) -0.0428(8) 0.3090(13)
C287 C 0.480(2) -0.0151(11) 0.290(2)
N34 N 0.5334(16) -0.0323(10) 0.3476(15)
C288 C 0.5410(13) -0.0510(11) 0.3806(15)
N35 N 0.2032(10) 0.2290(7) 0.6501(11)
C289 C 0.2336(11) 0.2410(8) 0.6556(13)
C290 C 0.2519(9) 0.2603(8) 0.6871(13)
C291 C 0.2402(8) 0.2673(6) 0.7130(9)
C292 C 0.2113(9) 0.2540(7) 0.7102(10)
C293 C 0.1911(9) 0.2369(8) 0.6756(13)
C294 C 0.2594(16) 0.2895(9) 0.7440(16)
C295 C 0.726(2) 0.3082(10) 0.234(2)
N36 N 0.4674(7) 0.0433(8) 0.0719(11)
C296 C 0.4875(10) 0.0609(8) 0.1056(15)
C297 C 0.5251(9) 0.0635(7) 0.1252(10)
C298 C 0.4569(6) 0.0471(8) 0.8857(11)
C299 C 0.4771(10) 0.0297(9) 0.9200(14)
C300 C 0.4857(10) 0.0259(7) 0.0623(12)
O64 O 0.420(3) 0.163(2) 0.072(3)
Pd2A Pd 0.58848(11) 0.37110(12) 0.95540(15)
Pd3A Pd 0.89600(12) 0.02975(13) 0.83206(14)
Pd4A Pd 0.58710(11) 0.03929(11) 0.95481(14)
Pd5A Pd 0.89342(13) 0.38098(14) 0.82968(16)
Pd6A Pd 0.82753(9) 0.20274(17) 0.39528(10)
N1A N 0.9031(8) 0.0332(7) 0.7847(7)
C1A C 0.9179(7) 0.0119(6) 0.7766(8)
C2A C 0.9193(8) 0.0120(5) 0.7406(10)
C3A C 0.9060(8) 0.0333(6) 0.7128(7)
C4A C 0.8912(8) 0.0545(5) 0.7209(9)
C5A C 0.8897(8) 0.0545(6) 0.7569(10)
C6A C 0.9035(15) 0.0298(11) 0.6714(12)
C7A C 0.9099(9) 0.0244(7) 0.6450(9)
C8A C 0.9091(6) 0.0274(5) 0.6067(7)
C9A C 0.9158(8) 0.0059(4) 0.5896(10)
C10A C 0.9145(10) 0.0085(5) 0.5519(10)
C11A C 0.9063(9) 0.0326(6) 0.5313(8)
C12A C 0.8995(7) 0.0541(5) 0.5484(8)
C13A C 0.9009(6) 0.0515(4) 0.5862(8)
C14A C 0.8932(10) 0.0784(6) 0.5311(12)
C15A C 0.8894(9) 0.0988(6) 0.5139(12)
N2A N 0.8542(10) 0.1715(5) 0.4426(9)
C16A C 0.8322(7) 0.1578(6) 0.4516(10)
C17A C 0.8445(8) 0.1345(6) 0.4745(10)
C18A C 0.8789(8) 0.1249(5) 0.4886(10)
C19A C 0.9010(7) 0.1386(6) 0.4796(10)
C20A C 0.8886(9) 0.1620(6) 0.4566(10)
O1A O 0.8917(6) 0.0738(4) 0.5977(8)
O2A O 0.9408(6) 0.0915(5) 0.6320(7)
C21A C 0.9109(8) 0.0957(5) 0.6197(8)
C22A C 0.8869(9) 0.1172(6) 0.6205(12)
C23A C 0.8615(13) 0.1366(9) 0.5813(15)
N3A N 0.9139(14) 0.1378(7) 0.6501(14)
C24A C 0.9230(9) 0.1281(10) 0.6904(14)
O3A O 0.9242(14) 0.1087(11) 0.7101(17)
O4A O 0.9366(11) 0.1491(9) 0.7174(14)
N4A N 0.5010(9) 0.5544(10) 0.5555(9)
C26A C 0.5111(11) 0.5315(7) 0.5796(15)
C27A C 0.5117(9) 0.5307(7) 0.6170(13)
C28A C 0.5022(8) 0.5527(10) 0.6303(8)
C29A C 0.4921(8) 0.5756(7) 0.6062(13)
C30A C 0.4915(8) 0.5764(7) 0.5688(12)
C31A C 0.5029(10) 0.5450(8) 0.6663(10)
C32A C 0.5059(9) 0.5426(8) 0.6998(9)
C33A C 0.5066(6) 0.5401(5) 0.7376(7)
C34A C 0.4958(7) 0.5603(4) 0.7526(9)
C35A C 0.4967(8) 0.5570(5) 0.7900(9)
C36A C 0.5085(6) 0.5335(6) 0.8122(7)
C37A C 0.5193(6) 0.5132(4) 0.7972(8)
C38A C 0.5184(6) 0.5165(5) 0.7598(8)
C39A C 0.5317(13) 0.4898(7) 0.8168(13)
C40A C 0.5397(10) 0.4717(7) 0.8399(14)
N5A N 0.5803(5) 0.4011(5) 0.9237(9)
C41A C 0.5808(6) 0.4260(6) 0.9387(7)
C42A C 0.5680(7) 0.4473(5) 0.9115(10)
C43A C 0.5538(7) 0.4444(6) 0.8677(10)
C44A C 0.5531(7) 0.4195(7) 0.8523(8)
C45A C 0.5665(8) 0.3984(6) 0.8804(10)
O6A O 0.5264(7) 0.4969(5) 0.7443(8)
O7A O 0.4824(12) 0.4734(11) 0.722(2)
C46A C 0.5101(11) 0.4743(6) 0.7257(11)
C47A C 0.5343(14) 0.4581(9) 0.7157(17)
N6A N 0.5592(7) 0.5591(8) 0.5409(10)
C48A C 0.5788(10) 0.5820(7) 0.5535(11)
C49A C 0.6169(9) 0.5814(6) 0.5776(11)
C50A C 0.6345(6) 0.5570(6) 0.5888(10)
C51A C 0.6141(8) 0.5340(6) 0.5772(11)
C52A C 0.5763(8) 0.5350(7) 0.5504(11)
C53A C 0.6750(8) 0.5564(7) 0.6206(11)
C54A C 0.7067(8) 0.5595(8) 0.6343(10)
C55A C 0.7449(7) 0.5600(6) 0.6606(8)
C56A C 0.7654(10) 0.5802(6) 0.6599(11)
C57A C 0.8035(10) 0.5802(8) 0.6882(15)
C58A C 0.8210(9) 0.5584(9) 0.7139(15)
C59A C 0.8004(10) 0.5391(8) 0.7168(13)
C60A C 0.7624(10) 0.5378(7) 0.6860(14)
C61A C 0.8148(15) 0.5180(9) 0.7434(17)
C62A C 0.8338(11) 0.4994(7) 0.7585(14)
N7A N 0.8691(10) 0.4189(6) 0.8100(12)
C63A C 0.8884(8) 0.4408(8) 0.8337(10)
C64A C 0.8772(11) 0.4656(7) 0.8156(13)
C65A C 0.8467(12) 0.4690(6) 0.7733(14)
C66A C 0.8265(10) 0.4471(8) 0.7501(10)
C67A C 0.8386(11) 0.4222(7) 0.7677(12)
O8A O 0.7451(9) 0.5188(6) 0.6908(10)
O9A O 0.7456(11) 0.5020(7) 0.6430(12)
C68A C 0.7366(10) 0.4982(6) 0.6658(12)
C69A C 0.7155(13) 0.4772(9) 0.6732(17)
C70A C 0.7344(14) 0.4590(9) 0.7144(16)
N8A N 0.8925(10) 0.3838(6) 0.8829(8)
C71A C 0.9231(7) 0.3830(6) 0.9252(10)
C72A C 0.9187(7) 0.3819(6) 0.9591(7)
C73A C 0.8839(8) 0.3817(6) 0.9506(8)
C74A C 0.8533(6) 0.3825(7) 0.9082(9)
C75A C 0.8576(8) 0.3836(6) 0.8744(7)
C76A C 0.8805(10) 0.3832(9) 0.9879(10)
C77A C 0.8758(9) 0.3868(8) 1.0158(10)
C78A C 0.8675(7) 0.3912(6) 1.0467(8)
C79A C 0.8952(5) 0.3924(6) 1.0905(9)
C80A C 0.8873(6) 0.3880(6) 1.1209(6)
C81A C 0.8517(7) 0.3824(6) 1.1075(7)
C82A C 0.8239(5) 0.3812(5) 1.0638(8)
C83A C 0.8319(6) 0.3856(5) 1.0334(6)
C84A C 0.7876(8) 0.3806(10) 1.0462(13)
C85A C 0.7566(8) 0.3810(11) 1.0351(15)
N9A N 0.6416(5) 0.3757(6) 0.9832(11)
C86A C 0.6662(8) 0.3871(6) 1.0231(10)
C87A C 0.7032(7) 0.3883(6) 1.0392(7)
C88A C 0.7156(5) 0.3780(6) 1.0155(9)
C89A C 0.6910(8) 0.3665(6) 0.9755(9)
C90A C 0.6540(7) 0.3654(6) 0.9594(8)
O10A O 0.8051(8) 0.3816(7) 0.9910(10)
O11A O 0.8148(14) 0.3380(11) 0.9977(16)
C91A C 0.7981(13) 0.3576(14) 0.9793(16)
C92A C 0.7606(15) 0.3563(12) 0.9338(18)
C93A C 0.748(4) 0.379(3) 0.899(4)
N10A N 0.733(2) 0.362(5) 0.944(3)
N11A N 0.8901(8) 0.0277(5) 0.8802(7)
C94A C 0.8554(7) 0.0260(5) 0.8721(6)
C95A C 0.8515(6) 0.0247(5) 0.9062(9)
C96A C 0.8823(7) 0.0251(4) 0.9485(7)
C97A C 0.9169(6) 0.0269(5) 0.9565(6)
C98A C 0.9208(6) 0.0282(5) 0.9224(9)
C99A C 0.8759(9) 0.0253(6) 0.9834(9)
C100A C 0.8703(7) 0.0248(4) 1.0112(8)
C101A C 0.8651(6) 0.0242(6) 1.0445(7)
C102A C 0.8920(6) 0.0180(7) 1.0870(8)
C103A C 0.8833(8) 0.0077(8) 1.1145(9)
C104A C 0.8491(9) 0.0140(9) 1.1059(9)
C105A C 0.8213(7) 0.0184(8) 1.0626(10)
C106A C 0.8299(7) 0.0289(8) 1.0345(10)
C107A C 0.7877(8) 0.0265(8) 1.0515(12)
C108A C 0.7560(8) 0.0281(6) 1.0379(15)
N12A N 0.6402(7) 0.0350(7) 0.9799(12)
C109A C 0.6534(9) 0.0365(10) 0.9547(10)
C110A C 0.6914(9) 0.0348(10) 0.9758(11)
C111A C 0.7152(6) 0.0311(8) 1.0198(11)
C112A C 0.7007(9) 0.0258(11) 1.0444(10)
C113A C 0.6632(9) 0.0293(9) 1.0235(12)
O12A O 0.8024(8) 0.0356(6) 0.9910(10)
O13A O 0.8090(12) 0.0757(7) 0.9944(13)
C114A C 0.7925(10) 0.0591(7) 0.9704(11)
C115A C 0.7627(18) 0.0562(9) 0.9217(11)
C116A C 0.759(2) 0.0483(13) 0.879(2)
N13A N 0.7462(13) 0.0831(10) 0.9076(13)
N14A N 0.5530(5) -0.1401(7) 0.5338(7)
C117A C 0.5738(8) -0.1628(5) 0.5494(8)
C118A C 0.6116(7) -0.1612(5) 0.5778(9)
C119A C 0.6286(5) -0.1369(6) 0.5907(8)
C120A C 0.6078(8) -0.1142(5) 0.5751(10)
C121A C 0.5699(8) -0.1158(5) 0.5466(9)
C122A C 0.6696(7) -0.1359(12) 0.620(3)
C123A C 0.7020(7) -0.1401(11) 0.640(2)
C124A C 0.7405(6) -0.1422(6) 0.6683(9)
C125A C 0.7594(8) -0.1646(5) 0.6707(12)
C126A C 0.7974(8) -0.1648(5) 0.6963(12)
C127A C 0.8166(6) -0.1426(6) 0.7194(10)
C128A C 0.7977(7) -0.1202(5) 0.7170(9)
C129A C 0.7597(7) -0.1200(5) 0.6915(9)
C130A C 0.8125(10) -0.0975(7) 0.7385(14)
C131A C 0.8218(11) -0.0779(6) 0.7590(13)
N15A N 0.8724(10) -0.0023(5) 0.8102(13)
C132A C 0.8414(10) -0.0050(5) 0.7684(12)
C133A C 0.8261(8) -0.0295(7) 0.7529(8)
C134A C 0.8418(8) -0.0514(5) 0.7792(9)
C135A C 0.8728(7) -0.0487(5) 0.8209(9)
C136A C 0.8881(7) -0.0241(7) 0.8365(9)
O14A O 0.7349(9) -0.1025(6) 0.6855(11)
O15A O 0.7338(14) -0.1118(9) 0.7366(14)
C137A C 0.7224(8) -0.0965(7) 0.7094(11)
C138A C 0.6987(14) -0.0715(8) 0.6925(16)
N16A N 0.6826(16) -0.0697(12) 0.718(2)
N17A N 0.8955(7) 0.3820(6) 0.7794(7)
C139A C 0.8764(7) 0.3623(5) 0.7491(9)
C140A C 0.8777(7) 0.3607(5) 0.7131(8)
C141A C 0.8981(8) 0.3787(6) 0.7073(7)
C142A C 0.9172(7) 0.3983(5) 0.7376(9)
C143A C 0.9159(7) 0.4000(5) 0.7737(7)
C144A C 0.9005(13) 0.3760(10) 0.6694(11)
C145A C 0.9012(11) 0.3724(8) 0.6385(9)
C146A C 0.8976(8) 0.3713(6) 0.5989(8)
C147A C 0.9070(9) 0.3924(5) 0.5837(9)
C148A C 0.9128(8) 0.3887(6) 0.5513(9)
C149A C 0.9090(8) 0.3640(7) 0.5341(8)
C150A C 0.8996(9) 0.3429(5) 0.5492(10)
C151A C 0.8939(9) 0.3466(5) 0.5816(10)
C152A C 0.899(2) 0.3175(8) 0.538(2)
C153A C 0.8906(11) 0.2974(7) 0.5190(12)
N18A N 0.8517(10) 0.2264(5) 0.4425(9)
C154A C 0.8817(9) 0.2398(6) 0.4493(9)
C155A C 0.8933(7) 0.2627(6) 0.4745(9)
C156A C 0.8749(8) 0.2722(5) 0.4922(8)
C157A C 0.8454(8) 0.2580(7) 0.4859(10)
C158A C 0.8334(9) 0.2358(7) 0.4602(12)
O16A O 0.8966(9) 0.3209(7) 0.6087(11)
O17A O 0.8445(11) 0.3240(10) 0.5573(14)
C159A C 0.8629(11) 0.3110(8) 0.5870(13)
C160A C 0.8607(18) 0.2857(11) 0.608(2)
N19A N 0.9184(11) 0.3457(6) 0.8498(10)
C161A C 0.9021(9) 0.3243(8) 0.8547(12)
C162A C 0.9202(9) 0.3009(7) 0.8670(11)
C163A C 0.9555(10) 0.2983(6) 0.8770(12)
C164A C 0.9735(9) 0.3198(7) 0.8744(15)
C165A C 0.9527(12) 0.3427(7) 0.8572(17)
C166A C 0.9730(12) 0.2720(7) 0.8901(14)
C167A C 0.9860(13) 0.2509(7) 0.8937(10)
C168A C 1.0059(9) 0.2279(5) 0.8999(12)
C169A C 1.0430(10) 0.2285(7) 0.9166(13)
C170A C 1.0623(6) 0.2053(9) 0.9252(10)
C171A C 1.0444(8) 0.1814(7) 0.9172(12)
C172A C 1.0073(9) 0.1809(5) 0.9005(11)
C173A C 0.9880(6) 0.2041(7) 0.8918(8)
C174A C 0.9869(13) 0.1588(7) 0.8895(13)
C175A C 0.9711(10) 0.1384(6) 0.8799(10)
N20A N 0.9167(8) 0.0639(5) 0.8454(8)
C176A C 0.9531(8) 0.0662(5) 0.8595(8)
C177A C 0.9704(6) 0.0904(6) 0.8725(8)
C178A C 0.9513(8) 0.1123(4) 0.8714(9)
C179A C 0.9149(7) 0.1100(5) 0.8573(9)
C180A C 0.8975(6) 0.0858(6) 0.8443(8)
O18A O 0.9530(7) 0.2043(9) 0.8774(8)
O19A O 0.9395(11) 0.2039(14) 0.8107(13)
C181A C 0.9271(11) 0.2018(15) 0.8319(18)
C182A C 0.8900(12) 0.1979(9) 0.8274(13)
C183A C 0.8784(14) 0.1720(11) 0.8389(16)
N21A N 0.8613(10) 0.1981(11) 0.7796(13)
N22A N 0.8041(8) 0.1710(5) 0.3501(7)
C184A C 0.8192(6) 0.1530(6) 0.3366(9)
C185A C 0.7968(9) 0.1349(5) 0.3049(9)
C186A C 0.7594(8) 0.1347(5) 0.2866(7)
C187A C 0.7444(6) 0.1527(7) 0.3001(11)
C188A C 0.7667(9) 0.1708(6) 0.3318(11)
C189A C 0.7354(12) 0.1150(7) 0.2518(12)
C190A C 0.7240(14) 0.0958(7) 0.2290(13)
C191A C 0.7088(9) 0.0712(6) 0.2099(8)
C192A C 0.7273(9) 0.0501(7) 0.2079(12)
C193A C 0.7097(10) 0.0261(7) 0.1905(14)
C194A C 0.6721(10) 0.0244(6) 0.1694(14)
C195A C 0.6531(8) 0.0453(7) 0.1718(16)
C196A C 0.6721(9) 0.0678(6) 0.1937(13)
C197A C 0.6163(8) 0.0472(8) 0.1537(12)
C198A C 0.5842(7) 0.0485(10) 0.1377(14)
O20A O 0.6591(9) 0.0885(6) 0.2026(10)
O21A O 0.6350(11) 0.1165(8) 0.1554(13)
C199A C 0.6343(9) 0.1078(6) 0.1831(12)
C200A C 0.6142(13) 0.1076(11) 0.2064(17)
C201A C 0.625(3) 0.1232(14) 0.248(3)
N23A N 0.627(2) 0.0812(11) 0.228(2)
N24A N 0.5359(6) 0.3657(7) 0.9310(11)
C202A C 0.5166(8) 0.3792(5) 0.9442(8)
C203A C 0.4797(7) 0.3740(5) 0.9250(9)
C204A C 0.4620(6) 0.3553(6) 0.8925(9)
C205A C 0.4814(9) 0.3419(6) 0.8793(9)
C206A C 0.5183(9) 0.3471(7) 0.8985(11)
C207A C 0.4214(7) 0.3528(9) 0.8679(14)
C208A C 0.3911(7) 0.3469(8) 0.8569(14)
C209A C 0.3535(6) 0.3479(6) 0.8401(8)
C210A C 0.3376(9) 0.3654(5) 0.8532(9)
C211A C 0.3012(9) 0.3623(7) 0.8390(11)
C212A C 0.2808(6) 0.3417(9) 0.8116(12)
C213A C 0.2967(9) 0.3243(7) 0.7985(10)
C214A C 0.3331(9) 0.3274(5) 0.8127(8)
O23A O 0.3507(8) 0.3110(6) 0.8008(9)
C215A C 0.3704(11) 0.2889(8) 0.8142(13)
C216A C 0.3864(12) 0.2849(9) 0.7870(13)
C217A C 0.4153(14) 0.3047(12) 0.7893(18)
N25A N 0.3568(14) 0.291(2) 0.7408(14)
C218A C 0.3796(18) 0.2932(14) 0.7249(17)
N26A N 0.5902(11) 0.3411(8) 0.9910(15)
C219A C 0.5833(9) 0.3163(10) 0.9739(12)
C220A C 0.5973(10) 0.2940(8) 0.9988(16)
C221A C 0.6208(15) 0.2961(7) 1.0435(15)
C222A C 0.6250(13) 0.3207(9) 1.0620(13)
C223A C 0.6105(14) 0.3429(7) 1.0362(16)
C224A C 0.6354(16) 0.2719(10) 1.071(2)
C225A C 0.6491(15) 0.2527(8) 1.0933(19)
C226A C 0.6615(13) 0.2293(6) 1.1181(11)
C227A C 0.6848(13) 0.2296(8) 1.1627(12)
C228A C 0.6947(13) 0.2069(10) 1.1877(10)
C229A C 0.6900(13) 0.1832(8) 1.1669(11)
C230A C 0.6701(13) 0.1823(6) 1.1220(11)
C231A C 0.6547(13) 0.2050(7) 1.0973(9)
C232A C 0.6590(15) 0.1595(8) 1.0991(19)
C233A C 0.6482(17) 0.1406(11) 1.077(2)
N27A N 0.6048(16) 0.0725(10) 0.990(2)
C234A C 0.6246(14) 0.0709(7) 1.035(2)
C235A C 0.6389(12) 0.0927(9) 1.0620(15)
C236A C 0.6335(13) 0.1176(8) 1.0442(15)
C237A C 0.6147(15) 0.1195(9) 0.9996(16)
C238A C 0.5993(16) 0.0976(12) 0.9733(15)
O24A O 0.6446(10) 0.2048(10) 1.0562(9)
O25A O 0.6871(13) 0.209(2) 1.052(2)
C239A C 0.6556(14) 0.2098(12) 1.0302(14)
C240A C 0.6227(17) 0.2155(16) 0.9834(14)
C241A C 0.595(2) 0.194(2) 0.950(2)
N28A N 0.639(2) 0.2227(17) 0.959(2)
N32A N 0.5010(8) -0.1380(7) 0.4491(8)
C265A C 0.5001(9) -0.1604(5) 0.4280(10)
C266A C 0.5040(12) -0.1592(6) 0.3939(12)
C267A C 0.5039(10) -0.1349(7) 0.3774(10)
C268A C 0.5001(12) -0.1123(6) 0.3952(12)
C269A C 0.4956(10) -0.1140(6) 0.4292(11)
C270A C 0.5099(19) -0.1339(11) 0.3420(16)
C271A C 0.5076(13) -0.1353(10) 0.3086(12)
N33A N 0.5738(7) 0.0075(6) 0.9141(11)
C272A C 0.5668(7) 0.0090(5) 0.8731(12)
C273A C 0.5593(7) -0.0136(8) 0.8490(8)
C274A C 0.5588(7) -0.0377(6) 0.8658(13)
C275A C 0.5658(8) -0.0392(6) 0.9067(14)
C276A C 0.5733(8) -0.0166(9) 0.9309(9)
C277A C 0.5419(12) -0.0586(9) 0.8349(14)
C278A C 0.5234(11) -0.0779(9) 0.8167(12)
C279A C 0.5131(6) -0.1028(5) 0.7936(9)
C280A C 0.5050(8) -0.1232(7) 0.8113(8)
C281A C 0.4931(8) -0.1470(5) 0.7900(12)
C282A C 0.4893(8) -0.1505(5) 0.7510(11)
C283A C 0.5026(8) -0.1302(7) 0.2667(8)
C284A C 0.5093(7) -0.1063(6) 0.7545(10)
O27A O 0.5133(8) -0.0812(6) 0.7346(11)
O28A O 0.4614(7) -0.0661(6) 0.7077(9)
C285A C 0.4891(10) -0.0615(7) 0.7130(14)
C286A C 0.5022(11) -0.0428(8) 0.6910(13)
C287A C 0.520(2) -0.0151(11) 0.710(2)
N34A N 0.4666(16) -0.0323(10) 0.6524(15)
C288A C 0.4590(13) -0.0510(11) 0.6194(15)
N35A N 0.7968(10) 0.2290(7) 0.3499(11)
C289A C 0.7664(11) 0.2410(8) 0.3444(13)
C290A C 0.7481(9) 0.2603(8) 0.3129(13)
C291A C 0.7598(8) 0.2673(6) 0.2870(9)
C292A C 0.7887(9) 0.2540(7) 0.2898(10)
C293A C 0.8089(9) 0.2369(8) 0.3244(13)
C294A C 0.7406(16) 0.2895(9) 0.2560(16)
C295A C 0.274(2) 0.3082(10) 0.766(2)
N36A N 0.5326(7) 0.0433(8) 0.9281(11)
C296A C 0.5125(10) 0.0609(8) 0.8944(15)
C297A C 0.4749(9) 0.0635(7) 0.8748(10)
C298A C 0.5431(6) 0.0471(8) 0.1143(11)
C299A C 0.5229(10) 0.0297(9) 0.0800(14)
C300A C 0.5143(10) 0.0259(7) 0.9377(12)
O64A O 0.580(3) 0.163(2) 0.928(3)
loop_
_geom_bond_atom_site_label_1
_geom_bond_atom_site_label_2
_geom_bond_site_symmetry_1
_geom_bond_site_symmetry_2
Pd1 N4 1_555 1_555
Pd2 N5 1_555 1_555
Pd3 N1 1_555 1_555
Pd4 N12 1_555 1_555
Pd5 N7 1_555 1_555
Pd6 N2 1_555 1_555
Pd7 N14 1_555 1_555
N1 C1 1_555 1_555
C1 C2 1_555 1_555
C2 C3 1_555 1_555
C3 C4 1_555 1_555
C4 C5 1_555 1_555
C5 N1 1_555 1_555
C6 C3 1_555 1_555
C7 C6 1_555 1_555
C8 C7 1_555 1_555
C9 C8 1_555 1_555
C10 C9 1_555 1_555
C11 C10 1_555 1_555
C12 C11 1_555 1_555
C13 C8 1_555 1_555
C14 C12 1_555 1_555
C15 C14 1_555 1_555
N2 C16 1_555 1_555
C16 C17 1_555 1_555
C17 C18 1_555 1_555
C18 C15 1_555 1_555
C19 C18 1_555 1_555
C20 N2 1_555 1_555
O1 C13 1_555 1_555
O2 C21 1_555 1_555
C21 O1 1_555 1_555
C22 C21 1_555 1_555
C23 C22 1_555 1_555
N3 C22 1_555 1_555
C24 N3 1_555 1_555
O3 C24 1_555 1_555
O4 C24 1_555 1_555
N4 C26 1_555 1_555
C26 C27 1_555 1_555
C27 C28 1_555 1_555
C28 C29 1_555 1_555
C29 C30 1_555 1_555
C30 N4 1_555 1_555
C31 C28 1_555 1_555
C32 C31 1_555 1_555
C33 C32 1_555 1_555
C34 C33 1_555 1_555
C35 C34 1_555 1_555
C36 C35 1_555 1_555
C37 C36 1_555 1_555
C38 C33 1_555 1_555
C39 C37 1_555 1_555
C40 C39 1_555 1_555
N5 C41 1_555 1_555
C41 C42 1_555 1_555
C42 C43 1_555 1_555
C43 C40 1_555 1_555
C44 C43 1_555 1_555
C45 N5 1_555 1_555
O6 C38 1_555 1_555
O7 C46 1_555 1_555
C46 O6 1_555 1_555
C47 C46 1_555 1_555
N6 Pd1 1_555 1_555
C48 N6 1_555 1_555
C49 C48 1_555 1_555
C50 C49 1_555 1_555
C51 C50 1_555 1_555
C52 N6 1_555 1_555
C53 C50 1_555 1_555
C54 C53 1_555 1_555
C55 C54 1_555 1_555
C56 C55 1_555 1_555
C57 C56 1_555 1_555
C58 C57 1_555 1_555
C59 C58 1_555 1_555
C60 C55 1_555 1_555
C61 C59 1_555 1_555
C62 C61 1_555 1_555
N7 C63 1_555 1_555
C63 C64 1_555 1_555
C64 C65 1_555 1_555
C65 C62 1_555 1_555
C66 C65 1_555 1_555
C67 N7 1_555 1_555
O8 C60 1_555 1_555
O9 C68 1_555 1_555
C68 O8 1_555 1_555
C69 C68 1_555 1_555
C70 C69 1_555 1_555
N8 Pd5 1_555 1_555
C71 N8 1_555 1_555
C72 C71 1_555 1_555
C73 C72 1_555 1_555
C74 C73 1_555 1_555
C75 N8 1_555 1_555
C76 C73 1_555 1_555
C77 C76 1_555 1_555
C78 C77 1_555 1_555
C79 C78 1_555 1_555
C80 C79 1_555 1_555
C81 C80 1_555 1_555
C82 C81 1_555 1_555
C83 C78 1_555 1_555
C84 C82 1_555 1_555
C85 C84 1_555 1_555
N9 Pd2 1_555 1_555
C86 N9 1_555 1_555
C87 C86 1_555 1_555
C88 C85 1_555 1_555
C89 C88 1_555 1_555
C90 N9 1_555 1_555
O10 C83 1_555 1_555
O11 C91 1_555 1_555
C91 O10 1_555 1_555
C92 C91 1_555 1_555
C93 C92 1_555 1_555
N10 C92 1_555 1_555
N11 Pd3 1_555 1_555
C94 N11 1_555 1_555
C95 C94 1_555 1_555
C96 C95 1_555 1_555
C97 C96 1_555 1_555
C98 N11 1_555 1_555
C99 C96 1_555 1_555
C100 C99 1_555 1_555
C101 C100 1_555 1_555
C102 C101 1_555 1_555
C103 C102 1_555 1_555
C104 C103 1_555 1_555
C105 C104 1_555 1_555
C106 C101 1_555 1_555
C107 C105 1_555 1_555
C108 C107 1_555 1_555
N12 C109 1_555 1_555
C109 C110 1_555 1_555
C110 C111 1_555 1_555
C111 C108 1_555 1_555
C112 C111 1_555 1_555
C113 N12 1_555 1_555
O12 C106 1_555 1_555
O13 C114 1_555 1_555
C114 O12 1_555 1_555
C115 C114 1_555 1_555
C116 C115 1_555 1_555
N13 C115 1_555 1_555
N14 C117 1_555 1_555
C117 C118 1_555 1_555
C118 C119 1_555 1_555
C119 C120 1_555 1_555
C120 C121 1_555 1_555
C121 N14 1_555 1_555
C122 C119 1_555 1_555
C123 C122 1_555 1_555
C124 C123 1_555 1_555
C125 C124 1_555 1_555
C126 C125 1_555 1_555
C127 C126 1_555 1_555
C128 C127 1_555 1_555
C129 C124 1_555 1_555
C130 C128 1_555 1_555
C131 C130 1_555 1_555
N15 Pd3 1_555 1_555
C132 N15 1_555 1_555
C133 C132 1_555 1_555
C134 C131 1_555 1_555
C135 C134 1_555 1_555
C136 N15 1_555 1_555
O14 C129 1_555 1_555
O15 C137 1_555 1_555
C137 O14 1_555 1_555
C138 C137 1_555 1_555
N16 C138 1_555 1_555
N17 Pd5 1_555 1_555
C139 N17 1_555 1_555
C140 C139 1_555 1_555
C141 C140 1_555 1_555
C142 C141 1_555 1_555
C143 N17 1_555 1_555
C144 C141 1_555 1_555
C145 C144 1_555 1_555
C146 C145 1_555 1_555
C147 C146 1_555 1_555
C148 C147 1_555 1_555
C149 C148 1_555 1_555
C150 C149 1_555 1_555
C151 C146 1_555 1_555
C152 C150 1_555 1_555
C153 C152 1_555 1_555
N18 Pd6 1_555 1_555
C154 N18 1_555 1_555
C155 C154 1_555 1_555
C156 C153 1_555 1_555
C157 C156 1_555 1_555
C158 N18 1_555 1_555
O16 C151 1_555 1_555
O17 C159 1_555 1_555
C159 O16 1_555 1_555
C160 C159 1_555 1_555
N19 Pd5 1_555 1_555
C161 N19 1_555 1_555
C162 C161 1_555 1_555
C163 C162 1_555 1_555
C164 C163 1_555 1_555
C165 N19 1_555 1_555
C166 C163 1_555 1_555
C167 C166 1_555 1_555
C168 C167 1_555 1_555
C169 C168 1_555 1_555
C170 C169 1_555 1_555
C171 C170 1_555 1_555
C172 C171 1_555 1_555
C173 C168 1_555 1_555
C174 C172 1_555 1_555
C175 C174 1_555 1_555
N20 Pd3 1_555 1_555
C176 N20 1_555 1_555
C177 C176 1_555 1_555
C178 C175 1_555 1_555
C179 C178 1_555 1_555
C180 N20 1_555 1_555
O18 C173 1_555 1_555
O19 C181 1_555 1_555
C181 O18 1_555 1_555
C182 C181 1_555 1_555
C183 C182 1_555 1_555
N21 C182 1_555 1_555
N22 Pd6 1_555 1_555
C184 N22 1_555 1_555
C185 C184 1_555 1_555
C186 C185 1_555 1_555
C187 C186 1_555 1_555
C188 N22 1_555 1_555
C189 C186 1_555 1_555
C190 C189 1_555 1_555
C191 C190 1_555 1_555
C192 C191 1_555 1_555
C193 C192 1_555 1_555
C194 C193 1_555 1_555
C195 C194 1_555 1_555
C196 C191 1_555 1_555
C197 C195 1_555 1_555
C198 C197 1_555 1_555
O20 C196 1_555 1_555
O21 C199 1_555 1_555
C199 O20 1_555 1_555
C200 C199 1_555 1_555
C201 C200 1_555 1_555
N23 C200 1_555 1_555
N24 Pd2 1_555 1_555
C202 N24 1_555 1_555
C203 C202 1_555 1_555
C204 C203 1_555 1_555
C205 C204 1_555 1_555
C206 N24 1_555 1_555
C207 C204 1_555 1_555
C208 C207 1_555 1_555
C209 C208 1_555 1_555
C210 C209 1_555 1_555
C211 C210 1_555 1_555
C212 C211 1_555 1_555
C213 C212 1_555 1_555
C214 C209 1_555 1_555
O23 C214 1_555 1_555
C215 O23 1_555 1_555
C216 C215 1_555 1_555
C217 C216 1_555 1_555
N25 C216 1_555 1_555
C218 N25 1_555 1_555
N26 Pd2 1_555 1_555
C219 N26 1_555 1_555
C220 C219 1_555 1_555
C221 C220 1_555 1_555
C222 C221 1_555 1_555
C223 N26 1_555 1_555
C224 C221 1_555 1_555
C225 C224 1_555 1_555
C226 C225 1_555 1_555
C227 C226 1_555 1_555
C228 C227 1_555 1_555
C229 C228 1_555 1_555
C230 C229 1_555 1_555
C231 C226 1_555 1_555
C232 C230 1_555 1_555
C233 C232 1_555 1_555
N27 Pd4 1_555 1_555
C234 N27 1_555 1_555
C235 C234 1_555 1_555
C236 C233 1_555 1_555
C237 C236 1_555 1_555
C238 N27 1_555 1_555
O24 C231 1_555 1_555
O25 C239 1_555 1_555
C239 O24 1_555 1_555
C240 C239 1_555 1_555
C241 C240 1_555 1_555
N28 C240 1_555 1_555
N32 Pd7 1_555 1_555
C265 N32 1_555 1_555
C266 C265 1_555 1_555
C267 C266 1_555 1_555
C268 C267 1_555 1_555
C269 N32 1_555 1_555
C270 C267 1_555 1_555
C271 C270 1_555 1_555
N33 Pd4 1_555 1_555
C272 N33 1_555 1_555
C273 C272 1_555 1_555
C274 C273 1_555 1_555
C275 C274 1_555 1_555
C276 N33 1_555 1_555
C277 C274 1_555 1_555
C278 C277 1_555 1_555
C279 C278 1_555 1_555
C280 C279 1_555 1_555
C281 C280 1_555 1_555
C282 C281 1_555 1_555
C283 C271 1_555 1_555
C284 C279 1_555 1_555
O27 C284 1_555 1_555
O28 C285 1_555 1_555
C285 O27 1_555 1_555
C286 C285 1_555 1_555
C287 C286 1_555 1_555
N34 C286 1_555 1_555
C288 N34 1_555 1_555
N35 Pd6 1_555 1_555
C289 N35 1_555 1_555
C290 C289 1_555 1_555
C291 C290 1_555 1_555
C292 C291 1_555 1_555
C293 N35 1_555 1_555
C294 C291 1_555 1_555
C295 C213 1_555 1_555
N36 Pd4 1_555 1_555
C296 N36 1_555 1_555
C297 C296 1_555 1_555
C298 C198 1_555 1_555
C299 C298 1_555 1_555
C300 N36 1_555 1_555
C301 F1 1_555 1_555
F2 C301 1_555 1_555
F3 C301 1_555 1_555
S1 C301 1_555 1_555
O29 S1 1_555 1_555
O30 S1 1_555 1_555
O31 S1 1_555 1_555
C302 F4 1_555 1_555
F5 C302 1_555 1_555
F6 C302 1_555 1_555
S2 C302 1_555 1_555
O32 S2 1_555 1_555
O33 S2 1_555 1_555
O34 S2 1_555 1_555
C303 F7 1_555 1_555
F8 C303 1_555 1_555
F9 C303 1_555 1_555
S3 C303 1_555 1_555
O35 S3 1_555 1_555
O36 S3 1_555 1_555
O37 S3 1_555 1_555
C304 F10 1_555 1_555
F11 C304 1_555 1_555
F12 C304 1_555 1_555
S5 C304 1_555 1_555
O41 S5 1_555 1_555
O42 S5 1_555 1_555
O43 S5 1_555 1_555
O64 C241 1_555 1_555
O97 C306 1_555 1_555
C306 C307 1_555 1_555
C307 O98 1_555 1_555
O98 C308 1_555 1_555
C308 C309 1_555 1_555
C309 O97 1_555 1_555
O99 C310 1_555 1_555
C310 C311 1_555 1_555
C311 O100 1_555 1_555
O100 C312 1_555 1_555
C312 C313 1_555 1_555
C313 O99 1_555 1_555
O101 C314 1_555 1_555
C314 C315 1_555 1_555
C315 O102 1_555 1_555
O102 C315A 1_555 1_555
C318 C319 1_555 1_555
N37 C318 1_555 1_555
Pd2A N5A 1_555 1_555
Pd3A N1A 1_555 1_555
Pd4A N12A 1_555 1_555
Pd5A N7A 1_555 1_555
Pd6A N2A 1_555 1_555
N1A C1A 1_555 1_555
C1A C2A 1_555 1_555
C2A C3A 1_555 1_555
C3A C4A 1_555 1_555
C4A C5A 1_555 1_555
C5A N1A 1_555 1_555
C6A C3A 1_555 1_555
C7A C6A 1_555 1_555
C8A C7A 1_555 1_555
C9A C8A 1_555 1_555
C10A C9A 1_555 1_555
C11A C10A 1_555 1_555
C12A C11A 1_555 1_555
C13A C8A 1_555 1_555
C14A C12A 1_555 1_555
C15A C14A 1_555 1_555
N2A C16A 1_555 1_555
C16A C17A 1_555 1_555
C17A C18A 1_555 1_555
C18A C15A 1_555 1_555
C19A C18A 1_555 1_555
C20A N2A 1_555 1_555
O1A C13A 1_555 1_555
O2A C21A 1_555 1_555
C21A O1A 1_555 1_555
C22A C21A 1_555 1_555
C23A C22A 1_555 1_555
N3A C22A 1_555 1_555
C24A N3A 1_555 1_555
O3A C24A 1_555 1_555
O4A C24A 1_555 1_555
N4A Pd1 1_555 1_555
C26A N4A 1_555 1_555
C27A C26A 1_555 1_555
C28A C27A 1_555 1_555
C29A C28A 1_555 1_555
C30A N4A 1_555 1_555
C31A C28A 1_555 1_555
C32A C31A 1_555 1_555
C33A C32A 1_555 1_555
C34A C33A 1_555 1_555
C35A C34A 1_555 1_555
C36A C35A 1_555 1_555
C37A C36A 1_555 1_555
C38A C33A 1_555 1_555
C39A C37A 1_555 1_555
C40A C39A 1_555 1_555
N5A C41A 1_555 1_555
C41A C42A 1_555 1_555
C42A C43A 1_555 1_555
C43A C40A 1_555 1_555
C44A C43A 1_555 1_555
C45A N5A 1_555 1_555
O6A C38A 1_555 1_555
O7A C46A 1_555 1_555
C46A O6A 1_555 1_555
C47A C46A 1_555 1_555
N6A Pd1 1_555 1_555
C48A N6A 1_555 1_555
C49A C48A 1_555 1_555
C50A C49A 1_555 1_555
C51A C50A 1_555 1_555
C52A N6A 1_555 1_555
C53A C50A 1_555 1_555
C54A C53A 1_555 1_555
C55A C54A 1_555 1_555
C56A C55A 1_555 1_555
C57A C56A 1_555 1_555
C58A C57A 1_555 1_555
C59A C58A 1_555 1_555
C60A C55A 1_555 1_555
C61A C59A 1_555 1_555
C62A C61A 1_555 1_555
N7A C63A 1_555 1_555
C63A C64A 1_555 1_555
C64A C65A 1_555 1_555
C65A C62A 1_555 1_555
C66A C65A 1_555 1_555
C67A N7A 1_555 1_555
O8A C60A 1_555 1_555
O9A C68A 1_555 1_555
C68A O8A 1_555 1_555
C69A C68A 1_555 1_555
C70A C69A 1_555 1_555
N8A Pd5A 1_555 1_555
C71A N8A 1_555 1_555
C72A C71A 1_555 1_555
C73A C72A 1_555 1_555
C74A C73A 1_555 1_555
C75A N8A 1_555 1_555
C76A C73A 1_555 1_555
C77A C76A 1_555 1_555
C78A C77A 1_555 1_555
C79A C78A 1_555 1_555
C80A C79A 1_555 1_555
C81A C80A 1_555 1_555
C82A C81A 1_555 1_555
C83A C78A 1_555 1_555
C84A C82A 1_555 1_555
C85A C84A 1_555 1_555
N9A Pd2A 1_555 1_555
C86A N9A 1_555 1_555
C87A C86A 1_555 1_555
C88A C85A 1_555 1_555
C89A C88A 1_555 1_555
C90A N9A 1_555 1_555
O10A C83A 1_555 1_555
O11A C91A 1_555 1_555
C91A O10A 1_555 1_555
C92A C91A 1_555 1_555
C93A C92A 1_555 1_555
N10A C92A 1_555 1_555
N11A Pd3A 1_555 1_555
C94A N11A 1_555 1_555
C95A C94A 1_555 1_555
C96A C95A 1_555 1_555
C97A C96A 1_555 1_555
C98A N11A 1_555 1_555
C99A C96A 1_555 1_555
C100A C99A 1_555 1_555
C101A C100A 1_555 1_555
C102A C101A 1_555 1_555
C103A C102A 1_555 1_555
C104A C103A 1_555 1_555
C105A C104A 1_555 1_555
C106A C101A 1_555 1_555
C107A C105A 1_555 1_555
C108A C107A 1_555 1_555
N12A C109A 1_555 1_555
C109A C110A 1_555 1_555
C110A C111A 1_555 1_555
C111A C108A 1_555 1_555
C112A C111A 1_555 1_555
C113A N12A 1_555 1_555
O12A C106A 1_555 1_555
O13A C114A 1_555 1_555
C114A O12A 1_555 1_555
C115A C114A 1_555 1_555
C116A C115A 1_555 1_555
N13A C115A 1_555 1_555
N14A Pd7 1_555 1_555
C117A N14A 1_555 1_555
C118A C117A 1_555 1_555
C119A C118A 1_555 1_555
C120A C119A 1_555 1_555
C121A N14A 1_555 1_555
C122A C119A 1_555 1_555
C123A C122A 1_555 1_555
C124A C123A 1_555 1_555
C125A C124A 1_555 1_555
C126A C125A 1_555 1_555
C127A C126A 1_555 1_555
C128A C127A 1_555 1_555
C129A C124A 1_555 1_555
C130A C128A 1_555 1_555
C131A C130A 1_555 1_555
N15A Pd3A 1_555 1_555
C132A N15A 1_555 1_555
C133A C132A 1_555 1_555
C134A C131A 1_555 1_555
C135A C134A 1_555 1_555
C136A N15A 1_555 1_555
O14A C129A 1_555 1_555
O15A C137A 1_555 1_555
C137A O14A 1_555 1_555
C138A C137A 1_555 1_555
N16A C138A 1_555 1_555
N17A Pd5A 1_555 1_555
C139A N17A 1_555 1_555
C140A C139A 1_555 1_555
C141A C140A 1_555 1_555
C142A C141A 1_555 1_555
C143A N17A 1_555 1_555
C144A C141A 1_555 1_555
C145A C144A 1_555 1_555
C146A C145A 1_555 1_555
C147A C146A 1_555 1_555
C148A C147A 1_555 1_555
C149A C148A 1_555 1_555
C150A C149A 1_555 1_555
C151A C146A 1_555 1_555
C152A C150A 1_555 1_555
C153A C152A 1_555 1_555
N18A Pd6A 1_555 1_555
C154A N18A 1_555 1_555
C155A C154A 1_555 1_555
C156A C153A 1_555 1_555
C157A C156A 1_555 1_555
C158A N18A 1_555 1_555
O16A C151A 1_555 1_555
O17A C159A 1_555 1_555
C159A O16A 1_555 1_555
C160A C159A 1_555 1_555
N19A Pd5A 1_555 1_555
C161A N19A 1_555 1_555
C162A C161A 1_555 1_555
C163A C162A 1_555 1_555
C164A C163A 1_555 1_555
C165A N19A 1_555 1_555
C166A C163A 1_555 1_555
C167A C166A 1_555 1_555
C168A C167A 1_555 1_555
C169A C168A 1_555 1_555
C170A C169A 1_555 1_555
C171A C170A 1_555 1_555
C172A C171A 1_555 1_555
C173A C168A 1_555 1_555
C174A C172A 1_555 1_555
C175A C174A 1_555 1_555
N20A Pd3A 1_555 1_555
C176A N20A 1_555 1_555
C177A C176A 1_555 1_555
C178A C175A 1_555 1_555
C179A C178A 1_555 1_555
C180A N20A 1_555 1_555
O18A C173A 1_555 1_555
O19A C181A 1_555 1_555
C181A O18A 1_555 1_555
C182A C181A 1_555 1_555
C183A C182A 1_555 1_555
N21A C182A 1_555 1_555
N22A Pd6A 1_555 1_555
C184A N22A 1_555 1_555
C185A C184A 1_555 1_555
C186A C185A 1_555 1_555
C187A C186A 1_555 1_555
C188A N22A 1_555 1_555
C189A C186A 1_555 1_555
C190A C189A 1_555 1_555
C191A C190A 1_555 1_555
C192A C191A 1_555 1_555
C193A C192A 1_555 1_555
C194A C193A 1_555 1_555
C195A C194A 1_555 1_555
C196A C191A 1_555 1_555
C197A C195A 1_555 1_555
C198A C197A 1_555 1_555
O20A C196A 1_555 1_555
O21A C199A 1_555 1_555
C199A O20A 1_555 1_555
C200A C199A 1_555 1_555
C201A C200A 1_555 1_555
N23A C200A 1_555 1_555
N24A Pd2A 1_555 1_555
C202A N24A 1_555 1_555
C203A C202A 1_555 1_555
C204A C203A 1_555 1_555
C205A C204A 1_555 1_555
C206A N24A 1_555 1_555
C207A C204A 1_555 1_555
C208A C207A 1_555 1_555
C209A C208A 1_555 1_555
C210A C209A 1_555 1_555
C211A C210A 1_555 1_555
C212A C211A 1_555 1_555
C213A C212A 1_555 1_555
C214A C209A 1_555 1_555
O23A C214A 1_555 1_555
C215A O23A 1_555 1_555
C216A C215A 1_555 1_555
C217A C216A 1_555 1_555
N25A C216A 1_555 1_555
C218A N25A 1_555 1_555
N26A Pd2A 1_555 1_555
C219A N26A 1_555 1_555
C220A C219A 1_555 1_555
C221A C220A 1_555 1_555
C222A C221A 1_555 1_555
C223A N26A 1_555 1_555
C224A C221A 1_555 1_555
C225A C224A 1_555 1_555
C226A C225A 1_555 1_555
C227A C226A 1_555 1_555
C228A C227A 1_555 1_555
C229A C228A 1_555 1_555
C230A C229A 1_555 1_555
C231A C226A 1_555 1_555
C232A C230A 1_555 1_555
C233A C232A 1_555 1_555
N27A Pd4A 1_555 1_555
C234A N27A 1_555 1_555
C235A C234A 1_555 1_555
C236A C233A 1_555 1_555
C237A C236A 1_555 1_555
C238A N27A 1_555 1_555
O24A C231A 1_555 1_555
O25A C239A 1_555 1_555
C239A O24A 1_555 1_555
C240A C239A 1_555 1_555
C241A C240A 1_555 1_555
N28A C240A 1_555 1_555
N32A Pd7 1_555 1_555
C265A N32A 1_555 1_555
C266A C265A 1_555 1_555
C267A C266A 1_555 1_555
C268A C267A 1_555 1_555
C269A N32A 1_555 1_555
C270A C267A 1_555 1_555
C271A C270A 1_555 1_555
N33A Pd4A 1_555 1_555
C272A N33A 1_555 1_555
C273A C272A 1_555 1_555
C274A C273A 1_555 1_555
C275A C274A 1_555 1_555
C276A N33A 1_555 1_555
C277A C274A 1_555 1_555
C278A C277A 1_555 1_555
C279A C278A 1_555 1_555
C280A C279A 1_555 1_555
C281A C280A 1_555 1_555
C282A C283 1_555 1_555
C283A C282 1_555 1_555
C284A C283 1_555 1_555
O27A C284A 1_555 1_555
O28A C285A 1_555 1_555
C285A O27A 1_555 1_555
C286A C285A 1_555 1_555
C287A C286A 1_555 1_555
N34A C286A 1_555 1_555
C288A N34A 1_555 1_555
N35A Pd6A 1_555 1_555
C289A N35A 1_555 1_555
C290A C289A 1_555 1_555
C291A C290A 1_555 1_555
C292A C291A 1_555 1_555
C293A N35A 1_555 1_555
C294A C295 1_555 1_555
C295A C294 1_555 1_555
N36A Pd4A 1_555 1_555
C296A N36A 1_555 1_555
C297A C298 1_555 1_555
C298A C297 1_555 1_555
C299A C300 1_555 1_555
C300A C299 1_555 1_555
O64A C241A 1_555 1_555
C314A O101 1_555 1_555
C315A C314A 1_555 1_555
C12 C13 1_555 1_555
C19 C20 1_555 1_555
C37 C38 1_555 1_555
C44 C45 1_555 1_555
C51 C52 1_555 1_555
C59 C60 1_555 1_555
C66 C67 1_555 1_555
C74 C75 1_555 1_555
C82 C83 1_555 1_555
C87 C88 1_555 1_555
C89 C90 1_555 1_555
C97 C98 1_555 1_555
C105 C106 1_555 1_555
C112 C113 1_555 1_555
C128 C129 1_555 1_555
C133 C134 1_555 1_555
C135 C136 1_555 1_555
C142 C143 1_555 1_555
C150 C151 1_555 1_555
C155 C156 1_555 1_555
C157 C158 1_555 1_555
C164 C165 1_555 1_555
C172 C173 1_555 1_555
C177 C178 1_555 1_555
C179 C180 1_555 1_555
C187 C188 1_555 1_555
C195 C196 1_555 1_555
C205 C206 1_555 1_555
C213 C214 1_555 1_555
C222 C223 1_555 1_555
C230 C231 1_555 1_555
C235 C236 1_555 1_555
C237 C238 1_555 1_555
C268 C269 1_555 1_555
C275 C276 1_555 1_555
C284 C283A 1_555 1_555
C292 C293 1_555 1_555
C12A C13A 1_555 1_555
C19A C20A 1_555 1_555
C29A C30A 1_555 1_555
C37A C38A 1_555 1_555
C44A C45A 1_555 1_555
C51A C52A 1_555 1_555
C59A C60A 1_555 1_555
C66A C67A 1_555 1_555
C74A C75A 1_555 1_555
C82A C83A 1_555 1_555
C87A C88A 1_555 1_555
C89A C90A 1_555 1_555
C97A C98A 1_555 1_555
C105A C106A 1_555 1_555
C112A C113A 1_555 1_555
C120A C121A 1_555 1_555
C128A C129A 1_555 1_555
C133A C134A 1_555 1_555
C135A C136A 1_555 1_555
C142A C143A 1_555 1_555
C150A C151A 1_555 1_555
C155A C156A 1_555 1_555
C157A C158A 1_555 1_555
C164A C165A 1_555 1_555
C172A C173A 1_555 1_555
C177A C178A 1_555 1_555
C179A C180A 1_555 1_555
C187A C188A 1_555 1_555
C195A C196A 1_555 1_555
C198A C298A 1_555 1_555
C205A C206A 1_555 1_555
C213A C214A 1_555 1_555
C213A C295A 1_555 1_555
C222A C223A 1_555 1_555
C230A C231A 1_555 1_555
C235A C236A 1_555 1_555
C237A C238A 1_555 1_555
C268A C269A 1_555 1_555
C271A C283A 1_555 1_555
C275A C276A 1_555 1_555
C279A C284A 1_555 1_555
C281A C282A 1_555 1_555
C291A C294A 1_555 1_555
C292A C293A 1_555 1_555
N36A C300A 1_555 1_555
C296A C297A 1_555 1_555
C298A C299A 1_555 1_555

#END
