# generated using pymatgen
data_ZnH29C27N3O2
_symmetry_space_group_name_H-M   'P 1'
_cell_length_a   14.33860000
_cell_length_b   32.95630000
_cell_length_c   33.29010000
_cell_angle_alpha   107.09900000
_cell_angle_beta   90.00000000
_cell_angle_gamma   90.00000000
_symmetry_Int_Tables_number   1
_chemical_formula_structural   ZnH29C27N3O2
_chemical_formula_sum   'Zn16 H464 C432 N48 O32'
_cell_volume   15035.79794360
_cell_formula_units_Z   16
loop_
 _symmetry_equiv_pos_site_id
 _symmetry_equiv_pos_as_xyz
  1  'x, y, z'
loop_
 _atom_site_type_symbol
 _atom_site_label
 _atom_site_symmetry_multiplicity
 _atom_site_fract_x
 _atom_site_fract_y
 _atom_site_fract_z
 _atom_site_occupancy
  Zn  Zn1  1  0.811160  0.709639  0.892473  1
  Zn  Zn2  1  0.311160  0.290361  0.607527  1
  Zn  Zn3  1  0.188840  0.290361  0.107527  1
  Zn  Zn4  1  0.688840  0.709639  0.392473  1
  Zn  Zn5  1  0.801930  0.593874  0.671279  1
  Zn  Zn6  1  0.301930  0.406126  0.828721  1
  Zn  Zn7  1  0.198070  0.406126  0.328721  1
  Zn  Zn8  1  0.698070  0.593874  0.171279  1
  Zn  Zn9  1  0.825390  0.784818  0.605929  1
  Zn  Zn10  1  0.325390  0.215182  0.894071  1
  Zn  Zn11  1  0.174610  0.215182  0.394071  1
  Zn  Zn12  1  0.674610  0.784818  0.105929  1
  Zn  Zn13  1  0.805530  0.901997  0.827063  1
  Zn  Zn14  1  0.305530  0.098003  0.672937  1
  Zn  Zn15  1  0.194470  0.098003  0.172937  1
  Zn  Zn16  1  0.694470  0.901997  0.327063  1
  H  H17  1  0.558800  0.778100  0.009200  1
  H  H18  1  0.058800  0.221900  0.490800  1
  H  H19  1  0.441200  0.221900  0.990800  1
  H  H20  1  0.941200  0.778100  0.509200  1
  H  H21  1  0.507900  0.731700  0.044600  1
  H  H22  1  0.007900  0.268300  0.455400  1
  H  H23  1  0.492100  0.268300  0.955400  1
  H  H24  1  0.992100  0.731700  0.544600  1
  H  H25  1  0.560800  0.662100  0.024400  1
  H  H26  1  0.060800  0.337900  0.475600  1
  H  H27  1  0.439200  0.337900  0.975600  1
  H  H28  1  0.939200  0.662100  0.524400  1
  H  H29  1  0.640100  0.793800  0.956600  1
  H  H30  1  0.140100  0.206200  0.543400  1
  H  H31  1  0.359900  0.206200  0.043400  1
  H  H32  1  0.859900  0.793800  0.456600  1
  H  H33  1  0.616300  0.826400  0.909700  1
  H  H34  1  0.116300  0.173600  0.590300  1
  H  H35  1  0.383700  0.173600  0.090300  1
  H  H36  1  0.883700  0.826400  0.409700  1
  H  H37  1  0.490100  0.485400  0.559200  1
  H  H38  1  0.990100  0.514600  0.940800  1
  H  H39  1  0.509900  0.514600  0.440800  1
  H  H40  1  0.009900  0.485400  0.059200  1
  H  H41  1  0.387600  0.509700  0.616200  1
  H  H42  1  0.887600  0.490300  0.883800  1
  H  H43  1  0.612400  0.490300  0.383800  1
  H  H44  1  0.112400  0.509700  0.116200  1
  H  H45  1  0.442000  0.551300  0.679800  1
  H  H46  1  0.942000  0.448700  0.820200  1
  H  H47  1  0.558000  0.448700  0.320200  1
  H  H48  1  0.058000  0.551300  0.179800  1
  H  H49  1  0.559200  0.585200  0.723800  1
  H  H50  1  0.059200  0.414800  0.776200  1
  H  H51  1  0.440800  0.414800  0.276200  1
  H  H52  1  0.940800  0.585200  0.223800  1
  H  H53  1  0.578700  0.631900  0.782200  1
  H  H54  1  0.078700  0.368100  0.717800  1
  H  H55  1  0.421300  0.368100  0.217800  1
  H  H56  1  0.921300  0.631900  0.282200  1
  H  H57  1  0.582900  0.839100  0.475100  1
  H  H58  1  0.082900  0.160900  0.024900  1
  H  H59  1  0.417100  0.160900  0.524900  1
  H  H60  1  0.917100  0.839100  0.975100  1
  H  H61  1  0.525000  0.769500  0.453500  1
  H  H62  1  0.025000  0.230500  0.046500  1
  H  H63  1  0.475000  0.230500  0.546500  1
  H  H64  1  0.975000  0.769500  0.953500  1
  H  H65  1  0.568500  0.722100  0.488700  1
  H  H66  1  0.068500  0.277900  0.011300  1
  H  H67  1  0.431500  0.277900  0.511300  1
  H  H68  1  0.931500  0.722100  0.988700  1
  H  H69  1  0.647900  0.704200  0.540100  1
  H  H70  1  0.147900  0.295800  0.959900  1
  H  H71  1  0.352100  0.295800  0.459900  1
  H  H72  1  0.852100  0.704200  0.040100  1
  H  H73  1  0.616800  0.673200  0.590500  1
  H  H74  1  0.116800  0.326800  0.909500  1
  H  H75  1  0.383200  0.326800  0.409500  1
  H  H76  1  0.883200  0.673200  0.090500  1
  H  H77  1  0.494600  0.019000  0.929800  1
  H  H78  1  0.994600  0.981000  0.570200  1
  H  H79  1  0.505400  0.981000  0.070200  1
  H  H80  1  0.005400  0.019000  0.429800  1
  H  H81  1  0.397200  0.996800  0.870400  1
  H  H82  1  0.897200  0.003200  0.629600  1
  H  H83  1  0.602800  0.003200  0.129600  1
  H  H84  1  0.102800  0.996800  0.370400  1
  H  H85  1  0.455700  0.951600  0.809600  1
  H  H86  1  0.955700  0.048400  0.690400  1
  H  H87  1  0.544300  0.048400  0.190400  1
  H  H88  1  0.044300  0.951600  0.309600  1
  H  H89  1  0.571100  0.911200  0.770300  1
  H  H90  1  0.071100  0.088800  0.729700  1
  H  H91  1  0.428900  0.088800  0.229700  1
  H  H92  1  0.928900  0.911200  0.270300  1
  H  H93  1  0.588700  0.862800  0.714400  1
  H  H94  1  0.088700  0.137200  0.785600  1
  H  H95  1  0.411300  0.137200  0.285600  1
  H  H96  1  0.911300  0.862800  0.214400  1
  H  H97  1  0.650300  0.874900  0.874100  1
  H  H98  1  0.150300  0.125100  0.625900  1
  H  H99  1  0.349700  0.125100  0.125900  1
  H  H100  1  0.849700  0.874900  0.374100  1
  H  H101  1  0.894900  0.821800  0.839400  1
  H  H102  1  0.394900  0.178200  0.660600  1
  H  H103  1  0.105100  0.178200  0.160600  1
  H  H104  1  0.605100  0.821800  0.339400  1
  H  H105  1  0.992200  0.780400  0.855600  1
  H  H106  1  0.492200  0.219600  0.644400  1
  H  H107  1  0.007800  0.219600  0.144400  1
  H  H108  1  0.507800  0.780400  0.355600  1
  H  H109  1  0.132600  0.747900  0.832000  1
  H  H110  1  0.632600  0.252100  0.668000  1
  H  H111  1  0.867400  0.252100  0.168000  1
  H  H112  1  0.367400  0.747900  0.332000  1
  H  H113  1  0.237100  0.692300  0.820900  1
  H  H114  1  0.737100  0.307700  0.679100  1
  H  H115  1  0.762900  0.307700  0.179100  1
  H  H116  1  0.262900  0.692300  0.320900  1
  H  H117  1  0.197600  0.631300  0.837600  1
  H  H118  1  0.697600  0.368700  0.662400  1
  H  H119  1  0.802400  0.368700  0.162400  1
  H  H120  1  0.302400  0.631300  0.337600  1
  H  H121  1  0.801300  0.585900  0.961900  1
  H  H122  1  0.301300  0.414100  0.538100  1
  H  H123  1  0.198700  0.414100  0.038100  1
  H  H124  1  0.698700  0.585900  0.461900  1
  H  H125  1  0.796400  0.627900  0.001100  1
  H  H126  1  0.296400  0.372100  0.498900  1
  H  H127  1  0.203600  0.372100  0.998900  1
  H  H128  1  0.703600  0.627900  0.501100  1
  H  H129  1  0.815600  0.631500  0.954900  1
  H  H130  1  0.315600  0.368500  0.545100  1
  H  H131  1  0.184400  0.368500  0.045100  1
  H  H132  1  0.684400  0.631500  0.454900  1
  H  H133  1  0.585300  0.597000  0.914200  1
  H  H134  1  0.085300  0.403000  0.585800  1
  H  H135  1  0.414700  0.403000  0.085800  1
  H  H136  1  0.914700  0.597000  0.414200  1
  H  H137  1  0.677600  0.568600  0.909200  1
  H  H138  1  0.177600  0.431400  0.590800  1
  H  H139  1  0.322400  0.431400  0.090800  1
  H  H140  1  0.822400  0.568600  0.409200  1
  H  H141  1  0.681500  0.613900  0.900700  1
  H  H142  1  0.181500  0.386100  0.599300  1
  H  H143  1  0.318500  0.386100  0.099300  1
  H  H144  1  0.818500  0.613900  0.400700  1
  H  H145  1  0.560300  0.593500  0.984900  1
  H  H146  1  0.060300  0.406500  0.515100  1
  H  H147  1  0.439700  0.406500  0.015100  1
  H  H148  1  0.939700  0.593500  0.484900  1
  H  H149  1  0.642500  0.604400  0.019000  1
  H  H150  1  0.142500  0.395600  0.481000  1
  H  H151  1  0.357500  0.395600  0.981000  1
  H  H152  1  0.857500  0.604400  0.519000  1
  H  H153  1  0.649500  0.563100  0.979100  1
  H  H154  1  0.149500  0.436900  0.520900  1
  H  H155  1  0.350500  0.436900  0.020900  1
  H  H156  1  0.850500  0.563100  0.479100  1
  H  H157  1  0.103600  0.626600  0.934900  1
  H  H158  1  0.603600  0.373400  0.565100  1
  H  H159  1  0.896400  0.373400  0.065100  1
  H  H160  1  0.396400  0.626600  0.434900  1
  H  H161  1  0.019200  0.593500  0.929000  1
  H  H162  1  0.519200  0.406500  0.571000  1
  H  H163  1  0.980800  0.406500  0.071000  1
  H  H164  1  0.480800  0.593500  0.429000  1
  H  H165  1  0.998400  0.642500  0.934100  1
  H  H166  1  0.498400  0.357500  0.565900  1
  H  H167  1  0.001600  0.357500  0.065900  1
  H  H168  1  0.501600  0.642500  0.434100  1
  H  H169  1  0.903300  0.610400  0.867200  1
  H  H170  1  0.403300  0.389600  0.632800  1
  H  H171  1  0.096700  0.389600  0.132800  1
  H  H172  1  0.596700  0.610400  0.367200  1
  H  H173  1  0.943900  0.563700  0.860700  1
  H  H174  1  0.443900  0.436300  0.639300  1
  H  H175  1  0.056100  0.436300  0.139300  1
  H  H176  1  0.556100  0.563700  0.360700  1
  H  H177  1  0.955700  0.586100  0.824400  1
  H  H178  1  0.455700  0.413900  0.675600  1
  H  H179  1  0.044300  0.413900  0.175600  1
  H  H180  1  0.544300  0.586100  0.324400  1
  H  H181  1  0.125300  0.567500  0.827300  1
  H  H182  1  0.625300  0.432500  0.672700  1
  H  H183  1  0.874700  0.432500  0.172700  1
  H  H184  1  0.374700  0.567500  0.327300  1
  H  H185  1  0.102700  0.549500  0.866000  1
  H  H186  1  0.602700  0.450500  0.634000  1
  H  H187  1  0.897300  0.450500  0.134000  1
  H  H188  1  0.397300  0.549500  0.366000  1
  H  H189  1  0.182100  0.584700  0.870400  1
  H  H190  1  0.682100  0.415300  0.629600  1
  H  H191  1  0.817900  0.415300  0.129600  1
  H  H192  1  0.317900  0.584700  0.370400  1
  H  H193  1  0.629900  0.672100  0.846800  1
  H  H194  1  0.129900  0.327900  0.653200  1
  H  H195  1  0.370100  0.327900  0.153200  1
  H  H196  1  0.870100  0.672100  0.346800  1
  H  H197  1  0.888600  0.666667  0.806300  1
  H  H198  1  0.388600  0.333333  0.693700  1
  H  H199  1  0.111400  0.333333  0.193700  1
  H  H200  1  0.611400  0.666667  0.306300  1
  H  H201  1  0.965400  0.611500  0.766900  1
  H  H202  1  0.465400  0.388500  0.733100  1
  H  H203  1  0.034600  0.388500  0.233100  1
  H  H204  1  0.534600  0.611500  0.266900  1
  H  H205  1  0.117100  0.592500  0.754600  1
  H  H206  1  0.617100  0.407500  0.745400  1
  H  H207  1  0.882900  0.407500  0.245400  1
  H  H208  1  0.382900  0.592500  0.254600  1
  H  H209  1  0.245000  0.569800  0.711000  1
  H  H210  1  0.745000  0.430200  0.789000  1
  H  H211  1  0.755000  0.430200  0.289000  1
  H  H212  1  0.255000  0.569800  0.211000  1
  H  H213  1  0.226200  0.557000  0.638700  1
  H  H214  1  0.726200  0.443000  0.861300  1
  H  H215  1  0.773800  0.443000  0.361300  1
  H  H216  1  0.273800  0.557000  0.138700  1
  H  H217  1  0.668100  0.456200  0.490100  1
  H  H218  1  0.168100  0.543800  0.009900  1
  H  H219  1  0.331900  0.543800  0.509900  1
  H  H220  1  0.831900  0.456200  0.990100  1
  H  H221  1  0.575000  0.483600  0.503700  1
  H  H222  1  0.075000  0.516400  0.996300  1
  H  H223  1  0.425000  0.516400  0.496300  1
  H  H224  1  0.925000  0.483600  0.003700  1
  H  H225  1  0.594900  0.443900  0.520900  1
  H  H226  1  0.094900  0.556100  0.979100  1
  H  H227  1  0.405100  0.556100  0.479100  1
  H  H228  1  0.905100  0.443900  0.020900  1
  H  H229  1  0.725300  0.445700  0.569200  1
  H  H230  1  0.225300  0.554300  0.930800  1
  H  H231  1  0.274700  0.554300  0.430800  1
  H  H232  1  0.774700  0.445700  0.069200  1
  H  H233  1  0.787500  0.487500  0.586200  1
  H  H234  1  0.287500  0.512500  0.913800  1
  H  H235  1  0.212500  0.512500  0.413800  1
  H  H236  1  0.712500  0.487500  0.086200  1
  H  H237  1  0.794400  0.459700  0.538000  1
  H  H238  1  0.294400  0.540300  0.962000  1
  H  H239  1  0.205600  0.540300  0.462000  1
  H  H240  1  0.705600  0.459700  0.038000  1
  H  H241  1  0.751000  0.552400  0.562600  1
  H  H242  1  0.251000  0.447600  0.937400  1
  H  H243  1  0.249000  0.447600  0.437400  1
  H  H244  1  0.749000  0.552400  0.062600  1
  H  H245  1  0.667700  0.550200  0.530000  1
  H  H246  1  0.167700  0.449800  0.970000  1
  H  H247  1  0.332300  0.449800  0.470000  1
  H  H248  1  0.832300  0.550200  0.030000  1
  H  H249  1  0.760600  0.523100  0.515000  1
  H  H250  1  0.260600  0.476900  0.985000  1
  H  H251  1  0.239400  0.476900  0.485000  1
  H  H252  1  0.739400  0.523100  0.015000  1
  H  H253  1  0.035800  0.498200  0.574300  1
  H  H254  1  0.535800  0.501800  0.925700  1
  H  H255  1  0.964200  0.501800  0.425700  1
  H  H256  1  0.464200  0.498200  0.074300  1
  H  H257  1  0.002000  0.522000  0.541300  1
  H  H258  1  0.502000  0.478000  0.958700  1
  H  H259  1  0.998000  0.478000  0.458700  1
  H  H260  1  0.498000  0.522000  0.041300  1
  H  H261  1  0.950900  0.531200  0.585900  1
  H  H262  1  0.450900  0.468800  0.914100  1
  H  H263  1  0.049100  0.468800  0.414100  1
  H  H264  1  0.549100  0.531200  0.085900  1
  H  H265  1  0.989200  0.612300  0.596200  1
  H  H266  1  0.489200  0.387700  0.903800  1
  H  H267  1  0.010800  0.387700  0.403800  1
  H  H268  1  0.510800  0.612300  0.096200  1
  H  H269  1  0.037600  0.596900  0.551000  1
  H  H270  1  0.537600  0.403100  0.949000  1
  H  H271  1  0.962400  0.403100  0.449000  1
  H  H272  1  0.462400  0.596900  0.051000  1
  H  H273  1  0.095500  0.624500  0.590700  1
  H  H274  1  0.595500  0.375500  0.909300  1
  H  H275  1  0.904500  0.375500  0.409300  1
  H  H276  1  0.404500  0.624500  0.090700  1
  H  H277  1  0.220100  0.571000  0.578500  1
  H  H278  1  0.720100  0.429000  0.921500  1
  H  H279  1  0.779900  0.429000  0.421500  1
  H  H280  1  0.279900  0.571000  0.078500  1
  H  H281  1  0.165500  0.544600  0.537200  1
  H  H282  1  0.665500  0.455400  0.962800  1
  H  H283  1  0.834500  0.455400  0.462800  1
  H  H284  1  0.334500  0.544600  0.037200  1
  H  H285  1  0.196200  0.521900  0.571600  1
  H  H286  1  0.696200  0.478100  0.928400  1
  H  H287  1  0.803800  0.478100  0.428400  1
  H  H288  1  0.303800  0.521900  0.071600  1
  H  H289  1  0.646500  0.623900  0.624100  1
  H  H290  1  0.146500  0.376100  0.875900  1
  H  H291  1  0.353500  0.376100  0.375900  1
  H  H292  1  0.853500  0.623900  0.124100  1
  H  H293  1  0.895800  0.671000  0.658000  1
  H  H294  1  0.395800  0.329000  0.842000  1
  H  H295  1  0.104200  0.329000  0.342000  1
  H  H296  1  0.604200  0.671000  0.158000  1
  H  H297  1  0.999100  0.707200  0.637200  1
  H  H298  1  0.499100  0.292800  0.862800  1
  H  H299  1  0.000900  0.292800  0.362800  1
  H  H300  1  0.500900  0.707200  0.137200  1
  H  H301  1  0.148600  0.730700  0.651600  1
  H  H302  1  0.648600  0.269300  0.848400  1
  H  H303  1  0.851400  0.269300  0.348400  1
  H  H304  1  0.351400  0.730700  0.151600  1
  H  H305  1  0.266900  0.779900  0.659400  1
  H  H306  1  0.766900  0.220100  0.840600  1
  H  H307  1  0.733100  0.220100  0.340600  1
  H  H308  1  0.233100  0.779900  0.159400  1
  H  H309  1  0.235400  0.843900  0.644300  1
  H  H310  1  0.735400  0.156100  0.855700  1
  H  H311  1  0.764600  0.156100  0.355700  1
  H  H312  1  0.264600  0.843900  0.144300  1
  H  H313  1  0.815300  0.869500  0.495000  1
  H  H314  1  0.315300  0.130500  0.005000  1
  H  H315  1  0.184700  0.130500  0.505000  1
  H  H316  1  0.684700  0.869500  0.995000  1
  H  H317  1  0.841500  0.862500  0.539200  1
  H  H318  1  0.341500  0.137500  0.960800  1
  H  H319  1  0.158500  0.137500  0.460800  1
  H  H320  1  0.658500  0.862500  0.039200  1
  H  H321  1  0.829200  0.909600  0.535600  1
  H  H322  1  0.329200  0.090400  0.964400  1
  H  H323  1  0.170800  0.090400  0.464400  1
  H  H324  1  0.670800  0.909600  0.035600  1
  H  H325  1  0.703000  0.930000  0.590300  1
  H  H326  1  0.203000  0.070000  0.909700  1
  H  H327  1  0.297000  0.070000  0.409700  1
  H  H328  1  0.797000  0.930000  0.090300  1
  H  H329  1  0.727900  0.886100  0.599000  1
  H  H330  1  0.227900  0.113900  0.901000  1
  H  H331  1  0.272100  0.113900  0.401000  1
  H  H332  1  0.772100  0.886100  0.099000  1
  H  H333  1  0.622200  0.896500  0.590100  1
  H  H334  1  0.122200  0.103500  0.909900  1
  H  H335  1  0.377800  0.103500  0.409900  1
  H  H336  1  0.877800  0.896500  0.090100  1
  H  H337  1  0.585000  0.906100  0.518000  1
  H  H338  1  0.085000  0.093900  0.982000  1
  H  H339  1  0.415000  0.093900  0.482000  1
  H  H340  1  0.915000  0.906100  0.018000  1
  H  H341  1  0.664700  0.896200  0.482900  1
  H  H342  1  0.164700  0.103800  0.017100  1
  H  H343  1  0.335300  0.103800  0.517100  1
  H  H344  1  0.835300  0.896200  0.982900  1
  H  H345  1  0.674700  0.936200  0.523800  1
  H  H346  1  0.174700  0.063800  0.976200  1
  H  H347  1  0.325300  0.063800  0.476200  1
  H  H348  1  0.825300  0.936200  0.023800  1
  H  H349  1  0.001200  0.850000  0.567000  1
  H  H350  1  0.501200  0.150000  0.933000  1
  H  H351  1  0.998800  0.150000  0.433000  1
  H  H352  1  0.498800  0.850000  0.067000  1
  H  H353  1  0.109000  0.854000  0.556400  1
  H  H354  1  0.609000  0.146000  0.943600  1
  H  H355  1  0.891000  0.146000  0.443600  1
  H  H356  1  0.391000  0.854000  0.056400  1
  H  H357  1  0.043700  0.895200  0.568100  1
  H  H358  1  0.543700  0.104800  0.931900  1
  H  H359  1  0.956300  0.104800  0.431900  1
  H  H360  1  0.456300  0.895200  0.068100  1
  H  H361  1  0.945400  0.883400  0.641700  1
  H  H362  1  0.445400  0.116600  0.858300  1
  H  H363  1  0.054600  0.116600  0.358300  1
  H  H364  1  0.554600  0.883400  0.141700  1
  H  H365  1  0.993900  0.927800  0.644000  1
  H  H366  1  0.493900  0.072200  0.856000  1
  H  H367  1  0.006100  0.072200  0.356000  1
  H  H368  1  0.506100  0.927800  0.144000  1
  H  H369  1  0.020000  0.903700  0.677800  1
  H  H370  1  0.520000  0.096300  0.822200  1
  H  H371  1  0.980000  0.096300  0.322200  1
  H  H372  1  0.480000  0.903700  0.177800  1
  H  H373  1  0.151600  0.933300  0.626300  1
  H  H374  1  0.651600  0.066700  0.873700  1
  H  H375  1  0.848400  0.066700  0.373700  1
  H  H376  1  0.348400  0.933300  0.126300  1
  H  H377  1  0.218100  0.892600  0.610800  1
  H  H378  1  0.718100  0.107400  0.889200  1
  H  H379  1  0.781900  0.107400  0.389200  1
  H  H380  1  0.281900  0.892600  0.110800  1
  H  H381  1  0.186700  0.909500  0.659000  1
  H  H382  1  0.686700  0.090500  0.841000  1
  H  H383  1  0.813300  0.090500  0.341000  1
  H  H384  1  0.313300  0.909500  0.159000  1
  H  H385  1  0.640700  0.821900  0.650200  1
  H  H386  1  0.140700  0.178100  0.849800  1
  H  H387  1  0.359300  0.178100  0.349800  1
  H  H388  1  0.859300  0.821900  0.150200  1
  H  H389  1  0.897800  0.825200  0.691600  1
  H  H390  1  0.397800  0.174800  0.808400  1
  H  H391  1  0.102200  0.174800  0.308400  1
  H  H392  1  0.602200  0.825200  0.191600  1
  H  H393  1  0.975800  0.874300  0.733000  1
  H  H394  1  0.475800  0.125700  0.767000  1
  H  H395  1  0.024200  0.125700  0.267000  1
  H  H396  1  0.524200  0.874300  0.233000  1
  H  H397  1  0.131000  0.889100  0.745800  1
  H  H398  1  0.631000  0.110900  0.754200  1
  H  H399  1  0.869000  0.110900  0.254200  1
  H  H400  1  0.369000  0.889100  0.245800  1
  H  H401  1  0.255600  0.913400  0.790800  1
  H  H402  1  0.755600  0.086600  0.709200  1
  H  H403  1  0.744400  0.086600  0.209200  1
  H  H404  1  0.244400  0.913400  0.290800  1
  H  H405  1  0.230000  0.936600  0.863400  1
  H  H406  1  0.730000  0.063400  0.636600  1
  H  H407  1  0.770000  0.063400  0.136600  1
  H  H408  1  0.270000  0.936600  0.363400  1
  H  H409  1  0.562300  0.018600  0.988000  1
  H  H410  1  0.062300  0.981400  0.512000  1
  H  H411  1  0.437700  0.981400  0.012000  1
  H  H412  1  0.937700  0.018600  0.488000  1
  H  H413  1  0.600400  0.058200  0.974300  1
  H  H414  1  0.100400  0.941800  0.525700  1
  H  H415  1  0.399600  0.941800  0.025700  1
  H  H416  1  0.899600  0.058200  0.474300  1
  H  H417  1  0.659400  0.040300  0.006200  1
  H  H418  1  0.159400  0.959700  0.493800  1
  H  H419  1  0.340600  0.959700  0.993800  1
  H  H420  1  0.840600  0.040300  0.506200  1
  H  H421  1  0.798200  0.031900  0.961000  1
  H  H422  1  0.298200  0.968100  0.539000  1
  H  H423  1  0.201800  0.968100  0.039000  1
  H  H424  1  0.701800  0.031900  0.461000  1
  H  H425  1  0.738700  0.052300  0.931100  1
  H  H426  1  0.238700  0.947700  0.568900  1
  H  H427  1  0.261300  0.947700  0.068900  1
  H  H428  1  0.761300  0.052300  0.431100  1
  H  H429  1  0.790600  0.007800  0.911800  1
  H  H430  1  0.290600  0.992200  0.588200  1
  H  H431  1  0.209400  0.992200  0.088200  1
  H  H432  1  0.709400  0.007800  0.411800  1
  H  H433  1  0.644500  0.948700  0.963600  1
  H  H434  1  0.144500  0.051300  0.536400  1
  H  H435  1  0.355500  0.051300  0.036400  1
  H  H436  1  0.855500  0.948700  0.463600  1
  H  H437  1  0.734900  0.974300  0.985400  1
  H  H438  1  0.234900  0.025700  0.514600  1
  H  H439  1  0.265100  0.025700  0.014600  1
  H  H440  1  0.765100  0.974300  0.485400  1
  H  H441  1  0.739600  0.945300  0.937600  1
  H  H442  1  0.239600  0.054700  0.562400  1
  H  H443  1  0.260400  0.054700  0.062400  1
  H  H444  1  0.760400  0.945300  0.437600  1
  H  H445  1  0.041700  0.005000  0.912000  1
  H  H446  1  0.541700  0.995000  0.588000  1
  H  H447  1  0.958300  0.995000  0.088000  1
  H  H448  1  0.458300  0.005000  0.412000  1
  H  H449  1  0.008300  0.993200  0.953000  1
  H  H450  1  0.508300  0.006800  0.547000  1
  H  H451  1  0.991700  0.006800  0.047000  1
  H  H452  1  0.491700  0.993200  0.453000  1
  H  H453  1  0.952900  0.975000  0.909700  1
  H  H454  1  0.452900  0.025000  0.590300  1
  H  H455  1  0.047100  0.025000  0.090300  1
  H  H456  1  0.547100  0.975000  0.409700  1
  H  H457  1  0.975600  0.900300  0.911500  1
  H  H458  1  0.475600  0.099700  0.588500  1
  H  H459  1  0.024400  0.099700  0.088500  1
  H  H460  1  0.524400  0.900300  0.411500  1
  H  H461  1  0.029500  0.917300  0.955300  1
  H  H462  1  0.529500  0.082700  0.544700  1
  H  H463  1  0.970500  0.082700  0.044700  1
  H  H464  1  0.470500  0.917300  0.455300  1
  H  H465  1  0.078100  0.883200  0.916600  1
  H  H466  1  0.578100  0.116800  0.583400  1
  H  H467  1  0.921900  0.116800  0.083400  1
  H  H468  1  0.421900  0.883200  0.416600  1
  H  H469  1  0.211800  0.931500  0.929800  1
  H  H470  1  0.711800  0.068500  0.570200  1
  H  H471  1  0.788200  0.068500  0.070200  1
  H  H472  1  0.288200  0.931500  0.429800  1
  H  H473  1  0.159200  0.968400  0.964500  1
  H  H474  1  0.659200  0.031600  0.535500  1
  H  H475  1  0.840800  0.031600  0.035500  1
  H  H476  1  0.340800  0.968400  0.464500  1
  H  H477  1  0.203300  0.977800  0.924000  1
  H  H478  1  0.703300  0.022200  0.576000  1
  H  H479  1  0.796700  0.022200  0.076000  1
  H  H480  1  0.296700  0.977800  0.424000  1
  C  C481  1  0.678800  0.693210  0.955020  1
  C  C482  1  0.178800  0.306790  0.544980  1
  C  C483  1  0.321200  0.306790  0.044980  1
  C  C484  1  0.821200  0.693210  0.455020  1
  C  C485  1  0.643200  0.735800  0.967420  1
  C  C486  1  0.143200  0.264200  0.532580  1
  C  C487  1  0.356800  0.264200  0.032580  1
  C  C488  1  0.856800  0.735800  0.467420  1
  C  C489  1  0.580400  0.749550  0.001050  1
  C  C490  1  0.080400  0.250450  0.498950  1
  C  C491  1  0.419600  0.250450  0.998950  1
  C  C492  1  0.919600  0.749550  0.501050  1
  C  C493  1  0.550500  0.722500  0.021880  1
  C  C494  1  0.050500  0.277500  0.478120  1
  C  C495  1  0.449500  0.277500  0.978120  1
  C  C496  1  0.949500  0.722500  0.521880  1
  C  C497  1  0.583200  0.680700  0.009530  1
  C  C498  1  0.083200  0.319300  0.490470  1
  C  C499  1  0.416800  0.319300  0.990470  1
  C  C500  1  0.916800  0.680700  0.509530  1
  C  C501  1  0.645100  0.664750  0.977640  1
  C  C502  1  0.145100  0.335250  0.522360  1
  C  C503  1  0.354900  0.335250  0.022360  1
  C  C504  1  0.854900  0.664750  0.477640  1
  C  C505  1  0.667600  0.766500  0.946100  1
  C  C506  1  0.167600  0.233500  0.553900  1
  C  C507  1  0.332400  0.233500  0.053900  1
  C  C508  1  0.832400  0.766500  0.446100  1
  C  C509  1  0.736500  0.792840  0.895630  1
  C  C510  1  0.236500  0.207160  0.604370  1
  C  C511  1  0.263500  0.207160  0.104370  1
  C  C512  1  0.763500  0.792840  0.395630  1
  C  C513  1  0.674100  0.824570  0.895330  1
  C  C514  1  0.174100  0.175430  0.604670  1
  C  C515  1  0.325900  0.175430  0.104670  1
  C  C516  1  0.825900  0.824570  0.395330  1
  C  C517  1  0.642800  0.539380  0.627410  1
  C  C518  1  0.142800  0.460620  0.872590  1
  C  C519  1  0.357200  0.460620  0.372590  1
  C  C520  1  0.857200  0.539380  0.127410  1
  C  C521  1  0.607200  0.512420  0.588120  1
  C  C522  1  0.107200  0.487580  0.911880  1
  C  C523  1  0.392800  0.487580  0.411880  1
  C  C524  1  0.892800  0.512420  0.088120  1
  C  C525  1  0.513900  0.502700  0.585240  1
  C  C526  1  0.013900  0.497300  0.914760  1
  C  C527  1  0.486100  0.497300  0.414760  1
  C  C528  1  0.986100  0.502700  0.085240  1
  C  C529  1  0.451700  0.517320  0.619460  1
  C  C530  1  0.951700  0.482680  0.880540  1
  C  C531  1  0.548300  0.482680  0.380540  1
  C  C532  1  0.048300  0.517320  0.119460  1
  C  C533  1  0.483500  0.542110  0.656650  1
  C  C534  1  0.983500  0.457890  0.843350  1
  C  C535  1  0.516500  0.457890  0.343350  1
  C  C536  1  0.016500  0.542110  0.156650  1
  C  C537  1  0.579000  0.554750  0.661650  1
  C  C538  1  0.079000  0.445250  0.838350  1
  C  C539  1  0.421000  0.445250  0.338350  1
  C  C540  1  0.921000  0.554750  0.161650  1
  C  C541  1  0.604900  0.580430  0.702300  1
  C  C542  1  0.104900  0.419570  0.797700  1
  C  C543  1  0.395100  0.419570  0.297700  1
  C  C544  1  0.895100  0.580430  0.202300  1
  C  C545  1  0.707200  0.622620  0.754330  1
  C  C546  1  0.207200  0.377380  0.745670  1
  C  C547  1  0.292800  0.377380  0.245670  1
  C  C548  1  0.792800  0.622620  0.254330  1
  C  C549  1  0.643200  0.638190  0.786690  1
  C  C550  1  0.143200  0.361810  0.713310  1
  C  C551  1  0.356800  0.361810  0.213310  1
  C  C552  1  0.856800  0.638190  0.286690  1
  C  C553  1  0.698900  0.803720  0.542210  1
  C  C554  1  0.198900  0.196280  0.957790  1
  C  C555  1  0.301100  0.196280  0.457790  1
  C  C556  1  0.801100  0.803720  0.042210  1
  C  C557  1  0.666300  0.833530  0.521920  1
  C  C558  1  0.166300  0.166470  0.978080  1
  C  C559  1  0.333700  0.166470  0.478080  1
  C  C560  1  0.833700  0.833530  0.021920  1
  C  C561  1  0.603100  0.819680  0.489400  1
  C  C562  1  0.103100  0.180320  0.010600  1
  C  C563  1  0.396900  0.180320  0.510600  1
  C  C564  1  0.896900  0.819680  0.989400  1
  C  C565  1  0.567300  0.777940  0.476470  1
  C  C566  1  0.067300  0.222060  0.023530  1
  C  C567  1  0.432700  0.222060  0.523530  1
  C  C568  1  0.932700  0.777940  0.976470  1
  C  C569  1  0.593700  0.750040  0.497040  1
  C  C570  1  0.093700  0.249960  0.002960  1
  C  C571  1  0.406300  0.249960  0.502960  1
  C  C572  1  0.906300  0.750040  0.997040  1
  C  C573  1  0.657700  0.761500  0.530600  1
  C  C574  1  0.157700  0.238500  0.969400  1
  C  C575  1  0.342300  0.238500  0.469400  1
  C  C576  1  0.842300  0.761500  0.030600  1
  C  C577  1  0.677600  0.730980  0.551000  1
  C  C578  1  0.177600  0.269020  0.949000  1
  C  C579  1  0.322400  0.269020  0.449000  1
  C  C580  1  0.822400  0.730980  0.051000  1
  C  C581  1  0.743600  0.702900  0.602250  1
  C  C582  1  0.243600  0.297100  0.897750  1
  C  C583  1  0.256400  0.297100  0.397750  1
  C  C584  1  0.756400  0.702900  0.102250  1
  C  C585  1  0.675400  0.673090  0.603800  1
  C  C586  1  0.175400  0.326910  0.896200  1
  C  C587  1  0.324600  0.326910  0.396200  1
  C  C588  1  0.824600  0.673090  0.103800  1
  C  C589  1  0.646100  0.958310  0.867360  1
  C  C590  1  0.146100  0.041690  0.632640  1
  C  C591  1  0.353900  0.041690  0.132640  1
  C  C592  1  0.853900  0.958310  0.367360  1
  C  C593  1  0.609400  0.987070  0.905010  1
  C  C594  1  0.109400  0.012930  0.594990  1
  C  C595  1  0.390600  0.012930  0.094990  1
  C  C596  1  0.890600  0.987070  0.405010  1
  C  C597  1  0.519100  0.000100  0.904740  1
  C  C598  1  0.019100  0.999900  0.595260  1
  C  C599  1  0.480900  0.999900  0.095260  1
  C  C600  1  0.980900  0.000100  0.404740  1
  C  C601  1  0.459700  0.986980  0.869220  1
  C  C602  1  0.959700  0.013020  0.630780  1
  C  C603  1  0.540300  0.013020  0.130780  1
  C  C604  1  0.040300  0.986980  0.369220  1
  C  C605  1  0.494600  0.960210  0.833730  1
  C  C606  1  0.994600  0.039790  0.666270  1
  C  C607  1  0.505400  0.039790  0.166270  1
  C  C608  1  0.005400  0.960210  0.333730  1
  C  C609  1  0.586800  0.944360  0.830970  1
  C  C610  1  0.086800  0.055640  0.669030  1
  C  C611  1  0.413200  0.055640  0.169030  1
  C  C612  1  0.913200  0.944360  0.330970  1
  C  C613  1  0.615200  0.916530  0.792570  1
  C  C614  1  0.115200  0.083470  0.707430  1
  C  C615  1  0.384800  0.083470  0.207430  1
  C  C616  1  0.884800  0.916530  0.292570  1
  C  C617  1  0.714800  0.871170  0.743260  1
  C  C618  1  0.214800  0.128830  0.756740  1
  C  C619  1  0.285200  0.128830  0.256740  1
  C  C620  1  0.785200  0.871170  0.243260  1
  C  C621  1  0.653100  0.856010  0.710490  1
  C  C622  1  0.153100  0.143990  0.789510  1
  C  C623  1  0.346900  0.143990  0.289510  1
  C  C624  1  0.846900  0.856010  0.210490  1
  C  C625  1  0.695100  0.853690  0.874260  1
  C  C626  1  0.195100  0.146310  0.625740  1
  C  C627  1  0.304900  0.146310  0.125740  1
  C  C628  1  0.804900  0.853690  0.374260  1
  C  C629  1  0.837500  0.822700  0.853940  1
  C  C630  1  0.337500  0.177300  0.646060  1
  C  C631  1  0.162500  0.177300  0.146060  1
  C  C632  1  0.662500  0.822700  0.353940  1
  C  C633  1  0.821300  0.792020  0.874070  1
  C  C634  1  0.321300  0.207980  0.625930  1
  C  C635  1  0.178700  0.207980  0.125930  1
  C  C636  1  0.678700  0.792020  0.374070  1
  C  C637  1  0.967500  0.756180  0.861910  1
  C  C638  1  0.467500  0.243820  0.638090  1
  C  C639  1  0.032500  0.243820  0.138090  1
  C  C640  1  0.532500  0.756180  0.361910  1
  C  C641  1  0.028600  0.721010  0.858280  1
  C  C642  1  0.528600  0.278990  0.641720  1
  C  C643  1  0.971400  0.278990  0.141720  1
  C  C644  1  0.471400  0.721010  0.358280  1
  C  C645  1  0.116300  0.723330  0.839820  1
  C  C646  1  0.616300  0.276670  0.660180  1
  C  C647  1  0.883700  0.276670  0.160180  1
  C  C648  1  0.383700  0.723330  0.339820  1
  C  C649  1  0.177900  0.690370  0.833070  1
  C  C650  1  0.677900  0.309630  0.666930  1
  C  C651  1  0.822100  0.309630  0.166930  1
  C  C652  1  0.322100  0.690370  0.333070  1
  C  C653  1  0.154600  0.654300  0.843850  1
  C  C654  1  0.654600  0.345700  0.656150  1
  C  C655  1  0.845400  0.345700  0.156150  1
  C  C656  1  0.345400  0.654300  0.343850  1
  C  C657  1  0.071600  0.650060  0.863290  1
  C  C658  1  0.571600  0.349940  0.636710  1
  C  C659  1  0.928400  0.349940  0.136710  1
  C  C660  1  0.428400  0.650060  0.363290  1
  C  C661  1  0.007800  0.685330  0.872450  1
  C  C662  1  0.507800  0.314670  0.627550  1
  C  C663  1  0.992200  0.314670  0.127550  1
  C  C664  1  0.492200  0.685330  0.372450  1
  C  C665  1  0.676700  0.618740  0.964300  1
  C  C666  1  0.176700  0.381260  0.535700  1
  C  C667  1  0.323300  0.381260  0.035700  1
  C  C668  1  0.823300  0.618740  0.464300  1
  C  C669  1  0.782000  0.615750  0.971170  1
  C  C670  1  0.282000  0.384250  0.528830  1
  C  C671  1  0.218000  0.384250  0.028830  1
  C  C672  1  0.718000  0.615750  0.471170  1
  C  C673  1  0.653100  0.597670  0.917930  1
  C  C674  1  0.153100  0.402330  0.582070  1
  C  C675  1  0.346900  0.402330  0.082070  1
  C  C676  1  0.846900  0.597670  0.417930  1
  C  C677  1  0.627900  0.592610  0.989020  1
  C  C678  1  0.127900  0.407390  0.510980  1
  C  C679  1  0.372100  0.407390  0.010980  1
  C  C680  1  0.872100  0.592610  0.489020  1
  C  C681  1  0.047900  0.610080  0.874270  1
  C  C682  1  0.547900  0.389920  0.625730  1
  C  C683  1  0.952100  0.389920  0.125730  1
  C  C684  1  0.452100  0.610080  0.374270  1
  C  C685  1  0.041700  0.619000  0.922480  1
  C  C686  1  0.541700  0.381000  0.577520  1
  C  C687  1  0.958300  0.381000  0.077520  1
  C  C688  1  0.458300  0.619000  0.422480  1
  C  C689  1  0.954100  0.590810  0.854880  1
  C  C690  1  0.454100  0.409190  0.645120  1
  C  C691  1  0.045900  0.409190  0.145120  1
  C  C692  1  0.545900  0.590810  0.354880  1
  C  C693  1  0.121200  0.574710  0.857980  1
  C  C694  1  0.621200  0.425290  0.642020  1
  C  C695  1  0.878800  0.425290  0.142020  1
  C  C696  1  0.378800  0.574710  0.357980  1
  C  C697  1  0.674200  0.662490  0.824850  1
  C  C698  1  0.174200  0.337510  0.675150  1
  C  C699  1  0.325800  0.337510  0.175150  1
  C  C700  1  0.825800  0.662490  0.324850  1
  C  C701  1  0.825100  0.658510  0.801500  1
  C  C702  1  0.325100  0.341490  0.698500  1
  C  C703  1  0.174900  0.341490  0.198500  1
  C  C704  1  0.674900  0.658510  0.301500  1
  C  C705  1  0.800400  0.631780  0.762570  1
  C  C706  1  0.300400  0.368220  0.737430  1
  C  C707  1  0.199600  0.368220  0.237430  1
  C  C708  1  0.699600  0.631780  0.262570  1
  C  C709  1  0.949700  0.606800  0.738170  1
  C  C710  1  0.449700  0.393200  0.761830  1
  C  C711  1  0.050300  0.393200  0.261830  1
  C  C712  1  0.550300  0.606800  0.238170  1
  C  C713  1  0.023100  0.591350  0.708420  1
  C  C714  1  0.523100  0.408650  0.791580  1
  C  C715  1  0.976900  0.408650  0.291580  1
  C  C716  1  0.476900  0.591350  0.208420  1
  C  C717  1  0.110200  0.586540  0.725060  1
  C  C718  1  0.610200  0.413460  0.774940  1
  C  C719  1  0.889800  0.413460  0.274940  1
  C  C720  1  0.389800  0.586540  0.225060  1
  C  C721  1  0.185800  0.573420  0.699630  1
  C  C722  1  0.685800  0.426580  0.800370  1
  C  C723  1  0.814200  0.426580  0.300370  1
  C  C724  1  0.314200  0.573420  0.199630  1
  C  C725  1  0.173100  0.565390  0.656220  1
  C  C726  1  0.673100  0.434610  0.843780  1
  C  C727  1  0.826900  0.434610  0.343780  1
  C  C728  1  0.326900  0.565390  0.156220  1
  C  C729  1  0.089500  0.568760  0.637230  1
  C  C730  1  0.589500  0.431240  0.862770  1
  C  C731  1  0.910500  0.431240  0.362770  1
  C  C732  1  0.410500  0.568760  0.137230  1
  C  C733  1  0.009600  0.581650  0.663880  1
  C  C734  1  0.509600  0.418350  0.836120  1
  C  C735  1  0.990400  0.418350  0.336120  1
  C  C736  1  0.490400  0.581650  0.163880  1
  C  C737  1  0.674200  0.496470  0.550850  1
  C  C738  1  0.174200  0.503530  0.949150  1
  C  C739  1  0.325800  0.503530  0.449150  1
  C  C740  1  0.825800  0.496470  0.050850  1
  C  C741  1  0.623500  0.467450  0.513020  1
  C  C742  1  0.123500  0.532550  0.986980  1
  C  C743  1  0.376500  0.532550  0.486980  1
  C  C744  1  0.876500  0.467450  0.013020  1
  C  C745  1  0.752400  0.469960  0.562070  1
  C  C746  1  0.252400  0.530040  0.937930  1
  C  C747  1  0.247600  0.530040  0.437930  1
  C  C748  1  0.747600  0.469960  0.062070  1
  C  C749  1  0.717300  0.533950  0.538480  1
  C  C750  1  0.217300  0.466050  0.961520  1
  C  C751  1  0.282700  0.466050  0.461520  1
  C  C752  1  0.782700  0.533950  0.038480  1
  C  C753  1  0.080100  0.561190  0.590340  1
  C  C754  1  0.580100  0.438810  0.909660  1
  C  C755  1  0.919900  0.438810  0.409660  1
  C  C756  1  0.419900  0.561190  0.090340  1
  C  C757  1  0.010900  0.524850  0.571230  1
  C  C758  1  0.510900  0.475150  0.928770  1
  C  C759  1  0.989100  0.475150  0.428770  1
  C  C760  1  0.489100  0.524850  0.071230  1
  C  C761  1  0.047600  0.602530  0.581230  1
  C  C762  1  0.547600  0.397470  0.918770  1
  C  C763  1  0.952400  0.397470  0.418770  1
  C  C764  1  0.452400  0.602530  0.081230  1
  C  C765  1  0.174100  0.548500  0.567300  1
  C  C766  1  0.674100  0.451500  0.932700  1
  C  C767  1  0.825900  0.451500  0.432700  1
  C  C768  1  0.325900  0.548500  0.067300  1
  C  C769  1  0.693300  0.644390  0.624210  1
  C  C770  1  0.193300  0.355610  0.875790  1
  C  C771  1  0.306700  0.355610  0.375790  1
  C  C772  1  0.806700  0.644390  0.124210  1
  C  C773  1  0.838500  0.671850  0.644000  1
  C  C774  1  0.338500  0.328150  0.856000  1
  C  C775  1  0.161500  0.328150  0.356000  1
  C  C776  1  0.661500  0.671850  0.144000  1
  C  C777  1  0.827700  0.702840  0.624190  1
  C  C778  1  0.327700  0.297160  0.875810  1
  C  C779  1  0.172300  0.297160  0.375810  1
  C  C780  1  0.672300  0.702840  0.124190  1
  C  C781  1  0.978200  0.732620  0.632040  1
  C  C782  1  0.478200  0.267380  0.867960  1
  C  C783  1  0.021800  0.267380  0.367960  1
  C  C784  1  0.521800  0.732620  0.132040  1
  C  C785  1  0.046600  0.764490  0.633710  1
  C  C786  1  0.546600  0.235510  0.866290  1
  C  C787  1  0.953400  0.235510  0.366290  1
  C  C788  1  0.453400  0.764490  0.133710  1
  C  C789  1  0.136200  0.756850  0.646080  1
  C  C790  1  0.636200  0.243150  0.853920  1
  C  C791  1  0.863800  0.243150  0.353920  1
  C  C792  1  0.363800  0.756850  0.146080  1
  C  C793  1  0.206500  0.785520  0.650550  1
  C  C794  1  0.706500  0.214480  0.849450  1
  C  C795  1  0.793500  0.214480  0.349450  1
  C  C796  1  0.293500  0.785520  0.150550  1
  C  C797  1  0.186300  0.823930  0.641600  1
  C  C798  1  0.686300  0.176070  0.858400  1
  C  C799  1  0.813700  0.176070  0.358400  1
  C  C800  1  0.313700  0.823930  0.141600  1
  C  C801  1  0.101100  0.834150  0.629360  1
  C  C802  1  0.601100  0.165850  0.870640  1
  C  C803  1  0.898900  0.165850  0.370640  1
  C  C804  1  0.398900  0.834150  0.129360  1
  C  C805  1  0.027500  0.803190  0.623920  1
  C  C806  1  0.527500  0.196810  0.876080  1
  C  C807  1  0.972500  0.196810  0.376080  1
  C  C808  1  0.472500  0.803190  0.123920  1
  C  C809  1  0.702900  0.879020  0.535850  1
  C  C810  1  0.202900  0.120980  0.964150  1
  C  C811  1  0.297100  0.120980  0.464150  1
  C  C812  1  0.797100  0.879020  0.035850  1
  C  C813  1  0.806500  0.880260  0.525500  1
  C  C814  1  0.306500  0.119740  0.974500  1
  C  C815  1  0.193500  0.119740  0.474500  1
  C  C816  1  0.693500  0.880260  0.025500  1
  C  C817  1  0.687600  0.899790  0.583080  1
  C  C818  1  0.187600  0.100210  0.916920  1
  C  C819  1  0.312400  0.100210  0.416920  1
  C  C820  1  0.812400  0.899790  0.083080  1
  C  C821  1  0.652200  0.906910  0.513080  1
  C  C822  1  0.152200  0.093090  0.986920  1
  C  C823  1  0.347800  0.093090  0.486920  1
  C  C824  1  0.847800  0.906910  0.013080  1
  C  C825  1  0.080900  0.876550  0.619990  1
  C  C826  1  0.580900  0.123450  0.880010  1
  C  C827  1  0.919100  0.123450  0.380010  1
  C  C828  1  0.419100  0.876550  0.119990  1
  C  C829  1  0.056500  0.868220  0.573740  1
  C  C830  1  0.556500  0.131780  0.926260  1
  C  C831  1  0.943500  0.131780  0.426260  1
  C  C832  1  0.443500  0.868220  0.073740  1
  C  C833  1  0.003200  0.899930  0.648360  1
  C  C834  1  0.503200  0.100070  0.851640  1
  C  C835  1  0.996800  0.100070  0.351640  1
  C  C836  1  0.496800  0.899930  0.148360  1
  C  C837  1  0.167200  0.905610  0.629920  1
  C  C838  1  0.667200  0.094390  0.870080  1
  C  C839  1  0.832800  0.094390  0.370080  1
  C  C840  1  0.332800  0.905610  0.129920  1
  C  C841  1  0.684300  0.831220  0.672460  1
  C  C842  1  0.184300  0.168780  0.827540  1
  C  C843  1  0.315700  0.168780  0.327540  1
  C  C844  1  0.815700  0.831220  0.172460  1
  C  C845  1  0.834400  0.833520  0.696390  1
  C  C846  1  0.334400  0.166480  0.803610  1
  C  C847  1  0.165600  0.166480  0.303610  1
  C  C848  1  0.665600  0.833520  0.196390  1
  C  C849  1  0.809800  0.859760  0.735470  1
  C  C850  1  0.309800  0.140240  0.764530  1
  C  C851  1  0.190200  0.140240  0.264530  1
  C  C852  1  0.690200  0.859760  0.235470  1
  C  C853  1  0.958200  0.882030  0.761730  1
  C  C854  1  0.458200  0.117970  0.738270  1
  C  C855  1  0.041800  0.117970  0.238270  1
  C  C856  1  0.541800  0.882030  0.261730  1
  C  C857  1  0.030000  0.898680  0.791520  1
  C  C858  1  0.530000  0.101320  0.708480  1
  C  C859  1  0.970000  0.101320  0.208480  1
  C  C860  1  0.470000  0.898680  0.291520  1
  C  C861  1  0.120900  0.898880  0.775300  1
  C  C862  1  0.620900  0.101120  0.724700  1
  C  C863  1  0.879100  0.101120  0.224700  1
  C  C864  1  0.379100  0.898880  0.275300  1
  C  C865  1  0.194400  0.913100  0.801710  1
  C  C866  1  0.694400  0.086900  0.698290  1
  C  C867  1  0.805600  0.086900  0.198290  1
  C  C868  1  0.305600  0.913100  0.301710  1
  C  C869  1  0.178200  0.927230  0.845250  1
  C  C870  1  0.678200  0.072770  0.654750  1
  C  C871  1  0.821800  0.072770  0.154750  1
  C  C872  1  0.321800  0.927230  0.345250  1
  C  C873  1  0.091300  0.928160  0.862910  1
  C  C874  1  0.591300  0.071840  0.637090  1
  C  C875  1  0.908700  0.071840  0.137090  1
  C  C876  1  0.408700  0.928160  0.362910  1
  C  C877  1  0.012700  0.914150  0.835640  1
  C  C878  1  0.512700  0.085850  0.664360  1
  C  C879  1  0.987300  0.085850  0.164360  1
  C  C880  1  0.487300  0.914150  0.335640  1
  C  C881  1  0.670000  0.002160  0.944420  1
  C  C882  1  0.170000  0.997840  0.555580  1
  C  C883  1  0.330000  0.997840  0.055580  1
  C  C884  1  0.830000  0.002160  0.444420  1
  C  C885  1  0.618400  0.032550  0.981600  1
  C  C886  1  0.118400  0.967450  0.518400  1
  C  C887  1  0.381600  0.967450  0.018400  1
  C  C888  1  0.881600  0.032550  0.481600  1
  C  C889  1  0.757300  0.025650  0.936340  1
  C  C890  1  0.257300  0.974350  0.563660  1
  C  C891  1  0.242700  0.974350  0.063660  1
  C  C892  1  0.742700  0.025650  0.436340  1
  C  C893  1  0.699900  0.964190  0.959070  1
  C  C894  1  0.199900  0.035810  0.540930  1
  C  C895  1  0.300100  0.035810  0.040930  1
  C  C896  1  0.800100  0.964190  0.459070  1
  C  C897  1  0.078400  0.943540  0.910490  1
  C  C898  1  0.578400  0.056460  0.589510  1
  C  C899  1  0.921600  0.056460  0.089510  1
  C  C900  1  0.421600  0.943540  0.410490  1
  C  C901  1  0.014500  0.982720  0.922360  1
  C  C902  1  0.514500  0.017280  0.577640  1
  C  C903  1  0.985500  0.017280  0.077640  1
  C  C904  1  0.485500  0.982720  0.422360  1
  C  C905  1  0.036700  0.908000  0.924720  1
  C  C906  1  0.536700  0.092000  0.575280  1
  C  C907  1  0.963300  0.092000  0.075280  1
  C  C908  1  0.463300  0.908000  0.424720  1
  C  C909  1  0.171800  0.956500  0.934430  1
  C  C910  1  0.671800  0.043500  0.565570  1
  C  C911  1  0.828200  0.043500  0.065570  1
  C  C912  1  0.328200  0.956500  0.434430  1
  N  N913  1  0.723100  0.760860  0.914100  1
  N  N914  1  0.223100  0.239140  0.585900  1
  N  N915  1  0.276900  0.239140  0.085900  1
  N  N916  1  0.776900  0.760860  0.414100  1
  N  N917  1  0.880600  0.757440  0.873200  1
  N  N918  1  0.380600  0.242560  0.626800  1
  N  N919  1  0.119400  0.242560  0.126800  1
  N  N920  1  0.619400  0.757440  0.373200  1
  N  N921  1  0.777000  0.853390  0.853820  1
  N  N922  1  0.277000  0.146610  0.646180  1
  N  N923  1  0.223000  0.146610  0.146180  1
  N  N924  1  0.723000  0.853390  0.353820  1
  N  N925  1  0.686700  0.598060  0.712530  1
  N  N926  1  0.186700  0.401940  0.787470  1
  N  N927  1  0.313300  0.401940  0.287470  1
  N  N928  1  0.813300  0.598060  0.212530  1
  N  N929  1  0.864100  0.615140  0.730350  1
  N  N930  1  0.364100  0.384860  0.769650  1
  N  N931  1  0.135900  0.384860  0.269650  1
  N  N932  1  0.635900  0.615140  0.230350  1
  N  N933  1  0.763600  0.673630  0.833170  1
  N  N934  1  0.263600  0.326370  0.666830  1
  N  N935  1  0.236400  0.326370  0.166830  1
  N  N936  1  0.736400  0.673630  0.333170  1
  N  N937  1  0.732900  0.735030  0.583530  1
  N  N938  1  0.232900  0.264970  0.916470  1
  N  N939  1  0.267100  0.264970  0.416470  1
  N  N940  1  0.767100  0.735030  0.083530  1
  N  N941  1  0.891300  0.735010  0.624300  1
  N  N942  1  0.391300  0.264990  0.875700  1
  N  N943  1  0.108700  0.264990  0.375700  1
  N  N944  1  0.608700  0.735010  0.124300  1
  N  N945  1  0.773200  0.642750  0.644860  1
  N  N946  1  0.273200  0.357250  0.855140  1
  N  N947  1  0.226800  0.357250  0.355140  1
  N  N948  1  0.726800  0.642750  0.144860  1
  N  N949  1  0.694600  0.897120  0.783650  1
  N  N950  1  0.194600  0.102880  0.716350  1
  N  N951  1  0.305400  0.102880  0.216350  1
  N  N952  1  0.805400  0.897120  0.283650  1
  N  N953  1  0.871800  0.876310  0.769530  1
  N  N954  1  0.371800  0.123690  0.730470  1
  N  N955  1  0.128200  0.123690  0.230470  1
  N  N956  1  0.628200  0.876310  0.269530  1
  N  N957  1  0.774100  0.819290  0.665050  1
  N  N958  1  0.274100  0.180710  0.834950  1
  N  N959  1  0.225900  0.180710  0.334950  1
  N  N960  1  0.725900  0.819290  0.165050  1
  O  O961  1  0.740100  0.680460  0.925840  1
  O  O962  1  0.240100  0.319540  0.574160  1
  O  O963  1  0.259900  0.319540  0.074160  1
  O  O964  1  0.759900  0.680460  0.425840  1
  O  O965  1  0.931640  0.682480  0.892810  1
  O  O966  1  0.431640  0.317520  0.607190  1
  O  O967  1  0.068360  0.317520  0.107190  1
  O  O968  1  0.568360  0.682480  0.392810  1
  O  O969  1  0.730300  0.549560  0.630460  1
  O  O970  1  0.230300  0.450440  0.869540  1
  O  O971  1  0.269700  0.450440  0.369540  1
  O  O972  1  0.769700  0.549560  0.130460  1
  O  O973  1  0.928900  0.583900  0.647760  1
  O  O974  1  0.428900  0.416100  0.852240  1
  O  O975  1  0.071100  0.416100  0.352240  1
  O  O976  1  0.571100  0.583900  0.147760  1
  O  O977  1  0.762400  0.815230  0.571000  1
  O  O978  1  0.262400  0.184770  0.929000  1
  O  O979  1  0.237600  0.184770  0.429000  1
  O  O980  1  0.737600  0.815230  0.071000  1
  O  O981  1  0.947100  0.811280  0.610220  1
  O  O982  1  0.447100  0.188720  0.889780  1
  O  O983  1  0.052900  0.188720  0.389780  1
  O  O984  1  0.552900  0.811280  0.110220  1
  O  O985  1  0.732200  0.946200  0.867030  1
  O  O986  1  0.232200  0.053800  0.632970  1
  O  O987  1  0.267800  0.053800  0.132970  1
  O  O988  1  0.767800  0.946200  0.367030  1
  O  O989  1  0.930800  0.915710  0.851580  1
  O  O990  1  0.430800  0.084290  0.648420  1
  O  O991  1  0.069200  0.084290  0.148420  1
  O  O992  1  0.569200  0.915710  0.351580  1
