
#######################################################################
#
#                 Cambridge Crystallographic Data Centre
#                                CCDC 
#
#######################################################################
#
# If this CIF has been generated from an entry in the Cambridge 
# Structural Database, then it will include bibliographic, chemical, 
# crystal, experimental, refinement or atomic coordinate data resulting 
# from the CCDC's data processing and validation procedures.
#
#######################################################################

data_MIKHIY
_chemical_formula_moiety         'C108 H116 N12 O8 Zn4,C7 H8'
_chemical_name_systematic        
'tetrakis(\m~2~-3,4-bis((3-t-Butyl-2-oxybenzylidene)amino)pyridine)-tetra-zinc(ii) toluene solvate'
_symmetry_cell_setting           monoclinic
_symmetry_space_group_name_H-M   'P 21/c'
_symmetry_Int_Tables_number      14
_space_group_name_Hall           '-P 2ybc'
loop_
_symmetry_equiv_pos_site_id
_symmetry_equiv_pos_as_xyz
1 x,y,z
2 -x,1/2+y,1/2-z
3 -x,-y,-z
4 x,1/2-y,1/2+z
_cell_length_a                   32.9563(10)
_cell_length_b                   14.3386(10)
_cell_length_c                   33.2901(10)
_cell_angle_alpha                90
_cell_angle_beta                 107.0990(10)
_cell_angle_gamma                90
_cell_volume                     15035.8
_exptl_crystal_colour            orange
_exptl_crystal_description       block
_cell_formula_units_Z            4
loop_
_atom_site_label
_atom_site_type_symbol
_atom_site_fract_x
_atom_site_fract_y
_atom_site_fract_z
Zn1 Zn 0.290361(15) 0.18884(3) 0.107527(16)
Zn2 Zn 0.406126(15) 0.19807(3) 0.328721(16)
Zn3 Zn 0.215182(15) 0.17461(3) 0.394071(17)
Zn4 Zn 0.098003(16) 0.19447(3) 0.172937(17)
O1 O 0.31954(9) 0.2599(2) 0.07416(9)
O2 O 0.31752(9) 0.06836(19) 0.10719(9)
O3 O 0.45044(9) 0.2697(2) 0.36954(9)
O4 O 0.41610(9) 0.0711(2) 0.35224(9)
O5 O 0.18477(9) 0.2376(2) 0.42900(10)
O6 O 0.18872(9) 0.0529(2) 0.38978(10)
O7 O 0.05380(9) 0.2678(2) 0.13297(9)
O8 O 0.08429(10) 0.0692(2) 0.14842(10)
N1 N 0.23914(10) 0.2769(2) 0.08590(11)
N2 N 0.24256(11) 0.1194(2) 0.12680(11)
N3 N 0.14661(11) 0.2230(3) 0.14618(11)
N4 N 0.40194(11) 0.3133(2) 0.28747(11)
N5 N 0.38486(10) 0.1359(2) 0.26965(11)
N6 N 0.32637(11) 0.2364(3) 0.16683(11)
N7 N 0.26497(10) 0.2671(2) 0.41647(12)
N8 N 0.26499(10) 0.1087(2) 0.37570(11)
N9 N 0.35725(11) 0.2268(3) 0.35514(11)
N10 N 0.10288(11) 0.3054(2) 0.21635(12)
N11 N 0.12369(11) 0.1282(2) 0.23047(11)
N12 N 0.18071(11) 0.2259(3) 0.33495(11)
C1 C 0.30679(14) 0.3212(3) 0.04498(15)
C2 C 0.26420(13) 0.3568(3) 0.03258(14)
C3 C 0.25045(15) 0.4196(3) -0.00105(14)
H1 H 0.2219 0.4412 -0.0092
C4 C 0.27750(16) 0.4495(3) -0.02188(15)
H2 H 0.2683 0.4921 -0.0446
C5 C 0.31930(15) 0.4168(3) -0.00953(14)
H3 H 0.3379 0.4392 -0.0244
C6 C 0.33525(13) 0.3549(3) 0.02236(14)
C7 C 0.23350(14) 0.3324(3) 0.05390(14)
H4 H 0.2062 0.3599 0.0434
C8 C 0.20716(14) 0.2635(3) 0.10437(14)
C9 C 0.17543(13) 0.3259(3) 0.10467(14)
H5 H 0.1736 0.3837 0.0903
C10 C 0.46062(13) 0.3572(3) 0.37259(14)
C11 C 0.48758(13) 0.3928(3) 0.41188(14)
C12 C 0.49730(14) 0.4861(3) 0.41476(15)
H6 H 0.5146 0.5099 0.4408
C13 C 0.48268(15) 0.5483(3) 0.38054(16)
H7 H 0.4903 0.6124 0.3838
C14 C 0.45789(14) 0.5165(3) 0.34335(15)
H8 H 0.4487 0.5580 0.3202
C15 C 0.44525(13) 0.4210(3) 0.33835(14)
C16 C 0.41957(13) 0.3951(3) 0.29770(15)
H9 H 0.4148 0.4408 0.2762
C17 C 0.37738(13) 0.2928(3) 0.24567(14)
C18 C 0.36181(15) 0.3568(3) 0.21331(15)
H10 H 0.3681 0.4213 0.2178
C19 C 0.19628(14) 0.3011(3) 0.45779(14)
C20 C 0.16647(14) 0.3337(3) 0.47808(15)
C21 C 0.18032(15) 0.3969(3) 0.51060(15)
H11 H 0.1609 0.4171 0.5249
C22 C 0.22206(15) 0.4327(3) 0.52353(15)
H12 H 0.2305 0.4750 0.5465
C23 C 0.24996(15) 0.4063(3) 0.50296(15)
H13 H 0.2779 0.4315 0.5113
C24 C 0.23850(13) 0.3423(3) 0.46940(14)
C25 C 0.26902(14) 0.3224(3) 0.44900(15)
H14 H 0.2958 0.3521 0.4599
C26 C 0.29710(13) 0.2564(3) 0.39775(13)
C27 C 0.32691(14) 0.3246(3) 0.39620(16)
H15 H 0.3268 0.3832 0.4095
C28 C 0.04169(13) 0.3539(3) 0.13264(15)
C29 C 0.01293(14) 0.3906(3) 0.09499(15)
C30 C -0.00010(14) 0.4809(4) 0.09526(16)
H16 H -0.0190 0.5054 0.0702
C31 C 0.01302(15) 0.5403(3) 0.13078(17)
H17 H 0.0032 0.6028 0.1296
C32 C 0.03979(14) 0.5054(3) 0.16627(17)
H18 H 0.0484 0.5443 0.1904
C33 C 0.05564(14) 0.4132(3) 0.16903(15)
C34 C 0.08347(14) 0.3848(3) 0.20743(15)
H19 H 0.0888 0.4289 0.2297
C35 C 0.12883(14) 0.2852(3) 0.25674(15)
C36 C 0.14399(14) 0.3469(3) 0.28951(16)
H20 H 0.1372 0.4113 0.2856
C37 C 0.14631(14) 0.3049(3) 0.12574(15)
H21 H 0.1251 0.3497 0.1259
C38 C 0.17730(14) 0.1625(3) 0.14606(14)
H22 H 0.1782 0.1051 0.1606
C39 C 0.20798(13) 0.1787(3) 0.12593(13)
C40 C 0.24382(14) 0.0325(3) 0.13809(13)
H23 H 0.2196 0.0078 0.1444
C41 C 0.27899(14) -0.0286(3) 0.14172(14)
C42 C 0.27667(16) -0.1163(3) 0.16018(14)
H24 H 0.2521 -0.1326 0.1680
C43 C 0.30963(19) -0.1779(3) 0.16693(17)
H25 H 0.3077 -0.2371 0.1791
C44 C 0.34570(17) -0.1546(4) 0.15615(15)
H26 H 0.3687 -0.1976 0.1624
C45 C 0.34994(15) -0.0716(3) 0.13671(14)
C46 C 0.31467(14) -0.0078(3) 0.12755(13)
C47 C 0.38126(14) 0.3233(3) 0.03570(16)
C48 C 0.38425(14) 0.2180(3) 0.02883(16)
H27 H 0.4141 0.1987 0.0381
H28 H 0.3721 0.2036 -0.0011
H29 H 0.3685 0.1844 0.0451
C49 C 0.40233(14) 0.3469(4) 0.08207(15)
H30 H 0.4030 0.4147 0.0858
H31 H 0.4314 0.3224 0.0908
H32 H 0.3861 0.3185 0.0993
C50 C 0.40739(14) 0.3721(3) 0.01098(16)
H33 H 0.4065 0.4397 0.0151
H34 H 0.3956 0.3575 -0.0190
H35 H 0.4369 0.3505 0.0209
C51 C 0.38992(16) -0.0479(3) 0.12573(16)
C52 C 0.38100(15) -0.0417(3) 0.07752(15)
H36 H 0.3734 -0.1036 0.0651
H37 H 0.4065 -0.0192 0.0710
H38 H 0.3575 0.0016 0.0659
C53 C 0.40919(15) 0.0459(4) 0.14512(16)
H39 H 0.3896 0.0967 0.1328
H40 H 0.4363 0.0561 0.1393
H41 H 0.4139 0.0443 0.1756
C54 C 0.42529(17) -0.1212(4) 0.14202(18)
H42 H 0.4325 -0.1253 0.1727
H43 H 0.4505 -0.1027 0.1340
H44 H 0.4153 -0.1821 0.1296
C55 C 0.33751(14) 0.3258(3) 0.17515(16)
H45 H 0.3279 0.3701 0.1532
C56 C 0.34149(14) 0.1749(3) 0.19850(15)
H46 H 0.3333 0.1114 0.1937
C57 C 0.36822(13) 0.1996(3) 0.23743(13)
C58 C 0.39320(13) 0.0503(3) 0.26183(14)
H47 H 0.3885 0.0346 0.2331
C59 C 0.40865(13) -0.0231(3) 0.29158(15)
C60 C 0.41346(15) -0.1102(3) 0.27494(15)
H48 H 0.4075 -0.1171 0.2454
C61 C 0.42658(16) -0.1858(3) 0.30037(17)
H49 H 0.4302 -0.2450 0.2890
C62 C 0.43461(15) -0.1731(3) 0.34378(17)
H50 H 0.4430 -0.2262 0.3613
C63 C 0.43124(13) -0.0895(3) 0.36277(14)
C64 C 0.41835(13) -0.0096(3) 0.33612(15)
C65 C 0.50353(15) 0.3258(3) 0.44915(15)
C66 C 0.53255(16) 0.3765(3) 0.48698(15)
H51 H 0.5438 0.3319 0.5099
H52 H 0.5164 0.4250 0.4963
H53 H 0.5561 0.4051 0.4791
C67 C 0.53004(14) 0.2476(3) 0.43793(15)
H54 H 0.5543 0.2747 0.4308
H55 H 0.5125 0.2125 0.4138
H56 H 0.5403 0.2056 0.4620
C68 C 0.46605(14) 0.2827(3) 0.46152(15)
H57 H 0.4476 0.2490 0.4374
H58 H 0.4498 0.3323 0.4700
H59 H 0.4769 0.2394 0.4850
C69 C 0.43881(16) -0.0801(3) 0.40966(15)
C70 C 0.47515(18) -0.0109(4) 0.42877(16)
H60 H 0.5018 -0.0358 0.4257
H61 H 0.4780 -0.0020 0.4587
H62 H 0.4688 0.0491 0.4141
C71 C 0.39747(18) -0.0476(4) 0.41877(17)
H63 H 0.3877 0.0108 0.4038
H64 H 0.4031 -0.0376 0.4490
H65 H 0.3755 -0.0955 0.4093
C72 C 0.45150(19) -0.1741(3) 0.43270(16)
H66 H 0.4290 -0.2201 0.4215
H67 H 0.4554 -0.1655 0.4628
H68 H 0.4781 -0.1962 0.4284
C73 C 0.35561(14) 0.3067(3) 0.37579(14)
H69 H 0.3761 0.3535 0.3759
C74 C 0.32815(14) 0.1615(3) 0.35600(13)
H70 H 0.3290 0.1042 0.3420
C75 C 0.29716(14) 0.1723(3) 0.37581(14)
C76 C 0.26738(13) 0.0218(3) 0.36796(13)
H71 H 0.2928 0.0009 0.3628
C77 C 0.23551(13) -0.0466(3) 0.36629(13)
C78 C 0.24315(16) -0.1362(3) 0.35392(15)
H72 H 0.2693 -0.1486 0.3484
C79 C 0.21448(17) -0.2065(3) 0.34945(17)
H73 H 0.2201 -0.2669 0.3406
C80 C 0.17607(16) -0.1863(3) 0.35840(15)
H74 H 0.1561 -0.2354 0.3557
C81 C 0.16585(14) -0.1011(3) 0.37064(14)
C82 C 0.19681(14) -0.0275(3) 0.37608(15)
C83 C 0.12098(14) 0.2971(3) 0.46415(15)
C84 C 0.11974(15) 0.1935(3) 0.47450(17)
H75 H 0.1305 0.1847 0.5050
H76 H 0.1375 0.1585 0.4608
H77 H 0.0904 0.1708 0.4644
C85 C 0.10021(14) 0.3124(3) 0.41692(15)
H78 H 0.0700 0.2970 0.4097
H79 H 0.1139 0.2721 0.4010
H80 H 0.1035 0.3778 0.4099
C86 C 0.09309(14) 0.3478(3) 0.48692(16)
H81 H 0.0939 0.4150 0.4820
H82 H 0.1038 0.3353 0.5171
H83 H 0.0638 0.3253 0.4762
C87 C 0.12345(15) -0.0809(3) 0.38001(16)
C88 C 0.13178(15) -0.0565(3) 0.42626(15)
H84 H 0.1500 -0.0012 0.4330
H85 H 0.1460 -0.1090 0.4436
H86 H 0.1048 -0.0437 0.4319
C89 C 0.10007(14) -0.0032(4) 0.35164(17)
H87 H 0.1166 0.0546 0.3583
H88 H 0.0722 0.0061 0.3560
H89 H 0.0963 -0.0200 0.3222
C90 C 0.09439(16) -0.1672(4) 0.37008(17)
H90 H 0.0667 -0.1516 0.3737
H91 H 0.1074 -0.2181 0.3892
H92 H 0.0905 -0.1867 0.3410
C91 C 0.16878(15) 0.3157(3) 0.32754(15)
H93 H 0.1781 0.3593 0.3498
C92 C 0.16648(14) 0.1656(3) 0.30361(15)
H94 H 0.1748 0.1022 0.3084
C93 C 0.14024(14) 0.1902(3) 0.26453(15)
C94 C 0.11797(13) 0.0418(3) 0.23827(15)
H95 H 0.1257 0.0242 0.2670
C95 C 0.10132(14) -0.0300(3) 0.20848(15)
C96 C 0.10112(16) -0.1209(3) 0.22470(17)
H96 H 0.1109 -0.1310 0.2542
C97 C 0.08690(17) -0.1944(3) 0.19829(19)
H97 H 0.0866 -0.2556 0.2092
C98 C 0.07277(16) -0.1782(4) 0.15475(17)
H98 H 0.0634 -0.2300 0.1366
C99 C 0.07184(15) -0.0913(3) 0.13709(16)
C100 C 0.08585(14) -0.0127(3) 0.16436(16)
C101 C -0.00216(15) 0.3300(3) 0.05558(16)
C102 C -0.03255(16) 0.3816(4) 0.01840(16)
H99 H -0.0186 0.4377 0.0120
H100 H -0.0582 0.3996 0.0257
H101 H -0.0403 0.3406 -0.0062
C103 C -0.02565(15) 0.2427(3) 0.06366(15)
H102 H -0.0319 0.2018 0.0390
H103 H -0.0523 0.2613 0.0689
H104 H -0.0078 0.2094 0.0882
C104 C 0.03581(15) 0.3001(4) 0.04093(16)
H105 H 0.0513 0.3555 0.0364
H106 H 0.0257 0.2651 0.0146
H107 H 0.0547 0.2604 0.0624
C105 C 0.05646(19) -0.0784(4) 0.08951(18)
C106 C 0.01728(19) -0.0145(4) 0.07764(19)
H108 H -0.0050 -0.0417 0.0880
H109 H 0.0068 -0.0083 0.0470
H110 H 0.0250 0.0471 0.0903
C107 C 0.0920(2) -0.0367(4) 0.07528(18)
H111 H 0.0997 0.0244 0.0885
H112 H 0.0827 -0.0295 0.0447
H113 H 0.1168 -0.0781 0.0834
C108 C 0.0435(2) -0.1718(4) 0.06557(17)
H114 H 0.0685 -0.2118 0.0702
H115 H 0.0316 -0.1592 0.0355
H116 H 0.0222 -0.2033 0.0760
loop_
_geom_bond_atom_site_label_1
_geom_bond_atom_site_label_2
_geom_bond_site_symmetry_1
_geom_bond_site_symmetry_2
Zn1 O1 1_555 1_555
Zn2 O3 1_555 1_555
Zn3 O5 1_555 1_555
Zn4 O7 1_555 1_555
O1 C1 1_555 1_555
O2 Zn1 1_555 1_555
O3 C10 1_555 1_555
O4 Zn2 1_555 1_555
O5 C19 1_555 1_555
O6 Zn3 1_555 1_555
O7 C28 1_555 1_555
O8 Zn4 1_555 1_555
N1 Zn1 1_555 1_555
N2 Zn1 1_555 1_555
N3 Zn4 1_555 1_555
N4 Zn2 1_555 1_555
N5 Zn2 1_555 1_555
N6 Zn1 1_555 1_555
N7 Zn3 1_555 1_555
N8 Zn3 1_555 1_555
N9 Zn2 1_555 1_555
N10 Zn4 1_555 1_555
N11 Zn4 1_555 1_555
N12 Zn3 1_555 1_555
C1 C2 1_555 1_555
C2 C3 1_555 1_555
C3 H1 1_555 1_555
C4 C3 1_555 1_555
H2 C4 1_555 1_555
C5 C4 1_555 1_555
H3 C5 1_555 1_555
C6 C1 1_555 1_555
C7 N1 1_555 1_555
H4 C7 1_555 1_555
C8 N1 1_555 1_555
C9 C8 1_555 1_555
H5 C9 1_555 1_555
C10 C11 1_555 1_555
C11 C12 1_555 1_555
C12 H6 1_555 1_555
C13 C12 1_555 1_555
H7 C13 1_555 1_555
C14 C13 1_555 1_555
H8 C14 1_555 1_555
C15 C10 1_555 1_555
C16 N4 1_555 1_555
H9 C16 1_555 1_555
C17 N4 1_555 1_555
C18 C17 1_555 1_555
H10 C18 1_555 1_555
C19 C20 1_555 1_555
C20 C21 1_555 1_555
C21 H11 1_555 1_555
C22 C21 1_555 1_555
H12 C22 1_555 1_555
C23 C22 1_555 1_555
H13 C23 1_555 1_555
C24 C19 1_555 1_555
C25 N7 1_555 1_555
H14 C25 1_555 1_555
C26 N7 1_555 1_555
C27 C26 1_555 1_555
H15 C27 1_555 1_555
C28 C29 1_555 1_555
C29 C30 1_555 1_555
C30 H16 1_555 1_555
C31 C30 1_555 1_555
H17 C31 1_555 1_555
C32 C31 1_555 1_555
H18 C32 1_555 1_555
C33 C28 1_555 1_555
C34 N10 1_555 1_555
H19 C34 1_555 1_555
C35 N10 1_555 1_555
C36 C35 1_555 1_555
H20 C36 1_555 1_555
C37 N3 1_555 1_555
H21 C37 1_555 1_555
C38 N3 1_555 1_555
H22 C38 1_555 1_555
C39 N2 1_555 1_555
C40 N2 1_555 1_555
H23 C40 1_555 1_555
C41 C40 1_555 1_555
C42 C41 1_555 1_555
H24 C42 1_555 1_555
C43 C42 1_555 1_555
H25 C43 1_555 1_555
C44 C43 1_555 1_555
H26 C44 1_555 1_555
C45 C44 1_555 1_555
C46 O2 1_555 1_555
C47 C6 1_555 1_555
C48 C47 1_555 1_555
H27 C48 1_555 1_555
H28 C48 1_555 1_555
H29 C48 1_555 1_555
C49 C47 1_555 1_555
H30 C49 1_555 1_555
H31 C49 1_555 1_555
H32 C49 1_555 1_555
C50 C47 1_555 1_555
H33 C50 1_555 1_555
H34 C50 1_555 1_555
H35 C50 1_555 1_555
C51 C45 1_555 1_555
C52 C51 1_555 1_555
H36 C52 1_555 1_555
H37 C52 1_555 1_555
H38 C52 1_555 1_555
C53 C51 1_555 1_555
H39 C53 1_555 1_555
H40 C53 1_555 1_555
H41 C53 1_555 1_555
C54 C51 1_555 1_555
H42 C54 1_555 1_555
H43 C54 1_555 1_555
H44 C54 1_555 1_555
C55 N6 1_555 1_555
H45 C55 1_555 1_555
C56 N6 1_555 1_555
H46 C56 1_555 1_555
C57 N5 1_555 1_555
C58 N5 1_555 1_555
H47 C58 1_555 1_555
C59 C58 1_555 1_555
C60 C59 1_555 1_555
H48 C60 1_555 1_555
C61 C60 1_555 1_555
H49 C61 1_555 1_555
C62 C61 1_555 1_555
H50 C62 1_555 1_555
C63 C62 1_555 1_555
C64 O4 1_555 1_555
C65 C11 1_555 1_555
C66 C65 1_555 1_555
H51 C66 1_555 1_555
H52 C66 1_555 1_555
H53 C66 1_555 1_555
C67 C65 1_555 1_555
H54 C67 1_555 1_555
H55 C67 1_555 1_555
H56 C67 1_555 1_555
C68 C65 1_555 1_555
H57 C68 1_555 1_555
H58 C68 1_555 1_555
H59 C68 1_555 1_555
C69 C63 1_555 1_555
C70 C69 1_555 1_555
H60 C70 1_555 1_555
H61 C70 1_555 1_555
H62 C70 1_555 1_555
C71 C69 1_555 1_555
H63 C71 1_555 1_555
H64 C71 1_555 1_555
H65 C71 1_555 1_555
C72 C69 1_555 1_555
H66 C72 1_555 1_555
H67 C72 1_555 1_555
H68 C72 1_555 1_555
C73 N9 1_555 1_555
H69 C73 1_555 1_555
C74 N9 1_555 1_555
H70 C74 1_555 1_555
C75 N8 1_555 1_555
C76 N8 1_555 1_555
H71 C76 1_555 1_555
C77 C76 1_555 1_555
C78 C77 1_555 1_555
H72 C78 1_555 1_555
C79 C78 1_555 1_555
H73 C79 1_555 1_555
C80 C79 1_555 1_555
H74 C80 1_555 1_555
C81 C80 1_555 1_555
C82 O6 1_555 1_555
C83 C20 1_555 1_555
C84 C83 1_555 1_555
H75 C84 1_555 1_555
H76 C84 1_555 1_555
H77 C84 1_555 1_555
C85 C83 1_555 1_555
H78 C85 1_555 1_555
H79 C85 1_555 1_555
H80 C85 1_555 1_555
C86 C83 1_555 1_555
H81 C86 1_555 1_555
H82 C86 1_555 1_555
H83 C86 1_555 1_555
C87 C81 1_555 1_555
C88 C87 1_555 1_555
H84 C88 1_555 1_555
H85 C88 1_555 1_555
H86 C88 1_555 1_555
C89 C87 1_555 1_555
H87 C89 1_555 1_555
H88 C89 1_555 1_555
H89 C89 1_555 1_555
C90 C87 1_555 1_555
H90 C90 1_555 1_555
H91 C90 1_555 1_555
H92 C90 1_555 1_555
C91 N12 1_555 1_555
H93 C91 1_555 1_555
C92 N12 1_555 1_555
H94 C92 1_555 1_555
C93 N11 1_555 1_555
C94 N11 1_555 1_555
H95 C94 1_555 1_555
C95 C94 1_555 1_555
C96 C95 1_555 1_555
H96 C96 1_555 1_555
C97 C96 1_555 1_555
H97 C97 1_555 1_555
C98 C97 1_555 1_555
H98 C98 1_555 1_555
C99 C98 1_555 1_555
C100 O8 1_555 1_555
C101 C29 1_555 1_555
C102 C101 1_555 1_555
H99 C102 1_555 1_555
H100 C102 1_555 1_555
H101 C102 1_555 1_555
C103 C101 1_555 1_555
H102 C103 1_555 1_555
H103 C103 1_555 1_555
H104 C103 1_555 1_555
C104 C101 1_555 1_555
H105 C104 1_555 1_555
H106 C104 1_555 1_555
H107 C104 1_555 1_555
C105 C99 1_555 1_555
C106 C105 1_555 1_555
H108 C106 1_555 1_555
H109 C106 1_555 1_555
H110 C106 1_555 1_555
C107 C105 1_555 1_555
H111 C107 1_555 1_555
H112 C107 1_555 1_555
H113 C107 1_555 1_555
C108 C105 1_555 1_555
H114 C108 1_555 1_555
H115 C108 1_555 1_555
H116 C108 1_555 1_555
C2 C7 1_555 1_555
C5 C6 1_555 1_555
C8 C39 1_555 1_555
C9 C37 1_555 1_555
C14 C15 1_555 1_555
C15 C16 1_555 1_555
C17 C57 1_555 1_555
C18 C55 1_555 1_555
C23 C24 1_555 1_555
C24 C25 1_555 1_555
C26 C75 1_555 1_555
C27 C73 1_555 1_555
C32 C33 1_555 1_555
C33 C34 1_555 1_555
C35 C93 1_555 1_555
C36 C91 1_555 1_555
C38 C39 1_555 1_555
C41 C46 1_555 1_555
C45 C46 1_555 1_555
C56 C57 1_555 1_555
C59 C64 1_555 1_555
C63 C64 1_555 1_555
C74 C75 1_555 1_555
C77 C82 1_555 1_555
C81 C82 1_555 1_555
C92 C93 1_555 1_555
C95 C100 1_555 1_555
C99 C100 1_555 1_555

#END
