
#######################################################################
#
#                 Cambridge Crystallographic Data Centre
#                                CCDC 
#
#######################################################################
#
# If this CIF has been generated from an entry in the Cambridge 
# Structural Database, then it will include bibliographic, chemical, 
# crystal, experimental, refinement or atomic coordinate data resulting 
# from the CCDC's data processing and validation procedures.
#
#######################################################################

data_MIQCEU
_chemical_formula_moiety         'C192 H144 Cu24 O120,42(H2 O1)'
_chemical_name_systematic        
'tetracosakis(\m~4~-1,3-benzenedicarboxylato)-tetracosa-aqua-tetracosa-copper(ii) hydrate'
_symmetry_cell_setting           cubic
_symmetry_space_group_name_H-M   'I m -3 m'
_symmetry_Int_Tables_number      229
_space_group_name_Hall           '-I 4 2 3'
loop_
_symmetry_equiv_pos_site_id
_symmetry_equiv_pos_as_xyz
1 x,y,z
2 -y,x,z
3 x,-y,-z
4 z,x,y
5 -x,-y,z
6 y,x,-z
7 -x,z,y
8 y,-x,z
9 -x,y,-z
10 -z,-x,y
11 -y,-x,-z
12 x,-z,y
13 z,-x,-y
14 -x,-z,-y
15 -z,x,-y
16 x,z,-y
17 y,z,x
18 -z,y,x
19 z,y,-x
20 y,-z,-x
21 -z,-y,-x
22 -y,z,-x
23 -y,-z,x
24 1/2+x,1/2+y,1/2+z
25 1/2-y,1/2+x,1/2+z
26 1/2+x,1/2-y,1/2-z
27 1/2+z,1/2+x,1/2+y
28 1/2-x,1/2-y,1/2+z
29 1/2+y,1/2+x,1/2-z
30 1/2-x,1/2+z,1/2+y
31 1/2+y,1/2-x,1/2+z
32 1/2-x,1/2+y,1/2-z
33 1/2-z,1/2-x,1/2+y
34 1/2-y,1/2-x,1/2-z
35 1/2+x,1/2-z,1/2+y
36 1/2+z,1/2-x,1/2-y
37 1/2-x,1/2-z,1/2-y
38 1/2-z,1/2+x,1/2-y
39 1/2+x,1/2+z,1/2-y
40 1/2+y,1/2+z,1/2+x
41 1/2-z,1/2+y,1/2+x
42 1/2+z,1/2+y,1/2-x
43 1/2+y,1/2-z,1/2-x
44 1/2-z,1/2-y,1/2-x
45 1/2-y,1/2+z,1/2-x
46 1/2-y,1/2-z,1/2+x
47 z,-y,x
48 1/2+z,1/2-y,1/2+x
49 -x,-y,-z
50 y,-x,-z
51 -x,y,z
52 -z,-x,-y
53 x,y,-z
54 -y,-x,z
55 x,-z,-y
56 -y,x,-z
57 x,-y,z
58 z,x,-y
59 y,x,z
60 -x,z,-y
61 -z,x,y
62 x,z,y
63 z,-x,y
64 -x,-z,y
65 -y,-z,-x
66 z,-y,-x
67 -z,-y,x
68 -y,z,x
69 z,y,x
70 y,-z,x
71 y,z,-x
72 1/2-x,1/2-y,1/2-z
73 1/2+y,1/2-x,1/2-z
74 1/2-x,1/2+y,1/2+z
75 1/2-z,1/2-x,1/2-y
76 1/2+x,1/2+y,1/2-z
77 1/2-y,1/2-x,1/2+z
78 1/2+x,1/2-z,1/2-y
79 1/2-y,1/2+x,1/2-z
80 1/2+x,1/2-y,1/2+z
81 1/2+z,1/2+x,1/2-y
82 1/2+y,1/2+x,1/2+z
83 1/2-x,1/2+z,1/2-y
84 1/2-z,1/2+x,1/2+y
85 1/2+x,1/2+z,1/2+y
86 1/2+z,1/2-x,1/2+y
87 1/2-x,1/2-z,1/2+y
88 1/2-y,1/2-z,1/2-x
89 1/2+z,1/2-y,1/2-x
90 1/2-z,1/2-y,1/2+x
91 1/2-y,1/2+z,1/2+x
92 1/2+z,1/2+y,1/2+x
93 1/2+y,1/2-z,1/2+x
94 1/2+y,1/2+z,1/2-x
95 -z,y,-x
96 1/2-z,1/2+y,1/2-x
_cell_length_a                   27.722(3)
_cell_length_b                   27.722(3)
_cell_length_c                   27.722(3)
_cell_angle_alpha                90
_cell_angle_beta                 90
_cell_angle_gamma                90
_cell_volume                     21304.6
_exptl_crystal_colour            blue
_cell_formula_units_Z            4
loop_
_atom_site_label
_atom_site_type_symbol
_atom_site_fract_x
_atom_site_fract_y
_atom_site_fract_z
O2 O 0.3050(30) 0.4150(30) 0.0000
O3 O 0.1690(30) 0.4190(30) 0.0000
O4 O 0.1850(20) 0.1850(20) 0.1850(20)
Cu1 Cu 0.2047(1) 0.2047(1) 0.0000
Cu2 Cu 0.2720(1) 0.2720(1) 0.0000
O5 O 0.1493(9) 0.1493(9) 0.0000
O6 O 0.3277(6) 0.3277(6) 0.0000
O7 O 0.2322(5) 0.3029(5) 0.0491(5)
O8 O 0.1743(5) 0.2439(5) 0.0500(5)
C1 C 0.1951(9) 0.2832(9) 0.0640(8)
C2 C 0.1688(8) 0.3061(8) 0.1063(8)
C3 C 0.1298(6) 0.2850(11) 0.1298(6)
C4 C 0.1844(9) 0.3500(10) 0.1231(8)
C5 C 0.1639(10) 0.3743(13) 0.1639(10)
H1 H 0.1189 0.2552 0.1189
H2 H 0.2098 0.3649 0.1070
H3 H 0.1759 0.4032 0.1759
O7PB O 0.0491(5) 0.3029(5) 0.2322(5)
O8PB O 0.0500(5) 0.2439(5) 0.1743(5)
C1PB C 0.0640(8) 0.2832(9) 0.1951(9)
C2PB C 0.1063(8) 0.3061(8) 0.1688(8)
C4PB C 0.1231(8) 0.3500(10) 0.1844(9)
H2PB H 0.1070 0.3649 0.2098
Cu1C Cu 0.0000 0.2047(1) 0.2047(1)
Cu2C Cu 0.0000 0.2720(1) 0.2720(1)
O5C O 0.0000 0.1493(9) 0.1493(9)
O6C O 0.0000 0.3277(6) 0.3277(6)
O7C O 0.0491(5) 0.2322(5) 0.3029(5)
O8C O 0.0500(5) 0.1743(5) 0.2439(5)
C1C C 0.0640(8) 0.1951(9) 0.2832(9)
C2C C 0.1063(8) 0.1688(8) 0.3061(8)
C3C C 0.1298(6) 0.1298(6) 0.2850(11)
C4C C 0.1231(8) 0.1844(9) 0.3500(10)
C5C C 0.1639(10) 0.1639(10) 0.3743(13)
H1C H 0.1189 0.1189 0.2552
H2C H 0.1070 0.2098 0.3649
H3C H 0.1759 0.1759 0.4032
O7IB O 0.2322(5) 0.0491(5) 0.3029(5)
O8IB O 0.1743(5) 0.0500(5) 0.2439(5)
C1IB C 0.1951(9) 0.0640(8) 0.2832(9)
C2IB C 0.1688(8) 0.1063(8) 0.3061(8)
C4IB C 0.1844(9) 0.1231(8) 0.3500(10)
H2IB H 0.2098 0.1070 0.3649
O7E O 0.3029(5) 0.2322(5) -0.0491(5)
O8E O 0.2439(5) 0.1743(5) -0.0500(5)
C1E C 0.2832(9) 0.1951(9) -0.0640(8)
C2E C 0.3061(8) 0.1688(8) -0.1063(8)
C3E C 0.2850(11) 0.1298(6) -0.1298(6)
C4E C 0.3500(10) 0.1844(9) -0.1231(8)
C5E C 0.3743(13) 0.1639(10) -0.1639(10)
H1E H 0.2552 0.1189 -0.1189
H2E H 0.3649 0.2098 -0.1070
H3E H 0.4032 0.1759 -0.1759
O7RB O 0.3029(5) 0.0491(5) -0.2322(5)
O8RB O 0.2439(5) 0.0500(5) -0.1743(5)
C1RB C 0.2832(9) 0.0640(8) -0.1951(9)
C2RB C 0.3061(8) 0.1063(8) -0.1688(8)
C4RB C 0.3500(10) 0.1231(8) -0.1844(9)
H2RB H 0.3649 0.1070 -0.2098
Cu1F Cu -0.2047(1) 0.0000 0.2047(1)
Cu2F Cu -0.2720(1) 0.0000 0.2720(1)
O5F O -0.1493(9) 0.0000 0.1493(9)
O6F O -0.3277(6) 0.0000 0.3277(6)
O7F O -0.2322(5) 0.0491(5) 0.3029(5)
O8F O -0.1743(5) 0.0500(5) 0.2439(5)
C1F C -0.1951(9) 0.0640(8) 0.2832(9)
C2F C -0.1688(8) 0.1063(8) 0.3061(8)
C3F C -0.1298(6) 0.1298(6) 0.2850(11)
C4F C -0.1844(9) 0.1231(8) 0.3500(10)
C5F C -0.1639(10) 0.1639(10) 0.3743(13)
H1F H -0.1189 0.1189 0.2552
H2F H -0.2098 0.1070 0.3649
H3F H -0.1759 0.1759 0.4032
O7HB O -0.0491(5) 0.2322(5) 0.3029(5)
O8HB O -0.0500(5) 0.1743(5) 0.2439(5)
C1HB C -0.0640(8) 0.1951(9) 0.2832(9)
C2HB C -0.1063(8) 0.1688(8) 0.3061(8)
C4HB C -0.1231(8) 0.1844(9) 0.3500(10)
H2HB H -0.1070 0.2098 0.3649
Cu1K Cu 0.2047(1) 0.0000 0.2047(1)
Cu2K Cu 0.2720(1) 0.0000 0.2720(1)
O5K O 0.1493(9) 0.0000 0.1493(9)
O6K O 0.3277(6) 0.0000 0.3277(6)
O7P O 0.3029(5) 0.0491(5) 0.2322(5)
O8P O 0.2439(5) 0.0500(5) 0.1743(5)
C1P C 0.2832(9) 0.0640(8) 0.1951(9)
C2P C 0.3061(8) 0.1063(8) 0.1688(8)
C3P C 0.2850(11) 0.1298(6) 0.1298(6)
C4P C 0.3500(10) 0.1231(8) 0.1844(9)
C5P C 0.3743(13) 0.1639(10) 0.1639(10)
H1P H 0.2552 0.1189 0.1189
H2P H 0.3649 0.1070 0.2098
H3P H 0.4032 0.1759 0.1759
O7FB O 0.3029(5) 0.2322(5) 0.0491(5)
O8FB O 0.2439(5) 0.1743(5) 0.0500(5)
C1FB C 0.2832(9) 0.1951(9) 0.0640(8)
C2FB C 0.3061(8) 0.1688(8) 0.1063(8)
C4FB C 0.3500(10) 0.1844(9) 0.1231(8)
H2FB H 0.3649 0.2098 0.1070
O7Q O -0.0491(5) 0.3029(5) 0.2322(5)
O8Q O -0.0500(5) 0.2439(5) 0.1743(5)
C1Q C -0.0640(8) 0.2832(9) 0.1951(9)
C2Q C -0.1063(8) 0.3061(8) 0.1688(8)
C3Q C -0.1298(6) 0.2850(11) 0.1298(6)
C4Q C -0.1231(8) 0.3500(10) 0.1844(9)
C5Q C -0.1639(10) 0.3743(13) 0.1639(10)
H1Q H -0.1189 0.2552 0.1189
H2Q H -0.1070 0.3649 0.2098
H3Q H -0.1759 0.4032 0.1759
O7XA O -0.2322(5) 0.3029(5) 0.0491(5)
O8XA O -0.1743(5) 0.2439(5) 0.0500(5)
C1XA C -0.1951(9) 0.2832(9) 0.0640(8)
C2XA C -0.1688(8) 0.3061(8) 0.1063(8)
C4XA C -0.1844(9) 0.3500(10) 0.1231(8)
H2XA H -0.2098 0.3649 0.1070
Cu1N Cu 0.0000 0.2047(1) -0.2047(1)
Cu2N Cu 0.0000 0.2720(1) -0.2720(1)
O5N O 0.0000 0.1493(9) -0.1493(9)
O6N O 0.0000 0.3277(6) -0.3277(6)
O7R O 0.0491(5) 0.3029(5) -0.2322(5)
O8R O 0.0500(5) 0.2439(5) -0.1743(5)
C1R C 0.0640(8) 0.2832(9) -0.1951(9)
C2R C 0.1063(8) 0.3061(8) -0.1688(8)
C3R C 0.1298(6) 0.2850(11) -0.1298(6)
C4R C 0.1231(8) 0.3500(10) -0.1844(9)
C5R C 0.1639(10) 0.3743(13) -0.1639(10)
H1R H 0.1189 0.2552 -0.1189
H2R H 0.1070 0.3649 -0.2098
H3R H 0.1759 0.4032 -0.1759
O7ZA O 0.2322(5) 0.3029(5) -0.0491(5)
O8ZA O 0.1743(5) 0.2439(5) -0.0500(5)
C1ZA C 0.1951(9) 0.2832(9) -0.0640(8)
C2ZA C 0.1688(8) 0.3061(8) -0.1063(8)
C4ZA C 0.1844(9) 0.3500(10) -0.1231(8)
H2ZA H 0.2098 0.3649 -0.1070
Cu1A Cu -0.2047(1) 0.2047(1) 0.0000
Cu2A Cu -0.2720(1) 0.2720(1) 0.0000
O5A O -0.1493(9) 0.1493(9) 0.0000
O6A O -0.3277(6) 0.3277(6) 0.0000
Cu1O Cu 0.2047(1) 0.0000 -0.2047(1)
Cu2O Cu 0.2720(1) 0.0000 -0.2720(1)
O5O O 0.1493(9) 0.0000 -0.1493(9)
O6O O 0.3277(6) 0.0000 -0.3277(6)
O7A O -0.3029(5) 0.2322(5) 0.0491(5)
O8A O -0.2439(5) 0.1743(5) 0.0500(5)
C1A C -0.2832(9) 0.1951(9) 0.0640(8)
C2A C -0.3061(8) 0.1688(8) 0.1063(8)
C3A C -0.2850(11) 0.1298(6) 0.1298(6)
C4A C -0.3500(10) 0.1844(9) 0.1231(8)
C5A C -0.3743(13) 0.1639(10) 0.1639(10)
H1A H -0.2552 0.1189 0.1189
H2A H -0.3649 0.2098 0.1070
H3A H -0.4032 0.1759 0.1759
O7OB O -0.3029(5) 0.0491(5) 0.2322(5)
O8OB O -0.2439(5) 0.0500(5) 0.1743(5)
C1OB C -0.2832(9) 0.0640(8) 0.1951(9)
C2OB C -0.3061(8) 0.1063(8) 0.1688(8)
C4OB C -0.3500(10) 0.1231(8) 0.1844(9)
H2OB H -0.3649 0.1070 0.2098
Cu1B Cu 0.2047(1) -0.2047(1) 0.0000
Cu2B Cu 0.2720(1) -0.2720(1) 0.0000
O5B O 0.1493(9) -0.1493(9) 0.0000
O6B O 0.3277(6) -0.3277(6) 0.0000
O7G O 0.3029(5) -0.2322(5) 0.0491(5)
O8G O 0.2439(5) -0.1743(5) 0.0500(5)
C1G C 0.2832(9) -0.1951(9) 0.0640(8)
C2G C 0.3061(8) -0.1688(8) 0.1063(8)
C3G C 0.2850(11) -0.1298(6) 0.1298(6)
C4G C 0.3500(10) -0.1844(9) 0.1231(8)
C5G C 0.3743(13) -0.1639(10) 0.1639(10)
H1G H 0.2552 -0.1189 0.1189
H2G H 0.3649 -0.2098 0.1070
H3G H 0.4032 -0.1759 0.1759
O7QB O 0.3029(5) -0.0491(5) 0.2322(5)
O8QB O 0.2439(5) -0.0500(5) 0.1743(5)
C1QB C 0.2832(9) -0.0640(8) 0.1951(9)
C2QB C 0.3061(8) -0.1063(8) 0.1688(8)
C4QB C 0.3500(10) -0.1231(8) 0.1844(9)
H2QB H 0.3649 -0.1070 0.2098
O7H O -0.2322(5) 0.3029(5) -0.0491(5)
O8H O -0.1743(5) 0.2439(5) -0.0500(5)
C1H C -0.1951(9) 0.2832(9) -0.0640(8)
C2H C -0.1688(8) 0.3061(8) -0.1063(8)
C3H C -0.1298(6) 0.2850(11) -0.1298(6)
C4H C -0.1844(9) 0.3500(10) -0.1231(8)
C5H C -0.1639(10) 0.3743(13) -0.1639(10)
H1H H -0.1189 0.2552 -0.1189
H2H H -0.2098 0.3649 -0.1070
H3H H -0.1759 0.4032 -0.1759
O7PC O -0.0491(5) 0.3029(5) -0.2322(5)
O8PC O -0.0500(5) 0.2439(5) -0.1743(5)
C1PC C -0.0640(8) 0.2832(9) -0.1951(9)
C2PC C -0.1063(8) 0.3061(8) -0.1688(8)
C4PC C -0.1231(8) 0.3500(10) -0.1844(9)
H2PC H -0.1070 0.3649 -0.2098
Cu1I Cu 0.0000 -0.2047(1) 0.2047(1)
Cu2I Cu 0.0000 -0.2720(1) 0.2720(1)
O5I O 0.0000 -0.1493(9) 0.1493(9)
O6I O 0.0000 -0.3277(6) 0.3277(6)
O7I O -0.0491(5) -0.2322(5) 0.3029(5)
O8I O -0.0500(5) -0.1743(5) 0.2439(5)
C1I C -0.0640(8) -0.1951(9) 0.2832(9)
C2I C -0.1063(8) -0.1688(8) 0.3061(8)
C3I C -0.1298(6) -0.1298(6) 0.2850(11)
C4I C -0.1231(8) -0.1844(9) 0.3500(10)
C5I C -0.1639(10) -0.1639(10) 0.3743(13)
H1I H -0.1189 -0.1189 0.2552
H2I H -0.1070 -0.2098 0.3649
H3I H -0.1759 -0.1759 0.4032
O7KB O -0.2322(5) -0.0491(5) 0.3029(5)
O8KB O -0.1743(5) -0.0500(5) 0.2439(5)
C1KB C -0.1951(9) -0.0640(8) 0.2832(9)
C2KB C -0.1688(8) -0.1063(8) 0.3061(8)
C4KB C -0.1844(9) -0.1231(8) 0.3500(10)
H2KB H -0.2098 -0.1070 0.3649
O7K O 0.2322(5) -0.0491(5) 0.3029(5)
O8K O 0.1743(5) -0.0500(5) 0.2439(5)
C1K C 0.1951(9) -0.0640(8) 0.2832(9)
C2K C 0.1688(8) -0.1063(8) 0.3061(8)
C3K C 0.1298(6) -0.1298(6) 0.2850(11)
C4K C 0.1844(9) -0.1231(8) 0.3500(10)
C5K C 0.1639(10) -0.1639(10) 0.3743(13)
H1K H 0.1189 -0.1189 0.2552
H2K H 0.2098 -0.1070 0.3649
H3K H 0.1759 -0.1759 0.4032
O7JB O 0.0491(5) -0.2322(5) 0.3029(5)
O8JB O 0.0500(5) -0.1743(5) 0.2439(5)
C1JB C 0.0640(8) -0.1951(9) 0.2832(9)
C2JB C 0.1063(8) -0.1688(8) 0.3061(8)
C4JB C 0.1231(8) -0.1844(9) 0.3500(10)
H2JB H 0.1070 -0.2098 0.3649
Cu1L Cu 0.0000 -0.2047(1) -0.2047(1)
Cu2L Cu 0.0000 -0.2720(1) -0.2720(1)
O5L O 0.0000 -0.1493(9) -0.1493(9)
O6L O 0.0000 -0.3277(6) -0.3277(6)
O7L O 0.0491(5) -0.2322(5) -0.3029(5)
O8L O 0.0500(5) -0.1743(5) -0.2439(5)
C1L C 0.0640(8) -0.1951(9) -0.2832(9)
C2L C 0.1063(8) -0.1688(8) -0.3061(8)
C3L C 0.1298(6) -0.1298(6) -0.2850(11)
C4L C 0.1231(8) -0.1844(9) -0.3500(10)
C5L C 0.1639(10) -0.1639(10) -0.3743(13)
H1L H 0.1189 -0.1189 -0.2552
H2L H 0.1070 -0.2098 -0.3649
H3L H 0.1759 -0.1759 -0.4032
O7BB O 0.2322(5) -0.0491(5) -0.3029(5)
O8BB O 0.1743(5) -0.0500(5) -0.2439(5)
C1BB C 0.1951(9) -0.0640(8) -0.2832(9)
C2BB C 0.1688(8) -0.1063(8) -0.3061(8)
C4BB C 0.1844(9) -0.1231(8) -0.3500(10)
H2BB H 0.2098 -0.1070 -0.3649
Cu1M Cu -0.2047(1) 0.0000 -0.2047(1)
Cu2M Cu -0.2720(1) 0.0000 -0.2720(1)
O5M O -0.1493(9) 0.0000 -0.1493(9)
O6M O -0.3277(6) 0.0000 -0.3277(6)
O7M O -0.2322(5) -0.0491(5) -0.3029(5)
O8M O -0.1743(5) -0.0500(5) -0.2439(5)
C1M C -0.1951(9) -0.0640(8) -0.2832(9)
C2M C -0.1688(8) -0.1063(8) -0.3061(8)
C3M C -0.1298(6) -0.1298(6) -0.2850(11)
C4M C -0.1844(9) -0.1231(8) -0.3500(10)
C5M C -0.1639(10) -0.1639(10) -0.3743(13)
H1M H -0.1189 -0.1189 -0.2552
H2M H -0.2098 -0.1070 -0.3649
H3M H -0.1759 -0.1759 -0.4032
O7YA O -0.0491(5) -0.2322(5) -0.3029(5)
O8YA O -0.0500(5) -0.1743(5) -0.2439(5)
C1YA C -0.0640(8) -0.1951(9) -0.2832(9)
C2YA C -0.1063(8) -0.1688(8) -0.3061(8)
C4YA C -0.1231(8) -0.1844(9) -0.3500(10)
H2YA H -0.1070 -0.2098 -0.3649
O7N O -0.0491(5) 0.2322(5) -0.3029(5)
O8N O -0.0500(5) 0.1743(5) -0.2439(5)
C1N C -0.0640(8) 0.1951(9) -0.2832(9)
C2N C -0.1063(8) 0.1688(8) -0.3061(8)
C3N C -0.1298(6) 0.1298(6) -0.2850(11)
C4N C -0.1231(8) 0.1844(9) -0.3500(10)
C5N C -0.1639(10) 0.1639(10) -0.3743(13)
H1N H -0.1189 0.1189 -0.2552
H2N H -0.1070 0.2098 -0.3649
H3N H -0.1759 0.1759 -0.4032
O7GB O -0.2322(5) 0.0491(5) -0.3029(5)
O8GB O -0.1743(5) 0.0500(5) -0.2439(5)
C1GB C -0.1951(9) 0.0640(8) -0.2832(9)
C2GB C -0.1688(8) 0.1063(8) -0.3061(8)
C4GB C -0.1844(9) 0.1231(8) -0.3500(10)
H2GB H -0.2098 0.1070 -0.3649
O7O O 0.2322(5) 0.0491(5) -0.3029(5)
O8O O 0.1743(5) 0.0500(5) -0.2439(5)
C1O C 0.1951(9) 0.0640(8) -0.2832(9)
C2O C 0.1688(8) 0.1063(8) -0.3061(8)
C3O C 0.1298(6) 0.1298(6) -0.2850(11)
C4O C 0.1844(9) 0.1231(8) -0.3500(10)
C5O C 0.1639(10) 0.1639(10) -0.3743(13)
H1O H 0.1189 0.1189 -0.2552
H2O H 0.2098 0.1070 -0.3649
H3O H 0.1759 0.1759 -0.4032
O7EB O 0.0491(5) 0.2322(5) -0.3029(5)
O8EB O 0.0500(5) 0.1743(5) -0.2439(5)
C1EB C 0.0640(8) 0.1951(9) -0.2832(9)
C2EB C 0.1063(8) 0.1688(8) -0.3061(8)
C4EB C 0.1231(8) 0.1844(9) -0.3500(10)
H2EB H 0.1070 0.2098 -0.3649
O7S O 0.3029(5) -0.0491(5) -0.2322(5)
O8S O 0.2439(5) -0.0500(5) -0.1743(5)
C1S C 0.2832(9) -0.0640(8) -0.1951(9)
C2S C 0.3061(8) -0.1063(8) -0.1688(8)
C3S C 0.2850(11) -0.1298(6) -0.1298(6)
C4S C 0.3500(10) -0.1231(8) -0.1844(9)
C5S C 0.3743(13) -0.1639(10) -0.1639(10)
H1S H 0.2552 -0.1189 -0.1189
H2S H 0.3649 -0.1070 -0.2098
H3S H 0.4032 -0.1759 -0.1759
O7WA O 0.3029(5) -0.2322(5) -0.0491(5)
O8WA O 0.2439(5) -0.1743(5) -0.0500(5)
C1WA C 0.2832(9) -0.1951(9) -0.0640(8)
C2WA C 0.3061(8) -0.1688(8) -0.1063(8)
C4WA C 0.3500(10) -0.1844(9) -0.1231(8)
H2WA H 0.3649 -0.2098 -0.1070
O7U O -0.3029(5) 0.0491(5) -0.2322(5)
O8U O -0.2439(5) 0.0500(5) -0.1743(5)
C1U C -0.2832(9) 0.0640(8) -0.1951(9)
C2U C -0.3061(8) 0.1063(8) -0.1688(8)
C3U C -0.2850(11) 0.1298(6) -0.1298(6)
C4U C -0.3500(10) 0.1231(8) -0.1844(9)
C5U C -0.3743(13) 0.1639(10) -0.1639(10)
H1U H -0.2552 0.1189 -0.1189
H2U H -0.3649 0.1070 -0.2098
H3U H -0.4032 0.1759 -0.1759
O7CB O -0.3029(5) 0.2322(5) -0.0491(5)
O8CB O -0.2439(5) 0.1743(5) -0.0500(5)
C1CB C -0.2832(9) 0.1951(9) -0.0640(8)
C2CB C -0.3061(8) 0.1688(8) -0.1063(8)
C4CB C -0.3500(10) 0.1844(9) -0.1231(8)
H2CB H -0.3649 0.2098 -0.1070
O7V O -0.3029(5) -0.0491(5) 0.2322(5)
O8V O -0.2439(5) -0.0500(5) 0.1743(5)
C1V C -0.2832(9) -0.0640(8) 0.1951(9)
C2V C -0.3061(8) -0.1063(8) 0.1688(8)
C3V C -0.2850(11) -0.1298(6) 0.1298(6)
C4V C -0.3500(10) -0.1231(8) 0.1844(9)
C5V C -0.3743(13) -0.1639(10) 0.1639(10)
H1V H -0.2552 -0.1189 0.1189
H2V H -0.3649 -0.1070 0.2098
H3V H -0.4032 -0.1759 0.1759
O7AB O -0.3029(5) -0.2322(5) 0.0491(5)
O8AB O -0.2439(5) -0.1743(5) 0.0500(5)
C1AB C -0.2832(9) -0.1951(9) 0.0640(8)
C2AB C -0.3061(8) -0.1688(8) 0.1063(8)
C4AB C -0.3500(10) -0.1844(9) 0.1231(8)
H2AB H -0.3649 -0.2098 0.1070
Cu1D Cu -0.2047(1) -0.2047(1) 0.0000
Cu2D Cu -0.2720(1) -0.2720(1) 0.0000
O5D O -0.1493(9) -0.1493(9) 0.0000
O6D O -0.3277(6) -0.3277(6) 0.0000
O7LB O -0.3029(5) -0.0491(5) -0.2322(5)
O8LB O -0.2439(5) -0.0500(5) -0.1743(5)
C1LB C -0.2832(9) -0.0640(8) -0.1951(9)
C2LB C -0.3061(8) -0.1063(8) -0.1688(8)
C3J C -0.2850(11) -0.1298(6) -0.1298(6)
C4LB C -0.3500(10) -0.1231(8) -0.1844(9)
C5J C -0.3743(13) -0.1639(10) -0.1639(10)
H1J H -0.2552 -0.1189 -0.1189
H2LB H -0.3649 -0.1070 -0.2098
H3J H -0.4032 -0.1759 -0.1759
O7J O -0.3029(5) -0.2322(5) -0.0491(5)
O8J O -0.2439(5) -0.1743(5) -0.0500(5)
C1J C -0.2832(9) -0.1951(9) -0.0640(8)
C2J C -0.3061(8) -0.1688(8) -0.1063(8)
C4J C -0.3500(10) -0.1844(9) -0.1231(8)
H2J H -0.3649 -0.2098 -0.1070
O7B O 0.2322(5) -0.3029(5) -0.0491(5)
O8B O 0.1743(5) -0.2439(5) -0.0500(5)
C1B C 0.1951(9) -0.2832(9) -0.0640(8)
C2B C 0.1688(8) -0.3061(8) -0.1063(8)
C3B C 0.1298(6) -0.2850(11) -0.1298(6)
C4B C 0.1844(9) -0.3500(10) -0.1231(8)
C5B C 0.1639(10) -0.3743(13) -0.1639(10)
H1B H 0.1189 -0.2552 -0.1189
H2B H 0.2098 -0.3649 -0.1070
H3B H 0.1759 -0.4032 -0.1759
O7MB O 0.0491(5) -0.3029(5) -0.2322(5)
O8MB O 0.0500(5) -0.2439(5) -0.1743(5)
C1MB C 0.0640(8) -0.2832(9) -0.1951(9)
C2MB C 0.1063(8) -0.3061(8) -0.1688(8)
C4MB C 0.1231(8) -0.3500(10) -0.1844(9)
H2MB H 0.1070 -0.3649 -0.2098
O7D O -0.2322(5) -0.3029(5) 0.0491(5)
O8D O -0.1743(5) -0.2439(5) 0.0500(5)
C1D C -0.1951(9) -0.2832(9) 0.0640(8)
C2D C -0.1688(8) -0.3061(8) 0.1063(8)
C3D C -0.1298(6) -0.2850(11) 0.1298(6)
C4D C -0.1844(9) -0.3500(10) 0.1231(8)
C5D C -0.1639(10) -0.3743(13) 0.1639(10)
H1D H -0.1189 -0.2552 0.1189
H2D H -0.2098 -0.3649 0.1070
H3D H -0.1759 -0.4032 0.1759
O7NB O -0.0491(5) -0.3029(5) 0.2322(5)
O8NB O -0.0500(5) -0.2439(5) 0.1743(5)
C1NB C -0.0640(8) -0.2832(9) 0.1951(9)
C2NB C -0.1063(8) -0.3061(8) 0.1688(8)
C4NB C -0.1231(8) -0.3500(10) 0.1844(9)
H2NB H -0.1070 -0.3649 0.2098
O7T O -0.0491(5) -0.3029(5) -0.2322(5)
O8T O -0.0500(5) -0.2439(5) -0.1743(5)
C1T C -0.0640(8) -0.2832(9) -0.1951(9)
C2T C -0.1063(8) -0.3061(8) -0.1688(8)
C3T C -0.1298(6) -0.2850(11) -0.1298(6)
C4T C -0.1231(8) -0.3500(10) -0.1844(9)
C5T C -0.1639(10) -0.3743(13) -0.1639(10)
H1T H -0.1189 -0.2552 -0.1189
H2T H -0.1070 -0.3649 -0.2098
H3T H -0.1759 -0.4032 -0.1759
O7VA O -0.2322(5) -0.3029(5) -0.0491(5)
O8VA O -0.1743(5) -0.2439(5) -0.0500(5)
C1VA C -0.1951(9) -0.2832(9) -0.0640(8)
C2VA C -0.1688(8) -0.3061(8) -0.1063(8)
C4VA C -0.1844(9) -0.3500(10) -0.1231(8)
H2VA H -0.2098 -0.3649 -0.1070
O7DB O 0.2322(5) -0.3029(5) 0.0491(5)
O8DB O 0.1743(5) -0.2439(5) 0.0500(5)
C1DB C 0.1951(9) -0.2832(9) 0.0640(8)
C2DB C 0.1688(8) -0.3061(8) 0.1063(8)
C3DB C 0.1298(6) -0.2850(11) 0.1298(6)
C4DB C 0.1844(9) -0.3500(10) 0.1231(8)
C5DB C 0.1639(10) -0.3743(13) 0.1639(10)
H1DB H 0.1189 -0.2552 0.1189
H2DB H 0.2098 -0.3649 0.1070
H3DB H 0.1759 -0.4032 0.1759
O7TA O 0.0491(5) -0.3029(5) 0.2322(5)
O8TA O 0.0500(5) -0.2439(5) 0.1743(5)
C1TA C 0.0640(8) -0.2832(9) 0.1951(9)
C2TA C 0.1063(8) -0.3061(8) 0.1688(8)
C4TA C 0.1231(8) -0.3500(10) 0.1844(9)
H2TA H 0.1070 -0.3649 0.2098
O1 O 0.1250(20) 0.1250(20) 0.1250(20)
O9? O 0.2110(30) 0.2310(30) 0.2310(30)
O10? O 0.2230(40) 0.2830(60) 0.2230(40)
loop_
_geom_bond_atom_site_label_1
_geom_bond_atom_site_label_2
_geom_bond_site_symmetry_1
_geom_bond_site_symmetry_2
Cu1 Cu2 1_555 1_555
Cu2 O6 1_555 1_555
O5 Cu1 1_555 1_555
O7 Cu2 1_555 1_555
O8 Cu1 1_555 1_555
C1 O7 1_555 1_555
C2 C1 1_555 1_555
C3 C2 1_555 1_555
C4 C2 1_555 1_555
C5 C4 1_555 1_555
H1 C3 1_555 1_555
H2 C4 1_555 1_555
H3 C5 1_555 1_555
O7PB C1PB 1_555 1_555
O8PB C1PB 1_555 1_555
C1PB C2PB 1_555 1_555
C2PB C3 1_555 1_555
C4PB C5 1_555 1_555
H2PB C4PB 1_555 1_555
Cu1C O8PB 1_555 1_555
Cu2C O7PB 1_555 1_555
O5C Cu1C 1_555 1_555
O6C Cu2C 1_555 1_555
O7C Cu2C 1_555 1_555
O8C Cu1C 1_555 1_555
C1C O7C 1_555 1_555
C2C C1C 1_555 1_555
C3C C2C 1_555 1_555
C4C C2C 1_555 1_555
C5C C4C 1_555 1_555
H1C C3C 1_555 1_555
H2C C4C 1_555 1_555
H3C C5C 1_555 1_555
O7IB C1IB 1_555 1_555
O8IB C1IB 1_555 1_555
C1IB C2IB 1_555 1_555
C2IB C3C 1_555 1_555
C4IB C5C 1_555 1_555
H2IB C4IB 1_555 1_555
O7E Cu2 1_555 1_555
O8E Cu1 1_555 1_555
C1E O7E 1_555 1_555
C2E C1E 1_555 1_555
C3E C2E 1_555 1_555
C4E C2E 1_555 1_555
C5E C4E 1_555 1_555
H1E C3E 1_555 1_555
H2E C4E 1_555 1_555
H3E C5E 1_555 1_555
O7RB C1RB 1_555 1_555
O8RB C1RB 1_555 1_555
C1RB C2RB 1_555 1_555
C2RB C3E 1_555 1_555
C4RB C5E 1_555 1_555
H2RB C4RB 1_555 1_555
Cu1F Cu2F 1_555 1_555
Cu2F O6F 1_555 1_555
O5F Cu1F 1_555 1_555
O7F Cu2F 1_555 1_555
O8F Cu1F 1_555 1_555
C1F O7F 1_555 1_555
C2F C1F 1_555 1_555
C3F C2F 1_555 1_555
C4F C2F 1_555 1_555
C5F C4F 1_555 1_555
H1F C3F 1_555 1_555
H2F C4F 1_555 1_555
H3F C5F 1_555 1_555
O7HB Cu2C 1_555 1_555
O8HB Cu1C 1_555 1_555
C1HB O7HB 1_555 1_555
C2HB C3F 1_555 1_555
C4HB C5F 1_555 1_555
H2HB C4HB 1_555 1_555
Cu1K O8IB 1_555 1_555
Cu2K O7IB 1_555 1_555
O5K Cu1K 1_555 1_555
O6K Cu2K 1_555 1_555
O7P Cu2K 1_555 1_555
O8P Cu1K 1_555 1_555
C1P O7P 1_555 1_555
C2P C1P 1_555 1_555
C3P C2P 1_555 1_555
C4P C2P 1_555 1_555
C5P C4P 1_555 1_555
H1P C3P 1_555 1_555
H2P C4P 1_555 1_555
H3P C5P 1_555 1_555
O7FB Cu2 1_555 1_555
O8FB Cu1 1_555 1_555
C1FB O7FB 1_555 1_555
C2FB C3P 1_555 1_555
C4FB C5P 1_555 1_555
H2FB C4FB 1_555 1_555
O7Q Cu2C 1_555 1_555
O8Q Cu1C 1_555 1_555
C1Q O7Q 1_555 1_555
C2Q C1Q 1_555 1_555
C3Q C2Q 1_555 1_555
C4Q C2Q 1_555 1_555
C5Q C4Q 1_555 1_555
H1Q C3Q 1_555 1_555
H2Q C4Q 1_555 1_555
H3Q C5Q 1_555 1_555
O7XA C1XA 1_555 1_555
O8XA C1XA 1_555 1_555
C1XA C2XA 1_555 1_555
C2XA C3Q 1_555 1_555
C4XA C5Q 1_555 1_555
H2XA C4XA 1_555 1_555
Cu1N Cu2N 1_555 1_555
Cu2N O6N 1_555 1_555
O5N Cu1N 1_555 1_555
O7R Cu2N 1_555 1_555
O8R Cu1N 1_555 1_555
C1R O7R 1_555 1_555
C2R C1R 1_555 1_555
C3R C2R 1_555 1_555
C4R C2R 1_555 1_555
C5R C4R 1_555 1_555
H1R C3R 1_555 1_555
H2R C4R 1_555 1_555
H3R C5R 1_555 1_555
O7ZA Cu2 1_555 1_555
O8ZA Cu1 1_555 1_555
C1ZA O7ZA 1_555 1_555
C2ZA C3R 1_555 1_555
C4ZA C5R 1_555 1_555
H2ZA C4ZA 1_555 1_555
Cu1A O8XA 1_555 1_555
Cu2A O7XA 1_555 1_555
O5A Cu1A 1_555 1_555
O6A Cu2A 1_555 1_555
Cu1O O8RB 1_555 1_555
Cu2O O7RB 1_555 1_555
O5O Cu1O 1_555 1_555
O6O Cu2O 1_555 1_555
O7A Cu2A 1_555 1_555
O8A Cu1A 1_555 1_555
C1A O7A 1_555 1_555
C2A C1A 1_555 1_555
C3A C2A 1_555 1_555
C4A C2A 1_555 1_555
C5A C4A 1_555 1_555
H1A C3A 1_555 1_555
H2A C4A 1_555 1_555
H3A C5A 1_555 1_555
O7OB Cu2F 1_555 1_555
O8OB Cu1F 1_555 1_555
C1OB O7OB 1_555 1_555
C2OB C3A 1_555 1_555
C4OB C5A 1_555 1_555
H2OB C4OB 1_555 1_555
Cu1B Cu2B 1_555 1_555
Cu2B O6B 1_555 1_555
O5B Cu1B 1_555 1_555
O7G Cu2B 1_555 1_555
O8G Cu1B 1_555 1_555
C1G O7G 1_555 1_555
C2G C1G 1_555 1_555
C3G C2G 1_555 1_555
C4G C2G 1_555 1_555
C5G C4G 1_555 1_555
H1G C3G 1_555 1_555
H2G C4G 1_555 1_555
H3G C5G 1_555 1_555
O7QB Cu2K 1_555 1_555
O8QB Cu1K 1_555 1_555
C1QB O7QB 1_555 1_555
C2QB C3G 1_555 1_555
C4QB C5G 1_555 1_555
H2QB C4QB 1_555 1_555
O7H Cu2A 1_555 1_555
O8H Cu1A 1_555 1_555
C1H O7H 1_555 1_555
C2H C1H 1_555 1_555
C3H C2H 1_555 1_555
C4H C2H 1_555 1_555
C5H C4H 1_555 1_555
H1H C3H 1_555 1_555
H2H C4H 1_555 1_555
H3H C5H 1_555 1_555
O7PC Cu2N 1_555 1_555
O8PC Cu1N 1_555 1_555
C1PC O7PC 1_555 1_555
C2PC C3H 1_555 1_555
C4PC C5H 1_555 1_555
H2PC C4PC 1_555 1_555
Cu1I Cu2I 1_555 1_555
Cu2I O6I 1_555 1_555
O5I Cu1I 1_555 1_555
O7I Cu2I 1_555 1_555
O8I Cu1I 1_555 1_555
C1I O7I 1_555 1_555
C2I C1I 1_555 1_555
C3I C2I 1_555 1_555
C4I C2I 1_555 1_555
C5I C4I 1_555 1_555
H1I C3I 1_555 1_555
H2I C4I 1_555 1_555
H3I C5I 1_555 1_555
O7KB Cu2F 1_555 1_555
O8KB Cu1F 1_555 1_555
C1KB O7KB 1_555 1_555
C2KB C3I 1_555 1_555
C4KB C5I 1_555 1_555
H2KB C4KB 1_555 1_555
O7K Cu2K 1_555 1_555
O8K Cu1K 1_555 1_555
C1K O7K 1_555 1_555
C2K C1K 1_555 1_555
C3K C2K 1_555 1_555
C4K C2K 1_555 1_555
C5K C4K 1_555 1_555
H1K C3K 1_555 1_555
H2K C4K 1_555 1_555
H3K C5K 1_555 1_555
O7JB Cu2I 1_555 1_555
O8JB Cu1I 1_555 1_555
C1JB O7JB 1_555 1_555
C2JB C3K 1_555 1_555
C4JB C5K 1_555 1_555
H2JB C4JB 1_555 1_555
Cu1L Cu2L 1_555 1_555
Cu2L O6L 1_555 1_555
O5L Cu1L 1_555 1_555
O7L Cu2L 1_555 1_555
O8L Cu1L 1_555 1_555
C1L O7L 1_555 1_555
C2L C1L 1_555 1_555
C3L C2L 1_555 1_555
C4L C2L 1_555 1_555
C5L C4L 1_555 1_555
H1L C3L 1_555 1_555
H2L C4L 1_555 1_555
H3L C5L 1_555 1_555
O7BB Cu2O 1_555 1_555
O8BB Cu1O 1_555 1_555
C1BB O7BB 1_555 1_555
C2BB C3L 1_555 1_555
C4BB C5L 1_555 1_555
H2BB C4BB 1_555 1_555
Cu1M Cu2M 1_555 1_555
Cu2M O6M 1_555 1_555
O5M Cu1M 1_555 1_555
O7M Cu2M 1_555 1_555
O8M Cu1M 1_555 1_555
C1M O7M 1_555 1_555
C2M C1M 1_555 1_555
C3M C2M 1_555 1_555
C4M C2M 1_555 1_555
C5M C4M 1_555 1_555
H1M C3M 1_555 1_555
H2M C4M 1_555 1_555
H3M C5M 1_555 1_555
O7YA Cu2L 1_555 1_555
O8YA Cu1L 1_555 1_555
C1YA O7YA 1_555 1_555
C2YA C3M 1_555 1_555
C4YA C5M 1_555 1_555
H2YA C4YA 1_555 1_555
O7N Cu2N 1_555 1_555
O8N Cu1N 1_555 1_555
C1N O7N 1_555 1_555
C2N C1N 1_555 1_555
C3N C2N 1_555 1_555
C4N C2N 1_555 1_555
C5N C4N 1_555 1_555
H1N C3N 1_555 1_555
H2N C4N 1_555 1_555
H3N C5N 1_555 1_555
O7GB Cu2M 1_555 1_555
O8GB Cu1M 1_555 1_555
C1GB O7GB 1_555 1_555
C2GB C3N 1_555 1_555
C4GB C5N 1_555 1_555
H2GB C4GB 1_555 1_555
O7O Cu2O 1_555 1_555
O8O Cu1O 1_555 1_555
C1O O7O 1_555 1_555
C2O C1O 1_555 1_555
C3O C2O 1_555 1_555
C4O C2O 1_555 1_555
C5O C4O 1_555 1_555
H1O C3O 1_555 1_555
H2O C4O 1_555 1_555
H3O C5O 1_555 1_555
O7EB Cu2N 1_555 1_555
O8EB Cu1N 1_555 1_555
C1EB O7EB 1_555 1_555
C2EB C3O 1_555 1_555
C4EB C5O 1_555 1_555
H2EB C4EB 1_555 1_555
O7S Cu2O 1_555 1_555
O8S Cu1O 1_555 1_555
C1S O7S 1_555 1_555
C2S C1S 1_555 1_555
C3S C2S 1_555 1_555
C4S C2S 1_555 1_555
C5S C4S 1_555 1_555
H1S C3S 1_555 1_555
H2S C4S 1_555 1_555
H3S C5S 1_555 1_555
O7WA Cu2B 1_555 1_555
O8WA Cu1B 1_555 1_555
C1WA O7WA 1_555 1_555
C2WA C3S 1_555 1_555
C4WA C5S 1_555 1_555
H2WA C4WA 1_555 1_555
O7U Cu2M 1_555 1_555
O8U Cu1M 1_555 1_555
C1U O7U 1_555 1_555
C2U C1U 1_555 1_555
C3U C2U 1_555 1_555
C4U C2U 1_555 1_555
C5U C4U 1_555 1_555
H1U C3U 1_555 1_555
H2U C4U 1_555 1_555
H3U C5U 1_555 1_555
O7CB Cu2A 1_555 1_555
O8CB Cu1A 1_555 1_555
C1CB O7CB 1_555 1_555
C2CB C3U 1_555 1_555
C4CB C5U 1_555 1_555
H2CB C4CB 1_555 1_555
O7V Cu2F 1_555 1_555
O8V Cu1F 1_555 1_555
C1V O7V 1_555 1_555
C2V C1V 1_555 1_555
C3V C2V 1_555 1_555
C4V C2V 1_555 1_555
C5V C4V 1_555 1_555
H1V C3V 1_555 1_555
H2V C4V 1_555 1_555
H3V C5V 1_555 1_555
O7AB C1AB 1_555 1_555
O8AB C1AB 1_555 1_555
C1AB C2AB 1_555 1_555
C2AB C3V 1_555 1_555
C4AB C5V 1_555 1_555
H2AB C4AB 1_555 1_555
Cu1D O8AB 1_555 1_555
Cu2D O7AB 1_555 1_555
O5D Cu1D 1_555 1_555
O6D Cu2D 1_555 1_555
O7LB Cu2M 1_555 1_555
O8LB Cu1M 1_555 1_555
C1LB O7LB 1_555 1_555
C2LB C1LB 1_555 1_555
C3J C2LB 1_555 1_555
C4LB C2LB 1_555 1_555
C5J C4LB 1_555 1_555
H1J C3J 1_555 1_555
H2LB C4LB 1_555 1_555
H3J C5J 1_555 1_555
O7J Cu2D 1_555 1_555
O8J Cu1D 1_555 1_555
C1J O7J 1_555 1_555
C2J C3J 1_555 1_555
C4J C5J 1_555 1_555
H2J C4J 1_555 1_555
O7B Cu2B 1_555 1_555
O8B Cu1B 1_555 1_555
C1B O7B 1_555 1_555
C2B C1B 1_555 1_555
C3B C2B 1_555 1_555
C4B C2B 1_555 1_555
C5B C4B 1_555 1_555
H1B C3B 1_555 1_555
H2B C4B 1_555 1_555
H3B C5B 1_555 1_555
O7MB Cu2L 1_555 1_555
O8MB Cu1L 1_555 1_555
C1MB O7MB 1_555 1_555
C2MB C3B 1_555 1_555
C4MB C5B 1_555 1_555
H2MB C4MB 1_555 1_555
O7D Cu2D 1_555 1_555
O8D Cu1D 1_555 1_555
C1D O7D 1_555 1_555
C2D C1D 1_555 1_555
C3D C2D 1_555 1_555
C4D C2D 1_555 1_555
C5D C4D 1_555 1_555
H1D C3D 1_555 1_555
H2D C4D 1_555 1_555
H3D C5D 1_555 1_555
O7NB Cu2I 1_555 1_555
O8NB Cu1I 1_555 1_555
C1NB O7NB 1_555 1_555
C2NB C3D 1_555 1_555
C4NB C5D 1_555 1_555
H2NB C4NB 1_555 1_555
O7T Cu2L 1_555 1_555
O8T Cu1L 1_555 1_555
C1T O7T 1_555 1_555
C2T C1T 1_555 1_555
C3T C2T 1_555 1_555
C4T C2T 1_555 1_555
C5T C4T 1_555 1_555
H1T C3T 1_555 1_555
H2T C4T 1_555 1_555
H3T C5T 1_555 1_555
O7VA Cu2D 1_555 1_555
O8VA Cu1D 1_555 1_555
C1VA O7VA 1_555 1_555
C2VA C3T 1_555 1_555
C4VA C5T 1_555 1_555
H2VA C4VA 1_555 1_555
O7DB Cu2B 1_555 1_555
O8DB Cu1B 1_555 1_555
C1DB O7DB 1_555 1_555
C2DB C1DB 1_555 1_555
C3DB C2DB 1_555 1_555
C4DB C2DB 1_555 1_555
C5DB C4DB 1_555 1_555
H1DB C3DB 1_555 1_555
H2DB C4DB 1_555 1_555
H3DB C5DB 1_555 1_555
O7TA Cu2I 1_555 1_555
O8TA Cu1I 1_555 1_555
C1TA O7TA 1_555 1_555
C2TA C3DB 1_555 1_555
C4TA C5DB 1_555 1_555
H2TA C4TA 1_555 1_555
O8 C1 1_555 1_555
C2PB C4PB 1_555 1_555
Cu1C Cu2C 1_555 1_555
O8C C1C 1_555 1_555
C2IB C4IB 1_555 1_555
O8E C1E 1_555 1_555
C2RB C4RB 1_555 1_555
O8F C1F 1_555 1_555
O8HB C1HB 1_555 1_555
C1HB C2HB 1_555 1_555
C2HB C4HB 1_555 1_555
Cu1K Cu2K 1_555 1_555
O8P C1P 1_555 1_555
O8FB C1FB 1_555 1_555
C1FB C2FB 1_555 1_555
C2FB C4FB 1_555 1_555
O8Q C1Q 1_555 1_555
C2XA C4XA 1_555 1_555
O8R C1R 1_555 1_555
O8ZA C1ZA 1_555 1_555
C1ZA C2ZA 1_555 1_555
C2ZA C4ZA 1_555 1_555
Cu1A Cu2A 1_555 1_555
Cu1O Cu2O 1_555 1_555
O8A C1A 1_555 1_555
O8OB C1OB 1_555 1_555
C1OB C2OB 1_555 1_555
C2OB C4OB 1_555 1_555
O8G C1G 1_555 1_555
O8QB C1QB 1_555 1_555
C1QB C2QB 1_555 1_555
C2QB C4QB 1_555 1_555
O8H C1H 1_555 1_555
O8PC C1PC 1_555 1_555
C1PC C2PC 1_555 1_555
C2PC C4PC 1_555 1_555
O8I C1I 1_555 1_555
O8KB C1KB 1_555 1_555
C1KB C2KB 1_555 1_555
C2KB C4KB 1_555 1_555
O8K C1K 1_555 1_555
O8JB C1JB 1_555 1_555
C1JB C2JB 1_555 1_555
C2JB C4JB 1_555 1_555
O8L C1L 1_555 1_555
O8BB C1BB 1_555 1_555
C1BB C2BB 1_555 1_555
C2BB C4BB 1_555 1_555
O8M C1M 1_555 1_555
O8YA C1YA 1_555 1_555
C1YA C2YA 1_555 1_555
C2YA C4YA 1_555 1_555
O8N C1N 1_555 1_555
O8GB C1GB 1_555 1_555
C1GB C2GB 1_555 1_555
C2GB C4GB 1_555 1_555
O8O C1O 1_555 1_555
O8EB C1EB 1_555 1_555
C1EB C2EB 1_555 1_555
C2EB C4EB 1_555 1_555
O8S C1S 1_555 1_555
O8WA C1WA 1_555 1_555
C1WA C2WA 1_555 1_555
C2WA C4WA 1_555 1_555
O8U C1U 1_555 1_555
O8CB C1CB 1_555 1_555
C1CB C2CB 1_555 1_555
C2CB C4CB 1_555 1_555
O8V C1V 1_555 1_555
C2AB C4AB 1_555 1_555
Cu1D Cu2D 1_555 1_555
O8LB C1LB 1_555 1_555
O8J C1J 1_555 1_555
C1J C2J 1_555 1_555
C2J C4J 1_555 1_555
O8B C1B 1_555 1_555
O8MB C1MB 1_555 1_555
C1MB C2MB 1_555 1_555
C2MB C4MB 1_555 1_555
O8D C1D 1_555 1_555
O8NB C1NB 1_555 1_555
C1NB C2NB 1_555 1_555
C2NB C4NB 1_555 1_555
O8T C1T 1_555 1_555
O8VA C1VA 1_555 1_555
C1VA C2VA 1_555 1_555
C2VA C4VA 1_555 1_555
O8DB C1DB 1_555 1_555
O8TA C1TA 1_555 1_555
C1TA C2TA 1_555 1_555
C2TA C4TA 1_555 1_555

#END
