
#######################################################################
#
#                 Cambridge Crystallographic Data Centre
#                                CCDC 
#
#######################################################################
#
# If this CIF has been generated from an entry in the Cambridge 
# Structural Database, then it will include bibliographic, chemical, 
# crystal, experimental, refinement or atomic coordinate data resulting 
# from the CCDC's data processing and validation procedures.
#
#######################################################################

data_MOKLED
_chemical_formula_moiety         'C112 H88 F16 Si4 Zr2,2(C6 H6)'
_chemical_name_systematic        
'(\m~2~-3^2^,3^3^,3^5^,3^6^,4^2^,4^3^,4^5^,4^6^,5^2^,5^3^,5^5^,5^6^,6^2^,6^3^,6^5^,6^6^-Hexadecafluoro-1,2,3,4,5,6,9,10,11,12,13,14-dodeca(1,4)benzenacyclohexadecaphan-7,8,15,16-tetraylidene-tetrakis(trimethylsilylmethyl))-tetrakis(\h^5^-cyclopentadienyl)-di-zirconium benzene solvate'
_symmetry_cell_setting           triclinic
_symmetry_space_group_name_H-M   'P -1'
_symmetry_Int_Tables_number      2
_space_group_name_Hall           '-P 1'
loop_
_symmetry_equiv_pos_site_id
_symmetry_equiv_pos_as_xyz
1 x,y,z
2 -x,-y,-z
_cell_length_a                   12.0173(3)
_cell_length_b                   16.0939(4)
_cell_length_c                   16.5390(4)
_cell_angle_alpha                85.785(1)
_cell_angle_beta                 71.949(1)
_cell_angle_gamma                88.627(1)
_cell_volume                     3033.06
_exptl_crystal_colour            yellow
_exptl_crystal_description       block
_cell_formula_units_Z            1
loop_
_atom_site_label
_atom_site_type_symbol
_atom_site_fract_x
_atom_site_fract_y
_atom_site_fract_z
Zr1 Zr 0.65020(4) 0.21203(3) 1.33164(3)
Si1 Si 0.3847(1) 0.25532(8) 1.26118(9)
Si2 Si 0.8242(1) 0.01378(8) 1.31661(10)
F1 F 0.1660(2) -0.3484(1) 1.0031(2)
F2 F -0.1248(2) -0.1415(2) 1.0228(2)
F3 F 0.0509(2) -0.4460(1) 0.9335(2)
F4 F -0.2468(2) -0.2445(2) 0.9632(2)
F5 F -0.2927(2) -0.4315(2) 1.0671(2)
F6 F -0.0675(2) -0.3947(2) 0.7774(2)
F7 F -0.1940(2) -0.5098(2) 0.7393(2)
F8 F -0.4191(2) -0.5466(2) 1.0305(2)
C1 C 0.5023(4) 0.1858(3) 1.2802(3)
C2 C 0.5170(3) 0.1049(3) 1.2592(3)
C3 C 0.4336(4) 0.0626(3) 1.2229(3)
C4 C 0.4443(4) 0.0711(3) 1.1371(3)
C5 C 0.3448(4) 0.0112(3) 1.2764(3)
C6 C 0.3729(4) 0.0268(3) 1.1039(3)
C7 C 0.2736(4) -0.0329(3) 1.2430(3)
C8 C 0.2874(4) -0.0277(3) 1.1572(3)
C9 C 0.2180(4) -0.0814(3) 1.1210(3)
C10 C 0.1830(4) -0.0534(3) 1.0517(3)
C11 C 0.1874(4) -0.1621(3) 1.1563(3)
C12 C 0.1198(4) -0.1050(3) 1.0171(3)
C13 C 0.1248(4) -0.2137(3) 1.1227(3)
C14 C 0.0909(4) -0.1855(3) 1.0529(3)
C15 C 0.0250(4) -0.2418(3) 1.0161(3)
C16 C 0.0637(4) -0.3209(3) 0.9940(3)
C17 C -0.0802(4) -0.2178(3) 1.0028(3)
C18 C 0.0043(4) -0.3724(3) 0.9585(3)
C19 C -0.1428(4) -0.2704(3) 0.9706(3)
C20 C -0.1030(4) -0.3497(3) 0.9491(3)
C21 C -0.1759(4) -0.4100(3) 0.9233(3)
C22 C -0.2678(4) -0.4502(3) 0.9856(3)
C23 C -0.1548(4) -0.4320(3) 0.8415(3)
C24 C -0.2216(4) -0.4913(3) 0.8209(3)
C25 C -0.3326(4) -0.5097(3) 0.9649(3)
C26 C -0.3137(3) -0.5330(3) 0.8834(3)
C27 C -0.3809(3) -0.6005(3) 0.8626(3)
C28 C -0.3980(4) -0.6758(3) 0.9125(3)
C29 C -0.4259(4) -0.5912(3) 0.7944(3)
C30 C -0.4549(4) -0.7413(3) 0.8915(3)
C31 C -0.4830(4) -0.6571(3) 0.7739(3)
C32 C -0.4968(4) -0.7337(3) 0.8221(3)
C33 C -0.5473(3) -0.8080(2) 0.7971(3)
C34 C -0.6096(4) -0.8675(3) 0.8590(3)
C35 C -0.5256(4) -0.8241(3) 0.7123(3)
C36 C -0.5556(4) -0.9004(3) 0.6903(3)
C37 C -0.6403(4) -0.9429(3) 0.8372(3)
C38 C -0.6094(4) -0.9621(3) 0.7526(3)
C39 C 0.6162(4) 0.0509(3) 1.2703(3)
C40 C 0.7006(4) 0.0790(3) 1.3017(3)
C41 C 0.4365(4) 0.3004(3) 1.1488(4)
C42 C 0.3590(5) 0.3432(3) 1.3331(4)
C43 C 0.2376(4) 0.2072(3) 1.2808(4)
C44 C 0.7751(5) -0.0587(4) 1.4139(4)
C45 C 0.8989(5) -0.0464(4) 1.2231(4)
C46 C 0.9409(5) 0.0802(4) 1.3326(5)
C47 C 0.7383(5) 0.2686(4) 1.1796(3)
C48 C 0.8293(5) 0.2345(3) 1.2060(4)
C49 C 0.8434(4) 0.2822(3) 1.2695(4)
C50 C 0.7624(5) 0.3468(3) 1.2813(4)
C51 C 0.6973(5) 0.3387(3) 1.2252(4)
C52 C 0.6574(5) 0.1680(3) 1.4800(3)
C53 C 0.6484(5) 0.2546(3) 1.4758(3)
C54 C 0.5390(5) 0.2768(3) 1.4664(3)
C55 C 0.4798(4) 0.2038(3) 1.4656(3)
C56 C 0.5532(5) 0.1369(3) 1.4727(3)
C39A C -0.6162(4) -1.0509(3) 0.7297(3)
C2A C -0.5170(3) -1.1049(3) 0.7408(3)
C1A C -0.5023(4) -1.1858(3) 0.7198(3)
Zr1A Zr -0.65020(4) -1.21203(3) 0.66836(3)
C40A C -0.7006(4) -1.0790(3) 0.6983(3)
Si2A Si -0.8242(1) -1.01378(8) 0.68339(10)
C44A C -0.7751(5) -0.9413(4) 0.5861(4)
C45A C -0.8989(5) -0.9536(4) 0.7769(4)
C46A C -0.9409(5) -1.0802(4) 0.6674(5)
C47A C -0.7383(5) -1.2686(4) 0.8204(3)
C48A C -0.8293(5) -1.2345(3) 0.7940(4)
C49A C -0.8434(4) -1.2822(3) 0.7305(4)
C50A C -0.7624(5) -1.3468(3) 0.7187(4)
C51A C -0.6973(5) -1.3387(3) 0.7748(4)
C52A C -0.6574(5) -1.1680(3) 0.5200(3)
C53A C -0.6484(5) -1.2546(3) 0.5242(3)
C54A C -0.5390(5) -1.2768(3) 0.5336(3)
C55A C -0.4798(4) -1.2038(3) 0.5344(3)
C56A C -0.5532(5) -1.1369(3) 0.5273(3)
Si1A Si -0.3847(1) -1.25532(8) 0.73882(9)
C41A C -0.4365(4) -1.3004(3) 0.8512(4)
C42A C -0.3590(5) -1.3432(3) 0.6669(4)
C43A C -0.2376(4) -1.2072(3) 0.7192(4)
C3A C -0.4336(4) -1.0626(3) 0.7771(3)
C4A C -0.4443(4) -1.0711(3) 0.8629(3)
C6A C -0.3729(4) -1.0268(3) 0.8961(3)
C8A C -0.2874(4) -0.9723(3) 0.8428(3)
C7A C -0.2736(4) -0.9671(3) 0.7570(3)
C5A C -0.3448(4) -1.0112(3) 0.7236(3)
C9A C -0.2180(4) -0.9186(3) 0.8790(3)
C10A C -0.1830(4) -0.9466(3) 0.9483(3)
C12A C -0.1198(4) -0.8950(3) 0.9829(3)
C14A C -0.0909(4) -0.8145(3) 0.9471(3)
C13A C -0.1248(4) -0.7863(3) 0.8773(3)
C11A C -0.1874(4) -0.8379(3) 0.8437(3)
C15A C -0.0250(4) -0.7582(3) 0.9839(3)
C16A C -0.0637(4) -0.6791(3) 1.0060(3)
F1A F -0.1660(2) -0.6516(1) 0.9969(2)
C18A C -0.0043(4) -0.6276(3) 1.0415(3)
F3A F -0.0509(2) -0.5540(1) 1.0665(2)
C20A C 0.1030(4) -0.6503(3) 1.0509(3)
C19A C 0.1428(4) -0.7296(3) 1.0294(3)
F4A F 0.2468(2) -0.7555(2) 1.0368(2)
C17A C 0.0802(4) -0.7822(3) 0.9972(3)
F2A F 0.1248(2) -0.8585(2) 0.9772(2)
C21A C 0.1759(4) -0.5900(3) 1.0767(3)
C22A C 0.2678(4) -0.5498(3) 1.0144(3)
F5A F 0.2927(2) -0.5685(2) 0.9329(2)
C25A C 0.3326(4) -0.4903(3) 1.0351(3)
F8A F 0.4191(2) -0.4534(2) 0.9695(2)
C26A C 0.3137(3) -0.4670(3) 1.1166(3)
C24A C 0.2216(4) -0.5087(3) 1.1791(3)
F7A F 0.1940(2) -0.4902(2) 1.2607(2)
C23A C 0.1548(4) -0.5680(3) 1.1585(3)
F6A F 0.0675(2) -0.6053(2) 1.2226(2)
C27A C 0.3809(3) -0.3995(3) 1.1374(3)
C28A C 0.3980(4) -0.3242(3) 1.0875(3)
C30A C 0.4549(4) -0.2587(3) 1.1085(3)
C32A C 0.4968(4) -0.2663(3) 1.1779(3)
C31A C 0.4830(4) -0.3429(3) 1.2261(3)
C29A C 0.4259(4) -0.4088(3) 1.2056(3)
C33A C 0.5473(3) -0.1920(2) 1.2029(3)
C34A C 0.6096(4) -0.1325(3) 1.1410(3)
C37A C 0.6403(4) -0.0571(3) 1.1628(3)
C38A C 0.6094(4) -0.0379(3) 1.2474(3)
C36A C 0.5556(4) -0.0996(3) 1.3097(3)
C35A C 0.5256(4) -0.1759(3) 1.2877(3)
C57 C 1.1506(7) 0.4118(5) 0.7797(5)
C58 C 1.1973(6) 0.3397(6) 0.7864(5)
C59 C 1.1984(6) 0.2821(4) 0.7329(6)
C60 C 1.1494(8) 0.2959(5) 0.6711(6)
C61 C 1.0971(7) 0.3708(6) 0.6628(6)
C62 C 1.0975(6) 0.4302(4) 0.7185(7)
C63 C -0.1569(9) -0.6163(7) 0.5701(8)
C64 C -0.0783(9) -0.6045(5) 0.4908(7)
C65 C -0.0123(6) -0.6704(7) 0.4540(4)
C66 C -0.0272(7) -0.7453(5) 0.4954(6)
C67 C -0.1037(8) -0.7573(6) 0.5738(6)
C68 C -0.1676(7) -0.6925(9) 0.6104(5)
C69 C 0.6172(5) 0.5080(3) 0.4837(4)
C70 C 0.5498(6) 0.4782(3) 0.5619(4)
C71 C 0.5704(5) 0.5296(3) 0.4210(3)
C71A C 0.4296(5) 0.4704(3) 0.5790(3)
C69A C 0.3828(5) 0.4920(3) 0.5163(4)
C70A C 0.4502(6) 0.5218(3) 0.4381(4)
loop_
_geom_bond_atom_site_label_1
_geom_bond_atom_site_label_2
_geom_bond_site_symmetry_1
_geom_bond_site_symmetry_2
Zr1 C1 1_555 1_555
Si1 C1 1_555 1_555
Si2 C40 1_555 1_555
F1 C16 1_555 1_555
F2 C17 1_555 1_555
F3 C18 1_555 1_555
F4 C19 1_555 1_555
F5 C22 1_555 1_555
F6 C23 1_555 1_555
F7 C24 1_555 1_555
F8 C25 1_555 1_555
C1 C2 1_555 1_555
C2 C3 1_555 1_555
C3 C4 1_555 1_555
C4 C6 1_555 1_555
C5 C3 1_555 1_555
C6 C8 1_555 1_555
C7 C5 1_555 1_555
C8 C7 1_555 1_555
C9 C8 1_555 1_555
C10 C9 1_555 1_555
C11 C9 1_555 1_555
C12 C10 1_555 1_555
C13 C11 1_555 1_555
C14 C12 1_555 1_555
C15 C14 1_555 1_555
C16 C15 1_555 1_555
C17 C15 1_555 1_555
C18 C16 1_555 1_555
C19 C17 1_555 1_555
C20 C18 1_555 1_555
C21 C20 1_555 1_555
C22 C21 1_555 1_555
C23 C21 1_555 1_555
C24 C23 1_555 1_555
C25 C22 1_555 1_555
C26 C24 1_555 1_555
C27 C26 1_555 1_555
C28 C27 1_555 1_555
C29 C27 1_555 1_555
C30 C28 1_555 1_555
C31 C29 1_555 1_555
C32 C30 1_555 1_555
C33 C32 1_555 1_555
C34 C33 1_555 1_555
C35 C33 1_555 1_555
C36 C35 1_555 1_555
C37 C34 1_555 1_555
C38 C36 1_555 1_555
C39 C2 1_555 1_555
C40 Zr1 1_555 1_555
C41 Si1 1_555 1_555
C42 Si1 1_555 1_555
C43 Si1 1_555 1_555
C44 Si2 1_555 1_555
C45 Si2 1_555 1_555
C46 Si2 1_555 1_555
C47 Zr1 1_555 1_555
C48 Zr1 1_555 1_555
C49 Zr1 1_555 1_555
C50 Zr1 1_555 1_555
C51 Zr1 1_555 1_555
C52 Zr1 1_555 1_555
C53 Zr1 1_555 1_555
C54 Zr1 1_555 1_555
C55 Zr1 1_555 1_555
C56 Zr1 1_555 1_555
C57 C58 1_555 1_555
C58 C59 1_555 1_555
C59 C60 1_555 1_555
C60 C61 1_555 1_555
C61 C62 1_555 1_555
C62 C57 1_555 1_555
C63 C64 1_555 1_555
C64 C65 1_555 1_555
C65 C66 1_555 1_555
C66 C67 1_555 1_555
C67 C68 1_555 1_555
C68 C63 1_555 1_555
C69 C70 1_555 1_555
C70 C71A 1_555 1_555
C71 C69 1_555 1_555
C39A C38 1_555 1_555
C2A C39A 1_555 1_555
C1A C2A 1_555 1_555
Zr1A C1A 1_555 1_555
C40A C39A 1_555 1_555
Si2A C40A 1_555 1_555
C44A Si2A 1_555 1_555
C45A Si2A 1_555 1_555
C46A Si2A 1_555 1_555
C47A Zr1A 1_555 1_555
C48A Zr1A 1_555 1_555
C49A Zr1A 1_555 1_555
C50A Zr1A 1_555 1_555
C51A Zr1A 1_555 1_555
C52A Zr1A 1_555 1_555
C53A Zr1A 1_555 1_555
C54A Zr1A 1_555 1_555
C55A Zr1A 1_555 1_555
C56A Zr1A 1_555 1_555
Si1A C1A 1_555 1_555
C41A Si1A 1_555 1_555
C42A Si1A 1_555 1_555
C43A Si1A 1_555 1_555
C3A C2A 1_555 1_555
C4A C3A 1_555 1_555
C6A C4A 1_555 1_555
C8A C6A 1_555 1_555
C7A C8A 1_555 1_555
C5A C3A 1_555 1_555
C9A C8A 1_555 1_555
C10A C9A 1_555 1_555
C12A C10A 1_555 1_555
C14A C12A 1_555 1_555
C13A C14A 1_555 1_555
C11A C9A 1_555 1_555
C15A C14A 1_555 1_555
C16A C15A 1_555 1_555
F1A C16A 1_555 1_555
C18A C16A 1_555 1_555
F3A C18A 1_555 1_555
C20A C18A 1_555 1_555
C19A C20A 1_555 1_555
F4A C19A 1_555 1_555
C17A C15A 1_555 1_555
F2A C17A 1_555 1_555
C21A C20A 1_555 1_555
C22A C21A 1_555 1_555
F5A C22A 1_555 1_555
C25A C22A 1_555 1_555
F8A C25A 1_555 1_555
C26A C25A 1_555 1_555
C24A C26A 1_555 1_555
F7A C24A 1_555 1_555
C23A C21A 1_555 1_555
F6A C23A 1_555 1_555
C27A C26A 1_555 1_555
C28A C27A 1_555 1_555
C30A C28A 1_555 1_555
C32A C30A 1_555 1_555
C31A C32A 1_555 1_555
C29A C27A 1_555 1_555
C33A C32A 1_555 1_555
C34A C33A 1_555 1_555
C37A C34A 1_555 1_555
C38A C39 1_555 1_555
C36A C38A 1_555 1_555
C35A C33A 1_555 1_555
C71A C69A 1_555 1_555
C69A C70A 1_555 1_555
C70A C71 1_555 1_555
C13 C14 1_555 1_555
C19 C20 1_555 1_555
C25 C26 1_555 1_555
C31 C32 1_555 1_555
C37 C38 1_555 1_555
C39 C40 1_555 1_555
C47 C48 1_555 1_555
C47 C51 1_555 1_555
C48 C49 1_555 1_555
C49 C50 1_555 1_555
C50 C51 1_555 1_555
C52 C53 1_555 1_555
C52 C56 1_555 1_555
C53 C54 1_555 1_555
C54 C55 1_555 1_555
C55 C56 1_555 1_555
Zr1A C40A 1_555 1_555
C47A C48A 1_555 1_555
C47A C51A 1_555 1_555
C48A C49A 1_555 1_555
C49A C50A 1_555 1_555
C50A C51A 1_555 1_555
C52A C53A 1_555 1_555
C52A C56A 1_555 1_555
C53A C54A 1_555 1_555
C54A C55A 1_555 1_555
C55A C56A 1_555 1_555
C7A C5A 1_555 1_555
C13A C11A 1_555 1_555
C19A C17A 1_555 1_555
C24A C23A 1_555 1_555
C31A C29A 1_555 1_555
C37A C38A 1_555 1_555
C36A C35A 1_555 1_555

#END
