
#######################################################################
#
#                 Cambridge Crystallographic Data Centre
#                                CCDC 
#
#######################################################################
#
# If this CIF has been generated from an entry in the Cambridge 
# Structural Database, then it will include bibliographic, chemical, 
# crystal, experimental, refinement or atomic coordinate data resulting 
# from the CCDC's data processing and validation procedures.
#
#######################################################################

data_MOQMUA
_chemical_formula_moiety         
'C84 H96 N36 Pd6 12+,12(N1 O3 1-),C24 H22 O5 Si2,10(H2 O1)'
_chemical_name_systematic        
'tetrakis(\m~3~-2,4,6-tris(3-Pyridyl)-1,3,5-triazine)-hexakis(ethylene-1,2-diamine)-hexa-palladium dodecanitrate 1,1,3,3-tetrahydroxy-1,3-bis(m-biphenyl)disiloxane clathrate decahydrate'
_symmetry_cell_setting           tetragonal
_symmetry_space_group_name_H-M   'P 43 21 2'
_symmetry_Int_Tables_number      96
_space_group_name_Hall           'P 4nw 2abw'
loop_
_symmetry_equiv_pos_site_id
_symmetry_equiv_pos_as_xyz
1 x,y,z
2 1/2-y,1/2+x,3/4+z
3 1/2+x,1/2-y,1/4-z
4 -x,-y,1/2+z
5 y,x,-z
6 1/2+y,1/2-x,1/4+z
7 1/2-x,1/2+y,3/4-z
8 -y,-x,1/2-z
_cell_length_a                   24.2902(11)
_cell_length_b                   24.2902(11)
_cell_length_c                   28.015(17)
_cell_angle_alpha                90
_cell_angle_beta                 90
_cell_angle_gamma                90
_cell_volume                     16529.2
_exptl_crystal_colour            'pale yellow'
_chemical_melting_point          'above 300deg.C'
_cell_formula_units_Z            4
loop_
_atom_site_label
_atom_site_type_symbol
_atom_site_fract_x
_atom_site_fract_y
_atom_site_fract_z
Pd1 Pd -0.5064(1) 1.0367(1) -0.0265(1)
Pd2 Pd -0.1923(1) 0.8241(1) -0.2793(1)
Pd3 Pd -0.3233(1) 0.5800(1) -0.2140(1)
N2 N -0.5050(5) 0.9531(5) -0.0336(4)
N3 N -0.2420(5) 0.8710(7) -0.2359(4)
N5 N -0.3559(5) 0.6178(8) -0.1572(6)
N6 N -0.3897(5) 0.8718(6) -0.1219(5)
N7 N -0.3493(5) 0.7883(6) -0.1470(5)
N8 N -0.4231(4) 0.7875(5) -0.0919(4)
N9 N -0.4291(6) 1.0350(6) 0.0033(6)
N10 N -0.1380(5) 0.8159(5) -0.2253(4)
N11 N -0.2571(5) 0.5571(7) -0.1750(6)
N12 N -0.3021(4) 0.9476(5) 0.1089(4)
N13 N -0.3313(5) 0.8673(5) 0.1485(4)
N14 N -0.3926(6) 0.9124(6) 0.0981(5)
N15 N -0.5829(6) 1.0409(6) -0.0569(6)
N16 N -0.5178(7) 1.1160(6) -0.0167(7)
N17 N -0.1456(6) 0.7762(8) -0.3212(5)
N18 N -0.2397(9) 0.8304(11) -0.3388(6)
N19 N -0.2951(8) 0.5414(13) -0.2729(8)
N20 N -0.3891(10) 0.5952(19) -0.2521(10)
C1 C -0.5380(7) 0.9223(7) -0.0093(5)
C2 C -0.5371(6) 0.8679(7) -0.0079(6)
C3 C -0.4989(6) 0.8411(7) -0.0354(5)
C4 C -0.4647(5) 0.8716(7) -0.0647(5)
C5 C -0.4685(7) 0.9285(6) -0.0621(5)
C6 C -0.4236(6) 0.8409(7) -0.0938(5)
C7 C -0.2405(6) 0.9254(7) -0.2368(6)
C8 C -0.2732(7) 0.9555(8) -0.2062(8)
C9 C -0.3111(7) 0.9315(8) -0.1782(7)
C10 C -0.3147(7) 0.8751(8) -0.1773(6)
C11 C -0.2799(7) 0.8451(8) -0.2096(6)
C12 C -0.3564(6) 0.8421(7) -0.1476(6)
C13 C -0.3825(8) 0.5922(8) -0.1236(10)
C14 C -0.4056(9) 0.6174(7) -0.0834(8)
C15 C -0.4094(6) 0.6727(7) -0.0830(8)
C16 C -0.3834(6) 0.7005(7) -0.1174(6)
C17 C -0.3583(5) 0.6712(8) -0.1540(6)
C18 C -0.3847(6) 0.7629(6) -0.1198(6)
C19 C -0.3879(8) 1.0710(8) -0.0110(9)
C20 C -0.3369(8) 1.0697(7) 0.0018(7)
C21 C -0.3227(7) 1.0284(7) 0.0391(5)
C22 C -0.3642(6) 0.9931(8) 0.0537(6)
C23 C -0.4170(6) 0.9981(6) 0.0359(6)
C24 C -0.3516(6) 0.9487(7) 0.0899(6)
C25 C -0.1007(7) 0.8552(6) -0.2141(5)
C26 C -0.0620(7) 0.8514(6) -0.1813(6)
C27 C -0.0576(7) 0.8026(6) -0.1567(5)
C28 C -0.0960(6) 0.7620(7) -0.1655(6)
C29 C -0.1346(6) 0.7691(7) -0.2010(5)
C30 C -0.2942(6) 0.9072(5) 0.1398(4)
C31 C -0.2535(8) 0.5078(9) -0.1553(7)
C32 C -0.2096(9) 0.4933(10) -0.1262(7)
C33 C -0.1676(8) 0.5263(7) -0.1155(6)
C34 C -0.1714(6) 0.5780(7) -0.1379(6)
C35 C -0.2176(8) 0.5933(7) -0.1669(6)
C36 C -0.3797(6) 0.8727(6) 0.1279(5)
C37 C -0.6017(12) 1.0986(12) -0.0510(14)
C38 C -0.5671(14) 1.1336(10) -0.0420(20)
C39 C -0.1638(9) 0.7809(16) -0.3711(8)
C40 C -0.2170(11) 0.7890(20) -0.3763(7)
C41 C -0.3420(20) 0.5620(30) -0.3127(13)
C42 C -0.3885(19) 0.5690(30) -0.2930(20)
H1 H -0.5812 1.0320 -0.0881
H2 H -0.6062 1.0175 -0.0423
H3 H -0.5218 1.1231 0.0147
H4 H -0.4884 1.1348 -0.0274
H5 H -0.1101 0.7865 -0.3188
H6 H -0.1483 0.7409 -0.3116
H7 H -0.2750 0.8224 -0.3318
H8 H -0.2382 0.8649 -0.3505
H9 H -0.2611 0.5529 -0.2808
H10 H -0.2950 0.5046 -0.2692
H11 H -0.4192 0.5853 -0.2354
H12 H -0.3913 0.6316 -0.2578
H13 H -0.5648 0.9399 0.0089
H14 H -0.5616 0.8484 0.0112
H15 H -0.4961 0.8029 -0.0344
H16 H -0.4450 0.9500 -0.0806
H17 H -0.2173 0.9433 -0.2582
H18 H -0.2688 0.9935 -0.2048
H19 H -0.3347 0.9528 -0.1597
H20 H -0.2838 0.8071 -0.2123
H21 H -0.3865 0.5542 -0.1265
H22 H -0.4179 0.5966 -0.0577
H23 H -0.4295 0.6909 -0.0595
H24 H -0.3418 0.6915 -0.1783
H25 H -0.3981 1.0989 -0.0319
H26 H -0.3107 1.0931 -0.0114
H27 H -0.2875 1.0263 0.0520
H28 H -0.4445 0.9749 0.0473
H29 H -0.1025 0.8880 -0.2312
H30 H -0.0384 0.8806 -0.1750
H31 H -0.0294 0.7971 -0.1348
H32 H -0.1588 0.7406 -0.2081
H33 H -0.2811 0.4822 -0.1610
H34 H -0.2096 0.4581 -0.1133
H35 H -0.1389 0.5162 -0.0954
H36 H -0.2197 0.6285 -0.1799
H37 H -0.6208 1.1093 -0.0799
H38 H -0.6285 1.0993 -0.0253
H39 H -0.5845 1.1626 -0.0242
H40 H -0.5555 1.1495 -0.0726
H41 H -0.1444 0.8114 -0.3859
H42 H -0.1535 0.7476 -0.3880
H43 H -0.2360 0.7538 -0.3729
H44 H -0.2242 0.8026 -0.4082
H45 H -0.3303 0.5958 -0.3275
H46 H -0.3454 0.5341 -0.3376
H47 H -0.4048 0.5327 -0.2877
H48 H -0.4120 0.5882 -0.3151
C36D C -0.1273(6) 0.6203(6) -0.1279(5)
N13D N -0.1327(5) 0.6687(5) -0.1485(4)
C30D C -0.0928(5) 0.7058(6) -0.1398(4)
N12D N -0.0524(5) 0.6979(4) -0.1089(4)
C24D C -0.0513(7) 0.6484(6) -0.0899(6)
N14D N -0.0876(6) 0.6074(6) -0.0981(5)
C22D C -0.0069(8) 0.6358(6) -0.0537(6)
C21D C 0.0284(7) 0.6773(7) -0.0391(5)
C20D C 0.0697(7) 0.6631(8) -0.0018(7)
C19D C 0.0710(8) 0.6121(8) 0.0110(9)
N9D N 0.0350(6) 0.5709(6) -0.0033(6)
Pd1D Pd 0.0367(1) 0.4936(1) 0.0265(1)
N2D N -0.0469(5) 0.4950(5) 0.0336(4)
C1D C -0.0777(7) 0.4620(7) 0.0093(5)
C2D C -0.1321(7) 0.4629(6) 0.0079(6)
C3D C -0.1589(7) 0.5011(6) 0.0354(5)
C4D C -0.1284(7) 0.5353(5) 0.0647(5)
C5D C -0.0715(6) 0.5315(7) 0.0621(5)
H16D H -0.0500 0.5550 0.0806
C6D C -0.1591(7) 0.5764(6) 0.0938(5)
N6D N -0.1282(6) 0.6103(5) 0.1219(5)
C12D C -0.1579(7) 0.6436(6) 0.1476(6)
N7D N -0.2117(6) 0.6507(5) 0.1470(5)
C18D C -0.2371(6) 0.6153(6) 0.1198(6)
N8D N -0.2125(5) 0.5769(4) 0.0919(4)
C16D C -0.2995(7) 0.6166(6) 0.1174(6)
C15D C -0.3273(7) 0.5906(6) 0.0830(8)
C14D C -0.3826(7) 0.5944(9) 0.0834(8)
C13D C -0.4078(8) 0.6175(8) 0.1236(10)
N5D N -0.3822(8) 0.6441(5) 0.1572(6)
Pd3D Pd -0.4200(1) 0.6767(1) 0.2140(1)
N11D N -0.4429(7) 0.7429(5) 0.1750(6)
C31D C -0.4922(9) 0.7465(8) 0.1553(7)
C32D C -0.5067(10) 0.7904(9) 0.1262(7)
C33D C -0.4737(7) 0.8324(8) 0.1155(6)
C34D C -0.4220(7) 0.8286(6) 0.1379(6)
C35D C -0.4067(7) 0.7824(8) 0.1669(6)
H36D H -0.3715 0.7803 0.1799
C28D C -0.2380(7) 0.9040(6) 0.1655(6)
C27D C -0.1974(6) 0.9424(7) 0.1567(5)
C26D C -0.1486(6) 0.9380(7) 0.1813(6)
C25D C -0.1448(6) 0.8993(7) 0.2141(5)
N10D N -0.1841(5) 0.8620(5) 0.2253(4)
Pd2D Pd -0.1759(1) 0.8077(1) 0.2793(1)
N3D N -0.1290(7) 0.7580(5) 0.2359(4)
C7D C -0.0746(7) 0.7595(6) 0.2368(6)
C8D C -0.0445(8) 0.7268(7) 0.2062(8)
C9D C -0.0685(8) 0.6889(7) 0.1782(7)
C10D C -0.1249(8) 0.6853(7) 0.1773(6)
C11D C -0.1549(8) 0.7201(7) 0.2096(6)
H20D H -0.1929 0.7162 0.2123
H19D H -0.0472 0.6653 0.1597
H17D H -0.0567 0.7827 0.2582
H18D H -0.0065 0.7312 0.2048
N17D N -0.2238(8) 0.8544(6) 0.3212(5)
C39D C -0.2191(16) 0.8362(9) 0.3711(8)
C40D C -0.2110(20) 0.7830(11) 0.3763(7)
N18D N -0.1696(11) 0.7603(9) 0.3388(6)
H7D H -0.1776 0.7250 0.3318
H8D H -0.1351 0.7618 0.3505
H43D H -0.2462 0.7640 0.3729
H44D H -0.1974 0.7758 0.4082
H41D H -0.1886 0.8556 0.3859
H42D H -0.2524 0.8465 0.3880
H5D H -0.2135 0.8899 0.3188
H6D H -0.2591 0.8517 0.3116
C29D C -0.2309(7) 0.8654(6) 0.2010(5)
H32D H -0.2594 0.8412 0.2081
H29D H -0.1120 0.8975 0.2312
H30D H -0.1194 0.9616 0.1750
H31D H -0.2029 0.9706 0.1348
H35D H -0.4838 0.8611 0.0954
H34D H -0.5419 0.7904 0.1133
H33D H -0.5178 0.7189 0.1610
N19D N -0.4586(13) 0.7049(8) 0.2729(8)
C41D C -0.4380(30) 0.6580(20) 0.3127(13)
C42D C -0.4310(30) 0.6115(19) 0.2930(20)
N20D N -0.4048(19) 0.6109(10) 0.2521(10)
H11D H -0.4147 0.5808 0.2354
H12D H -0.3684 0.6087 0.2578
H47D H -0.4673 0.5952 0.2877
H48D H -0.4118 0.5880 0.3151
H45D H -0.4042 0.6697 0.3275
H46D H -0.4659 0.6546 0.3376
H9D H -0.4471 0.7389 0.2808
H10D H -0.4954 0.7050 0.2692
C17D C -0.3288(8) 0.6417(5) 0.1540(6)
H24D H -0.3085 0.6582 0.1783
H21D H -0.4458 0.6135 0.1265
H22D H -0.4034 0.5821 0.0577
H23D H -0.3091 0.5705 0.0595
H15D H -0.1971 0.5039 0.0344
H14D H -0.1516 0.4384 -0.0112
H13D H -0.0601 0.4352 -0.0089
N15D N 0.0409(6) 0.4171(6) 0.0569(6)
C37D C 0.0986(12) 0.3983(12) 0.0510(14)
C38D C 0.1336(10) 0.4329(14) 0.0420(20)
N16D N 0.1160(6) 0.4822(7) 0.0167(7)
H3D H 0.1231 0.4782 -0.0147
H4D H 0.1348 0.5116 0.0274
H39D H 0.1626 0.4155 0.0242
H40D H 0.1495 0.4445 0.0726
H37D H 0.1093 0.3792 0.0799
H38D H 0.0993 0.3715 0.0253
H1D H 0.0320 0.4188 0.0881
H2D H 0.0175 0.3938 0.0423
C23D C -0.0019(6) 0.5830(6) -0.0359(6)
H28D H -0.0251 0.5555 -0.0473
H25D H 0.0989 0.6019 0.0319
H26D H 0.0931 0.6893 0.0114
H27D H 0.0263 0.7125 -0.0520
Si1 Si -0.0418(7) 0.9082(7) -0.0429(5)
C43 C -0.1224(6) 0.8136(7) -0.0474(6)
C44 C -0.1047(6) 0.8657(8) -0.0612(8)
C45 C -0.1381(9) 0.8983(6) -0.0899(8)
C46 C -0.1891(8) 0.8789(7) -0.1048(6)
C47 C -0.2068(5) 0.8269(7) -0.0910(6)
C48 C -0.1734(6) 0.7942(5) -0.0623(5)
C49 C -0.1900(7) 0.7437(7) -0.0498(6)
C50 C -0.2391(9) 0.7163(9) -0.0632(7)
C51 C -0.2519(9) 0.6598(10) -0.0521(8)
C52 C -0.2162(7) 0.6307(7) -0.0243(7)
C53 C -0.1650(10) 0.6601(10) -0.0115(8)
C54 C -0.1568(10) 0.7107(11) -0.0208(9)
O17 O -0.0205(11) 0.8673(12) -0.0299(9)
O18 O -0.0203(17) 0.9639(17) -0.0924(13)
O19 O -0.0555(9) 0.9445(9) 0.0000
Si1D Si -0.0918(7) 0.9582(7) 0.0429(5)
C44D C -0.1343(8) 0.8953(6) 0.0612(8)
C43D C -0.1864(7) 0.8776(6) 0.0474(6)
C48D C -0.2058(5) 0.8266(6) 0.0623(5)
C47D C -0.1731(7) 0.7932(5) 0.0910(6)
C46D C -0.1211(7) 0.8109(8) 0.1048(6)
C45D C -0.1017(6) 0.8619(9) 0.0899(8)
C49D C -0.2563(7) 0.8100(7) 0.0498(6)
C50D C -0.2837(9) 0.7609(9) 0.0632(7)
C51D C -0.3402(10) 0.7481(9) 0.0521(8)
C52D C -0.3693(7) 0.7838(7) 0.0243(7)
C53D C -0.3399(10) 0.8350(10) 0.0115(8)
C54D C -0.2893(11) 0.8432(10) 0.0208(9)
O17D O -0.1327(12) 0.9795(11) 0.0299(9)
O18D O -0.0361(17) 0.9797(17) 0.0924(13)
N1 N -0.1901(6) 0.9886(6) -0.2125(5)
O1 O -0.2351(5) 0.9719(5) -0.2226(4)
O2 O -0.1670(7) 1.0293(7) -0.2312(6)
O3 O -0.1633(6) 0.9630(6) -0.1808(5)
O4 O -0.6612(10) 0.8799(10) 0.0264(10)
O9 O -0.6654(9) 0.9906(9) 0.0062(8)
O10 O -0.2082(12) 0.7153(12) -0.4891(10)
O11 O -0.4451(13) 0.4857(13) -0.0401(10)
O12 O -0.1270(20) 0.9660(20) -0.3206(18)
O13 O -0.1080(20) 0.7490(20) -0.4807(18)
O14 O -0.0730(20) 0.8020(20) -0.5130(20)
O15 O 0.0200(30) 0.8950(40) 0.1570(30)
O1D O -0.0281(5) 0.7649(5) 0.2226(4)
N1D N -0.0114(6) 0.8099(6) 0.2125(5)
O2D O 0.0293(7) 0.8330(7) 0.2312(6)
O3D O -0.0370(6) 0.8367(6) 0.1808(5)
loop_
_geom_bond_atom_site_label_1
_geom_bond_atom_site_label_2
_geom_bond_site_symmetry_1
_geom_bond_site_symmetry_2
Pd1 N2 1_555 1_555
Pd2 N3 1_555 1_555
Pd3 N5 1_555 1_555
Si1 C44 1_555 1_555
N1 O1 1_555 1_555
N2 C1 1_555 1_555
N3 C7 1_555 1_555
N5 C13 1_555 1_555
N6 C6 1_555 1_555
N7 C12 1_555 1_555
N8 C6 1_555 1_555
N9 Pd1 1_555 1_555
N10 Pd2 1_555 1_555
N11 Pd3 1_555 1_555
N12 C24 1_555 1_555
N13 C30 1_555 1_555
N14 C24 1_555 1_555
N15 Pd1 1_555 1_555
N16 Pd1 1_555 1_555
N17 Pd2 1_555 1_555
N18 Pd2 1_555 1_555
N19 Pd3 1_555 1_555
N20 Pd3 1_555 1_555
C1 C2 1_555 1_555
C2 C3 1_555 1_555
C3 C4 1_555 1_555
C4 C5 1_555 1_555
C5 N2 1_555 1_555
C6 C4 1_555 1_555
C7 C8 1_555 1_555
C8 C9 1_555 1_555
C9 C10 1_555 1_555
C10 C11 1_555 1_555
C11 N3 1_555 1_555
C12 N6 1_555 1_555
C13 C14 1_555 1_555
C14 C15 1_555 1_555
C15 C16 1_555 1_555
C16 C17 1_555 1_555
C17 N5 1_555 1_555
C18 N7 1_555 1_555
C19 N9 1_555 1_555
C20 C19 1_555 1_555
C21 C20 1_555 1_555
C22 C21 1_555 1_555
C23 N9 1_555 1_555
C24 C22 1_555 1_555
C25 N10 1_555 1_555
C26 C25 1_555 1_555
C27 C26 1_555 1_555
C28 C27 1_555 1_555
C29 N10 1_555 1_555
C30 N12 1_555 1_555
C31 N11 1_555 1_555
C32 C31 1_555 1_555
C33 C32 1_555 1_555
C34 C33 1_555 1_555
C35 N11 1_555 1_555
C36 N13 1_555 1_555
C37 N15 1_555 1_555
C38 N16 1_555 1_555
C39 N17 1_555 1_555
C40 N18 1_555 1_555
C41 N19 1_555 1_555
C42 N20 1_555 1_555
C43 C44 1_555 1_555
C44 C45 1_555 1_555
C45 C46 1_555 1_555
C46 C47 1_555 1_555
C47 C48 1_555 1_555
C48 C43 1_555 1_555
C49 C48 1_555 1_555
C50 C49 1_555 1_555
C51 C50 1_555 1_555
C52 C51 1_555 1_555
C53 C52 1_555 1_555
C54 C49 1_555 1_555
O2 N1 1_555 1_555
O3 N1 1_555 1_555
O17 Si1 1_555 1_555
O18 Si1 1_555 1_555
O19 Si1 1_555 1_555
H1 N15 1_555 1_555
H2 N15 1_555 1_555
H3 N16 1_555 1_555
H4 N16 1_555 1_555
H5 N17 1_555 1_555
H6 N17 1_555 1_555
H7 N18 1_555 1_555
H8 N18 1_555 1_555
H9 N19 1_555 1_555
H10 N19 1_555 1_555
H11 N20 1_555 1_555
H12 N20 1_555 1_555
H13 C1 1_555 1_555
H14 C2 1_555 1_555
H15 C3 1_555 1_555
H16 C5 1_555 1_555
H17 C7 1_555 1_555
H18 C8 1_555 1_555
H19 C9 1_555 1_555
H20 C11 1_555 1_555
H21 C13 1_555 1_555
H22 C14 1_555 1_555
H23 C15 1_555 1_555
H24 C17 1_555 1_555
H25 C19 1_555 1_555
H26 C20 1_555 1_555
H27 C21 1_555 1_555
H28 C23 1_555 1_555
H29 C25 1_555 1_555
H30 C26 1_555 1_555
H31 C27 1_555 1_555
H32 C29 1_555 1_555
H33 C31 1_555 1_555
H34 C32 1_555 1_555
H35 C33 1_555 1_555
H36 C35 1_555 1_555
H37 C37 1_555 1_555
H38 C37 1_555 1_555
H39 C38 1_555 1_555
H40 C38 1_555 1_555
H41 C39 1_555 1_555
H42 C39 1_555 1_555
H43 C40 1_555 1_555
H44 C40 1_555 1_555
H45 C41 1_555 1_555
H46 C41 1_555 1_555
H47 C42 1_555 1_555
H48 C42 1_555 1_555
C36D C34 1_555 1_555
N13D C36D 1_555 1_555
C30D C28 1_555 1_555
N12D C30D 1_555 1_555
C24D N12D 1_555 1_555
N14D C36D 1_555 1_555
C22D C24D 1_555 1_555
C21D C22D 1_555 1_555
C20D C21D 1_555 1_555
C19D C20D 1_555 1_555
N9D C19D 1_555 1_555
Pd1D N9D 1_555 1_555
N2D Pd1D 1_555 1_555
C1D N2D 1_555 1_555
C2D C1D 1_555 1_555
C3D C2D 1_555 1_555
C4D C3D 1_555 1_555
C5D N2D 1_555 1_555
H16D C5D 1_555 1_555
C6D C4D 1_555 1_555
N6D C6D 1_555 1_555
C12D N6D 1_555 1_555
N7D C12D 1_555 1_555
C18D N7D 1_555 1_555
N8D C6D 1_555 1_555
C16D C18D 1_555 1_555
C15D C16D 1_555 1_555
C14D C15D 1_555 1_555
C13D C14D 1_555 1_555
N5D C13D 1_555 1_555
Pd3D N5D 1_555 1_555
N11D Pd3D 1_555 1_555
C31D N11D 1_555 1_555
C32D C31D 1_555 1_555
C33D C32D 1_555 1_555
C34D C36 1_555 1_555
C35D N11D 1_555 1_555
H36D C35D 1_555 1_555
C28D C30 1_555 1_555
C27D C28D 1_555 1_555
C26D C27D 1_555 1_555
C25D C26D 1_555 1_555
N10D C25D 1_555 1_555
Pd2D N10D 1_555 1_555
N3D Pd2D 1_555 1_555
C7D N3D 1_555 1_555
C8D C7D 1_555 1_555
C9D C8D 1_555 1_555
C10D C12D 1_555 1_555
C11D N3D 1_555 1_555
H20D C11D 1_555 1_555
H19D C9D 1_555 1_555
O1D N1D 1_555 1_555
N1D O2D 1_555 1_555
O3D N1D 1_555 1_555
H17D C7D 1_555 1_555
H18D C8D 1_555 1_555
N17D Pd2D 1_555 1_555
C39D N17D 1_555 1_555
C40D C39D 1_555 1_555
N18D Pd2D 1_555 1_555
H7D N18D 1_555 1_555
H8D N18D 1_555 1_555
H43D C40D 1_555 1_555
H44D C40D 1_555 1_555
H41D C39D 1_555 1_555
H42D C39D 1_555 1_555
H5D N17D 1_555 1_555
H6D N17D 1_555 1_555
C29D C28D 1_555 1_555
H32D C29D 1_555 1_555
H29D C25D 1_555 1_555
H30D C26D 1_555 1_555
H31D C27D 1_555 1_555
H35D C33D 1_555 1_555
H34D C32D 1_555 1_555
H33D C31D 1_555 1_555
N19D Pd3D 1_555 1_555
C41D N19D 1_555 1_555
C42D C41D 1_555 1_555
N20D Pd3D 1_555 1_555
H11D N20D 1_555 1_555
H12D N20D 1_555 1_555
H47D C42D 1_555 1_555
H48D C42D 1_555 1_555
H45D C41D 1_555 1_555
H46D C41D 1_555 1_555
H9D N19D 1_555 1_555
H10D N19D 1_555 1_555
C17D C16D 1_555 1_555
H24D C17D 1_555 1_555
H21D C13D 1_555 1_555
H22D C14D 1_555 1_555
H23D C15D 1_555 1_555
H15D C3D 1_555 1_555
H14D C2D 1_555 1_555
H13D C1D 1_555 1_555
N15D Pd1D 1_555 1_555
C37D N15D 1_555 1_555
C38D C37D 1_555 1_555
N16D Pd1D 1_555 1_555
H3D N16D 1_555 1_555
H4D N16D 1_555 1_555
H39D C38D 1_555 1_555
H40D C38D 1_555 1_555
H37D C37D 1_555 1_555
H38D C37D 1_555 1_555
H1D N15D 1_555 1_555
H2D N15D 1_555 1_555
C23D C22D 1_555 1_555
H28D C23D 1_555 1_555
H25D C19D 1_555 1_555
H26D C20D 1_555 1_555
H27D C21D 1_555 1_555
Si1D O19 1_555 1_555
C44D Si1D 1_555 1_555
C43D C44D 1_555 1_555
C48D C43D 1_555 1_555
C47D C48D 1_555 1_555
C46D C47D 1_555 1_555
C45D C44D 1_555 1_555
C49D C48D 1_555 1_555
C50D C49D 1_555 1_555
C51D C50D 1_555 1_555
C52D C51D 1_555 1_555
C53D C52D 1_555 1_555
C54D C49D 1_555 1_555
O17D Si1D 1_555 1_555
O18D Si1D 1_555 1_555
N8 C18 1_555 1_555
N14 C36 1_555 1_555
C10 C12 1_555 1_555
C16 C18 1_555 1_555
C22 C23 1_555 1_555
C28 C29 1_555 1_555
C34 C35 1_555 1_555
C37 C38 1_555 1_555
C39 C40 1_555 1_555
C41 C42 1_555 1_555
C53 C54 1_555 1_555
N13D C30D 1_555 1_555
C24D N14D 1_555 1_555
N9D C23D 1_555 1_555
C4D C5D 1_555 1_555
C18D N8D 1_555 1_555
N5D C17D 1_555 1_555
C33D C34D 1_555 1_555
C34D C35D 1_555 1_555
N10D C29D 1_555 1_555
C9D C10D 1_555 1_555
C10D C11D 1_555 1_555
C40D N18D 1_555 1_555
C42D N20D 1_555 1_555
C38D N16D 1_555 1_555
C46D C45D 1_555 1_555
C53D C54D 1_555 1_555

#END
