# generated using pymatgen
data_Si2Pd6C104N47O60
_symmetry_space_group_name_H-M   'P 1'
_cell_length_a   17.12400000
_cell_length_b   20.28400000
_cell_length_c   44.54600000
_cell_angle_alpha   90.00000000
_cell_angle_beta   90.00000000
_cell_angle_gamma   101.21700000
_symmetry_Int_Tables_number   1
_chemical_formula_structural   Si2Pd6C104N47O60
_chemical_formula_sum   'Si8 Pd24 C416 N188 O240'
_cell_volume   15177.18239239
_cell_formula_units_Z   4
loop_
 _symmetry_equiv_pos_site_id
 _symmetry_equiv_pos_as_xyz
  1  'x, y, z'
loop_
 _atom_site_type_symbol
 _atom_site_label
 _atom_site_symmetry_multiplicity
 _atom_site_fract_x
 _atom_site_fract_y
 _atom_site_fract_z
 _atom_site_occupancy
  Si  Si1  1  0.575100  0.069400  0.528000  1
  Si  Si2  1  0.924900  0.430600  0.028000  1
  Si  Si3  1  0.424900  0.930600  0.472000  1
  Si  Si4  1  0.075100  0.569400  0.972000  1
  Si  Si5  1  0.749100  0.051300  0.521200  1
  Si  Si6  1  0.750900  0.448700  0.021200  1
  Si  Si7  1  0.250900  0.948700  0.478800  1
  Si  Si8  1  0.249100  0.551300  0.978800  1
  Pd  Pd9  1  0.388100  0.079300  0.738600  1
  Pd  Pd10  1  0.111900  0.420700  0.238600  1
  Pd  Pd11  1  0.611900  0.920700  0.261400  1
  Pd  Pd12  1  0.888100  0.579300  0.761400  1
  Pd  Pd13  1  0.865200  0.730600  0.620100  1
  Pd  Pd14  1  0.634800  0.769400  0.120100  1
  Pd  Pd15  1  0.134800  0.269400  0.379900  1
  Pd  Pd16  1  0.365200  0.230600  0.879900  1
  Pd  Pd17  1  0.287300  0.930300  0.606200  1
  Pd  Pd18  1  0.212700  0.569700  0.106200  1
  Pd  Pd19  1  0.712700  0.069700  0.393800  1
  Pd  Pd20  1  0.787300  0.430300  0.893800  1
  Pd  Pd21  1  0.058700  0.256400  0.714300  1
  Pd  Pd22  1  0.441300  0.243600  0.214300  1
  Pd  Pd23  1  0.941300  0.743600  0.285700  1
  Pd  Pd24  1  0.558700  0.756400  0.785700  1
  Pd  Pd25  1  0.513400  0.576000  0.622400  1
  Pd  Pd26  1  0.986600  0.924000  0.122400  1
  Pd  Pd27  1  0.486600  0.424000  0.377600  1
  Pd  Pd28  1  0.013400  0.076000  0.877600  1
  Pd  Pd29  1  0.064100  0.367400  0.555400  1
  Pd  Pd30  1  0.435900  0.132600  0.055400  1
  Pd  Pd31  1  0.935900  0.632600  0.444600  1
  Pd  Pd32  1  0.564100  0.867400  0.944600  1
  C  C33  1  0.900200  0.817400  0.673000  1
  C  C34  1  0.599800  0.682600  0.173000  1
  C  C35  1  0.099800  0.182600  0.327000  1
  C  C36  1  0.400200  0.317400  0.827000  1
  C  C37  1  0.993300  0.257600  0.514400  1
  C  C38  1  0.506700  0.242400  0.014400  1
  C  C39  1  0.006700  0.742400  0.485600  1
  C  C40  1  0.493300  0.757600  0.985600  1
  C  C41  1  0.506200  0.500200  0.565200  1
  C  C42  1  0.993800  0.999800  0.065200  1
  C  C43  1  0.493800  0.499800  0.434800  1
  C  C44  1  0.006200  0.000200  0.934800  1
  C  C45  1  0.919300  0.412800  0.541100  1
  C  C46  1  0.580700  0.087200  0.041100  1
  C  C47  1  0.080700  0.587200  0.458900  1
  C  C48  1  0.419300  0.912800  0.958900  1
  C  C49  1  0.840800  0.426700  0.544500  1
  C  C50  1  0.659200  0.073300  0.044500  1
  C  C51  1  0.159200  0.573300  0.455500  1
  C  C52  1  0.340800  0.926700  0.955500  1
  C  C53  1  0.888300  0.863100  0.695700  1
  C  C54  1  0.611700  0.636900  0.195700  1
  C  C55  1  0.111700  0.136900  0.304300  1
  C  C56  1  0.388300  0.363100  0.804300  1
  C  C57  1  0.496500  0.444000  0.546700  1
  C  C58  1  0.003500  0.056000  0.046700  1
  C  C59  1  0.503500  0.556000  0.453300  1
  C  C60  1  0.996500  0.944000  0.953300  1
  C  C61  1  0.968600  0.191900  0.504900  1
  C  C62  1  0.531400  0.308100  0.004900  1
  C  C63  1  0.031400  0.808100  0.495100  1
  C  C64  1  0.468600  0.691900  0.995100  1
  C  C65  1  0.818400  0.887000  0.695200  1
  C  C66  1  0.681600  0.613000  0.195200  1
  C  C67  1  0.181600  0.113000  0.304800  1
  C  C68  1  0.318400  0.387000  0.804800  1
  C  C69  1  0.969500  0.141100  0.524300  1
  C  C70  1  0.530500  0.358900  0.024300  1
  C  C71  1  0.030500  0.858900  0.475700  1
  C  C72  1  0.469500  0.641100  0.975700  1
  C  C73  1  0.809800  0.424900  0.573500  1
  C  C74  1  0.690200  0.075100  0.073500  1
  C  C75  1  0.190200  0.575100  0.426500  1
  C  C76  1  0.309800  0.924900  0.926500  1
  C  C77  1  0.467800  0.380100  0.558000  1
  C  C78  1  0.032200  0.119900  0.058000  1
  C  C79  1  0.532200  0.619900  0.442000  1
  C  C80  1  0.967800  0.880100  0.942000  1
  C  C81  1  0.761300  0.865700  0.673200  1
  C  C82  1  0.738700  0.634300  0.173200  1
  C  C83  1  0.238700  0.134300  0.326800  1
  C  C84  1  0.261300  0.365700  0.826800  1
  C  C85  1  0.991100  0.156000  0.555500  1
  C  C86  1  0.508900  0.344000  0.055500  1
  C  C87  1  0.008900  0.844000  0.444500  1
  C  C88  1  0.491100  0.656000  0.944500  1
  C  C89  1  0.456200  0.374800  0.589000  1
  C  C90  1  0.043800  0.125200  0.089000  1
  C  C91  1  0.543800  0.625200  0.411000  1
  C  C92  1  0.956200  0.874800  0.911000  1
  C  C93  1  0.847600  0.401500  0.596600  1
  C  C94  1  0.652400  0.098500  0.096600  1
  C  C95  1  0.152400  0.598500  0.403400  1
  C  C96  1  0.347600  0.901500  0.903400  1
  C  C97  1  0.009900  0.221600  0.563700  1
  C  C98  1  0.490100  0.278400  0.063700  1
  C  C99  1  0.990100  0.778400  0.436300  1
  C  C100  1  0.509900  0.721600  0.936300  1
  C  C101  1  0.464900  0.433900  0.606700  1
  C  C102  1  0.035100  0.066100  0.106700  1
  C  C103  1  0.535100  0.566100  0.393300  1
  C  C104  1  0.964900  0.933900  0.893300  1
  C  C105  1  0.774300  0.821000  0.651100  1
  C  C106  1  0.725700  0.679000  0.151100  1
  C  C107  1  0.225700  0.179000  0.348900  1
  C  C108  1  0.274300  0.321000  0.848900  1
  C  C109  1  0.924400  0.387400  0.592900  1
  C  C110  1  0.575600  0.112600  0.092900  1
  C  C111  1  0.075600  0.612600  0.407100  1
  C  C112  1  0.424400  0.887400  0.907100  1
  C  C113  1  0.689400  0.898200  0.670800  1
  C  C114  1  0.810600  0.601800  0.170800  1
  C  C115  1  0.310600  0.101800  0.329200  1
  C  C116  1  0.189400  0.398200  0.829200  1
  C  C117  1  0.432900  0.310100  0.603800  1
  C  C118  1  0.067100  0.189900  0.103800  1
  C  C119  1  0.567100  0.689900  0.396200  1
  C  C120  1  0.932900  0.810100  0.896200  1
  C  C121  1  0.811400  0.395400  0.627000  1
  C  C122  1  0.688600  0.104600  0.127000  1
  C  C123  1  0.188600  0.604600  0.373000  1
  C  C124  1  0.311400  0.895400  0.873000  1
  C  C125  1  0.988100  0.104500  0.578300  1
  C  C126  1  0.511900  0.395500  0.078300  1
  C  C127  1  0.011900  0.895500  0.421700  1
  C  C128  1  0.488100  0.604500  0.921700  1
  C  C129  1  0.334400  0.018000  0.553300  1
  C  C130  1  0.165600  0.482000  0.053300  1
  C  C131  1  0.665600  0.982000  0.446700  1
  C  C132  1  0.834400  0.518000  0.946700  1
  C  C133  1  0.869900  0.792400  0.559800  1
  C  C134  1  0.630100  0.707600  0.059800  1
  C  C135  1  0.130100  0.207600  0.440200  1
  C  C136  1  0.369900  0.292400  0.940200  1
  C  C137  1  0.898900  0.237000  0.739200  1
  C  C138  1  0.601100  0.263000  0.239200  1
  C  C139  1  0.101100  0.763000  0.260800  1
  C  C140  1  0.398900  0.737000  0.760800  1
  C  C141  1  0.411900  0.870800  0.575500  1
  C  C142  1  0.088100  0.629200  0.075500  1
  C  C143  1  0.588100  0.129200  0.424500  1
  C  C144  1  0.911900  0.370800  0.924500  1
  C  C145  1  0.821500  0.248800  0.743200  1
  C  C146  1  0.678500  0.251200  0.243200  1
  C  C147  1  0.178500  0.751200  0.256800  1
  C  C148  1  0.321500  0.748800  0.756800  1
  C  C149  1  0.486000  0.851900  0.572200  1
  C  C150  1  0.014000  0.648100  0.072200  1
  C  C151  1  0.514000  0.148100  0.427800  1
  C  C152  1  0.986000  0.351900  0.927800  1
  C  C153  1  0.884800  0.844100  0.537800  1
  C  C154  1  0.615200  0.655900  0.037800  1
  C  C155  1  0.115200  0.155900  0.462200  1
  C  C156  1  0.384800  0.344100  0.962200  1
  C  C157  1  0.357700  0.075600  0.537400  1
  C  C158  1  0.142300  0.424400  0.037400  1
  C  C159  1  0.642300  0.924400  0.462600  1
  C  C160  1  0.857700  0.575600  0.962600  1
  C  C161  1  0.790700  0.285700  0.721900  1
  C  C162  1  0.709300  0.214300  0.221900  1
  C  C163  1  0.209300  0.714300  0.278100  1
  C  C164  1  0.290700  0.785700  0.778100  1
  C  C165  1  0.541600  0.863500  0.595100  1
  C  C166  1  0.958400  0.636500  0.095100  1
  C  C167  1  0.458400  0.136500  0.404900  1
  C  C168  1  0.041600  0.363500  0.904900  1
  C  C169  1  0.378300  0.135900  0.552800  1
  C  C170  1  0.121700  0.364100  0.052800  1
  C  C171  1  0.621700  0.864100  0.447200  1
  C  C172  1  0.878300  0.635900  0.947200  1
  C  C173  1  0.914100  0.906400  0.546400  1
  C  C174  1  0.585900  0.593600  0.046400  1
  C  C175  1  0.085900  0.093600  0.453600  1
  C  C176  1  0.414100  0.406400  0.953600  1
  C  C177  1  0.836400  0.312000  0.698300  1
  C  C178  1  0.663600  0.188000  0.198300  1
  C  C179  1  0.163600  0.688000  0.301700  1
  C  C180  1  0.336400  0.812000  0.801700  1
  C  C181  1  0.933800  0.920700  0.576600  1
  C  C182  1  0.566200  0.579300  0.076600  1
  C  C183  1  0.066200  0.079300  0.423400  1
  C  C184  1  0.433800  0.420700  0.923400  1
  C  C185  1  0.519900  0.893200  0.621600  1
  C  C186  1  0.980100  0.606800  0.121600  1
  C  C187  1  0.480100  0.106800  0.378400  1
  C  C188  1  0.019900  0.393200  0.878400  1
  C  C189  1  0.375100  0.135400  0.583600  1
  C  C190  1  0.124900  0.364600  0.083600  1
  C  C191  1  0.624900  0.864600  0.416400  1
  C  C192  1  0.875100  0.635400  0.916400  1
  C  C193  1  0.922500  0.869400  0.596000  1
  C  C194  1  0.577500  0.630600  0.096000  1
  C  C195  1  0.077500  0.130600  0.404000  1
  C  C196  1  0.422500  0.369400  0.904000  1
  C  C197  1  0.347000  0.075200  0.599000  1
  C  C198  1  0.153000  0.424800  0.099000  1
  C  C199  1  0.653000  0.924800  0.401000  1
  C  C200  1  0.847000  0.575200  0.901000  1
  C  C201  1  0.449400  0.911600  0.623500  1
  C  C202  1  0.050600  0.588400  0.123500  1
  C  C203  1  0.550600  0.088400  0.376500  1
  C  C204  1  0.949400  0.411600  0.876500  1
  C  C205  1  0.912500  0.298700  0.694100  1
  C  C206  1  0.587500  0.201300  0.194100  1
  C  C207  1  0.087500  0.701300  0.305900  1
  C  C208  1  0.412500  0.798700  0.805900  1
  C  C209  1  0.264600  0.960300  0.748000  1
  C  C210  1  0.235400  0.539700  0.248000  1
  C  C211  1  0.735400  0.039700  0.252000  1
  C  C212  1  0.764600  0.460300  0.752000  1
  C  C213  1  0.395300  0.199000  0.601300  1
  C  C214  1  0.104700  0.301000  0.101300  1
  C  C215  1  0.604700  0.801000  0.398700  1
  C  C216  1  0.895300  0.699000  0.898700  1
  C  C217  1  0.805000  0.351400  0.673600  1
  C  C218  1  0.695000  0.148600  0.173600  1
  C  C219  1  0.195000  0.648600  0.326400  1
  C  C220  1  0.305000  0.851400  0.826400  1
  C  C221  1  0.574600  0.909300  0.648100  1
  C  C222  1  0.925400  0.590700  0.148100  1
  C  C223  1  0.425400  0.090700  0.351900  1
  C  C224  1  0.074600  0.409300  0.851900  1
  C  C225  1  0.963900  0.992000  0.587400  1
  C  C226  1  0.536100  0.508000  0.087400  1
  C  C227  1  0.036100  0.008000  0.412600  1
  C  C228  1  0.463900  0.492000  0.912600  1
  C  C229  1  0.227600  0.020700  0.756400  1
  C  C230  1  0.272400  0.479300  0.256400  1
  C  C231  1  0.772400  0.979300  0.243600  1
  C  C232  1  0.727600  0.520700  0.743600  1
  C  C233  1  0.424200  0.231800  0.739800  1
  C  C234  1  0.075800  0.268200  0.239800  1
  C  C235  1  0.575800  0.768200  0.260200  1
  C  C236  1  0.924200  0.731800  0.760200  1
  C  C237  1  0.526000  0.511500  0.679600  1
  C  C238  1  0.974000  0.988500  0.179600  1
  C  C239  1  0.474000  0.488500  0.320400  1
  C  C240  1  0.026000  0.011500  0.820400  1
  C  C241  1  0.560800  0.101700  0.755200  1
  C  C242  1  0.939200  0.398300  0.255200  1
  C  C243  1  0.439200  0.898300  0.244800  1
  C  C244  1  0.060800  0.601700  0.744800  1
  C  C245  1  0.031100  0.110600  0.718700  1
  C  C246  1  0.468900  0.389400  0.218700  1
  C  C247  1  0.968900  0.889400  0.281300  1
  C  C248  1  0.531100  0.610600  0.781300  1
  C  C249  1  0.638300  0.091800  0.753700  1
  C  C250  1  0.861700  0.408200  0.253700  1
  C  C251  1  0.361700  0.908200  0.246300  1
  C  C252  1  0.138300  0.591800  0.746300  1
  C  C253  1  0.017300  0.043100  0.708900  1
  C  C254  1  0.482700  0.456900  0.208900  1
  C  C255  1  0.982700  0.956900  0.291100  1
  C  C256  1  0.517300  0.543100  0.791100  1
  C  C257  1  0.430500  0.294000  0.728900  1
  C  C258  1  0.069500  0.206000  0.228900  1
  C  C259  1  0.569500  0.706000  0.271100  1
  C  C260  1  0.930500  0.794000  0.771100  1
  C  C261  1  0.546600  0.466300  0.700900  1
  C  C262  1  0.953400  0.033700  0.200900  1
  C  C263  1  0.453400  0.533700  0.299100  1
  C  C264  1  0.046600  0.966300  0.799100  1
  C  C265  1  0.428900  0.300700  0.698100  1
  C  C266  1  0.071100  0.199300  0.198100  1
  C  C267  1  0.571100  0.699300  0.301900  1
  C  C268  1  0.928900  0.800700  0.801900  1
  C  C269  1  0.659400  0.045200  0.732800  1
  C  C270  1  0.840600  0.454800  0.232800  1
  C  C271  1  0.340600  0.954800  0.267200  1
  C  C272  1  0.159400  0.545200  0.767200  1
  C  C273  1  0.608900  0.434200  0.693300  1
  C  C274  1  0.891100  0.065800  0.193300  1
  C  C275  1  0.391100  0.565800  0.306700  1
  C  C276  1  0.108900  0.934200  0.806700  1
  C  C277  1  0.005700  0.028000  0.679700  1
  C  C278  1  0.494300  0.472000  0.179700  1
  C  C279  1  0.994300  0.972000  0.320300  1
  C  C280  1  0.505700  0.528000  0.820300  1
  C  C281  1  0.597600  0.011400  0.714300  1
  C  C282  1  0.902400  0.488600  0.214300  1
  C  C283  1  0.402400  0.988600  0.285700  1
  C  C284  1  0.097600  0.511400  0.785700  1
  C  C285  1  0.647600  0.448700  0.667100  1
  C  C286  1  0.852400  0.051300  0.167100  1
  C  C287  1  0.352400  0.551300  0.332900  1
  C  C288  1  0.147600  0.948700  0.832900  1
  C  C289  1  0.418400  0.244300  0.679600  1
  C  C290  1  0.081600  0.255700  0.179600  1
  C  C291  1  0.581600  0.755700  0.320400  1
  C  C292  1  0.918400  0.744300  0.820400  1
  C  C293  1  0.007500  0.081000  0.657000  1
  C  C294  1  0.492500  0.419000  0.157000  1
  C  C295  1  0.992500  0.919000  0.343000  1
  C  C296  1  0.507500  0.581000  0.843000  1
  C  C297  1  0.522400  0.026200  0.716100  1
  C  C298  1  0.977600  0.473800  0.216100  1
  C  C299  1  0.477600  0.973800  0.283900  1
  C  C300  1  0.022400  0.526200  0.783900  1
  C  C301  1  0.411500  0.183400  0.692400  1
  C  C302  1  0.088500  0.316600  0.192400  1
  C  C303  1  0.588500  0.816600  0.307600  1
  C  C304  1  0.911500  0.683400  0.807600  1
  C  C305  1  0.623600  0.490800  0.646300  1
  C  C306  1  0.876400  0.009200  0.146300  1
  C  C307  1  0.376400  0.509200  0.353700  1
  C  C308  1  0.123600  0.990800  0.853700  1
  C  C309  1  0.024700  0.145300  0.668300  1
  C  C310  1  0.475300  0.354700  0.168300  1
  C  C311  1  0.975300  0.854700  0.331700  1
  C  C312  1  0.524700  0.645300  0.831700  1
  C  C313  1  0.414100  0.248900  0.646100  1
  C  C314  1  0.085900  0.251100  0.146100  1
  C  C315  1  0.585900  0.751100  0.353900  1
  C  C316  1  0.914100  0.748900  0.853900  1
  C  C317  1  0.612800  0.961900  0.690800  1
  C  C318  1  0.887200  0.538100  0.190800  1
  C  C319  1  0.387200  0.038100  0.309200  1
  C  C320  1  0.112800  0.461900  0.809200  1
  C  C321  1  0.999200  0.066600  0.625600  1
  C  C322  1  0.500800  0.433400  0.125600  1
  C  C323  1  0.000800  0.933400  0.374400  1
  C  C324  1  0.499200  0.566600  0.874400  1
  C  C325  1  0.717900  0.416200  0.660200  1
  C  C326  1  0.782100  0.083800  0.160200  1
  C  C327  1  0.282100  0.583800  0.339800  1
  C  C328  1  0.217900  0.916200  0.839800  1
  C  C329  1  0.822800  0.590100  0.636100  1
  C  C330  1  0.677200  0.909900  0.136100  1
  C  C331  1  0.177200  0.409900  0.363900  1
  C  C332  1  0.322800  0.090100  0.863900  1
  C  C333  1  0.883100  0.593200  0.613800  1
  C  C334  1  0.616900  0.906800  0.113800  1
  C  C335  1  0.116900  0.406800  0.386200  1
  C  C336  1  0.383100  0.093200  0.886200  1
  C  C337  1  0.174400  0.866300  0.649400  1
  C  C338  1  0.325600  0.633700  0.149400  1
  C  C339  1  0.825600  0.133700  0.350600  1
  C  C340  1  0.674400  0.366300  0.850600  1
  C  C341  1  0.126200  0.908400  0.631000  1
  C  C342  1  0.373800  0.591600  0.131000  1
  C  C343  1  0.873800  0.091600  0.369000  1
  C  C344  1  0.626200  0.408400  0.869000  1
  C  C345  1  0.175200  0.376000  0.728200  1
  C  C346  1  0.324800  0.124000  0.228200  1
  C  C347  1  0.824800  0.624000  0.271800  1
  C  C348  1  0.675200  0.876000  0.771800  1
  C  C349  1  0.213800  0.316900  0.736000  1
  C  C350  1  0.286200  0.183100  0.236000  1
  C  C351  1  0.786200  0.683100  0.264000  1
  C  C352  1  0.713800  0.816900  0.764000  1
  C  C353  1  0.502700  0.713100  0.633500  1
  C  C354  1  0.997300  0.786900  0.133500  1
  C  C355  1  0.497300  0.286900  0.366500  1
  C  C356  1  0.002700  0.213100  0.866500  1
  C  C357  1  0.436900  0.687000  0.612900  1
  C  C358  1  0.063100  0.813000  0.112900  1
  C  C359  1  0.563100  0.313000  0.387100  1
  C  C360  1  0.936900  0.187000  0.887100  1
  C  C361  1  0.212500  0.469100  0.552300  1
  C  C362  1  0.287500  0.030900  0.052300  1
  C  C363  1  0.787500  0.530900  0.447700  1
  C  C364  1  0.712500  0.969100  0.947700  1
  C  C365  1  0.236500  0.397900  0.557400  1
  C  C366  1  0.263500  0.102100  0.057400  1
  C  C367  1  0.763500  0.602100  0.442600  1
  C  C368  1  0.736500  0.897900  0.942600  1
  C  C369  1  0.778600  0.090700  0.557100  1
  C  C370  1  0.721400  0.409300  0.057100  1
  C  C371  1  0.221400  0.909300  0.442900  1
  C  C372  1  0.278600  0.590700  0.942900  1
  C  C373  1  0.778100  0.048400  0.583000  1
  C  C374  1  0.721900  0.451600  0.083000  1
  C  C375  1  0.221900  0.951600  0.417000  1
  C  C376  1  0.278100  0.548400  0.917000  1
  C  C377  1  0.793900  0.076400  0.612800  1
  C  C378  1  0.706100  0.423600  0.112800  1
  C  C379  1  0.206100  0.923600  0.387200  1
  C  C380  1  0.293900  0.576400  0.887200  1
  C  C381  1  0.794700  0.036400  0.636700  1
  C  C382  1  0.705300  0.463600  0.136700  1
  C  C383  1  0.205300  0.963600  0.363300  1
  C  C384  1  0.294700  0.536400  0.863300  1
  C  C385  1  0.806500  0.060600  0.665000  1
  C  C386  1  0.693500  0.439400  0.165000  1
  C  C387  1  0.193500  0.939400  0.335000  1
  C  C388  1  0.306500  0.560600  0.835000  1
  C  C389  1  0.820900  0.135400  0.668900  1
  C  C390  1  0.679100  0.364600  0.168900  1
  C  C391  1  0.179100  0.864600  0.331100  1
  C  C392  1  0.320900  0.635400  0.831100  1
  C  C393  1  0.819900  0.176800  0.645200  1
  C  C394  1  0.680100  0.323200  0.145200  1
  C  C395  1  0.180100  0.823200  0.354800  1
  C  C396  1  0.319900  0.676800  0.854800  1
  C  C397  1  0.803900  0.147200  0.616000  1
  C  C398  1  0.696100  0.352800  0.116000  1
  C  C399  1  0.196100  0.852800  0.384000  1
  C  C400  1  0.303900  0.647200  0.884000  1
  C  C401  1  0.804100  0.188800  0.590100  1
  C  C402  1  0.695900  0.311200  0.090100  1
  C  C403  1  0.195900  0.811200  0.409900  1
  C  C404  1  0.304100  0.688800  0.909900  1
  C  C405  1  0.789600  0.159900  0.561500  1
  C  C406  1  0.710400  0.340100  0.061500  1
  C  C407  1  0.210400  0.840100  0.438500  1
  C  C408  1  0.289600  0.659900  0.938500  1
  C  C409  1  0.587300  0.128200  0.559800  1
  C  C410  1  0.912700  0.371800  0.059800  1
  C  C411  1  0.412700  0.871800  0.440200  1
  C  C412  1  0.087300  0.628200  0.940200  1
  C  C413  1  0.583000  0.104200  0.589000  1
  C  C414  1  0.917000  0.395800  0.089000  1
  C  C415  1  0.417000  0.895800  0.411000  1
  C  C416  1  0.083000  0.604200  0.911000  1
  C  C417  1  0.589600  0.150900  0.613300  1
  C  C418  1  0.910400  0.349100  0.113300  1
  C  C419  1  0.410400  0.849100  0.386700  1
  C  C420  1  0.089600  0.650900  0.886700  1
  C  C421  1  0.590200  0.129000  0.644100  1
  C  C422  1  0.909800  0.371000  0.144100  1
  C  C423  1  0.409800  0.871000  0.355900  1
  C  C424  1  0.090200  0.629000  0.855900  1
  C  C425  1  0.599100  0.172200  0.667200  1
  C  C426  1  0.900900  0.327800  0.167200  1
  C  C427  1  0.400900  0.827800  0.332800  1
  C  C428  1  0.099100  0.672200  0.832800  1
  C  C429  1  0.610000  0.240600  0.662000  1
  C  C430  1  0.890000  0.259400  0.162000  1
  C  C431  1  0.390000  0.759400  0.338000  1
  C  C432  1  0.110000  0.740600  0.838000  1
  C  C433  1  0.615100  0.264700  0.633100  1
  C  C434  1  0.884900  0.235300  0.133100  1
  C  C435  1  0.384900  0.735300  0.366900  1
  C  C436  1  0.115100  0.764700  0.866900  1
  C  C437  1  0.607500  0.222500  0.608900  1
  C  C438  1  0.892500  0.277500  0.108900  1
  C  C439  1  0.392500  0.777500  0.391100  1
  C  C440  1  0.107500  0.722500  0.891100  1
  C  C441  1  0.609300  0.246300  0.579700  1
  C  C442  1  0.890700  0.253700  0.079700  1
  C  C443  1  0.390700  0.753700  0.420300  1
  C  C444  1  0.109300  0.746300  0.920300  1
  C  C445  1  0.599000  0.200300  0.554800  1
  C  C446  1  0.901000  0.299700  0.054800  1
  C  C447  1  0.401000  0.799700  0.445200  1
  C  C448  1  0.099000  0.700300  0.945200  1
  N  N449  1  0.493800  0.494900  0.595000  1
  N  N450  1  0.006200  0.005100  0.095000  1
  N  N451  1  0.506200  0.505100  0.405000  1
  N  N452  1  0.993800  0.994900  0.905000  1
  N  N453  1  0.957200  0.392400  0.565300  1
  N  N454  1  0.542800  0.107600  0.065300  1
  N  N455  1  0.042800  0.607600  0.434700  1
  N  N456  1  0.457200  0.892400  0.934700  1
  N  N457  1  0.842300  0.797300  0.651500  1
  N  N458  1  0.657700  0.702700  0.151500  1
  N  N459  1  0.157700  0.202700  0.348500  1
  N  N460  1  0.342300  0.297300  0.848500  1
  N  N461  1  0.015300  0.273700  0.544200  1
  N  N462  1  0.484700  0.226300  0.044200  1
  N  N463  1  0.984700  0.726300  0.455800  1
  N  N464  1  0.515300  0.773700  0.955800  1
  N  N465  1  0.942900  0.262900  0.715600  1
  N  N466  1  0.557100  0.237100  0.215600  1
  N  N467  1  0.057100  0.737100  0.284400  1
  N  N468  1  0.442900  0.762900  0.784400  1
  N  N469  1  0.328200  0.016000  0.583300  1
  N  N470  1  0.171800  0.484000  0.083300  1
  N  N471  1  0.671800  0.984000  0.416700  1
  N  N472  1  0.828200  0.516000  0.916700  1
  N  N473  1  0.891300  0.805100  0.588700  1
  N  N474  1  0.608700  0.694900  0.088700  1
  N  N475  1  0.108700  0.194900  0.411300  1
  N  N476  1  0.391300  0.305100  0.911300  1
  N  N477  1  0.394200  0.900800  0.601400  1
  N  N478  1  0.105800  0.599200  0.101400  1
  N  N479  1  0.605800  0.099200  0.398600  1
  N  N480  1  0.894200  0.400800  0.898600  1
  N  N481  1  0.503100  0.069300  0.736200  1
  N  N482  1  0.996900  0.430700  0.236200  1
  N  N483  1  0.496900  0.930700  0.263800  1
  N  N484  1  0.003100  0.569300  0.763800  1
  N  N485  1  0.035400  0.160800  0.697400  1
  N  N486  1  0.464600  0.339200  0.197400  1
  N  N487  1  0.964600  0.839200  0.302600  1
  N  N488  1  0.535400  0.660800  0.802600  1
  N  N489  1  0.412400  0.174500  0.723200  1
  N  N490  1  0.087600  0.325500  0.223200  1
  N  N491  1  0.587600  0.825500  0.276800  1
  N  N492  1  0.912400  0.674500  0.776800  1
  N  N493  1  0.563200  0.522400  0.653000  1
  N  N494  1  0.936800  0.977600  0.153000  1
  N  N495  1  0.436800  0.477600  0.347000  1
  N  N496  1  0.063200  0.022400  0.847000  1
  N  N497  1  0.743300  0.380700  0.681400  1
  N  N498  1  0.756700  0.119300  0.181400  1
  N  N499  1  0.256700  0.619300  0.318600  1
  N  N500  1  0.243300  0.880700  0.818600  1
  N  N501  1  0.677300  0.937800  0.693400  1
  N  N502  1  0.822700  0.562200  0.193400  1
  N  N503  1  0.322700  0.062200  0.306600  1
  N  N504  1  0.177300  0.437800  0.806600  1
  N  N505  1  0.979000  0.002200  0.617100  1
  N  N506  1  0.521000  0.497800  0.117100  1
  N  N507  1  0.021000  0.997800  0.382900  1
  N  N508  1  0.479000  0.502200  0.882900  1
  N  N509  1  0.412900  0.257400  0.586700  1
  N  N510  1  0.087100  0.242600  0.086700  1
  N  N511  1  0.587100  0.742600  0.413300  1
  N  N512  1  0.912900  0.757400  0.913300  1
  N  N513  1  0.396100  0.192000  0.631500  1
  N  N514  1  0.103900  0.308000  0.131500  1
  N  N515  1  0.603900  0.808000  0.368500  1
  N  N516  1  0.896100  0.692000  0.868500  1
  N  N517  1  0.841900  0.358700  0.647400  1
  N  N518  1  0.658100  0.141300  0.147400  1
  N  N519  1  0.158100  0.641300  0.352600  1
  N  N520  1  0.341900  0.858700  0.852600  1
  N  N521  1  0.643200  0.881300  0.648200  1
  N  N522  1  0.856800  0.618700  0.148200  1
  N  N523  1  0.356800  0.118700  0.351800  1
  N  N524  1  0.143200  0.381300  0.851800  1
  N  N525  1  0.002800  0.119700  0.606500  1
  N  N526  1  0.497200  0.380300  0.106500  1
  N  N527  1  0.997200  0.880300  0.393500  1
  N  N528  1  0.502800  0.619700  0.893500  1
  N  N529  1  0.435800  0.309700  0.634300  1
  N  N530  1  0.064200  0.190300  0.134300  1
  N  N531  1  0.564200  0.690300  0.365700  1
  N  N532  1  0.935800  0.809700  0.865700  1
  N  N533  1  0.560000  0.950700  0.667700  1
  N  N534  1  0.940000  0.549300  0.167700  1
  N  N535  1  0.440000  0.049300  0.332300  1
  N  N536  1  0.060000  0.450700  0.832300  1
  N  N537  1  0.752000  0.424600  0.632400  1
  N  N538  1  0.748000  0.075400  0.132400  1
  N  N539  1  0.248000  0.575400  0.367600  1
  N  N540  1  0.252000  0.924600  0.867600  1
  N  N541  1  0.968100  0.042400  0.567500  1
  N  N542  1  0.531900  0.457600  0.067500  1
  N  N543  1  0.031900  0.957600  0.432500  1
  N  N544  1  0.468100  0.542400  0.932500  1
  N  N545  1  0.353300  0.980900  0.752600  1
  N  N546  1  0.146700  0.519100  0.252600  1
  N  N547  1  0.646700  0.019100  0.247400  1
  N  N548  1  0.853300  0.480900  0.747400  1
  N  N549  1  0.270200  0.083000  0.739900  1
  N  N550  1  0.229800  0.417000  0.239900  1
  N  N551  1  0.729800  0.917000  0.260100  1
  N  N552  1  0.770200  0.583000  0.760100  1
  N  N553  1  0.883900  0.654500  0.593000  1
  N  N554  1  0.616100  0.845500  0.093000  1
  N  N555  1  0.116100  0.345500  0.407000  1
  N  N556  1  0.383900  0.154500  0.907000  1
  N  N557  1  0.839000  0.657600  0.650500  1
  N  N558  1  0.661000  0.842400  0.150500  1
  N  N559  1  0.161000  0.342400  0.349500  1
  N  N560  1  0.339000  0.157600  0.849500  1
  N  N561  1  0.235600  0.847200  0.629200  1
  N  N562  1  0.264400  0.652800  0.129200  1
  N  N563  1  0.764400  0.152800  0.370800  1
  N  N564  1  0.735600  0.347200  0.870800  1
  N  N565  1  0.182000  0.960200  0.613400  1
  N  N566  1  0.318000  0.539800  0.113400  1
  N  N567  1  0.818000  0.039800  0.386600  1
  N  N568  1  0.682000  0.460200  0.886600  1
  N  N569  1  0.089300  0.352800  0.731800  1
  N  N570  1  0.410700  0.147200  0.231800  1
  N  N571  1  0.910700  0.647200  0.268200  1
  N  N572  1  0.589300  0.852800  0.768200  1
  N  N573  1  0.176500  0.257400  0.717200  1
  N  N574  1  0.323500  0.242600  0.217200  1
  N  N575  1  0.823500  0.742600  0.282800  1
  N  N576  1  0.676500  0.757400  0.782800  1
  N  N577  1  0.527100  0.658200  0.650400  1
  N  N578  1  0.972900  0.841800  0.150400  1
  N  N579  1  0.472900  0.341800  0.349600  1
  N  N580  1  0.027100  0.158200  0.849600  1
  N  N581  1  0.460400  0.632400  0.595200  1
  N  N582  1  0.039600  0.867600  0.095200  1
  N  N583  1  0.539600  0.367600  0.404800  1
  N  N584  1  0.960400  0.132400  0.904800  1
  N  N585  1  0.127100  0.462200  0.565900  1
  N  N586  1  0.372900  0.037800  0.065900  1
  N  N587  1  0.872900  0.537800  0.434100  1
  N  N588  1  0.627100  0.962200  0.934100  1
  N  N589  1  0.171300  0.346500  0.543800  1
  N  N590  1  0.328700  0.153500  0.043800  1
  N  N591  1  0.828700  0.653500  0.456200  1
  N  N592  1  0.671300  0.846500  0.956200  1
  N  N593  1  0.067200  0.763100  0.576400  1
  N  N594  1  0.432800  0.736900  0.076400  1
  N  N595  1  0.932800  0.236900  0.423600  1
  N  N596  1  0.567200  0.263100  0.923600  1
  N  N597  1  0.214900  0.100400  0.665600  1
  N  N598  1  0.285100  0.399600  0.165600  1
  N  N599  1  0.785100  0.899600  0.334400  1
  N  N600  1  0.714900  0.600400  0.834400  1
  N  N601  1  0.696000  0.676100  0.706500  1
  N  N602  1  0.804000  0.823900  0.206500  1
  N  N603  1  0.304000  0.323900  0.293500  1
  N  N604  1  0.196000  0.176100  0.793500  1
  N  N605  1  0.408500  0.859100  0.704300  1
  N  N606  1  0.091500  0.640900  0.204300  1
  N  N607  1  0.591500  0.140900  0.295700  1
  N  N608  1  0.908500  0.359100  0.795700  1
  N  N609  1  0.669400  0.726800  0.584300  1
  N  N610  1  0.830600  0.773200  0.084300  1
  N  N611  1  0.330600  0.273200  0.415700  1
  N  N612  1  0.169400  0.226800  0.915700  1
  N  N613  1  0.084000  0.844000  0.728700  1
  N  N614  1  0.416000  0.656000  0.228700  1
  N  N615  1  0.916000  0.156000  0.271300  1
  N  N616  1  0.584000  0.344000  0.771300  1
  N  N617  1  0.308000  0.389300  0.658000  1
  N  N618  1  0.192000  0.110700  0.158000  1
  N  N619  1  0.692000  0.610700  0.342000  1
  N  N620  1  0.808000  0.889300  0.842000  1
  N  N621  1  0.145200  0.043700  0.547300  1
  N  N622  1  0.354800  0.456300  0.047300  1
  N  N623  1  0.854800  0.956300  0.452700  1
  N  N624  1  0.645200  0.543700  0.952700  1
  N  N625  1  0.986200  0.429100  0.462800  1
  N  N626  1  0.513800  0.070900  0.962800  1
  N  N627  1  0.013800  0.570900  0.537200  1
  N  N628  1  0.486200  0.929100  0.037200  1
  N  N629  1  0.470300  0.976900  0.819400  1
  N  N630  1  0.029700  0.523100  0.319400  1
  N  N631  1  0.529700  0.023100  0.180600  1
  N  N632  1  0.970300  0.476900  0.680600  1
  N  N633  1  0.405000  0.625000  0.516000  1
  N  N634  1  0.095000  0.875000  0.016000  1
  N  N635  1  0.595000  0.375000  0.484000  1
  N  N636  1  0.905000  0.125000  0.984000  1
  O  O637  1  0.075800  0.753000  0.604800  1
  O  O638  1  0.424200  0.747000  0.104800  1
  O  O639  1  0.924200  0.247000  0.395200  1
  O  O640  1  0.575800  0.253000  0.895200  1
  O  O641  1  0.084500  0.827200  0.566400  1
  O  O642  1  0.415500  0.672800  0.066400  1
  O  O643  1  0.915500  0.172800  0.433600  1
  O  O644  1  0.584500  0.327200  0.933600  1
  O  O645  1  0.032500  0.721400  0.560800  1
  O  O646  1  0.467500  0.778600  0.060800  1
  O  O647  1  0.967500  0.278600  0.439200  1
  O  O648  1  0.532500  0.221400  0.939200  1
  O  O649  1  0.224800  0.046100  0.676500  1
  O  O650  1  0.275200  0.453900  0.176500  1
  O  O651  1  0.775200  0.953900  0.323500  1
  O  O652  1  0.724800  0.546100  0.823500  1
  O  O653  1  0.198000  0.101300  0.638900  1
  O  O654  1  0.302000  0.398700  0.138900  1
  O  O655  1  0.802000  0.898700  0.361100  1
  O  O656  1  0.698000  0.601300  0.861100  1
  O  O657  1  0.220400  0.149200  0.682300  1
  O  O658  1  0.279600  0.350800  0.182300  1
  O  O659  1  0.779600  0.850800  0.317700  1
  O  O660  1  0.720400  0.649200  0.817700  1
  O  O661  1  0.639200  0.667000  0.724900  1
  O  O662  1  0.860800  0.833000  0.224900  1
  O  O663  1  0.360800  0.333000  0.275100  1
  O  O664  1  0.139200  0.167000  0.775100  1
  O  O665  1  0.685200  0.673200  0.678500  1
  O  O666  1  0.814800  0.826800  0.178500  1
  O  O667  1  0.314800  0.326800  0.321500  1
  O  O668  1  0.185200  0.173200  0.821500  1
  O  O669  1  0.768200  0.687800  0.714800  1
  O  O670  1  0.731800  0.812200  0.214800  1
  O  O671  1  0.231800  0.312200  0.285200  1
  O  O672  1  0.268200  0.187800  0.785200  1
  O  O673  1  0.356600  0.886700  0.694200  1
  O  O674  1  0.143400  0.613300  0.194200  1
  O  O675  1  0.643400  0.113300  0.305800  1
  O  O676  1  0.856600  0.386700  0.805800  1
  O  O677  1  0.427900  0.812200  0.688900  1
  O  O678  1  0.072100  0.687800  0.188900  1
  O  O679  1  0.572100  0.187800  0.311100  1
  O  O680  1  0.927900  0.312200  0.811100  1
  O  O681  1  0.448000  0.879100  0.725800  1
  O  O682  1  0.052000  0.620900  0.225800  1
  O  O683  1  0.552000  0.120900  0.274200  1
  O  O684  1  0.948000  0.379100  0.774200  1
  O  O685  1  0.611000  0.707800  0.565100  1
  O  O686  1  0.889000  0.792200  0.065100  1
  O  O687  1  0.389000  0.292200  0.434900  1
  O  O688  1  0.111000  0.207800  0.934900  1
  O  O689  1  0.680600  0.685000  0.603700  1
  O  O690  1  0.819400  0.815000  0.103700  1
  O  O691  1  0.319400  0.315000  0.396300  1
  O  O692  1  0.180600  0.185000  0.896300  1
  O  O693  1  0.699600  0.786400  0.583200  1
  O  O694  1  0.800400  0.713600  0.083200  1
  O  O695  1  0.300400  0.213600  0.416800  1
  O  O696  1  0.199600  0.286400  0.916800  1
  O  O697  1  0.126700  0.817500  0.745900  1
  O  O698  1  0.373300  0.682500  0.245900  1
  O  O699  1  0.873300  0.182500  0.254100  1
  O  O700  1  0.626700  0.317500  0.754100  1
  O  O701  1  0.055000  0.812600  0.707400  1
  O  O702  1  0.445000  0.687400  0.207400  1
  O  O703  1  0.945000  0.187400  0.292600  1
  O  O704  1  0.555000  0.312600  0.792600  1
  O  O705  1  0.071500  0.899600  0.734800  1
  O  O706  1  0.428500  0.600400  0.234800  1
  O  O707  1  0.928500  0.100400  0.265200  1
  O  O708  1  0.571500  0.399600  0.765200  1
  O  O709  1  0.288300  0.399400  0.630200  1
  O  O710  1  0.211700  0.100600  0.130200  1
  O  O711  1  0.711700  0.600600  0.369800  1
  O  O712  1  0.788300  0.899400  0.869800  1
  O  O713  1  0.269600  0.324500  0.667200  1
  O  O714  1  0.230400  0.175500  0.167200  1
  O  O715  1  0.730400  0.675500  0.332800  1
  O  O716  1  0.769600  0.824500  0.832800  1
  O  O717  1  0.350700  0.433000  0.672100  1
  O  O718  1  0.149300  0.067000  0.172100  1
  O  O719  1  0.649300  0.567000  0.327900  1
  O  O720  1  0.850700  0.933000  0.827900  1
  O  O721  1  0.132000  0.979900  0.548700  1
  O  O722  1  0.368000  0.520100  0.048700  1
  O  O723  1  0.868000  0.020100  0.451300  1
  O  O724  1  0.632000  0.479900  0.951300  1
  O  O725  1  0.149400  0.075000  0.523000  1
  O  O726  1  0.350600  0.425000  0.023000  1
  O  O727  1  0.850600  0.925000  0.477000  1
  O  O728  1  0.649400  0.575000  0.977000  1
  O  O729  1  0.151300  0.076100  0.570500  1
  O  O730  1  0.348700  0.423900  0.070500  1
  O  O731  1  0.848700  0.923900  0.429500  1
  O  O732  1  0.651300  0.576100  0.929500  1
  O  O733  1  0.029200  0.409500  0.483000  1
  O  O734  1  0.470800  0.090500  0.983000  1
  O  O735  1  0.970800  0.590500  0.517000  1
  O  O736  1  0.529200  0.909500  0.017000  1
  O  O737  1  0.918000  0.435200  0.468900  1
  O  O738  1  0.582000  0.064800  0.968900  1
  O  O739  1  0.082000  0.564800  0.531100  1
  O  O740  1  0.418000  0.935200  0.031100  1
  O  O741  1  0.012500  0.443700  0.436600  1
  O  O742  1  0.487500  0.056300  0.936600  1
  O  O743  1  0.987500  0.556300  0.563400  1
  O  O744  1  0.512500  0.943700  0.063400  1
  O  O745  1  0.404600  0.992500  0.814100  1
  O  O746  1  0.095400  0.507500  0.314100  1
  O  O747  1  0.595400  0.007500  0.185900  1
  O  O748  1  0.904600  0.492500  0.685900  1
  O  O749  1  0.504600  0.957400  0.797700  1
  O  O750  1  0.995400  0.542600  0.297700  1
  O  O751  1  0.495400  0.042600  0.202300  1
  O  O752  1  0.004600  0.457400  0.702300  1
  O  O753  1  0.483900  0.987200  0.849000  1
  O  O754  1  0.016100  0.512800  0.349000  1
  O  O755  1  0.516100  0.012800  0.151000  1
  O  O756  1  0.983900  0.487200  0.651000  1
  O  O757  1  0.461300  0.669200  0.529100  1
  O  O758  1  0.038700  0.830800  0.029100  1
  O  O759  1  0.538700  0.330800  0.470900  1
  O  O760  1  0.961300  0.169200  0.970900  1
  O  O761  1  0.383600  0.565700  0.524800  1
  O  O762  1  0.116400  0.934300  0.024800  1
  O  O763  1  0.616400  0.434300  0.475200  1
  O  O764  1  0.883600  0.065700  0.975200  1
  O  O765  1  0.382000  0.644800  0.490700  1
  O  O766  1  0.118000  0.855200  0.990700  1
  O  O767  1  0.618000  0.355200  0.509300  1
  O  O768  1  0.882000  0.144800  0.009300  1
  O  O769  1  0.798900  0.096600  0.495100  1
  O  O770  1  0.701100  0.403400  0.995100  1
  O  O771  1  0.201100  0.903400  0.504900  1
  O  O772  1  0.298900  0.596600  0.004900  1
  O  O773  1  0.762900  0.972000  0.519600  1
  O  O774  1  0.737100  0.528000  0.019600  1
  O  O775  1  0.237100  0.028000  0.480400  1
  O  O776  1  0.262900  0.472000  0.980400  1
  O  O777  1  0.656800  0.051700  0.516700  1
  O  O778  1  0.843200  0.448300  0.016700  1
  O  O779  1  0.343200  0.948300  0.483300  1
  O  O780  1  0.156800  0.551700  0.983300  1
  O  O781  1  0.536600  0.099700  0.498900  1
  O  O782  1  0.963400  0.400300  0.998900  1
  O  O783  1  0.463400  0.900300  0.501100  1
  O  O784  1  0.036600  0.599700  0.001100  1
  O  O785  1  0.518100  0.000400  0.540500  1
  O  O786  1  0.981900  0.499600  0.040500  1
  O  O787  1  0.481900  0.999600  0.459500  1
  O  O788  1  0.018100  0.500400  0.959500  1
  O  O789  1  0.476400  0.210000  0.495700  1
  O  O790  1  0.023600  0.290000  0.995700  1
  O  O791  1  0.523600  0.790000  0.504300  1
  O  O792  1  0.976400  0.710000  0.004300  1
  O  O793  1  0.072100  0.288500  0.792500  1
  O  O794  1  0.427900  0.211500  0.292500  1
  O  O795  1  0.927900  0.711500  0.207500  1
  O  O796  1  0.572100  0.788500  0.707500  1
  O  O797  1  0.172000  0.370600  0.474900  1
  O  O798  1  0.328000  0.129400  0.974900  1
  O  O799  1  0.828000  0.629400  0.525100  1
  O  O800  1  0.672000  0.870600  0.025100  1
  O  O801  1  0.205800  0.218400  0.563400  1
  O  O802  1  0.294200  0.281600  0.063400  1
  O  O803  1  0.794200  0.781600  0.436600  1
  O  O804  1  0.705800  0.718400  0.936600  1
  O  O805  1  0.674400  0.841100  0.529900  1
  O  O806  1  0.825600  0.658900  0.029900  1
  O  O807  1  0.325600  0.158900  0.470100  1
  O  O808  1  0.174400  0.341100  0.970100  1
  O  O809  1  0.312200  0.472700  0.480600  1
  O  O810  1  0.187800  0.027300  0.980600  1
  O  O811  1  0.687800  0.527300  0.519400  1
  O  O812  1  0.812200  0.972700  0.019400  1
  O  O813  1  0.693600  0.556000  0.580900  1
  O  O814  1  0.806400  0.944000  0.080900  1
  O  O815  1  0.306400  0.444000  0.419100  1
  O  O816  1  0.193600  0.056000  0.919100  1
  O  O817  1  0.204900  0.240000  0.623800  1
  O  O818  1  0.295100  0.260000  0.123800  1
  O  O819  1  0.795100  0.760000  0.376200  1
  O  O820  1  0.704900  0.740000  0.876200  1
  O  O821  1  0.062400  0.306000  0.636200  1
  O  O822  1  0.437600  0.194000  0.136200  1
  O  O823  1  0.937600  0.694000  0.363800  1
  O  O824  1  0.562400  0.806000  0.863800  1
  O  O825  1  0.275800  0.253400  0.509300  1
  O  O826  1  0.224200  0.246600  0.009300  1
  O  O827  1  0.724200  0.746600  0.490700  1
  O  O828  1  0.775800  0.753400  0.990700  1
  O  O829  1  0.616100  0.633000  0.507000  1
  O  O830  1  0.883900  0.867000  0.007000  1
  O  O831  1  0.383900  0.367000  0.493000  1
  O  O832  1  0.116100  0.133000  0.993000  1
  O  O833  1  0.291800  0.742700  0.659500  1
  O  O834  1  0.208200  0.757300  0.159500  1
  O  O835  1  0.708200  0.257300  0.340500  1
  O  O836  1  0.791800  0.242700  0.840500  1
  O  O837  1  0.616800  0.938700  0.868200  1
  O  O838  1  0.883200  0.561300  0.368200  1
  O  O839  1  0.383200  0.061300  0.131800  1
  O  O840  1  0.116800  0.438700  0.631800  1
  O  O841  1  0.696000  0.018000  0.820100  1
  O  O842  1  0.804000  0.482000  0.320100  1
  O  O843  1  0.304000  0.982000  0.179900  1
  O  O844  1  0.196000  0.518000  0.679900  1
  O  O845  1  0.093600  0.621300  0.611600  1
  O  O846  1  0.406400  0.878700  0.111600  1
  O  O847  1  0.906400  0.378700  0.388400  1
  O  O848  1  0.593600  0.121300  0.888400  1
  O  O849  1  0.316000  0.530000  0.608900  1
  O  O850  1  0.184000  0.970000  0.108900  1
  O  O851  1  0.684000  0.470000  0.391100  1
  O  O852  1  0.816000  0.030000  0.891100  1
  O  O853  1  0.975500  0.671600  0.690200  1
  O  O854  1  0.524500  0.828400  0.190200  1
  O  O855  1  0.024500  0.328400  0.309800  1
  O  O856  1  0.475500  0.171600  0.809800  1
  O  O857  1  0.231000  0.616000  0.633200  1
  O  O858  1  0.269000  0.884000  0.133200  1
  O  O859  1  0.769000  0.384000  0.366800  1
  O  O860  1  0.731000  0.116000  0.866800  1
  O  O861  1  0.242000  0.685000  0.550700  1
  O  O862  1  0.258000  0.815000  0.050700  1
  O  O863  1  0.758000  0.315000  0.449300  1
  O  O864  1  0.742000  0.185000  0.949300  1
  O  O865  1  0.171700  0.717400  0.970100  1
  O  O866  1  0.328300  0.782600  0.470100  1
  O  O867  1  0.828300  0.282600  0.029900  1
  O  O868  1  0.671700  0.217400  0.529900  1
  O  O869  1  0.257500  0.002400  0.670500  1
  O  O870  1  0.242500  0.497600  0.170500  1
  O  O871  1  0.742500  0.997600  0.329500  1
  O  O872  1  0.757500  0.502400  0.829500  1
  O  O873  1  0.253000  0.760000  0.567000  1
  O  O874  1  0.247000  0.740000  0.067000  1
  O  O875  1  0.747000  0.240000  0.433000  1
  O  O876  1  0.753000  0.260000  0.933000  1
