
#######################################################################
#
#                 Cambridge Crystallographic Data Centre
#                                CCDC 
#
#######################################################################
#
# If this CIF has been generated from an entry in the Cambridge 
# Structural Database, then it will include bibliographic, chemical, 
# crystal, experimental, refinement or atomic coordinate data resulting 
# from the CCDC's data processing and validation procedures.
#
#######################################################################

data_MOQMOU
_chemical_formula_moiety         
'C84 H96 N36 Pd6 12+,12(N1 O3 1-),C20 H18 O5 Si2,20(H2 O1)'
_chemical_name_systematic        
'tetrakis(\m~3~-2,4,6-tris(3-Pyridyl)-1,3,5-triazine)-hexakis(ethylene-1,2-diamine)-hexa-palladium dodecanitrate 1,1,3,3-tetrahydroxy-1,3-bis(2-naphthyl)disiloxane clathrate icosahydrate'
_symmetry_cell_setting           monoclinic
_symmetry_space_group_name_H-M   'P 21/n'
_symmetry_Int_Tables_number      14
_space_group_name_Hall           '-P 2yn'
loop_
_symmetry_equiv_pos_site_id
_symmetry_equiv_pos_as_xyz
1 x,y,z
2 1/2-x,1/2+y,1/2-z
3 -x,-y,-z
4 1/2+x,1/2-y,1/2+z
_cell_length_a                   17.124(3)
_cell_length_b                   44.546(8)
_cell_length_c                   20.284(4)
_cell_angle_alpha                90
_cell_angle_beta                 101.217(3)
_cell_angle_gamma                90
_cell_volume                     15177.2
_exptl_crystal_colour            'pale yellow'
_chemical_melting_point          'above 300deg.C'
_cell_formula_units_Z            4
loop_
_atom_site_label
_atom_site_type_symbol
_atom_site_fract_x
_atom_site_fract_y
_atom_site_fract_z
Pd1 Pd -0.3881(1) 0.2614(1) -0.0793(1)
Pd2 Pd -0.8652(1) 0.3799(1) 0.2694(1)
Pd3 Pd -0.2873(1) 0.3938(1) 0.0697(1)
Pd4 Pd -1.0587(1) 0.2857(1) -0.2564(1)
Pd5 Pd -0.5134(1) 0.3776(1) -0.5760(1)
Pd6 Pd -1.0641(1) 0.4446(1) -0.3674(1)
N2 N -0.4938(9) 0.4050(3) -0.4949(8)
N3 N -0.9572(10) 0.4347(4) -0.3924(8)
N4 N -0.8423(8) 0.3485(3) 0.2027(7)
N5 N -1.0153(10) 0.4558(4) -0.2737(8)
N7 N -0.9429(9) 0.2844(3) -0.2629(7)
N8 N -0.3282(8) 0.4167(3) -0.0160(7)
N9 N -0.8913(8) 0.4113(3) 0.1949(7)
N10 N -0.3942(8) 0.3986(3) 0.0992(7)
N11 N -0.5031(8) 0.2638(3) -0.0693(7)
N13 N -1.0354(9) 0.3026(3) -0.1608(7)
N14 N -0.4124(8) 0.2768(3) -0.1745(7)
N15 N -0.5632(9) 0.3470(3) -0.5224(7)
N17 N -0.7433(9) 0.3186(3) -0.3807(7)
N18 N -0.6773(8) 0.3066(3) 0.0622(7)
N19 N -0.9790(8) 0.3829(3) -0.0022(7)
N20 N -0.4129(9) 0.4133(3) -0.2574(7)
N22 N -0.3961(8) 0.3685(3) -0.1920(7)
N23 N -0.8419(9) 0.3526(3) -0.3587(7)
N24 N -0.6432(9) 0.3518(3) 0.1187(8)
N25 N -1.0028(8) 0.3935(3) -0.1197(7)
N27 N -0.4358(9) 0.3657(3) -0.3097(7)
N28 N -0.5600(8) 0.3323(3) 0.0493(7)
N29 N -0.7520(9) 0.3676(3) -0.4246(7)
N30 N -0.9681(9) 0.4325(3) -0.0424(7)
N36 N -0.3533(9) 0.2474(3) 0.0191(8)
N37 N -0.2702(8) 0.2601(3) -0.0830(7)
N38 N -0.8839(10) 0.4070(4) 0.3455(9)
N39 N -0.8390(11) 0.3495(4) 0.3424(10)
N40 N -0.2356(10) 0.3708(4) 0.1528(9)
N41 N -0.1820(9) 0.3866(3) 0.0398(8)
N42 N -1.0893(9) 0.2682(3) -0.3528(8)
N43 N -1.1765(8) 0.2828(3) -0.2574(7)
N44 N -0.5271(10) 0.3496(4) -0.6582(9)
N45 N -0.4604(11) 0.4048(4) -0.6324(9)
N46 N -1.1271(12) 0.4341(5) -0.4622(11)
N47 N -1.1713(10) 0.4562(4) -0.3465(9)
C1 C -0.9002(11) 0.3270(4) 0.1826(9)
C2 C -0.9933(12) 0.4856(5) -0.2576(10)
C3 C -0.5062(13) 0.4348(5) -0.5002(11)
C4 C -0.9193(13) 0.4589(5) -0.4128(11)
C5 C -0.8408(12) 0.4555(5) -0.4267(10)
C6 C -0.8883(10) 0.3043(4) 0.1369(9)
C7 C -0.4965(12) 0.4533(5) -0.4440(10)
C8 C -0.9686(14) 0.4951(5) -0.1919(12)
C9 C -0.8184(11) 0.3048(4) 0.1130(9)
C10 C -0.9695(12) 0.4757(4) -0.1411(10)
C11 C -0.8098(13) 0.4265(5) -0.4249(11)
C12 C -0.4678(12) 0.4420(5) -0.3801(10)
C13 C -0.7613(10) 0.3268(4) 0.1343(9)
C14 C -0.9911(12) 0.4445(5) -0.1560(10)
C15 C -0.4562(10) 0.4110(4) -0.3748(9)
C16 C -0.8476(10) 0.4034(4) -0.4015(9)
C17 C -1.0099(12) 0.4363(5) -0.2216(10)
C18 C -0.4649(12) 0.3933(4) -0.4339(10)
C19 C -0.7743(10) 0.3489(4) 0.1790(9)
C20 C -0.9244(12) 0.4071(4) -0.3874(10)
C21 C -0.6894(11) 0.3292(4) 0.1018(9)
C22 C -0.4329(12) 0.3962(4) -0.3101(10)
C23 C -0.8114(10) 0.3730(4) -0.3954(9)
C24 C -0.9881(10) 0.4217(4) -0.1045(9)
C25 C -0.3344(11) 0.4467(4) -0.0180(9)
C26 C -0.8699(11) 0.4402(4) 0.2076(10)
C27 C -0.8989(12) 0.2608(4) -0.2370(10)
C28 C -0.4119(11) 0.4245(4) 0.1292(9)
C29 C -0.8215(12) 0.2568(5) -0.2488(10)
C30 C -0.4860(12) 0.4278(4) 0.1481(10)
C31 C -0.8848(13) 0.4622(5) 0.1559(11)
C32 C -0.3577(12) 0.4626(5) -0.0756(10)
C33 C -0.7907(11) 0.2781(4) -0.2857(9)
C34 C -0.5416(13) 0.4049(5) 0.1365(11)
C35 C -0.3783(11) 0.4472(4) -0.1359(9)
C36 C -0.9141(12) 0.4536(4) 0.0936(10)
C37 C -0.8364(10) 0.3017(4) -0.3120(9)
C38 C -0.9338(10) 0.4234(4) 0.0793(9)
C39 C -0.5199(10) 0.3784(4) 0.1068(8)
C40 C -0.3751(11) 0.4164(4) -0.1354(9)
C41 C -0.9225(10) 0.4040(4) 0.1306(9)
C42 C -0.3470(10) 0.4010(4) -0.0752(9)
C43 C -0.4494(11) 0.3765(4) 0.0884(9)
C44 C -0.9125(11) 0.3059(4) -0.2987(9)
C45 C -0.2646(13) 0.2520(5) 0.0397(11)
C46 C -0.3953(11) 0.3987(4) -0.1990(9)
C47 C -0.8050(10) 0.3264(4) -0.3514(9)
C48 C -0.5746(10) 0.3519(4) 0.0907(8)
C49 C -0.9639(11) 0.4126(4) 0.0080(9)
C50 C -0.2276(13) 0.2436(5) -0.0207(11)
C51 C -0.4242(10) 0.2602(3) -0.2318(8)
C52 C -0.5260(11) 0.3204(4) -0.5115(9)
C53 C -0.5608(12) 0.2448(4) -0.1017(10)
C54 C -1.0311(11) 0.2813(4) -0.1106(9)
C55 C -0.6383(12) 0.2463(4) -0.0918(10)
C56 C -1.0173(10) 0.2911(4) -0.0431(9)
C57 C -0.4305(11) 0.2711(4) -0.2940(9)
C58 C -0.5466(11) 0.2991(4) -0.4663(9)
C59 C -0.4289(11) 0.3019(4) -0.3007(9)
C60 C -0.6594(11) 0.2672(4) -0.0452(10)
C61 C -0.6089(12) 0.3067(4) -0.4342(10)
C62 C -1.0057(11) 0.3203(4) -0.0280(9)
C63 C -0.5976(10) 0.2857(4) -0.0114(9)
C64 C -0.6476(10) 0.3329(4) -0.4487(8)
C65 C -0.4184(10) 0.3204(4) -0.2443(8)
C66 C -1.0075(10) 0.3430(4) -0.0810(9)
C67 C -0.5224(10) 0.2839(4) -0.0262(8)
C68 C -0.4115(11) 0.3076(4) -0.1834(9)
C69 C -0.6236(11) 0.3537(4) -0.4908(9)
C70 C -1.0247(10) 0.3317(4) -0.1453(9)
C71 C -0.4141(10) 0.3539(4) -0.2489(8)
C72 C -0.6128(11) 0.3092(4) 0.0381(9)
C73 C -0.9992(11) 0.3744(4) -0.0666(9)
C74 C -0.7179(10) 0.3398(4) -0.4162(9)
C75 C -0.8228(15) 0.3639(6) 0.4099(13)
C76 C -0.8831(4) 0.3862(5) 0.4068(12)
C77 C -0.1744(13) 0.3506(5) 0.1337(11)
C78 C -0.1262(15) 0.3690(5) 0.0916(12)
C79 C -1.1752(12) 0.2718(5) -0.3760(10)
C80 C -1.2138(12) 0.2640(5) -0.3169(11)
C81 C -0.5027(14) 0.3665(5) -0.7131(11)
C82 C -0.4369(15) 0.3871(5) -0.6870(12)
C83 C -1.2125(17) 0.4477(6) -0.4691(14)
C84 C -1.2365(16) 0.4426(6) -0.3979(14)
N1 N -0.0672(13) 0.4236(5) 0.2369(11)
O2 O -0.0758(12) 0.3952(5) 0.2470(10)
O4 O -0.0845(13) 0.4336(5) 0.1728(11)
O6 O -0.0325(10) 0.4392(4) 0.2786(9)
N6 N -0.2149(10) 0.3344(4) -0.1004(8)
O8 O -0.2248(10) 0.3235(4) -0.0461(8)
O10 O -0.1980(8) 0.3611(3) -0.1013(7)
O12 O -0.2204(8) 0.3177(3) -0.1492(7)
N12 N -0.6960(10) 0.2935(4) -0.6761(8)
O14 O -0.6392(10) 0.2751(3) -0.6670(8)
O16 O -0.6852(9) 0.3215(3) -0.6732(7)
O18 O -0.7682(10) 0.2852(3) -0.6878(8)
N16 N -0.4085(11) 0.2957(4) 0.1409(9)
O20 O -0.3566(13) 0.3058(5) 0.1133(10)
O22 O -0.4279(12) 0.3111(4) 0.1878(10)
O24 O -0.4480(9) 0.2742(3) 0.1209(8)
N21 N -0.6694(14) 0.4157(5) 0.2732(12)
O26 O -0.6110(15) 0.4349(5) 0.2922(12)
O28 O -0.6806(12) 0.3963(4) 0.3150(10)
O30 O -0.6996(10) 0.4168(4) 0.2136(8)
N26 N -1.0840(10) 0.2713(4) 0.1560(9)
O32 O -1.1267(12) 0.2541(4) 0.1825(10)
O34 O -1.0550(9) 0.2926(3) 0.1874(8)
O36 O -1.0715(9) 0.2652(3) 0.1004(7)
N31 N -1.3080(20) 0.3420(7) -0.3893(17)
O38 O -1.2883(17) 0.3698(7) -0.3994(15)
O40 O -1.2696(14) 0.3328(5) -0.3245(12)
O41 O -1.3507(12) 0.3279(4) -0.4330(10)
N32 N -1.1452(11) 0.4527(4) -0.0437(10)
O42 O -1.1320(9) 0.4513(3) 0.0201(8)
O43 O -1.1494(11) 0.4770(4) -0.0750(9)
O44 O -1.1513(10) 0.4295(4) -0.0761(8)
N33 N -0.9862(13) 0.5372(5) -0.4291(10)
O45 O -1.0292(11) 0.5170(4) -0.4095(9)
O46 O -0.9180(11) 0.5311(4) -0.4352(9)
O47 O -1.0125(10) 0.5634(4) -0.4437(9)
N34 N -0.4703(15) 0.1806(6) 0.0231(12)
O48 O -0.4046(12) 0.1859(4) 0.0075(10)
O49 O -0.5046(17) 0.2023(7) 0.0426(14)
O50 O -0.4839(16) 0.1510(6) 0.0128(14)
N35 N -0.4050(20) 0.4840(9) -0.6250(20)
O51 O -0.4613(19) 0.4709(7) -0.6692(15)
O52 O -0.3836(16) 0.4752(6) -0.5657(14)
O53 O -0.3820(19) 0.5093(7) -0.6448(16)
Si1 Si -0.5751(4) 0.4720(2) -0.0694(3)
Si2 Si -0.7491(4) 0.4788(2) -0.0513(4)
O56 O -0.7989(14) 0.5049(5) -0.0966(12)
O57 O -0.7629(11) 0.4804(4) 0.0280(9)
O58 O -0.6568(11) 0.4833(4) -0.0517(9)
O59 O -0.5366(9) 0.5011(3) -0.0997(8)
O60 O -0.5181(11) 0.4595(4) -0.0004(10)
C85 C -0.7786(16) 0.4429(6) -0.0907(14)
C86 C -0.7781(18) 0.4170(7) -0.0484(15)
C87 C -0.7939(14) 0.3872(5) -0.0764(12)
C88 C -0.7947(13) 0.3633(5) -0.0364(11)
C89 C -0.8065(17) 0.3350(6) -0.0606(14)
C90 C -0.8209(16) 0.3311(6) -0.1354(13)
C91 C -0.8199(15) 0.3548(6) -0.1768(12)
C92 C -0.8039(14) 0.3840(5) -0.1472(12)
C93 C -0.8041(15) 0.4099(6) -0.1888(13)
C94 C -0.7896(15) 0.4385(6) -0.1599(13)
C95 C -0.5873(14) 0.4402(5) -0.1282(12)
C96 C -0.5830(15) 0.4110(5) -0.1042(12)
C97 C -0.5896(13) 0.3867(5) -0.1509(11)
C98 C -0.5902(15) 0.3559(5) -0.1290(12)
C99 C -0.5991(13) 0.3328(5) -0.1722(11)
C100 C -0.6100(14) 0.3380(5) -0.2406(12)
C101 C -0.6151(13) 0.3669(5) -0.2647(11)
C102 C -0.6075(13) 0.3911(5) -0.2225(11)
C103 C -0.6093(15) 0.4203(6) -0.2463(13)
C104 C -0.5990(16) 0.4452(6) -0.2003(14)
O3 O -0.4764(10) 0.5043(3) -0.2100(8)
O5 O -1.0721(9) 0.2075(3) -0.2885(7)
O7 O -1.1720(10) 0.5251(4) -0.3706(8)
O9 O -1.2058(11) 0.4366(4) -0.2184(9)
O11 O -0.6744(11) 0.4701(4) 0.1589(9)
O13 O -1.3122(12) 0.5194(4) -0.4727(10)
O15 O -0.6936(13) 0.4191(5) 0.4440(10)
O17 O -1.2049(14) 0.3762(5) -0.2400(12)
O19 O -1.0624(13) 0.3638(5) -0.3060(11)
O21 O -1.2758(15) 0.4907(6) -0.2534(13)
O23 O -0.6161(13) 0.4930(5) 0.3670(11)
O27 O -0.2918(14) 0.3405(5) 0.2573(11)
O29 O -0.6168(17) 0.1318(6) 0.0613(14)
O31 O -0.6960(18) 0.1799(6) -0.0180(15)
O33 O -1.0936(18) 0.3884(7) 0.3787(15)
O35 O -1.3160(19) 0.3911(7) -0.5300(15)
O37 O -0.9755(19) 0.3098(7) 0.3284(16)
O39 O -1.2310(30) 0.3668(11) 0.3840(20)
O55 O -0.2420(50) 0.4493(19) 0.3150(40)
loop_
_geom_bond_atom_site_label_1
_geom_bond_atom_site_label_2
_geom_bond_site_symmetry_1
_geom_bond_site_symmetry_2
Pd1 N11 1_555 1_555
Pd2 N4 1_555 1_555
Pd3 N8 1_555 1_555
Pd4 N7 1_555 1_555
Pd5 N2 1_555 1_555
Pd6 N3 1_555 1_555
N1 O2 1_555 1_555
N2 C3 1_555 1_555
N3 C4 1_555 1_555
N4 C1 1_555 1_555
N5 Pd6 1_555 1_555
N6 O8 1_555 1_555
N7 C27 1_555 1_555
N8 C25 1_555 1_555
N9 Pd2 1_555 1_555
N10 Pd3 1_555 1_555
N11 C53 1_555 1_555
N12 O14 1_555 1_555
N13 Pd4 1_555 1_555
N14 Pd1 1_555 1_555
N15 Pd5 1_555 1_555
N16 O20 1_555 1_555
N17 C47 1_555 1_555
N18 C21 1_555 1_555
N19 C49 1_555 1_555
N20 C22 1_555 1_555
N21 O26 1_555 1_555
N22 C46 1_555 1_555
N23 C23 1_555 1_555
N24 C21 1_555 1_555
N25 C24 1_555 1_555
N26 O32 1_555 1_555
N27 C22 1_555 1_555
N28 C48 1_555 1_555
N29 C23 1_555 1_555
N30 C24 1_555 1_555
N31 O38 1_555 1_555
N32 O42 1_555 1_555
N33 O45 1_555 1_555
N34 O48 1_555 1_555
N35 O51 1_555 1_555
N36 Pd1 1_555 1_555
N37 Pd1 1_555 1_555
N38 Pd2 1_555 1_555
N39 Pd2 1_555 1_555
N40 Pd3 1_555 1_555
N41 Pd3 1_555 1_555
N42 Pd4 1_555 1_555
N43 Pd4 1_555 1_555
N44 Pd5 1_555 1_555
N45 Pd5 1_555 1_555
N46 Pd6 1_555 1_555
N47 Pd6 1_555 1_555
Si1 O58 1_555 1_555
Si2 O56 1_555 1_555
O4 N1 1_555 1_555
O6 N1 1_555 1_555
O10 N6 1_555 1_555
O12 N6 1_555 1_555
O16 N12 1_555 1_555
O18 N12 1_555 1_555
O22 N16 1_555 1_555
O24 N16 1_555 1_555
O28 N21 1_555 1_555
O30 N21 1_555 1_555
O34 N26 1_555 1_555
O36 N26 1_555 1_555
O40 N31 1_555 1_555
O41 N31 1_555 1_555
O43 N32 1_555 1_555
O44 N32 1_555 1_555
O46 N33 1_555 1_555
O47 N33 1_555 1_555
O49 N34 1_555 1_555
O50 N34 1_555 1_555
O52 N35 1_555 1_555
O53 N35 1_555 1_555
O57 Si2 1_555 1_555
O58 Si2 1_555 1_555
O59 Si1 1_555 1_555
O60 Si1 1_555 1_555
C1 C6 1_555 1_555
C2 N5 1_555 1_555
C3 C7 1_555 1_555
C4 C5 1_555 1_555
C5 C11 1_555 1_555
C6 C9 1_555 1_555
C7 C12 1_555 1_555
C8 C2 1_555 1_555
C9 C13 1_555 1_555
C10 C8 1_555 1_555
C11 C16 1_555 1_555
C12 C15 1_555 1_555
C13 C19 1_555 1_555
C14 C10 1_555 1_555
C15 C18 1_555 1_555
C16 C20 1_555 1_555
C17 N5 1_555 1_555
C18 N2 1_555 1_555
C19 N4 1_555 1_555
C20 N3 1_555 1_555
C21 C13 1_555 1_555
C22 C15 1_555 1_555
C23 C16 1_555 1_555
C24 C14 1_555 1_555
C25 C32 1_555 1_555
C26 N9 1_555 1_555
C27 C29 1_555 1_555
C28 N10 1_555 1_555
C29 C33 1_555 1_555
C30 C28 1_555 1_555
C31 C26 1_555 1_555
C32 C35 1_555 1_555
C33 C37 1_555 1_555
C34 C30 1_555 1_555
C35 C40 1_555 1_555
C36 C31 1_555 1_555
C37 C44 1_555 1_555
C38 C36 1_555 1_555
C39 C34 1_555 1_555
C40 C42 1_555 1_555
C41 N9 1_555 1_555
C42 N8 1_555 1_555
C43 N10 1_555 1_555
C44 N7 1_555 1_555
C45 N36 1_555 1_555
C46 N20 1_555 1_555
C47 N23 1_555 1_555
C48 N24 1_555 1_555
C49 N30 1_555 1_555
C50 N37 1_555 1_555
C51 N14 1_555 1_555
C52 N15 1_555 1_555
C53 C55 1_555 1_555
C54 N13 1_555 1_555
C55 C60 1_555 1_555
C56 C54 1_555 1_555
C57 C51 1_555 1_555
C58 C52 1_555 1_555
C59 C57 1_555 1_555
C60 C63 1_555 1_555
C61 C58 1_555 1_555
C62 C56 1_555 1_555
C63 C67 1_555 1_555
C64 C61 1_555 1_555
C65 C59 1_555 1_555
C66 C62 1_555 1_555
C67 N11 1_555 1_555
C68 N14 1_555 1_555
C69 N15 1_555 1_555
C70 N13 1_555 1_555
C71 N22 1_555 1_555
C72 N18 1_555 1_555
C73 N19 1_555 1_555
C74 N17 1_555 1_555
C75 N39 1_555 1_555
C76 N38 1_555 1_555
C77 N40 1_555 1_555
C78 N41 1_555 1_555
C79 N42 1_555 1_555
C80 N43 1_555 1_555
C81 N44 1_555 1_555
C82 N45 1_555 1_555
C83 N46 1_555 1_555
C84 N47 1_555 1_555
C85 Si2 1_555 1_555
C86 C85 1_555 1_555
C87 C86 1_555 1_555
C88 C87 1_555 1_555
C89 C88 1_555 1_555
C90 C89 1_555 1_555
C91 C90 1_555 1_555
C92 C87 1_555 1_555
C93 C92 1_555 1_555
C94 C85 1_555 1_555
C95 Si1 1_555 1_555
C96 C95 1_555 1_555
C97 C96 1_555 1_555
C98 C97 1_555 1_555
C99 C98 1_555 1_555
C100 C99 1_555 1_555
C101 C100 1_555 1_555
C102 C97 1_555 1_555
C103 C102 1_555 1_555
C104 C95 1_555 1_555
N25 C73 1_555 1_555
N27 C71 1_555 1_555
N28 C72 1_555 1_555
N29 C74 1_555 1_555
C14 C17 1_555 1_555
C37 C47 1_555 1_555
C38 C49 1_555 1_555
C38 C41 1_555 1_555
C39 C48 1_555 1_555
C39 C43 1_555 1_555
C40 C46 1_555 1_555
C45 C50 1_555 1_555
C63 C72 1_555 1_555
C64 C69 1_555 1_555
C64 C74 1_555 1_555
C65 C71 1_555 1_555
C65 C68 1_555 1_555
C66 C73 1_555 1_555
C66 C70 1_555 1_555
C75 C76 1_555 1_555
C77 C78 1_555 1_555
C79 C80 1_555 1_555
C81 C82 1_555 1_555
C83 C84 1_555 1_555
C91 C92 1_555 1_555
C93 C94 1_555 1_555
C101 C102 1_555 1_555
C103 C104 1_555 1_555

#END
