
#######################################################################
#
#                 Cambridge Crystallographic Data Centre
#                                CCDC 
#
#######################################################################
#
# If this CIF has been generated from an entry in the Cambridge 
# Structural Database, then it will include bibliographic, chemical, 
# crystal, experimental, refinement or atomic coordinate data resulting 
# from the CCDC's data processing and validation procedures.
#
#######################################################################

data_MOQMIO
_chemical_formula_moiety         
'C72 H92 N24 Pd6 12+,C10 H10 O3 Si1,12(N1 O3 1-),22(H2 O1)'
_chemical_name_systematic        
"tetrakis(\m~3~-3,5-bis(3-Pyridyl)pyridine-N,N',N'')-hexakis(ethylene-1,2-diamine)-hexa-palladium 2-(trihydroxysilyl)naphthalene clathrate dodecanitrate hydrate"
_symmetry_cell_setting           triclinic
_symmetry_space_group_name_H-M   'P -1'
_symmetry_Int_Tables_number      2
_space_group_name_Hall           '-P 1'
loop_
_symmetry_equiv_pos_site_id
_symmetry_equiv_pos_as_xyz
1 x,y,z
2 -x,-y,-z
_cell_length_a                   17.4526(12)
_cell_length_b                   17.9866(12)
_cell_length_c                   23.8334(16)
_cell_angle_alpha                93.6500(10)
_cell_angle_beta                 97.5560(10)
_cell_angle_gamma                101.6860(10)
_cell_volume                     7231.43
_exptl_crystal_colour            'pale yellow'
_chemical_melting_point          'above 300deg.C'
_cell_formula_units_Z            2
loop_
_atom_site_label
_atom_site_type_symbol
_atom_site_fract_x
_atom_site_fract_y
_atom_site_fract_z
Pd1 Pd -0.0543(1) 0.2499(1) 0.0423(1)
Pd2 Pd 0.0754(1) -0.1165(1) 0.2869(1)
Pd3 Pd -0.0013(1) 0.3780(1) 0.3626(1)
Pd4 Pd -0.4514(1) -0.3746(1) 0.1569(1)
Pd5 Pd -0.5183(1) 0.1338(1) 0.2176(1)
Pd6 Pd -0.3775(1) -0.2164(1) 0.4715(1)
C1 C -0.0713(6) 0.0826(6) 0.0236(4)
C2 C -0.2238(7) 0.2163(7) -0.0087(4)
C3 C -0.4454(6) -0.2528(7) 0.0791(5)
C4 C -0.3011(7) -0.4013(6) 0.1214(5)
C5 C -0.0707(5) 0.0096(6) 0.0364(4)
C6 C -0.4435(6) -0.1794(8) 0.0647(5)
C7 C -0.3061(7) 0.2003(7) -0.0095(5)
C8 C -0.2210(8) -0.3940(6) 0.1235(4)
C9 C -0.0545(6) -0.0040(6) 0.0929(4)
C10 C -0.3356(6) 0.2079(6) 0.0401(4)
C11 C -0.4401(6) -0.1221(7) 0.1055(5)
C12 C -0.1715(7) -0.3520(6) 0.1691(5)
C13 C -0.4374(6) -0.1337(6) 0.1626(4)
C14 C -0.0408(5) 0.0570(6) 0.1357(4)
C15 C -0.2841(6) 0.2285(5) 0.0914(4)
C16 C -0.2021(7) -0.3155(6) 0.2114(4)
C17 C -0.0428(5) 0.1295(6) 0.1192(4)
C18 C -0.2040(6) 0.2394(5) 0.0890(4)
C19 C -0.4396(6) -0.2109(6) 0.1740(4)
C20 C -0.2834(7) -0.3233(6) 0.2053(4)
C21 C 0.0068(5) -0.0147(5) 0.2143(4)
C22 C -0.0784(7) -0.2261(6) 0.2563(5)
C23 C -0.3855(6) 0.1942(6) 0.1562(4)
C24 C -0.4632(6) -0.0090(6) 0.1967(5)
C25 C -0.0249(6) 0.0462(6) 0.1973(4)
C26 C -0.3117(5) 0.2365(5) 0.1471(4)
C27 C -0.4352(6) -0.0749(6) 0.2085(4)
C28 C -0.1507(7) -0.2682(6) 0.2622(4)
C29 C -0.0410(5) 0.0944(5) 0.2396(4)
C30 C -0.2668(6) 0.2840(6) 0.1937(5)
C31 C -0.1755(7) -0.2635(6) 0.3145(4)
C32 C -0.4087(6) -0.0818(6) 0.2651(4)
C33 C -0.0249(5) 0.0829(6) 0.2960(4)
C34 C -0.1283(6) -0.2156(6) 0.3592(4)
C35 C -0.2931(6) 0.2885(6) 0.2454(4)
C36 C -0.4110(6) -0.0245(6) 0.3074(4)
C37 C -0.0561(6) -0.1756(6) 0.3499(4)
C38 C 0.0066(5) 0.0200(6) 0.3092(4)
C39 C -0.3667(6) 0.2454(6) 0.2501(4)
C40 C -0.4398(6) 0.0377(6) 0.2920(4)
C41 C -0.0226(6) 0.2128(6) 0.3364(4)
C42 C -0.2331(6) -0.2154(6) 0.4208(4)
C43 C -0.3908(6) -0.1020(7) 0.3906(4)
C44 C -0.1643(6) 0.3433(6) 0.3051(4)
C45 C 0.0408(7) 0.3987(8) 0.0380(7)
C46 C -0.0395(6) 0.1359(6) 0.3421(4)
C47 C -0.1534(6) -0.2095(6) 0.4168(4)
C48 C -0.2440(6) 0.3376(6) 0.2956(4)
C49 C -0.3813(6) -0.0318(6) 0.3680(4)
C50 C 0.0925(8) 0.3457(7) 0.0252(7)
C51 C -0.3404(8) 0.0325(7) 0.4050(5)
C52 C -0.0721(6) 0.1119(6) 0.3893(4)
C53 C -0.2786(8) 0.3766(6) 0.3344(5)
C54 C -0.0998(6) -0.1962(7) 0.4684(5)
C55 C -0.2291(10) 0.4184(7) 0.3807(5)
C56 C -0.3094(9) 0.0234(8) 0.4584(5)
C57 C -0.0852(6) 0.1645(6) 0.4297(4)
C58 C -0.1270(6) -0.1901(7) 0.5190(4)
C59 C -0.3246(8) -0.0495(7) 0.4776(5)
C60 C -0.1492(8) 0.4218(7) 0.3876(5)
C61 C -0.0653(7) 0.2419(7) 0.4207(5)
C62 C -0.2085(6) -0.1978(6) 0.5204(5)
C63 C 0.2465(8) -0.0993(8) 0.2978(6)
C64 C 0.2118(7) -0.1828(8) 0.2814(7)
C65 C 0.1597(10) 0.4488(11) 0.3578(11)
C66 C 0.1201(13) 0.5052(11) 0.3475(14)
C67 C -0.6097(14) -0.4665(12) 0.1573(11)
C68 C -0.5586(13) -0.4992(9) 0.1894(8)
C69 C -0.6882(7) 0.1137(10) 0.2016(6)
C70 C -0.6576(7) 0.1949(9) 0.2197(6)
C71 C -0.4750(9) -0.3385(12) 0.5160(9)
C72 C -0.5301(9) -0.3090(9) 0.4784(8)
N1 N -0.1730(5) 0.2335(5) 0.0396(4)
N2 N -0.0569(5) 0.1425(5) 0.0641(3)
N3 N -0.3328(6) -0.3665(5) 0.1611(4)
N4 N -0.4438(5) -0.2676(5) 0.1350(4)
N5 N 0.0222(5) -0.0283(5) 0.2692(3)
N6 N -0.0312(5) -0.1808(5) 0.2992(4)
N7 N -0.4119(5) 0.2003(5) 0.2057(3)
N8 N -0.4662(5) 0.0452(5) 0.2371(4)
N9 N -0.2609(5) -0.2092(5) 0.4713(4)
N10 N -0.0338(5) 0.2657(5) 0.3754(4)
N11 N -0.3647(5) -0.1108(5) 0.4443(4)
N12 N -0.1172(6) 0.3832(5) 0.3510(4)
N13 N -0.0416(5) 0.3583(6) 0.0201(5)
N14 N 0.0650(5) 0.2709(5) 0.0474(4)
N15 N 0.1832(5) -0.0560(6) 0.2752(4)
N16 N 0.1339(6) -0.2015(6) 0.3008(4)
N17 N 0.1145(6) 0.3749(6) 0.3720(5)
N18 N 0.0357(8) 0.4879(6) 0.3487(6)
N19 N -0.5723(7) -0.3855(7) 0.1544(6)
N20 N -0.4715(9) -0.4812(6) 0.1771(6)
N21 N -0.6270(5) 0.0702(6) 0.2251(4)
N22 N -0.5772(5) 0.2175(6) 0.2034(4)
N23 N -0.3942(6) -0.3208(6) 0.4998(5)
N24 N -0.4954(6) -0.2282(8) 0.4711(5)
H1 H -0.0820 0.0916 -0.0144
H2 H -0.2040 0.2148 -0.0430
H3 H -0.4478 -0.2920 0.0512
H4 H -0.3346 -0.4315 0.0913
H5 H -0.0809 -0.0302 0.0077
H6 H -0.4446 -0.1692 0.0268
H7 H -0.3400 0.1848 -0.0436
H8 H -0.2006 -0.4171 0.0946
H9 H -0.0528 -0.0530 0.1025
H10 H -0.3900 0.1993 0.0399
H11 H -0.4395 -0.0732 0.0947
H12 H -0.1172 -0.3479 0.1717
H13 H -0.0342 0.1701 0.1471
H14 H -0.1692 0.2514 0.1229
H15 H -0.4380 -0.2221 0.2116
H16 H -0.3049 -0.2979 0.2324
H17 H 0.0180 -0.0479 0.1866
H18 H -0.0612 -0.2291 0.2210
H19 H -0.4167 0.1609 0.1266
H20 H -0.4805 -0.0026 0.1590
H21 H -0.0633 0.1354 0.2297
H22 H -0.2178 0.3134 0.1895
H23 H -0.2240 -0.2925 0.3200
H24 H -0.3894 -0.1244 0.2750
H25 H -0.0234 -0.1440 0.3797
H26 H 0.0171 0.0111 0.3472
H27 H -0.3855 0.2475 0.2848
H28 H -0.4414 0.0758 0.3199
H29 H -0.0024 0.2292 0.3041
H30 H -0.2692 -0.2240 0.3875
H31 H -0.4167 -0.1452 0.3668
H32 H -0.1412 0.3185 0.2785
H33 H 0.0495 0.4146 0.0784
H34 H 0.0525 0.4438 0.0177
H35 H 0.1466 0.3676 0.0425
H36 H 0.0916 0.3384 -0.0156
H37 H -0.3349 0.0811 0.3926
H38 H -0.0853 0.0601 0.3939
H39 H -0.3328 0.3745 0.3294
H40 H -0.0459 -0.1915 0.4676
H41 H -0.2503 0.4447 0.4075
H42 H -0.2784 0.0647 0.4820
H43 H -0.1065 0.1491 0.4620
H44 H -0.0917 -0.1810 0.5527
H45 H -0.3059 -0.0551 0.5152
H46 H -0.1169 0.4517 0.4185
H47 H -0.0745 0.2779 0.4473
H48 H -0.2269 -0.1951 0.5552
H49 H 0.2943 -0.0834 0.2811
H50 H 0.2596 -0.0893 0.3388
H51 H 0.2059 -0.1938 0.2405
H52 H 0.2464 -0.2133 0.2991
H53 H 0.2023 0.4680 0.3890
H54 H 0.1839 0.4387 0.3245
H55 H 0.1288 0.5214 0.3103
H56 H 0.1438 0.5483 0.3751
H57 H -0.6580 -0.4700 0.1740
H58 H -0.6231 -0.4928 0.1194
H59 H -0.5780 -0.5540 0.1840
H60 H -0.5586 -0.4832 0.2290
H61 H -0.6978 0.1056 0.1604
H62 H -0.7377 0.0960 0.2157
H63 H -0.6549 0.2040 0.2605
H64 H -0.6924 0.2248 0.2015
H65 H -0.4927 -0.3933 0.5151
H66 H -0.4732 -0.3166 0.5545
H67 H -0.5792 -0.3121 0.4940
H68 H -0.5418 -0.3389 0.4418
H69 H -0.0542 0.3578 -0.0178
H70 H -0.0742 0.3823 0.0369
H71 H 0.0873 0.2720 0.0838
H72 H 0.0794 0.2337 0.0268
H73 H 0.1842 -0.0506 0.2380
H74 H 0.1928 -0.0092 0.2939
H75 H 0.1404 -0.2080 0.3381
H76 H 0.1053 -0.2453 0.2819
H77 H 0.1312 0.3670 0.4081
H78 H 0.1221 0.3365 0.3488
H79 H 0.0101 0.4970 0.3154
H80 H 0.0243 0.5183 0.3765
H81 H -0.5820 -0.3567 0.1839
H82 H -0.5929 -0.3691 0.1220
H83 H -0.4653 -0.5132 0.1482
H84 H -0.4379 -0.4860 0.2081
H85 H -0.6351 0.0242 0.2055
H86 H -0.6305 0.0633 0.2619
H87 H -0.5508 0.2610 0.2240
H88 H -0.5813 0.2259 0.1664
H89 H -0.3897 -0.3556 0.4723
H90 H -0.3577 -0.3215 0.5300
H91 H -0.5046 -0.1974 0.4996
H92 H -0.5179 -0.2152 0.4381
Si1 Si -0.2270(2) -0.1813(2) 0.0346(1)
O1 O -0.1336(4) -0.1853(4) 0.0345(3)
O2 O -0.2810(4) -0.2627(4) 0.0475(3)
O3 O -0.2539(4) -0.1574(4) -0.0289(3)
C73 C -0.2382(6) -0.1088(5) 0.0904(4)
C74 C -0.2228(6) -0.1173(6) 0.1466(5)
C75 C -0.2255(6) -0.0606(5) 0.1919(4)
C76 C -0.2108(6) -0.0722(6) 0.2496(4)
C77 C -0.2162(6) -0.0171(6) 0.2897(5)
C78 C -0.2340(6) 0.0528(6) 0.2745(5)
C79 C -0.2485(6) 0.0649(7) 0.2187(5)
C80 C -0.2444(6) 0.0087(6) 0.1753(5)
C81 C -0.2602(6) 0.0182(6) 0.1169(5)
C82 C -0.2568(6) -0.0375(6) 0.0765(5)
H93 H -0.2081 -0.0256 0.3279
H94 H -0.2095 -0.1626 0.1568
H95 H -0.1974 -0.1173 0.2603
H96 H -0.2359 0.0905 0.3025
H97 H -0.2612 0.1106 0.2088
H98 H -0.2731 0.0633 0.1059
H99 H -0.2669 -0.0289 0.0384
O4 O -0.6239(5) 0.0767(5) 0.3485(4)
O5 O -0.0729(5) 0.2697(5) 0.2084(3)
O6 O 0.0153(10) 0.3674(10) 0.2402(7)
O7 O 0.0002(10) 0.3349(10) 0.1594(7)
N25 N -0.0244(6) 0.3219(6) 0.2019(4)
O8 O -0.1416(5) -0.1015(5) -0.0956(3)
O9 O -0.4066(5) -0.1892(5) -0.0776(3)
O10 O 0.1469(5) 0.2355(5) 0.1544(3)
O11 O -0.3690(5) -0.2494(5) 0.3062(3)
O12 O -0.4422(8) -0.3039(8) 0.3635(6)
O13 O -0.4770(9) -0.3317(8) 0.2787(6)
N26 N -0.4265(6) -0.2976(5) 0.3148(4)
O14 O 0.2268(6) 0.0636(6) 0.3715(4)
O15 O -0.2477(17) 0.4166(17) 0.1029(11)
O16 O -0.2301(9) 0.2561(8) 0.4465(6)
O17 O -0.2938(10) 0.2015(10) 0.3677(7)
O18 O -0.3565(10) 0.2195(9) 0.4367(6)
N27 N -0.2917(9) 0.2272(8) 0.4173(6)
O19 O -0.3770(7) 0.3685(7) -0.0308(5)
O20 O -0.1217(8) -0.5337(8) 0.0712(6)
O21 O -0.6388(7) -0.1906(6) 0.1604(5)
O22 O -0.6028(7) -0.1171(7) 0.2413(5)
O23 O -0.6110(10) -0.2426(10) 0.2364(7)
N28 N -0.6167(9) -0.1773(10) 0.2158(6)
O24 O 0.1656(8) -0.1784(8) 0.4299(6)
O25 O -0.2365(8) -0.5166(8) -0.0152(5)
O26 O -0.4949(8) 0.2058(8) 0.3534(6)
O27 O -0.7862(9) -0.0425(9) 0.0827(6)
O28 O -0.8651(10) -0.0306(9) 0.1420(6)
O29 O -0.7725(10) -0.0904(9) 0.1656(7)
N29 N -0.8141(8) -0.0487(7) 0.1387(5)
O30 O -0.7152(9) -0.3141(9) 0.3755(6)
O31 O 0.3238(9) -0.1764(9) 0.4564(6)
O32 O 0.3327(8) 0.5158(8) 0.4847(5)
O33 O -0.0373(7) -0.1894(7) 0.1307(5)
O34 O 0.0513(9) -0.2057(9) 0.0807(6)
O35 O 0.0674(8) -0.2164(8) 0.1708(5)
N30 N 0.0281(7) -0.2045(6) 0.1233(5)
O36 O -0.3130(10) -0.4052(10) 0.3585(7)
O37 O -0.6266(10) -0.3924(10) 0.3122(7)
O38 O 0.0370(10) -0.2976(10) 0.4346(7)
O39 O -0.4710(5) 0.3028(6) 0.0534(4)
O40 O -0.4054(8) 0.4155(8) 0.0934(5)
O41 O -0.4939(12) 0.3465(12) 0.1346(9)
N31 N -0.4595(9) 0.3546(9) 0.0905(7)
O42 O -0.5935(10) -0.4927(10) 0.3908(7)
O43 O -0.7922(11) -0.2843(11) 0.1466(8)
O44 O 0.1596(15) 0.4575(14) 0.1849(10)
O45 O 0.0854(8) 0.3614(8) 0.4928(5)
O46 O 0.1649(9) 0.3968(8) 0.5734(6)
O47 O 0.2108(10) 0.3841(10) 0.4906(7)
N32 N 0.1541(11) 0.3851(10) 0.5174(8)
O48 O 0.0083(13) 0.5850(13) 0.1047(9)
O49 O -0.1591(5) -0.1349(5) 0.7362(4)
O50 O -0.1581(5) -0.1882(5) 0.6521(4)
O51 O -0.1342(6) -0.2481(6) 0.7278(4)
N33 N -0.1502(7) -0.1915(7) 0.7078(5)
O52 O -0.5680(14) 0.0554(13) 0.0875(9)
O53 O -0.5659(13) -0.0324(13) 0.0292(9)
O54 O -0.4926(13) 0.0692(13) 0.0205(10)
N34 N -0.5266(9) 0.0498(8) 0.0601(6)
loop_
_geom_bond_atom_site_label_1
_geom_bond_atom_site_label_2
_geom_bond_site_symmetry_1
_geom_bond_site_symmetry_2
Pd1 N1 1_555 1_555
Pd2 N5 1_555 1_555
Pd3 N10 1_555 1_555
Pd4 N3 1_555 1_555
Pd5 N7 1_555 1_555
Pd6 N9 1_555 1_555
C1 C5 1_555 1_555
C2 C7 1_555 1_555
C3 C6 1_555 1_555
C4 C8 1_555 1_555
C5 C9 1_555 1_555
C6 C11 1_555 1_555
C7 C10 1_555 1_555
C8 C12 1_555 1_555
C9 C14 1_555 1_555
C10 C15 1_555 1_555
C11 C13 1_555 1_555
C12 C16 1_555 1_555
C13 C19 1_555 1_555
C14 C17 1_555 1_555
C15 C18 1_555 1_555
C16 C20 1_555 1_555
C17 N2 1_555 1_555
C18 N1 1_555 1_555
C19 N4 1_555 1_555
C20 N3 1_555 1_555
C21 C25 1_555 1_555
C22 C28 1_555 1_555
C23 C26 1_555 1_555
C24 C27 1_555 1_555
C25 C14 1_555 1_555
C26 C15 1_555 1_555
C27 C13 1_555 1_555
C28 C16 1_555 1_555
C29 C25 1_555 1_555
C30 C26 1_555 1_555
C31 C28 1_555 1_555
C32 C27 1_555 1_555
C33 C29 1_555 1_555
C34 C31 1_555 1_555
C35 C30 1_555 1_555
C36 C32 1_555 1_555
C37 C34 1_555 1_555
C38 C33 1_555 1_555
C39 C35 1_555 1_555
C40 C36 1_555 1_555
C41 C46 1_555 1_555
C42 C47 1_555 1_555
C43 C49 1_555 1_555
C44 C48 1_555 1_555
C45 C50 1_555 1_555
C46 C33 1_555 1_555
C47 C34 1_555 1_555
C48 C35 1_555 1_555
C49 C36 1_555 1_555
C50 N14 1_555 1_555
C51 C49 1_555 1_555
C52 C46 1_555 1_555
C53 C48 1_555 1_555
C54 C47 1_555 1_555
C55 C53 1_555 1_555
C56 C51 1_555 1_555
C57 C52 1_555 1_555
C58 C54 1_555 1_555
C59 C56 1_555 1_555
C60 C55 1_555 1_555
C61 C57 1_555 1_555
C62 C58 1_555 1_555
C63 C64 1_555 1_555
C64 N16 1_555 1_555
C65 C66 1_555 1_555
C66 N18 1_555 1_555
C67 C68 1_555 1_555
C68 N20 1_555 1_555
C69 C70 1_555 1_555
C70 N22 1_555 1_555
C71 C72 1_555 1_555
C72 N24 1_555 1_555
N1 C2 1_555 1_555
N2 Pd1 1_555 1_555
N3 C4 1_555 1_555
N4 Pd4 1_555 1_555
N5 C21 1_555 1_555
N6 Pd2 1_555 1_555
N7 C23 1_555 1_555
N8 Pd5 1_555 1_555
N9 C42 1_555 1_555
N10 C41 1_555 1_555
N11 Pd6 1_555 1_555
N12 Pd3 1_555 1_555
N13 Pd1 1_555 1_555
N14 Pd1 1_555 1_555
N15 Pd2 1_555 1_555
N16 Pd2 1_555 1_555
N17 Pd3 1_555 1_555
N18 Pd3 1_555 1_555
N19 Pd4 1_555 1_555
N20 Pd4 1_555 1_555
N21 Pd5 1_555 1_555
N22 Pd5 1_555 1_555
N23 Pd6 1_555 1_555
N24 Pd6 1_555 1_555
H1 C1 1_555 1_555
H2 C2 1_555 1_555
H3 C3 1_555 1_555
H4 C4 1_555 1_555
H5 C5 1_555 1_555
H6 C6 1_555 1_555
H7 C7 1_555 1_555
H8 C8 1_555 1_555
H9 C9 1_555 1_555
H10 C10 1_555 1_555
H11 C11 1_555 1_555
H12 C12 1_555 1_555
H13 C17 1_555 1_555
H14 C18 1_555 1_555
H15 C19 1_555 1_555
H16 C20 1_555 1_555
H17 C21 1_555 1_555
H18 C22 1_555 1_555
H19 C23 1_555 1_555
H20 C24 1_555 1_555
H21 C29 1_555 1_555
H22 C30 1_555 1_555
H23 C31 1_555 1_555
H24 C32 1_555 1_555
H25 C37 1_555 1_555
H26 C38 1_555 1_555
H27 C39 1_555 1_555
H28 C40 1_555 1_555
H29 C41 1_555 1_555
H30 C42 1_555 1_555
H31 C43 1_555 1_555
H32 C44 1_555 1_555
H33 C45 1_555 1_555
H34 C45 1_555 1_555
H35 C50 1_555 1_555
H36 C50 1_555 1_555
H37 C51 1_555 1_555
H38 C52 1_555 1_555
H39 C53 1_555 1_555
H40 C54 1_555 1_555
H41 C55 1_555 1_555
H42 C56 1_555 1_555
H43 C57 1_555 1_555
H44 C58 1_555 1_555
H45 C59 1_555 1_555
H46 C60 1_555 1_555
H47 C61 1_555 1_555
H48 C62 1_555 1_555
H49 C63 1_555 1_555
H50 C63 1_555 1_555
H51 C64 1_555 1_555
H52 C64 1_555 1_555
H53 C65 1_555 1_555
H54 C65 1_555 1_555
H55 C66 1_555 1_555
H56 C66 1_555 1_555
H57 C67 1_555 1_555
H58 C67 1_555 1_555
H59 C68 1_555 1_555
H60 C68 1_555 1_555
H61 C69 1_555 1_555
H62 C69 1_555 1_555
H63 C70 1_555 1_555
H64 C70 1_555 1_555
H65 C71 1_555 1_555
H66 C71 1_555 1_555
H67 C72 1_555 1_555
H68 C72 1_555 1_555
H69 N13 1_555 1_555
H70 N13 1_555 1_555
H71 N14 1_555 1_555
H72 N14 1_555 1_555
H73 N15 1_555 1_555
H74 N15 1_555 1_555
H75 N16 1_555 1_555
H76 N16 1_555 1_555
H77 N17 1_555 1_555
H78 N17 1_555 1_555
H79 N18 1_555 1_555
H80 N18 1_555 1_555
H81 N19 1_555 1_555
H82 N19 1_555 1_555
H83 N20 1_555 1_555
H84 N20 1_555 1_555
H85 N21 1_555 1_555
H86 N21 1_555 1_555
H87 N22 1_555 1_555
H88 N22 1_555 1_555
H89 N23 1_555 1_555
H90 N23 1_555 1_555
H91 N24 1_555 1_555
H92 N24 1_555 1_555
Si1 O1 1_555 1_555
O2 Si1 1_555 1_555
O3 Si1 1_555 1_555
C73 Si1 1_555 1_555
C74 C73 1_555 1_555
C75 C74 1_555 1_555
C76 C75 1_555 1_555
C77 C76 1_555 1_555
C78 C77 1_555 1_555
C79 C78 1_555 1_555
C80 C75 1_555 1_555
C81 C80 1_555 1_555
C82 C73 1_555 1_555
H93 C77 1_555 1_555
H94 C74 1_555 1_555
H95 C76 1_555 1_555
H96 C78 1_555 1_555
H97 C79 1_555 1_555
H98 C81 1_555 1_555
H99 C82 1_555 1_555
O5 N25 1_555 1_555
O6 N25 1_555 1_555
O7 N25 1_555 1_555
O11 N26 1_555 1_555
O12 N26 1_555 1_555
O13 N26 1_555 1_555
O16 N27 1_555 1_555
O17 N27 1_555 1_555
O18 N27 1_555 1_555
O21 N28 1_555 1_555
O22 N28 1_555 1_555
O23 N28 1_555 1_555
O27 N29 1_555 1_555
O28 N29 1_555 1_555
O29 N29 1_555 1_555
O33 N30 1_555 1_555
O34 N30 1_555 1_555
O35 N30 1_555 1_555
O39 N31 1_555 1_555
O40 N31 1_555 1_555
O41 N31 1_555 1_555
O45 N32 1_555 1_555
O46 N32 1_555 1_555
O47 N32 1_555 1_555
O49 N33 1_555 1_555
O50 N33 1_555 1_555
O51 N33 1_555 1_555
O52 N34 1_555 1_555
O53 N34 1_555 1_555
O54 N34 1_555 1_555
C1 N2 1_555 1_555
C3 N4 1_555 1_555
C22 N6 1_555 1_555
C24 N8 1_555 1_555
C37 N6 1_555 1_555
C38 N5 1_555 1_555
C39 N7 1_555 1_555
C40 N8 1_555 1_555
C43 N11 1_555 1_555
C44 N12 1_555 1_555
C45 N13 1_555 1_555
C59 N11 1_555 1_555
C60 N12 1_555 1_555
C61 N10 1_555 1_555
C62 N9 1_555 1_555
C63 N15 1_555 1_555
C65 N17 1_555 1_555
C67 N19 1_555 1_555
C69 N21 1_555 1_555
C71 N23 1_555 1_555
C79 C80 1_555 1_555
C81 C82 1_555 1_555

#END
