# generated using pymatgen
data_Si2H96Pd6C108N40O37
_symmetry_space_group_name_H-M   'P 1'
_cell_length_a   24.29020000
_cell_length_b   24.29020000
_cell_length_c   28.01500000
_cell_angle_alpha   90.00000000
_cell_angle_beta   90.00000000
_cell_angle_gamma   90.00000000
_symmetry_Int_Tables_number   1
_chemical_formula_structural   Si2H96Pd6C108N40O37
_chemical_formula_sum   'Si8 H384 Pd24 C432 N160 O148'
_cell_volume   16529.23705636
_cell_formula_units_Z   4
loop_
 _symmetry_equiv_pos_site_id
 _symmetry_equiv_pos_as_xyz
  1  'x, y, z'
loop_
 _atom_site_type_symbol
 _atom_site_label
 _atom_site_symmetry_multiplicity
 _atom_site_fract_x
 _atom_site_fract_y
 _atom_site_fract_z
 _atom_site_occupancy
  Si  Si1  1  0.958200  0.908200  0.957100  1.0
  Si  Si2  1  0.591800  0.458200  0.707100  1.0
  Si  Si3  1  0.458200  0.591800  0.292900  1.0
  Si  Si4  1  0.041800  0.091800  0.457100  1.0
  Si  Si5  1  0.908200  0.958200  0.042900  1.0
  Si  Si6  1  0.408200  0.541800  0.207100  1.0
  Si  Si7  1  0.541800  0.408200  0.792900  1.0
  Si  Si8  1  0.091800  0.041800  0.542900  1.0
  H  H9  1  0.418800  0.032000  0.911900  1.0
  H  H10  1  0.468000  0.918800  0.661900  1.0
  H  H11  1  0.918800  0.468000  0.338100  1.0
  H  H12  1  0.581200  0.968000  0.411900  1.0
  H  H13  1  0.032000  0.418800  0.088100  1.0
  H  H14  1  0.532000  0.081200  0.161900  1.0
  H  H15  1  0.081200  0.532000  0.838100  1.0
  H  H16  1  0.968000  0.581200  0.588100  1.0
  H  H17  1  0.393800  0.017500  0.957700  1.0
  H  H18  1  0.482500  0.893800  0.707700  1.0
  H  H19  1  0.893800  0.482500  0.292300  1.0
  H  H20  1  0.606200  0.982500  0.457700  1.0
  H  H21  1  0.017500  0.393800  0.042300  1.0
  H  H22  1  0.517500  0.106200  0.207700  1.0
  H  H23  1  0.106200  0.517500  0.792300  1.0
  H  H24  1  0.982500  0.606200  0.542300  1.0
  H  H25  1  0.478200  0.123100  0.014700  1.0
  H  H26  1  0.376900  0.978200  0.764700  1.0
  H  H27  1  0.978200  0.376900  0.235300  1.0
  H  H28  1  0.521800  0.876900  0.514700  1.0
  H  H29  1  0.123100  0.478200  0.985300  1.0
  H  H30  1  0.623100  0.021800  0.264700  1.0
  H  H31  1  0.021800  0.623100  0.735300  1.0
  H  H32  1  0.876900  0.521800  0.485300  1.0
  H  H33  1  0.511600  0.134800  0.972600  1.0
  H  H34  1  0.365200  0.011600  0.722600  1.0
  H  H35  1  0.011600  0.365200  0.277400  1.0
  H  H36  1  0.488400  0.865200  0.472600  1.0
  H  H37  1  0.134800  0.511600  0.027400  1.0
  H  H38  1  0.634800  0.988400  0.222600  1.0
  H  H39  1  0.988400  0.634800  0.777400  1.0
  H  H40  1  0.865200  0.488400  0.527400  1.0
  H  H41  1  0.889900  0.786500  0.681200  1.0
  H  H42  1  0.713500  0.389900  0.431200  1.0
  H  H43  1  0.389900  0.713500  0.568800  1.0
  H  H44  1  0.110100  0.213500  0.181200  1.0
  H  H45  1  0.786500  0.889900  0.318800  1.0
  H  H46  1  0.286500  0.610100  0.931200  1.0
  H  H47  1  0.610100  0.286500  0.068800  1.0
  H  H48  1  0.213500  0.110100  0.818800  1.0
  H  H49  1  0.851700  0.740900  0.688400  1.0
  H  H50  1  0.759100  0.351700  0.438400  1.0
  H  H51  1  0.351700  0.759100  0.561600  1.0
  H  H52  1  0.148300  0.259100  0.188400  1.0
  H  H53  1  0.740900  0.851700  0.311600  1.0
  H  H54  1  0.240900  0.648300  0.938400  1.0
  H  H55  1  0.648300  0.240900  0.061600  1.0
  H  H56  1  0.259100  0.148300  0.811600  1.0
  H  H57  1  0.725000  0.822400  0.668200  1.0
  H  H58  1  0.677600  0.225000  0.418200  1.0
  H  H59  1  0.225000  0.677600  0.581800  1.0
  H  H60  1  0.275000  0.177600  0.168200  1.0
  H  H61  1  0.822400  0.725000  0.331800  1.0
  H  H62  1  0.322400  0.775000  0.918200  1.0
  H  H63  1  0.775000  0.322400  0.081800  1.0
  H  H64  1  0.177600  0.275000  0.831800  1.0
  H  H65  1  0.761800  0.864900  0.649500  1.0
  H  H66  1  0.635100  0.261800  0.399500  1.0
  H  H67  1  0.261800  0.635100  0.600500  1.0
  H  H68  1  0.238200  0.135100  0.149500  1.0
  H  H69  1  0.864900  0.761800  0.350500  1.0
  H  H70  1  0.364900  0.738200  0.899500  1.0
  H  H71  1  0.738200  0.364900  0.100500  1.0
  H  H72  1  0.135100  0.238200  0.850500  1.0
  H  H73  1  0.738900  0.552900  0.719200  1.0
  H  H74  1  0.947100  0.238900  0.469200  1.0
  H  H75  1  0.238900  0.947100  0.530800  1.0
  H  H76  1  0.261100  0.447100  0.219200  1.0
  H  H77  1  0.552900  0.738900  0.280800  1.0
  H  H78  1  0.052900  0.761100  0.969200  1.0
  H  H79  1  0.761100  0.052900  0.030800  1.0
  H  H80  1  0.447100  0.261100  0.780800  1.0
  H  H81  1  0.705000  0.504600  0.730800  1.0
  H  H82  1  0.995400  0.205000  0.480800  1.0
  H  H83  1  0.205000  0.995400  0.519200  1.0
  H  H84  1  0.295000  0.495400  0.230800  1.0
  H  H85  1  0.504600  0.705000  0.269200  1.0
  H  H86  1  0.004600  0.795000  0.980800  1.0
  H  H87  1  0.795000  0.004600  0.019200  1.0
  H  H88  1  0.495400  0.295000  0.769200  1.0
  H  H89  1  0.580800  0.585300  0.764600  1.0
  H  H90  1  0.914700  0.080800  0.514600  1.0
  H  H91  1  0.080800  0.914700  0.485400  1.0
  H  H92  1  0.419200  0.414700  0.264600  1.0
  H  H93  1  0.585300  0.580800  0.235400  1.0
  H  H94  1  0.085300  0.919200  0.014600  1.0
  H  H95  1  0.919200  0.085300  0.985400  1.0
  H  H96  1  0.414700  0.419200  0.735400  1.0
  H  H97  1  0.608700  0.631600  0.742200  1.0
  H  H98  1  0.868400  0.108700  0.492200  1.0
  H  H99  1  0.108700  0.868400  0.507800  1.0
  H  H100  1  0.391300  0.368400  0.242200  1.0
  H  H101  1  0.631600  0.608700  0.257800  1.0
  H  H102  1  0.131600  0.891300  0.992200  1.0
  H  H103  1  0.891300  0.131600  0.007800  1.0
  H  H104  1  0.368400  0.391300  0.757800  1.0
  H  H105  1  0.435200  0.939900  0.008900  1.0
  H  H106  1  0.560100  0.935200  0.758900  1.0
  H  H107  1  0.935200  0.560100  0.241100  1.0
  H  H108  1  0.564800  0.060100  0.508900  1.0
  H  H109  1  0.939900  0.435200  0.991100  1.0
  H  H110  1  0.439900  0.064800  0.258900  1.0
  H  H111  1  0.064800  0.439900  0.741100  1.0
  H  H112  1  0.060100  0.564800  0.491100  1.0
  H  H113  1  0.438400  0.848400  0.011200  1.0
  H  H114  1  0.651600  0.938400  0.761200  1.0
  H  H115  1  0.938400  0.651600  0.238800  1.0
  H  H116  1  0.561600  0.151600  0.511200  1.0
  H  H117  1  0.848400  0.438400  0.988800  1.0
  H  H118  1  0.348400  0.061600  0.261200  1.0
  H  H119  1  0.061600  0.348400  0.738800  1.0
  H  H120  1  0.151600  0.561600  0.488800  1.0
  H  H121  1  0.503900  0.802900  0.965600  1.0
  H  H122  1  0.697100  0.003900  0.715600  1.0
  H  H123  1  0.003900  0.697100  0.284400  1.0
  H  H124  1  0.496100  0.197100  0.465600  1.0
  H  H125  1  0.802900  0.503900  0.034400  1.0
  H  H126  1  0.302900  0.996100  0.215600  1.0
  H  H127  1  0.996100  0.302900  0.784400  1.0
  H  H128  1  0.197100  0.496100  0.534400  1.0
  H  H129  1  0.555000  0.950000  0.919400  1.0
  H  H130  1  0.550000  0.055000  0.669400  1.0
  H  H131  1  0.055000  0.550000  0.330600  1.0
  H  H132  1  0.445000  0.050000  0.419400  1.0
  H  H133  1  0.950000  0.555000  0.080600  1.0
  H  H134  1  0.450000  0.945000  0.169400  1.0
  H  H135  1  0.945000  0.450000  0.830600  1.0
  H  H136  1  0.050000  0.445000  0.580600  1.0
  H  H137  1  0.782700  0.943300  0.741800  1.0
  H  H138  1  0.556700  0.282700  0.491800  1.0
  H  H139  1  0.282700  0.556700  0.508200  1.0
  H  H140  1  0.217300  0.056700  0.241800  1.0
  H  H141  1  0.943300  0.782700  0.258200  1.0
  H  H142  1  0.443300  0.717300  0.991800  1.0
  H  H143  1  0.717300  0.443300  0.008200  1.0
  H  H144  1  0.056700  0.217300  0.758200  1.0
  H  H145  1  0.731200  0.993500  0.795200  1.0
  H  H146  1  0.506500  0.231200  0.545200  1.0
  H  H147  1  0.231200  0.506500  0.454800  1.0
  H  H148  1  0.268800  0.006500  0.295200  1.0
  H  H149  1  0.993500  0.731200  0.204800  1.0
  H  H150  1  0.493500  0.768800  0.045200  1.0
  H  H151  1  0.768800  0.493500  0.954800  1.0
  H  H152  1  0.006500  0.268800  0.704800  1.0
  H  H153  1  0.665300  0.952800  0.840300  1.0
  H  H154  1  0.547200  0.165300  0.590300  1.0
  H  H155  1  0.165300  0.547200  0.409700  1.0
  H  H156  1  0.334700  0.047200  0.340300  1.0
  H  H157  1  0.952800  0.665300  0.159700  1.0
  H  H158  1  0.452800  0.834700  0.090300  1.0
  H  H159  1  0.834700  0.452800  0.909700  1.0
  H  H160  1  0.047200  0.334700  0.659700  1.0
  H  H161  1  0.716200  0.807100  0.787700  1.0
  H  H162  1  0.692900  0.216200  0.537700  1.0
  H  H163  1  0.216200  0.692900  0.462300  1.0
  H  H164  1  0.283800  0.192900  0.287700  1.0
  H  H165  1  0.807100  0.716200  0.212300  1.0
  H  H166  1  0.307100  0.783800  0.037700  1.0
  H  H167  1  0.783800  0.307100  0.962300  1.0
  H  H168  1  0.192900  0.283800  0.712300  1.0
  H  H169  1  0.613500  0.554200  0.873500  1.0
  H  H170  1  0.945800  0.113500  0.623500  1.0
  H  H171  1  0.113500  0.945800  0.376500  1.0
  H  H172  1  0.386500  0.445800  0.373500  1.0
  H  H173  1  0.554200  0.613500  0.126500  1.0
  H  H174  1  0.054200  0.886500  0.123500  1.0
  H  H175  1  0.886500  0.054200  0.876500  1.0
  H  H176  1  0.445800  0.386500  0.626500  1.0
  H  H177  1  0.582100  0.596600  0.942300  1.0
  H  H178  1  0.903400  0.082100  0.692300  1.0
  H  H179  1  0.082100  0.903400  0.307700  1.0
  H  H180  1  0.417900  0.403400  0.442300  1.0
  H  H181  1  0.596600  0.582100  0.057700  1.0
  H  H182  1  0.096600  0.917900  0.192300  1.0
  H  H183  1  0.917900  0.096600  0.807700  1.0
  H  H184  1  0.403400  0.417900  0.557700  1.0
  H  H185  1  0.570500  0.690900  0.940500  1.0
  H  H186  1  0.809100  0.070500  0.690500  1.0
  H  H187  1  0.070500  0.809100  0.309500  1.0
  H  H188  1  0.429500  0.309100  0.440500  1.0
  H  H189  1  0.690900  0.570500  0.059500  1.0
  H  H190  1  0.190900  0.929500  0.190500  1.0
  H  H191  1  0.929500  0.190900  0.809500  1.0
  H  H192  1  0.309100  0.429500  0.559500  1.0
  H  H193  1  0.658200  0.691500  0.821700  1.0
  H  H194  1  0.808500  0.158200  0.571700  1.0
  H  H195  1  0.158200  0.808500  0.428300  1.0
  H  H196  1  0.341800  0.308500  0.321700  1.0
  H  H197  1  0.691500  0.658200  0.178300  1.0
  H  H198  1  0.191500  0.841800  0.071700  1.0
  H  H199  1  0.841800  0.191500  0.928300  1.0
  H  H200  1  0.308500  0.341800  0.678300  1.0
  H  H201  1  0.601900  0.098900  0.968100  1.0
  H  H202  1  0.401100  0.101900  0.718100  1.0
  H  H203  1  0.101900  0.401100  0.281900  1.0
  H  H204  1  0.398100  0.901100  0.468100  1.0
  H  H205  1  0.098900  0.601900  0.031900  1.0
  H  H206  1  0.598900  0.898100  0.218100  1.0
  H  H207  1  0.898100  0.598900  0.781900  1.0
  H  H208  1  0.901100  0.398100  0.531900  1.0
  H  H209  1  0.689300  0.093100  0.988600  1.0
  H  H210  1  0.406900  0.189300  0.738600  1.0
  H  H211  1  0.189300  0.406900  0.261400  1.0
  H  H212  1  0.310700  0.906900  0.488600  1.0
  H  H213  1  0.093100  0.689300  0.011400  1.0
  H  H214  1  0.593100  0.810700  0.238600  1.0
  H  H215  1  0.810700  0.593100  0.761400  1.0
  H  H216  1  0.906900  0.310700  0.511400  1.0
  H  H217  1  0.712500  0.026300  0.052000  1.0
  H  H218  1  0.473700  0.212500  0.802000  1.0
  H  H219  1  0.212500  0.473700  0.198000  1.0
  H  H220  1  0.287500  0.973700  0.552000  1.0
  H  H221  1  0.026300  0.712500  0.948000  1.0
  H  H222  1  0.526300  0.787500  0.302000  1.0
  H  H223  1  0.787500  0.526300  0.698000  1.0
  H  H224  1  0.973700  0.287500  0.448000  1.0
  H  H225  1  0.555500  0.974900  0.047300  1.0
  H  H226  1  0.525100  0.055500  0.797300  1.0
  H  H227  1  0.055500  0.525100  0.202700  1.0
  H  H228  1  0.444500  0.025100  0.547300  1.0
  H  H229  1  0.974900  0.555500  0.952700  1.0
  H  H230  1  0.474900  0.944500  0.297300  1.0
  H  H231  1  0.944500  0.474900  0.702700  1.0
  H  H232  1  0.025100  0.444500  0.452700  1.0
  H  H233  1  0.897500  0.888000  0.768800  1.0
  H  H234  1  0.612000  0.397500  0.518800  1.0
  H  H235  1  0.397500  0.612000  0.481200  1.0
  H  H236  1  0.102500  0.112000  0.268800  1.0
  H  H237  1  0.888000  0.897500  0.231200  1.0
  H  H238  1  0.388000  0.602500  0.018800  1.0
  H  H239  1  0.602500  0.388000  0.981200  1.0
  H  H240  1  0.112000  0.102500  0.731200  1.0
  H  H241  1  0.961600  0.880600  0.825000  1.0
  H  H242  1  0.619400  0.461600  0.575000  1.0
  H  H243  1  0.461600  0.619400  0.425000  1.0
  H  H244  1  0.038400  0.119400  0.325000  1.0
  H  H245  1  0.880600  0.961600  0.175000  1.0
  H  H246  1  0.380600  0.538400  0.075000  1.0
  H  H247  1  0.538400  0.380600  0.925000  1.0
  H  H248  1  0.119400  0.038400  0.675000  1.0
  H  H249  1  0.970600  0.797100  0.865200  1.0
  H  H250  1  0.702900  0.470600  0.615200  1.0
  H  H251  1  0.470600  0.702900  0.384800  1.0
  H  H252  1  0.029400  0.202900  0.365200  1.0
  H  H253  1  0.797100  0.970600  0.134800  1.0
  H  H254  1  0.297100  0.529400  0.115200  1.0
  H  H255  1  0.529400  0.297100  0.884800  1.0
  H  H256  1  0.202900  0.029400  0.634800  1.0
  H  H257  1  0.841200  0.740600  0.791900  1.0
  H  H258  1  0.759400  0.341200  0.541900  1.0
  H  H259  1  0.341200  0.759400  0.458100  1.0
  H  H260  1  0.158800  0.259400  0.291900  1.0
  H  H261  1  0.740600  0.841200  0.208100  1.0
  H  H262  1  0.240600  0.658800  0.041900  1.0
  H  H263  1  0.658800  0.240600  0.958100  1.0
  H  H264  1  0.259400  0.158800  0.708100  1.0
  H  H265  1  0.718900  0.482200  0.839000  1.0
  H  H266  1  0.017800  0.218900  0.589000  1.0
  H  H267  1  0.218900  0.017800  0.411000  1.0
  H  H268  1  0.281100  0.517800  0.339000  1.0
  H  H269  1  0.482200  0.718900  0.161000  1.0
  H  H270  1  0.982200  0.781100  0.089000  1.0
  H  H271  1  0.781100  0.982200  0.911000  1.0
  H  H272  1  0.517800  0.281100  0.661000  1.0
  H  H273  1  0.790400  0.458100  0.886700  1.0
  H  H274  1  0.041900  0.290400  0.636700  1.0
  H  H275  1  0.290400  0.041900  0.363300  1.0
  H  H276  1  0.209600  0.541900  0.386700  1.0
  H  H277  1  0.458100  0.790400  0.113300  1.0
  H  H278  1  0.958100  0.709600  0.136700  1.0
  H  H279  1  0.709600  0.958100  0.863300  1.0
  H  H280  1  0.541900  0.209600  0.613300  1.0
  H  H281  1  0.861100  0.516200  0.904600  1.0
  H  H282  1  0.983800  0.361100  0.654600  1.0
  H  H283  1  0.361100  0.983800  0.345400  1.0
  H  H284  1  0.138900  0.483800  0.404600  1.0
  H  H285  1  0.516200  0.861100  0.095400  1.0
  H  H286  1  0.016200  0.638900  0.154600  1.0
  H  H287  1  0.638900  0.016200  0.845400  1.0
  H  H288  1  0.483800  0.138900  0.595400  1.0
  H  H289  1  0.780300  0.628500  0.820100  1.0
  H  H290  1  0.871500  0.280300  0.570100  1.0
  H  H291  1  0.280300  0.871500  0.429900  1.0
  H  H292  1  0.219700  0.371500  0.320100  1.0
  H  H293  1  0.628500  0.780300  0.179900  1.0
  H  H294  1  0.128500  0.719700  0.070100  1.0
  H  H295  1  0.719700  0.128500  0.929900  1.0
  H  H296  1  0.371500  0.219700  0.679900  1.0
  H  H297  1  0.379200  0.109300  0.920100  1.0
  H  H298  1  0.390700  0.879200  0.670100  1.0
  H  H299  1  0.879200  0.390700  0.329900  1.0
  H  H300  1  0.620800  0.890700  0.420100  1.0
  H  H301  1  0.109300  0.379200  0.079900  1.0
  H  H302  1  0.609300  0.120800  0.170100  1.0
  H  H303  1  0.120800  0.609300  0.829900  1.0
  H  H304  1  0.890700  0.620800  0.579900  1.0
  H  H305  1  0.371500  0.099300  0.974700  1.0
  H  H306  1  0.400700  0.871500  0.724700  1.0
  H  H307  1  0.871500  0.400700  0.275300  1.0
  H  H308  1  0.628500  0.900700  0.474700  1.0
  H  H309  1  0.099300  0.371500  0.025300  1.0
  H  H310  1  0.599300  0.128500  0.224700  1.0
  H  H311  1  0.128500  0.599300  0.775300  1.0
  H  H312  1  0.900700  0.628500  0.525300  1.0
  H  H313  1  0.415500  0.162600  0.975800  1.0
  H  H314  1  0.337400  0.915500  0.725800  1.0
  H  H315  1  0.915500  0.337400  0.274200  1.0
  H  H316  1  0.584500  0.837400  0.475800  1.0
  H  H317  1  0.162600  0.415500  0.024200  1.0
  H  H318  1  0.662600  0.084500  0.225800  1.0
  H  H319  1  0.084500  0.662600  0.774200  1.0
  H  H320  1  0.837400  0.584500  0.524200  1.0
  H  H321  1  0.444500  0.149500  0.927400  1.0
  H  H322  1  0.350500  0.944500  0.677400  1.0
  H  H323  1  0.944500  0.350500  0.322600  1.0
  H  H324  1  0.555500  0.850500  0.427400  1.0
  H  H325  1  0.149500  0.444500  0.072600  1.0
  H  H326  1  0.649500  0.055500  0.177400  1.0
  H  H327  1  0.055500  0.649500  0.822600  1.0
  H  H328  1  0.850500  0.555500  0.572600  1.0
  H  H329  1  0.855600  0.811400  0.614100  1.0
  H  H330  1  0.688600  0.355600  0.364100  1.0
  H  H331  1  0.355600  0.688600  0.635900  1.0
  H  H332  1  0.144400  0.188600  0.114100  1.0
  H  H333  1  0.811400  0.855600  0.385900  1.0
  H  H334  1  0.311400  0.644400  0.864100  1.0
  H  H335  1  0.644400  0.311400  0.135900  1.0
  H  H336  1  0.188600  0.144400  0.885900  1.0
  H  H337  1  0.846500  0.747600  0.612000  1.0
  H  H338  1  0.752400  0.346500  0.362000  1.0
  H  H339  1  0.346500  0.752400  0.638000  1.0
  H  H340  1  0.153500  0.252400  0.112000  1.0
  H  H341  1  0.747600  0.846500  0.388000  1.0
  H  H342  1  0.247600  0.653500  0.862000  1.0
  H  H343  1  0.653500  0.247600  0.138000  1.0
  H  H344  1  0.252400  0.153500  0.888000  1.0
  H  H345  1  0.764000  0.753800  0.627100  1.0
  H  H346  1  0.746200  0.264000  0.377100  1.0
  H  H347  1  0.264000  0.746200  0.622900  1.0
  H  H348  1  0.236000  0.246200  0.127100  1.0
  H  H349  1  0.753800  0.764000  0.372900  1.0
  H  H350  1  0.253800  0.736000  0.877100  1.0
  H  H351  1  0.736000  0.253800  0.122900  1.0
  H  H352  1  0.246200  0.236000  0.872900  1.0
  H  H353  1  0.775800  0.802600  0.591800  1.0
  H  H354  1  0.697400  0.275800  0.341800  1.0
  H  H355  1  0.275800  0.697400  0.658200  1.0
  H  H356  1  0.224200  0.197400  0.091800  1.0
  H  H357  1  0.802600  0.775800  0.408200  1.0
  H  H358  1  0.302600  0.724200  0.841800  1.0
  H  H359  1  0.724200  0.302600  0.158200  1.0
  H  H360  1  0.197400  0.224200  0.908200  1.0
  H  H361  1  0.669700  0.595800  0.672500  1.0
  H  H362  1  0.904200  0.169700  0.422500  1.0
  H  H363  1  0.169700  0.904200  0.577500  1.0
  H  H364  1  0.330300  0.404200  0.172500  1.0
  H  H365  1  0.595800  0.669700  0.327500  1.0
  H  H366  1  0.095800  0.830300  0.922500  1.0
  H  H367  1  0.830300  0.095800  0.077500  1.0
  H  H368  1  0.404200  0.330300  0.827500  1.0
  H  H369  1  0.654600  0.534100  0.662400  1.0
  H  H370  1  0.965900  0.154600  0.412400  1.0
  H  H371  1  0.154600  0.965900  0.587600  1.0
  H  H372  1  0.345400  0.465900  0.162400  1.0
  H  H373  1  0.534100  0.654600  0.337600  1.0
  H  H374  1  0.034100  0.845400  0.912400  1.0
  H  H375  1  0.845400  0.034100  0.087600  1.0
  H  H376  1  0.465900  0.345400  0.837600  1.0
  H  H377  1  0.595200  0.532700  0.712300  1.0
  H  H378  1  0.967300  0.095200  0.462300  1.0
  H  H379  1  0.095200  0.967300  0.537700  1.0
  H  H380  1  0.404800  0.467300  0.212300  1.0
  H  H381  1  0.532700  0.595200  0.287700  1.0
  H  H382  1  0.032700  0.904800  0.962300  1.0
  H  H383  1  0.904800  0.032700  0.037700  1.0
  H  H384  1  0.467300  0.404800  0.787700  1.0
  H  H385  1  0.588000  0.588200  0.684900  1.0
  H  H386  1  0.911800  0.088000  0.434900  1.0
  H  H387  1  0.088000  0.911800  0.565100  1.0
  H  H388  1  0.412000  0.411800  0.184900  1.0
  H  H389  1  0.588200  0.588000  0.315100  1.0
  H  H390  1  0.088200  0.912000  0.934900  1.0
  H  H391  1  0.912000  0.088200  0.065100  1.0
  H  H392  1  0.411800  0.412000  0.815100  1.0
  Pd  Pd393  1  0.493600  0.036700  0.973500  1.0
  Pd  Pd394  1  0.463300  0.993600  0.723500  1.0
  Pd  Pd395  1  0.993600  0.463300  0.276500  1.0
  Pd  Pd396  1  0.506400  0.963300  0.473500  1.0
  Pd  Pd397  1  0.036700  0.493600  0.026500  1.0
  Pd  Pd398  1  0.536700  0.006400  0.223500  1.0
  Pd  Pd399  1  0.006400  0.536700  0.776500  1.0
  Pd  Pd400  1  0.963300  0.506400  0.526500  1.0
  Pd  Pd401  1  0.807700  0.824100  0.720700  1.0
  Pd  Pd402  1  0.675900  0.307700  0.470700  1.0
  Pd  Pd403  1  0.307700  0.675900  0.529300  1.0
  Pd  Pd404  1  0.192300  0.175900  0.220700  1.0
  Pd  Pd405  1  0.824100  0.807700  0.279300  1.0
  Pd  Pd406  1  0.324100  0.692300  0.970700  1.0
  Pd  Pd407  1  0.692300  0.324100  0.029300  1.0
  Pd  Pd408  1  0.175900  0.192300  0.779300  1.0
  Pd  Pd409  1  0.676700  0.580000  0.786000  1.0
  Pd  Pd410  1  0.920000  0.176700  0.536000  1.0
  Pd  Pd411  1  0.176700  0.920000  0.464000  1.0
  Pd  Pd412  1  0.323300  0.420000  0.286000  1.0
  Pd  Pd413  1  0.580000  0.676700  0.214000  1.0
  Pd  Pd414  1  0.080000  0.823300  0.036000  1.0
  Pd  Pd415  1  0.823300  0.080000  0.964000  1.0
  Pd  Pd416  1  0.420000  0.323300  0.714000  1.0
  C  C417  1  0.462000  0.922300  0.990700  1.0
  C  C418  1  0.577700  0.962000  0.740700  1.0
  C  C419  1  0.962000  0.577700  0.259300  1.0
  C  C420  1  0.538000  0.077700  0.490700  1.0
  C  C421  1  0.922300  0.462000  0.009300  1.0
  C  C422  1  0.422300  0.038000  0.240700  1.0
  C  C423  1  0.038000  0.422300  0.759300  1.0
  C  C424  1  0.077700  0.538000  0.509300  1.0
  C  C425  1  0.462900  0.867900  0.992100  1.0
  C  C426  1  0.632100  0.962900  0.742100  1.0
  C  C427  1  0.962900  0.632100  0.257900  1.0
  C  C428  1  0.537100  0.132100  0.492100  1.0
  C  C429  1  0.867900  0.462900  0.007900  1.0
  C  C430  1  0.367900  0.037100  0.242100  1.0
  C  C431  1  0.037100  0.367900  0.757900  1.0
  C  C432  1  0.132100  0.537100  0.507900  1.0
  C  C433  1  0.501100  0.841100  0.964600  1.0
  C  C434  1  0.658900  0.001100  0.714600  1.0
  C  C435  1  0.001100  0.658900  0.285400  1.0
  C  C436  1  0.498900  0.158900  0.464600  1.0
  C  C437  1  0.841100  0.501100  0.035400  1.0
  C  C438  1  0.341100  0.998900  0.214600  1.0
  C  C439  1  0.998900  0.341100  0.785400  1.0
  C  C440  1  0.158900  0.498900  0.535400  1.0
  C  C441  1  0.535300  0.871600  0.935300  1.0
  C  C442  1  0.628400  0.035300  0.685300  1.0
  C  C443  1  0.035300  0.628400  0.314700  1.0
  C  C444  1  0.464700  0.128400  0.435300  1.0
  C  C445  1  0.871600  0.535300  0.064700  1.0
  C  C446  1  0.371600  0.964700  0.185300  1.0
  C  C447  1  0.964700  0.371600  0.814700  1.0
  C  C448  1  0.128400  0.464700  0.564700  1.0
  C  C449  1  0.531500  0.928500  0.937900  1.0
  C  C450  1  0.571500  0.031500  0.687900  1.0
  C  C451  1  0.031500  0.571500  0.312100  1.0
  C  C452  1  0.468500  0.071500  0.437900  1.0
  C  C453  1  0.928500  0.531500  0.062100  1.0
  C  C454  1  0.428500  0.968500  0.187900  1.0
  C  C455  1  0.968500  0.428500  0.812100  1.0
  C  C456  1  0.071500  0.468500  0.562100  1.0
  C  C457  1  0.576400  0.840900  0.906200  1.0
  C  C458  1  0.659100  0.076400  0.656200  1.0
  C  C459  1  0.076400  0.659100  0.343800  1.0
  C  C460  1  0.423600  0.159100  0.406200  1.0
  C  C461  1  0.840900  0.576400  0.093800  1.0
  C  C462  1  0.340900  0.923600  0.156200  1.0
  C  C463  1  0.923600  0.340900  0.843800  1.0
  C  C464  1  0.159100  0.423600  0.593800  1.0
  C  C465  1  0.759500  0.925400  0.763200  1.0
  C  C466  1  0.574600  0.259500  0.513200  1.0
  C  C467  1  0.259500  0.574600  0.486800  1.0
  C  C468  1  0.240500  0.074600  0.263200  1.0
  C  C469  1  0.925400  0.759500  0.236800  1.0
  C  C470  1  0.425400  0.740500  0.013200  1.0
  C  C471  1  0.740500  0.425400  0.986800  1.0
  C  C472  1  0.074600  0.240500  0.736800  1.0
  C  C473  1  0.726800  0.955500  0.793800  1.0
  C  C474  1  0.544500  0.226800  0.543800  1.0
  C  C475  1  0.226800  0.544500  0.456200  1.0
  C  C476  1  0.273200  0.044500  0.293800  1.0
  C  C477  1  0.955500  0.726800  0.206200  1.0
  C  C478  1  0.455500  0.773200  0.043800  1.0
  C  C479  1  0.773200  0.455500  0.956200  1.0
  C  C480  1  0.044500  0.273200  0.706200  1.0
  C  C481  1  0.688900  0.931500  0.821800  1.0
  C  C482  1  0.568500  0.188900  0.571800  1.0
  C  C483  1  0.188900  0.568500  0.428200  1.0
  C  C484  1  0.311100  0.068500  0.321800  1.0
  C  C485  1  0.931500  0.688900  0.178200  1.0
  C  C486  1  0.431500  0.811100  0.071800  1.0
  C  C487  1  0.811100  0.431500  0.928200  1.0
  C  C488  1  0.068500  0.311100  0.678200  1.0
  C  C489  1  0.685300  0.875100  0.822700  1.0
  C  C490  1  0.624900  0.185300  0.572700  1.0
  C  C491  1  0.185300  0.624900  0.427300  1.0
  C  C492  1  0.314700  0.124900  0.322700  1.0
  C  C493  1  0.875100  0.685300  0.177300  1.0
  C  C494  1  0.375100  0.814700  0.072700  1.0
  C  C495  1  0.814700  0.375100  0.927300  1.0
  C  C496  1  0.124900  0.314700  0.677300  1.0
  C  C497  1  0.720100  0.845100  0.790400  1.0
  C  C498  1  0.654900  0.220100  0.540400  1.0
  C  C499  1  0.220100  0.654900  0.459600  1.0
  C  C500  1  0.279900  0.154900  0.290400  1.0
  C  C501  1  0.845100  0.720100  0.209600  1.0
  C  C502  1  0.345100  0.779900  0.040400  1.0
  C  C503  1  0.779900  0.345100  0.959600  1.0
  C  C504  1  0.154900  0.279900  0.709600  1.0
  C  C505  1  0.643600  0.842100  0.852400  1.0
  C  C506  1  0.657900  0.143600  0.602400  1.0
  C  C507  1  0.143600  0.657900  0.397600  1.0
  C  C508  1  0.356400  0.157900  0.352400  1.0
  C  C509  1  0.842100  0.643600  0.147600  1.0
  C  C510  1  0.342100  0.856400  0.102400  1.0
  C  C511  1  0.856400  0.342100  0.897600  1.0
  C  C512  1  0.157900  0.356400  0.647600  1.0
  C  C513  1  0.617500  0.592200  0.876400  1.0
  C  C514  1  0.907800  0.117500  0.626400  1.0
  C  C515  1  0.117500  0.907800  0.373600  1.0
  C  C516  1  0.382500  0.407800  0.376400  1.0
  C  C517  1  0.592200  0.617500  0.123600  1.0
  C  C518  1  0.092200  0.882500  0.126400  1.0
  C  C519  1  0.882500  0.092200  0.873600  1.0
  C  C520  1  0.407800  0.382500  0.623600  1.0
  C  C521  1  0.594400  0.617400  0.916600  1.0
  C  C522  1  0.882600  0.094400  0.666600  1.0
  C  C523  1  0.094400  0.882600  0.333400  1.0
  C  C524  1  0.405600  0.382600  0.416600  1.0
  C  C525  1  0.617400  0.594400  0.083400  1.0
  C  C526  1  0.117400  0.905600  0.166600  1.0
  C  C527  1  0.905600  0.117400  0.833400  1.0
  C  C528  1  0.382600  0.405600  0.583400  1.0
  C  C529  1  0.590600  0.672700  0.917000  1.0
  C  C530  1  0.827300  0.090600  0.667000  1.0
  C  C531  1  0.090600  0.827300  0.333000  1.0
  C  C532  1  0.409400  0.327300  0.417000  1.0
  C  C533  1  0.672700  0.590600  0.083000  1.0
  C  C534  1  0.172700  0.909400  0.167000  1.0
  C  C535  1  0.909400  0.172700  0.833000  1.0
  C  C536  1  0.327300  0.409400  0.583000  1.0
  C  C537  1  0.616600  0.700500  0.882600  1.0
  C  C538  1  0.799500  0.116600  0.632600  1.0
  C  C539  1  0.116600  0.799500  0.367400  1.0
  C  C540  1  0.383400  0.299500  0.382600  1.0
  C  C541  1  0.700500  0.616600  0.117400  1.0
  C  C542  1  0.200500  0.883400  0.132600  1.0
  C  C543  1  0.883400  0.200500  0.867400  1.0
  C  C544  1  0.299500  0.383400  0.617400  1.0
  C  C545  1  0.641700  0.671200  0.846000  1.0
  C  C546  1  0.828800  0.141700  0.596000  1.0
  C  C547  1  0.141700  0.828800  0.404000  1.0
  C  C548  1  0.358300  0.328800  0.346000  1.0
  C  C549  1  0.671200  0.641700  0.154000  1.0
  C  C550  1  0.171200  0.858300  0.096000  1.0
  C  C551  1  0.858300  0.171200  0.904000  1.0
  C  C552  1  0.328800  0.358300  0.654000  1.0
  C  C553  1  0.615300  0.762900  0.880200  1.0
  C  C554  1  0.737100  0.115300  0.630200  1.0
  C  C555  1  0.115300  0.737100  0.369800  1.0
  C  C556  1  0.384700  0.237100  0.380200  1.0
  C  C557  1  0.762900  0.615300  0.119800  1.0
  C  C558  1  0.262900  0.884700  0.130200  1.0
  C  C559  1  0.884700  0.262900  0.869800  1.0
  C  C560  1  0.237100  0.384700  0.619800  1.0
  C  C561  1  0.612100  0.071000  0.989000  1.0
  C  C562  1  0.429000  0.112100  0.739000  1.0
  C  C563  1  0.112100  0.429000  0.261000  1.0
  C  C564  1  0.387900  0.929000  0.489000  1.0
  C  C565  1  0.071000  0.612100  0.011000  1.0
  C  C566  1  0.571000  0.887900  0.239000  1.0
  C  C567  1  0.887900  0.571000  0.761000  1.0
  C  C568  1  0.929000  0.387900  0.511000  1.0
  C  C569  1  0.663100  0.069700  0.001800  1.0
  C  C570  1  0.430300  0.163100  0.751800  1.0
  C  C571  1  0.163100  0.430300  0.248200  1.0
  C  C572  1  0.336900  0.930300  0.501800  1.0
  C  C573  1  0.069700  0.663100  0.998200  1.0
  C  C574  1  0.569700  0.836900  0.251800  1.0
  C  C575  1  0.836900  0.569700  0.748200  1.0
  C  C576  1  0.930300  0.336900  0.498200  1.0
  C  C577  1  0.677300  0.028400  0.039100  1.0
  C  C578  1  0.471600  0.177300  0.789100  1.0
  C  C579  1  0.177300  0.471600  0.210900  1.0
  C  C580  1  0.322700  0.971600  0.539100  1.0
  C  C581  1  0.028400  0.677300  0.960900  1.0
  C  C582  1  0.528400  0.822700  0.289100  1.0
  C  C583  1  0.822700  0.528400  0.710900  1.0
  C  C584  1  0.971600  0.322700  0.460900  1.0
  C  C585  1  0.635800  0.993100  0.053700  1.0
  C  C586  1  0.506900  0.135800  0.803700  1.0
  C  C587  1  0.135800  0.506900  0.196300  1.0
  C  C588  1  0.364200  0.006900  0.553700  1.0
  C  C589  1  0.993100  0.635800  0.946300  1.0
  C  C590  1  0.493100  0.864200  0.303700  1.0
  C  C591  1  0.864200  0.493100  0.696300  1.0
  C  C592  1  0.006900  0.364200  0.446300  1.0
  C  C593  1  0.583000  0.998100  0.035900  1.0
  C  C594  1  0.501900  0.083000  0.785900  1.0
  C  C595  1  0.083000  0.501900  0.214100  1.0
  C  C596  1  0.417000  0.001900  0.535900  1.0
  C  C597  1  0.998100  0.583000  0.964100  1.0
  C  C598  1  0.498100  0.917000  0.285900  1.0
  C  C599  1  0.917000  0.498100  0.714100  1.0
  C  C600  1  0.001900  0.417000  0.464100  1.0
  C  C601  1  0.648400  0.948700  0.089900  1.0
  C  C602  1  0.551300  0.148400  0.839900  1.0
  C  C603  1  0.148400  0.551300  0.160100  1.0
  C  C604  1  0.351600  0.051300  0.589900  1.0
  C  C605  1  0.948700  0.648400  0.910100  1.0
  C  C606  1  0.448700  0.851600  0.339900  1.0
  C  C607  1  0.851600  0.448700  0.660100  1.0
  C  C608  1  0.051300  0.351600  0.410100  1.0
  C  C609  1  0.899300  0.855200  0.785900  1.0
  C  C610  1  0.644800  0.399300  0.535900  1.0
  C  C611  1  0.399300  0.644800  0.464100  1.0
  C  C612  1  0.100700  0.144800  0.285900  1.0
  C  C613  1  0.855200  0.899300  0.214100  1.0
  C  C614  1  0.355200  0.600700  0.035900  1.0
  C  C615  1  0.600700  0.355200  0.964100  1.0
  C  C616  1  0.144800  0.100700  0.714100  1.0
  C  C617  1  0.938000  0.851400  0.818700  1.0
  C  C618  1  0.648600  0.438000  0.568700  1.0
  C  C619  1  0.438000  0.648600  0.431300  1.0
  C  C620  1  0.062000  0.148600  0.318700  1.0
  C  C621  1  0.851400  0.938000  0.181300  1.0
  C  C622  1  0.351400  0.562000  0.068700  1.0
  C  C623  1  0.562000  0.351400  0.931300  1.0
  C  C624  1  0.148600  0.062000  0.681300  1.0
  C  C625  1  0.942400  0.802600  0.843300  1.0
  C  C626  1  0.697400  0.442400  0.593300  1.0
  C  C627  1  0.442400  0.697400  0.406700  1.0
  C  C628  1  0.057600  0.197400  0.343300  1.0
  C  C629  1  0.802600  0.942400  0.156700  1.0
  C  C630  1  0.302600  0.557600  0.093300  1.0
  C  C631  1  0.557600  0.302600  0.906700  1.0
  C  C632  1  0.197400  0.057600  0.656700  1.0
  C  C633  1  0.904000  0.762000  0.834500  1.0
  C  C634  1  0.738000  0.404000  0.584500  1.0
  C  C635  1  0.404000  0.738000  0.415500  1.0
  C  C636  1  0.096000  0.238000  0.334500  1.0
  C  C637  1  0.762000  0.904000  0.165500  1.0
  C  C638  1  0.262000  0.596000  0.084500  1.0
  C  C639  1  0.596000  0.262000  0.915500  1.0
  C  C640  1  0.238000  0.096000  0.665500  1.0
  C  C641  1  0.865400  0.769100  0.799000  1.0
  C  C642  1  0.730900  0.365400  0.549000  1.0
  C  C643  1  0.365400  0.730900  0.451000  1.0
  C  C644  1  0.134600  0.230900  0.299000  1.0
  C  C645  1  0.769100  0.865400  0.201000  1.0
  C  C646  1  0.269100  0.634600  0.049000  1.0
  C  C647  1  0.634600  0.269100  0.951000  1.0
  C  C648  1  0.230900  0.134600  0.701000  1.0
  C  C649  1  0.705800  0.907200  0.139800  1.0
  C  C650  1  0.592800  0.205800  0.889800  1.0
  C  C651  1  0.205800  0.592800  0.110200  1.0
  C  C652  1  0.294200  0.092800  0.639800  1.0
  C  C653  1  0.907200  0.705800  0.860200  1.0
  C  C654  1  0.407200  0.794200  0.389800  1.0
  C  C655  1  0.794200  0.407200  0.610200  1.0
  C  C656  1  0.092800  0.294200  0.360200  1.0
  C  C657  1  0.746500  0.507800  0.844700  1.0
  C  C658  1  0.992200  0.246500  0.594700  1.0
  C  C659  1  0.246500  0.992200  0.405300  1.0
  C  C660  1  0.253500  0.492200  0.344700  1.0
  C  C661  1  0.507800  0.746500  0.155300  1.0
  C  C662  1  0.007800  0.753500  0.094700  1.0
  C  C663  1  0.753500  0.007800  0.905300  1.0
  C  C664  1  0.492200  0.253500  0.655300  1.0
  C  C665  1  0.790400  0.493300  0.873800  1.0
  C  C666  1  0.006700  0.290400  0.623800  1.0
  C  C667  1  0.290400  0.006700  0.376200  1.0
  C  C668  1  0.209600  0.506700  0.373800  1.0
  C  C669  1  0.493300  0.790400  0.126200  1.0
  C  C670  1  0.993300  0.709600  0.123800  1.0
  C  C671  1  0.709600  0.993300  0.876200  1.0
  C  C672  1  0.506700  0.209600  0.626200  1.0
  C  C673  1  0.832400  0.526300  0.884500  1.0
  C  C674  1  0.973700  0.332400  0.634500  1.0
  C  C675  1  0.332400  0.973700  0.365500  1.0
  C  C676  1  0.167600  0.473700  0.384500  1.0
  C  C677  1  0.526300  0.832400  0.115500  1.0
  C  C678  1  0.026300  0.667600  0.134500  1.0
  C  C679  1  0.667600  0.026300  0.865500  1.0
  C  C680  1  0.473700  0.167600  0.615500  1.0
  C  C681  1  0.828600  0.578000  0.862100  1.0
  C  C682  1  0.922000  0.328600  0.612100  1.0
  C  C683  1  0.328600  0.922000  0.387900  1.0
  C  C684  1  0.171400  0.422000  0.362100  1.0
  C  C685  1  0.578000  0.828600  0.137900  1.0
  C  C686  1  0.078000  0.671400  0.112100  1.0
  C  C687  1  0.671400  0.078000  0.887900  1.0
  C  C688  1  0.422000  0.171400  0.637900  1.0
  C  C689  1  0.782400  0.593300  0.833100  1.0
  C  C690  1  0.906700  0.282400  0.583100  1.0
  C  C691  1  0.282400  0.906700  0.416900  1.0
  C  C692  1  0.217600  0.406700  0.333100  1.0
  C  C693  1  0.593300  0.782400  0.166900  1.0
  C  C694  1  0.093300  0.717600  0.083100  1.0
  C  C695  1  0.717600  0.093300  0.916900  1.0
  C  C696  1  0.406700  0.217600  0.666900  1.0
  C  C697  1  0.620300  0.872700  0.127900  1.0
  C  C698  1  0.627300  0.120300  0.877900  1.0
  C  C699  1  0.120300  0.627300  0.122100  1.0
  C  C700  1  0.379700  0.127300  0.627900  1.0
  C  C701  1  0.872700  0.620300  0.872100  1.0
  C  C702  1  0.372700  0.879700  0.377900  1.0
  C  C703  1  0.879700  0.372700  0.622100  1.0
  C  C704  1  0.127300  0.379700  0.372100  1.0
  C  C705  1  0.398300  0.098600  0.949000  1.0
  C  C706  1  0.401400  0.898300  0.699000  1.0
  C  C707  1  0.898300  0.401400  0.301000  1.0
  C  C708  1  0.601700  0.901400  0.449000  1.0
  C  C709  1  0.098600  0.398300  0.051000  1.0
  C  C710  1  0.598600  0.101700  0.199000  1.0
  C  C711  1  0.101700  0.598600  0.801000  1.0
  C  C712  1  0.901400  0.601700  0.551000  1.0
  C  C713  1  0.432900  0.133600  0.958000  1.0
  C  C714  1  0.366400  0.932900  0.708000  1.0
  C  C715  1  0.932900  0.366400  0.292000  1.0
  C  C716  1  0.567100  0.866400  0.458000  1.0
  C  C717  1  0.133600  0.432900  0.042000  1.0
  C  C718  1  0.633600  0.067100  0.208000  1.0
  C  C719  1  0.067100  0.633600  0.792000  1.0
  C  C720  1  0.866400  0.567100  0.542000  1.0
  C  C721  1  0.836200  0.780900  0.628900  1.0
  C  C722  1  0.719100  0.336200  0.378900  1.0
  C  C723  1  0.336200  0.719100  0.621100  1.0
  C  C724  1  0.163800  0.219100  0.128900  1.0
  C  C725  1  0.780900  0.836200  0.371100  1.0
  C  C726  1  0.280900  0.663800  0.878900  1.0
  C  C727  1  0.663800  0.280900  0.121100  1.0
  C  C728  1  0.219100  0.163800  0.871100  1.0
  C  C729  1  0.783000  0.789000  0.623700  1.0
  C  C730  1  0.711000  0.283000  0.373700  1.0
  C  C731  1  0.283000  0.711000  0.626300  1.0
  C  C732  1  0.217000  0.211000  0.123700  1.0
  C  C733  1  0.789000  0.783000  0.376300  1.0
  C  C734  1  0.289000  0.717000  0.873700  1.0
  C  C735  1  0.717000  0.289000  0.126300  1.0
  C  C736  1  0.211000  0.217000  0.876300  1.0
  C  C737  1  0.658000  0.562000  0.687300  1.0
  C  C738  1  0.938000  0.158000  0.437300  1.0
  C  C739  1  0.158000  0.938000  0.562700  1.0
  C  C740  1  0.342000  0.438000  0.187300  1.0
  C  C741  1  0.562000  0.658000  0.312700  1.0
  C  C742  1  0.062000  0.842000  0.937300  1.0
  C  C743  1  0.842000  0.062000  0.062700  1.0
  C  C744  1  0.438000  0.342000  0.812700  1.0
  C  C745  1  0.611500  0.569000  0.707000  1.0
  C  C746  1  0.931000  0.111500  0.457000  1.0
  C  C747  1  0.111500  0.931000  0.543000  1.0
  C  C748  1  0.388500  0.431000  0.207000  1.0
  C  C749  1  0.569000  0.611500  0.293000  1.0
  C  C750  1  0.069000  0.888500  0.957000  1.0
  C  C751  1  0.888500  0.069000  0.043000  1.0
  C  C752  1  0.431000  0.388500  0.793000  1.0
  C  C753  1  0.877600  0.813600  0.952600  1.0
  C  C754  1  0.686400  0.377600  0.702600  1.0
  C  C755  1  0.377600  0.686400  0.297400  1.0
  C  C756  1  0.122400  0.186400  0.452600  1.0
  C  C757  1  0.813600  0.877600  0.047400  1.0
  C  C758  1  0.313600  0.622400  0.202600  1.0
  C  C759  1  0.622400  0.313600  0.797400  1.0
  C  C760  1  0.186400  0.122400  0.547400  1.0
  C  C761  1  0.895300  0.865700  0.938800  1.0
  C  C762  1  0.634300  0.395300  0.688800  1.0
  C  C763  1  0.395300  0.634300  0.311200  1.0
  C  C764  1  0.104700  0.134300  0.438800  1.0
  C  C765  1  0.865700  0.895300  0.061200  1.0
  C  C766  1  0.365700  0.604700  0.188800  1.0
  C  C767  1  0.604700  0.365700  0.811200  1.0
  C  C768  1  0.134300  0.104700  0.561200  1.0
  C  C769  1  0.861900  0.898300  0.910100  1.0
  C  C770  1  0.601700  0.361900  0.660100  1.0
  C  C771  1  0.361900  0.601700  0.339900  1.0
  C  C772  1  0.138100  0.101700  0.410100  1.0
  C  C773  1  0.898300  0.861900  0.089900  1.0
  C  C774  1  0.398300  0.638100  0.160100  1.0
  C  C775  1  0.638100  0.398300  0.839900  1.0
  C  C776  1  0.101700  0.138100  0.589900  1.0
  C  C777  1  0.810900  0.878900  0.895200  1.0
  C  C778  1  0.621100  0.310900  0.645200  1.0
  C  C779  1  0.310900  0.621100  0.354800  1.0
  C  C780  1  0.189100  0.121100  0.395200  1.0
  C  C781  1  0.878900  0.810900  0.104800  1.0
  C  C782  1  0.378900  0.689100  0.145200  1.0
  C  C783  1  0.689100  0.378900  0.854800  1.0
  C  C784  1  0.121100  0.189100  0.604800  1.0
  C  C785  1  0.793200  0.826900  0.909000  1.0
  C  C786  1  0.673100  0.293200  0.659000  1.0
  C  C787  1  0.293200  0.673100  0.341000  1.0
  C  C788  1  0.206800  0.173100  0.409000  1.0
  C  C789  1  0.826900  0.793200  0.091000  1.0
  C  C790  1  0.326900  0.706800  0.159000  1.0
  C  C791  1  0.706800  0.326900  0.841000  1.0
  C  C792  1  0.173100  0.206800  0.591000  1.0
  C  C793  1  0.826600  0.794200  0.937700  1.0
  C  C794  1  0.705800  0.326600  0.687700  1.0
  C  C795  1  0.326600  0.705800  0.312300  1.0
  C  C796  1  0.173400  0.205800  0.437700  1.0
  C  C797  1  0.794200  0.826600  0.062300  1.0
  C  C798  1  0.294200  0.673400  0.187700  1.0
  C  C799  1  0.673400  0.294200  0.812300  1.0
  C  C800  1  0.205800  0.173400  0.562300  1.0
  C  C801  1  0.810000  0.743700  0.950200  1.0
  C  C802  1  0.756300  0.310000  0.700200  1.0
  C  C803  1  0.310000  0.756300  0.299800  1.0
  C  C804  1  0.190000  0.256300  0.450200  1.0
  C  C805  1  0.743700  0.810000  0.049800  1.0
  C  C806  1  0.243700  0.690000  0.200200  1.0
  C  C807  1  0.690000  0.243700  0.799800  1.0
  C  C808  1  0.256300  0.190000  0.549800  1.0
  C  C809  1  0.760900  0.716300  0.936800  1.0
  C  C810  1  0.783700  0.260900  0.686800  1.0
  C  C811  1  0.260900  0.783700  0.313200  1.0
  C  C812  1  0.239100  0.283700  0.436800  1.0
  C  C813  1  0.716300  0.760900  0.063200  1.0
  C  C814  1  0.216300  0.739100  0.186800  1.0
  C  C815  1  0.739100  0.216300  0.813200  1.0
  C  C816  1  0.283700  0.239100  0.563200  1.0
  C  C817  1  0.748100  0.659800  0.947900  1.0
  C  C818  1  0.840200  0.248100  0.697900  1.0
  C  C819  1  0.248100  0.840200  0.302100  1.0
  C  C820  1  0.251900  0.340200  0.447900  1.0
  C  C821  1  0.659800  0.748100  0.052100  1.0
  C  C822  1  0.159800  0.751900  0.197900  1.0
  C  C823  1  0.751900  0.159800  0.802100  1.0
  C  C824  1  0.340200  0.251900  0.552100  1.0
  C  C825  1  0.783800  0.630700  0.975700  1.0
  C  C826  1  0.869300  0.283800  0.725700  1.0
  C  C827  1  0.283800  0.869300  0.274300  1.0
  C  C828  1  0.216200  0.369300  0.475700  1.0
  C  C829  1  0.630700  0.783800  0.024300  1.0
  C  C830  1  0.130700  0.716200  0.225700  1.0
  C  C831  1  0.716200  0.130700  0.774300  1.0
  C  C832  1  0.369300  0.216200  0.524300  1.0
  C  C833  1  0.835000  0.660100  0.988500  1.0
  C  C834  1  0.839900  0.335000  0.738500  1.0
  C  C835  1  0.335000  0.839900  0.261500  1.0
  C  C836  1  0.165000  0.339900  0.488500  1.0
  C  C837  1  0.660100  0.835000  0.011500  1.0
  C  C838  1  0.160100  0.665000  0.238500  1.0
  C  C839  1  0.665000  0.160100  0.761500  1.0
  C  C840  1  0.339900  0.165000  0.511500  1.0
  C  C841  1  0.843200  0.710700  0.979200  1.0
  C  C842  1  0.789300  0.343200  0.729200  1.0
  C  C843  1  0.343200  0.789300  0.270800  1.0
  C  C844  1  0.156800  0.289300  0.479200  1.0
  C  C845  1  0.710700  0.843200  0.020800  1.0
  C  C846  1  0.210700  0.656800  0.229200  1.0
  C  C847  1  0.656800  0.210700  0.770800  1.0
  C  C848  1  0.289300  0.156800  0.520800  1.0
  N  N849  1  0.332900  0.869700  0.069600  1
  N  N850  1  0.630300  0.832900  0.819600  1
  N  N851  1  0.832900  0.630300  0.180400  1
  N  N852  1  0.667100  0.130300  0.569600  1
  N  N853  1  0.869700  0.332900  0.930400  1
  N  N854  1  0.369700  0.167100  0.319600  1
  N  N855  1  0.167100  0.369700  0.680400  1
  N  N856  1  0.130300  0.667100  0.430400  1
  N  N857  1  0.495000  0.953100  0.966400  1.0
  N  N858  1  0.546900  0.995000  0.716400  1.0
  N  N859  1  0.995000  0.546900  0.283600  1.0
  N  N860  1  0.505000  0.046900  0.466400  1.0
  N  N861  1  0.953100  0.495000  0.033600  1.0
  N  N862  1  0.453100  0.005000  0.216400  1.0
  N  N863  1  0.005000  0.453100  0.783600  1.0
  N  N864  1  0.046900  0.505000  0.533600  1.0
  N  N865  1  0.758000  0.871000  0.764100  1.0
  N  N866  1  0.629000  0.258000  0.514100  1.0
  N  N867  1  0.258000  0.629000  0.485900  1.0
  N  N868  1  0.242000  0.129000  0.264100  1.0
  N  N869  1  0.871000  0.758000  0.235900  1.0
  N  N870  1  0.371000  0.742000  0.014100  1.0
  N  N871  1  0.742000  0.371000  0.985900  1.0
  N  N872  1  0.129000  0.242000  0.735900  1.0
  N  N873  1  0.644100  0.617800  0.842800  1.0
  N  N874  1  0.882200  0.144100  0.592800  1.0
  N  N875  1  0.144100  0.882200  0.407200  1.0
  N  N876  1  0.355900  0.382200  0.342800  1.0
  N  N877  1  0.617800  0.644100  0.157200  1.0
  N  N878  1  0.117800  0.855900  0.092800  1.0
  N  N879  1  0.855900  0.117800  0.907200  1.0
  N  N880  1  0.382200  0.355900  0.657200  1.0
  N  N881  1  0.610300  0.871800  0.878100  1.0
  N  N882  1  0.628200  0.110300  0.628100  1.0
  N  N883  1  0.110300  0.628200  0.371900  1.0
  N  N884  1  0.389700  0.128200  0.378100  1.0
  N  N885  1  0.871800  0.610300  0.121900  1.0
  N  N886  1  0.371800  0.889700  0.128100  1.0
  N  N887  1  0.889700  0.371800  0.871900  1.0
  N  N888  1  0.128200  0.389700  0.621900  1.0
  N  N889  1  0.650700  0.788300  0.853000  1.0
  N  N890  1  0.711700  0.150700  0.603000  1.0
  N  N891  1  0.150700  0.711700  0.397000  1.0
  N  N892  1  0.349300  0.211700  0.353000  1.0
  N  N893  1  0.788300  0.650700  0.147000  1.0
  N  N894  1  0.288300  0.849300  0.103000  1.0
  N  N895  1  0.849300  0.288300  0.897000  1.0
  N  N896  1  0.211700  0.349300  0.647000  1.0
  N  N897  1  0.576900  0.787500  0.908100  1.0
  N  N898  1  0.712500  0.076900  0.658100  1.0
  N  N899  1  0.076900  0.712500  0.341900  1.0
  N  N900  1  0.423100  0.212500  0.408100  1.0
  N  N901  1  0.787500  0.576900  0.091900  1.0
  N  N902  1  0.287500  0.923100  0.158100  1.0
  N  N903  1  0.923100  0.287500  0.841900  1.0
  N  N904  1  0.212500  0.423100  0.591900  1.0
  N  N905  1  0.570900  0.035000  0.003300  1.0
  N  N906  1  0.465000  0.070900  0.753300  1.0
  N  N907  1  0.070900  0.465000  0.246700  1.0
  N  N908  1  0.429100  0.965000  0.503300  1.0
  N  N909  1  0.035000  0.570900  0.996700  1.0
  N  N910  1  0.535000  0.929100  0.253300  1.0
  N  N911  1  0.929100  0.535000  0.746700  1.0
  N  N912  1  0.965000  0.429100  0.496700  1.0
  N  N913  1  0.862000  0.815900  0.774700  1.0
  N  N914  1  0.684100  0.362000  0.524700  1.0
  N  N915  1  0.362000  0.684100  0.475300  1.0
  N  N916  1  0.138000  0.184100  0.274700  1.0
  N  N917  1  0.815900  0.862000  0.225300  1.0
  N  N918  1  0.315900  0.638000  0.024700  1.0
  N  N919  1  0.638000  0.315900  0.975300  1.0
  N  N920  1  0.184100  0.138000  0.725300  1.0
  N  N921  1  0.742900  0.557100  0.825000  1.0
  N  N922  1  0.942900  0.242900  0.575000  1.0
  N  N923  1  0.242900  0.942900  0.425000  1.0
  N  N924  1  0.257100  0.442900  0.325000  1.0
  N  N925  1  0.557100  0.742900  0.175000  1.0
  N  N926  1  0.057100  0.757100  0.075000  1.0
  N  N927  1  0.757100  0.057100  0.925000  1.0
  N  N928  1  0.442900  0.257100  0.675000  1.0
  N  N929  1  0.697900  0.947600  0.108900  1.0
  N  N930  1  0.552400  0.197900  0.858900  1.0
  N  N931  1  0.197900  0.552400  0.141100  1.0
  N  N932  1  0.302100  0.052400  0.608900  1.0
  N  N933  1  0.947600  0.697900  0.891100  1.0
  N  N934  1  0.447600  0.802100  0.358900  1.0
  N  N935  1  0.802100  0.447600  0.641100  1.0
  N  N936  1  0.052400  0.302100  0.391100  1.0
  N  N937  1  0.668700  0.867300  0.148500  1.0
  N  N938  1  0.632700  0.168700  0.898500  1.0
  N  N939  1  0.168700  0.632700  0.101500  1.0
  N  N940  1  0.331300  0.132700  0.648500  1.0
  N  N941  1  0.867300  0.668700  0.851500  1.0
  N  N942  1  0.367300  0.831300  0.398500  1.0
  N  N943  1  0.831300  0.367300  0.601500  1.0
  N  N944  1  0.132700  0.331300  0.351500  1.0
  N  N945  1  0.607400  0.912400  0.098100  1.0
  N  N946  1  0.587600  0.107400  0.848100  1.0
  N  N947  1  0.107400  0.587600  0.151900  1.0
  N  N948  1  0.392600  0.087600  0.598100  1.0
  N  N949  1  0.912400  0.607400  0.901900  1.0
  N  N950  1  0.412400  0.892600  0.348100  1.0
  N  N951  1  0.892600  0.412400  0.651900  1.0
  N  N952  1  0.087600  0.392600  0.401900  1.0
  N  N953  1  0.417100  0.040900  0.943100  1.0
  N  N954  1  0.459100  0.917100  0.693100  1.0
  N  N955  1  0.917100  0.459100  0.306900  1.0
  N  N956  1  0.582900  0.959100  0.443100  1.0
  N  N957  1  0.040900  0.417100  0.056900  1.0
  N  N958  1  0.540900  0.082900  0.193100  1.0
  N  N959  1  0.082900  0.540900  0.806900  1.0
  N  N960  1  0.959100  0.582900  0.556900  1.0
  N  N961  1  0.482200  0.116000  0.983300  1.0
  N  N962  1  0.384000  0.982200  0.733300  1.0
  N  N963  1  0.982200  0.384000  0.266700  1.0
  N  N964  1  0.517800  0.884000  0.483300  1.0
  N  N965  1  0.116000  0.482200  0.016700  1.0
  N  N966  1  0.616000  0.017800  0.233300  1.0
  N  N967  1  0.017800  0.616000  0.766700  1.0
  N  N968  1  0.884000  0.517800  0.516700  1.0
  N  N969  1  0.854400  0.776200  0.678800  1.0
  N  N970  1  0.723800  0.354400  0.428800  1.0
  N  N971  1  0.354400  0.723800  0.571200  1.0
  N  N972  1  0.145600  0.223800  0.178800  1.0
  N  N973  1  0.776200  0.854400  0.321200  1.0
  N  N974  1  0.276200  0.645600  0.928800  1.0
  N  N975  1  0.645600  0.276200  0.071200  1.0
  N  N976  1  0.223800  0.145600  0.821200  1.0
  N  N977  1  0.760300  0.830400  0.661200  1.0
  N  N978  1  0.669600  0.260300  0.411200  1.0
  N  N979  1  0.260300  0.669600  0.588800  1.0
  N  N980  1  0.239700  0.169600  0.161200  1.0
  N  N981  1  0.830400  0.760300  0.338800  1.0
  N  N982  1  0.330400  0.739700  0.911200  1.0
  N  N983  1  0.739700  0.330400  0.088800  1.0
  N  N984  1  0.169600  0.239700  0.838800  1.0
  N  N985  1  0.704900  0.541400  0.727100  1.0
  N  N986  1  0.958600  0.204900  0.477100  1.0
  N  N987  1  0.204900  0.958600  0.522900  1.0
  N  N988  1  0.295100  0.458600  0.227100  1.0
  N  N989  1  0.541400  0.704900  0.272900  1.0
  N  N990  1  0.041400  0.795100  0.977100  1.0
  N  N991  1  0.795100  0.041400  0.022900  1.0
  N  N992  1  0.458600  0.295100  0.772900  1.0
  N  N993  1  0.610900  0.595200  0.747900  1.0
  N  N994  1  0.904800  0.110900  0.497900  1.0
  N  N995  1  0.110900  0.904800  0.502100  1.0
  N  N996  1  0.389100  0.404800  0.247900  1.0
  N  N997  1  0.595200  0.610900  0.252100  1.0
  N  N998  1  0.095200  0.889100  0.997900  1.0
  N  N999  1  0.889100  0.095200  0.002100  1.0
  N  N1000  1  0.404800  0.389100  0.752100  1.0
  N  N1001  1  0.809900  0.988600  0.787500  1.0
  N  N1002  1  0.511400  0.309900  0.537500  1.0
  N  N1003  1  0.309900  0.511400  0.462500  1.0
  N  N1004  1  0.190100  0.011400  0.287500  1.0
  N  N1005  1  0.988600  0.809900  0.212500  1.0
  N  N1006  1  0.488600  0.690100  0.037500  1.0
  N  N1007  1  0.690100  0.488600  0.962500  1.0
  N  N1008  1  0.011400  0.190100  0.712500  1.0
  O  O1009  1  0.944500  0.944500  0.000000  1
  O  O1010  1  0.555500  0.444500  0.750000  1
  O  O1011  1  0.444500  0.555500  0.250000  1
  O  O1012  1  0.055500  0.055500  0.500000  1
  O  O1013  1  0.338800  0.879900  0.026400  1
  O  O1014  1  0.620100  0.838800  0.776400  1
  O  O1015  1  0.838800  0.620100  0.223600  1
  O  O1016  1  0.661200  0.120100  0.526400  1
  O  O1017  1  0.879900  0.338800  0.973600  1
  O  O1018  1  0.379900  0.161200  0.276400  1
  O  O1019  1  0.161200  0.379900  0.723600  1
  O  O1020  1  0.120100  0.661200  0.473600  1
  O  O1021  1  0.334600  0.990600  0.006200  1
  O  O1022  1  0.509400  0.834600  0.756200  1
  O  O1023  1  0.834600  0.509400  0.243800  1
  O  O1024  1  0.665400  0.009400  0.506200  1
  O  O1025  1  0.990600  0.334600  0.993800  1
  O  O1026  1  0.490600  0.165400  0.256200  1
  O  O1027  1  0.165400  0.490600  0.743800  1
  O  O1028  1  0.009400  0.665400  0.493800  1
  O  O1029  1  0.791800  0.715300  0.510900  1
  O  O1030  1  0.784700  0.291800  0.260900  1
  O  O1031  1  0.291800  0.784700  0.739100  1
  O  O1032  1  0.208200  0.284700  0.010900  1
  O  O1033  1  0.715300  0.791800  0.489100  1
  O  O1034  1  0.215300  0.708200  0.760900  1
  O  O1035  1  0.708200  0.215300  0.239100  1
  O  O1036  1  0.284700  0.208200  0.989100  1
  O  O1037  1  0.554900  0.485700  0.959900  1
  O  O1038  1  0.014300  0.054900  0.709900  1
  O  O1039  1  0.054900  0.014300  0.290100  1
  O  O1040  1  0.445100  0.514300  0.459900  1
  O  O1041  1  0.485700  0.554900  0.040100  1
  O  O1042  1  0.985700  0.945100  0.209900  1
  O  O1043  1  0.945100  0.985700  0.790100  1
  O  O1044  1  0.514300  0.445100  0.540100  1
  O  O1045  1  0.873000  0.966000  0.679400  1
  O  O1046  1  0.534000  0.373000  0.429400  1
  O  O1047  1  0.373000  0.534000  0.570600  1
  O  O1048  1  0.127000  0.034000  0.179400  1
  O  O1049  1  0.966000  0.873000  0.320600  1
  O  O1050  1  0.466000  0.627000  0.929400  1
  O  O1051  1  0.627000  0.466000  0.070600  1
  O  O1052  1  0.034000  0.127000  0.820600  1
  O  O1053  1  0.892000  0.749000  0.519300  1
  O  O1054  1  0.751000  0.392000  0.269300  1
  O  O1055  1  0.392000  0.751000  0.730700  1
  O  O1056  1  0.108000  0.251000  0.019300  1
  O  O1057  1  0.749000  0.892000  0.480700  1
  O  O1058  1  0.249000  0.608000  0.769300  1
  O  O1059  1  0.608000  0.249000  0.230700  1
  O  O1060  1  0.251000  0.108000  0.980700  1
  O  O1061  1  0.927000  0.802000  0.487000  1
  O  O1062  1  0.698000  0.427000  0.237000  1
  O  O1063  1  0.427000  0.698000  0.763000  1
  O  O1064  1  0.073000  0.198000  0.987000  1
  O  O1065  1  0.802000  0.927000  0.513000  1
  O  O1066  1  0.302000  0.573000  0.737000  1
  O  O1067  1  0.573000  0.302000  0.263000  1
  O  O1068  1  0.198000  0.073000  0.013000  1
  O  O1069  1  0.020000  0.895000  0.157000  1
  O  O1070  1  0.605000  0.520000  0.907000  1
  O  O1071  1  0.520000  0.605000  0.093000  1
  O  O1072  1  0.980000  0.105000  0.657000  1
  O  O1073  1  0.895000  0.020000  0.843000  1
  O  O1074  1  0.395000  0.480000  0.407000  1
  O  O1075  1  0.480000  0.395000  0.593000  1
  O  O1076  1  0.105000  0.980000  0.343000  1
  O  O1077  1  0.362600  0.835600  0.083100  1
  O  O1078  1  0.664400  0.862600  0.833100  1
  O  O1079  1  0.862600  0.664400  0.166900  1
  O  O1080  1  0.637400  0.164400  0.583100  1
  O  O1081  1  0.835600  0.362600  0.916900  1
  O  O1082  1  0.335600  0.137400  0.333100  1
  O  O1083  1  0.137400  0.335600  0.666900  1
  O  O1084  1  0.164400  0.637400  0.416900  1
  O  O1085  1  0.294100  0.899000  0.092400  1
  O  O1086  1  0.601000  0.794100  0.842400  1
  O  O1087  1  0.794100  0.601000  0.157600  1
  O  O1088  1  0.705900  0.101000  0.592400  1
  O  O1089  1  0.899000  0.294100  0.907600  1
  O  O1090  1  0.399000  0.205900  0.342400  1
  O  O1091  1  0.205900  0.399000  0.657600  1
  O  O1092  1  0.101000  0.705900  0.407600  1
  O  O1093  1  0.798000  0.060000  0.705000  1
  O  O1094  1  0.440000  0.298000  0.455000  1
  O  O1095  1  0.298000  0.440000  0.545000  1
  O  O1096  1  0.202000  0.940000  0.205000  1
  O  O1097  1  0.060000  0.798000  0.295000  1
  O  O1098  1  0.560000  0.702000  0.955000  1
  O  O1099  1  0.702000  0.560000  0.045000  1
  O  O1100  1  0.940000  0.202000  0.795000  1
  O  O1101  1  0.888700  0.997000  0.760700  1
  O  O1102  1  0.503000  0.388700  0.510700  1
  O  O1103  1  0.388700  0.503000  0.489300  1
  O  O1104  1  0.111300  0.003000  0.260700  1
  O  O1105  1  0.997000  0.888700  0.239300  1
  O  O1106  1  0.497000  0.611300  0.010700  1
  O  O1107  1  0.611300  0.497000  0.989300  1
  O  O1108  1  0.003000  0.111300  0.739300  1
  O  O1109  1  0.157000  0.788000  0.156000  1
  O  O1110  1  0.712000  0.657000  0.906000  1
  O  O1111  1  0.657000  0.712000  0.094000  1
  O  O1112  1  0.843000  0.212000  0.656000  1
  O  O1113  1  0.788000  0.157000  0.844000  1
  O  O1114  1  0.288000  0.343000  0.406000  1
  O  O1115  1  0.343000  0.288000  0.594000  1
  O  O1116  1  0.212000  0.843000  0.344000  1
  O  O1117  1  0.979500  0.867300  0.970100  1.0
  O  O1118  1  0.632700  0.479500  0.720100  1.0
  O  O1119  1  0.479500  0.632700  0.279900  1.0
  O  O1120  1  0.020500  0.132700  0.470100  1.0
  O  O1121  1  0.867300  0.979500  0.029900  1.0
  O  O1122  1  0.367300  0.520500  0.220100  1.0
  O  O1123  1  0.520500  0.367300  0.779900  1.0
  O  O1124  1  0.132700  0.020500  0.529900  1.0
  O  O1125  1  0.979700  0.963900  0.907600  1.0
  O  O1126  1  0.536100  0.479700  0.657600  1.0
  O  O1127  1  0.479700  0.536100  0.342400  1.0
  O  O1128  1  0.020300  0.036100  0.407600  1.0
  O  O1129  1  0.963900  0.979700  0.092400  1.0
  O  O1130  1  0.463900  0.520300  0.157600  1.0
  O  O1131  1  0.520300  0.463900  0.842400  1.0
  O  O1132  1  0.036100  0.020300  0.592400  1.0
  O  O1133  1  0.764900  0.971900  0.777400  1.0
  O  O1134  1  0.528100  0.264900  0.527400  1.0
  O  O1135  1  0.264900  0.528100  0.472600  1.0
  O  O1136  1  0.235100  0.028100  0.277400  1.0
  O  O1137  1  0.971900  0.764900  0.222600  1.0
  O  O1138  1  0.471900  0.735100  0.027400  1.0
  O  O1139  1  0.735100  0.471900  0.972600  1.0
  O  O1140  1  0.028100  0.235100  0.722600  1.0
  O  O1141  1  0.833000  0.029300  0.768800  1.0
  O  O1142  1  0.470700  0.333000  0.518800  1.0
  O  O1143  1  0.333000  0.470700  0.481200  1.0
  O  O1144  1  0.167000  0.970700  0.268800  1.0
  O  O1145  1  0.029300  0.833000  0.231200  1.0
  O  O1146  1  0.529300  0.667000  0.018800  1.0
  O  O1147  1  0.667000  0.529300  0.981200  1.0
  O  O1148  1  0.970700  0.167000  0.731200  1.0
  O  O1149  1  0.836700  0.963000  0.819200  1.0
  O  O1150  1  0.537000  0.336700  0.569200  1.0
  O  O1151  1  0.336700  0.537000  0.430800  1.0
  O  O1152  1  0.163300  0.037000  0.319200  1.0
  O  O1153  1  0.963000  0.836700  0.180800  1.0
  O  O1154  1  0.463000  0.663300  0.069200  1.0
  O  O1155  1  0.663300  0.463000  0.930800  1.0
  O  O1156  1  0.037000  0.163300  0.680800  1.0
