# generated using pymatgen
data_Ag16H423C493S13(N32O21)3
_symmetry_space_group_name_H-M   'P 1'
_cell_length_a   31.01796070
_cell_length_b   31.01796070
_cell_length_c   31.01796070
_cell_angle_alpha   82.25913999
_cell_angle_beta   82.25913999
_cell_angle_gamma   82.25913999
_symmetry_Int_Tables_number   1
_chemical_formula_structural   Ag16H423C493S13(N32O21)3
_chemical_formula_sum   'Ag32 H846 C986 S26 N192 O126'
_cell_volume   29094.22648367
_cell_formula_units_Z   2
loop_
 _symmetry_equiv_pos_site_id
 _symmetry_equiv_pos_as_xyz
  1  'x, y, z'
loop_
 _atom_site_type_symbol
 _atom_site_label
 _atom_site_symmetry_multiplicity
 _atom_site_fract_x
 _atom_site_fract_y
 _atom_site_fract_z
 _atom_site_occupancy
  Ag  Ag1  1  0.086000  0.900050  0.367690  1
  Ag  Ag2  1  0.367690  0.086000  0.900050  1
  Ag  Ag3  1  0.900050  0.367690  0.086000  1
  Ag  Ag4  1  0.632310  0.914000  0.099950  1
  Ag  Ag5  1  0.099950  0.632310  0.914000  1
  Ag  Ag6  1  0.914000  0.099950  0.632310  1
  Ag  Ag7  1  0.222070  0.752190  0.394030  1
  Ag  Ag8  1  0.394030  0.222070  0.752190  1
  Ag  Ag9  1  0.752190  0.394030  0.222070  1
  Ag  Ag10  1  0.605970  0.777930  0.247810  1
  Ag  Ag11  1  0.247810  0.605970  0.777930  1
  Ag  Ag12  1  0.777930  0.247810  0.605970  1
  Ag  Ag13  1  0.253940  0.900810  0.224340  1
  Ag  Ag14  1  0.224340  0.253940  0.900810  1
  Ag  Ag15  1  0.900810  0.224340  0.253940  1
  Ag  Ag16  1  0.775660  0.746060  0.099190  1
  Ag  Ag17  1  0.099190  0.775660  0.746060  1
  Ag  Ag18  1  0.746060  0.099190  0.775660  1
  Ag  Ag19  1  0.108140  0.757620  0.256560  1
  Ag  Ag20  1  0.256560  0.108140  0.757620  1
  Ag  Ag21  1  0.757620  0.256560  0.108140  1
  Ag  Ag22  1  0.743440  0.891860  0.242380  1
  Ag  Ag23  1  0.242380  0.743440  0.891860  1
  Ag  Ag24  1  0.891860  0.242380  0.743440  1
  Ag  Ag25  1  0.760660  0.760660  0.760660  1
  Ag  Ag26  1  0.239340  0.239340  0.239340  1
  Ag  Ag27  1  0.757230  0.605870  0.629710  1.0
  Ag  Ag28  1  0.629710  0.757230  0.605870  1.0
  Ag  Ag29  1  0.605870  0.629710  0.757230  1.0
  Ag  Ag30  1  0.370290  0.242770  0.394130  1.0
  Ag  Ag31  1  0.394130  0.370290  0.242770  1.0
  Ag  Ag32  1  0.242770  0.394130  0.370290  1.0
  C  C33  1  0.195200  0.907500  0.405000  1
  C  C34  1  0.405000  0.195200  0.907500  1
  C  C35  1  0.907500  0.405000  0.195200  1
  C  C36  1  0.595000  0.804800  0.092500  1
  C  C37  1  0.092500  0.595000  0.804800  1
  C  C38  1  0.804800  0.092500  0.595000  1
  C  C39  1  0.223700  0.869600  0.416500  1
  C  C40  1  0.416500  0.223700  0.869600  1
  C  C41  1  0.869600  0.416500  0.223700  1
  C  C42  1  0.583500  0.776300  0.130400  1
  C  C43  1  0.130400  0.583500  0.776300  1
  C  C44  1  0.776300  0.130400  0.583500  1
  C  C45  1  0.263100  0.861100  0.389800  1
  C  C46  1  0.389800  0.263100  0.861100  1
  C  C47  1  0.861100  0.389800  0.263100  1
  C  C48  1  0.610200  0.736900  0.138900  1
  C  C49  1  0.138900  0.610200  0.736900  1
  C  C50  1  0.736900  0.138900  0.610200  1
  C  C51  1  0.274800  0.889200  0.352100  1
  C  C52  1  0.352100  0.274800  0.889200  1
  C  C53  1  0.889200  0.352100  0.274800  1
  C  C54  1  0.647900  0.725200  0.110800  1
  C  C55  1  0.110800  0.647900  0.725200  1
  C  C56  1  0.725200  0.110800  0.647900  1
  C  C57  1  0.245000  0.926000  0.342700  1
  C  C58  1  0.342700  0.245000  0.926000  1
  C  C59  1  0.926000  0.342700  0.245000  1
  C  C60  1  0.657300  0.755000  0.074000  1
  C  C61  1  0.074000  0.657300  0.755000  1
  C  C62  1  0.755000  0.074000  0.657300  1
  C  C63  1  0.206800  0.935800  0.368400  1
  C  C64  1  0.368400  0.206800  0.935800  1
  C  C65  1  0.935800  0.368400  0.206800  1
  C  C66  1  0.631600  0.793200  0.064200  1
  C  C67  1  0.064200  0.631600  0.793200  1
  C  C68  1  0.793200  0.064200  0.631600  1
  C  C69  1  0.155200  0.919100  0.435200  1
  C  C70  1  0.435200  0.155200  0.919100  1
  C  C71  1  0.919100  0.435200  0.155200  1
  C  C72  1  0.564800  0.844800  0.080900  1
  C  C73  1  0.080900  0.564800  0.844800  1
  C  C74  1  0.844800  0.080900  0.564800  1
  C  C75  1  0.087100  0.929700  0.464800  1
  C  C76  1  0.464800  0.087100  0.929700  1
  C  C77  1  0.929700  0.464800  0.087100  1
  C  C78  1  0.535200  0.912900  0.070300  1
  C  C79  1  0.070300  0.535200  0.912900  1
  C  C80  1  0.912900  0.070300  0.535200  1
  C  C81  1  0.042600  0.934100  0.473400  1
  C  C82  1  0.473400  0.042600  0.934100  1
  C  C83  1  0.934100  0.473400  0.042600  1
  C  C84  1  0.526600  0.957400  0.065900  1
  C  C85  1  0.065900  0.526600  0.957400  1
  C  C86  1  0.957400  0.065900  0.526600  1
  C  C87  1  0.023800  0.948800  0.513800  1
  C  C88  1  0.513800  0.023800  0.948800  1
  C  C89  1  0.948800  0.513800  0.023800  1
  C  C90  1  0.486200  0.976200  0.051200  1
  C  C91  1  0.051200  0.486200  0.976200  1
  C  C92  1  0.976200  0.051200  0.486200  1
  C  C93  1  0.053400  0.958300  0.543400  1
  C  C94  1  0.543400  0.053400  0.958300  1
  C  C95  1  0.958300  0.543400  0.053400  1
  C  C96  1  0.456600  0.946600  0.041700  1
  C  C97  1  0.041700  0.456600  0.946600  1
  C  C98  1  0.946600  0.041700  0.456600  1
  C  C99  1  0.097100  0.955800  0.532800  1
  C  C100  1  0.532800  0.097100  0.955800  1
  C  C101  1  0.955800  0.532800  0.097100  1
  C  C102  1  0.467200  0.902900  0.044200  1
  C  C103  1  0.044200  0.467200  0.902900  1
  C  C104  1  0.902900  0.044200  0.467200  1
  C  C105  1  0.114500  0.940800  0.493500  1
  C  C106  1  0.493500  0.114500  0.940800  1
  C  C107  1  0.940800  0.493500  0.114500  1
  C  C108  1  0.506500  0.885500  0.059200  1
  C  C109  1  0.059200  0.506500  0.885500  1
  C  C110  1  0.885500  0.059200  0.506500  1
  C  C111  1  0.211900  0.840900  0.458200  1
  C  C112  1  0.458200  0.211900  0.840900  1
  C  C113  1  0.840900  0.458200  0.211900  1
  C  C114  1  0.541800  0.788100  0.159100  1
  C  C115  1  0.159100  0.541800  0.788100  1
  C  C116  1  0.788100  0.159100  0.541800  1
  C  C117  1  0.294200  0.821400  0.402000  1
  C  C118  1  0.402000  0.294200  0.821400  1
  C  C119  1  0.821400  0.402000  0.294200  1
  C  C120  1  0.598000  0.705800  0.178600  1
  C  C121  1  0.178600  0.598000  0.705800  1
  C  C122  1  0.705800  0.178600  0.598000  1
  C  C123  1  0.324000  0.755900  0.418200  1
  C  C124  1  0.418200  0.324000  0.755900  1
  C  C125  1  0.755900  0.418200  0.324000  1
  C  C126  1  0.581800  0.676000  0.244100  1
  C  C127  1  0.244100  0.581800  0.676000  1
  C  C128  1  0.676000  0.244100  0.581800  1
  C  C129  1  0.337900  0.710400  0.424600  1
  C  C130  1  0.424600  0.337900  0.710400  1
  C  C131  1  0.710400  0.424600  0.337900  1
  C  C132  1  0.575400  0.662100  0.289600  1
  C  C133  1  0.289600  0.575400  0.662100  1
  C  C134  1  0.662100  0.289600  0.575400  1
  C  C135  1  0.376900  0.694500  0.436600  1
  C  C136  1  0.436600  0.376900  0.694500  1
  C  C137  1  0.694500  0.436600  0.376900  1
  C  C138  1  0.563400  0.623100  0.305500  1
  C  C139  1  0.305500  0.563400  0.623100  1
  C  C140  1  0.623100  0.305500  0.563400  1
  C  C141  1  0.406800  0.723500  0.442200  1
  C  C142  1  0.442200  0.406800  0.723500  1
  C  C143  1  0.723500  0.442200  0.406800  1
  C  C144  1  0.557800  0.593200  0.276500  1
  C  C145  1  0.276500  0.557800  0.593200  1
  C  C146  1  0.593200  0.276500  0.557800  1
  C  C147  1  0.396100  0.767200  0.434100  1
  C  C148  1  0.434100  0.396100  0.767200  1
  C  C149  1  0.767200  0.434100  0.396100  1
  C  C150  1  0.565900  0.603900  0.232800  1
  C  C151  1  0.232800  0.565900  0.603900  1
  C  C152  1  0.603900  0.232800  0.565900  1
  C  C153  1  0.355100  0.784200  0.423300  1
  C  C154  1  0.423300  0.355100  0.784200  1
  C  C155  1  0.784200  0.423300  0.355100  1
  C  C156  1  0.576700  0.644900  0.215800  1
  C  C157  1  0.215800  0.576700  0.644900  1
  C  C158  1  0.644900  0.215800  0.576700  1
  C  C159  1  0.317600  0.881100  0.324000  1
  C  C160  1  0.324000  0.317600  0.881100  1
  C  C161  1  0.881100  0.324000  0.317600  1
  C  C162  1  0.676000  0.682400  0.118900  1
  C  C163  1  0.118900  0.676000  0.682400  1
  C  C164  1  0.682400  0.118900  0.676000  1
  C  C165  1  0.257800  0.959500  0.304800  1
  C  C166  1  0.304800  0.257800  0.959500  1
  C  C167  1  0.959500  0.304800  0.257800  1
  C  C168  1  0.695200  0.742200  0.040500  1
  C  C169  1  0.040500  0.695200  0.742200  1
  C  C170  1  0.742200  0.040500  0.695200  1
  C  C171  1  0.269600  0.997200  0.240300  1
  C  C172  1  0.240300  0.269600  0.997200  1
  C  C173  1  0.997200  0.240300  0.269600  1
  C  C174  1  0.759700  0.730400  0.002800  1
  C  C175  1  0.002800  0.759700  0.730400  1
  C  C176  1  0.730400  0.002800  0.759700  1
  C  C177  1  0.272500  0.014600  0.195700  1
  C  C178  1  0.195700  0.272500  0.014600  1
  C  C179  1  0.014600  0.195700  0.272500  1
  C  C180  1  0.804300  0.727500  0.985400  1
  C  C181  1  0.985400  0.804300  0.727500  1
  C  C182  1  0.727500  0.985400  0.804300  1
  C  C183  1  0.283800  0.055000  0.184500  1
  C  C184  1  0.184500  0.283800  0.055000  1
  C  C185  1  0.055000  0.184500  0.283800  1
  C  C186  1  0.815500  0.716200  0.945000  1
  C  C187  1  0.945000  0.815500  0.716200  1
  C  C188  1  0.716200  0.945000  0.815500  1
  C  C189  1  0.291900  0.079600  0.216000  1
  C  C190  1  0.216000  0.291900  0.079600  1
  C  C191  1  0.079600  0.216000  0.291900  1
  C  C192  1  0.784000  0.708100  0.920400  1
  C  C193  1  0.920400  0.784000  0.708100  1
  C  C194  1  0.708100  0.920400  0.784000  1
  C  C195  1  0.289200  0.065000  0.260000  1
  C  C196  1  0.260000  0.289200  0.065000  1
  C  C197  1  0.065000  0.260000  0.289200  1
  C  C198  1  0.740000  0.710800  0.935000  1
  C  C199  1  0.935000  0.740000  0.710800  1
  C  C200  1  0.710800  0.935000  0.740000  1
  C  C201  1  0.276800  0.022600  0.271900  1
  C  C202  1  0.271900  0.276800  0.022600  1
  C  C203  1  0.022600  0.271900  0.276800  1
  C  C204  1  0.728100  0.723200  0.977400  1
  C  C205  1  0.977400  0.728100  0.723200  1
  C  C206  1  0.723200  0.977400  0.728100  1
  C  C207  1  0.176000  0.977200  0.358700  1
  C  C208  1  0.358700  0.176000  0.977200  1
  C  C209  1  0.977200  0.358700  0.176000  1
  C  C210  1  0.641300  0.824000  0.022800  1
  C  C211  1  0.022800  0.641300  0.824000  1
  C  C212  1  0.824000  0.022800  0.641300  1
  C  C213  1  0.073600  0.722900  0.373400  1
  C  C214  1  0.373400  0.073600  0.722900  1
  C  C215  1  0.722900  0.373400  0.073600  1
  C  C216  1  0.626600  0.926400  0.277100  1
  C  C217  1  0.277100  0.626600  0.926400  1
  C  C218  1  0.926400  0.277100  0.626600  1
  C  C219  1  0.043100  0.761700  0.372900  1
  C  C220  1  0.372900  0.043100  0.761700  1
  C  C221  1  0.761700  0.372900  0.043100  1
  C  C222  1  0.627100  0.956900  0.238300  1
  C  C223  1  0.238300  0.627100  0.956900  1
  C  C224  1  0.956900  0.238300  0.627100  1
  C  C225  1  0.043200  0.791700  0.403100  1
  C  C226  1  0.403100  0.043200  0.791700  1
  C  C227  1  0.791700  0.403100  0.043200  1
  C  C228  1  0.596900  0.956800  0.208300  1
  C  C229  1  0.208300  0.596900  0.956800  1
  C  C230  1  0.956800  0.208300  0.596900  1
  C  C231  1  0.074100  0.782900  0.433800  1
  C  C232  1  0.433800  0.074100  0.782900  1
  C  C233  1  0.782900  0.433800  0.074100  1
  C  C234  1  0.566200  0.925900  0.217100  1
  C  C235  1  0.217100  0.566200  0.925900  1
  C  C236  1  0.925900  0.217100  0.566200  1
  C  C237  1  0.102800  0.745300  0.434900  1
  C  C238  1  0.434900  0.102800  0.745300  1
  C  C239  1  0.745300  0.434900  0.102800  1
  C  C240  1  0.565100  0.897200  0.254700  1
  C  C241  1  0.254700  0.565100  0.897200  1
  C  C242  1  0.897200  0.254700  0.565100  1
  C  C243  1  0.102700  0.715400  0.404300  1
  C  C244  1  0.404300  0.102700  0.715400  1
  C  C245  1  0.715400  0.404300  0.102700  1
  C  C246  1  0.595700  0.897300  0.284600  1
  C  C247  1  0.284600  0.595700  0.897300  1
  C  C248  1  0.897300  0.284600  0.595700  1
  C  C249  1  0.070800  0.692700  0.344300  1
  C  C250  1  0.344300  0.070800  0.692700  1
  C  C251  1  0.692700  0.344300  0.070800  1
  C  C252  1  0.655700  0.929200  0.307300  1
  C  C253  1  0.307300  0.655700  0.929200  1
  C  C254  1  0.929200  0.307300  0.655700  1
  C  C255  1  0.079700  0.656200  0.285800  1
  C  C256  1  0.285800  0.079700  0.656200  1
  C  C257  1  0.656200  0.285800  0.079700  1
  C  C258  1  0.714200  0.920300  0.343800  1
  C  C259  1  0.343800  0.714200  0.920300  1
  C  C260  1  0.920300  0.343800  0.714200  1
  C  C261  1  0.089600  0.642100  0.245900  1
  C  C262  1  0.245900  0.089600  0.642100  1
  C  C263  1  0.642100  0.245900  0.089600  1
  C  C264  1  0.754100  0.910400  0.357900  1
  C  C265  1  0.357900  0.754100  0.910400  1
  C  C266  1  0.910400  0.357900  0.754100  1
  C  C267  1  0.083900  0.599800  0.240500  1
  C  C268  1  0.240500  0.083900  0.599800  1
  C  C269  1  0.599800  0.240500  0.083900  1
  C  C270  1  0.759500  0.916100  0.400200  1
  C  C271  1  0.400200  0.759500  0.916100  1
  C  C272  1  0.916100  0.400200  0.759500  1
  C  C273  1  0.066600  0.570800  0.279300  1
  C  C274  1  0.279300  0.066600  0.570800  1
  C  C275  1  0.570800  0.279300  0.066600  1
  C  C276  1  0.720700  0.933400  0.429200  1
  C  C277  1  0.429200  0.720700  0.933400  1
  C  C278  1  0.933400  0.429200  0.720700  1
  C  C279  1  0.055800  0.586300  0.318700  1
  C  C280  1  0.318700  0.055800  0.586300  1
  C  C281  1  0.586300  0.318700  0.055800  1
  C  C282  1  0.681300  0.944200  0.413700  1
  C  C283  1  0.413700  0.681300  0.944200  1
  C  C284  1  0.944200  0.413700  0.681300  1
  C  C285  1  0.063600  0.627200  0.322800  1
  C  C286  1  0.322800  0.063600  0.627200  1
  C  C287  1  0.627200  0.322800  0.063600  1
  C  C288  1  0.677200  0.936400  0.372800  1
  C  C289  1  0.372800  0.677200  0.936400  1
  C  C290  1  0.936400  0.372800  0.677200  1
  C  C291  1  0.010800  0.771600  0.339800  1
  C  C292  1  0.339800  0.010800  0.771600  1
  C  C293  1  0.771600  0.339800  0.010800  1
  C  C294  1  0.660200  0.989200  0.228400  1
  C  C295  1  0.228400  0.660200  0.989200  1
  C  C296  1  0.989200  0.228400  0.660200  1
  C  C297  1  0.010100  0.831600  0.402300  1
  C  C298  1  0.402300  0.010100  0.831600  1
  C  C299  1  0.831600  0.402300  0.010100  1
  C  C300  1  0.597700  0.989900  0.168400  1
  C  C301  1  0.168400  0.597700  0.989900  1
  C  C302  1  0.989900  0.168400  0.597700  1
  C  C303  1  0.977000  0.897800  0.392600  1
  C  C304  1  0.392600  0.977000  0.897800  1
  C  C305  1  0.897800  0.392600  0.977000  1
  C  C306  1  0.607400  0.023000  0.102200  1
  C  C307  1  0.102200  0.607400  0.023000  1
  C  C308  1  0.023000  0.102200  0.607400  1
  C  C309  1  0.966400  0.941300  0.381900  1
  C  C310  1  0.381900  0.966400  0.941300  1
  C  C311  1  0.941300  0.381900  0.966400  1
  C  C312  1  0.618100  0.033600  0.058700  1
  C  C313  1  0.058700  0.618100  0.033600  1
  C  C314  1  0.033600  0.058700  0.618100  1
  C  C315  1  0.922700  0.957200  0.389600  1
  C  C316  1  0.389600  0.922700  0.957200  1
  C  C317  1  0.957200  0.389600  0.922700  1
  C  C318  1  0.610400  0.077300  0.042800  1
  C  C319  1  0.042800  0.610400  0.077300  1
  C  C320  1  0.077300  0.042800  0.610400  1
  C  C321  1  0.891300  0.930900  0.408600  1
  C  C322  1  0.408600  0.891300  0.930900  1
  C  C323  1  0.930900  0.408600  0.891300  1
  C  C324  1  0.591400  0.108700  0.069100  1
  C  C325  1  0.069100  0.591400  0.108700  1
  C  C326  1  0.108700  0.069100  0.591400  1
  C  C327  1  0.901800  0.885500  0.420400  1
  C  C328  1  0.420400  0.901800  0.885500  1
  C  C329  1  0.885500  0.420400  0.901800  1
  C  C330  1  0.579600  0.098200  0.114500  1
  C  C331  1  0.114500  0.579600  0.098200  1
  C  C332  1  0.098200  0.114500  0.579600  1
  C  C333  1  0.948400  0.869100  0.411500  1
  C  C334  1  0.411500  0.948400  0.869100  1
  C  C335  1  0.869100  0.411500  0.948400  1
  C  C336  1  0.588500  0.051600  0.130900  1
  C  C337  1  0.130900  0.588500  0.051600  1
  C  C338  1  0.051600  0.130900  0.588500  1
  C  C339  1  0.073500  0.813400  0.469300  1
  C  C340  1  0.469300  0.073500  0.813400  1
  C  C341  1  0.813400  0.469300  0.073500  1
  C  C342  1  0.530700  0.926500  0.186600  1
  C  C343  1  0.186600  0.530700  0.926500  1
  C  C344  1  0.926500  0.186600  0.530700  1
  C  C345  1  0.134700  0.734400  0.467900  1
  C  C346  1  0.467900  0.134700  0.734400  1
  C  C347  1  0.734400  0.467900  0.134700  1
  C  C348  1  0.532100  0.865300  0.265600  1
  C  C349  1  0.265600  0.532100  0.865300  1
  C  C350  1  0.865300  0.265600  0.532100  1
  C  C351  1  0.194800  0.723900  0.498400  1
  C  C352  1  0.498400  0.194800  0.723900  1
  C  C353  1  0.723900  0.498400  0.194800  1
  C  C354  1  0.501600  0.805200  0.276100  1
  C  C355  1  0.276100  0.501600  0.805200  1
  C  C356  1  0.805200  0.276100  0.501600  1
  C  C357  1  0.236400  0.718200  0.507500  1
  C  C358  1  0.507500  0.236400  0.718200  1
  C  C359  1  0.718200  0.507500  0.236400  1
  C  C360  1  0.492500  0.763600  0.281800  1
  C  C361  1  0.281800  0.492500  0.763600  1
  C  C362  1  0.763600  0.281800  0.492500  1
  C  C363  1  0.244200  0.698300  0.550200  1
  C  C364  1  0.550200  0.244200  0.698300  1
  C  C365  1  0.698300  0.550200  0.244200  1
  C  C366  1  0.449800  0.755800  0.301700  1
  C  C367  1  0.301700  0.449800  0.755800  1
  C  C368  1  0.755800  0.301700  0.449800  1
  C  C369  1  0.212500  0.681300  0.579400  1
  C  C370  1  0.579400  0.212500  0.681300  1
  C  C371  1  0.681300  0.579400  0.212500  1
  C  C372  1  0.420600  0.787500  0.318700  1
  C  C373  1  0.318700  0.420600  0.787500  1
  C  C374  1  0.787500  0.318700  0.420600  1
  C  C375  1  0.168900  0.687400  0.569800  1
  C  C376  1  0.569800  0.168900  0.687400  1
  C  C377  1  0.687400  0.569800  0.168900  1
  C  C378  1  0.430200  0.831100  0.312600  1
  C  C379  1  0.312600  0.430200  0.831100  1
  C  C380  1  0.831100  0.312600  0.430200  1
  C  C381  1  0.161800  0.708200  0.527600  1
  C  C382  1  0.527600  0.161800  0.708200  1
  C  C383  1  0.708200  0.527600  0.161800  1
  C  C384  1  0.472400  0.838200  0.291800  1
  C  C385  1  0.291800  0.472400  0.838200  1
  C  C386  1  0.838200  0.291800  0.472400  1
  C  C387  1  0.136300  0.673900  0.405300  1
  C  C388  1  0.405300  0.136300  0.673900  1
  C  C389  1  0.673900  0.405300  0.136300  1
  C  C390  1  0.594700  0.863700  0.326100  1
  C  C391  1  0.326100  0.594700  0.863700  1
  C  C392  1  0.863700  0.326100  0.594700  1
  C  C393  1  0.143200  0.916600  0.183600  1
  C  C394  1  0.183600  0.143200  0.916600  1
  C  C395  1  0.916600  0.183600  0.143200  1
  C  C396  1  0.816400  0.856800  0.083400  1
  C  C397  1  0.083400  0.816400  0.856800  1
  C  C398  1  0.856800  0.083400  0.816400  1
  C  C399  1  0.117400  0.882300  0.180100  1
  C  C400  1  0.180100  0.117400  0.882300  1
  C  C401  1  0.882300  0.180100  0.117400  1
  C  C402  1  0.819900  0.882600  0.117700  1
  C  C403  1  0.117700  0.819900  0.882600  1
  C  C404  1  0.882600  0.117700  0.819900  1
  C  C405  1  0.081700  0.876300  0.209500  1
  C  C406  1  0.209500  0.081700  0.876300  1
  C  C407  1  0.876300  0.209500  0.081700  1
  C  C408  1  0.790500  0.918300  0.123700  1
  C  C409  1  0.123700  0.790500  0.918300  1
  C  C410  1  0.918300  0.123700  0.790500  1
  C  C411  1  0.067200  0.904800  0.242000  1
  C  C412  1  0.242000  0.067200  0.904800  1
  C  C413  1  0.904800  0.242000  0.067200  1
  C  C414  1  0.758000  0.932800  0.095200  1
  C  C415  1  0.095200  0.758000  0.932800  1
  C  C416  1  0.932800  0.095200  0.758000  1
  C  C417  1  0.091400  0.939000  0.244800  1
  C  C418  1  0.244800  0.091400  0.939000  1
  C  C419  1  0.939000  0.244800  0.091400  1
  C  C420  1  0.755200  0.908600  0.061000  1
  C  C421  1  0.061000  0.755200  0.908600  1
  C  C422  1  0.908600  0.061000  0.755200  1
  C  C423  1  0.130200  0.945300  0.215000  1
  C  C424  1  0.215000  0.130200  0.945300  1
  C  C425  1  0.945300  0.215000  0.130200  1
  C  C426  1  0.785000  0.869800  0.054700  1
  C  C427  1  0.054700  0.785000  0.869800  1
  C  C428  1  0.869800  0.054700  0.785000  1
  C  C429  1  0.182900  0.921300  0.151500  1
  C  C430  1  0.151500  0.182900  0.921300  1
  C  C431  1  0.921300  0.151500  0.182900  1
  C  C432  1  0.848500  0.817100  0.078700  1
  C  C433  1  0.078700  0.848500  0.817100  1
  C  C434  1  0.817100  0.078700  0.848500  1
  C  C435  1  0.248400  0.920100  0.120500  1
  C  C436  1  0.120500  0.248400  0.920100  1
  C  C437  1  0.920100  0.120500  0.248400  1
  C  C438  1  0.879500  0.751600  0.079900  1
  C  C439  1  0.079900  0.879500  0.751600  1
  C  C440  1  0.751600  0.079900  0.879500  1
  C  C441  1  0.293700  0.911900  0.109200  1
  C  C442  1  0.109200  0.293700  0.911900  1
  C  C443  1  0.911900  0.109200  0.293700  1
  C  C444  1  0.890800  0.706300  0.088100  1
  C  C445  1  0.088100  0.890800  0.706300  1
  C  C446  1  0.706300  0.088100  0.890800  1
  C  C447  1  0.311200  0.921900  0.064900  1
  C  C448  1  0.064900  0.311200  0.921900  1
  C  C449  1  0.921900  0.064900  0.311200  1
  C  C450  1  0.935100  0.688800  0.078100  1
  C  C451  1  0.078100  0.935100  0.688800  1
  C  C452  1  0.688800  0.078100  0.935100  1
  C  C453  1  0.285100  0.936300  0.034000  1
  C  C454  1  0.034000  0.285100  0.936300  1
  C  C455  1  0.936300  0.034000  0.285100  1
  C  C456  1  0.966000  0.714900  0.063700  1
  C  C457  1  0.063700  0.966000  0.714900  1
  C  C458  1  0.714900  0.063700  0.966000  1
  C  C459  1  0.239600  0.943300  0.044000  1
  C  C460  1  0.044000  0.239600  0.943300  1
  C  C461  1  0.943300  0.044000  0.239600  1
  C  C462  1  0.956000  0.760400  0.056700  1
  C  C463  1  0.056700  0.956000  0.760400  1
  C  C464  1  0.760400  0.056700  0.956000  1
  C  C465  1  0.222300  0.934800  0.088100  1
  C  C466  1  0.088100  0.222300  0.934800  1
  C  C467  1  0.934800  0.088100  0.222300  1
  C  C468  1  0.911900  0.777700  0.065200  1
  C  C469  1  0.065200  0.911900  0.777700  1
  C  C470  1  0.777700  0.065200  0.911900  1
  C  C471  1  0.132100  0.851300  0.145700  1
  C  C472  1  0.145700  0.132100  0.851300  1
  C  C473  1  0.851300  0.145700  0.132100  1
  C  C474  1  0.854300  0.867900  0.148700  1
  C  C475  1  0.148700  0.854300  0.867900  1
  C  C476  1  0.867900  0.148700  0.854300  1
  C  C477  1  0.052300  0.843500  0.204500  1
  C  C478  1  0.204500  0.052300  0.843500  1
  C  C479  1  0.843500  0.204500  0.052300  1
  C  C480  1  0.795500  0.947700  0.156500  1
  C  C481  1  0.156500  0.795500  0.947700  1
  C  C482  1  0.947700  0.156500  0.795500  1
  C  C483  1  0.016200  0.786800  0.213600  1
  C  C484  1  0.213600  0.016200  0.786800  1
  C  C485  1  0.786800  0.213600  0.016200  1
  C  C486  1  0.786400  0.983800  0.213200  1
  C  C487  1  0.213200  0.786400  0.983800  1
  C  C488  1  0.983800  0.213200  0.786400  1
  C  C489  1  0.000300  0.747500  0.228000  1
  C  C490  1  0.228000  0.000300  0.747500  1
  C  C491  1  0.747500  0.228000  0.000300  1
  C  C492  1  0.772000  0.999700  0.252500  1
  C  C493  1  0.252500  0.772000  0.999700  1
  C  C494  1  0.999700  0.252500  0.772000  1
  C  C495  1  0.967200  0.736500  0.207300  1
  C  C496  1  0.207300  0.967200  0.736500  1
  C  C497  1  0.736500  0.207300  0.967200  1
  C  C498  1  0.792700  0.032800  0.263500  1
  C  C499  1  0.263500  0.792700  0.032800  1
  C  C500  1  0.032800  0.263500  0.792700  1
  C  C501  1  0.951400  0.767300  0.172500  1
  C  C502  1  0.172500  0.951400  0.767300  1
  C  C503  1  0.767300  0.172500  0.951400  1
  C  C504  1  0.827500  0.048600  0.232700  1
  C  C505  1  0.232700  0.827500  0.048600  1
  C  C506  1  0.048600  0.232700  0.827500  1
  C  C507  1  0.966600  0.806900  0.157000  1
  C  C508  1  0.157000  0.966600  0.806900  1
  C  C509  1  0.806900  0.157000  0.966600  1
  C  C510  1  0.843000  0.033400  0.193100  1
  C  C511  1  0.193100  0.843000  0.033400  1
  C  C512  1  0.033400  0.193100  0.843000  1
  C  C513  1  0.000700  0.815900  0.180200  1
  C  C514  1  0.180200  0.000700  0.815900  1
  C  C515  1  0.815900  0.180200  0.000700  1
  C  C516  1  0.819800  0.999300  0.184100  1
  C  C517  1  0.184100  0.819800  0.999300  1
  C  C518  1  0.999300  0.184100  0.819800  1
  C  C519  1  0.025900  0.899700  0.271900  1
  C  C520  1  0.271900  0.025900  0.899700  1
  C  C521  1  0.899700  0.271900  0.025900  1
  C  C522  1  0.728100  0.974100  0.100300  1
  C  C523  1  0.100300  0.728100  0.974100  1
  C  C524  1  0.974100  0.100300  0.728100  1
  C  C525  1  0.077400  0.971000  0.275700  1
  C  C526  1  0.275700  0.077400  0.971000  1
  C  C527  1  0.971000  0.275700  0.077400  1
  C  C528  1  0.724300  0.922600  0.029000  1
  C  C529  1  0.029000  0.724300  0.922600  1
  C  C530  1  0.922600  0.029000  0.724300  1
  C  C531  1  0.062000  0.005600  0.333000  1
  C  C532  1  0.333000  0.062000  0.005600  1
  C  C533  1  0.005600  0.333000  0.062000  1
  C  C534  1  0.667000  0.938000  0.994400  1
  C  C535  1  0.994400  0.667000  0.938000  1
  C  C536  1  0.938000  0.994400  0.667000  1
  C  C537  1  0.056200  0.018800  0.375100  1
  C  C538  1  0.375100  0.056200  0.018800  1
  C  C539  1  0.018800  0.375100  0.056200  1
  C  C540  1  0.624900  0.943800  0.981200  1
  C  C541  1  0.981200  0.624900  0.943800  1
  C  C542  1  0.943800  0.981200  0.624900  1
  C  C543  1  0.038200  0.061100  0.379000  1
  C  C544  1  0.379000  0.038200  0.061100  1
  C  C545  1  0.061100  0.379000  0.038200  1
  C  C546  1  0.621000  0.961800  0.938900  1
  C  C547  1  0.938900  0.621000  0.961800  1
  C  C548  1  0.961800  0.938900  0.621000  1
  C  C549  1  0.024700  0.089400  0.344700  1
  C  C550  1  0.344700  0.024700  0.089400  1
  C  C551  1  0.089400  0.344700  0.024700  1
  C  C552  1  0.655300  0.975300  0.910600  1
  C  C553  1  0.910600  0.655300  0.975300  1
  C  C554  1  0.975300  0.910600  0.655300  1
  C  C555  1  0.027900  0.076500  0.302800  1
  C  C556  1  0.302800  0.027900  0.076500  1
  C  C557  1  0.076500  0.302800  0.027900  1
  C  C558  1  0.697200  0.972100  0.923500  1
  C  C559  1  0.923500  0.697200  0.972100  1
  C  C560  1  0.972100  0.923500  0.697200  1
  C  C561  1  0.047100  0.033700  0.297300  1
  C  C562  1  0.297300  0.047100  0.033700  1
  C  C563  1  0.033700  0.297300  0.047100  1
  C  C564  1  0.702700  0.952900  0.966300  1
  C  C565  1  0.966300  0.702700  0.952900  1
  C  C566  1  0.952900  0.966300  0.702700  1
  C  C567  1  0.155200  0.983300  0.216800  1
  C  C568  1  0.216800  0.155200  0.983300  1
  C  C569  1  0.983300  0.216800  0.155200  1
  C  C570  1  0.783200  0.844800  0.016700  1
  C  C571  1  0.016700  0.783200  0.844800  1
  C  C572  1  0.844800  0.016700  0.783200  1
  C  C573  1  0.262000  0.715900  0.284400  1
  C  C574  1  0.284400  0.262000  0.715900  1
  C  C575  1  0.715900  0.284400  0.262000  1
  C  C576  1  0.715600  0.738000  0.284100  1
  C  C577  1  0.284100  0.715600  0.738000  1
  C  C578  1  0.738000  0.284100  0.715600  1
  C  C579  1  0.292000  0.745800  0.271900  1
  C  C580  1  0.271900  0.292000  0.745800  1
  C  C581  1  0.745800  0.271900  0.292000  1
  C  C582  1  0.728100  0.708000  0.254200  1
  C  C583  1  0.254200  0.728100  0.708000  1
  C  C584  1  0.708000  0.254200  0.728100  1
  C  C585  1  0.288400  0.773000  0.233600  1
  C  C586  1  0.233600  0.288400  0.773000  1
  C  C587  1  0.773000  0.233600  0.288400  1
  C  C588  1  0.766400  0.711600  0.227000  1
  C  C589  1  0.227000  0.766400  0.711600  1
  C  C590  1  0.711600  0.227000  0.766400  1
  C  C591  1  0.258600  0.770300  0.205500  1
  C  C592  1  0.205500  0.258600  0.770300  1
  C  C593  1  0.770300  0.205500  0.258600  1
  C  C594  1  0.794500  0.741400  0.229700  1
  C  C595  1  0.229700  0.794500  0.741400  1
  C  C596  1  0.741400  0.229700  0.794500  1
  C  C597  1  0.228800  0.737800  0.218900  1
  C  C598  1  0.218900  0.228800  0.737800  1
  C  C599  1  0.737800  0.218900  0.228800  1
  C  C600  1  0.781100  0.771200  0.262200  1
  C  C601  1  0.262200  0.781100  0.771200  1
  C  C602  1  0.771200  0.262200  0.781100  1
  C  C603  1  0.231300  0.710300  0.258300  1
  C  C604  1  0.258300  0.231300  0.710300  1
  C  C605  1  0.710300  0.258300  0.231300  1
  C  C606  1  0.741700  0.768700  0.289700  1
  C  C607  1  0.289700  0.741700  0.768700  1
  C  C608  1  0.768700  0.289700  0.741700  1
  C  C609  1  0.266700  0.683500  0.324700  1
  C  C610  1  0.324700  0.266700  0.683500  1
  C  C611  1  0.683500  0.324700  0.266700  1
  C  C612  1  0.675300  0.733300  0.316500  1
  C  C613  1  0.316500  0.675300  0.733300  1
  C  C614  1  0.733300  0.316500  0.675300  1
  C  C615  1  0.260600  0.648400  0.391100  1
  C  C616  1  0.391100  0.260600  0.648400  1
  C  C617  1  0.648400  0.391100  0.260600  1
  C  C618  1  0.608900  0.739400  0.351600  1
  C  C619  1  0.351600  0.608900  0.739400  1
  C  C620  1  0.739400  0.351600  0.608900  1
  C  C621  1  0.249500  0.635600  0.435700  1
  C  C622  1  0.435700  0.249500  0.635600  1
  C  C623  1  0.635600  0.435700  0.249500  1
  C  C624  1  0.564300  0.750500  0.364400  1
  C  C625  1  0.364400  0.564300  0.750500  1
  C  C626  1  0.750500  0.364400  0.564300  1
  C  C627  1  0.267900  0.595900  0.454300  1
  C  C628  1  0.454300  0.267900  0.595900  1
  C  C629  1  0.595900  0.454300  0.267900  1
  C  C630  1  0.545700  0.732100  0.404100  1
  C  C631  1  0.404100  0.545700  0.732100  1
  C  C632  1  0.732100  0.404100  0.545700  1
  C  C633  1  0.298900  0.571300  0.427800  1
  C  C634  1  0.427800  0.298900  0.571300  1
  C  C635  1  0.571300  0.427800  0.298900  1
  C  C636  1  0.572200  0.701100  0.428700  1
  C  C637  1  0.428700  0.572200  0.701100  1
  C  C638  1  0.701100  0.428700  0.572200  1
  C  C639  1  0.311600  0.583800  0.382200  1
  C  C640  1  0.382200  0.311600  0.583800  1
  C  C641  1  0.583800  0.382200  0.311600  1
  C  C642  1  0.617800  0.688400  0.416200  1
  C  C643  1  0.416200  0.617800  0.688400  1
  C  C644  1  0.688400  0.416200  0.617800  1
  C  C645  1  0.289700  0.622700  0.365500  1
  C  C646  1  0.365500  0.289700  0.622700  1
  C  C647  1  0.622700  0.365500  0.289700  1
  C  C648  1  0.634500  0.710300  0.377300  1
  C  C649  1  0.377300  0.634500  0.710300  1
  C  C650  1  0.710300  0.377300  0.634500  1
  C  C651  1  0.328200  0.750200  0.300600  1
  C  C652  1  0.300600  0.328200  0.750200  1
  C  C653  1  0.750200  0.300600  0.328200  1
  C  C654  1  0.699400  0.671800  0.249800  1
  C  C655  1  0.249800  0.699400  0.671800  1
  C  C656  1  0.671800  0.249800  0.699400  1
  C  C657  1  0.319900  0.807600  0.220300  1
  C  C658  1  0.220300  0.319900  0.807600  1
  C  C659  1  0.807600  0.220300  0.319900  1
  C  C660  1  0.779700  0.680100  0.192400  1
  C  C661  1  0.192400  0.779700  0.680100  1
  C  C662  1  0.680100  0.192400  0.779700  1
  C  C663  1  0.353700  0.863800  0.204700  1
  C  C664  1  0.204700  0.353700  0.863800  1
  C  C665  1  0.863800  0.204700  0.353700  1
  C  C666  1  0.795300  0.646300  0.136200  1
  C  C667  1  0.136200  0.795300  0.646300  1
  C  C668  1  0.646300  0.136200  0.795300  1
  C  C669  1  0.365200  0.905700  0.199000  1
  C  C670  1  0.199000  0.365200  0.905700  1
  C  C671  1  0.905700  0.199000  0.365200  1
  C  C672  1  0.801000  0.634800  0.094300  1
  C  C673  1  0.094300  0.801000  0.634800  1
  C  C674  1  0.634800  0.094300  0.801000  1
  C  C675  1  0.407000  0.913600  0.181100  1
  C  C676  1  0.181100  0.407000  0.913600  1
  C  C677  1  0.913600  0.181100  0.407000  1
  C  C678  1  0.818900  0.593000  0.086400  1
  C  C679  1  0.086400  0.818900  0.593000  1
  C  C680  1  0.593000  0.086400  0.818900  1
  C  C681  1  0.435800  0.877900  0.167900  1
  C  C682  1  0.167900  0.435800  0.877900  1
  C  C683  1  0.877900  0.167900  0.435800  1
  C  C684  1  0.832100  0.564200  0.122100  1
  C  C685  1  0.122100  0.832100  0.564200  1
  C  C686  1  0.564200  0.122100  0.832100  1
  C  C687  1  0.424800  0.835800  0.175100  1
  C  C688  1  0.175100  0.424800  0.835800  1
  C  C689  1  0.835800  0.175100  0.424800  1
  C  C690  1  0.824900  0.575200  0.164200  1
  C  C691  1  0.164200  0.824900  0.575200  1
  C  C692  1  0.575200  0.164200  0.824900  1
  C  C693  1  0.383200  0.831000  0.193300  1
  C  C694  1  0.193300  0.383200  0.831000  1
  C  C695  1  0.831000  0.193300  0.383200  1
  C  C696  1  0.806700  0.616800  0.169000  1
  C  C697  1  0.169000  0.806700  0.616800  1
  C  C698  1  0.616800  0.169000  0.806700  1
  C  C699  1  0.256100  0.800000  0.162700  1
  C  C700  1  0.162700  0.256100  0.800000  1
  C  C701  1  0.800000  0.162700  0.256100  1
  C  C702  1  0.837300  0.743900  0.200000  1
  C  C703  1  0.200000  0.837300  0.743900  1
  C  C704  1  0.743900  0.200000  0.837300  1
  C  C705  1  0.195000  0.732600  0.189500  1
  C  C706  1  0.189500  0.195000  0.732600  1
  C  C707  1  0.732600  0.189500  0.195000  1
  C  C708  1  0.810500  0.805000  0.267400  1
  C  C709  1  0.267400  0.810500  0.805000  1
  C  C710  1  0.805000  0.267400  0.810500  1
  C  C711  1  0.140700  0.726300  0.158000  1
  C  C712  1  0.158000  0.140700  0.726300  1
  C  C713  1  0.726300  0.158000  0.140700  1
  C  C714  1  0.842000  0.859300  0.273700  1
  C  C715  1  0.273700  0.842000  0.859300  1
  C  C716  1  0.859300  0.273700  0.842000  1
  C  C717  1  0.098500  0.725100  0.148600  1
  C  C718  1  0.148600  0.098500  0.725100  1
  C  C719  1  0.725100  0.148600  0.098500  1
  C  C720  1  0.851400  0.901500  0.274900  1
  C  C721  1  0.274900  0.851400  0.901500  1
  C  C722  1  0.901500  0.274900  0.851400  1
  C  C723  1  0.096700  0.709700  0.107600  1
  C  C724  1  0.107600  0.096700  0.709700  1
  C  C725  1  0.709700  0.107600  0.096700  1
  C  C726  1  0.892400  0.903300  0.290300  1
  C  C727  1  0.290300  0.892400  0.903300  1
  C  C728  1  0.903300  0.290300  0.892400  1
  C  C729  1  0.133800  0.693400  0.082000  1
  C  C730  1  0.082000  0.133800  0.693400  1
  C  C731  1  0.693400  0.082000  0.133800  1
  C  C732  1  0.918000  0.866200  0.306600  1
  C  C733  1  0.306600  0.918000  0.866200  1
  C  C734  1  0.866200  0.306600  0.918000  1
  C  C735  1  0.174200  0.695700  0.090000  1
  C  C736  1  0.090000  0.174200  0.695700  1
  C  C737  1  0.695700  0.090000  0.174200  1
  C  C738  1  0.910000  0.825800  0.304300  1
  C  C739  1  0.304300  0.910000  0.825800  1
  C  C740  1  0.825800  0.304300  0.910000  1
  C  C741  1  0.175200  0.713400  0.130400  1
  C  C742  1  0.130400  0.175200  0.713400  1
  C  C743  1  0.713400  0.130400  0.175200  1
  C  C744  1  0.869600  0.824800  0.286600  1
  C  C745  1  0.286600  0.869600  0.824800  1
  C  C746  1  0.824800  0.286600  0.869600  1
  C  C747  1  0.200800  0.675200  0.270800  1
  C  C748  1  0.270800  0.200800  0.675200  1
  C  C749  1  0.675200  0.270800  0.200800  1
  C  C750  1  0.729200  0.799200  0.324800  1
  C  C751  1  0.324800  0.729200  0.799200  1
  C  C752  1  0.799200  0.324800  0.729200  1
  C  C753  1  0.187800  0.844400  0.284700  1
  C  C754  1  0.284700  0.187800  0.844400  1
  C  C755  1  0.844400  0.284700  0.187800  1
  C  C756  1  0.715300  0.812200  0.155600  1
  C  C757  1  0.155600  0.715300  0.812200  1
  C  C758  1  0.812200  0.155600  0.715300  1
  C  C759  1  0.706400  0.706400  0.706400  1
  C  C760  1  0.293600  0.293600  0.293600  1
  C  C761  1  0.884000  0.933800  0.525500  1
  C  C762  1  0.525500  0.884000  0.933800  1
  C  C763  1  0.933800  0.525500  0.884000  1
  C  C764  1  0.474500  0.116000  0.066200  1
  C  C765  1  0.066200  0.474500  0.116000  1
  C  C766  1  0.116000  0.066200  0.474500  1
  C  C767  1  0.472700  0.682100  0.196300  1
  C  C768  1  0.196300  0.472700  0.682100  1
  C  C769  1  0.682100  0.196300  0.472700  1
  C  C770  1  0.803700  0.527300  0.317900  1
  C  C771  1  0.317900  0.803700  0.527300  1
  C  C772  1  0.527300  0.317900  0.803700  1
  C  C773  1  0.898900  0.436400  0.548100  1
  C  C774  1  0.548100  0.898900  0.436400  1
  C  C775  1  0.436400  0.548100  0.898900  1
  C  C776  1  0.451900  0.101100  0.563600  1
  C  C777  1  0.563600  0.451900  0.101100  1
  C  C778  1  0.101100  0.563600  0.451900  1
  C  C779  1  0.786100  0.780600  0.632900  1.0
  C  C780  1  0.632900  0.786100  0.780600  1.0
  C  C781  1  0.780600  0.632900  0.786100  1.0
  C  C782  1  0.367100  0.213900  0.219400  1.0
  C  C783  1  0.219400  0.367100  0.213900  1.0
  C  C784  1  0.213900  0.219400  0.367100  1.0
  C  C785  1  0.754500  0.795100  0.604100  1.0
  C  C786  1  0.604100  0.754500  0.795100  1.0
  C  C787  1  0.795100  0.604100  0.754500  1.0
  C  C788  1  0.395900  0.245500  0.204900  1.0
  C  C789  1  0.204900  0.395900  0.245500  1.0
  C  C790  1  0.245500  0.204900  0.395900  1.0
  C  C791  1  0.749300  0.768200  0.575900  1.0
  C  C792  1  0.575900  0.749300  0.768200  1.0
  C  C793  1  0.768200  0.575900  0.749300  1.0
  C  C794  1  0.424100  0.250700  0.231800  1.0
  C  C795  1  0.231800  0.424100  0.250700  1.0
  C  C796  1  0.250700  0.231800  0.424100  1.0
  C  C797  1  0.772100  0.727900  0.572700  1.0
  C  C798  1  0.572700  0.772100  0.727900  1.0
  C  C799  1  0.727900  0.572700  0.772100  1.0
  C  C800  1  0.427300  0.227900  0.272100  1.0
  C  C801  1  0.272100  0.427300  0.227900  1.0
  C  C802  1  0.227900  0.272100  0.427300  1.0
  C  C803  1  0.803500  0.713800  0.601000  1.0
  C  C804  1  0.601000  0.803500  0.713800  1.0
  C  C805  1  0.713800  0.601000  0.803500  1.0
  C  C806  1  0.399000  0.196500  0.286200  1.0
  C  C807  1  0.286200  0.399000  0.196500  1.0
  C  C808  1  0.196500  0.286200  0.399000  1.0
  C  C809  1  0.811400  0.738800  0.632000  1.0
  C  C810  1  0.632000  0.811400  0.738800  1.0
  C  C811  1  0.738800  0.632000  0.811400  1.0
  C  C812  1  0.368000  0.188600  0.261200  1.0
  C  C813  1  0.261200  0.368000  0.188600  1.0
  C  C814  1  0.188600  0.261200  0.368000  1.0
  C  C815  1  0.797800  0.810200  0.663300  1.0
  C  C816  1  0.663300  0.797800  0.810200  1.0
  C  C817  1  0.810200  0.663300  0.797800  1.0
  C  C818  1  0.336700  0.202200  0.189800  1.0
  C  C819  1  0.189800  0.336700  0.202200  1.0
  C  C820  1  0.202200  0.189800  0.336700  1.0
  C  C821  1  0.803600  0.846200  0.716000  1.0
  C  C822  1  0.716000  0.803600  0.846200  1.0
  C  C823  1  0.846200  0.716000  0.803600  1.0
  C  C824  1  0.284000  0.196400  0.153800  1.0
  C  C825  1  0.153800  0.284000  0.196400  1.0
  C  C826  1  0.196400  0.153800  0.284000  1.0
  C  C827  1  0.804200  0.861600  0.756100  1.0
  C  C828  1  0.756100  0.804200  0.861600  1.0
  C  C829  1  0.861600  0.756100  0.804200  1.0
  C  C830  1  0.243900  0.195800  0.138400  1.0
  C  C831  1  0.138400  0.243900  0.195800  1.0
  C  C832  1  0.195800  0.138400  0.243900  1.0
  C  C833  1  0.825500  0.897900  0.757900  1.0
  C  C834  1  0.757900  0.825500  0.897900  1.0
  C  C835  1  0.897900  0.757900  0.825500  1.0
  C  C836  1  0.242100  0.174500  0.102100  1.0
  C  C837  1  0.102100  0.242100  0.174500  1.0
  C  C838  1  0.174500  0.102100  0.242100  1.0
  C  C839  1  0.846400  0.918800  0.719700  1.0
  C  C840  1  0.719700  0.846400  0.918800  1.0
  C  C841  1  0.918800  0.719700  0.846400  1.0
  C  C842  1  0.280300  0.153600  0.081200  1.0
  C  C843  1  0.081200  0.280300  0.153600  1.0
  C  C844  1  0.153600  0.081200  0.280300  1.0
  C  C845  1  0.845800  0.903400  0.679600  1.0
  C  C846  1  0.679600  0.845800  0.903400  1.0
  C  C847  1  0.903400  0.679600  0.845800  1.0
  C  C848  1  0.320400  0.154200  0.096600  1.0
  C  C849  1  0.096600  0.320400  0.154200  1.0
  C  C850  1  0.154200  0.096600  0.320400  1.0
  C  C851  1  0.824400  0.867000  0.677700  1.0
  C  C852  1  0.677700  0.824400  0.867000  1.0
  C  C853  1  0.867000  0.677700  0.824400  1.0
  C  C854  1  0.322300  0.175600  0.133000  1.0
  C  C855  1  0.133000  0.322300  0.175600  1.0
  C  C856  1  0.175600  0.133000  0.322300  1.0
  C  C857  1  0.727900  0.840000  0.605000  1.0
  C  C858  1  0.605000  0.727900  0.840000  1.0
  C  C859  1  0.840000  0.605000  0.727900  1.0
  C  C860  1  0.395000  0.272100  0.160000  1.0
  C  C861  1  0.160000  0.395000  0.272100  1.0
  C  C862  1  0.272100  0.160000  0.395000  1.0
  C  C863  1  0.764600  0.697400  0.538400  1.0
  C  C864  1  0.538400  0.764600  0.697400  1.0
  C  C865  1  0.697400  0.538400  0.764600  1.0
  C  C866  1  0.461600  0.235400  0.302600  1.0
  C  C867  1  0.302600  0.461600  0.235400  1.0
  C  C868  1  0.235400  0.302600  0.461600  1.0
  C  C869  1  0.832100  0.671700  0.595900  1.0
  C  C870  1  0.595900  0.832100  0.671700  1.0
  C  C871  1  0.671700  0.595900  0.832100  1.0
  C  C872  1  0.404100  0.167900  0.328300  1.0
  C  C873  1  0.328300  0.404100  0.167900  1.0
  C  C874  1  0.167900  0.328300  0.404100  1.0
  C  C875  1  0.864800  0.606200  0.601400  1.0
  C  C876  1  0.601400  0.864800  0.606200  1.0
  C  C877  1  0.606200  0.601400  0.864800  1.0
  C  C878  1  0.398600  0.135200  0.393800  1.0
  C  C879  1  0.393800  0.398600  0.135200  1.0
  C  C880  1  0.135200  0.393800  0.398600  1.0
  C  C881  1  0.877300  0.561300  0.609800  1.0
  C  C882  1  0.609800  0.877300  0.561300  1.0
  C  C883  1  0.561300  0.609800  0.877300  1.0
  C  C884  1  0.390200  0.122700  0.438700  1.0
  C  C885  1  0.438700  0.390200  0.122700  1.0
  C  C886  1  0.122700  0.438700  0.390200  1.0
  C  C887  1  0.916100  0.542300  0.588200  1.0
  C  C888  1  0.588200  0.916100  0.542300  1.0
  C  C889  1  0.542300  0.588200  0.916100  1.0
  C  C890  1  0.411800  0.083900  0.457700  1.0
  C  C891  1  0.457700  0.411800  0.083900  1.0
  C  C892  1  0.083900  0.457700  0.411800  1.0
  C  C893  1  0.942300  0.568100  0.558100  1.0
  C  C894  1  0.558100  0.942300  0.568100  1.0
  C  C895  1  0.568100  0.558100  0.942300  1.0
  C  C896  1  0.441900  0.057700  0.431900  1.0
  C  C897  1  0.431900  0.441900  0.057700  1.0
  C  C898  1  0.057700  0.431900  0.441900  1.0
  C  C899  1  0.929800  0.613000  0.549700  1.0
  C  C900  1  0.549700  0.929800  0.613000  1.0
  C  C901  1  0.613000  0.549700  0.929800  1.0
  C  C902  1  0.450300  0.070200  0.387000  1.0
  C  C903  1  0.387000  0.450300  0.070200  1.0
  C  C904  1  0.070200  0.387000  0.450300  1.0
  C  C905  1  0.891000  0.632200  0.571400  1.0
  C  C906  1  0.571400  0.891000  0.632200  1.0
  C  C907  1  0.632200  0.571400  0.891000  1.0
  C  C908  1  0.428600  0.109000  0.367800  1.0
  C  C909  1  0.367800  0.428600  0.109000  1.0
  C  C910  1  0.109000  0.367800  0.428600  1.0
  C  C911  1  0.846000  0.723900  0.661800  1.0
  C  C912  1  0.661800  0.846000  0.723900  1.0
  C  C913  1  0.723900  0.661800  0.846000  1.0
  C  C914  1  0.338200  0.154000  0.276100  1.0
  C  C915  1  0.276100  0.338200  0.154000  1.0
  C  C916  1  0.154000  0.276100  0.338200  1.0
  C  C917  1  0.786600  0.503700  0.663900  1.0
  C  C918  1  0.663900  0.786600  0.503700  1.0
  C  C919  1  0.503700  0.663900  0.786600  1.0
  C  C920  1  0.336100  0.213400  0.496300  1.0
  C  C921  1  0.496300  0.336100  0.213400  1.0
  C  C922  1  0.213400  0.496300  0.336100  1.0
  C  C923  1  0.785800  0.487200  0.624500  1.0
  C  C924  1  0.624500  0.785800  0.487200  1.0
  C  C925  1  0.487200  0.624500  0.785800  1.0
  C  C926  1  0.375500  0.214200  0.512800  1.0
  C  C927  1  0.512800  0.375500  0.214200  1.0
  C  C928  1  0.214200  0.512800  0.375500  1.0
  C  C929  1  0.804500  0.444500  0.618800  1.0
  C  C930  1  0.618800  0.804500  0.444500  1.0
  C  C931  1  0.444500  0.618800  0.804500  1.0
  C  C932  1  0.381200  0.195500  0.555500  1.0
  C  C933  1  0.555500  0.381200  0.195500  1.0
  C  C934  1  0.195500  0.555500  0.381200  1.0
  C  C935  1  0.824100  0.418300  0.652700  1.0
  C  C936  1  0.652700  0.824100  0.418300  1.0
  C  C937  1  0.418300  0.652700  0.824100  1.0
  C  C938  1  0.347300  0.175900  0.581700  1.0
  C  C939  1  0.581700  0.347300  0.175900  1.0
  C  C940  1  0.175900  0.581700  0.347300  1.0
  C  C941  1  0.825100  0.434700  0.692300  1.0
  C  C942  1  0.692300  0.825100  0.434700  1.0
  C  C943  1  0.434700  0.692300  0.825100  1.0
  C  C944  1  0.307700  0.174900  0.565300  1.0
  C  C945  1  0.565300  0.307700  0.174900  1.0
  C  C946  1  0.174900  0.565300  0.307700  1.0
  C  C947  1  0.806300  0.477400  0.697800  1.0
  C  C948  1  0.697800  0.806300  0.477400  1.0
  C  C949  1  0.477400  0.697800  0.806300  1.0
  C  C950  1  0.302200  0.193700  0.522600  1.0
  C  C951  1  0.522600  0.302200  0.193700  1.0
  C  C952  1  0.193700  0.522600  0.302200  1.0
  C  C953  1  0.716700  0.784000  0.542300  1.0
  C  C954  1  0.542300  0.716700  0.784000  1.0
  C  C955  1  0.784000  0.542300  0.716700  1.0
  C  C956  1  0.457700  0.283300  0.216000  1.0
  C  C957  1  0.216000  0.457700  0.283300  1.0
  C  C958  1  0.283300  0.216000  0.457700  1.0
  C  C959  1  0.759500  0.571300  0.532500  1.0
  C  C960  1  0.532500  0.759500  0.571300  1.0
  C  C961  1  0.571300  0.532500  0.759500  1.0
  C  C962  1  0.467500  0.240500  0.428700  1.0
  C  C963  1  0.428700  0.467500  0.240500  1.0
  C  C964  1  0.240500  0.428700  0.467500  1.0
  C  C965  1  0.804900  0.566500  0.521300  1.0
  C  C966  1  0.521300  0.804900  0.566500  1.0
  C  C967  1  0.566500  0.521300  0.804900  1.0
  C  C968  1  0.478700  0.195100  0.433500  1.0
  C  C969  1  0.433500  0.478700  0.195100  1.0
  C  C970  1  0.195100  0.433500  0.478700  1.0
  C  C971  1  0.823400  0.545000  0.485300  1.0
  C  C972  1  0.485300  0.823400  0.545000  1.0
  C  C973  1  0.545000  0.485300  0.823400  1.0
  C  C974  1  0.514700  0.176600  0.455000  1.0
  C  C975  1  0.455000  0.514700  0.176600  1.0
  C  C976  1  0.176600  0.455000  0.514700  1.0
  C  C977  1  0.796500  0.528200  0.460600  1.0
  C  C978  1  0.460600  0.796500  0.528200  1.0
  C  C979  1  0.528200  0.460600  0.796500  1.0
  C  C980  1  0.539400  0.203500  0.471800  1.0
  C  C981  1  0.471800  0.539400  0.203500  1.0
  C  C982  1  0.203500  0.471800  0.539400  1.0
  C  C983  1  0.751200  0.533100  0.471900  1.0
  C  C984  1  0.471900  0.751200  0.533100  1.0
  C  C985  1  0.533100  0.471900  0.751200  1.0
  C  C986  1  0.528100  0.248800  0.466900  1.0
  C  C987  1  0.466900  0.528100  0.248800  1.0
  C  C988  1  0.248800  0.466900  0.528100  1.0
  C  C989  1  0.732700  0.554700  0.507800  1.0
  C  C990  1  0.507800  0.732700  0.554700  1.0
  C  C991  1  0.554700  0.507800  0.732700  1.0
  C  C992  1  0.492200  0.267300  0.445300  1.0
  C  C993  1  0.445300  0.492200  0.267300  1.0
  C  C994  1  0.267300  0.445300  0.492200  1.0
  C  C995  1  0.693500  0.582800  0.562700  1.0
  C  C996  1  0.562700  0.693500  0.582800  1.0
  C  C997  1  0.582800  0.562700  0.693500  1.0
  C  C998  1  0.437300  0.306500  0.417200  1.0
  C  C999  1  0.417200  0.437300  0.306500  1.0
  C  C1000  1  0.306500  0.417200  0.437300  1.0
  C  C1001  1  0.651800  0.598800  0.589000  1.0
  C  C1002  1  0.589000  0.651800  0.598800  1.0
  C  C1003  1  0.598800  0.589000  0.651800  1.0
  C  C1004  1  0.411000  0.348200  0.401200  1.0
  C  C1005  1  0.401200  0.411000  0.348200  1.0
  C  C1006  1  0.348200  0.401200  0.411000  1.0
  C  C1007  1  0.627700  0.639400  0.573700  1.0
  C  C1008  1  0.573700  0.627700  0.639400  1.0
  C  C1009  1  0.639400  0.573700  0.627700  1.0
  C  C1010  1  0.426300  0.372300  0.360600  1.0
  C  C1011  1  0.360600  0.426300  0.372300  1.0
  C  C1012  1  0.372300  0.360600  0.426300  1.0
  C  C1013  1  0.642800  0.665900  0.533300  1.0
  C  C1014  1  0.533300  0.642800  0.665900  1.0
  C  C1015  1  0.665900  0.533300  0.642800  1.0
  C  C1016  1  0.466700  0.357200  0.334100  1.0
  C  C1017  1  0.334100  0.466700  0.357200  1.0
  C  C1018  1  0.357200  0.334100  0.466700  1.0
  H  H1019  1  0.182200  0.937200  0.485500  1
  H  H1020  1  0.485500  0.182200  0.937200  1
  H  H1021  1  0.937200  0.485500  0.182200  1
  H  H1022  1  0.514500  0.817800  0.062800  1
  H  H1023  1  0.062800  0.514500  0.817800  1
  H  H1024  1  0.817800  0.062800  0.514500  1
  H  H1025  1  0.346400  0.852400  0.414800  1
  H  H1026  1  0.414800  0.346400  0.852400  1
  H  H1027  1  0.852400  0.414800  0.346400  1
  H  H1028  1  0.585200  0.653600  0.147600  1
  H  H1029  1  0.147600  0.585200  0.653600  1
  H  H1030  1  0.653600  0.147600  0.585200  1
  H  H1031  1  0.273000  0.006200  0.339500  1
  H  H1032  1  0.339500  0.273000  0.006200  1
  H  H1033  1  0.006200  0.339500  0.273000  1
  H  H1034  1  0.660500  0.727000  0.993800  1
  H  H1035  1  0.993800  0.660500  0.727000  1
  H  H1036  1  0.727000  0.993800  0.660500  1
  H  H1037  1  0.048800  0.641300  0.387700  1
  H  H1038  1  0.387700  0.048800  0.641300  1
  H  H1039  1  0.641300  0.387700  0.048800  1
  H  H1040  1  0.612300  0.951200  0.358700  1
  H  H1041  1  0.358700  0.612300  0.951200  1
  H  H1042  1  0.951200  0.358700  0.612300  1
  H  H1043  1  0.024900  0.927400  0.453100  1
  H  H1044  1  0.453100  0.024900  0.927400  1
  H  H1045  1  0.927400  0.453100  0.024900  1
  H  H1046  1  0.546900  0.975100  0.072600  1
  H  H1047  1  0.072600  0.546900  0.975100  1
  H  H1048  1  0.975100  0.072600  0.546900  1
  H  H1049  1  0.992900  0.952300  0.521400  1
  H  H1050  1  0.521400  0.992900  0.952300  1
  H  H1051  1  0.952300  0.521400  0.992900  1
  H  H1052  1  0.478600  0.007100  0.047700  1
  H  H1053  1  0.047700  0.478600  0.007100  1
  H  H1054  1  0.007100  0.047700  0.478600  1
  H  H1055  1  0.954700  0.803200  0.430000  1
  H  H1056  1  0.430000  0.954700  0.803200  1
  H  H1057  1  0.803200  0.430000  0.954700  1
  H  H1058  1  0.570000  0.045300  0.196800  1
  H  H1059  1  0.196800  0.570000  0.045300  1
  H  H1060  1  0.045300  0.196800  0.570000  1
  H  H1061  1  0.041100  0.966800  0.571200  1
  H  H1062  1  0.571200  0.041100  0.966800  1
  H  H1063  1  0.966800  0.571200  0.041100  1
  H  H1064  1  0.428800  0.958900  0.033200  1
  H  H1065  1  0.033200  0.428800  0.958900  1
  H  H1066  1  0.958900  0.033200  0.428800  1
  H  H1067  1  0.115300  0.964100  0.551900  1
  H  H1068  1  0.551900  0.115300  0.964100  1
  H  H1069  1  0.964100  0.551900  0.115300  1
  H  H1070  1  0.448100  0.884700  0.035900  1
  H  H1071  1  0.035900  0.448100  0.884700  1
  H  H1072  1  0.884700  0.035900  0.448100  1
  H  H1073  1  0.096400  0.708400  0.521100  1
  H  H1074  1  0.521100  0.096400  0.708400  1
  H  H1075  1  0.708400  0.521100  0.096400  1
  H  H1076  1  0.478900  0.903600  0.291600  1
  H  H1077  1  0.291600  0.478900  0.903600  1
  H  H1078  1  0.903600  0.291600  0.478900  1
  H  H1079  1  0.153800  0.945900  0.095700  1
  H  H1080  1  0.095700  0.153800  0.945900  1
  H  H1081  1  0.945900  0.095700  0.153800  1
  H  H1082  1  0.904300  0.846200  0.054100  1
  H  H1083  1  0.054100  0.904300  0.846200  1
  H  H1084  1  0.846200  0.054100  0.904300  1
  H  H1085  1  0.208700  0.857600  0.482200  1
  H  H1086  1  0.482200  0.208700  0.857600  1
  H  H1087  1  0.857600  0.482200  0.208700  1
  H  H1088  1  0.517800  0.791300  0.142400  1
  H  H1089  1  0.142400  0.517800  0.791300  1
  H  H1090  1  0.791300  0.142400  0.517800  1
  H  H1091  1  0.185100  0.829800  0.456800  1
  H  H1092  1  0.456800  0.185100  0.829800  1
  H  H1093  1  0.829800  0.456800  0.185100  1
  H  H1094  1  0.543200  0.814900  0.170200  1
  H  H1095  1  0.170200  0.543200  0.814900  1
  H  H1096  1  0.814900  0.170200  0.543200  1
  H  H1097  1  0.234300  0.817200  0.461900  1
  H  H1098  1  0.461900  0.234300  0.817200  1
  H  H1099  1  0.817200  0.461900  0.234300  1
  H  H1100  1  0.538100  0.765700  0.182800  1
  H  H1101  1  0.182800  0.538100  0.765700  1
  H  H1102  1  0.765700  0.182800  0.538100  1
  H  H1103  1  0.018700  0.877500  0.155800  1
  H  H1104  1  0.155800  0.018700  0.877500  1
  H  H1105  1  0.877500  0.155800  0.018700  1
  H  H1106  1  0.844200  0.981300  0.122500  1
  H  H1107  1  0.122500  0.844200  0.981300  1
  H  H1108  1  0.981300  0.122500  0.844200  1
  H  H1109  1  0.318600  0.690500  0.420300  1
  H  H1110  1  0.420300  0.318600  0.690500  1
  H  H1111  1  0.690500  0.420300  0.318600  1
  H  H1112  1  0.579700  0.681400  0.309500  1
  H  H1113  1  0.309500  0.579700  0.681400  1
  H  H1114  1  0.681400  0.309500  0.579700  1
  H  H1115  1  0.385100  0.663800  0.441400  1
  H  H1116  1  0.441400  0.385100  0.663800  1
  H  H1117  1  0.663800  0.441400  0.385100  1
  H  H1118  1  0.558600  0.614900  0.336200  1
  H  H1119  1  0.336200  0.558600  0.614900  1
  H  H1120  1  0.614900  0.336200  0.558600  1
  H  H1121  1  0.053600  0.022000  0.232900  1
  H  H1122  1  0.232900  0.053600  0.022000  1
  H  H1123  1  0.022000  0.232900  0.053600  1
  H  H1124  1  0.767100  0.946400  0.978000  1
  H  H1125  1  0.978000  0.767100  0.946400  1
  H  H1126  1  0.946400  0.978000  0.767100  1
  H  H1127  1  0.434500  0.712400  0.451700  1
  H  H1128  1  0.451700  0.434500  0.712400  1
  H  H1129  1  0.712400  0.451700  0.434500  1
  H  H1130  1  0.548300  0.565500  0.287600  1
  H  H1131  1  0.287600  0.548300  0.565500  1
  H  H1132  1  0.565500  0.287600  0.548300  1
  H  H1133  1  0.416900  0.786500  0.435700  1
  H  H1134  1  0.435700  0.416900  0.786500  1
  H  H1135  1  0.786500  0.435700  0.416900  1
  H  H1136  1  0.564300  0.583100  0.213500  1
  H  H1137  1  0.213500  0.564300  0.583100  1
  H  H1138  1  0.583100  0.213500  0.564300  1
  H  H1139  1  0.311500  0.636700  0.297600  1
  H  H1140  1  0.297600  0.311500  0.636700  1
  H  H1141  1  0.636700  0.297600  0.311500  1
  H  H1142  1  0.702400  0.688500  0.363300  1
  H  H1143  1  0.363300  0.702400  0.688500  1
  H  H1144  1  0.688500  0.363300  0.702400  1
  H  H1145  1  0.374000  0.764600  0.199900  1
  H  H1146  1  0.199900  0.374000  0.764600  1
  H  H1147  1  0.764600  0.199900  0.374000  1
  H  H1148  1  0.800100  0.626000  0.235400  1
  H  H1149  1  0.235400  0.800100  0.626000  1
  H  H1150  1  0.626000  0.235400  0.800100  1
  H  H1151  1  0.340900  0.881300  0.340700  1
  H  H1152  1  0.340700  0.340900  0.881300  1
  H  H1153  1  0.881300  0.340700  0.340900  1
  H  H1154  1  0.659300  0.659100  0.118700  1
  H  H1155  1  0.118700  0.659300  0.659100  1
  H  H1156  1  0.659100  0.118700  0.659300  1
  H  H1157  1  0.319500  0.853300  0.313600  1
  H  H1158  1  0.313600  0.319500  0.853300  1
  H  H1159  1  0.853300  0.313600  0.319500  1
  H  H1160  1  0.686400  0.680500  0.146700  1
  H  H1161  1  0.146700  0.686400  0.680500  1
  H  H1162  1  0.680500  0.146700  0.686400  1
  H  H1163  1  0.319200  0.903400  0.299800  1
  H  H1164  1  0.299800  0.319200  0.903400  1
  H  H1165  1  0.903400  0.299800  0.319200  1
  H  H1166  1  0.700200  0.680800  0.096600  1
  H  H1167  1  0.096600  0.700200  0.680800  1
  H  H1168  1  0.680800  0.096600  0.700200  1
  H  H1169  1  0.241600  0.711300  0.138400  1
  H  H1170  1  0.138400  0.241600  0.711300  1
  H  H1171  1  0.711300  0.138400  0.241600  1
  H  H1172  1  0.861600  0.758400  0.288700  1
  H  H1173  1  0.288700  0.861600  0.758400  1
  H  H1174  1  0.758400  0.288700  0.861600  1
  H  H1175  1  0.266600  0.997700  0.174100  1
  H  H1176  1  0.174100  0.266600  0.997700  1
  H  H1177  1  0.997700  0.174100  0.266600  1
  H  H1178  1  0.825900  0.733400  0.002300  1
  H  H1179  1  0.002300  0.825900  0.733400  1
  H  H1180  1  0.733400  0.002300  0.825900  1
  H  H1181  1  0.286300  0.066900  0.154500  1
  H  H1182  1  0.154500  0.286300  0.066900  1
  H  H1183  1  0.066900  0.154500  0.286300  1
  H  H1184  1  0.845500  0.713700  0.933100  1
  H  H1185  1  0.933100  0.845500  0.713700  1
  H  H1186  1  0.713700  0.933100  0.845500  1
  H  H1187  1  0.299700  0.108200  0.206600  1
  H  H1188  1  0.206600  0.299700  0.108200  1
  H  H1189  1  0.108200  0.206600  0.299700  1
  H  H1190  1  0.793400  0.700300  0.891800  1
  H  H1191  1  0.891800  0.793400  0.700300  1
  H  H1192  1  0.700300  0.891800  0.793400  1
  H  H1193  1  0.295300  0.082400  0.280900  1
  H  H1194  1  0.280900  0.295300  0.082400  1
  H  H1195  1  0.082400  0.280900  0.295300  1
  H  H1196  1  0.719100  0.704700  0.917600  1
  H  H1197  1  0.917600  0.719100  0.704700  1
  H  H1198  1  0.704700  0.917600  0.719100  1
  H  H1199  1  0.190600  0.002100  0.359100  1
  H  H1200  1  0.359100  0.190600  0.002100  1
  H  H1201  1  0.002100  0.359100  0.190600  1
  H  H1202  1  0.640900  0.809400  0.997900  1
  H  H1203  1  0.997900  0.640900  0.809400  1
  H  H1204  1  0.809400  0.997900  0.640900  1
  H  H1205  1  0.166800  0.977800  0.330400  1
  H  H1206  1  0.330400  0.166800  0.977800  1
  H  H1207  1  0.977800  0.330400  0.166800  1
  H  H1208  1  0.669600  0.833200  0.022200  1
  H  H1209  1  0.022200  0.669600  0.833200  1
  H  H1210  1  0.833200  0.022200  0.669600  1
  H  H1211  1  0.151100  0.977700  0.380100  1
  H  H1212  1  0.380100  0.151100  0.977700  1
  H  H1213  1  0.977700  0.380100  0.151100  1
  H  H1214  1  0.619900  0.848900  0.022300  1
  H  H1215  1  0.022300  0.619900  0.848900  1
  H  H1216  1  0.848900  0.022300  0.619900  1
  H  H1217  1  0.100500  0.661300  0.221500  1
  H  H1218  1  0.221500  0.100500  0.661300  1
  H  H1219  1  0.661300  0.221500  0.100500  1
  H  H1220  1  0.778500  0.899500  0.338700  1
  H  H1221  1  0.338700  0.778500  0.899500  1
  H  H1222  1  0.899500  0.338700  0.778500  1
  H  H1223  1  0.090700  0.589400  0.212600  1
  H  H1224  1  0.212600  0.090700  0.589400  1
  H  H1225  1  0.589400  0.212600  0.090700  1
  H  H1226  1  0.787400  0.909300  0.410600  1
  H  H1227  1  0.410600  0.787400  0.909300  1
  H  H1228  1  0.909300  0.410600  0.787400  1
  H  H1229  1  0.063400  0.541300  0.276600  1
  H  H1230  1  0.276600  0.063400  0.541300  1
  H  H1231  1  0.541300  0.276600  0.063400  1
  H  H1232  1  0.723400  0.936600  0.458700  1
  H  H1233  1  0.458700  0.723400  0.936600  1
  H  H1234  1  0.936600  0.458700  0.723400  1
  H  H1235  1  0.042900  0.568500  0.343100  1
  H  H1236  1  0.343100  0.042900  0.568500  1
  H  H1237  1  0.568500  0.343100  0.042900  1
  H  H1238  1  0.656900  0.957100  0.431500  1
  H  H1239  1  0.431500  0.656900  0.957100  1
  H  H1240  1  0.957100  0.431500  0.656900  1
  H  H1241  1  0.016300  0.797700  0.321400  1
  H  H1242  1  0.321400  0.016300  0.797700  1
  H  H1243  1  0.797700  0.321400  0.016300  1
  H  H1244  1  0.678600  0.983700  0.202300  1
  H  H1245  1  0.202300  0.678600  0.983700  1
  H  H1246  1  0.983700  0.202300  0.678600  1
  H  H1247  1  0.013900  0.747900  0.322600  1
  H  H1248  1  0.322600  0.013900  0.747900  1
  H  H1249  1  0.747900  0.322600  0.013900  1
  H  H1250  1  0.677400  0.986100  0.252100  1
  H  H1251  1  0.252100  0.677400  0.986100  1
  H  H1252  1  0.986100  0.252100  0.677400  1
  H  H1253  1  0.981900  0.775000  0.354500  1
  H  H1254  1  0.354500  0.981900  0.775000  1
  H  H1255  1  0.775000  0.354500  0.981900  1
  H  H1256  1  0.645500  0.018100  0.225000  1
  H  H1257  1  0.225000  0.645500  0.018100  1
  H  H1258  1  0.018100  0.225000  0.645500  1
  H  H1259  1  0.987800  0.959900  0.369500  1
  H  H1260  1  0.369500  0.987800  0.959900  1
  H  H1261  1  0.959900  0.369500  0.987800  1
  H  H1262  1  0.630500  0.012200  0.040100  1
  H  H1263  1  0.040100  0.630500  0.012200  1
  H  H1264  1  0.012200  0.040100  0.630500  1
  H  H1265  1  0.914100  0.987500  0.381700  1
  H  H1266  1  0.381700  0.914100  0.987500  1
  H  H1267  1  0.987500  0.381700  0.914100  1
  H  H1268  1  0.618300  0.085900  0.012500  1
  H  H1269  1  0.012500  0.618300  0.085900  1
  H  H1270  1  0.085900  0.012500  0.618300  1
  H  H1271  1  0.861800  0.943700  0.413900  1
  H  H1272  1  0.413900  0.861800  0.943700  1
  H  H1273  1  0.943700  0.413900  0.861800  1
  H  H1274  1  0.586100  0.138200  0.056300  1
  H  H1275  1  0.056300  0.586100  0.138200  1
  H  H1276  1  0.138200  0.056300  0.586100  1
  H  H1277  1  0.880400  0.867000  0.433300  1
  H  H1278  1  0.433300  0.880400  0.867000  1
  H  H1279  1  0.867000  0.433300  0.880400  1
  H  H1280  1  0.566700  0.119600  0.133000  1
  H  H1281  1  0.133000  0.566700  0.119600  1
  H  H1282  1  0.119600  0.133000  0.566700  1
  H  H1283  1  0.077900  0.842100  0.455700  1
  H  H1284  1  0.455700  0.077900  0.842100  1
  H  H1285  1  0.842100  0.455700  0.077900  1
  H  H1286  1  0.544300  0.922100  0.157900  1
  H  H1287  1  0.157900  0.544300  0.922100  1
  H  H1288  1  0.922100  0.157900  0.544300  1
  H  H1289  1  0.046000  0.814400  0.487100  1
  H  H1290  1  0.487100  0.046000  0.814400  1
  H  H1291  1  0.814400  0.487100  0.046000  1
  H  H1292  1  0.512900  0.954000  0.185600  1
  H  H1293  1  0.185600  0.512900  0.954000  1
  H  H1294  1  0.954000  0.185600  0.512900  1
  H  H1295  1  0.096300  0.802700  0.486900  1
  H  H1296  1  0.486900  0.096300  0.802700  1
  H  H1297  1  0.802700  0.486900  0.096300  1
  H  H1298  1  0.513100  0.903700  0.197300  1
  H  H1299  1  0.197300  0.513100  0.903700  1
  H  H1300  1  0.903700  0.197300  0.513100  1
  H  H1301  1  0.259800  0.726900  0.486500  1
  H  H1302  1  0.486500  0.259800  0.726900  1
  H  H1303  1  0.726900  0.486500  0.259800  1
  H  H1304  1  0.513500  0.740200  0.273100  1
  H  H1305  1  0.273100  0.513500  0.740200  1
  H  H1306  1  0.740200  0.273100  0.513500  1
  H  H1307  1  0.272600  0.696700  0.558800  1
  H  H1308  1  0.558800  0.272600  0.696700  1
  H  H1309  1  0.696700  0.558800  0.272600  1
  H  H1310  1  0.441200  0.727400  0.303300  1
  H  H1311  1  0.303300  0.441200  0.727400  1
  H  H1312  1  0.727400  0.303300  0.441200  1
  H  H1313  1  0.219600  0.665200  0.606400  1
  H  H1314  1  0.606400  0.219600  0.665200  1
  H  H1315  1  0.665200  0.606400  0.219600  1
  H  H1316  1  0.393600  0.780400  0.334800  1
  H  H1317  1  0.334800  0.393600  0.780400  1
  H  H1318  1  0.780400  0.334800  0.393600  1
  H  H1319  1  0.145600  0.678000  0.590500  1
  H  H1320  1  0.590500  0.145600  0.678000  1
  H  H1321  1  0.678000  0.590500  0.145600  1
  H  H1322  1  0.409500  0.854400  0.322000  1
  H  H1323  1  0.322000  0.409500  0.854400  1
  H  H1324  1  0.854400  0.322000  0.409500  1
  H  H1325  1  0.132400  0.657100  0.433200  1
  H  H1326  1  0.433200  0.132400  0.657100  1
  H  H1327  1  0.657100  0.433200  0.132400  1
  H  H1328  1  0.566800  0.867600  0.342900  1
  H  H1329  1  0.342900  0.566800  0.867600  1
  H  H1330  1  0.867600  0.342900  0.566800  1
  H  H1331  1  0.132200  0.656900  0.383200  1
  H  H1332  1  0.383200  0.132200  0.656900  1
  H  H1333  1  0.656900  0.383200  0.132200  1
  H  H1334  1  0.616800  0.867800  0.343100  1
  H  H1335  1  0.343100  0.616800  0.867800  1
  H  H1336  1  0.867800  0.343100  0.616800  1
  H  H1337  1  0.165200  0.682200  0.400200  1
  H  H1338  1  0.400200  0.165200  0.682200  1
  H  H1339  1  0.682200  0.400200  0.165200  1
  H  H1340  1  0.599800  0.834800  0.317800  1
  H  H1341  1  0.317800  0.599800  0.834800  1
  H  H1342  1  0.834800  0.317800  0.599800  1
  H  H1343  1  0.312300  0.899800  0.130900  1
  H  H1344  1  0.130900  0.312300  0.899800  1
  H  H1345  1  0.899800  0.130900  0.312300  1
  H  H1346  1  0.869100  0.687700  0.100200  1
  H  H1347  1  0.100200  0.869100  0.687700  1
  H  H1348  1  0.687700  0.100200  0.869100  1
  H  H1349  1  0.342000  0.918400  0.057100  1
  H  H1350  1  0.057100  0.342000  0.918400  1
  H  H1351  1  0.918400  0.057100  0.342000  1
  H  H1352  1  0.942900  0.658000  0.081600  1
  H  H1353  1  0.081600  0.942900  0.658000  1
  H  H1354  1  0.658000  0.081600  0.942900  1
  H  H1355  1  0.297700  0.941800  0.004500  1
  H  H1356  1  0.004500  0.297700  0.941800  1
  H  H1357  1  0.941800  0.004500  0.297700  1
  H  H1358  1  0.995500  0.702300  0.058200  1
  H  H1359  1  0.058200  0.995500  0.702300  1
  H  H1360  1  0.702300  0.058200  0.995500  1
  H  H1361  1  0.221100  0.953200  0.021700  1
  H  H1362  1  0.021700  0.221100  0.953200  1
  H  H1363  1  0.953200  0.021700  0.221100  1
  H  H1364  1  0.978300  0.778900  0.046800  1
  H  H1365  1  0.046800  0.978300  0.778900  1
  H  H1366  1  0.778900  0.046800  0.978300  1
  H  H1367  1  0.137300  0.822200  0.159700  1
  H  H1368  1  0.159700  0.137300  0.822200  1
  H  H1369  1  0.822200  0.159700  0.137300  1
  H  H1370  1  0.840300  0.862700  0.177800  1
  H  H1371  1  0.177800  0.840300  0.862700  1
  H  H1372  1  0.862700  0.177800  0.840300  1
  H  H1373  1  0.109900  0.852900  0.127000  1
  H  H1374  1  0.127000  0.109900  0.852900  1
  H  H1375  1  0.852900  0.127000  0.109900  1
  H  H1376  1  0.873000  0.890100  0.147100  1
  H  H1377  1  0.147100  0.873000  0.890100  1
  H  H1378  1  0.890100  0.147100  0.873000  1
  H  H1379  1  0.158400  0.859200  0.128900  1
  H  H1380  1  0.128900  0.158400  0.859200  1
  H  H1381  1  0.859200  0.128900  0.158400  1
  H  H1382  1  0.871100  0.841600  0.140800  1
  H  H1383  1  0.140800  0.871100  0.841600  1
  H  H1384  1  0.841600  0.140800  0.871100  1
  H  H1385  1  0.011800  0.728200  0.251400  1
  H  H1386  1  0.251400  0.011800  0.728200  1
  H  H1387  1  0.728200  0.251400  0.011800  1
  H  H1388  1  0.748600  0.988200  0.271800  1
  H  H1389  1  0.271800  0.748600  0.988200  1
  H  H1390  1  0.988200  0.271800  0.748600  1
  H  H1391  1  0.955300  0.709600  0.215800  1
  H  H1392  1  0.215800  0.955300  0.709600  1
  H  H1393  1  0.709600  0.215800  0.955300  1
  H  H1394  1  0.784200  0.044700  0.290400  1
  H  H1395  1  0.290400  0.784200  0.044700  1
  H  H1396  1  0.044700  0.290400  0.784200  1
  H  H1397  1  0.928300  0.759600  0.158900  1
  H  H1398  1  0.158900  0.928300  0.759600  1
  H  H1399  1  0.759600  0.158900  0.928300  1
  H  H1400  1  0.841100  0.071700  0.240400  1
  H  H1401  1  0.240400  0.841100  0.071700  1
  H  H1402  1  0.071700  0.240400  0.841100  1
  H  H1403  1  0.955500  0.826300  0.133400  1
  H  H1404  1  0.133400  0.955500  0.826300  1
  H  H1405  1  0.826300  0.133400  0.955500  1
  H  H1406  1  0.866600  0.044500  0.173700  1
  H  H1407  1  0.173700  0.866600  0.044500  1
  H  H1408  1  0.044500  0.173700  0.866600  1
  H  H1409  1  0.005700  0.925300  0.267400  1
  H  H1410  1  0.267400  0.005700  0.925300  1
  H  H1411  1  0.925300  0.267400  0.005700  1
  H  H1412  1  0.732600  0.994300  0.074700  1
  H  H1413  1  0.074700  0.732600  0.994300  1
  H  H1414  1  0.994300  0.074700  0.732600  1
  H  H1415  1  0.013400  0.875100  0.265800  1
  H  H1416  1  0.265800  0.013400  0.875100  1
  H  H1417  1  0.875100  0.265800  0.013400  1
  H  H1418  1  0.734200  0.986600  0.124900  1
  H  H1419  1  0.124900  0.734200  0.986600  1
  H  H1420  1  0.986600  0.124900  0.734200  1
  H  H1421  1  0.032000  0.895500  0.301500  1
  H  H1422  1  0.301500  0.032000  0.895500  1
  H  H1423  1  0.895500  0.301500  0.032000  1
  H  H1424  1  0.698500  0.968000  0.104500  1
  H  H1425  1  0.104500  0.698500  0.968000  1
  H  H1426  1  0.968000  0.104500  0.698500  1
  H  H1427  1  0.064500  0.999300  0.399800  1
  H  H1428  1  0.399800  0.064500  0.999300  1
  H  H1429  1  0.999300  0.399800  0.064500  1
  H  H1430  1  0.600200  0.935500  0.000700  1
  H  H1431  1  0.000700  0.600200  0.935500  1
  H  H1432  1  0.935500  0.000700  0.600200  1
  H  H1433  1  0.034900  0.071200  0.407000  1
  H  H1434  1  0.407000  0.034900  0.071200  1
  H  H1435  1  0.071200  0.407000  0.034900  1
  H  H1436  1  0.593000  0.965100  0.928800  1
  H  H1437  1  0.928800  0.593000  0.965100  1
  H  H1438  1  0.965100  0.928800  0.593000  1
  H  H1439  1  0.012700  0.118500  0.349200  1
  H  H1440  1  0.349200  0.012700  0.118500  1
  H  H1441  1  0.118500  0.349200  0.012700  1
  H  H1442  1  0.650800  0.987300  0.881500  1
  H  H1443  1  0.881500  0.650800  0.987300  1
  H  H1444  1  0.987300  0.881500  0.650800  1
  H  H1445  1  0.017700  0.096000  0.279100  1
  H  H1446  1  0.279100  0.017700  0.096000  1
  H  H1447  1  0.096000  0.279100  0.017700  1
  H  H1448  1  0.720900  0.982300  0.904000  1
  H  H1449  1  0.904000  0.720900  0.982300  1
  H  H1450  1  0.982300  0.904000  0.720900  1
  H  H1451  1  0.184200  0.972600  0.222800  1
  H  H1452  1  0.222800  0.184200  0.972600  1
  H  H1453  1  0.972600  0.222800  0.184200  1
  H  H1454  1  0.777200  0.815800  0.027400  1
  H  H1455  1  0.027400  0.777200  0.815800  1
  H  H1456  1  0.815800  0.027400  0.777200  1
  H  H1457  1  0.156000  0.001200  0.189400  1
  H  H1458  1  0.189400  0.156000  0.001200  1
  H  H1459  1  0.001200  0.189400  0.156000  1
  H  H1460  1  0.810600  0.844000  0.998800  1
  H  H1461  1  0.998800  0.810600  0.844000  1
  H  H1462  1  0.844000  0.998800  0.810600  1
  H  H1463  1  0.140900  0.000000  0.239300  1
  H  H1464  1  0.239300  0.140900  0.000000  1
  H  H1465  1  0.000000  0.239300  0.140900  1
  H  H1466  1  0.760700  0.859100  0.000000  1
  H  H1467  1  0.000000  0.760700  0.859100  1
  H  H1468  1  0.859100  1.000000  0.760700  1
  H  H1469  1  0.229300  0.654300  0.452800  1
  H  H1470  1  0.452800  0.229300  0.654300  1
  H  H1471  1  0.654300  0.452800  0.229300  1
  H  H1472  1  0.547200  0.770700  0.345700  1
  H  H1473  1  0.345700  0.547200  0.770700  1
  H  H1474  1  0.770700  0.345700  0.547200  1
  H  H1475  1  0.259700  0.585600  0.484200  1
  H  H1476  1  0.484200  0.259700  0.585600  1
  H  H1477  1  0.585600  0.484200  0.259700  1
  H  H1478  1  0.515800  0.740300  0.414400  1
  H  H1479  1  0.414400  0.515800  0.740300  1
  H  H1480  1  0.740300  0.414400  0.515800  1
  H  H1481  1  0.312500  0.544500  0.441000  1
  H  H1482  1  0.441000  0.312500  0.544500  1
  H  H1483  1  0.544500  0.441000  0.312500  1
  H  H1484  1  0.559000  0.687500  0.455500  1
  H  H1485  1  0.455500  0.559000  0.687500  1
  H  H1486  1  0.687500  0.455500  0.559000  1
  H  H1487  1  0.333200  0.566700  0.365100  1
  H  H1488  1  0.365100  0.333200  0.566700  1
  H  H1489  1  0.566700  0.365100  0.333200  1
  H  H1490  1  0.634900  0.666800  0.433300  1
  H  H1491  1  0.433300  0.634900  0.666800  1
  H  H1492  1  0.666800  0.433300  0.634900  1
  H  H1493  1  0.315100  0.756800  0.328700  1
  H  H1494  1  0.328700  0.315100  0.756800  1
  H  H1495  1  0.756800  0.328700  0.315100  1
  H  H1496  1  0.671300  0.684900  0.243200  1
  H  H1497  1  0.243200  0.671300  0.684900  1
  H  H1498  1  0.684900  0.243200  0.671300  1
  H  H1499  1  0.347000  0.723200  0.303400  1
  H  H1500  1  0.303400  0.347000  0.723200  1
  H  H1501  1  0.723200  0.303400  0.347000  1
  H  H1502  1  0.696600  0.653000  0.276800  1
  H  H1503  1  0.276800  0.696600  0.653000  1
  H  H1504  1  0.653000  0.276800  0.696600  1
  H  H1505  1  0.344800  0.772900  0.286800  1
  H  H1506  1  0.286800  0.344800  0.772900  1
  H  H1507  1  0.772900  0.286800  0.344800  1
  H  H1508  1  0.713200  0.655200  0.227100  1
  H  H1509  1  0.227100  0.713200  0.655200  1
  H  H1510  1  0.655200  0.227100  0.713200  1
  H  H1511  1  0.344300  0.929300  0.207400  1
  H  H1512  1  0.207400  0.344300  0.929300  1
  H  H1513  1  0.929300  0.207400  0.344300  1
  H  H1514  1  0.792600  0.655700  0.070700  1
  H  H1515  1  0.070700  0.792600  0.655700  1
  H  H1516  1  0.655700  0.070700  0.792600  1
  H  H1517  1  0.415700  0.942200  0.177700  1
  H  H1518  1  0.177700  0.415700  0.942200  1
  H  H1519  1  0.942200  0.177700  0.415700  1
  H  H1520  1  0.822300  0.584300  0.057800  1
  H  H1521  1  0.057800  0.822300  0.584300  1
  H  H1522  1  0.584300  0.057800  0.822300  1
  H  H1523  1  0.464100  0.882900  0.153500  1
  H  H1524  1  0.153500  0.464100  0.882900  1
  H  H1525  1  0.882900  0.153500  0.464100  1
  H  H1526  1  0.846500  0.535900  0.117100  1
  H  H1527  1  0.117100  0.846500  0.535900  1
  H  H1528  1  0.535900  0.117100  0.846500  1
  H  H1529  1  0.445200  0.811400  0.167700  1
  H  H1530  1  0.167700  0.445200  0.811400  1
  H  H1531  1  0.811400  0.167700  0.445200  1
  H  H1532  1  0.832300  0.554800  0.188600  1
  H  H1533  1  0.188600  0.832300  0.554800  1
  H  H1534  1  0.554800  0.188600  0.832300  1
  H  H1535  1  0.283000  0.795700  0.144300  1
  H  H1536  1  0.144300  0.283000  0.795700  1
  H  H1537  1  0.795700  0.144300  0.283000  1
  H  H1538  1  0.855700  0.717000  0.204300  1
  H  H1539  1  0.204300  0.855700  0.717000  1
  H  H1540  1  0.717000  0.204300  0.855700  1
  H  H1541  1  0.233000  0.793300  0.148400  1
  H  H1542  1  0.148400  0.233000  0.793300  1
  H  H1543  1  0.793300  0.148400  0.233000  1
  H  H1544  1  0.851600  0.767000  0.206700  1
  H  H1545  1  0.206700  0.851600  0.767000  1
  H  H1546  1  0.767000  0.206700  0.851600  1
  H  H1547  1  0.250600  0.829800  0.168400  1
  H  H1548  1  0.168400  0.250600  0.829800  1
  H  H1549  1  0.829800  0.168400  0.250600  1
  H  H1550  1  0.831600  0.749400  0.170200  1
  H  H1551  1  0.170200  0.831600  0.749400  1
  H  H1552  1  0.749400  0.170200  0.831600  1
  H  H1553  1  0.073100  0.733800  0.167700  1
  H  H1554  1  0.167700  0.073100  0.733800  1
  H  H1555  1  0.733800  0.167700  0.073100  1
  H  H1556  1  0.832300  0.926900  0.266200  1
  H  H1557  1  0.266200  0.832300  0.926900  1
  H  H1558  1  0.926900  0.266200  0.832300  1
  H  H1559  1  0.068900  0.710800  0.097700  1
  H  H1560  1  0.097700  0.068900  0.710800  1
  H  H1561  1  0.710800  0.097700  0.068900  1
  H  H1562  1  0.902300  0.931100  0.289200  1
  H  H1563  1  0.289200  0.902300  0.931100  1
  H  H1564  1  0.931100  0.289200  0.902300  1
  H  H1565  1  0.129800  0.679800  0.057300  1
  H  H1566  1  0.057300  0.129800  0.679800  1
  H  H1567  1  0.679800  0.057300  0.129800  1
  H  H1568  1  0.942700  0.870200  0.320200  1
  H  H1569  1  0.320200  0.942700  0.870200  1
  H  H1570  1  0.870200  0.320200  0.942700  1
  H  H1571  1  0.199500  0.686900  0.071100  1
  H  H1572  1  0.071100  0.199500  0.686900  1
  H  H1573  1  0.686900  0.071100  0.199500  1
  H  H1574  1  0.928900  0.800500  0.313100  1
  H  H1575  1  0.313100  0.928900  0.800500  1
  H  H1576  1  0.800500  0.313100  0.928900  1
  H  H1577  1  0.184400  0.679300  0.298400  1
  H  H1578  1  0.298400  0.184400  0.679300  1
  H  H1579  1  0.679300  0.298400  0.184400  1
  H  H1580  1  0.701600  0.815600  0.320700  1
  H  H1581  1  0.320700  0.701600  0.815600  1
  H  H1582  1  0.815600  0.320700  0.701600  1
  H  H1583  1  0.181500  0.677100  0.249200  1
  H  H1584  1  0.249200  0.181500  0.677100  1
  H  H1585  1  0.677100  0.249200  0.181500  1
  H  H1586  1  0.750800  0.818500  0.322900  1
  H  H1587  1  0.322900  0.750800  0.818500  1
  H  H1588  1  0.818500  0.322900  0.750800  1
  H  H1589  1  0.217600  0.647200  0.272700  1
  H  H1590  1  0.272700  0.217600  0.647200  1
  H  H1591  1  0.647200  0.272700  0.217600  1
  H  H1592  1  0.727300  0.782400  0.352800  1
  H  H1593  1  0.352800  0.727300  0.782400  1
  H  H1594  1  0.782400  0.352800  0.727300  1
  H  H1595  1  0.216500  0.828900  0.282600  1
  H  H1596  1  0.282600  0.216500  0.828900  1
  H  H1597  1  0.828900  0.282600  0.216500  1
  H  H1598  1  0.717400  0.783500  0.171100  1
  H  H1599  1  0.171100  0.717400  0.783500  1
  H  H1600  1  0.783500  0.171100  0.717400  1
  H  H1601  1  0.176900  0.847500  0.257100  1
  H  H1602  1  0.257100  0.176900  0.847500  1
  H  H1603  1  0.847500  0.257100  0.176900  1
  H  H1604  1  0.742900  0.823100  0.152500  1
  H  H1605  1  0.152500  0.742900  0.823100  1
  H  H1606  1  0.823100  0.152500  0.742900  1
  H  H1607  1  0.188800  0.872600  0.293000  1
  H  H1608  1  0.293000  0.188800  0.872600  1
  H  H1609  1  0.872600  0.293000  0.188800  1
  H  H1610  1  0.707000  0.811200  0.127400  1
  H  H1611  1  0.127400  0.707000  0.811200  1
  H  H1612  1  0.811200  0.127400  0.707000  1
  H  H1613  1  0.899800  0.931700  0.549900  1
  H  H1614  1  0.549900  0.899800  0.931700  1
  H  H1615  1  0.931700  0.549900  0.899800  1
  H  H1616  1  0.450100  0.100200  0.068300  1
  H  H1617  1  0.068300  0.450100  0.100200  1
  H  H1618  1  0.100200  0.068300  0.450100  1
  H  H1619  1  0.902000  0.917700  0.503500  1
  H  H1620  1  0.503500  0.902000  0.917700  1
  H  H1621  1  0.917700  0.503500  0.902000  1
  H  H1622  1  0.496500  0.098000  0.082300  1
  H  H1623  1  0.082300  0.496500  0.098000  1
  H  H1624  1  0.098000  0.082300  0.496500  1
  H  H1625  1  0.879500  0.963700  0.513000  1
  H  H1626  1  0.513000  0.879500  0.963700  1
  H  H1627  1  0.963700  0.513000  0.879500  1
  H  H1628  1  0.487000  0.120500  0.036300  1
  H  H1629  1  0.036300  0.487000  0.120500  1
  H  H1630  1  0.120500  0.036300  0.487000  1
  H  H1631  1  0.475100  0.705200  0.213700  1
  H  H1632  1  0.213700  0.475100  0.705200  1
  H  H1633  1  0.705200  0.213700  0.475100  1
  H  H1634  1  0.786300  0.524900  0.294800  1
  H  H1635  1  0.294800  0.786300  0.524900  1
  H  H1636  1  0.524900  0.294800  0.786300  1
  H  H1637  1  0.471100  0.655700  0.216200  1
  H  H1638  1  0.216200  0.471100  0.655700  1
  H  H1639  1  0.655700  0.216200  0.471100  1
  H  H1640  1  0.783800  0.528900  0.344300  1
  H  H1641  1  0.344300  0.783800  0.528900  1
  H  H1642  1  0.528900  0.344300  0.783800  1
  H  H1643  1  0.498500  0.678900  0.176400  1
  H  H1644  1  0.176400  0.498500  0.678900  1
  H  H1645  1  0.678900  0.176400  0.498500  1
  H  H1646  1  0.823600  0.501500  0.321100  1
  H  H1647  1  0.321100  0.823600  0.501500  1
  H  H1648  1  0.501500  0.321100  0.823600  1
  H  H1649  1  0.891100  0.465200  0.535200  1
  H  H1650  1  0.535200  0.891100  0.465200  1
  H  H1651  1  0.465200  0.535200  0.891100  1
  H  H1652  1  0.464800  0.108900  0.534800  1
  H  H1653  1  0.534800  0.464800  0.108900  1
  H  H1654  1  0.108900  0.534800  0.464800  1
  H  H1655  1  0.893600  0.435200  0.579200  1
  H  H1656  1  0.579200  0.893600  0.435200  1
  H  H1657  1  0.435200  0.579200  0.893600  1
  H  H1658  1  0.420800  0.106400  0.564800  1
  H  H1659  1  0.564800  0.420800  0.106400  1
  H  H1660  1  0.106400  0.564800  0.420800  1
  H  H1661  1  0.879600  0.417600  0.539400  1
  H  H1662  1  0.539400  0.879600  0.417600  1
  H  H1663  1  0.417600  0.539400  0.879600  1
  H  H1664  1  0.460600  0.120400  0.582400  1
  H  H1665  1  0.582400  0.460600  0.120400  1
  H  H1666  1  0.120400  0.582400  0.460600  1
  H  H1667  1  0.830700  0.850300  0.615800  1.0
  H  H1668  1  0.615800  0.830700  0.850300  1.0
  H  H1669  1  0.850300  0.615800  0.830700  1.0
  H  H1670  1  0.384200  0.169300  0.149700  1.0
  H  H1671  1  0.149700  0.384200  0.169300  1.0
  H  H1672  1  0.169300  0.149700  0.384200  1.0
  H  H1673  1  0.879600  0.697400  0.551200  1.0
  H  H1674  1  0.551200  0.879600  0.697400  1.0
  H  H1675  1  0.697400  0.551200  0.879600  1.0
  H  H1676  1  0.448800  0.120400  0.302600  1.0
  H  H1677  1  0.302600  0.448800  0.120400  1.0
  H  H1678  1  0.120400  0.302600  0.448800  1.0
  H  H1679  1  0.814400  0.493600  0.757500  1.0
  H  H1680  1  0.757500  0.814400  0.493600  1.0
  H  H1681  1  0.493600  0.757500  0.814400  1.0
  H  H1682  1  0.242500  0.185600  0.506400  1.0
  H  H1683  1  0.506400  0.242500  0.185600  1.0
  H  H1684  1  0.185600  0.506400  0.242500  1.0
  H  H1685  1  0.666500  0.554900  0.518000  1.0
  H  H1686  1  0.518000  0.666500  0.554900  1.0
  H  H1687  1  0.554900  0.518000  0.666500  1.0
  H  H1688  1  0.482000  0.333500  0.445100  1.0
  H  H1689  1  0.445100  0.482000  0.333500  1.0
  H  H1690  1  0.333500  0.445100  0.482000  1.0
  H  H1691  1  0.790000  0.847300  0.782200  1.0
  H  H1692  1  0.782200  0.790000  0.847300  1.0
  H  H1693  1  0.847300  0.782200  0.790000  1.0
  H  H1694  1  0.217800  0.210000  0.152700  1.0
  H  H1695  1  0.152700  0.217800  0.210000  1.0
  H  H1696  1  0.210000  0.152700  0.217800  1.0
  H  H1697  1  0.826000  0.908400  0.785300  1.0
  H  H1698  1  0.785300  0.826000  0.908400  1.0
  H  H1699  1  0.908400  0.785300  0.826000  1.0
  H  H1700  1  0.214700  0.174000  0.091600  1.0
  H  H1701  1  0.091600  0.214700  0.174000  1.0
  H  H1702  1  0.174000  0.091600  0.214700  1.0
  H  H1703  1  0.860900  0.943600  0.720900  1.0
  H  H1704  1  0.720900  0.860900  0.943600  1.0
  H  H1705  1  0.943600  0.720900  0.860900  1.0
  H  H1706  1  0.279100  0.139100  0.056400  1.0
  H  H1707  1  0.056400  0.279100  0.139100  1.0
  H  H1708  1  0.139100  0.056400  0.279100  1.0
  H  H1709  1  0.860000  0.917700  0.653500  1.0
  H  H1710  1  0.653500  0.860000  0.917700  1.0
  H  H1711  1  0.917700  0.653500  0.860000  1.0
  H  H1712  1  0.346500  0.140000  0.082300  1.0
  H  H1713  1  0.082300  0.346500  0.140000  1.0
  H  H1714  1  0.140000  0.082300  0.346500  1.0
  H  H1715  1  0.733400  0.857000  0.577400  1.0
  H  H1716  1  0.577400  0.733400  0.857000  1.0
  H  H1717  1  0.857000  0.577400  0.733400  1.0
  H  H1718  1  0.422600  0.266600  0.143000  1.0
  H  H1719  1  0.143000  0.422600  0.266600  1.0
  H  H1720  1  0.266600  0.143000  0.422600  1.0
  H  H1721  1  0.697600  0.836600  0.610800  1.0
  H  H1722  1  0.610800  0.697600  0.836600  1.0
  H  H1723  1  0.836600  0.610800  0.697600  1.0
  H  H1724  1  0.389200  0.302400  0.163400  1.0
  H  H1725  1  0.163400  0.389200  0.302400  1.0
  H  H1726  1  0.302400  0.163400  0.389200  1.0
  H  H1727  1  0.736100  0.854100  0.627400  1.0
  H  H1728  1  0.627400  0.736100  0.854100  1.0
  H  H1729  1  0.854100  0.627400  0.736100  1.0
  H  H1730  1  0.372600  0.263900  0.145900  1.0
  H  H1731  1  0.145900  0.372600  0.263900  1.0
  H  H1732  1  0.263900  0.145900  0.372600  1.0
  H  H1733  1  0.783800  0.670900  0.541800  1.0
  H  H1734  1  0.541800  0.783800  0.670900  1.0
  H  H1735  1  0.670900  0.541800  0.783800  1.0
  H  H1736  1  0.458200  0.216200  0.329100  1.0
  H  H1737  1  0.329100  0.458200  0.216200  1.0
  H  H1738  1  0.216200  0.329100  0.458200  1.0
  H  H1739  1  0.735100  0.691100  0.543300  1.0
  H  H1740  1  0.543300  0.735100  0.691100  1.0
  H  H1741  1  0.691100  0.543300  0.735100  1.0
  H  H1742  1  0.456700  0.264900  0.308900  1.0
  H  H1743  1  0.308900  0.456700  0.264900  1.0
  H  H1744  1  0.264900  0.308900  0.456700  1.0
  H  H1745  1  0.770400  0.711900  0.509700  1.0
  H  H1746  1  0.509700  0.770400  0.711900  1.0
  H  H1747  1  0.711900  0.509700  0.770400  1.0
  H  H1748  1  0.490300  0.229600  0.288100  1.0
  H  H1749  1  0.288100  0.490300  0.229600  1.0
  H  H1750  1  0.229600  0.288100  0.490300  1.0
  H  H1751  1  0.859400  0.543700  0.630300  1.0
  H  H1752  1  0.630300  0.859400  0.543700  1.0
  H  H1753  1  0.543700  0.630300  0.859400  1.0
  H  H1754  1  0.369700  0.140600  0.456300  1.0
  H  H1755  1  0.456300  0.369700  0.140600  1.0
  H  H1756  1  0.140600  0.456300  0.369700  1.0
  H  H1757  1  0.924600  0.511600  0.593900  1.0
  H  H1758  1  0.593900  0.924600  0.511600  1.0
  H  H1759  1  0.511600  0.593900  0.924600  1.0
  H  H1760  1  0.406100  0.075400  0.488400  1.0
  H  H1761  1  0.488400  0.406100  0.075400  1.0
  H  H1762  1  0.075400  0.488400  0.406100  1.0
  H  H1763  1  0.968800  0.555100  0.543400  1.0
  H  H1764  1  0.543400  0.968800  0.555100  1.0
  H  H1765  1  0.555100  0.543400  0.968800  1.0
  H  H1766  1  0.456600  0.031200  0.444900  1.0
  H  H1767  1  0.444900  0.456600  0.031200  1.0
  H  H1768  1  0.031200  0.444900  0.456600  1.0
  H  H1769  1  0.947600  0.630700  0.529200  1.0
  H  H1770  1  0.529200  0.947600  0.630700  1.0
  H  H1771  1  0.630700  0.529200  0.947600  1.0
  H  H1772  1  0.470800  0.052400  0.369300  1.0
  H  H1773  1  0.369300  0.470800  0.052400  1.0
  H  H1774  1  0.052400  0.369300  0.470800  1.0
  H  H1775  1  0.833100  0.723400  0.691400  1.0
  H  H1776  1  0.691400  0.833100  0.723400  1.0
  H  H1777  1  0.723400  0.691400  0.833100  1.0
  H  H1778  1  0.308600  0.166900  0.276600  1.0
  H  H1779  1  0.276600  0.308600  0.166900  1.0
  H  H1780  1  0.166900  0.276600  0.308600  1.0
  H  H1781  1  0.859100  0.695400  0.656500  1.0
  H  H1782  1  0.656500  0.859100  0.695400  1.0
  H  H1783  1  0.695400  0.656500  0.859100  1.0
  H  H1784  1  0.343500  0.140900  0.304600  1.0
  H  H1785  1  0.304600  0.343500  0.140900  1.0
  H  H1786  1  0.140900  0.304600  0.343500  1.0
  H  H1787  1  0.867600  0.743600  0.656200  1.0
  H  H1788  1  0.656200  0.867600  0.743600  1.0
  H  H1789  1  0.743600  0.656200  0.867600  1.0
  H  H1790  1  0.343800  0.132400  0.256400  1.0
  H  H1791  1  0.256400  0.343800  0.132400  1.0
  H  H1792  1  0.132400  0.256400  0.343800  1.0
  H  H1793  1  0.772300  0.505000  0.601300  1.0
  H  H1794  1  0.601300  0.772300  0.505000  1.0
  H  H1795  1  0.505000  0.601300  0.772300  1.0
  H  H1796  1  0.398700  0.227700  0.495000  1.0
  H  H1797  1  0.495000  0.398700  0.227700  1.0
  H  H1798  1  0.227700  0.495000  0.398700  1.0
  H  H1799  1  0.803800  0.433400  0.591900  1.0
  H  H1800  1  0.591900  0.803800  0.433400  1.0
  H  H1801  1  0.433400  0.591900  0.803800  1.0
  H  H1802  1  0.408100  0.196200  0.566600  1.0
  H  H1803  1  0.566600  0.408100  0.196200  1.0
  H  H1804  1  0.196200  0.566600  0.408100  1.0
  H  H1805  1  0.836800  0.389300  0.648900  1.0
  H  H1806  1  0.648900  0.836800  0.389300  1.0
  H  H1807  1  0.389300  0.648900  0.836800  1.0
  H  H1808  1  0.351100  0.163200  0.610700  1.0
  H  H1809  1  0.610700  0.351100  0.163200  1.0
  H  H1810  1  0.163200  0.610700  0.351100  1.0
  H  H1811  1  0.838400  0.417000  0.715300  1.0
  H  H1812  1  0.715300  0.838400  0.417000  1.0
  H  H1813  1  0.417000  0.715300  0.838400  1.0
  H  H1814  1  0.284700  0.161600  0.583000  1.0
  H  H1815  1  0.583000  0.284700  0.161600  1.0
  H  H1816  1  0.161600  0.583000  0.284700  1.0
  H  H1817  1  0.823200  0.577900  0.538100  1.0
  H  H1818  1  0.538100  0.823200  0.577900  1.0
  H  H1819  1  0.577900  0.538100  0.823200  1.0
  H  H1820  1  0.461900  0.176800  0.422100  1.0
  H  H1821  1  0.422100  0.461900  0.176800  1.0
  H  H1822  1  0.176800  0.422100  0.461900  1.0
  H  H1823  1  0.854200  0.541600  0.477700  1.0
  H  H1824  1  0.477700  0.854200  0.541600  1.0
  H  H1825  1  0.541600  0.477700  0.854200  1.0
  H  H1826  1  0.522300  0.145800  0.458400  1.0
  H  H1827  1  0.458400  0.522300  0.145800  1.0
  H  H1828  1  0.145800  0.458400  0.522300  1.0
  H  H1829  1  0.809100  0.513400  0.436100  1.0
  H  H1830  1  0.436100  0.809100  0.513400  1.0
  H  H1831  1  0.513400  0.436100  0.809100  1.0
  H  H1832  1  0.563900  0.190900  0.486600  1.0
  H  H1833  1  0.486600  0.563900  0.190900  1.0
  H  H1834  1  0.190900  0.486600  0.563900  1.0
  H  H1835  1  0.733000  0.521600  0.455100  1.0
  H  H1836  1  0.455100  0.733000  0.521600  1.0
  H  H1837  1  0.521600  0.455100  0.733000  1.0
  H  H1838  1  0.544900  0.267000  0.478400  1.0
  H  H1839  1  0.478400  0.544900  0.267000  1.0
  H  H1840  1  0.267000  0.478400  0.544900  1.0
  H  H1841  1  0.670700  0.674000  0.535400  1.0
  H  H1842  1  0.535400  0.670700  0.674000  1.0
  H  H1843  1  0.674000  0.535400  0.670700  1.0
  H  H1844  1  0.464600  0.329300  0.326000  1.0
  H  H1845  1  0.326000  0.464600  0.329300  1.0
  H  H1846  1  0.329300  0.326000  0.464600  1.0
  H  H1847  1  0.644600  0.649400  0.509300  1.0
  H  H1848  1  0.509300  0.644600  0.649400  1.0
  H  H1849  1  0.649400  0.509300  0.644600  1.0
  H  H1850  1  0.490700  0.355400  0.350600  1.0
  H  H1851  1  0.350600  0.490700  0.355400  1.0
  H  H1852  1  0.355400  0.350600  0.490700  1.0
  H  H1853  1  0.622500  0.691500  0.528900  1.0
  H  H1854  1  0.528900  0.622500  0.691500  1.0
  H  H1855  1  0.691500  0.528900  0.622500  1.0
  H  H1856  1  0.471100  0.377500  0.308500  1.0
  H  H1857  1  0.308500  0.471100  0.377500  1.0
  H  H1858  1  0.377500  0.308500  0.471100  1.0
  H  H1859  1  0.734000  0.688000  0.709800  1.0
  H  H1860  1  0.709800  0.734000  0.688000  1.0
  H  H1861  1  0.688000  0.709800  0.734000  1.0
  H  H1862  1  0.290200  0.266000  0.312000  1.0
  H  H1863  1  0.312000  0.290200  0.266000  1.0
  H  H1864  1  0.266000  0.312000  0.290200  1.0
  N  N1865  1  0.114900  0.915700  0.427000  1
  N  N1866  1  0.427000  0.114900  0.915700  1
  N  N1867  1  0.915700  0.427000  0.114900  1
  N  N1868  1  0.573000  0.885100  0.084300  1
  N  N1869  1  0.084300  0.573000  0.885100  1
  N  N1870  1  0.885100  0.084300  0.573000  1
  N  N1871  1  0.156400  0.933200  0.473600  1
  N  N1872  1  0.473600  0.156400  0.933200  1
  N  N1873  1  0.933200  0.473600  0.156400  1
  N  N1874  1  0.526400  0.843600  0.066800  1
  N  N1875  1  0.066800  0.526400  0.843600  1
  N  N1876  1  0.843600  0.066800  0.526400  1
  N  N1877  1  0.287100  0.779700  0.405500  1
  N  N1878  1  0.405500  0.287100  0.779700  1
  N  N1879  1  0.779700  0.405500  0.287100  1
  N  N1880  1  0.594500  0.712900  0.220300  1
  N  N1881  1  0.220300  0.594500  0.712900  1
  N  N1882  1  0.712900  0.220300  0.594500  1
  N  N1883  1  0.334800  0.825800  0.413700  1
  N  N1884  1  0.413700  0.334800  0.825800  1
  N  N1885  1  0.825800  0.413700  0.334800  1
  N  N1886  1  0.586300  0.665200  0.174200  1
  N  N1887  1  0.174200  0.586300  0.665200  1
  N  N1888  1  0.665200  0.174200  0.586300  1
  N  N1889  1  0.257100  0.957100  0.261700  1
  N  N1890  1  0.261700  0.257100  0.957100  1
  N  N1891  1  0.957100  0.261700  0.257100  1
  N  N1892  1  0.738300  0.742900  0.042900  1
  N  N1893  1  0.042900  0.738300  0.742900  1
  N  N1894  1  0.742900  0.042900  0.738300  1
  N  N1895  1  0.269800  0.997800  0.311800  1
  N  N1896  1  0.311800  0.269800  0.997800  1
  N  N1897  1  0.997800  0.311800  0.269800  1
  N  N1898  1  0.688200  0.730200  0.002200  1
  N  N1899  1  0.002200  0.688200  0.730200  1
  N  N1900  1  0.730200  0.002200  0.688200  1
  N  N1901  1  0.084800  0.696900  0.300900  1
  N  N1902  1  0.300900  0.084800  0.696900  1
  N  N1903  1  0.696900  0.300900  0.084800  1
  N  N1904  1  0.699100  0.915200  0.303100  1
  N  N1905  1  0.303100  0.699100  0.915200  1
  N  N1906  1  0.915200  0.303100  0.699100  1
  N  N1907  1  0.058800  0.651600  0.358400  1
  N  N1908  1  0.358400  0.058800  0.651600  1
  N  N1909  1  0.651600  0.358400  0.058800  1
  N  N1910  1  0.641600  0.941200  0.348400  1
  N  N1911  1  0.348400  0.641600  0.941200  1
  N  N1912  1  0.941200  0.348400  0.641600  1
  N  N1913  1  0.018800  0.872300  0.388600  1
  N  N1914  1  0.388600  0.018800  0.872300  1
  N  N1915  1  0.872300  0.388600  0.018800  1
  N  N1916  1  0.611400  0.981200  0.127700  1
  N  N1917  1  0.127700  0.611400  0.981200  1
  N  N1918  1  0.981200  0.127700  0.611400  1
  N  N1919  1  0.967700  0.828700  0.417600  1
  N  N1920  1  0.417600  0.967700  0.828700  1
  N  N1921  1  0.828700  0.417600  0.967700  1
  N  N1922  1  0.582400  0.032300  0.171300  1
  N  N1923  1  0.171300  0.582400  0.032300  1
  N  N1924  1  0.032300  0.171300  0.582400  1
  N  N1925  1  0.177200  0.739700  0.460000  1
  N  N1926  1  0.460000  0.177200  0.739700  1
  N  N1927  1  0.739700  0.460000  0.177200  1
  N  N1928  1  0.540000  0.822800  0.260300  1
  N  N1929  1  0.260300  0.540000  0.822800  1
  N  N1930  1  0.822800  0.260300  0.540000  1
  N  N1931  1  0.124400  0.715600  0.508100  1
  N  N1932  1  0.508100  0.124400  0.715600  1
  N  N1933  1  0.715600  0.508100  0.124400  1
  N  N1934  1  0.491900  0.875600  0.284400  1
  N  N1935  1  0.284400  0.491900  0.875600  1
  N  N1936  1  0.875600  0.284400  0.491900  1
  N  N1937  1  0.223800  0.912800  0.160500  1
  N  N1938  1  0.160500  0.223800  0.912800  1
  N  N1939  1  0.912800  0.160500  0.223800  1
  N  N1940  1  0.839500  0.776200  0.087200  1
  N  N1941  1  0.087200  0.839500  0.776200  1
  N  N1942  1  0.776200  0.087200  0.839500  1
  N  N1943  1  0.180000  0.936300  0.108800  1
  N  N1944  1  0.108800  0.180000  0.936300  1
  N  N1945  1  0.936300  0.108800  0.180000  1
  N  N1946  1  0.891200  0.820000  0.063700  1
  N  N1947  1  0.063700  0.891200  0.820000  1
  N  N1948  1  0.820000  0.063700  0.891200  1
  N  N1949  1  0.051400  0.804700  0.228600  1
  N  N1950  1  0.228600  0.051400  0.804700  1
  N  N1951  1  0.804700  0.228600  0.051400  1
  N  N1952  1  0.771400  0.948600  0.195300  1
  N  N1953  1  0.195300  0.771400  0.948600  1
  N  N1954  1  0.948600  0.195300  0.771400  1
  N  N1955  1  0.023100  0.851800  0.175600  1
  N  N1956  1  0.175600  0.023100  0.851800  1
  N  N1957  1  0.851800  0.175600  0.023100  1
  N  N1958  1  0.824400  0.976900  0.148200  1
  N  N1959  1  0.148200  0.824400  0.976900  1
  N  N1960  1  0.976900  0.148200  0.824400  1
  N  N1961  1  0.078400  0.964800  0.318100  1
  N  N1962  1  0.318100  0.078400  0.964800  1
  N  N1963  1  0.964800  0.318100  0.078400  1
  N  N1964  1  0.681900  0.921600  0.035200  1
  N  N1965  1  0.035200  0.681900  0.921600  1
  N  N1966  1  0.921600  0.035200  0.681900  1
  N  N1967  1  0.058400  0.011300  0.262200  1
  N  N1968  1  0.262200  0.058400  0.011300  1
  N  N1969  1  0.011300  0.262200  0.058400  1
  N  N1970  1  0.737800  0.941600  0.988700  1
  N  N1971  1  0.988700  0.737800  0.941600  1
  N  N1972  1  0.941600  0.988700  0.737800  1
  N  N1973  1  0.247000  0.688200  0.363700  1
  N  N1974  1  0.363700  0.247000  0.688200  1
  N  N1975  1  0.688200  0.363700  0.247000  1
  N  N1976  1  0.636300  0.753000  0.311800  1
  N  N1977  1  0.311800  0.636300  0.753000  1
  N  N1978  1  0.753000  0.311800  0.636300  1
  N  N1979  1  0.293500  0.646000  0.322800  1
  N  N1980  1  0.322800  0.293500  0.646000  1
  N  N1981  1  0.646000  0.322800  0.293500  1
  N  N1982  1  0.677200  0.706500  0.354000  1
  N  N1983  1  0.354000  0.677200  0.706500  1
  N  N1984  1  0.706500  0.354000  0.677200  1
  N  N1985  1  0.313800  0.849100  0.221500  1
  N  N1986  1  0.221500  0.313800  0.849100  1
  N  N1987  1  0.849100  0.221500  0.313800  1
  N  N1988  1  0.778500  0.686200  0.150900  1
  N  N1989  1  0.150900  0.778500  0.686200  1
  N  N1990  1  0.686200  0.150900  0.778500  1
  N  N1991  1  0.361900  0.793700  0.203600  1
  N  N1992  1  0.203600  0.361900  0.793700  1
  N  N1993  1  0.793700  0.203600  0.361900  1
  N  N1994  1  0.796400  0.638100  0.206300  1
  N  N1995  1  0.206300  0.796400  0.638100  1
  N  N1996  1  0.638100  0.206300  0.796400  1
  N  N1997  1  0.154300  0.739000  0.195000  1
  N  N1998  1  0.195000  0.154300  0.739000  1
  N  N1999  1  0.739000  0.195000  0.154300  1
  N  N2000  1  0.805000  0.845700  0.261000  1
  N  N2001  1  0.261000  0.805000  0.845700  1
  N  N2002  1  0.845700  0.261000  0.805000  1
  N  N2003  1  0.211800  0.717500  0.149700  1
  N  N2004  1  0.149700  0.211800  0.717500  1
  N  N2005  1  0.717500  0.149700  0.211800  1
  N  N2006  1  0.850300  0.788200  0.282500  1
  N  N2007  1  0.282500  0.850300  0.788200  1
  N  N2008  1  0.788200  0.282500  0.850300  1
  N  N2009  1  0.786700  0.810900  0.705500  1.0
  N  N2010  1  0.705500  0.786700  0.810900  1.0
  N  N2011  1  0.810900  0.705500  0.786700  1.0
  N  N2012  1  0.294500  0.213300  0.189100  1.0
  N  N2013  1  0.189100  0.294500  0.213300  1.0
  N  N2014  1  0.213300  0.189100  0.294500  1.0
  N  N2015  1  0.819900  0.844600  0.645500  1.0
  N  N2016  1  0.645500  0.819900  0.844600  1.0
  N  N2017  1  0.844600  0.645500  0.819900  1.0
  N  N2018  1  0.354500  0.180100  0.155400  1.0
  N  N2019  1  0.155400  0.354500  0.180100  1.0
  N  N2020  1  0.180100  0.155400  0.354500  1.0
  N  N2021  1  0.828300  0.632400  0.616500  1.0
  N  N2022  1  0.616500  0.828300  0.632400  1.0
  N  N2023  1  0.632400  0.616500  0.828300  1.0
  N  N2024  1  0.383500  0.171700  0.367600  1.0
  N  N2025  1  0.367600  0.383500  0.171700  1.0
  N  N2026  1  0.171700  0.367600  0.383500  1.0
  N  N2027  1  0.870400  0.672500  0.568800  1.0
  N  N2028  1  0.568800  0.870400  0.672500  1.0
  N  N2029  1  0.672500  0.568800  0.870400  1.0
  N  N2030  1  0.431200  0.129600  0.327500  1.0
  N  N2031  1  0.327500  0.431200  0.129600  1.0
  N  N2032  1  0.129600  0.327500  0.431200  1.0
  N  N2033  1  0.772400  0.543900  0.677200  1.0
  N  N2034  1  0.677200  0.772400  0.543900  1.0
  N  N2035  1  0.543900  0.677200  0.772400  1.0
  N  N2036  1  0.322800  0.227600  0.456100  1.0
  N  N2037  1  0.456100  0.322800  0.227600  1.0
  N  N2038  1  0.227600  0.456100  0.322800  1.0
  N  N2039  1  0.803800  0.501800  0.730200  1.0
  N  N2040  1  0.730200  0.803800  0.501800  1.0
  N  N2041  1  0.501800  0.730200  0.803800  1.0
  N  N2042  1  0.269800  0.196200  0.498200  1.0
  N  N2043  1  0.498200  0.269800  0.196200  1.0
  N  N2044  1  0.196200  0.498200  0.269800  1.0
  N  N2045  1  0.733700  0.589400  0.566300  1.0
  N  N2046  1  0.566300  0.733700  0.589400  1.0
  N  N2047  1  0.589400  0.566300  0.733700  1.0
  N  N2048  1  0.433700  0.266300  0.410600  1.0
  N  N2049  1  0.410600  0.433700  0.266300  1.0
  N  N2050  1  0.266300  0.410600  0.433700  1.0
  N  N2051  1  0.692000  0.562400  0.526700  1.0
  N  N2052  1  0.526700  0.692000  0.562400  1.0
  N  N2053  1  0.562400  0.526700  0.692000  1.0
  N  N2054  1  0.473300  0.308000  0.437600  1.0
  N  N2055  1  0.437600  0.473300  0.308000  1.0
  N  N2056  1  0.308000  0.437600  0.473300  1.0
  O  O2057  1  0.111000  0.843000  0.323600  1
  O  O2058  1  0.323600  0.111000  0.843000  1
  O  O2059  1  0.843000  0.323600  0.111000  1
  O  O2060  1  0.676400  0.889000  0.157000  1
  O  O2061  1  0.157000  0.676400  0.889000  1
  O  O2062  1  0.889000  0.157000  0.676400  1
  O  O2063  1  0.172200  0.811600  0.365800  1
  O  O2064  1  0.365800  0.172200  0.811600  1
  O  O2065  1  0.811600  0.365800  0.172200  1
  O  O2066  1  0.634200  0.827800  0.188400  1
  O  O2067  1  0.188400  0.634200  0.827800  1
  O  O2068  1  0.827800  0.188400  0.634200  1
  O  O2069  1  0.154000  0.773100  0.307300  1
  O  O2070  1  0.307300  0.154000  0.773100  1
  O  O2071  1  0.773100  0.307300  0.154000  1
  O  O2072  1  0.692700  0.846000  0.226900  1
  O  O2073  1  0.226900  0.692700  0.846000  1
  O  O2074  1  0.846000  0.226900  0.692700  1
  O  O2075  1  0.814700  0.916200  0.499900  1
  O  O2076  1  0.499900  0.814700  0.916200  1
  O  O2077  1  0.916200  0.499900  0.814700  1
  O  O2078  1  0.500100  0.185300  0.083800  1
  O  O2079  1  0.083800  0.500100  0.185300  1
  O  O2080  1  0.185300  0.083800  0.500100  1
  O  O2081  1  0.849200  0.867200  0.557000  1
  O  O2082  1  0.557000  0.849200  0.867200  1
  O  O2083  1  0.867200  0.557000  0.849200  1
  O  O2084  1  0.443000  0.150800  0.132800  1
  O  O2085  1  0.132800  0.443000  0.150800  1
  O  O2086  1  0.150800  0.132800  0.443000  1
  O  O2087  1  0.811000  0.938700  0.573500  1
  O  O2088  1  0.573500  0.811000  0.938700  1
  O  O2089  1  0.938700  0.573500  0.811000  1
  O  O2090  1  0.426500  0.189000  0.061300  1
  O  O2091  1  0.061300  0.426500  0.189000  1
  O  O2092  1  0.189000  0.061300  0.426500  1
  O  O2093  1  0.435500  0.735800  0.142600  1
  O  O2094  1  0.142600  0.435500  0.735800  1
  O  O2095  1  0.735800  0.142600  0.435500  1
  O  O2096  1  0.857400  0.564500  0.264200  1
  O  O2097  1  0.264200  0.857400  0.564500  1
  O  O2098  1  0.564500  0.264200  0.857400  1
  O  O2099  1  0.389900  0.700100  0.203500  1
  O  O2100  1  0.203500  0.389900  0.700100  1
  O  O2101  1  0.700100  0.203500  0.389900  1
  O  O2102  1  0.796500  0.610100  0.299900  1
  O  O2103  1  0.299900  0.796500  0.610100  1
  O  O2104  1  0.610100  0.299900  0.796500  1
  O  O2105  1  0.426900  0.658100  0.144300  1
  O  O2106  1  0.144300  0.426900  0.658100  1
  O  O2107  1  0.658100  0.144300  0.426900  1
  O  O2108  1  0.855700  0.573100  0.341900  1
  O  O2109  1  0.341900  0.855700  0.573100  1
  O  O2110  1  0.573100  0.341900  0.855700  1
  O  O2111  1  0.959800  0.372900  0.552200  1
  O  O2112  1  0.552200  0.959800  0.372900  1
  O  O2113  1  0.372900  0.552200  0.959800  1
  O  O2114  1  0.447800  0.040200  0.627100  1
  O  O2115  1  0.627100  0.447800  0.040200  1
  O  O2116  1  0.040200  0.627100  0.447800  1
  O  O2117  1  0.953200  0.421000  0.484000  1
  O  O2118  1  0.484000  0.953200  0.421000  1
  O  O2119  1  0.421000  0.484000  0.953200  1
  O  O2120  1  0.516000  0.046800  0.579000  1
  O  O2121  1  0.579000  0.516000  0.046800  1
  O  O2122  1  0.046800  0.579000  0.516000  1
  O  O2123  1  0.978400  0.448400  0.545700  1
  O  O2124  1  0.545700  0.978400  0.448400  1
  O  O2125  1  0.448400  0.545700  0.978400  1
  O  O2126  1  0.454300  0.021600  0.551600  1
  O  O2127  1  0.551600  0.454300  0.021600  1
  O  O2128  1  0.021600  0.551600  0.454300  1
  O  O2129  1  0.730800  0.974200  0.604400  1
  O  O2130  1  0.604400  0.730800  0.974200  1
  O  O2131  1  0.974200  0.604400  0.730800  1
  O  O2132  1  0.395600  0.269200  0.025800  1
  O  O2133  1  0.025800  0.395600  0.269200  1
  O  O2134  1  0.269200  0.025800  0.395600  1
  O  O2135  1  0.490400  0.764300  0.068500  1
  O  O2136  1  0.068500  0.490400  0.764300  1
  O  O2137  1  0.764300  0.068500  0.490400  1
  O  O2138  1  0.931500  0.509600  0.235700  1
  O  O2139  1  0.235700  0.931500  0.509600  1
  O  O2140  1  0.509600  0.235700  0.931500  1
  O  O2141  1  0.827200  0.481000  0.814000  1
  O  O2142  1  0.814000  0.827200  0.481000  1
  O  O2143  1  0.481000  0.814000  0.827200  1
  O  O2144  1  0.186000  0.172800  0.519000  1
  O  O2145  1  0.519000  0.186000  0.172800  1
  O  O2146  1  0.172800  0.519000  0.186000  1
  O  O2147  1  0.301500  0.691700  0.122400  1
  O  O2148  1  0.122400  0.301500  0.691700  1
  O  O2149  1  0.691700  0.122400  0.301500  1
  O  O2150  1  0.877600  0.698500  0.308300  1
  O  O2151  1  0.308300  0.877600  0.698500  1
  O  O2152  1  0.698500  0.308300  0.877600  1
  O  O2153  1  0.632400  0.097300  0.583900  1
  O  O2154  1  0.583900  0.632400  0.097300  1
  O  O2155  1  0.097300  0.583900  0.632400  1
  O  O2156  1  0.416100  0.367600  0.902700  1
  O  O2157  1  0.902700  0.416100  0.367600  1
  O  O2158  1  0.367600  0.902700  0.416100  1
  O  O2159  1  0.798500  0.000300  0.451500  1
  O  O2160  1  0.451500  0.798500  0.000300  1
  O  O2161  1  0.000300  0.451500  0.798500  1
  O  O2162  1  0.548500  0.201500  0.999700  1
  O  O2163  1  0.999700  0.548500  0.201500  1
  O  O2164  1  0.201500  0.999700  0.548500  1
  O  O2165  1  0.695500  0.039900  0.546700  1
  O  O2166  1  0.546700  0.695500  0.039900  1
  O  O2167  1  0.039900  0.546700  0.695500  1
  O  O2168  1  0.453300  0.304500  0.960100  1
  O  O2169  1  0.960100  0.453300  0.304500  1
  O  O2170  1  0.304500  0.960100  0.453300  1
  O  O2171  1  0.098600  0.960400  0.077300  1
  O  O2172  1  0.077300  0.098600  0.960400  1
  O  O2173  1  0.960400  0.077300  0.098600  1
  O  O2174  1  0.922700  0.901400  0.039600  1
  O  O2175  1  0.039600  0.922700  0.901400  1
  O  O2176  1  0.901400  0.039600  0.922700  1
  O  O2177  1  0.706900  0.669400  0.636700  1.0
  O  O2178  1  0.636700  0.706900  0.669400  1.0
  O  O2179  1  0.669400  0.636700  0.706900  1.0
  O  O2180  1  0.363300  0.293100  0.330600  1.0
  O  O2181  1  0.330600  0.363300  0.293100  1.0
  O  O2182  1  0.293100  0.330600  0.363300  1.0
  S  S2183  1  0.153850  0.815850  0.323650  1
  S  S2184  1  0.323650  0.153850  0.815850  1
  S  S2185  1  0.815850  0.323650  0.153850  1
  S  S2186  1  0.676350  0.846150  0.184150  1
  S  S2187  1  0.184150  0.676350  0.846150  1
  S  S2188  1  0.846150  0.184150  0.676350  1
  S  S2189  1  0.677500  0.677500  0.677500  1
  S  S2190  1  0.322500  0.322500  0.322500  1
  S  S2191  1  0.835820  0.912920  0.539720  1
  S  S2192  1  0.539720  0.835820  0.912920  1
  S  S2193  1  0.912920  0.539720  0.835820  1
  S  S2194  1  0.460280  0.164180  0.087080  1
  S  S2195  1  0.087080  0.460280  0.164180  1
  S  S2196  1  0.164180  0.087080  0.460280  1
  S  S2197  1  0.427600  0.694500  0.170200  1
  S  S2198  1  0.170200  0.427600  0.694500  1
  S  S2199  1  0.694500  0.170200  0.427600  1
  S  S2200  1  0.829800  0.572400  0.305500  1
  S  S2201  1  0.305500  0.829800  0.572400  1
  S  S2202  1  0.572400  0.305500  0.829800  1
  S  S2203  1  0.951600  0.418100  0.532000  1
  S  S2204  1  0.532000  0.951600  0.418100  1
  S  S2205  1  0.418100  0.532000  0.951600  1
  S  S2206  1  0.468000  0.048400  0.581900  1
  S  S2207  1  0.581900  0.468000  0.048400  1
  S  S2208  1  0.048400  0.581900  0.468000  1
