
#######################################################################
#
#                 Cambridge Crystallographic Data Centre
#                                CCDC 
#
#######################################################################
#
# If this CIF has been generated from an entry in the Cambridge 
# Structural Database, then it will include bibliographic, chemical, 
# crystal, experimental, refinement or atomic coordinate data resulting 
# from the CCDC's data processing and validation procedures.
#
#######################################################################

data_MUPDUW
_chemical_formula_moiety         
'C121 H99 Ag4 N24 O3 S1 3+,3(C1 H3 O3 S1 1-),6(H2 O1)'
_chemical_name_systematic        
"tetrakis(\m~3~-1,3,5-tris(Benzimidazol-2-yl)-2,4,6-trimethylbenzene-N,N',N'')-(\m~3~-methanesulfonato-O,O',O'')-tetra-silver(i) tris(methanesulfonate) hexahydrate"
_symmetry_cell_setting           rhombohedral
_symmetry_space_group_name_H-M   'R -3'
_symmetry_Int_Tables_number      148
_space_group_name_Hall           '-R 3'
loop_
_symmetry_equiv_pos_site_id
_symmetry_equiv_pos_as_xyz
1 x,y,z
2 -y,x-y,z
3 -x+y,-x,z
4 2/3+x,1/3+y,1/3+z
5 2/3-y,1/3+x-y,1/3+z
6 2/3-x+y,1/3-x,1/3+z
7 2/3+y,1/3-x+y,1/3-z
8 2/3+x-y,1/3+x,1/3-z
9 1/3+x,2/3+y,2/3+z
10 -x,-y,-z
11 y,-x+y,-z
12 x-y,x,-z
13 1/3-x,2/3-y,2/3-z
14 1/3+y,2/3-x+y,2/3-z
15 1/3+x-y,2/3+x,2/3-z
16 1/3-y,2/3+x-y,2/3+z
17 1/3-x+y,2/3-x,2/3+z
18 2/3-x,1/3-y,1/3-z
_cell_length_a                   40.805(6)
_cell_length_b                   40.805(6)
_cell_length_c                   60.53(1)
_cell_angle_alpha                90
_cell_angle_beta                 90
_cell_angle_gamma                120.0
_cell_volume                     87282.7
_exptl_crystal_colour            colorless
_exptl_crystal_description       block
_cell_formula_units_Z            24
loop_
_atom_site_label
_atom_site_type_symbol
_atom_site_fract_x
_atom_site_fract_y
_atom_site_fract_z
Ag1 Ag 1.30142(4) 1.41689(4) -0.21542(2)
Ag2 Ag 1.43264(4) 1.39540(4) -0.21057(2)
Ag3 Ag 1.46091(4) 1.56869(4) -0.20697(2)
Ag4 Ag 1.40070(4) 1.45088(4) -0.29256(2)
S1 S 1.3894(1) 1.4408(1) -0.23555(8)
O1 O 1.3518(4) 1.4356(4) -0.2408(2)
O2 O 1.3890(4) 1.4174(4) -0.2168(2)
O3 O 1.4092(4) 1.4375(4) -0.2552(2)
N1 N 1.2957(4) 1.3922(4) -0.1808(2)
N2 N 1.3020(4) 1.3808(4) -0.1456(2)
N3 N 1.4630(4) 1.4186(4) -0.1759(2)
N4 N 1.4767(4) 1.4444(4) -0.1419(3)
N5 N 1.4318(4) 1.5636(4) -0.1747(2)
N6 N 1.4100(4) 1.5480(4) -0.1402(2)
N7 N 1.3906(4) 1.3933(5) -0.3058(2)
N8 N 1.3692(5) 1.3312(4) -0.3104(3)
N9 N 1.2589(4) 1.3713(4) -0.2401(2)
N10 N 1.2297(5) 1.3204(4) -0.2620(3)
N11 N 1.3849(5) 1.3323(5) -0.2077(3)
N12 N 1.3417(5) 1.2746(5) -0.2173(3)
N13 N 1.4581(4) 1.6052(4) -0.2343(2)
N14 N 1.4383(4) 1.6329(4) -0.2583(2)
N15 N 1.3565(4) 1.4663(5) -0.3051(2)
N16 N 1.3396(4) 1.5079(4) -0.3165(2)
N17 N 1.2913(4) 1.4690(4) -0.2129(2)
N18 N 1.2811(4) 1.5151(4) -0.2227(2)
N19 N 1.4807(5) 1.4026(5) -0.2337(2)
N20 N 1.5394(5) 1.4313(5) -0.2459(2)
N21 N 1.5190(4) 1.5733(4) -0.2052(3)
N22 N 1.5755(5) 1.5828(5) -0.2136(3)
N23 N 1.4582(5) 1.5011(4) -0.3039(2)
N24 N 1.5188(5) 1.5433(5) -0.3070(3)
C1 C 1.3593(5) 1.4309(5) -0.1641(3)
C2 C 1.3871(5) 1.4201(5) -0.1634(3)
C3 C 1.4251(5) 1.4482(5) -0.1620(3)
C4 C 1.4361(5) 1.4866(5) -0.1613(3)
C5 C 1.4071(6) 1.4952(5) -0.1621(3)
C6 C 1.3698(5) 1.4686(5) -0.1630(3)
C7 C 1.3187(5) 1.4013(5) -0.1635(3)
C8 C 1.2599(5) 1.3624(5) -0.1728(3)
C9 C 1.2259(6) 1.3433(5) -0.1833(3)
C10 C 1.1950(5) 1.3150(6) -0.1712(3)
C11 C 1.2017(6) 1.3083(6) -0.1483(3)
C12 C 1.2352(6) 1.3291(6) -0.1381(3)
C13 C 1.2649(5) 1.3561(5) -0.1504(3)
C14 C 1.3749(5) 1.3788(6) -0.1630(3)
C15 C 1.4550(5) 1.4372(5) -0.1608(3)
C16 C 1.4913(5) 1.4145(5) -0.1673(3)
C17 C 1.5136(6) 1.3997(6) -0.1757(3)
C18 C 1.5409(6) 1.3994(6) -0.1640(4)
C19 C 1.5493(7) 1.4153(7) -0.1425(5)
C20 C 1.5303(7) 1.4317(8) -0.1342(4)
C21 C 1.5009(6) 1.4309(6) -0.1458(4)
C22 C 1.4767(5) 1.5169(5) -0.1591(3)
C23 C 1.4171(5) 1.5359(5) -0.1593(3)
C24 C 1.4339(5) 1.5954(5) -0.1643(3)
C25 C 1.4449(5) 1.6319(5) -0.1724(3)
C26 C 1.4427(5) 1.6566(5) -0.1589(3)
C27 C 1.4294(6) 1.6465(6) -0.1375(4)
C28 C 1.4178(7) 1.6114(6) -0.1286(3)
C29 C 1.4197(5) 1.5852(6) -0.1429(3)
C30 C 1.3387(5) 1.4786(5) -0.1627(3)
C31 C 1.3503(5) 1.3499(5) -0.2767(3)
C32 C 1.3172(6) 1.3530(5) -0.2741(3)
C33 C 1.2972(6) 1.3429(5) -0.2540(4)
C34 C 1.3105(6) 1.3298(6) -0.2364(3)
C35 C 1.3418(5) 1.3261(5) -0.2390(3)
C36 C 1.3619(5) 1.3365(5) -0.2592(3)
C37 C 1.3682(6) 1.3583(6) -0.2974(3)
C38 C 1.4058(6) 1.3881(6) -0.3261(3)
C39 C 1.4304(6) 1.4133(6) -0.3408(4)
C40 C 1.4425(7) 1.4009(8) -0.3586(4)
C41 C 1.4277(9) 1.3596(8) -0.3611(4)
C42 C 1.4022(8) 1.3349(6) -0.3464(4)
C43 C 1.3924(7) 1.3484(6) -0.3288(4)
C44 C 1.3034(5) 1.3676(6) -0.2926(3)
C45 C 1.2621(6) 1.3457(5) -0.2520(3)
C46 C 1.2212(5) 1.3632(5) -0.2442(3)
C47 C 1.2032(6) 1.3813(6) -0.2368(3)
C48 C 1.1662(6) 1.3669(6) -0.2435(3)
C49 C 1.1477(6) 1.3350(7) -0.2564(3)
C50 C 1.1659(7) 1.3155(7) -0.2641(4)
C51 C 1.2054(6) 1.3315(6) -0.2570(3)
C52 C 1.2881(6) 1.3161(5) -0.2146(3)
C53 C 1.3557(6) 1.3111(6) -0.2210(3)
C54 C 1.3891(6) 1.3073(6) -0.1943(3)
C55 C 1.4157(6) 1.3132(6) -0.1793(4)
C56 C 1.4133(7) 1.2807(8) -0.1691(4)
C57 C 1.3881(9) 1.2450(8) -0.1756(4)
C58 C 1.3602(8) 1.2389(6) -0.1913(4)
C59 C 1.3626(6) 1.2716(7) -0.2008(4)
C60 C 1.3978(6) 1.3332(5) -0.2615(3)
C61 C 1.3954(5) 1.5642(5) -0.2522(3)
C62 C 1.3908(5) 1.5465(5) -0.2734(3)
C63 C 1.3592(5) 1.5130(5) -0.2775(3)
C64 C 1.3292(5) 1.4960(5) -0.2620(3)
C65 C 1.3330(5) 1.5136(5) -0.2416(3)
C66 C 1.3667(5) 1.5485(5) -0.2365(3)
C67 C 1.4310(5) 1.6004(6) -0.2481(3)
C68 C 1.4854(6) 1.6425(6) -0.2370(3)
C69 C 1.5221(6) 1.6624(6) -0.2284(3)
C70 C 1.5452(5) 1.7011(6) -0.2340(3)
C71 C 1.5333(6) 1.7178(5) -0.2482(3)
C72 C 1.4973(6) 1.6983(6) -0.2577(3)
C73 C 1.4739(6) 1.6603(5) -0.2516(3)
C74 C 1.4224(5) 1.5640(5) -0.2903(3)
C75 C 1.3522(5) 1.4956(5) -0.2999(3)
C76 C 1.3440(5) 1.4586(6) -0.3278(3)
C77 C 1.3417(6) 1.4306(6) -0.3414(3)
C78 C 1.3302(6) 1.4297(6) -0.3630(3)
C79 C 1.3210(6) 1.4579(7) -0.3696(3)
C80 C 1.3231(6) 1.4865(5) -0.3565(3)
C81 C 1.3351(5) 1.4854(5) -0.3344(3)
C82 C 1.2934(5) 1.4606(6) -0.2675(3)
C83 C 1.3027(4) 1.4990(5) -0.2253(3)
C84 C 1.2618(5) 1.4672(5) -0.1998(3)
C85 C 1.2395(5) 1.4416(5) -0.1833(3)
C86 C 1.2121(5) 1.4471(5) -0.1739(3)
C87 C 1.2051(5) 1.4749(6) -0.1804(3)
C88 C 1.2255(5) 1.4996(6) -0.1976(3)
C89 C 1.2544(6) 1.4954(6) -0.2073(3)
C90 C 1.3701(5) 1.5683(5) -0.2149(3)
C91 C 1.5079(5) 1.4697(6) -0.2459(3)
C92 C 1.5221(5) 1.4980(5) -0.2301(3)
C93 C 1.5234(5) 1.5314(6) -0.2350(3)
C94 C 1.5138(5) 1.5393(5) -0.2552(3)
C95 C 1.5003(5) 1.5096(5) -0.2715(3)
C96 C 1.4980(5) 1.4750(5) -0.2667(3)
C97 C 1.5084(6) 1.4336(6) -0.2417(3)
C98 C 1.4939(6) 1.3756(6) -0.2333(3)
C99 C 1.4759(7) 1.3379(6) -0.2264(3)
C100 C 1.4952(7) 1.3184(6) -0.2273(3)
C101 C 1.5329(9) 1.3382(8) -0.2340(4)
C102 C 1.5524(7) 1.3770(8) -0.2408(4)
C103 C 1.5304(7) 1.3938(6) -0.2407(3)
C104 C 1.5352(6) 1.4924(5) -0.2070(3)
C105 C 1.5373(5) 1.5623(6) -0.2174(3)
C106 C 1.5463(6) 1.6027(6) -0.1926(3)
C107 C 1.5419(5) 1.6243(6) -0.1767(4)
C108 C 1.5731(8) 1.6528(7) -0.1661(3)
C109 C 1.6086(6) 1.6593(7) -0.1728(4)
C110 C 1.6129(7) 1.6368(9) -0.1881(4)
C111 C 1.5807(6) 1.6092(6) -0.1975(3)
C112 C 1.5165(5) 1.5769(5) -0.2604(3)
C113 C 1.4893(6) 1.5162(6) -0.2943(3)
C114 C 1.4657(6) 1.5170(5) -0.3250(3)
C115 C 1.4411(5) 1.5088(6) -0.3426(3)
C116 C 1.4587(8) 1.5304(6) -0.3620(3)
C117 C 1.4974(8) 1.5544(6) -0.3636(4)
C118 C 1.5209(6) 1.5633(7) -0.3467(4)
C119 C 1.5022(6) 1.5426(5) -0.3270(3)
C120 C 1.4852(6) 1.4448(6) -0.2844(4)
C161 C 1.4155(6) 1.4876(6) -0.2277(3)
H1 H 1.3139 1.3828 -0.1317
H2 H 1.4752 1.4564 -0.1288
H3 H 1.4001 1.5334 -0.1271
H4 H 1.3562 1.3049 -0.3074
H5 H 1.2231 1.3487 -0.1982
H6 H 1.1707 1.3008 -0.1778
H7 H 1.2254 1.2993 -0.2707
H8 H 1.1814 1.2885 -0.1403
H9 H 1.2382 1.3252 -0.1229
H10 H 1.3211 1.2542 -0.2247
H11 H 1.4220 1.6361 -0.2682
H12 H 1.3592 1.3673 -0.1505
H13 H 1.3612 1.3671 -0.1761
H14 H 1.3965 1.3759 -0.1622
H15 H 1.3347 1.5282 -0.3160
H16 H 1.5088 1.3895 -0.1902
H17 H 1.5550 1.3887 -0.1699
H18 H 1.2841 1.5366 -0.2305
H19 H 1.5683 1.4145 -0.1338
H20 H 1.5372 1.4440 -0.1203
H21 H 1.5629 1.4510 -0.2514
H22 H 1.5945 1.5796 -0.2205
H23 H 1.4866 1.5136 -0.1457
H24 H 1.4907 1.5152 -0.1712
H25 H 1.4784 1.5410 -0.1592
H26 H 1.5445 1.5587 -0.3029
H27 H 1.4538 1.6387 -0.1872
H28 H 1.4504 1.6814 -0.1641
H30 H 1.4282 1.6649 -0.1285
H31 H 1.4091 1.6053 -0.1138
H34 H 1.3400 1.4915 -0.1494
H35 H 1.3418 1.4946 -0.1750
H36 H 1.3148 1.4562 -0.1637
H38 H 1.4394 1.4396 -0.3389
H39 H 1.4598 1.4183 -0.3691
H40 H 1.4363 1.3505 -0.3729
H41 H 1.3914 1.3084 -0.3485
H42 H 1.3045 1.3904 -0.2882
H43 H 1.3191 1.3722 -0.3052
H44 H 1.2781 1.3493 -0.2962
H45 H 1.2154 1.4029 -0.2276
H46 H 1.1530 1.3794 -0.2389
H47 H 1.1220 1.3259 -0.2602
H48 H 1.1535 1.2936 -0.2731
H49 H 1.2860 1.3362 -0.2081
H50 H 1.2635 1.2954 -0.2175
H51 H 1.3010 1.3084 -0.2047
H52 H 1.4354 1.3379 -0.1756
H53 H 1.4299 1.2839 -0.1573
H54 H 1.3892 1.2240 -0.1696
H55 H 1.3409 1.2142 -0.1953
H56 H 1.3915 1.3077 -0.2591
H57 H 1.4081 1.3409 -0.2759
H58 H 1.4160 1.3490 -0.2508
H59 H 1.5313 1.6501 -0.2190
H60 H 1.5695 1.7154 -0.2275
H61 H 1.5497 1.7435 -0.2520
H62 H 1.4891 1.7103 -0.2680
H63 H 1.4309 1.5467 -0.2936
H64 H 1.4133 1.5696 -0.3034
H65 H 1.4429 1.5866 -0.2845
H66 H 1.3480 1.4124 -0.3362
H67 H 1.3284 1.4111 -0.3731
H68 H 1.3127 1.4567 -0.3844
H69 H 1.3171 1.5050 -0.3616
H70 H 1.2729 1.4654 -0.2672
H71 H 1.2953 1.4523 -0.2819
H72 H 1.2890 1.4415 -0.2570
H73 H 1.2433 1.4214 -0.1788
H74 H 1.1972 1.4307 -0.1623
H75 H 1.1859 1.4776 -0.1732
H76 H 1.2201 1.5185 -0.2024
H77 H 1.3910 1.5704 -0.2068
H78 H 1.3738 1.5928 -0.2178
H79 H 1.3475 1.5541 -0.2066
H80 H 1.4505 1.3260 -0.2212
H81 H 1.4832 1.2923 -0.2235
H82 H 1.5465 1.3250 -0.2340
H83 H 1.5782 1.3899 -0.2450
H84 H 1.5149 1.4715 -0.1998
H85 H 1.5558 1.4878 -0.2088
H86 H 1.5433 1.5147 -0.1985
H87 H 1.5173 1.6196 -0.1730
H88 H 1.5705 1.6675 -0.1548
H89 H 1.6306 1.6800 -0.1665
H90 H 1.6371 1.6404 -0.1919
H91 H 1.5420 1.5967 -0.2590
H92 H 1.5081 1.5765 -0.2751
H93 H 1.5010 1.5812 -0.2504
H94 H 1.4149 1.4905 -0.3418
H95 H 1.4431 1.5281 -0.3742
H96 H 1.5075 1.5650 -0.3777
H97 H 1.5470 1.5814 -0.3475
H98 H 1.4637 1.4223 -0.2793
H99 H 1.4789 1.4534 -0.2974
H100 H 1.5051 1.4398 -0.2875
H129 H 1.4405 1.4934 -0.2240
H130 H 1.4164 1.5034 -0.2395
H131 H 1.4040 1.4918 -0.2152
Ag5 Ag 1.0000 1.0000 -0.23934(4)
Ag6 Ag 1.09296(4) 1.03456(4) -0.33573(2)
S2 S 1.0000 1.0000 -0.3225(1)
O4 O 1.0359(3) 1.0343(3) -0.3290(2)
N25 N 1.0190(3) 1.0622(2) -0.2323(1)
N26 N 1.0499(2) 1.1245(2) -0.2300(1)
N27 N 1.1359(3) 1.0759(3) -0.3076(2)
N28 N 1.1665(3) 1.1351(3) -0.2961(2)
N29 N 1.1079(3) 0.9873(3) -0.3355(2)
N30 N 1.1252(3) 0.9484(3) -0.3214(1)
N31 N 1.1039(3) 1.0635(3) -0.3702(2)
N32 N 1.0983(3) 1.0670(3) -0.4063(2)
C121 C 1.0529(5) 1.1003(5) -0.2668(3)
C122 C 1.0366(6) 1.1138(5) -0.2821(3)
C123 C 1.0515(6) 1.1219(5) -0.3022(3)
C124 C 1.0812(6) 1.1182(5) -0.3091(3)
C125 C 1.0974(5) 1.1051(5) -0.2939(3)
C126 C 1.0840(5) 1.0954(5) -0.2726(3)
C127 C 1.0407(3) 1.0938(3) -0.2429(1)
C128 C 1.0150(2) 1.0726(2) -0.2114(1)
C129 C 0.9969(2) 1.0512(2) -0.1927(1)
C130 C 0.9984(3) 1.0692(3) -0.1729(1)
C131 C 1.0181(3) 1.1086(3) -0.1717(1)
C132 C 1.0362(3) 1.1300(2) -0.1904(1)
C133 C 1.0347(2) 1.1120(2) -0.2103(1)
C134 C 1.0036(6) 1.1193(6) -0.2757(3)
C135 C 1.0978(7) 1.1284(6) -0.3332(3)
C136 C 1.1322(3) 1.1040(4) -0.3001(2)
C137 C 1.1740(3) 1.0894(2) -0.3092(1)
C138 C 1.1945(3) 1.0730(3) -0.3172(2)
C139 C 1.2339(3) 1.0940(4) -0.3178(2)
C140 C 1.2528(3) 1.1314(4) -0.3105(2)
C141 C 1.2323(3) 1.1478(3) -0.3025(2)
C142 C 1.1928(3) 1.1268(2) -0.3018(1)
C143 C 1.1021(5) 1.0821(6) -0.2561(3)
C144 C 1.1352(2) 0.9875(2) -0.3486(1)
C145 C 1.1533(3) 1.0080(3) -0.3675(2)
C146 C 1.1819(3) 1.0038(3) -0.3774(1)
C147 C 1.1924(3) 0.9790(3) -0.3683(2)
C148 C 1.1744(3) 0.9584(3) -0.3493(2)
C149 C 1.1458(2) 0.9627(2) -0.3395(1)
C150 C 1.0357(3) 1.1387(3) -0.3190(2)
C151 C 1.1384(3) 1.0886(2) -0.3789(1)
C152 C 1.1740(3) 1.1096(3) -0.3691(2)
C153 C 1.2055(3) 1.1326(3) -0.3821(2)
C154 C 1.2014(3) 1.1345(3) -0.4049(2)
C155 C 1.1658(3) 1.1135(3) -0.4146(2)
C156 C 1.1343(3) 1.0906(2) -0.4016(1)
C157 C 1.0805(2) 1.0503(3) -0.3870(2)
C158 C 1.0386(5) 1.0242(6) -0.3868(3)
C159 C 1.0141(6) 1.0399(6) -0.3864(3)
C160 C 1.0288(7) 1.0807(7) -0.3860(4)
C162 C 1.0000 1.0000 -0.2936(5)
H29 H 1.0651(3) 1.1498(2) -0.2344(2)
H32 H 1.1702(4) 1.1582(4) -0.2906(3)
H33 H 1.1259(4) 0.9310(4) -0.3115(2)
H37 H 1.0867(3) 1.0618(4) -0.4202(2)
H101 H 0.9835(3) 1.0243(2) -0.1935(2)
H102 H 0.9861(3) 1.0546(3) -0.1601(1)
H103 H 1.0191(4) 1.1209(3) -0.1582(1)
H104 H 1.0496(4) 1.1569(2) -0.1896(2)
H105 H 1.0108 1.1452 -0.2774
H106 H 0.9826 1.1042 -0.2850
H107 H 0.9969 1.1118 -0.2608
H108 H 1.1183 1.1237 -0.3345
H109 H 1.0786 1.1132 -0.3435
H110 H 1.1064 1.1543 -0.3360
H111 H 1.1816(4) 1.0475(3) -0.3222(3)
H112 H 1.2479(4) 1.0828(5) -0.3233(3)
H113 H 1.2797(3) 1.1457(5) -0.3109(3)
H114 H 1.2451(3) 1.1733(3) -0.2975(3)
H115 H 1.0838 1.0579 -0.2507
H116 H 1.1221 1.0805 -0.2630
H117 H 1.1118 1.0996 -0.2442
H118 H 1.1461(4) 1.0249(4) -0.3738(2)
H119 H 1.1941(4) 1.0178(4) -0.3903(2)
H120 H 1.2118(3) 0.9761(4) -0.3750(2)
H121 H 1.1815(4) 0.9416(4) -0.3431(2)
H122 H 1.1768(4) 1.1083(4) -0.3536(2)
H123 H 1.2297(3) 1.1468(4) -0.3755(3)
H124 H 1.2229(3) 1.1501(4) -0.4138(3)
H125 H 1.1631(4) 1.1148(4) -0.4301(2)
H126 H 1.0440 1.0913 -0.3733
H127 H 1.0435 1.0918 -0.3989
H128 H 1.0082 1.0854 -0.3857
H132 H 1.0234 1.0008 -0.2894
O4A O 0.9657(3) 1.0016(4) -0.3290(2)
Ag6A Ag 0.96544(4) 1.05840(6) -0.33573(2)
N27A N 0.9241(3) 1.0600(4) -0.3076(2)
C136A C 0.8960(4) 1.0282(5) -0.3001(2)
N28A N 0.8649(3) 1.0314(4) -0.2961(2)
C142A C 0.8732(2) 1.0660(4) -0.3018(1)
C137A C 0.9106(2) 1.0846(4) -0.3092(1)
C138A C 0.9270(3) 1.1215(4) -0.3172(2)
C139A C 0.9060(4) 1.1399(5) -0.3178(2)
C140A C 0.8686(4) 1.1214(5) -0.3105(2)
C141A C 0.8522(3) 1.0845(4) -0.3025(2)
H114A H 0.8267(3) 1.0718(4) -0.2975(3)
H113A H 0.8543(5) 1.1340(6) -0.3109(3)
H112A H 0.9172(5) 1.1651(6) -0.3233(3)
H111A H 0.9525(3) 1.1341(5) -0.3222(3)
H32A H 0.8418(4) 1.0120(6) -0.2906(3)
C125A C 0.8949(5) 0.9923(7) -0.2939(3)
C124A C 0.8818(5) 0.9630(8) -0.3091(3)
C123A C 0.8781(5) 0.9296(8) -0.3022(3)
C122A C 0.8862(5) 0.9228(8) -0.2821(3)
C121A C 0.8997(5) 0.9526(7) -0.2668(3)
C126A C 0.9046(5) 0.9886(7) -0.2726(3)
C143A C 0.9179(6) 1.0200(8) -0.2561(3)
H115A H 0.9421 1.0259 -0.2507
H116A H 0.9195 1.0416 -0.2630
H117A H 0.9004 1.0122 -0.2442
C127A C 0.9062(3) 0.9469(4) -0.2429(1)
N25A N 0.9378(2) 0.9568(4) -0.2323(1)
N25B N 1.0432(4) 0.9810(3) -0.2323(1)
C127B C 1.0531(4) 0.9593(3) -0.2429(1)
N26B N 1.0746(3) 0.9501(2) -0.2300(1)
C133B C 1.0773(3) 0.9653(2) -0.2103(1)
C128B C 1.0576(3) 0.9850(2) -0.2114(1)
C129B C 1.0543(3) 1.0031(2) -0.1927(1)
C130B C 1.0708(4) 1.0016(3) -0.1729(1)
C131B C 1.0905(4) 0.9819(3) -0.1717(1)
C132B C 1.0938(4) 0.9638(3) -0.1904(1)
H104B H 1.1073(4) 0.9504(4) -0.1896(2)
H103B H 1.1018(5) 0.9809(4) -0.1582(1)
H102B H 1.0685(4) 1.0139(3) -0.1601(1)
H101B H 1.0408(4) 1.0165(3) -0.1935(2)
H29B H 1.0847(4) 0.9349(3) -0.2344(2)
C121B C 1.0474(7) 0.9471(5) -0.2668(3)
C122B C 1.0772(8) 0.9634(6) -0.2821(3)
C123B C 1.0704(8) 0.9485(6) -0.3022(3)
C124B C 1.0370(8) 0.9188(6) -0.3091(3)
C125B C 1.0077(7) 0.9026(5) -0.2939(3)
C126B C 1.0114(7) 0.9160(5) -0.2726(3)
C143B C 0.9800(8) 0.8979(5) -0.2561(3)
H115B H 0.9741 0.9162 -0.2507
H116B H 0.9584 0.8779 -0.2630
H117B H 0.9878 0.8882 -0.2442
C136B C 0.9718(5) 0.8678(3) -0.3001(2)
N27B N 0.9400(4) 0.8641(3) -0.3076(2)
Ag6B Ag 0.94160(6) 0.90704(4) -0.33573(2)
O4B O 0.9984(4) 0.9641(3) -0.3290(2)
H132A H 0.9992 1.0226 -0.2894
H132B H 0.9774 0.9766 -0.2894
N29B N 0.8794(4) 0.8921(3) -0.3355(2)
C144B C 0.8523(3) 0.8648(2) -0.3486(1)
C145B C 0.8547(4) 0.8467(3) -0.3675(2)
C146B C 0.8219(4) 0.8181(3) -0.3774(1)
C147B C 0.7866(4) 0.8076(3) -0.3683(2)
C148B C 0.7840(4) 0.8256(3) -0.3493(2)
C149B C 0.8169(3) 0.8542(2) -0.3395(1)
N30B N 0.8232(4) 0.8748(3) -0.3214(1)
C150A C 0.8613(3) 0.8970(4) -0.3190(2)
H33B H 0.8051(6) 0.8741(4) -0.3115(2)
H121B H 0.7601(6) 0.8185(4) -0.3431(2)
H120B H 0.7643(5) 0.7882(3) -0.3750(2)
H119B H 0.8237(6) 0.8059(4) -0.3903(2)
H118B H 0.8788(6) 0.8539(4) -0.3738(2)
N31B N 0.9596(4) 0.8961(3) -0.3702(2)
C151B C 0.9502(4) 0.8616(3) -0.3789(1)
C152B C 0.9356(4) 0.8260(3) -0.3691(2)
C153B C 0.9271(4) 0.7945(3) -0.3821(2)
C154B C 0.9331(4) 0.7986(3) -0.4049(2)
C155B C 0.9477(4) 0.8342(3) -0.4146(2)
C156B C 0.9563(4) 0.8657(3) -0.4016(1)
N32B N 0.9687(4) 0.9017(3) -0.4063(2)
C157B C 0.9698(4) 0.9195(2) -0.3870(2)
C158B C 0.9856(8) 0.9614(5) -0.3868(3)
C159B C 1.0258(8) 0.9859(6) -0.3864(3)
C150B C 1.1030(4) 0.9643(3) -0.3190(2)
C158A C 0.9758(6) 1.0144(8) -0.3868(3)
C157A C 0.9497(3) 1.0302(4) -0.3870(2)
N31A N 0.9365(3) 1.0404(4) -0.3702(2)
N29A N 1.0127(3) 1.1206(4) -0.3355(2)
C144A C 1.0125(2) 1.1477(3) -0.3486(1)
C145A C 0.9920(3) 1.1453(4) -0.3675(2)
C146A C 0.9962(3) 1.1781(4) -0.3774(1)
C147A C 1.0210(3) 1.2134(4) -0.3683(2)
C148A C 1.0416(3) 1.2160(4) -0.3493(2)
C149A C 1.0373(2) 1.1831(3) -0.3395(1)
N30A N 1.0516(3) 1.1768(4) -0.3214(1)
H33A H 1.0690(4) 1.1949(6) -0.3115(2)
H121A H 1.0584(4) 1.2399(6) -0.3431(2)
H120A H 1.0239(4) 1.2357(5) -0.3750(2)
H119A H 0.9822(4) 1.1763(6) -0.3903(2)
H118A H 0.9751(4) 1.1212(6) -0.3738(2)
C151A C 0.9114(2) 1.0498(4) -0.3789(1)
C152A C 0.8904(3) 1.0644(4) -0.3691(2)
C153A C 0.8674(3) 1.0729(4) -0.3821(2)
C154A C 0.8655(3) 1.0669(4) -0.4049(2)
C155A C 0.8865(3) 1.0523(4) -0.4146(2)
C156A C 0.9094(2) 1.0437(4) -0.4016(1)
N32A N 0.9330(3) 1.0313(4) -0.4063(2)
H37A H 0.9382(4) 1.0249(5) -0.4202(2)
H125A H 0.8852(4) 1.0483(6) -0.4301(2)
H124A H 0.8499(4) 1.0728(5) -0.4138(3)
H123A H 0.8532(4) 1.0829(5) -0.3755(3)
H122A H 0.8917(4) 1.0685(6) -0.3536(2)
C159A C 0.9601(6) 0.9742(8) -0.3864(3)
C160A C 0.9193(7) 0.9481(10) -0.3860(4)
H126A H 0.9087 0.9527 -0.3733
H127A H 0.9082 0.9517 -0.3989
H128A H 0.9146 0.9228 -0.3857
C160B C 1.0519(10) 0.9712(7) -0.3860(4)
H126B H 1.0473 0.9560 -0.3733
H127B H 1.0483 0.9565 -0.3989
H128B H 1.0772 0.9918 -0.3857
H37B H 0.9751(5) 0.9133(3) -0.4202(2)
H125B H 0.9517(6) 0.8369(4) -0.4301(2)
H124B H 0.9272(5) 0.7771(3) -0.4138(3)
H123B H 0.9171(5) 0.7703(3) -0.3755(3)
H122B H 0.9315(6) 0.8232(4) -0.3536(2)
C137B C 0.9154(4) 0.8260(3) -0.3092(1)
C138B C 0.8785(4) 0.8055(3) -0.3172(2)
C139B C 0.8601(5) 0.7661(3) -0.3178(2)
C140B C 0.8786(5) 0.7472(3) -0.3105(2)
C141B C 0.9155(4) 0.7677(3) -0.3025(2)
C142B C 0.9340(4) 0.8072(3) -0.3018(1)
N28B N 0.9686(4) 0.8335(3) -0.2961(2)
H32B H 0.9880(6) 0.8298(4) -0.2906(3)
H114B H 0.9282(4) 0.7549(3) -0.2975(3)
H113B H 0.8660(6) 0.7203(3) -0.3109(3)
H112B H 0.8349(6) 0.7521(4) -0.3233(3)
H111B H 0.8659(5) 0.8184(4) -0.3222(3)
C135B C 1.0306(9) 0.9022(7) -0.3332(3)
H108B H 1.0054 0.8817 -0.3345
H109B H 1.0346 0.9214 -0.3435
H110B H 1.0479 0.8936 -0.3360
C134B C 1.1157(8) 0.9964(6) -0.2757(3)
H105B H 1.1344 0.9892 -0.2774
H106B H 1.1216 1.0174 -0.2850
H107B H 1.1149 1.0031 -0.2608
C128A C 0.9274(2) 0.9424(3) -0.2114(1)
C129A C 0.9488(2) 0.9457(3) -0.1927(1)
C130A C 0.9308(3) 0.9292(4) -0.1729(1)
C131A C 0.8914(3) 0.9095(4) -0.1717(1)
C132A C 0.8700(2) 0.9062(4) -0.1904(1)
C133A C 0.8880(2) 0.9227(3) -0.2103(1)
N26A N 0.8755(2) 0.9254(3) -0.2300(1)
H29A H 0.8502(2) 0.9153(4) -0.2344(2)
H104A H 0.8431(2) 0.8927(4) -0.1896(2)
H103A H 0.8791(3) 0.8982(5) -0.1582(1)
H102A H 0.9454(3) 0.9315(4) -0.1601(1)
H101A H 0.9757(2) 0.9592(4) -0.1935(2)
C134A C 0.8807(6) 0.8843(8) -0.2757(3)
H105A H 0.8548 0.8656 -0.2774
H106A H 0.8958 0.8784 -0.2850
H107A H 0.8882 0.8851 -0.2608
C135A C 0.8716(6) 0.9694(9) -0.3332(3)
H108A H 0.8763 0.9946 -0.3345
H109A H 0.8868 0.9654 -0.3435
H110A H 0.8457 0.9521 -0.3360
S3 S 1.0730(2) 1.2231(2) -0.23718(9)
O5 O 1.0711(3) 1.2437(3) -0.2564(1)
O6 O 1.0914(3) 1.2008(3) -0.2422(2)
O7 O 1.0366(2) 1.2009(3) -0.2256(2)
C163 C 1.1029(3) 1.2556(3) -0.2189(2)
H133 H 1.1060(4) 1.2439(5) -0.2062(2)
H134 H 1.1276(3) 1.2709(3) -0.2256(3)
H135 H 1.0941(5) 1.2724(3) -0.2146(2)
S4 S 1.6635(2) 1.5939(2) -0.2359(1)
O8 O 1.6642(4) 1.6287(3) -0.2287(2)
O9 O 1.6254(3) 1.5610(3) -0.2355(2)
O10 O 1.6838(4) 1.5988(4) -0.2569(2)
C164 C 1.6890(4) 1.5874(5) -0.2163(2)
H136 H 1.6771(6) 1.5843(6) -0.2020(2)
H137 H 1.6901(5) 1.5648(5) -0.2190(3)
H138 H 1.7139(4) 1.6082(6) -0.2154(3)
S5 S 1.3177(3) 1.1019(3) -0.3661(2)
O11 O 1.3315(6) 1.0761(5) -0.3717(3)
O12 O 1.3338(6) 1.1354(4) -0.3806(3)
O13 O 1.3209(6) 1.1118(6) -0.3425(2)
C165 C 1.2711(3) 1.0797(7) -0.3722(4)
H139 H 1.2606(4) 1.0953(9) -0.3695(5)
H140 H 1.2576(4) 1.0568(7) -0.3640(5)
H141 H 1.2674(6) 1.0728(8) -0.3878(4)
O14 O 0.9610(4) 1.1654(4) -0.2302(2)
O15 O 1.7160(5) 1.7059(5) -0.2256(2)
O16 O 1.1198(5) 0.8934(5) -0.2926(3)
O17 O 1.5963(5) 1.5828(5) -0.2948(3)
O18 O 0.8612(6) 1.1873(5) -0.2288(3)
O19 O 1.0484(5) 1.2986(5) -0.2499(3)
O20 O 0.9348(5) 1.2140(5) -0.2393(4)
O21 O 1.3865(6) 1.6348(5) -0.2879(4)
loop_
_geom_bond_atom_site_label_1
_geom_bond_atom_site_label_2
_geom_bond_site_symmetry_1
_geom_bond_site_symmetry_2
Ag1 O1 1_555 1_555
Ag2 O2 1_555 1_555
Ag3 N5 1_555 1_555
Ag4 O3 1_555 1_555
Ag5 N25 1_555 1_555
Ag6 O4 1_555 1_555
S1 O1 1_555 1_555
S2 O4 1_555 1_555
S3 O5 1_555 1_555
S4 O8 1_555 1_555
S5 O11 1_555 1_555
O2 S1 1_555 1_555
O3 S1 1_555 1_555
O6 S3 1_555 1_555
O7 S3 1_555 1_555
O9 S4 1_555 1_555
O10 S4 1_555 1_555
O12 S5 1_555 1_555
O13 S5 1_555 1_555
N1 Ag1 1_555 1_555
N2 C7 1_555 1_555
N3 Ag2 1_555 1_555
N4 C15 1_555 1_555
N5 C23 1_555 1_555
N6 C23 1_555 1_555
N7 Ag4 1_555 1_555
N8 C37 1_555 1_555
N9 Ag1 1_555 1_555
N10 C45 1_555 1_555
N11 Ag2 1_555 1_555
N12 C53 1_555 1_555
N13 Ag3 1_555 1_555
N14 C67 1_555 1_555
N15 Ag4 1_555 1_555
N16 C75 1_555 1_555
N17 Ag1 1_555 1_555
N18 C83 1_555 1_555
N19 Ag2 1_555 1_555
N20 C97 1_555 1_555
N21 Ag3 1_555 1_555
N22 C105 1_555 1_555
N23 Ag4 1_555 1_555
N24 C113 1_555 1_555
N25 C127 1_555 1_555
N26 C127 1_555 1_555
N27 Ag6 1_555 1_555
N28 C136 1_555 1_555
N29 Ag6 1_555 1_555
N30 C149 1_555 1_555
N31 Ag6 1_555 1_555
N32 C156 1_555 1_555
C1 C2 1_555 1_555
C2 C3 1_555 1_555
C3 C4 1_555 1_555
C4 C5 1_555 1_555
C5 C6 1_555 1_555
C6 C1 1_555 1_555
C7 N1 1_555 1_555
C8 N1 1_555 1_555
C9 C8 1_555 1_555
C10 C9 1_555 1_555
C11 C10 1_555 1_555
C12 C11 1_555 1_555
C13 N2 1_555 1_555
C14 C2 1_555 1_555
C15 N3 1_555 1_555
C16 N3 1_555 1_555
C17 C16 1_555 1_555
C18 C17 1_555 1_555
C19 C18 1_555 1_555
C20 C19 1_555 1_555
C21 N4 1_555 1_555
C22 C4 1_555 1_555
C23 C5 1_555 1_555
C24 N5 1_555 1_555
C25 C24 1_555 1_555
C26 C25 1_555 1_555
C27 C26 1_555 1_555
C28 C27 1_555 1_555
C29 N6 1_555 1_555
C30 C6 1_555 1_555
C31 C32 1_555 1_555
C32 C33 1_555 1_555
C33 C34 1_555 1_555
C34 C35 1_555 1_555
C35 C36 1_555 1_555
C36 C31 1_555 1_555
C37 N7 1_555 1_555
C38 N7 1_555 1_555
C39 C38 1_555 1_555
C40 C39 1_555 1_555
C41 C40 1_555 1_555
C42 C41 1_555 1_555
C43 N8 1_555 1_555
C44 C32 1_555 1_555
C45 N9 1_555 1_555
C46 N9 1_555 1_555
C47 C46 1_555 1_555
C48 C47 1_555 1_555
C49 C48 1_555 1_555
C50 C49 1_555 1_555
C51 N10 1_555 1_555
C52 C34 1_555 1_555
C53 N11 1_555 1_555
C54 N11 1_555 1_555
C55 C54 1_555 1_555
C56 C55 1_555 1_555
C57 C56 1_555 1_555
C58 C57 1_555 1_555
C59 N12 1_555 1_555
C60 C36 1_555 1_555
C61 C62 1_555 1_555
C62 C63 1_555 1_555
C63 C64 1_555 1_555
C64 C65 1_555 1_555
C65 C66 1_555 1_555
C66 C61 1_555 1_555
C67 N13 1_555 1_555
C68 N13 1_555 1_555
C69 C68 1_555 1_555
C70 C69 1_555 1_555
C71 C70 1_555 1_555
C72 C71 1_555 1_555
C73 N14 1_555 1_555
C74 C62 1_555 1_555
C75 N15 1_555 1_555
C76 N15 1_555 1_555
C77 C76 1_555 1_555
C78 C77 1_555 1_555
C79 C78 1_555 1_555
C80 C79 1_555 1_555
C81 N16 1_555 1_555
C82 C64 1_555 1_555
C83 N17 1_555 1_555
C84 N17 1_555 1_555
C85 C84 1_555 1_555
C86 C85 1_555 1_555
C87 C86 1_555 1_555
C88 C87 1_555 1_555
C89 N18 1_555 1_555
C90 C66 1_555 1_555
C91 C92 1_555 1_555
C92 C93 1_555 1_555
C93 C94 1_555 1_555
C94 C95 1_555 1_555
C95 C96 1_555 1_555
C96 C91 1_555 1_555
C97 N19 1_555 1_555
C98 N19 1_555 1_555
C99 C98 1_555 1_555
C100 C99 1_555 1_555
C101 C100 1_555 1_555
C102 C101 1_555 1_555
C103 N20 1_555 1_555
C104 C92 1_555 1_555
C105 N21 1_555 1_555
C106 N21 1_555 1_555
C107 C106 1_555 1_555
C108 C107 1_555 1_555
C109 C108 1_555 1_555
C110 C109 1_555 1_555
C111 N22 1_555 1_555
C112 C94 1_555 1_555
C113 N23 1_555 1_555
C114 N23 1_555 1_555
C115 C114 1_555 1_555
C116 C115 1_555 1_555
C117 C116 1_555 1_555
C118 C117 1_555 1_555
C119 N24 1_555 1_555
C120 C96 1_555 1_555
C121 C122 1_555 1_555
C122 C123 1_555 1_555
C123 C124 1_555 1_555
C124 C125 1_555 1_555
C125 C126 1_555 1_555
C126 C121 1_555 1_555
C127 C121 1_555 1_555
C128 N25 1_555 1_555
C129 C128 1_555 1_555
C130 C129 1_555 1_555
C131 C130 1_555 1_555
C132 C131 1_555 1_555
C133 N26 1_555 1_555
C134 C122 1_555 1_555
C135 C124 1_555 1_555
C136 N27 1_555 1_555
C137 N27 1_555 1_555
C138 C137 1_555 1_555
C139 C138 1_555 1_555
C140 C139 1_555 1_555
C141 C140 1_555 1_555
C142 N28 1_555 1_555
C143 C126 1_555 1_555
C144 N29 1_555 1_555
C145 C144 1_555 1_555
C146 C145 1_555 1_555
C147 C146 1_555 1_555
C148 C147 1_555 1_555
C149 C144 1_555 1_555
C150 C123 1_555 1_555
C151 N31 1_555 1_555
C152 C151 1_555 1_555
C153 C152 1_555 1_555
C154 C153 1_555 1_555
C155 C154 1_555 1_555
C156 C151 1_555 1_555
C157 N31 1_555 1_555
C158 C157 1_555 1_555
C159 C158 1_555 1_555
C160 C159 1_555 1_555
C161 S1 1_555 1_555
C162 S2 1_555 1_555
C163 S3 1_555 1_555
C164 S4 1_555 1_555
C165 S5 1_555 1_555
H1 N2 1_555 1_555
H2 N4 1_555 1_555
H3 N6 1_555 1_555
H4 N8 1_555 1_555
H5 C9 1_555 1_555
H6 C10 1_555 1_555
H7 N10 1_555 1_555
H8 C11 1_555 1_555
H9 C12 1_555 1_555
H10 N12 1_555 1_555
H11 N14 1_555 1_555
H12 C14 1_555 1_555
H13 C14 1_555 1_555
H14 C14 1_555 1_555
H15 N16 1_555 1_555
H16 C17 1_555 1_555
H17 C18 1_555 1_555
H18 N18 1_555 1_555
H19 C19 1_555 1_555
H20 C20 1_555 1_555
H21 N20 1_555 1_555
H22 N22 1_555 1_555
H23 C22 1_555 1_555
H24 C22 1_555 1_555
H25 C22 1_555 1_555
H26 N24 1_555 1_555
H27 C25 1_555 1_555
H28 C26 1_555 1_555
H29 N26 1_555 1_555
H30 C27 1_555 1_555
H31 C28 1_555 1_555
H32 N28 1_555 1_555
H33 N30 1_555 1_555
H34 C30 1_555 1_555
H35 C30 1_555 1_555
H36 C30 1_555 1_555
H37 N32 1_555 1_555
H38 C39 1_555 1_555
H39 C40 1_555 1_555
H40 C41 1_555 1_555
H41 C42 1_555 1_555
H42 C44 1_555 1_555
H43 C44 1_555 1_555
H44 C44 1_555 1_555
H45 C47 1_555 1_555
H46 C48 1_555 1_555
H47 C49 1_555 1_555
H48 C50 1_555 1_555
H49 C52 1_555 1_555
H50 C52 1_555 1_555
H51 C52 1_555 1_555
H52 C55 1_555 1_555
H53 C56 1_555 1_555
H54 C57 1_555 1_555
H55 C58 1_555 1_555
H56 C60 1_555 1_555
H57 C60 1_555 1_555
H58 C60 1_555 1_555
H59 C69 1_555 1_555
H60 C70 1_555 1_555
H61 C71 1_555 1_555
H62 C72 1_555 1_555
H63 C74 1_555 1_555
H64 C74 1_555 1_555
H65 C74 1_555 1_555
H66 C77 1_555 1_555
H67 C78 1_555 1_555
H68 C79 1_555 1_555
H69 C80 1_555 1_555
H70 C82 1_555 1_555
H71 C82 1_555 1_555
H72 C82 1_555 1_555
H73 C85 1_555 1_555
H74 C86 1_555 1_555
H75 C87 1_555 1_555
H76 C88 1_555 1_555
H77 C90 1_555 1_555
H78 C90 1_555 1_555
H79 C90 1_555 1_555
H80 C99 1_555 1_555
H81 C100 1_555 1_555
H82 C101 1_555 1_555
H83 C102 1_555 1_555
H84 C104 1_555 1_555
H85 C104 1_555 1_555
H86 C104 1_555 1_555
H87 C107 1_555 1_555
H88 C108 1_555 1_555
H89 C109 1_555 1_555
H90 C110 1_555 1_555
H91 C112 1_555 1_555
H92 C112 1_555 1_555
H93 C112 1_555 1_555
H94 C115 1_555 1_555
H95 C116 1_555 1_555
H96 C117 1_555 1_555
H97 C118 1_555 1_555
H98 C120 1_555 1_555
H99 C120 1_555 1_555
H100 C120 1_555 1_555
H101 C129 1_555 1_555
H102 C130 1_555 1_555
H103 C131 1_555 1_555
H104 C132 1_555 1_555
H105 C134 1_555 1_555
H106 C134 1_555 1_555
H107 C134 1_555 1_555
H108 C135 1_555 1_555
H109 C135 1_555 1_555
H110 C135 1_555 1_555
H111 C138 1_555 1_555
H112 C139 1_555 1_555
H113 C140 1_555 1_555
H114 C141 1_555 1_555
H115 C143 1_555 1_555
H116 C143 1_555 1_555
H117 C143 1_555 1_555
H118 C145 1_555 1_555
H119 C146 1_555 1_555
H120 C147 1_555 1_555
H121 C148 1_555 1_555
H122 C152 1_555 1_555
H123 C153 1_555 1_555
H124 C154 1_555 1_555
H125 C155 1_555 1_555
H126 C160 1_555 1_555
H127 C160 1_555 1_555
H128 C160 1_555 1_555
H129 C161 1_555 1_555
H130 C161 1_555 1_555
H131 C161 1_555 1_555
H132 C162 1_555 1_555
H133 C163 1_555 1_555
H134 C163 1_555 1_555
H135 C163 1_555 1_555
H136 C164 1_555 1_555
H137 C164 1_555 1_555
H138 C164 1_555 1_555
H139 C165 1_555 1_555
H140 C165 1_555 1_555
H141 C165 1_555 1_555
O4A S2 1_555 1_555
Ag6A O4A 1_555 1_555
N27A Ag6A 1_555 1_555
C136A N27A 1_555 1_555
N28A C136A 1_555 1_555
C142A N28A 1_555 1_555
C137A N27A 1_555 1_555
C138A C137A 1_555 1_555
C139A C138A 1_555 1_555
C140A C139A 1_555 1_555
C141A C142A 1_555 1_555
H114A C141A 1_555 1_555
H113A C140A 1_555 1_555
H112A C139A 1_555 1_555
H111A C138A 1_555 1_555
H32A N28A 1_555 1_555
C125A C136A 1_555 1_555
C124A C125A 1_555 1_555
C123A C124A 1_555 1_555
C122A C123A 1_555 1_555
C121A C122A 1_555 1_555
C126A C125A 1_555 1_555
C143A C126A 1_555 1_555
H115A C143A 1_555 1_555
H116A C143A 1_555 1_555
H117A C143A 1_555 1_555
C127A C121A 1_555 1_555
N25A Ag5 1_555 1_555
N25B Ag5 1_555 1_555
C127B N25B 1_555 1_555
N26B C127B 1_555 1_555
C133B N26B 1_555 1_555
C128B N25B 1_555 1_555
C129B C128B 1_555 1_555
C130B C129B 1_555 1_555
C131B C130B 1_555 1_555
C132B C133B 1_555 1_555
H104B C132B 1_555 1_555
H103B C131B 1_555 1_555
H102B C130B 1_555 1_555
H101B C129B 1_555 1_555
H29B N26B 1_555 1_555
C121B C127B 1_555 1_555
C122B C121B 1_555 1_555
C123B C122B 1_555 1_555
C124B C123B 1_555 1_555
C125B C124B 1_555 1_555
C126B C121B 1_555 1_555
C143B C126B 1_555 1_555
H115B C143B 1_555 1_555
H116B C143B 1_555 1_555
H117B C143B 1_555 1_555
C136B C125B 1_555 1_555
N27B C136B 1_555 1_555
Ag6B N27B 1_555 1_555
O4B S2 1_555 1_555
H132A C162 1_555 1_555
H132B C162 1_555 1_555
N29B Ag6B 1_555 1_555
C144B N29B 1_555 1_555
C145B C144B 1_555 1_555
C146B C145B 1_555 1_555
C147B C146B 1_555 1_555
C148B C147B 1_555 1_555
C149B C144B 1_555 1_555
N30B C149B 1_555 1_555
C150A C123A 1_555 1_555
H33B N30B 1_555 1_555
H121B C148B 1_555 1_555
H120B C147B 1_555 1_555
H119B C146B 1_555 1_555
H118B C145B 1_555 1_555
N31B Ag6B 1_555 1_555
C151B N31B 1_555 1_555
C152B C151B 1_555 1_555
C153B C152B 1_555 1_555
C154B C153B 1_555 1_555
C155B C154B 1_555 1_555
C156B C151B 1_555 1_555
N32B C156B 1_555 1_555
C157B N31B 1_555 1_555
C158B C157B 1_555 1_555
C159B C158 1_555 1_555
C150B N29 1_555 1_555
C158A C159 1_555 1_555
C157A C158A 1_555 1_555
N31A Ag6A 1_555 1_555
N29A C150 1_555 1_555
C144A N29A 1_555 1_555
C145A C144A 1_555 1_555
C146A C145A 1_555 1_555
C147A C146A 1_555 1_555
C148A C147A 1_555 1_555
C149A C144A 1_555 1_555
N30A C150 1_555 1_555
H33A N30A 1_555 1_555
H121A C148A 1_555 1_555
H120A C147A 1_555 1_555
H119A C146A 1_555 1_555
H118A C145A 1_555 1_555
C151A N31A 1_555 1_555
C152A C151A 1_555 1_555
C153A C152A 1_555 1_555
C154A C153A 1_555 1_555
C155A C154A 1_555 1_555
C156A C151A 1_555 1_555
N32A C157A 1_555 1_555
H37A N32A 1_555 1_555
H125A C155A 1_555 1_555
H124A C154A 1_555 1_555
H123A C153A 1_555 1_555
H122A C152A 1_555 1_555
C159A C158B 1_555 1_555
C160A C159A 1_555 1_555
H126A C160A 1_555 1_555
H127A C160A 1_555 1_555
H128A C160A 1_555 1_555
C160B C159B 1_555 1_555
H126B C160B 1_555 1_555
H127B C160B 1_555 1_555
H128B C160B 1_555 1_555
H37B N32B 1_555 1_555
H125B C155B 1_555 1_555
H124B C154B 1_555 1_555
H123B C153B 1_555 1_555
H122B C152B 1_555 1_555
C137B N27B 1_555 1_555
C138B C137B 1_555 1_555
C139B C138B 1_555 1_555
C140B C139B 1_555 1_555
C141B C140B 1_555 1_555
C142B C137B 1_555 1_555
N28B C136B 1_555 1_555
H32B N28B 1_555 1_555
H114B C141B 1_555 1_555
H113B C140B 1_555 1_555
H112B C139B 1_555 1_555
H111B C138B 1_555 1_555
C135B C124B 1_555 1_555
H108B C135B 1_555 1_555
H109B C135B 1_555 1_555
H110B C135B 1_555 1_555
C134B C122B 1_555 1_555
H105B C134B 1_555 1_555
H106B C134B 1_555 1_555
H107B C134B 1_555 1_555
C128A N25A 1_555 1_555
C129A C128A 1_555 1_555
C130A C129A 1_555 1_555
C131A C130A 1_555 1_555
C132A C131A 1_555 1_555
C133A C128A 1_555 1_555
N26A C127A 1_555 1_555
H29A N26A 1_555 1_555
H104A C132A 1_555 1_555
H103A C131A 1_555 1_555
H102A C130A 1_555 1_555
H101A C129A 1_555 1_555
C134A C122A 1_555 1_555
H105A C134A 1_555 1_555
H106A C134A 1_555 1_555
H107A C134A 1_555 1_555
C135A C124A 1_555 1_555
H108A C135A 1_555 1_555
H109A C135A 1_555 1_555
H110A C135A 1_555 1_555
N30 C150B 1_555 1_555
N32 C157 1_555 1_555
C1 C7 1_555 1_555
C3 C15 1_555 1_555
C8 C13 1_555 1_555
C12 C13 1_555 1_555
C16 C21 1_555 1_555
C20 C21 1_555 1_555
C24 C29 1_555 1_555
C28 C29 1_555 1_555
C31 C37 1_555 1_555
C33 C45 1_555 1_555
C35 C53 1_555 1_555
C38 C43 1_555 1_555
C42 C43 1_555 1_555
C46 C51 1_555 1_555
C50 C51 1_555 1_555
C54 C59 1_555 1_555
C58 C59 1_555 1_555
C61 C67 1_555 1_555
C63 C75 1_555 1_555
C65 C83 1_555 1_555
C68 C73 1_555 1_555
C72 C73 1_555 1_555
C76 C81 1_555 1_555
C80 C81 1_555 1_555
C84 C89 1_555 1_555
C88 C89 1_555 1_555
C91 C97 1_555 1_555
C93 C105 1_555 1_555
C95 C113 1_555 1_555
C98 C103 1_555 1_555
C102 C103 1_555 1_555
C106 C111 1_555 1_555
C110 C111 1_555 1_555
C114 C119 1_555 1_555
C118 C119 1_555 1_555
C125 C136 1_555 1_555
C128 C133 1_555 1_555
C132 C133 1_555 1_555
C137 C142 1_555 1_555
C141 C142 1_555 1_555
C148 C149 1_555 1_555
C155 C156 1_555 1_555
Ag6A N29A 1_555 1_555
C142A C137A 1_555 1_555
C140A C141A 1_555 1_555
C121A C126A 1_555 1_555
C127A N25A 1_555 1_555
C133B C128B 1_555 1_555
C131B C132B 1_555 1_555
C123B C150B 1_555 1_555
C125B C126B 1_555 1_555
Ag6B O4B 1_555 1_555
N29B C150A 1_555 1_555
C148B C149B 1_555 1_555
N30B C150A 1_555 1_555
C155B C156B 1_555 1_555
N32B C157B 1_555 1_555
C158B C159B 1_555 1_555
C158A C159A 1_555 1_555
C157A N31A 1_555 1_555
C148A C149A 1_555 1_555
C149A N30A 1_555 1_555
C155A C156A 1_555 1_555
C156A N32A 1_555 1_555
C141B C142B 1_555 1_555
C142B N28B 1_555 1_555
C132A C133A 1_555 1_555
C133A N26A 1_555 1_555

#END
