
#######################################################################
#
#                 Cambridge Crystallographic Data Centre
#                                CCDC 
#
#######################################################################
#
# If this CIF has been generated from an entry in the Cambridge 
# Structural Database, then it will include bibliographic, chemical, 
# crystal, experimental, refinement or atomic coordinate data resulting 
# from the CCDC's data processing and validation procedures.
#
#######################################################################

data_MUZBUG
_chemical_formula_moiety         'C164 H162 Co2 N8 O18 Ru8 8+,8(C1 F3 O3 S1 1-)'
_chemical_name_systematic        
'bis(\m~5~-\h^2^,\h^2^-2,3,4,5-tetrakis(Pyridin-4-yl)cyclopenta-2,4-dien-1-one)-tetrakis(\m~2~-benzene-1,2,4,5-tetrolato)-octakis(\h^6^-p-cymene)-bis(\h^5^-cyclopentadienyl)-di-cobalt-octa-ruthenium octakis(trifluoromethanesulfonate)'
_symmetry_cell_setting           triclinic
_symmetry_space_group_name_H-M   'P -1'
_symmetry_Int_Tables_number      2
_space_group_name_Hall           '-P 1'
loop_
_symmetry_equiv_pos_site_id
_symmetry_equiv_pos_as_xyz
1 x,y,z
2 -x,-y,-z
_cell_length_a                   18.6286(6)
_cell_length_b                   22.3857(7)
_cell_length_c                   27.5313(9)
_cell_angle_alpha                70.437(2)
_cell_angle_beta                 76.340(2)
_cell_angle_gamma                68.855(2)
_cell_volume                     10002.5
_cell_formula_units_Z            2
loop_
_atom_site_label
_atom_site_type_symbol
_atom_site_fract_x
_atom_site_fract_y
_atom_site_fract_z
S1 S 0.7515(3) 0.6717(3) 0.7459(2)
O19 O 0.7336(9) 0.6082(8) 0.7708(6)
O20 O 0.6996(9) 0.7181(7) 0.7089(6)
O21 O 0.7701(9) 0.7027(8) 0.7775(7)
F1 F 0.8981(8) 0.5991(7) 0.7322(6)
F2 F 0.8745(10) 0.6960(9) 0.6837(7)
F3 F 0.8338(9) 0.6244(8) 0.6699(7)
C160 C 0.8460(17) 0.6462(15) 0.7049(12)
S2 S 0.4855(3) 0.5299(3) 0.1243(2)
O22 O 0.5620(9) 0.5306(8) 0.1213(7)
O23 O 0.4223(10) 0.5793(9) 0.1422(7)
O24 O 0.4724(13) 0.5189(11) 0.0783(9)
F4 F 0.5315(10) 0.4002(9) 0.1608(7)
F5 F 0.4063(11) 0.4461(9) 0.1743(7)
F6 F 0.4959(18) 0.4514(15) 0.2137(13)
C161 C 0.472(3) 0.451(2) 0.1719(18)
S3 S 0.4347(4) 0.0365(3) 0.7806(3)
O25 O 0.5191(10) 0.0180(9) 0.7778(7)
O26 O 0.3957(10) 0.0987(9) 0.7865(7)
O27 O 0.4075(12) 0.0216(11) 0.7427(9)
C162 C 0.427(4) -0.001(4) 0.814(3)
F7 F 0.4218(13) 0.0068(12) 0.8754(10)
F8 F 0.4397(13) -0.0746(12) 0.8557(10)
F9 F 0.3342(12) -0.0119(10) 0.8519(8)
S4 S 0.9175(4) 0.5349(4) 0.3203(3)
O28 O 0.8992(9) 0.4769(8) 0.3246(6)
O29 O 0.9913(12) 0.5222(10) 0.3418(9)
O30 O 0.8921(17) 0.5859(15) 0.2708(13)
F10 F 0.8572(12) 0.6359(11) 0.3591(9)
F11 F 0.7766(12) 0.5917(9) 0.3544(8)
F12 F 0.8469(15) 0.5371(14) 0.4070(12)
C163 C 0.845(3) 0.584(2) 0.3599(17)
Ru1 Ru 0.85164(8) 0.41104(7) 0.20517(6)
Ru2 Ru -0.09038(9) 0.85029(8) 0.23503(7)
Ru3 Ru 0.08612(8) 0.76854(7) 0.55713(6)
Ru4 Ru 0.37340(8) 0.97662(7) 0.39566(6)
Ru5 Ru 0.57454(9) 0.71541(8) -0.03885(7)
Ru6 Ru 0.29407(9) 1.02487(8) 0.05204(7)
Co1 Co 0.19017(14) 0.52240(12) 0.39740(10)
Ru7 Ru 0.16421(8) 0.57689(7) 0.09858(6)
Co2 Co 0.46128(14) 0.68933(12) 0.26293(10)
C1 C 0.2321(9) 0.5562(8) 0.3221(6)
C2 C 0.2213(9) 0.6057(8) 0.3881(7)
C3 C 0.2950(9) 0.5180(8) 0.3512(7)
C4 C 0.2955(10) 0.5519(8) 0.3890(7)
C5 C 0.1845(9) 0.6106(8) 0.3441(7)
Ru8 Ru 0.53443(8) 0.22901(7) 0.35159(6)
N1 N 0.4648(7) 0.3294(6) 0.3445(5)
N2 N 0.1872(7) 0.5647(6) 0.1737(5)
N3 N 0.0005(8) 0.7714(7) 0.2713(6)
N4 N 0.1363(7) 0.7220(6) 0.4974(5)
N5 N 0.4055(8) 0.8987(7) 0.3594(6)
N6 N 0.5596(8) 0.7144(7) 0.0406(6)
N7 N 0.7525(7) 0.4886(6) 0.2220(5)
N8 N 0.3516(9) 0.9458(8) 0.1119(6)
O1 O 0.5845(7) 0.2681(6) 0.2770(5)
O2 O 0.6191(6) 0.2581(6) 0.3651(5)
O3 O 0.1960(6) 0.7723(5) 0.5569(4)
O4 O 0.1454(6) 0.6776(5) 0.0888(5)
O5 O 0.0906(6) 0.8537(5) 0.4978(4)
O6 O 0.0486(6) 0.6107(6) 0.1317(5)
O7 O -0.0097(7) 0.8451(6) 0.1672(5)
O8 O -0.1061(6) 0.7754(5) 0.2131(5)
O9 O 0.8139(6) 0.3575(5) 0.2787(4)
O10 O 0.7740(7) 0.3736(6) 0.1906(5)
O11 O 0.4552(7) 0.7679(6) -0.0330(5)
O12 O 0.5721(8) 0.8120(7) -0.0479(5)
O13 O 0.4042(7) 0.9967(6) 0.0095(5)
O14 O 0.2892(7) 0.9470(6) 0.0274(5)
O15 O 0.2621(6) 0.9762(5) 0.4018(4)
O16 O 0.3629(6) 0.9002(5) 0.4641(5)
C6 C 0.7581(9) 0.3366(8) 0.2832(7)
C7 C 0.6608(10) 0.2863(9) 0.3234(7)
C8 C 0.7361(10) 0.3457(8) 0.2301(7)
C9 C 0.6403(9) 0.2904(8) 0.2741(7)
C10 C 0.7199(9) 0.3085(8) 0.3280(7)
C11 C 0.6767(11) 0.3197(9) 0.2283(8)
C12 C 0.0295(10) 0.6658(8) 0.1402(7)
C13 C -0.0498(10) 0.7496(8) 0.1820(7)
C14 C 0.0864(10) 0.7071(8) 0.1152(7)
C15 C -0.0382(10) 0.6895(8) 0.1735(7)
C16 C 0.0723(10) 0.7696(9) 0.1206(7)
C17 C 0.0072(10) 0.7912(9) 0.1542(7)
C18 C 0.2166(9) 0.8205(8) 0.5226(7)
C19 C 0.3002(9) 0.8848(8) 0.4756(7)
C20 C 0.2425(10) 0.9275(8) 0.4378(7)
C21 C 0.1536(9) 0.8684(8) 0.4863(6)
C22 C 0.1682(9) 0.9199(8) 0.4453(7)
C23 C 0.2892(9) 0.8311(8) 0.5158(7)
C24 C 0.3541(10) 0.9125(9) 0.0076(7)
C25 C 0.4947(11) 0.9099(9) -0.0218(8)
C26 C 0.5042(11) 0.8504(10) -0.0304(8)
C27 C 0.4236(11) 0.9421(10) -0.0019(8)
C28 C 0.3642(11) 0.8570(9) -0.0052(8)
C29 C 0.4387(10) 0.8239(9) -0.0229(7)
O17 O 0.3446(7) 0.5369(6) 0.4162(5)
O18 O 0.6071(7) 0.6806(6) 0.3152(5)
C30 C 0.4037(10) 0.3557(8) 0.3166(7)
C31 C 0.4173(11) 0.4284(9) 0.3725(8)
C32 C 0.3531(9) 0.4538(8) 0.3474(7)
C33 C 0.4698(10) 0.3636(9) 0.3719(7)
C34 C 0.3467(10) 0.4177(9) 0.3168(8)
C35 C 0.2174(9) 0.5529(8) 0.2715(7)
C36 C 0.2513(10) 0.5747(9) 0.1802(7)
C37 C 0.1525(10) 0.5417(8) 0.2672(7)
C38 C 0.2688(10) 0.5686(8) 0.2283(7)
C39 C 0.1391(9) 0.5469(8) 0.2187(7)
C40 C 0.0740(12) 0.7746(10) 0.2654(8)
C41 C 0.1183(9) 0.6659(8) 0.3209(7)
C42 C 0.0480(11) 0.6585(9) 0.3243(8)
C43 C -0.0094(11) 0.7125(10) 0.2987(8)
C44 C 0.1307(11) 0.7226(10) 0.2915(8)
C45 C 0.1925(9) 0.6483(8) 0.4224(7)
C46 C 0.0941(12) 0.7352(10) 0.4612(9)
C47 C 0.1205(13) 0.6949(11) 0.4226(9)
C48 C 0.2352(13) 0.6413(11) 0.4596(10)
C49 C 0.2058(12) 0.6782(10) 0.4957(9)
C50 C 0.6893(10) 0.5156(8) 0.1949(7)
C51 C 0.6971(10) 0.5775(9) 0.2626(7)
C52 C 0.7530(11) 0.5188(9) 0.2555(8)
C53 C 0.6359(9) 0.6063(8) 0.2313(7)
C54 C 0.6329(10) 0.5702(8) 0.2004(7)
C55 C 0.5393(10) 0.7165(8) 0.1424(7)
C56 C 0.6040(11) 0.7285(9) 0.1087(8)
C57 C 0.4850(10) 0.7015(9) 0.1241(7)
C58 C 0.6133(9) 0.7265(8) 0.0577(7)
C59 C 0.4961(10) 0.7014(8) 0.0721(7)
C60 C 0.4346(10) 0.8347(9) 0.1814(7)
C61 C 0.4611(11) 0.8899(10) 0.1590(8)
C62 C 0.3251(10) 0.8919(9) 0.1348(7)
C63 C 0.4157(11) 0.9458(10) 0.1254(8)
C64 C 0.3637(10) 0.8362(9) 0.1700(7)
C65 C 0.4649(9) 0.8072(8) 0.2998(6)
C66 C 0.3631(10) 0.9011(8) 0.3245(7)
C67 C 0.3920(10) 0.8542(9) 0.2933(7)
C68 C 0.4761(10) 0.8520(9) 0.3657(7)
C69 C 0.5047(10) 0.8071(9) 0.3374(7)
C70 C 0.5645(10) 0.7044(9) 0.2768(8)
C71 C 0.5788(9) 0.6718(8) 0.2368(6)
C72 C 0.5311(9) 0.7167(8) 0.1967(7)
C73 C 0.5026(9) 0.7615(8) 0.2676(6)
C74 C 0.4849(9) 0.7723(8) 0.2165(7)
C75 C 0.0158(10) 0.8102(9) 0.6227(8)
C76 C 0.0675(10) 0.7459(9) 0.6421(7)
C77 C -0.0317(11) 0.8183(9) 0.5840(8)
C78 C 0.0669(12) 0.6898(10) 0.6266(8)
C79 C 0.0154(11) 0.7004(9) 0.5908(8)
C80 C -0.0306(12) 0.7661(10) 0.5689(8)
C81 C 0.0154(12) 0.8709(10) 0.6362(8)
C82 C 0.0195(13) 0.6404(11) 0.5737(10)
C83 C 0.4815(10) 1.0025(8) 0.3585(7)
C84 C 0.4224(10) 1.0404(8) 0.3287(7)
C85 C 0.3966(10) 1.0380(9) 0.4327(7)
C86 C 0.3367(10) 1.0785(9) 0.4029(8)
C87 C 0.4673(10) 0.9972(9) 0.4132(8)
C88 C 0.2848(12) 1.1252(10) 0.3139(9)
C89 C 0.3511(10) 1.0793(9) 0.3502(8)
C90 C 0.2850(13) 1.1268(11) 0.0453(10)
C91 C 0.2553(14) 1.1009(12) 0.0957(11)
C92 C 0.2557(13) 1.1277(11) 0.0001(10)
C93 C 0.1929(13) 1.0707(11) 0.1031(10)
C94 C -0.2124(11) 0.9067(9) 0.2376(8)
C95 C -0.1719(12) 0.9471(10) 0.2047(9)
C96 C -0.1957(12) 0.8741(11) 0.2935(9)
C97 C -0.1102(12) 0.9556(10) 0.2182(9)
C98 C -0.0936(14) 0.9228(12) 0.2727(10)
C99 C 0.2402(10) 0.5772(9) 0.0263(8)
C100 C 0.2801(10) 0.5273(9) 0.0633(8)
C101 C 0.1677(11) 0.5839(9) 0.0181(8)
C102 C 0.2433(10) 0.4777(9) 0.1006(8)
C103 C 0.1330(11) 0.5327(10) 0.0508(8)
C104 C 0.1726(11) 0.4787(9) 0.0922(8)
C105 C 0.2724(15) 0.6324(13) -0.0112(11)
C106 C 0.1317(12) 0.4298(10) 0.1288(9)
C107 C 0.6879(13) 0.6680(12) -0.0628(10)
C108 C 0.6608(13) 0.6191(11) -0.0233(9)
C109 C 0.6589(12) 0.7026(10) -0.1074(9)
C110 C 0.5585(12) 0.6474(10) -0.0729(9)
C111 C 0.6941(15) 0.5797(13) 0.0272(11)
C112 C 0.5949(12) 0.6127(10) -0.0299(9)
C113 C 0.9441(12) 0.4491(11) 0.2082(9)
C114 C 0.9397(12) 0.3789(11) 0.1445(9)
C115 C 0.9115(12) 0.4872(10) 0.1615(9)
C116 C 0.9096(12) 0.4518(10) 0.1268(9)
C117 C 0.9713(12) 0.3808(10) 0.2211(9)
C118 C 0.8751(14) 0.5618(12) 0.1482(10)
C119 C 1.0013(16) 0.2668(14) 0.2097(11)
C120 C 0.9687(12) 0.3446(10) 0.1907(9)
C121 C 0.4528(12) 0.1831(10) 0.3476(9)
C122 C 0.5264(11) 0.1491(10) 0.3260(8)
C123 C 0.5715(12) 0.1345(10) 0.4097(9)
C124 C 0.4353(11) 0.1948(10) 0.3951(8)
C125 C 0.5868(11) 0.1218(10) 0.3607(8)
C126 C 0.4980(13) 0.1708(11) 0.4291(9)
C127 C 0.0841(14) 0.5154(12) 0.4390(10)
C128 C 0.1166(15) 0.4687(13) 0.4116(11)
C129 C 0.3596(12) 0.6771(11) 0.2574(9)
C130 C 0.3463(13) 0.7026(11) 0.2999(10)
C131 C 0.4221(13) 0.6121(11) 0.2679(9)
C132 C -0.1322(14) 0.8832(12) 0.3067(10)
C133 C -0.0570(15) 0.9971(13) 0.1787(11)
C134 C -0.2316(15) 0.8218(13) 0.3303(11)
C135 C -0.2568(17) 0.7786(15) 0.3076(12)
C136 C -0.3126(19) 0.8599(16) 0.3622(14)
C137 C 0.3505(15) 0.2356(13) 0.4119(11)
C138 C 0.1340(16) 0.5087(13) 0.4692(11)
C139 C 0.1950(15) 0.4567(13) 0.4688(11)
C140 C 0.1917(16) 0.4303(14) 0.4310(12)
C141 C 0.4040(17) 0.6555(15) 0.3361(12)
C142 C 0.4459(15) 0.6022(13) 0.3177(11)
C143 C 0.1965(14) 1.0998(12) 0.0148(10)
C144 C 0.1672(13) 1.0680(11) 0.0618(10)
C145 C 0.2891(17) 1.0977(14) 0.1429(12)
C146 C 0.9640(16) 0.2365(14) 0.1892(12)
C147 C 1.0872(16) 0.2499(14) 0.1918(11)
C148 C 0.3118(17) 0.6141(14) -0.0611(12)
C149 C 0.3344(15) 0.6469(13) 0.0125(11)
C150 C 0.5916(15) 0.6920(12) -0.1119(11)
C151 C 0.5735(16) 0.8086(14) -0.1936(12)
C152 C 0.547(2) 0.7399(18) -0.1632(15)
C153 C 0.5288(12) 0.9525(11) 0.4476(9)
C154 C 0.2837(13) 1.0904(12) 0.2741(10)
C155 C 0.2055(13) 1.1419(11) 0.3465(9)
C156 C 0.097(2) 0.8514(17) 0.6575(14)
C157 C 0.667(3) 0.070(3) 0.321(2)
C158 C 0.170(2) 1.0877(19) -0.0425(16)
C159 C 0.732(2) 0.1057(18) 0.3464(15)
loop_
_geom_bond_atom_site_label_1
_geom_bond_atom_site_label_2
_geom_bond_site_symmetry_1
_geom_bond_site_symmetry_2
Ru1 N7 1_555 1_555
Ru2 N3 1_555 1_555
Ru3 N4 1_555 1_555
Ru4 N5 1_555 1_555
Ru5 N6 1_555 1_555
Ru6 N8 1_555 1_555
Co1 C1 1_555 1_555
Ru7 N2 1_555 1_555
Co2 C71 1_555 1_555
C1 C3 1_555 1_555
C2 Co1 1_555 1_555
C3 Co1 1_555 1_555
C4 C2 1_555 1_555
C5 Co1 1_555 1_555
Ru8 N1 1_555 1_555
N1 C30 1_555 1_555
N2 C36 1_555 1_555
N3 C40 1_555 1_555
N4 C46 1_555 1_555
N5 C66 1_555 1_555
N6 C58 1_555 1_555
N7 C50 1_555 1_555
N8 C62 1_555 1_555
O1 Ru8 1_555 1_555
O2 Ru8 1_555 1_555
O3 Ru3 1_555 1_555
O4 Ru7 1_555 1_555
O5 Ru3 1_555 1_555
O6 Ru7 1_555 1_555
O7 Ru2 1_555 1_555
O8 Ru2 1_555 1_555
O9 Ru1 1_555 1_555
O10 Ru1 1_555 1_555
O11 Ru5 1_555 1_555
O12 Ru5 1_555 1_555
O13 Ru6 1_555 1_555
O14 Ru6 1_555 1_555
O15 Ru4 1_555 1_555
O16 Ru4 1_555 1_555
C6 O9 1_555 1_555
C7 O2 1_555 1_555
C8 O10 1_555 1_555
C9 O1 1_555 1_555
C10 C6 1_555 1_555
C11 C8 1_555 1_555
C12 O6 1_555 1_555
C13 O8 1_555 1_555
C14 O4 1_555 1_555
C15 C12 1_555 1_555
C16 C14 1_555 1_555
C17 O7 1_555 1_555
C18 O3 1_555 1_555
C19 O16 1_555 1_555
C20 O15 1_555 1_555
C21 O5 1_555 1_555
C22 C20 1_555 1_555
C23 C18 1_555 1_555
C24 O14 1_555 1_555
C25 C26 1_555 1_555
C26 O12 1_555 1_555
C27 O13 1_555 1_555
C28 C24 1_555 1_555
C29 O11 1_555 1_555
O17 C4 1_555 1_555
O18 C70 1_555 1_555
C30 C34 1_555 1_555
C31 C32 1_555 1_555
C32 C3 1_555 1_555
C33 N1 1_555 1_555
C34 C32 1_555 1_555
C35 C1 1_555 1_555
C36 C38 1_555 1_555
C37 C35 1_555 1_555
C38 C35 1_555 1_555
C39 N2 1_555 1_555
C40 C44 1_555 1_555
C41 C5 1_555 1_555
C42 C41 1_555 1_555
C43 N3 1_555 1_555
C44 C41 1_555 1_555
C45 C2 1_555 1_555
C46 C47 1_555 1_555
C47 C45 1_555 1_555
C48 C45 1_555 1_555
C49 N4 1_555 1_555
C50 C54 1_555 1_555
C51 C52 1_555 1_555
C52 N7 1_555 1_555
C53 C51 1_555 1_555
C54 C53 1_555 1_555
C55 C56 1_555 1_555
C56 C58 1_555 1_555
C57 C55 1_555 1_555
C59 N6 1_555 1_555
C60 C61 1_555 1_555
C61 C63 1_555 1_555
C62 C64 1_555 1_555
C63 N8 1_555 1_555
C64 C60 1_555 1_555
C65 C67 1_555 1_555
C66 C67 1_555 1_555
C68 N5 1_555 1_555
C69 C65 1_555 1_555
C70 C71 1_555 1_555
C71 C53 1_555 1_555
C72 Co2 1_555 1_555
C73 Co2 1_555 1_555
C74 Co2 1_555 1_555
C75 Ru3 1_555 1_555
C76 Ru3 1_555 1_555
C77 Ru3 1_555 1_555
C78 Ru3 1_555 1_555
C79 Ru3 1_555 1_555
C80 Ru3 1_555 1_555
C81 C75 1_555 1_555
C82 C79 1_555 1_555
C83 Ru4 1_555 1_555
C84 Ru4 1_555 1_555
C85 Ru4 1_555 1_555
C86 Ru4 1_555 1_555
C87 Ru4 1_555 1_555
C88 C89 1_555 1_555
C89 Ru4 1_555 1_555
C90 Ru6 1_555 1_555
C91 Ru6 1_555 1_555
C92 Ru6 1_555 1_555
C93 Ru6 1_555 1_555
C94 Ru2 1_555 1_555
C95 Ru2 1_555 1_555
C96 Ru2 1_555 1_555
C97 Ru2 1_555 1_555
C98 Ru2 1_555 1_555
C99 Ru7 1_555 1_555
C100 Ru7 1_555 1_555
C101 Ru7 1_555 1_555
C102 Ru7 1_555 1_555
C103 Ru7 1_555 1_555
C104 Ru7 1_555 1_555
C105 C99 1_555 1_555
C106 C104 1_555 1_555
C107 Ru5 1_555 1_555
C108 Ru5 1_555 1_555
C109 Ru5 1_555 1_555
C110 Ru5 1_555 1_555
C111 C108 1_555 1_555
C112 Ru5 1_555 1_555
C113 Ru1 1_555 1_555
C114 Ru1 1_555 1_555
C115 Ru1 1_555 1_555
C116 Ru1 1_555 1_555
C117 Ru1 1_555 1_555
C118 C115 1_555 1_555
C119 C120 1_555 1_555
C120 Ru1 1_555 1_555
C121 Ru8 1_555 1_555
C122 Ru8 1_555 1_555
C123 Ru8 1_555 1_555
C124 Ru8 1_555 1_555
C125 Ru8 1_555 1_555
C126 Ru8 1_555 1_555
C127 Co1 1_555 1_555
C128 Co1 1_555 1_555
C129 Co2 1_555 1_555
C130 Co2 1_555 1_555
C131 Co2 1_555 1_555
C132 Ru2 1_555 1_555
C133 C97 1_555 1_555
C134 C96 1_555 1_555
C135 C134 1_555 1_555
C136 C134 1_555 1_555
C137 C124 1_555 1_555
C138 Co1 1_555 1_555
C139 Co1 1_555 1_555
C140 Co1 1_555 1_555
C141 Co2 1_555 1_555
C142 Co2 1_555 1_555
C143 Ru6 1_555 1_555
C144 Ru6 1_555 1_555
C145 C91 1_555 1_555
C146 C119 1_555 1_555
C147 C119 1_555 1_555
C148 C105 1_555 1_555
C149 C105 1_555 1_555
C150 Ru5 1_555 1_555
C151 C152 1_555 1_555
C152 C150 1_555 1_555
C153 C87 1_555 1_555
C154 C88 1_555 1_555
C155 C88 1_555 1_555
C156 C81 1_555 1_555
C157 C125 1_555 1_555
C158 C143 1_555 1_555
C159 C157 1_555 1_555
S1 O19 1_555 1_555
O20 S1 1_555 1_555
O21 S1 1_555 1_555
F1 C160 1_555 1_555
F2 C160 1_555 1_555
F3 C160 1_555 1_555
C160 S1 1_555 1_555
S2 O22 1_555 1_555
O23 S2 1_555 1_555
O24 S2 1_555 1_555
F4 C161 1_555 1_555
F5 C161 1_555 1_555
F6 C161 1_555 1_555
C161 S2 1_555 1_555
S3 O25 1_555 1_555
O26 S3 1_555 1_555
O27 S3 1_555 1_555
C162 S3 1_555 1_555
F7 C162 1_555 1_555
F8 C162 1_555 1_555
F9 C162 1_555 1_555
S4 O28 1_555 1_555
O29 S4 1_555 1_555
O30 S4 1_555 1_555
F10 C163 1_555 1_555
F11 C163 1_555 1_555
F12 C163 1_555 1_555
C163 S4 1_555 1_555
C1 C5 1_555 1_555
C2 C5 1_555 1_555
C3 C4 1_555 1_555
C6 C8 1_555 1_555
C7 C9 1_555 1_555
C7 C10 1_555 1_555
C9 C11 1_555 1_555
C12 C14 1_555 1_555
C13 C15 1_555 1_555
C13 C17 1_555 1_555
C16 C17 1_555 1_555
C18 C21 1_555 1_555
C19 C20 1_555 1_555
C19 C23 1_555 1_555
C21 C22 1_555 1_555
C24 C27 1_555 1_555
C25 C27 1_555 1_555
C26 C29 1_555 1_555
C28 C29 1_555 1_555
C31 C33 1_555 1_555
C37 C39 1_555 1_555
C42 C43 1_555 1_555
C48 C49 1_555 1_555
C55 C72 1_555 1_555
C57 C59 1_555 1_555
C60 C74 1_555 1_555
C65 C73 1_555 1_555
C68 C69 1_555 1_555
C70 C73 1_555 1_555
C71 C72 1_555 1_555
C72 C74 1_555 1_555
C73 C74 1_555 1_555
C75 C76 1_555 1_555
C75 C77 1_555 1_555
C76 C78 1_555 1_555
C77 C80 1_555 1_555
C78 C79 1_555 1_555
C79 C80 1_555 1_555
C83 C84 1_555 1_555
C83 C87 1_555 1_555
C84 C89 1_555 1_555
C85 C86 1_555 1_555
C85 C87 1_555 1_555
C86 C89 1_555 1_555
C90 C91 1_555 1_555
C90 C92 1_555 1_555
C91 C93 1_555 1_555
C92 C143 1_555 1_555
C93 C144 1_555 1_555
C94 C95 1_555 1_555
C94 C96 1_555 1_555
C95 C97 1_555 1_555
C96 C132 1_555 1_555
C97 C98 1_555 1_555
C98 C132 1_555 1_555
C99 C100 1_555 1_555
C99 C101 1_555 1_555
C100 C102 1_555 1_555
C101 C103 1_555 1_555
C102 C104 1_555 1_555
C103 C104 1_555 1_555
C107 C108 1_555 1_555
C107 C109 1_555 1_555
C108 C112 1_555 1_555
C109 C150 1_555 1_555
C110 C112 1_555 1_555
C110 C150 1_555 1_555
C113 C115 1_555 1_555
C113 C117 1_555 1_555
C114 C116 1_555 1_555
C114 C120 1_555 1_555
C115 C116 1_555 1_555
C117 C120 1_555 1_555
C121 C122 1_555 1_555
C121 C124 1_555 1_555
C122 C125 1_555 1_555
C123 C125 1_555 1_555
C123 C126 1_555 1_555
C124 C126 1_555 1_555
C127 C128 1_555 1_555
C127 C138 1_555 1_555
C128 C140 1_555 1_555
C129 C130 1_555 1_555
C129 C131 1_555 1_555
C130 C141 1_555 1_555
C131 C142 1_555 1_555
C138 C139 1_555 1_555
C139 C140 1_555 1_555
C141 C142 1_555 1_555
C143 C144 1_555 1_555

#END
