
#######################################################################
#
#                 Cambridge Crystallographic Data Centre
#                                CCDC 
#
#######################################################################
#
# If this CIF has been generated from an entry in the Cambridge 
# Structural Database, then it will include bibliographic, chemical, 
# crystal, experimental, refinement or atomic coordinate data resulting 
# from the CCDC's data processing and validation procedures.
#
#######################################################################

data_NABQEO
_chemical_formula_moiety         
'C52 H80 N8 Pd2 Si4 4+,4(F6 P1 1-),2.5(C4 H4 O1)'
_chemical_name_systematic        
"(1,4-bis(Dimethyl(4-pyridyl)silyl)benzene-N,N')-bis(1,2-bis(dimethylamino)ethane-N,N')-di-palladium(ii) tetrakis(hexafluorophosphate) furan solvate"
_symmetry_cell_setting           monoclinic
_symmetry_space_group_name_H-M   'P 21/n'
_symmetry_Int_Tables_number      14
_space_group_name_Hall           '-P 2yn'
loop_
_symmetry_equiv_pos_site_id
_symmetry_equiv_pos_as_xyz
1 x,y,z
2 1/2-x,1/2+y,1/2-z
3 -x,-y,-z
4 1/2+x,1/2-y,1/2+z
_cell_length_a                   17.7616(9)
_cell_length_b                   23.6322(11)
_cell_length_c                   21.2195(11)
_cell_angle_alpha                90
_cell_angle_beta                 106.2670(10)
_cell_angle_gamma                90
_cell_volume                     8550.23
_exptl_crystal_colour            colorless
_exptl_crystal_description       plate
_cell_formula_units_Z            4
loop_
_atom_site_label
_atom_site_type_symbol
_atom_site_fract_x
_atom_site_fract_y
_atom_site_fract_z
Pd1 Pd 1.11449(3) 0.29678(2) 0.67370(3)
Pd2 Pd 0.65691(3) 0.29496(2) 0.80673(3)
Si1 Si 0.89124(11) 0.08574(8) 0.50664(10)
Si2 Si 0.53839(12) 0.14903(9) 0.52432(10)
Si3 Si 0.86726(12) 0.07332(9) 0.96508(11)
Si4 Si 1.21953(12) 0.14101(9) 0.94895(11)
N1 N 1.0448(3) 0.2334(2) 0.6242(3)
N2 N 0.6236(3) 0.2452(2) 0.7257(3)
N3 N 0.7230(3) 0.2292(2) 0.8548(3)
N4 N 1.1432(3) 0.2448(2) 0.7525(3)
N5 N 1.0847(3) 0.3523(3) 0.5948(3)
N6 N 1.1857(3) 0.3609(3) 0.7240(3)
N7 N 0.5888(3) 0.3616(2) 0.7594(3)
N8 N 0.6889(3) 0.3476(2) 0.8876(3)
C1 C 1.0768(4) 0.1913(3) 0.5982(4)
H1 H 1.1315 0.1921 0.6025
C2 C 1.0329(4) 0.1472(3) 0.5657(4)
H2 H 1.0579 0.1180 0.5482
C3 C 0.9529(4) 0.1439(3) 0.5577(3)
C4 C 0.9220(4) 0.1878(3) 0.5865(4)
H3 H 0.8675 0.1878 0.5832
C5 C 0.9680(4) 0.2310(3) 0.6194(4)
H4 H 0.9451 0.2598 0.6391
C6 C 0.9053(5) 0.0890(3) 0.4237(4)
H5 H 0.8739 0.0594 0.3961
H6 H 0.9609 0.0832 0.4267
H7 H 0.8887 0.1261 0.4042
C7 C 0.9248(4) 0.0171(3) 0.5466(4)
H8 H 0.8935 -0.0136 0.5210
H9 H 0.9184 0.0170 0.5910
H10 H 0.9802 0.0114 0.5491
C8 C 0.7868(4) 0.0996(3) 0.5046(3)
C9 C 0.7436(4) 0.1430(3) 0.4675(4)
H11 H 0.7668 0.1649 0.4403
C10 C 0.6680(4) 0.1556(3) 0.4688(4)
H12 H 0.6403 0.1853 0.4420
C11 C 0.6321(4) 0.1258(3) 0.5082(4)
C12 C 0.6738(4) 0.0813(3) 0.5430(4)
H13 H 0.6499 0.0590 0.5694
C13 C 0.7484(4) 0.0676(3) 0.5414(4)
H14 H 0.7742 0.0359 0.5657
C14 C 0.4877(5) 0.2044(3) 0.4661(4)
H15 H 0.4684 0.1880 0.4220
H16 H 0.5245 0.2351 0.4653
H17 H 0.4434 0.2193 0.4800
C15 C 0.4733(4) 0.0890(3) 0.5277(4)
H18 H 0.4552 0.0714 0.4843
H19 H 0.4280 0.1027 0.5411
H20 H 0.5021 0.0611 0.5596
C16 C 0.5741(4) 0.1836(3) 0.6085(3)
C17 C 0.5355(4) 0.1805(3) 0.6573(4)
H21 H 0.4907 0.1569 0.6507
C18 C 0.5605(4) 0.2108(3) 0.7148(3)
H22 H 0.5331 0.2074 0.7472
C19 C 0.6641(4) 0.2476(3) 0.6806(4)
H23 H 0.7101 0.2702 0.6891
C20 C 0.6405(4) 0.2182(3) 0.6230(3)
H24 H 0.6700 0.2213 0.5920
C21 C 0.6888(4) 0.1885(3) 0.8813(4)
H25 H 0.6345 0.1914 0.8779
C22 C 0.7305(4) 0.1424(3) 0.9135(4)
H26 H 0.7043 0.1147 0.9321
C23 C 0.8111(4) 0.1358(3) 0.9192(3)
C24 C 0.8439(4) 0.1783(3) 0.8905(4)
H27 H 0.8980 0.1761 0.8924
C25 C 0.8005(4) 0.2237(3) 0.8590(4)
H28 H 0.8253 0.2518 0.8398
C26 C 0.8322(5) 0.0086(3) 0.9174(4)
H29 H 0.8607 -0.0242 0.9405
H30 H 0.8412 0.0118 0.8740
H31 H 0.7759 0.0039 0.9122
C27 C 0.8507(5) 0.0709(3) 1.0472(4)
H32 H 0.8793 0.0388 1.0719
H33 H 0.7945 0.0666 1.0425
H34 H 0.8695 0.1062 1.0707
C28 C 0.9711(4) 0.0870(3) 0.9688(4)
C29 C 1.0055(4) 0.0631(3) 0.9220(4)
H35 H 0.9768 0.0360 0.8915
C30 C 1.0792(4) 0.0782(3) 0.9199(4)
H36 H 1.1003 0.0613 0.8879
C31 C 1.1240(4) 0.1177(3) 0.9630(4)
C32 C 1.0927(4) 0.1407(3) 1.0102(4)
H37 H 1.1226 0.1672 1.0409
C33 C 1.0173(4) 0.1255(3) 1.0133(4)
H38 H 0.9973 0.1417 1.0464
C34 C 1.2835(4) 0.0799(3) 0.9439(4)
H39 H 1.2995 0.0606 0.9864
H40 H 1.3302 0.0935 0.9325
H41 H 1.2546 0.0535 0.9101
C35 C 1.2720(5) 0.1934(3) 1.0114(4)
H42 H 1.2893 0.1750 1.0544
H43 H 1.2366 0.2247 1.0133
H44 H 1.3176 0.2080 0.9992
C36 C 1.1878(4) 0.1793(3) 0.8674(4)
C37 C 1.1195(4) 0.2128(3) 0.8515(4)
H45 H 1.0871 0.2134 0.8803
C38 C 1.0991(4) 0.2446(3) 0.7951(4)
H46 H 1.0528 0.2669 0.7857
C39 C 1.2070(4) 0.2110(3) 0.7654(4)
H47 H 1.2375 0.2099 0.7352
C40 C 1.2292(4) 0.1779(3) 0.8210(4)
H48 H 1.2736 0.1538 0.8276
C41 C 0.9989(4) 0.3582(4) 0.5650(4)
H49 H 0.9890 0.3850 0.5283
H50 H 0.9745 0.3724 0.5981
H51 H 0.9764 0.3213 0.5490
C42 C 1.1202(5) 0.3335(4) 0.5419(4)
H52 H 1.1056 0.3602 0.5051
H53 H 1.1007 0.2957 0.5266
H54 H 1.1774 0.3324 0.5594
C43 C 1.1160(6) 0.4087(3) 0.6218(5)
H55 H 1.1227 0.4329 0.5856
H56 H 1.0779 0.4274 0.6413
C44 C 1.1915(6) 0.4030(4) 0.6719(5)
H57 H 1.2079 0.4402 0.6925
H58 H 1.2319 0.3902 0.6509
C45 C 1.2663(4) 0.3425(3) 0.7576(4)
H59 H 1.2966 0.3749 0.7802
H60 H 1.2911 0.3275 0.7253
H61 H 1.2647 0.3130 0.7897
C46 C 1.1511(6) 0.3868(4) 0.7742(5)
H62 H 1.1854 0.4171 0.7974
H63 H 1.1459 0.3578 0.8057
H64 H 1.0992 0.4024 0.7523
C47 C 0.6256(5) 0.3896(3) 0.7128(4)
H65 H 0.5924 0.4210 0.6909
H66 H 0.6314 0.3622 0.6798
H67 H 0.6773 0.4042 0.7368
C48 C 0.5078(4) 0.3453(3) 0.7220(4)
H68 H 0.4792 0.3790 0.7010
H69 H 0.4808 0.3288 0.7520
H70 H 0.5099 0.3175 0.6883
C49 C 0.5842(5) 0.4021(3) 0.8119(4)
H71 H 0.5442 0.3891 0.8331
H72 H 0.5686 0.4399 0.7927
C50 C 0.6629(5) 0.4055(3) 0.8621(4)
H73 H 0.7018 0.4221 0.8418
H74 H 0.6594 0.4304 0.8987
C51 C 0.6496(4) 0.3293(3) 0.9375(4)
H75 H 0.6650 0.3544 0.9757
H76 H 0.6653 0.2904 0.9512
H77 H 0.5926 0.3309 0.9185
C52 C 0.7753(4) 0.3500(3) 0.9203(4)
H78 H 0.7856 0.3757 0.9580
H79 H 0.8024 0.3638 0.8889
H80 H 0.7944 0.3120 0.9353
P1 P 0.83390(11) 0.24922(9) 0.09694(10)
F1 F 0.7852(3) 0.2331(2) 0.0241(2)
F2 F 0.9125(3) 0.2271(2) 0.0834(2)
F3 F 0.8485(3) 0.31032(18) 0.0729(2)
F4 F 0.7548(3) 0.2695(2) 0.1111(3)
F5 F 0.8184(3) 0.1865(2) 0.1203(3)
F6 F 0.8810(3) 0.2654(2) 0.1698(2)
P2 P 0.93973(12) 0.26463(11) 0.38152(11)
F7 F 0.8954(4) 0.2891(3) 0.3123(3)
F8 F 0.9625(5) 0.2070(4) 0.3522(4)
F9 F 1.0162(3) 0.2934(5) 0.3778(5)
F10 F 0.9120(3) 0.3177(2) 0.4136(3)
F11 F 0.8621(3) 0.2335(2) 0.3855(4)
F12 F 0.9851(3) 0.2405(2) 0.4508(2)
P3 P 0.11493(16) 0.00970(12) 0.74626(13)
F13 F 0.0644(8) 0.0210(5) 0.6801(4)
F14 F 0.1887(4) -0.0042(3) 0.7200(3)
F15 F 0.1349(7) 0.0688(4) 0.7636(6)
F16 F 0.0445(4) 0.0128(4) 0.7784(5)
F17 F 0.0975(5) -0.0541(3) 0.7314(6)
F18 F 0.1663(5) -0.0046(5) 0.8159(4)
P4 P 0.11823(13) 0.65110(10) 0.25860(12)
F19 F 0.0763(4) 0.6984(4) 0.2123(4)
F20 F 0.0843(6) 0.6062(4) 0.2080(6)
F21 F 0.1912(3) 0.6590(2) 0.2294(3)
F22 F 0.1534(4) 0.6977(4) 0.3099(4)
F23 F 0.0469(3) 0.6478(3) 0.2885(3)
F24 F 0.1617(5) 0.6057(4) 0.3049(5)
O1 O 0.6872(9) 0.6236(6) 0.7839(8)
C53 C 0.7578(8) 0.5962(5) 0.7675(6)
H81 H 0.8009 0.6136 0.7568
C54 C 0.7416(10) 0.5385(5) 0.7724(8)
H82 H 0.7790 0.5104 0.7703
C55 C 0.6739(9) 0.5248(4) 0.7800(8)
H83 H 0.6583 0.4885 0.7911
C56 C 0.6287(7) 0.5736(7) 0.7688(7)
H84 H 0.5730 0.5758 0.7548
O2 O 0.3231(13) 0.0164(6) 0.6066(11)
C57 C 0.2606(13) 0.0586(8) 0.5733(10)
H85 H 0.2347 0.0631 0.5279
C58 C 0.2510(14) 0.0894(9) 0.6268(14)
H86 H 0.2054 0.1109 0.6254
C59 C 0.3112(15) 0.0855(11) 0.6789(12)
H87 H 0.3184 0.1086 0.7167
C60 C 0.3645(12) 0.0426(11) 0.6723(14)
H88 H 0.4138 0.0329 0.7017
O3 O 0.5840(10) 0.0150(8) 0.8472(15)
C61 C 0.5250(18) 0.0559(14) 0.8079(12)
H89 H 0.5257 0.0782 0.7708
C62 C 0.4683(11) 0.0513(9) 0.8423(15)
H90 H 0.4136 0.0574 0.8241
C63 C 0.5016(16) 0.0376(14) 0.9020(13)
H91 H 0.4740 0.0319 0.9339
C64 C 0.5811(14) 0.0320(11) 0.9150(10)
H92 H 0.6219 0.0371 0.9545
loop_
_geom_bond_atom_site_label_1
_geom_bond_atom_site_label_2
_geom_bond_site_symmetry_1
_geom_bond_site_symmetry_2
Pd1 N1 1_555 1_555
Pd2 N2 1_555 1_555
Si1 C3 1_555 1_555
Si2 C11 1_555 1_555
Si3 C23 1_555 1_555
Si4 C31 1_555 1_555
P1 F1 1_555 1_555
P2 F7 1_555 1_555
P3 F13 1_555 1_555
P4 F19 1_555 1_555
F2 P1 1_555 1_555
F3 P1 1_555 1_555
F4 P1 1_555 1_555
F5 P1 1_555 1_555
F6 P1 1_555 1_555
F8 P2 1_555 1_555
F9 P2 1_555 1_555
F10 P2 1_555 1_555
F11 P2 1_555 1_555
F12 P2 1_555 1_555
F14 P3 1_555 1_555
F15 P3 1_555 1_555
F16 P3 1_555 1_555
F17 P3 1_555 1_555
F18 P3 1_555 1_555
F20 P4 1_555 1_555
F21 P4 1_555 1_555
F22 P4 1_555 1_555
F23 P4 1_555 1_555
F24 P4 1_555 1_555
N1 C1 1_555 1_555
N2 C18 1_555 1_555
N3 Pd2 1_555 1_555
N4 Pd1 1_555 1_555
N5 Pd1 1_555 1_555
N6 Pd1 1_555 1_555
N7 Pd2 1_555 1_555
N8 Pd2 1_555 1_555
C1 H1 1_555 1_555
C2 C1 1_555 1_555
H2 C2 1_555 1_555
C3 C2 1_555 1_555
C4 C3 1_555 1_555
H3 C4 1_555 1_555
C5 N1 1_555 1_555
H4 C5 1_555 1_555
C6 Si1 1_555 1_555
H5 C6 1_555 1_555
H6 C6 1_555 1_555
H7 C6 1_555 1_555
C7 Si1 1_555 1_555
H8 C7 1_555 1_555
H9 C7 1_555 1_555
H10 C7 1_555 1_555
C8 Si1 1_555 1_555
C9 C8 1_555 1_555
H11 C9 1_555 1_555
C10 C9 1_555 1_555
H12 C10 1_555 1_555
C11 C10 1_555 1_555
C12 C11 1_555 1_555
H13 C12 1_555 1_555
C13 C8 1_555 1_555
H14 C13 1_555 1_555
C14 Si2 1_555 1_555
H15 C14 1_555 1_555
H16 C14 1_555 1_555
H17 C14 1_555 1_555
C15 Si2 1_555 1_555
H18 C15 1_555 1_555
H19 C15 1_555 1_555
H20 C15 1_555 1_555
C16 Si2 1_555 1_555
C17 C16 1_555 1_555
H21 C17 1_555 1_555
C18 C17 1_555 1_555
H22 C18 1_555 1_555
C19 N2 1_555 1_555
H23 C19 1_555 1_555
C20 C16 1_555 1_555
H24 C20 1_555 1_555
C21 N3 1_555 1_555
H25 C21 1_555 1_555
C22 C21 1_555 1_555
H26 C22 1_555 1_555
C23 C22 1_555 1_555
C24 C23 1_555 1_555
H27 C24 1_555 1_555
C25 N3 1_555 1_555
H28 C25 1_555 1_555
C26 Si3 1_555 1_555
H29 C26 1_555 1_555
H30 C26 1_555 1_555
H31 C26 1_555 1_555
C27 Si3 1_555 1_555
H32 C27 1_555 1_555
H33 C27 1_555 1_555
H34 C27 1_555 1_555
C28 Si3 1_555 1_555
C29 C28 1_555 1_555
H35 C29 1_555 1_555
C30 C29 1_555 1_555
H36 C30 1_555 1_555
C31 C30 1_555 1_555
C32 C31 1_555 1_555
H37 C32 1_555 1_555
C33 C28 1_555 1_555
H38 C33 1_555 1_555
C34 Si4 1_555 1_555
H39 C34 1_555 1_555
H40 C34 1_555 1_555
H41 C34 1_555 1_555
C35 Si4 1_555 1_555
H42 C35 1_555 1_555
H43 C35 1_555 1_555
H44 C35 1_555 1_555
C36 Si4 1_555 1_555
C37 C36 1_555 1_555
H45 C37 1_555 1_555
C38 N4 1_555 1_555
H46 C38 1_555 1_555
C39 N4 1_555 1_555
H47 C39 1_555 1_555
C40 C36 1_555 1_555
H48 C40 1_555 1_555
C41 N5 1_555 1_555
H49 C41 1_555 1_555
H50 C41 1_555 1_555
H51 C41 1_555 1_555
C42 N5 1_555 1_555
H52 C42 1_555 1_555
H53 C42 1_555 1_555
H54 C42 1_555 1_555
C43 N5 1_555 1_555
H55 C43 1_555 1_555
H56 C43 1_555 1_555
C44 N6 1_555 1_555
H57 C44 1_555 1_555
H58 C44 1_555 1_555
C45 N6 1_555 1_555
H59 C45 1_555 1_555
H60 C45 1_555 1_555
H61 C45 1_555 1_555
C46 N6 1_555 1_555
H62 C46 1_555 1_555
H63 C46 1_555 1_555
H64 C46 1_555 1_555
C47 N7 1_555 1_555
H65 C47 1_555 1_555
H66 C47 1_555 1_555
H67 C47 1_555 1_555
C48 N7 1_555 1_555
H68 C48 1_555 1_555
H69 C48 1_555 1_555
H70 C48 1_555 1_555
C49 N7 1_555 1_555
H71 C49 1_555 1_555
H72 C49 1_555 1_555
C50 N8 1_555 1_555
H73 C50 1_555 1_555
H74 C50 1_555 1_555
C51 N8 1_555 1_555
H75 C51 1_555 1_555
H76 C51 1_555 1_555
H77 C51 1_555 1_555
C52 N8 1_555 1_555
H78 C52 1_555 1_555
H79 C52 1_555 1_555
H80 C52 1_555 1_555
O1 C53 1_555 1_555
C53 H81 1_555 1_555
C54 C53 1_555 1_555
H82 C54 1_555 1_555
C55 C54 1_555 1_555
H83 C55 1_555 1_555
C56 O1 1_555 1_555
H84 C56 1_555 1_555
O2 C57 1_555 1_555
C57 H85 1_555 1_555
C58 C57 1_555 1_555
H86 C58 1_555 1_555
C59 C58 1_555 1_555
H87 C59 1_555 1_555
C60 O2 1_555 1_555
H88 C60 1_555 1_555
O3 C61 1_555 1_555
C61 H89 1_555 1_555
C62 C61 1_555 1_555
H90 C62 1_555 1_555
C63 C62 1_555 1_555
H91 C63 1_555 1_555
C64 O3 1_555 1_555
H92 C64 1_555 1_555
C4 C5 1_555 1_555
C12 C13 1_555 1_555
C19 C20 1_555 1_555
C24 C25 1_555 1_555
C32 C33 1_555 1_555
C37 C38 1_555 1_555
C39 C40 1_555 1_555
C43 C44 1_555 1_555
C49 C50 1_555 1_555
C55 C56 1_555 1_555
C59 C60 1_555 1_555
C63 C64 1_555 1_555

#END
