# generated using pymatgen
data_H336Pd24C268N154O229
_symmetry_space_group_name_H-M   'P 1'
_cell_length_a   26.61500000
_cell_length_b   27.06800000
_cell_length_c   30.27600000
_cell_angle_alpha   92.90300000
_cell_angle_beta   90.00000000
_cell_angle_gamma   90.00000000
_symmetry_Int_Tables_number   1
_chemical_formula_structural   H336Pd24C268N154O229
_chemical_formula_sum   'H672 Pd48 C536 N308 O458'
_cell_volume   21783.28882364
_cell_formula_units_Z   2
loop_
 _symmetry_equiv_pos_site_id
 _symmetry_equiv_pos_as_xyz
  1  'x, y, z'
loop_
 _atom_site_type_symbol
 _atom_site_label
 _atom_site_symmetry_multiplicity
 _atom_site_fract_x
 _atom_site_fract_y
 _atom_site_fract_z
 _atom_site_occupancy
  H  H1  1  0.991600  0.977200  0.841800  1
  H  H2  1  0.991600  0.022800  0.158200  1
  H  H3  1  0.491600  0.477200  0.341800  1
  H  H4  1  0.491600  0.522800  0.658200  1
  H  H5  1  0.008400  0.022800  0.158200  1
  H  H6  1  0.008400  0.977200  0.841800  1
  H  H7  1  0.508400  0.522800  0.658200  1
  H  H8  1  0.508400  0.477200  0.341800  1
  H  H9  1  0.030300  0.901700  0.854600  1
  H  H10  1  0.030300  0.098300  0.145400  1
  H  H11  1  0.530300  0.401700  0.354600  1
  H  H12  1  0.530300  0.598300  0.645400  1
  H  H13  1  0.969700  0.098300  0.145400  1
  H  H14  1  0.969700  0.901700  0.854600  1
  H  H15  1  0.469700  0.598300  0.645400  1
  H  H16  1  0.469700  0.401700  0.354600  1
  H  H17  1  0.996000  0.843600  0.900900  1
  H  H18  1  0.996000  0.156400  0.099100  1
  H  H19  1  0.496000  0.343600  0.400900  1
  H  H20  1  0.496000  0.656400  0.599100  1
  H  H21  1  0.004000  0.156400  0.099100  1
  H  H22  1  0.004000  0.843600  0.900900  1
  H  H23  1  0.504000  0.656400  0.599100  1
  H  H24  1  0.504000  0.343600  0.400900  1
  H  H25  1  0.938200  0.834100  0.964700  1
  H  H26  1  0.938200  0.165900  0.035300  1
  H  H27  1  0.438200  0.334100  0.464700  1
  H  H28  1  0.438200  0.665900  0.535300  1
  H  H29  1  0.061800  0.165900  0.035300  1
  H  H30  1  0.061800  0.834100  0.964700  1
  H  H31  1  0.561800  0.665900  0.535300  1
  H  H32  1  0.561800  0.334100  0.464700  1
  H  H33  1  0.854600  0.848400  0.985700  1
  H  H34  1  0.854600  0.151600  0.014300  1
  H  H35  1  0.354600  0.348400  0.485700  1
  H  H36  1  0.354600  0.651600  0.514300  1
  H  H37  1  0.145400  0.151600  0.014300  1
  H  H38  1  0.145400  0.848400  0.985700  1
  H  H39  1  0.645400  0.651600  0.514300  1
  H  H40  1  0.645400  0.348400  0.485700  1
  H  H41  1  0.822400  0.928200  0.984200  1
  H  H42  1  0.822400  0.071800  0.015800  1
  H  H43  1  0.322400  0.428200  0.484200  1
  H  H44  1  0.322400  0.571800  0.515800  1
  H  H45  1  0.177600  0.071800  0.015800  1
  H  H46  1  0.177600  0.928200  0.984200  1
  H  H47  1  0.677600  0.571800  0.515800  1
  H  H48  1  0.677600  0.428200  0.484200  1
  H  H49  1  0.901000  0.041600  0.876000  1
  H  H50  1  0.901000  0.958400  0.124000  1
  H  H51  1  0.401000  0.541600  0.376000  1
  H  H52  1  0.401000  0.458400  0.624000  1
  H  H53  1  0.099000  0.958400  0.124000  1
  H  H54  1  0.099000  0.041600  0.876000  1
  H  H55  1  0.599000  0.458400  0.624000  1
  H  H56  1  0.599000  0.541600  0.376000  1
  H  H57  1  0.834000  0.022800  0.928500  1
  H  H58  1  0.834000  0.977200  0.071500  1
  H  H59  1  0.334000  0.522800  0.428500  1
  H  H60  1  0.334000  0.477200  0.571500  1
  H  H61  1  0.166000  0.977200  0.071500  1
  H  H62  1  0.166000  0.022800  0.928500  1
  H  H63  1  0.666000  0.477200  0.571500  1
  H  H64  1  0.666000  0.522800  0.428500  1
  H  H65  1  0.004600  0.819300  0.014900  1.0
  H  H66  1  0.004600  0.180700  0.985100  1.0
  H  H67  1  0.504600  0.319300  0.514900  1.0
  H  H68  1  0.504600  0.680700  0.485100  1.0
  H  H69  1  0.995400  0.180700  0.985100  1.0
  H  H70  1  0.995400  0.819300  0.014900  1.0
  H  H71  1  0.495400  0.680700  0.485100  1.0
  H  H72  1  0.495400  0.319300  0.514900  1.0
  H  H73  1  0.969700  0.841000  0.082700  1.0
  H  H74  1  0.969700  0.159000  0.917300  1.0
  H  H75  1  0.469700  0.341000  0.582700  1.0
  H  H76  1  0.469700  0.659000  0.417300  1.0
  H  H77  1  0.030300  0.159000  0.917300  1.0
  H  H78  1  0.030300  0.841000  0.082700  1.0
  H  H79  1  0.530300  0.659000  0.417300  1.0
  H  H80  1  0.530300  0.341000  0.582700  1.0
  H  H81  1  0.006400  0.895900  0.133100  1.0
  H  H82  1  0.006400  0.104100  0.866900  1.0
  H  H83  1  0.506400  0.395900  0.633100  1.0
  H  H84  1  0.506400  0.604100  0.366900  1.0
  H  H85  1  0.993600  0.104100  0.866900  1.0
  H  H86  1  0.993600  0.895900  0.133100  1.0
  H  H87  1  0.493600  0.604100  0.366900  1.0
  H  H88  1  0.493600  0.395900  0.633100  1.0
  H  H89  1  0.081500  0.956900  0.148800  1.0
  H  H90  1  0.081500  0.043100  0.851200  1.0
  H  H91  1  0.581500  0.456900  0.648800  1.0
  H  H92  1  0.581500  0.543100  0.351200  1.0
  H  H93  1  0.918500  0.043100  0.851200  1.0
  H  H94  1  0.918500  0.956900  0.148800  1.0
  H  H95  1  0.418500  0.543100  0.351200  1.0
  H  H96  1  0.418500  0.456900  0.648800  1.0
  H  H97  1  0.146400  0.000400  0.117300  1.0
  H  H98  1  0.146400  0.999600  0.882700  1.0
  H  H99  1  0.646400  0.500400  0.617300  1.0
  H  H100  1  0.646400  0.499600  0.382700  1.0
  H  H101  1  0.853600  0.999600  0.882700  1.0
  H  H102  1  0.853600  0.000400  0.117300  1.0
  H  H103  1  0.353600  0.499600  0.382700  1.0
  H  H104  1  0.353600  0.500400  0.617300  1.0
  H  H105  1  0.182700  0.976100  0.052000  1.0
  H  H106  1  0.182700  0.023900  0.948000  1.0
  H  H107  1  0.682700  0.476100  0.552000  1.0
  H  H108  1  0.682700  0.523900  0.448000  1.0
  H  H109  1  0.817300  0.023900  0.948000  1.0
  H  H110  1  0.817300  0.976100  0.052000  1.0
  H  H111  1  0.317300  0.523900  0.448000  1.0
  H  H112  1  0.317300  0.476100  0.552000  1.0
  H  H113  1  0.096800  0.845000  0.954400  1.0
  H  H114  1  0.096800  0.155000  0.045600  1.0
  H  H115  1  0.596800  0.345000  0.454400  1.0
  H  H116  1  0.596800  0.655000  0.545600  1.0
  H  H117  1  0.903200  0.155000  0.045600  1.0
  H  H118  1  0.903200  0.845000  0.954400  1.0
  H  H119  1  0.403200  0.655000  0.545600  1.0
  H  H120  1  0.403200  0.345000  0.454400  1.0
  H  H121  1  0.165400  0.906700  0.968400  1.0
  H  H122  1  0.165400  0.093300  0.031600  1.0
  H  H123  1  0.665400  0.406700  0.468400  1.0
  H  H124  1  0.665400  0.593300  0.531600  1.0
  H  H125  1  0.834600  0.093300  0.031600  1.0
  H  H126  1  0.834600  0.906700  0.968400  1.0
  H  H127  1  0.334600  0.593300  0.531600  1.0
  H  H128  1  0.334600  0.406700  0.468400  1.0
  H  H129  1  0.066900  0.636100  0.975700  1.0
  H  H130  1  0.066900  0.363900  0.024300  1.0
  H  H131  1  0.566900  0.136100  0.475700  1.0
  H  H132  1  0.566900  0.863900  0.524300  1.0
  H  H133  1  0.933100  0.363900  0.024300  1.0
  H  H134  1  0.933100  0.636100  0.975700  1.0
  H  H135  1  0.433100  0.863900  0.524300  1.0
  H  H136  1  0.433100  0.136100  0.475700  1.0
  H  H137  1  0.164400  0.744800  0.992200  1.0
  H  H138  1  0.164400  0.255200  0.007800  1.0
  H  H139  1  0.664400  0.244800  0.492200  1.0
  H  H140  1  0.664400  0.755200  0.507800  1.0
  H  H141  1  0.835600  0.255200  0.007800  1.0
  H  H142  1  0.835600  0.744800  0.992200  1.0
  H  H143  1  0.335600  0.755200  0.507800  1.0
  H  H144  1  0.335600  0.244800  0.492200  1.0
  H  H145  1  0.058300  0.723800  0.083500  1.0
  H  H146  1  0.058300  0.276200  0.916500  1.0
  H  H147  1  0.558300  0.223800  0.583500  1.0
  H  H148  1  0.558300  0.776200  0.416500  1.0
  H  H149  1  0.941700  0.276200  0.916500  1.0
  H  H150  1  0.941700  0.723800  0.083500  1.0
  H  H151  1  0.441700  0.776200  0.416500  1.0
  H  H152  1  0.441700  0.223800  0.583500  1.0
  H  H153  1  0.067800  0.866000  0.293400  1.0
  H  H154  1  0.067800  0.134000  0.706600  1.0
  H  H155  1  0.567800  0.366000  0.793400  1.0
  H  H156  1  0.567800  0.634000  0.206600  1.0
  H  H157  1  0.932200  0.134000  0.706600  1.0
  H  H158  1  0.932200  0.866000  0.293400  1.0
  H  H159  1  0.432200  0.634000  0.206600  1.0
  H  H160  1  0.432200  0.366000  0.793400  1.0
  H  H161  1  0.057000  0.793000  0.177600  1.0
  H  H162  1  0.057000  0.207000  0.822400  1.0
  H  H163  1  0.557000  0.293000  0.677600  1.0
  H  H164  1  0.557000  0.707000  0.322400  1.0
  H  H165  1  0.943000  0.207000  0.822400  1.0
  H  H166  1  0.943000  0.793000  0.177600  1.0
  H  H167  1  0.443000  0.707000  0.322400  1.0
  H  H168  1  0.443000  0.293000  0.677600  1.0
  H  H169  1  0.164500  0.895300  0.201100  1.0
  H  H170  1  0.164500  0.104700  0.798900  1.0
  H  H171  1  0.664500  0.395300  0.701100  1.0
  H  H172  1  0.664500  0.604700  0.298900  1.0
  H  H173  1  0.835500  0.104700  0.798900  1.0
  H  H174  1  0.835500  0.895300  0.201100  1.0
  H  H175  1  0.335500  0.604700  0.298900  1.0
  H  H176  1  0.335500  0.395300  0.701100  1.0
  H  H177  1  0.363700  0.921300  0.039700  1.0
  H  H178  1  0.363700  0.078700  0.960300  1.0
  H  H179  1  0.863700  0.421300  0.539700  1.0
  H  H180  1  0.863700  0.578700  0.460300  1.0
  H  H181  1  0.636300  0.078700  0.960300  1.0
  H  H182  1  0.636300  0.921300  0.039700  1.0
  H  H183  1  0.136300  0.578700  0.460300  1.0
  H  H184  1  0.136300  0.421300  0.539700  1.0
  H  H185  1  0.252700  0.912000  0.125300  1.0
  H  H186  1  0.252700  0.088000  0.874700  1.0
  H  H187  1  0.752700  0.412000  0.625300  1.0
  H  H188  1  0.752700  0.588000  0.374700  1.0
  H  H189  1  0.747300  0.088000  0.874700  1.0
  H  H190  1  0.747300  0.912000  0.125300  1.0
  H  H191  1  0.247300  0.588000  0.374700  1.0
  H  H192  1  0.247300  0.412000  0.625300  1.0
  H  H193  1  0.253300  0.825400  0.013400  1.0
  H  H194  1  0.253300  0.174600  0.986600  1.0
  H  H195  1  0.753300  0.325400  0.513400  1.0
  H  H196  1  0.753300  0.674600  0.486600  1.0
  H  H197  1  0.746700  0.174600  0.986600  1.0
  H  H198  1  0.746700  0.825400  0.013400  1.0
  H  H199  1  0.246700  0.674600  0.486600  1.0
  H  H200  1  0.246700  0.325400  0.513400  1.0
  H  H201  1  0.190400  0.798300  0.028000  1.0
  H  H202  1  0.190400  0.201700  0.972000  1.0
  H  H203  1  0.690400  0.298300  0.528000  1.0
  H  H204  1  0.690400  0.701700  0.472000  1.0
  H  H205  1  0.809600  0.201700  0.972000  1.0
  H  H206  1  0.809600  0.798300  0.028000  1.0
  H  H207  1  0.309600  0.701700  0.472000  1.0
  H  H208  1  0.309600  0.298300  0.528000  1.0
  H  H209  1  0.063400  0.665000  0.864600  1.0
  H  H210  1  0.063400  0.335000  0.135400  1.0
  H  H211  1  0.563400  0.165000  0.364600  1.0
  H  H212  1  0.563400  0.835000  0.635400  1.0
  H  H213  1  0.936600  0.335000  0.135400  1.0
  H  H214  1  0.936600  0.665000  0.864600  1.0
  H  H215  1  0.436600  0.835000  0.635400  1.0
  H  H216  1  0.436600  0.165000  0.364600  1.0
  H  H217  1  0.163200  0.767000  0.897700  1.0
  H  H218  1  0.163200  0.233000  0.102300  1.0
  H  H219  1  0.663200  0.267000  0.397700  1.0
  H  H220  1  0.663200  0.733000  0.602300  1.0
  H  H221  1  0.836800  0.233000  0.102300  1.0
  H  H222  1  0.836800  0.767000  0.897700  1.0
  H  H223  1  0.336800  0.733000  0.602300  1.0
  H  H224  1  0.336800  0.267000  0.397700  1.0
  H  H225  1  0.055400  0.790900  0.807400  1.0
  H  H226  1  0.055400  0.209100  0.192600  1.0
  H  H227  1  0.555400  0.290900  0.307400  1.0
  H  H228  1  0.555400  0.709100  0.692600  1.0
  H  H229  1  0.944600  0.209100  0.192600  1.0
  H  H230  1  0.944600  0.790900  0.807400  1.0
  H  H231  1  0.444600  0.709100  0.692600  1.0
  H  H232  1  0.444600  0.290900  0.307400  1.0
  H  H233  1  0.362500  0.946500  0.931700  1.0
  H  H234  1  0.362500  0.053500  0.068300  1.0
  H  H235  1  0.862500  0.446500  0.431700  1.0
  H  H236  1  0.862500  0.553500  0.568300  1.0
  H  H237  1  0.637500  0.053500  0.068300  1.0
  H  H238  1  0.637500  0.946500  0.931700  1.0
  H  H239  1  0.137500  0.553500  0.568300  1.0
  H  H240  1  0.137500  0.446500  0.431700  1.0
  H  H241  1  0.250900  0.978500  0.852900  1.0
  H  H242  1  0.250900  0.021500  0.147100  1.0
  H  H243  1  0.750900  0.478500  0.352900  1.0
  H  H244  1  0.750900  0.521500  0.647100  1.0
  H  H245  1  0.749100  0.021500  0.147100  1.0
  H  H246  1  0.749100  0.978500  0.852900  1.0
  H  H247  1  0.249100  0.521500  0.647100  1.0
  H  H248  1  0.249100  0.478500  0.352900  1.0
  H  H249  1  0.252600  0.852100  0.916400  1.0
  H  H250  1  0.252600  0.147900  0.083600  1.0
  H  H251  1  0.752600  0.352100  0.416400  1.0
  H  H252  1  0.752600  0.647900  0.583600  1.0
  H  H253  1  0.747400  0.147900  0.083600  1.0
  H  H254  1  0.747400  0.852100  0.916400  1.0
  H  H255  1  0.247400  0.647900  0.583600  1.0
  H  H256  1  0.247400  0.352100  0.416400  1.0
  H  H257  1  0.064800  0.006400  0.678800  1.0
  H  H258  1  0.064800  0.993600  0.321200  1.0
  H  H259  1  0.564800  0.506400  0.178800  1.0
  H  H260  1  0.564800  0.493600  0.821200  1.0
  H  H261  1  0.935200  0.993600  0.321200  1.0
  H  H262  1  0.935200  0.006400  0.678800  1.0
  H  H263  1  0.435200  0.493600  0.821200  1.0
  H  H264  1  0.435200  0.506400  0.178800  1.0
  H  H265  1  0.056300  0.891900  0.753700  1.0
  H  H266  1  0.056300  0.108100  0.246300  1.0
  H  H267  1  0.556300  0.391900  0.253700  1.0
  H  H268  1  0.556300  0.608100  0.746300  1.0
  H  H269  1  0.943700  0.108100  0.246300  1.0
  H  H270  1  0.943700  0.891900  0.753700  1.0
  H  H271  1  0.443700  0.608100  0.746300  1.0
  H  H272  1  0.443700  0.391900  0.253700  1.0
  H  H273  1  0.160300  0.997400  0.777100  1.0
  H  H274  1  0.160300  0.002600  0.222900  1.0
  H  H275  1  0.660300  0.497400  0.277100  1.0
  H  H276  1  0.660300  0.502600  0.722900  1.0
  H  H277  1  0.839700  0.002600  0.222900  1.0
  H  H278  1  0.839700  0.997400  0.777100  1.0
  H  H279  1  0.339700  0.502600  0.722900  1.0
  H  H280  1  0.339700  0.497400  0.277100  1.0
  H  H281  1  0.191100  0.832200  0.889000  1.0
  H  H282  1  0.191100  0.167800  0.111000  1.0
  H  H283  1  0.691100  0.332200  0.389000  1.0
  H  H284  1  0.691100  0.667800  0.611000  1.0
  H  H285  1  0.808900  0.167800  0.111000  1.0
  H  H286  1  0.808900  0.832200  0.889000  1.0
  H  H287  1  0.308900  0.667800  0.611000  1.0
  H  H288  1  0.308900  0.332200  0.389000  1.0
  H  H289  1  0.410300  0.965700  0.845700  1.0
  H  H290  1  0.410300  0.034300  0.154300  1.0
  H  H291  1  0.910300  0.465700  0.345700  1.0
  H  H292  1  0.910300  0.534300  0.654300  1.0
  H  H293  1  0.589700  0.034300  0.154300  1.0
  H  H294  1  0.589700  0.965700  0.845700  1.0
  H  H295  1  0.089700  0.534300  0.654300  1.0
  H  H296  1  0.089700  0.465700  0.345700  1.0
  H  H297  1  0.369400  0.966500  0.813000  1.0
  H  H298  1  0.369400  0.033500  0.187000  1.0
  H  H299  1  0.869400  0.466500  0.313000  1.0
  H  H300  1  0.869400  0.533500  0.687000  1.0
  H  H301  1  0.630600  0.033500  0.187000  1.0
  H  H302  1  0.630600  0.966500  0.813000  1.0
  H  H303  1  0.130600  0.533500  0.687000  1.0
  H  H304  1  0.130600  0.466500  0.313000  1.0
  H  H305  1  0.372200  0.103000  0.832700  1.0
  H  H306  1  0.372200  0.897000  0.167300  1.0
  H  H307  1  0.872200  0.603000  0.332700  1.0
  H  H308  1  0.872200  0.397000  0.667300  1.0
  H  H309  1  0.627800  0.897000  0.167300  1.0
  H  H310  1  0.627800  0.103000  0.832700  1.0
  H  H311  1  0.127800  0.397000  0.667300  1.0
  H  H312  1  0.127800  0.603000  0.332700  1.0
  H  H313  1  0.403600  0.102800  0.872700  1.0
  H  H314  1  0.403600  0.897200  0.127300  1.0
  H  H315  1  0.903600  0.602800  0.372700  1.0
  H  H316  1  0.903600  0.397200  0.627300  1.0
  H  H317  1  0.596400  0.897200  0.127300  1.0
  H  H318  1  0.596400  0.102800  0.872700  1.0
  H  H319  1  0.096400  0.397200  0.627300  1.0
  H  H320  1  0.096400  0.602800  0.372700  1.0
  H  H321  1  0.453500  0.999300  0.794200  1.0
  H  H322  1  0.453500  0.000700  0.205800  1.0
  H  H323  1  0.953500  0.499300  0.294200  1.0
  H  H324  1  0.953500  0.500700  0.705800  1.0
  H  H325  1  0.546500  0.000700  0.205800  1.0
  H  H326  1  0.546500  0.999300  0.794200  1.0
  H  H327  1  0.046500  0.500700  0.705800  1.0
  H  H328  1  0.046500  0.499300  0.294200  1.0
  H  H329  1  0.403800  0.022400  0.773900  1.0
  H  H330  1  0.403800  0.977600  0.226100  1.0
  H  H331  1  0.903800  0.522400  0.273900  1.0
  H  H332  1  0.903800  0.477600  0.726100  1.0
  H  H333  1  0.596200  0.977600  0.226100  1.0
  H  H334  1  0.596200  0.022400  0.773900  1.0
  H  H335  1  0.096200  0.477600  0.726100  1.0
  H  H336  1  0.096200  0.522400  0.273900  1.0
  H  H337  1  0.442500  0.087700  0.800300  1.0
  H  H338  1  0.442500  0.912300  0.199700  1.0
  H  H339  1  0.942500  0.587700  0.300300  1.0
  H  H340  1  0.942500  0.412300  0.699700  1.0
  H  H341  1  0.557500  0.912300  0.199700  1.0
  H  H342  1  0.557500  0.087700  0.800300  1.0
  H  H343  1  0.057500  0.412300  0.699700  1.0
  H  H344  1  0.057500  0.587700  0.300300  1.0
  H  H345  1  0.463500  0.060600  0.842300  1.0
  H  H346  1  0.463500  0.939400  0.157700  1.0
  H  H347  1  0.963500  0.560600  0.342300  1.0
  H  H348  1  0.963500  0.439400  0.657700  1.0
  H  H349  1  0.536500  0.939400  0.157700  1.0
  H  H350  1  0.536500  0.060600  0.842300  1.0
  H  H351  1  0.036500  0.439400  0.657700  1.0
  H  H352  1  0.036500  0.560600  0.342300  1.0
  H  H353  1  0.928500  0.602000  0.097200  1.0
  H  H354  1  0.928500  0.398000  0.902800  1.0
  H  H355  1  0.428500  0.102000  0.597200  1.0
  H  H356  1  0.428500  0.898000  0.402800  1.0
  H  H357  1  0.071500  0.398000  0.902800  1.0
  H  H358  1  0.071500  0.602000  0.097200  1.0
  H  H359  1  0.571500  0.898000  0.402800  1.0
  H  H360  1  0.571500  0.102000  0.597200  1.0
  H  H361  1  0.931700  0.570000  0.056500  1.0
  H  H362  1  0.931700  0.430000  0.943500  1.0
  H  H363  1  0.431700  0.070000  0.556500  1.0
  H  H364  1  0.431700  0.930000  0.443500  1.0
  H  H365  1  0.068300  0.430000  0.943500  1.0
  H  H366  1  0.068300  0.570000  0.056500  1.0
  H  H367  1  0.568300  0.930000  0.443500  1.0
  H  H368  1  0.568300  0.070000  0.556500  1.0
  H  H369  1  0.963200  0.551700  0.133500  1.0
  H  H370  1  0.963200  0.448300  0.866500  1.0
  H  H371  1  0.463200  0.051700  0.633500  1.0
  H  H372  1  0.463200  0.948300  0.366500  1.0
  H  H373  1  0.036800  0.448300  0.866500  1.0
  H  H374  1  0.036800  0.551700  0.133500  1.0
  H  H375  1  0.536800  0.948300  0.366500  1.0
  H  H376  1  0.536800  0.051700  0.633500  1.0
  H  H377  1  0.963200  0.515600  0.090300  1.0
  H  H378  1  0.963200  0.484400  0.909700  1.0
  H  H379  1  0.463200  0.015600  0.590300  1.0
  H  H380  1  0.463200  0.984400  0.409700  1.0
  H  H381  1  0.036800  0.484400  0.909700  1.0
  H  H382  1  0.036800  0.515600  0.090300  1.0
  H  H383  1  0.536800  0.984400  0.409700  1.0
  H  H384  1  0.536800  0.015600  0.590300  1.0
  H  H385  1  0.931300  0.643200  0.761400  1.0
  H  H386  1  0.931300  0.356800  0.238600  1.0
  H  H387  1  0.431300  0.143200  0.261400  1.0
  H  H388  1  0.431300  0.856800  0.738600  1.0
  H  H389  1  0.068700  0.356800  0.238600  1.0
  H  H390  1  0.068700  0.643200  0.761400  1.0
  H  H391  1  0.568700  0.856800  0.738600  1.0
  H  H392  1  0.568700  0.143200  0.261400  1.0
  H  H393  1  0.927400  0.691000  0.740500  1.0
  H  H394  1  0.927400  0.309000  0.259500  1.0
  H  H395  1  0.427400  0.191000  0.240500  1.0
  H  H396  1  0.427400  0.809000  0.759500  1.0
  H  H397  1  0.072600  0.309000  0.259500  1.0
  H  H398  1  0.072600  0.691000  0.740500  1.0
  H  H399  1  0.572600  0.809000  0.759500  1.0
  H  H400  1  0.572600  0.191000  0.240500  1.0
  H  H401  1  0.963000  0.611200  0.704400  1.0
  H  H402  1  0.963000  0.388800  0.295600  1.0
  H  H403  1  0.463000  0.111200  0.204400  1.0
  H  H404  1  0.463000  0.888800  0.795600  1.0
  H  H405  1  0.037000  0.388800  0.295600  1.0
  H  H406  1  0.037000  0.611200  0.704400  1.0
  H  H407  1  0.537000  0.888800  0.795600  1.0
  H  H408  1  0.537000  0.111200  0.204400  1.0
  H  H409  1  0.963000  0.664100  0.683400  1.0
  H  H410  1  0.963000  0.335900  0.316600  1.0
  H  H411  1  0.463000  0.164100  0.183400  1.0
  H  H412  1  0.463000  0.835900  0.816600  1.0
  H  H413  1  0.037000  0.335900  0.316600  1.0
  H  H414  1  0.037000  0.664100  0.683400  1.0
  H  H415  1  0.537000  0.835900  0.816600  1.0
  H  H416  1  0.537000  0.164100  0.183400  1.0
  H  H417  1  0.171000  0.623800  0.848300  1.0
  H  H418  1  0.171000  0.376200  0.151700  1.0
  H  H419  1  0.671000  0.123800  0.348300  1.0
  H  H420  1  0.671000  0.876200  0.651700  1.0
  H  H421  1  0.829000  0.376200  0.151700  1.0
  H  H422  1  0.829000  0.623800  0.848300  1.0
  H  H423  1  0.329000  0.876200  0.651700  1.0
  H  H424  1  0.329000  0.123800  0.348300  1.0
  H  H425  1  0.213800  0.656300  0.860100  1.0
  H  H426  1  0.213800  0.343700  0.139900  1.0
  H  H427  1  0.713800  0.156300  0.360100  1.0
  H  H428  1  0.713800  0.843700  0.639900  1.0
  H  H429  1  0.786200  0.343700  0.139900  1.0
  H  H430  1  0.786200  0.656300  0.860100  1.0
  H  H431  1  0.286200  0.843700  0.639900  1.0
  H  H432  1  0.286200  0.156300  0.360100  1.0
  H  H433  1  0.208500  0.625600  0.979900  1.0
  H  H434  1  0.208500  0.374400  0.020100  1.0
  H  H435  1  0.708500  0.125600  0.479900  1.0
  H  H436  1  0.708500  0.874400  0.520100  1.0
  H  H437  1  0.791500  0.374400  0.020100  1.0
  H  H438  1  0.791500  0.625600  0.979900  1.0
  H  H439  1  0.291500  0.874400  0.520100  1.0
  H  H440  1  0.291500  0.125600  0.479900  1.0
  H  H441  1  0.171600  0.587300  0.965500  1.0
  H  H442  1  0.171600  0.412700  0.034500  1.0
  H  H443  1  0.671600  0.087300  0.465500  1.0
  H  H444  1  0.671600  0.912700  0.534500  1.0
  H  H445  1  0.828400  0.412700  0.034500  1.0
  H  H446  1  0.828400  0.587300  0.965500  1.0
  H  H447  1  0.328400  0.912700  0.534500  1.0
  H  H448  1  0.328400  0.087300  0.465500  1.0
  H  H449  1  0.203700  0.559000  0.873600  1.0
  H  H450  1  0.203700  0.441000  0.126400  1.0
  H  H451  1  0.703700  0.059000  0.373600  1.0
  H  H452  1  0.703700  0.941000  0.626400  1.0
  H  H453  1  0.796300  0.441000  0.126400  1.0
  H  H454  1  0.796300  0.559000  0.873600  1.0
  H  H455  1  0.296300  0.941000  0.626400  1.0
  H  H456  1  0.296300  0.059000  0.373600  1.0
  H  H457  1  0.254400  0.588700  0.866300  1.0
  H  H458  1  0.254400  0.411300  0.133700  1.0
  H  H459  1  0.754400  0.088700  0.366300  1.0
  H  H460  1  0.754400  0.911300  0.633700  1.0
  H  H461  1  0.745600  0.411300  0.133700  1.0
  H  H462  1  0.745600  0.588700  0.866300  1.0
  H  H463  1  0.245600  0.911300  0.633700  1.0
  H  H464  1  0.245600  0.088700  0.366300  1.0
  H  H465  1  0.266000  0.602400  0.929200  1.0
  H  H466  1  0.266000  0.397600  0.070800  1.0
  H  H467  1  0.766000  0.102400  0.429200  1.0
  H  H468  1  0.766000  0.897600  0.570800  1.0
  H  H469  1  0.734000  0.397600  0.070800  1.0
  H  H470  1  0.734000  0.602400  0.929200  1.0
  H  H471  1  0.234000  0.897600  0.570800  1.0
  H  H472  1  0.234000  0.102400  0.429200  1.0
  H  H473  1  0.236800  0.550900  0.929900  1.0
  H  H474  1  0.236800  0.449100  0.070100  1.0
  H  H475  1  0.736800  0.050900  0.429900  1.0
  H  H476  1  0.736800  0.949100  0.570100  1.0
  H  H477  1  0.763200  0.449100  0.070100  1.0
  H  H478  1  0.763200  0.550900  0.929900  1.0
  H  H479  1  0.263200  0.949100  0.570100  1.0
  H  H480  1  0.263200  0.050900  0.429900  1.0
  H  H481  1  0.931500  0.865000  0.641800  1.0
  H  H482  1  0.931500  0.135000  0.358200  1.0
  H  H483  1  0.431500  0.365000  0.141800  1.0
  H  H484  1  0.431500  0.635000  0.858200  1.0
  H  H485  1  0.068500  0.135000  0.358200  1.0
  H  H486  1  0.068500  0.865000  0.641800  1.0
  H  H487  1  0.568500  0.635000  0.858200  1.0
  H  H488  1  0.568500  0.365000  0.141800  1.0
  H  H489  1  0.926700  0.913000  0.621200  1.0
  H  H490  1  0.926700  0.087000  0.378800  1.0
  H  H491  1  0.426700  0.413000  0.121200  1.0
  H  H492  1  0.426700  0.587000  0.878800  1.0
  H  H493  1  0.073300  0.087000  0.378800  1.0
  H  H494  1  0.073300  0.913000  0.621200  1.0
  H  H495  1  0.573300  0.587000  0.878800  1.0
  H  H496  1  0.573300  0.413000  0.121200  1.0
  H  H497  1  0.965300  0.834500  0.583800  1.0
  H  H498  1  0.965300  0.165500  0.416200  1.0
  H  H499  1  0.465300  0.334500  0.083800  1.0
  H  H500  1  0.465300  0.665500  0.916200  1.0
  H  H501  1  0.034700  0.165500  0.416200  1.0
  H  H502  1  0.034700  0.834500  0.583800  1.0
  H  H503  1  0.534700  0.665500  0.916200  1.0
  H  H504  1  0.534700  0.334500  0.083800  1.0
  H  H505  1  0.965300  0.887800  0.563900  1.0
  H  H506  1  0.965300  0.112200  0.436100  1.0
  H  H507  1  0.465300  0.387800  0.063900  1.0
  H  H508  1  0.465300  0.612200  0.936100  1.0
  H  H509  1  0.034700  0.112200  0.436100  1.0
  H  H510  1  0.034700  0.887800  0.563900  1.0
  H  H511  1  0.534700  0.612200  0.936100  1.0
  H  H512  1  0.534700  0.387800  0.063900  1.0
  H  H513  1  0.369900  0.807500  0.890500  1.0
  H  H514  1  0.369900  0.192500  0.109500  1.0
  H  H515  1  0.869900  0.307500  0.390500  1.0
  H  H516  1  0.869900  0.692500  0.609500  1.0
  H  H517  1  0.630100  0.192500  0.109500  1.0
  H  H518  1  0.630100  0.807500  0.890500  1.0
  H  H519  1  0.130100  0.692500  0.609500  1.0
  H  H520  1  0.130100  0.307500  0.390500  1.0
  H  H521  1  0.408000  0.846500  0.899100  1.0
  H  H522  1  0.408000  0.153500  0.100900  1.0
  H  H523  1  0.908000  0.346500  0.399100  1.0
  H  H524  1  0.908000  0.653500  0.600900  1.0
  H  H525  1  0.592000  0.153500  0.100900  1.0
  H  H526  1  0.592000  0.846500  0.899100  1.0
  H  H527  1  0.092000  0.653500  0.600900  1.0
  H  H528  1  0.092000  0.346500  0.399100  1.0
  H  H529  1  0.409600  0.814000  0.020800  1.0
  H  H530  1  0.409600  0.186000  0.979200  1.0
  H  H531  1  0.909600  0.314000  0.520800  1.0
  H  H532  1  0.909600  0.686000  0.479200  1.0
  H  H533  1  0.590400  0.186000  0.979200  1.0
  H  H534  1  0.590400  0.814000  0.020800  1.0
  H  H535  1  0.090400  0.686000  0.479200  1.0
  H  H536  1  0.090400  0.314000  0.520800  1.0
  H  H537  1  0.371300  0.775800  0.010600  1.0
  H  H538  1  0.371300  0.224200  0.989400  1.0
  H  H539  1  0.871300  0.275800  0.510600  1.0
  H  H540  1  0.871300  0.724200  0.489400  1.0
  H  H541  1  0.628700  0.224200  0.989400  1.0
  H  H542  1  0.628700  0.775800  0.010600  1.0
  H  H543  1  0.128700  0.724200  0.489400  1.0
  H  H544  1  0.128700  0.275800  0.510600  1.0
  H  H545  1  0.420400  0.753400  0.908800  1.0
  H  H546  1  0.420400  0.246600  0.091200  1.0
  H  H547  1  0.920400  0.253400  0.408800  1.0
  H  H548  1  0.920400  0.746600  0.591200  1.0
  H  H549  1  0.579600  0.246600  0.091200  1.0
  H  H550  1  0.579600  0.753400  0.908800  1.0
  H  H551  1  0.079600  0.746600  0.591200  1.0
  H  H552  1  0.079600  0.253400  0.408800  1.0
  H  H553  1  0.460500  0.795700  0.919900  1.0
  H  H554  1  0.460500  0.204300  0.080100  1.0
  H  H555  1  0.960500  0.295700  0.419900  1.0
  H  H556  1  0.960500  0.704300  0.580100  1.0
  H  H557  1  0.539500  0.204300  0.080100  1.0
  H  H558  1  0.539500  0.795700  0.919900  1.0
  H  H559  1  0.039500  0.704300  0.580100  1.0
  H  H560  1  0.039500  0.295700  0.419900  1.0
  H  H561  1  0.461200  0.777500  0.982400  1.0
  H  H562  1  0.461200  0.222500  0.017600  1.0
  H  H563  1  0.961200  0.277500  0.482400  1.0
  H  H564  1  0.961200  0.722500  0.517600  1.0
  H  H565  1  0.538800  0.222500  0.017600  1.0
  H  H566  1  0.538800  0.777500  0.982400  1.0
  H  H567  1  0.038800  0.722500  0.517600  1.0
  H  H568  1  0.038800  0.277500  0.482400  1.0
  H  H569  1  0.419800  0.735900  0.971500  1.0
  H  H570  1  0.419800  0.264100  0.028500  1.0
  H  H571  1  0.919800  0.235900  0.471500  1.0
  H  H572  1  0.919800  0.764100  0.528500  1.0
  H  H573  1  0.580200  0.264100  0.028500  1.0
  H  H574  1  0.580200  0.735900  0.971500  1.0
  H  H575  1  0.080200  0.764100  0.528500  1.0
  H  H576  1  0.080200  0.235900  0.471500  1.0
  H  H577  1  0.172700  0.857000  0.332200  1.0
  H  H578  1  0.172700  0.143000  0.667800  1.0
  H  H579  1  0.672700  0.357000  0.832200  1.0
  H  H580  1  0.672700  0.643000  0.167800  1.0
  H  H581  1  0.827300  0.143000  0.667800  1.0
  H  H582  1  0.827300  0.857000  0.332200  1.0
  H  H583  1  0.327300  0.643000  0.167800  1.0
  H  H584  1  0.327300  0.357000  0.832200  1.0
  H  H585  1  0.211200  0.862400  0.297900  1.0
  H  H586  1  0.211200  0.137600  0.702100  1.0
  H  H587  1  0.711200  0.362400  0.797900  1.0
  H  H588  1  0.711200  0.637600  0.202100  1.0
  H  H589  1  0.788800  0.137600  0.702100  1.0
  H  H590  1  0.788800  0.862400  0.297900  1.0
  H  H591  1  0.288800  0.637600  0.202100  1.0
  H  H592  1  0.288800  0.362400  0.797900  1.0
  H  H593  1  0.209100  0.998200  0.324300  1.0
  H  H594  1  0.209100  0.001800  0.675700  1.0
  H  H595  1  0.709100  0.498200  0.824300  1.0
  H  H596  1  0.709100  0.501800  0.175700  1.0
  H  H597  1  0.790900  0.001800  0.675700  1.0
  H  H598  1  0.790900  0.998200  0.324300  1.0
  H  H599  1  0.290900  0.501800  0.175700  1.0
  H  H600  1  0.290900  0.498200  0.824300  1.0
  H  H601  1  0.172300  0.987900  0.358800  1.0
  H  H602  1  0.172300  0.012100  0.641200  1.0
  H  H603  1  0.672300  0.487900  0.858800  1.0
  H  H604  1  0.672300  0.512100  0.141200  1.0
  H  H605  1  0.827700  0.012100  0.641200  1.0
  H  H606  1  0.827700  0.987900  0.358800  1.0
  H  H607  1  0.327700  0.512100  0.141200  1.0
  H  H608  1  0.327700  0.487900  0.858800  1.0
  H  H609  1  0.220000  0.881400  0.380800  1.0
  H  H610  1  0.220000  0.118600  0.619200  1.0
  H  H611  1  0.720000  0.381400  0.880800  1.0
  H  H612  1  0.720000  0.618600  0.119200  1.0
  H  H613  1  0.780000  0.118600  0.619200  1.0
  H  H614  1  0.780000  0.881400  0.380800  1.0
  H  H615  1  0.280000  0.618600  0.119200  1.0
  H  H616  1  0.280000  0.381400  0.880800  1.0
  H  H617  1  0.262400  0.885000  0.344000  1.0
  H  H618  1  0.262400  0.115000  0.656000  1.0
  H  H619  1  0.762400  0.385000  0.844000  1.0
  H  H620  1  0.762400  0.615000  0.156000  1.0
  H  H621  1  0.737600  0.115000  0.656000  1.0
  H  H622  1  0.737600  0.885000  0.344000  1.0
  H  H623  1  0.237600  0.615000  0.156000  1.0
  H  H624  1  0.237600  0.385000  0.844000  1.0
  H  H625  1  0.265500  0.958500  0.353300  1.0
  H  H626  1  0.265500  0.041500  0.646700  1.0
  H  H627  1  0.765500  0.458500  0.853300  1.0
  H  H628  1  0.765500  0.541500  0.146700  1.0
  H  H629  1  0.734500  0.041500  0.646700  1.0
  H  H630  1  0.734500  0.958500  0.353300  1.0
  H  H631  1  0.234500  0.541500  0.146700  1.0
  H  H632  1  0.234500  0.458500  0.853300  1.0
  H  H633  1  0.227900  0.953900  0.394100  1.0
  H  H634  1  0.227900  0.046100  0.605900  1.0
  H  H635  1  0.727900  0.453900  0.894100  1.0
  H  H636  1  0.727900  0.546100  0.105900  1.0
  H  H637  1  0.772100  0.046100  0.605900  1.0
  H  H638  1  0.772100  0.953900  0.394100  1.0
  H  H639  1  0.272100  0.546100  0.105900  1.0
  H  H640  1  0.272100  0.453900  0.894100  1.0
  H  H641  1  0.929100  0.759200  0.310200  1.0
  H  H642  1  0.929100  0.240800  0.689800  1.0
  H  H643  1  0.429100  0.259200  0.810200  1.0
  H  H644  1  0.429100  0.740800  0.189800  1.0
  H  H645  1  0.070900  0.240800  0.689800  1.0
  H  H646  1  0.070900  0.759200  0.310200  1.0
  H  H647  1  0.570900  0.740800  0.189800  1.0
  H  H648  1  0.570900  0.259200  0.810200  1.0
  H  H649  1  0.929600  0.725800  0.270200  1.0
  H  H650  1  0.929600  0.274200  0.729800  1.0
  H  H651  1  0.429600  0.225800  0.770200  1.0
  H  H652  1  0.429600  0.774200  0.229800  1.0
  H  H653  1  0.070400  0.274200  0.729800  1.0
  H  H654  1  0.070400  0.725800  0.270200  1.0
  H  H655  1  0.570400  0.774200  0.229800  1.0
  H  H656  1  0.570400  0.225800  0.770200  1.0
  H  H657  1  0.961600  0.671900  0.303300  1.0
  H  H658  1  0.961600  0.328100  0.696700  1.0
  H  H659  1  0.461600  0.171900  0.803300  1.0
  H  H660  1  0.461600  0.828100  0.196700  1.0
  H  H661  1  0.038400  0.328100  0.696700  1.0
  H  H662  1  0.038400  0.671900  0.303300  1.0
  H  H663  1  0.538400  0.828100  0.196700  1.0
  H  H664  1  0.538400  0.171900  0.803300  1.0
  H  H665  1  0.961600  0.708400  0.346300  1.0
  H  H666  1  0.961600  0.291600  0.653700  1.0
  H  H667  1  0.461600  0.208400  0.846300  1.0
  H  H668  1  0.461600  0.791600  0.153700  1.0
  H  H669  1  0.038400  0.291600  0.653700  1.0
  H  H670  1  0.038400  0.708400  0.346300  1.0
  H  H671  1  0.538400  0.791600  0.153700  1.0
  H  H672  1  0.538400  0.208400  0.846300  1.0
  Pd  Pd673  1  0.000000  0.632090  0.053340  1.0
  Pd  Pd674  1  0.000000  0.367910  0.946660  1.0
  Pd  Pd675  1  0.500000  0.132090  0.553340  1.0
  Pd  Pd676  1  0.500000  0.867910  0.446660  1.0
  Pd  Pd677  1  0.000000  0.696130  0.790990  1.0
  Pd  Pd678  1  0.000000  0.303870  0.209010  1.0
  Pd  Pd679  1  0.500000  0.196130  0.290990  1.0
  Pd  Pd680  1  0.500000  0.803870  0.709010  1.0
  Pd  Pd681  1  0.000000  0.918850  0.671400  1.0
  Pd  Pd682  1  0.000000  0.081150  0.328600  1.0
  Pd  Pd683  1  0.500000  0.418850  0.171400  1.0
  Pd  Pd684  1  0.500000  0.581150  0.828600  1.0
  Pd  Pd685  1  0.000000  0.784340  0.263790  1.0
  Pd  Pd686  1  0.000000  0.215660  0.736210  1.0
  Pd  Pd687  1  0.500000  0.284340  0.763790  1.0
  Pd  Pd688  1  0.500000  0.715660  0.236210  1.0
  Pd  Pd689  1  0.349790  0.029370  0.872260  1.0
  Pd  Pd690  1  0.349790  0.970630  0.127740  1.0
  Pd  Pd691  1  0.849790  0.529370  0.372260  1.0
  Pd  Pd692  1  0.849790  0.470630  0.627740  1.0
  Pd  Pd693  1  0.650210  0.970630  0.127740  1.0
  Pd  Pd694  1  0.650210  0.029370  0.872260  1.0
  Pd  Pd695  1  0.150210  0.470630  0.627740  1.0
  Pd  Pd696  1  0.150210  0.529370  0.372260  1.0
  Pd  Pd697  1  0.154660  0.661610  0.922050  1.0
  Pd  Pd698  1  0.154660  0.338390  0.077950  1.0
  Pd  Pd699  1  0.654660  0.161610  0.422050  1.0
  Pd  Pd700  1  0.654660  0.838390  0.577950  1.0
  Pd  Pd701  1  0.845340  0.338390  0.077950  1.0
  Pd  Pd702  1  0.845340  0.661610  0.922050  1.0
  Pd  Pd703  1  0.345340  0.838390  0.577950  1.0
  Pd  Pd704  1  0.345340  0.161610  0.422050  1.0
  Pd  Pd705  1  0.351200  0.847630  0.965010  1.0
  Pd  Pd706  1  0.351200  0.152370  0.034990  1.0
  Pd  Pd707  1  0.851200  0.347630  0.465010  1.0
  Pd  Pd708  1  0.851200  0.652370  0.534990  1.0
  Pd  Pd709  1  0.648800  0.152370  0.034990  1.0
  Pd  Pd710  1  0.648800  0.847630  0.965010  1.0
  Pd  Pd711  1  0.148800  0.652370  0.534990  1.0
  Pd  Pd712  1  0.148800  0.347630  0.465010  1.0
  Pd  Pd713  1  0.154830  0.932860  0.295570  1.0
  Pd  Pd714  1  0.154830  0.067140  0.704430  1.0
  Pd  Pd715  1  0.654830  0.432860  0.795570  1.0
  Pd  Pd716  1  0.654830  0.567140  0.204430  1.0
  Pd  Pd717  1  0.845170  0.067140  0.704430  1.0
  Pd  Pd718  1  0.845170  0.932860  0.295570  1.0
  Pd  Pd719  1  0.345170  0.567140  0.204430  1.0
  Pd  Pd720  1  0.345170  0.432860  0.795570  1.0
  C  C721  1  0.000000  0.856700  0.074800  1
  C  C722  1  0.000000  0.143300  0.925200  1
  C  C723  1  0.500000  0.356700  0.574800  1
  C  C724  1  0.500000  0.643300  0.425200  1
  C  C725  1  0.934000  0.969200  0.885500  1
  C  C726  1  0.934000  0.030800  0.114500  1
  C  C727  1  0.434000  0.469200  0.385500  1
  C  C728  1  0.434000  0.530800  0.614500  1
  C  C729  1  0.066000  0.030800  0.114500  1
  C  C730  1  0.066000  0.969200  0.885500  1
  C  C731  1  0.566000  0.530800  0.614500  1
  C  C732  1  0.566000  0.469200  0.385500  1
  C  C733  1  0.977400  0.955800  0.862400  1
  C  C734  1  0.977400  0.044200  0.137600  1
  C  C735  1  0.477400  0.455800  0.362400  1
  C  C736  1  0.477400  0.544200  0.637600  1
  C  C737  1  0.022600  0.044200  0.137600  1
  C  C738  1  0.022600  0.955800  0.862400  1
  C  C739  1  0.522600  0.544200  0.637600  1
  C  C740  1  0.522600  0.455800  0.362400  1
  C  C741  1  0.981300  0.875300  0.898400  1
  C  C742  1  0.981300  0.124700  0.101600  1
  C  C743  1  0.481300  0.375300  0.398400  1
  C  C744  1  0.481300  0.624700  0.601600  1
  C  C745  1  0.018700  0.124700  0.101600  1
  C  C746  1  0.018700  0.875300  0.898400  1
  C  C747  1  0.518700  0.624700  0.601600  1
  C  C748  1  0.518700  0.375300  0.398400  1
  C  C749  1  0.939500  0.890800  0.922600  1
  C  C750  1  0.939500  0.109200  0.077400  1
  C  C751  1  0.439500  0.390800  0.422600  1
  C  C752  1  0.439500  0.609200  0.577400  1
  C  C753  1  0.060500  0.109200  0.077400  1
  C  C754  1  0.060500  0.890800  0.922600  1
  C  C755  1  0.560500  0.609200  0.577400  1
  C  C756  1  0.560500  0.390800  0.422600  1
  C  C757  1  0.919800  0.861400  0.954600  1
  C  C758  1  0.919800  0.138600  0.045400  1
  C  C759  1  0.419800  0.361400  0.454600  1
  C  C760  1  0.419800  0.638600  0.545400  1
  C  C761  1  0.080200  0.138600  0.045400  1
  C  C762  1  0.080200  0.861400  0.954600  1
  C  C763  1  0.580200  0.638600  0.545400  1
  C  C764  1  0.580200  0.361400  0.454600  1
  C  C765  1  0.872800  0.873000  0.971000  1
  C  C766  1  0.872800  0.127000  0.029000  1
  C  C767  1  0.372800  0.373000  0.471000  1
  C  C768  1  0.372800  0.627000  0.529000  1
  C  C769  1  0.127200  0.127000  0.029000  1
  C  C770  1  0.127200  0.873000  0.971000  1
  C  C771  1  0.627200  0.627000  0.529000  1
  C  C772  1  0.627200  0.373000  0.471000  1
  C  C773  1  0.851200  0.918700  0.967200  1
  C  C774  1  0.851200  0.081300  0.032800  1
  C  C775  1  0.351200  0.418700  0.467200  1
  C  C776  1  0.351200  0.581300  0.532800  1
  C  C777  1  0.148800  0.081300  0.032800  1
  C  C778  1  0.148800  0.918700  0.967200  1
  C  C779  1  0.648800  0.581300  0.532800  1
  C  C780  1  0.648800  0.418700  0.467200  1
  C  C781  1  0.872800  0.951100  0.937500  1
  C  C782  1  0.872800  0.048900  0.062500  1
  C  C783  1  0.372800  0.451100  0.437500  1
  C  C784  1  0.372800  0.548900  0.562500  1
  C  C785  1  0.127200  0.048900  0.062500  1
  C  C786  1  0.127200  0.951100  0.937500  1
  C  C787  1  0.627200  0.548900  0.562500  1
  C  C788  1  0.627200  0.451100  0.437500  1
  C  C789  1  0.916600  0.936200  0.914100  1
  C  C790  1  0.916600  0.063800  0.085900  1
  C  C791  1  0.416600  0.436200  0.414100  1
  C  C792  1  0.416600  0.563800  0.585900  1
  C  C793  1  0.083400  0.063800  0.085900  1
  C  C794  1  0.083400  0.936200  0.914100  1
  C  C795  1  0.583400  0.563800  0.585900  1
  C  C796  1  0.583400  0.436200  0.414100  1
  C  C797  1  0.898300  0.011700  0.891000  1
  C  C798  1  0.898300  0.988300  0.109000  1
  C  C799  1  0.398300  0.511700  0.391000  1
  C  C800  1  0.398300  0.488300  0.609000  1
  C  C801  1  0.101700  0.988300  0.109000  1
  C  C802  1  0.101700  0.011700  0.891000  1
  C  C803  1  0.601700  0.488300  0.609000  1
  C  C804  1  0.601700  0.511700  0.391000  1
  C  C805  1  0.861500  0.002000  0.920300  1
  C  C806  1  0.861500  0.998000  0.079700  1
  C  C807  1  0.361500  0.502000  0.420300  1
  C  C808  1  0.361500  0.498000  0.579700  1
  C  C809  1  0.138500  0.998000  0.079700  1
  C  C810  1  0.138500  0.002000  0.920300  1
  C  C811  1  0.638500  0.498000  0.579700  1
  C  C812  1  0.638500  0.502000  0.420300  1
  C  C813  1  0.000000  0.909700  0.870000  1
  C  C814  1  0.000000  0.090300  0.130000  1
  C  C815  1  0.500000  0.409700  0.370000  1
  C  C816  1  0.500000  0.590300  0.630000  1
  C  C817  1  0.064600  0.867000  0.019400  1.0
  C  C818  1  0.064600  0.133000  0.980600  1.0
  C  C819  1  0.564600  0.367000  0.519400  1.0
  C  C820  1  0.564600  0.633000  0.480600  1.0
  C  C821  1  0.935400  0.133000  0.980600  1.0
  C  C822  1  0.935400  0.867000  0.019400  1.0
  C  C823  1  0.435400  0.633000  0.480600  1.0
  C  C824  1  0.435400  0.367000  0.519400  1.0
  C  C825  1  0.020400  0.843900  0.033600  1.0
  C  C826  1  0.020400  0.156100  0.966400  1.0
  C  C827  1  0.520400  0.343900  0.533600  1.0
  C  C828  1  0.520400  0.656100  0.466400  1.0
  C  C829  1  0.979600  0.156100  0.966400  1.0
  C  C830  1  0.979600  0.843900  0.033600  1.0
  C  C831  1  0.479600  0.656100  0.466400  1.0
  C  C832  1  0.479600  0.343900  0.533600  1.0
  C  C833  1  0.020400  0.890300  0.104400  1.0
  C  C834  1  0.020400  0.109700  0.895600  1.0
  C  C835  1  0.520400  0.390300  0.604400  1.0
  C  C836  1  0.520400  0.609700  0.395600  1.0
  C  C837  1  0.979600  0.109700  0.895600  1.0
  C  C838  1  0.979600  0.890300  0.104400  1.0
  C  C839  1  0.479600  0.609700  0.395600  1.0
  C  C840  1  0.479600  0.390300  0.604400  1.0
  C  C841  1  0.063700  0.916900  0.090900  1.0
  C  C842  1  0.063700  0.083100  0.909100  1.0
  C  C843  1  0.563700  0.416900  0.590900  1.0
  C  C844  1  0.563700  0.583100  0.409100  1.0
  C  C845  1  0.936300  0.083100  0.909100  1.0
  C  C846  1  0.936300  0.916900  0.090900  1.0
  C  C847  1  0.436300  0.583100  0.409100  1.0
  C  C848  1  0.436300  0.416900  0.590900  1.0
  C  C849  1  0.090900  0.950400  0.118800  1.0
  C  C850  1  0.090900  0.049600  0.881200  1.0
  C  C851  1  0.590900  0.450400  0.618800  1.0
  C  C852  1  0.590900  0.549600  0.381200  1.0
  C  C853  1  0.909100  0.049600  0.881200  1.0
  C  C854  1  0.909100  0.950400  0.118800  1.0
  C  C855  1  0.409100  0.549600  0.381200  1.0
  C  C856  1  0.409100  0.450400  0.618800  1.0
  C  C857  1  0.131800  0.973500  0.100600  1.0
  C  C858  1  0.131800  0.026500  0.899400  1.0
  C  C859  1  0.631800  0.473500  0.600600  1.0
  C  C860  1  0.631800  0.526500  0.399400  1.0
  C  C861  1  0.868200  0.026500  0.899400  1.0
  C  C862  1  0.868200  0.973500  0.100600  1.0
  C  C863  1  0.368200  0.526500  0.399400  1.0
  C  C864  1  0.368200  0.473500  0.600600  1.0
  C  C865  1  0.152500  0.960900  0.061300  1.0
  C  C866  1  0.152500  0.039100  0.938700  1.0
  C  C867  1  0.652500  0.460900  0.561300  1.0
  C  C868  1  0.652500  0.539100  0.438700  1.0
  C  C869  1  0.847500  0.039100  0.938700  1.0
  C  C870  1  0.847500  0.960900  0.061300  1.0
  C  C871  1  0.347500  0.539100  0.438700  1.0
  C  C872  1  0.347500  0.460900  0.561300  1.0
  C  C873  1  0.127800  0.923800  0.033800  1.0
  C  C874  1  0.127800  0.076200  0.966200  1.0
  C  C875  1  0.627800  0.423800  0.533800  1.0
  C  C876  1  0.627800  0.576200  0.466200  1.0
  C  C877  1  0.872200  0.076200  0.966200  1.0
  C  C878  1  0.872200  0.923800  0.033800  1.0
  C  C879  1  0.372200  0.576200  0.466200  1.0
  C  C880  1  0.372200  0.423800  0.533800  1.0
  C  C881  1  0.083900  0.903100  0.050100  1.0
  C  C882  1  0.083900  0.096900  0.949900  1.0
  C  C883  1  0.583900  0.403100  0.550100  1.0
  C  C884  1  0.583900  0.596900  0.449900  1.0
  C  C885  1  0.916100  0.096900  0.949900  1.0
  C  C886  1  0.916100  0.903100  0.050100  1.0
  C  C887  1  0.416100  0.596900  0.449900  1.0
  C  C888  1  0.416100  0.403100  0.550100  1.0
  C  C889  1  0.100200  0.866000  0.980300  1.0
  C  C890  1  0.100200  0.134000  0.019700  1.0
  C  C891  1  0.600200  0.366000  0.480300  1.0
  C  C892  1  0.600200  0.634000  0.519700  1.0
  C  C893  1  0.899800  0.134000  0.019700  1.0
  C  C894  1  0.899800  0.866000  0.980300  1.0
  C  C895  1  0.399800  0.634000  0.519700  1.0
  C  C896  1  0.399800  0.366000  0.480300  1.0
  C  C897  1  0.138400  0.899800  0.987700  1.0
  C  C898  1  0.138400  0.100200  0.012300  1.0
  C  C899  1  0.638400  0.399800  0.487700  1.0
  C  C900  1  0.638400  0.600200  0.512300  1.0
  C  C901  1  0.861600  0.100200  0.012300  1.0
  C  C902  1  0.861600  0.899800  0.987700  1.0
  C  C903  1  0.361600  0.600200  0.512300  1.0
  C  C904  1  0.361600  0.399800  0.487700  1.0
  C  C905  1  0.079200  0.663700  0.993100  1.0
  C  C906  1  0.079200  0.336300  0.006900  1.0
  C  C907  1  0.579200  0.163700  0.493100  1.0
  C  C908  1  0.579200  0.836300  0.506900  1.0
  C  C909  1  0.920800  0.336300  0.006900  1.0
  C  C910  1  0.920800  0.663700  0.993100  1.0
  C  C911  1  0.420800  0.836300  0.506900  1.0
  C  C912  1  0.420800  0.163700  0.493100  1.0
  C  C913  1  0.136300  0.727100  0.002500  1.0
  C  C914  1  0.136300  0.272900  0.997500  1.0
  C  C915  1  0.636300  0.227100  0.502500  1.0
  C  C916  1  0.636300  0.772900  0.497500  1.0
  C  C917  1  0.863700  0.272900  0.997500  1.0
  C  C918  1  0.863700  0.727100  0.002500  1.0
  C  C919  1  0.363700  0.772900  0.497500  1.0
  C  C920  1  0.363700  0.227100  0.502500  1.0
  C  C921  1  0.113700  0.742300  0.042500  1.0
  C  C922  1  0.113700  0.257700  0.957500  1.0
  C  C923  1  0.613700  0.242300  0.542500  1.0
  C  C924  1  0.613700  0.757700  0.457500  1.0
  C  C925  1  0.886300  0.257700  0.957500  1.0
  C  C926  1  0.886300  0.742300  0.042500  1.0
  C  C927  1  0.386300  0.757700  0.457500  1.0
  C  C928  1  0.386300  0.242300  0.542500  1.0
  C  C929  1  0.073800  0.715100  0.055900  1.0
  C  C930  1  0.073800  0.284900  0.944100  1.0
  C  C931  1  0.573800  0.215100  0.555900  1.0
  C  C932  1  0.573800  0.784900  0.444100  1.0
  C  C933  1  0.926200  0.284900  0.944100  1.0
  C  C934  1  0.926200  0.715100  0.055900  1.0
  C  C935  1  0.426200  0.784900  0.444100  1.0
  C  C936  1  0.426200  0.215100  0.555900  1.0
  C  C937  1  0.079600  0.860000  0.264000  1.0
  C  C938  1  0.079600  0.140000  0.736000  1.0
  C  C939  1  0.579600  0.360000  0.764000  1.0
  C  C940  1  0.579600  0.640000  0.236000  1.0
  C  C941  1  0.920400  0.140000  0.736000  1.0
  C  C942  1  0.920400  0.860000  0.264000  1.0
  C  C943  1  0.420400  0.640000  0.236000  1.0
  C  C944  1  0.420400  0.360000  0.764000  1.0
  C  C945  1  0.073300  0.816900  0.196700  1.0
  C  C946  1  0.073300  0.183100  0.803300  1.0
  C  C947  1  0.573300  0.316900  0.696700  1.0
  C  C948  1  0.573300  0.683100  0.303300  1.0
  C  C949  1  0.926700  0.183100  0.803300  1.0
  C  C950  1  0.926700  0.816900  0.196700  1.0
  C  C951  1  0.426700  0.683100  0.303300  1.0
  C  C952  1  0.426700  0.316900  0.696700  1.0
  C  C953  1  0.115100  0.841600  0.181500  1.0
  C  C954  1  0.115100  0.158400  0.818500  1.0
  C  C955  1  0.615100  0.341600  0.681500  1.0
  C  C956  1  0.615100  0.658400  0.318500  1.0
  C  C957  1  0.884900  0.158400  0.818500  1.0
  C  C958  1  0.884900  0.841600  0.181500  1.0
  C  C959  1  0.384900  0.658400  0.318500  1.0
  C  C960  1  0.384900  0.341600  0.681500  1.0
  C  C961  1  0.136400  0.876700  0.210400  1.0
  C  C962  1  0.136400  0.123300  0.789600  1.0
  C  C963  1  0.636400  0.376700  0.710400  1.0
  C  C964  1  0.636400  0.623300  0.289600  1.0
  C  C965  1  0.863600  0.123300  0.789600  1.0
  C  C966  1  0.863600  0.876700  0.210400  1.0
  C  C967  1  0.363600  0.623300  0.289600  1.0
  C  C968  1  0.363600  0.376700  0.710400  1.0
  C  C969  1  0.333000  0.906500  0.048200  1.0
  C  C970  1  0.333000  0.093500  0.951800  1.0
  C  C971  1  0.833000  0.406500  0.548200  1.0
  C  C972  1  0.833000  0.593500  0.451800  1.0
  C  C973  1  0.667000  0.093500  0.951800  1.0
  C  C974  1  0.667000  0.906500  0.048200  1.0
  C  C975  1  0.167000  0.593500  0.451800  1.0
  C  C976  1  0.167000  0.406500  0.548200  1.0
  C  C977  1  0.267700  0.901800  0.097900  1.0
  C  C978  1  0.267700  0.098200  0.902100  1.0
  C  C979  1  0.767700  0.401800  0.597900  1.0
  C  C980  1  0.767700  0.598200  0.402100  1.0
  C  C981  1  0.732300  0.098200  0.902100  1.0
  C  C982  1  0.732300  0.901800  0.097900  1.0
  C  C983  1  0.232300  0.598200  0.402100  1.0
  C  C984  1  0.232300  0.401800  0.597900  1.0
  C  C985  1  0.268000  0.850500  0.032300  1.0
  C  C986  1  0.268000  0.149500  0.967700  1.0
  C  C987  1  0.768000  0.350500  0.532300  1.0
  C  C988  1  0.768000  0.649500  0.467700  1.0
  C  C989  1  0.732000  0.149500  0.967700  1.0
  C  C990  1  0.732000  0.850500  0.032300  1.0
  C  C991  1  0.232000  0.649500  0.467700  1.0
  C  C992  1  0.232000  0.350500  0.532300  1.0
  C  C993  1  0.244300  0.866300  0.070300  1.0
  C  C994  1  0.244300  0.133700  0.929700  1.0
  C  C995  1  0.744300  0.366300  0.570300  1.0
  C  C996  1  0.744300  0.633700  0.429700  1.0
  C  C997  1  0.755700  0.133700  0.929700  1.0
  C  C998  1  0.755700  0.866300  0.070300  1.0
  C  C999  1  0.255700  0.633700  0.429700  1.0
  C  C1000  1  0.255700  0.366300  0.570300  1.0
  C  C1001  1  0.134500  0.830600  0.136500  1.0
  C  C1002  1  0.134500  0.169400  0.863500  1.0
  C  C1003  1  0.634500  0.330600  0.636500  1.0
  C  C1004  1  0.634500  0.669400  0.363500  1.0
  C  C1005  1  0.865500  0.169400  0.863500  1.0
  C  C1006  1  0.865500  0.830600  0.136500  1.0
  C  C1007  1  0.365500  0.669400  0.363500  1.0
  C  C1008  1  0.365500  0.330600  0.636500  1.0
  C  C1009  1  0.134800  0.783400  0.071200  1.0
  C  C1010  1  0.134800  0.216600  0.928800  1.0
  C  C1011  1  0.634800  0.283400  0.571200  1.0
  C  C1012  1  0.634800  0.716600  0.428800  1.0
  C  C1013  1  0.865200  0.216600  0.928800  1.0
  C  C1014  1  0.865200  0.783400  0.071200  1.0
  C  C1015  1  0.365200  0.716600  0.428800  1.0
  C  C1016  1  0.365200  0.283400  0.571200  1.0
  C  C1017  1  0.176500  0.806600  0.056300  1.0
  C  C1018  1  0.176500  0.193400  0.943700  1.0
  C  C1019  1  0.676500  0.306600  0.556300  1.0
  C  C1020  1  0.676500  0.693400  0.443700  1.0
  C  C1021  1  0.823500  0.193400  0.943700  1.0
  C  C1022  1  0.823500  0.806600  0.056300  1.0
  C  C1023  1  0.323500  0.693400  0.443700  1.0
  C  C1024  1  0.323500  0.306600  0.556300  1.0
  C  C1025  1  0.197300  0.842300  0.083800  1.0
  C  C1026  1  0.197300  0.157700  0.916200  1.0
  C  C1027  1  0.697300  0.342300  0.583800  1.0
  C  C1028  1  0.697300  0.657700  0.416200  1.0
  C  C1029  1  0.802700  0.157700  0.916200  1.0
  C  C1030  1  0.802700  0.842300  0.083800  1.0
  C  C1031  1  0.302700  0.657700  0.416200  1.0
  C  C1032  1  0.302700  0.342300  0.583800  1.0
  C  C1033  1  0.077500  0.696500  0.860100  1.0
  C  C1034  1  0.077500  0.303500  0.139900  1.0
  C  C1035  1  0.577500  0.196500  0.360100  1.0
  C  C1036  1  0.577500  0.803500  0.639900  1.0
  C  C1037  1  0.922500  0.303500  0.139900  1.0
  C  C1038  1  0.922500  0.696500  0.860100  1.0
  C  C1039  1  0.422500  0.803500  0.639900  1.0
  C  C1040  1  0.422500  0.196500  0.360100  1.0
  C  C1041  1  0.135500  0.755900  0.880100  1.0
  C  C1042  1  0.135500  0.244100  0.119900  1.0
  C  C1043  1  0.635500  0.255900  0.380100  1.0
  C  C1044  1  0.635500  0.744100  0.619900  1.0
  C  C1045  1  0.864500  0.244100  0.119900  1.0
  C  C1046  1  0.864500  0.755900  0.880100  1.0
  C  C1047  1  0.364500  0.744100  0.619900  1.0
  C  C1048  1  0.364500  0.255900  0.380100  1.0
  C  C1049  1  0.113800  0.788300  0.851200  1.0
  C  C1050  1  0.113800  0.211700  0.148800  1.0
  C  C1051  1  0.613800  0.288300  0.351200  1.0
  C  C1052  1  0.613800  0.711700  0.648800  1.0
  C  C1053  1  0.886200  0.211700  0.148800  1.0
  C  C1054  1  0.886200  0.788300  0.851200  1.0
  C  C1055  1  0.386200  0.711700  0.648800  1.0
  C  C1056  1  0.386200  0.288300  0.351200  1.0
  C  C1057  1  0.072200  0.770100  0.827100  1.0
  C  C1058  1  0.072200  0.229900  0.172900  1.0
  C  C1059  1  0.572200  0.270100  0.327100  1.0
  C  C1060  1  0.572200  0.729900  0.672900  1.0
  C  C1061  1  0.927800  0.229900  0.172900  1.0
  C  C1062  1  0.927800  0.770100  0.827100  1.0
  C  C1063  1  0.427800  0.729900  0.672900  1.0
  C  C1064  1  0.427800  0.270100  0.327100  1.0
  C  C1065  1  0.331400  0.937400  0.918200  1.0
  C  C1066  1  0.331400  0.062600  0.081800  1.0
  C  C1067  1  0.831400  0.437400  0.418200  1.0
  C  C1068  1  0.831400  0.562600  0.581800  1.0
  C  C1069  1  0.668600  0.062600  0.081800  1.0
  C  C1070  1  0.668600  0.937400  0.918200  1.0
  C  C1071  1  0.168600  0.562600  0.581800  1.0
  C  C1072  1  0.168600  0.437400  0.418200  1.0
  C  C1073  1  0.266400  0.956600  0.872300  1.0
  C  C1074  1  0.266400  0.043400  0.127700  1.0
  C  C1075  1  0.766400  0.456600  0.372300  1.0
  C  C1076  1  0.766400  0.543400  0.627700  1.0
  C  C1077  1  0.733600  0.043400  0.127700  1.0
  C  C1078  1  0.733600  0.956600  0.872300  1.0
  C  C1079  1  0.233600  0.543400  0.627700  1.0
  C  C1080  1  0.233600  0.456600  0.372300  1.0
  C  C1081  1  0.242800  0.911800  0.880900  1.0
  C  C1082  1  0.242800  0.088200  0.119100  1.0
  C  C1083  1  0.742800  0.411800  0.380900  1.0
  C  C1084  1  0.742800  0.588200  0.619100  1.0
  C  C1085  1  0.757200  0.088200  0.119100  1.0
  C  C1086  1  0.757200  0.911800  0.880900  1.0
  C  C1087  1  0.257200  0.588200  0.619100  1.0
  C  C1088  1  0.257200  0.411800  0.380900  1.0
  C  C1089  1  0.267600  0.882600  0.909300  1.0
  C  C1090  1  0.267600  0.117400  0.090700  1.0
  C  C1091  1  0.767600  0.382600  0.409300  1.0
  C  C1092  1  0.767600  0.617400  0.590700  1.0
  C  C1093  1  0.732400  0.117400  0.090700  1.0
  C  C1094  1  0.732400  0.882600  0.909300  1.0
  C  C1095  1  0.232400  0.617400  0.590700  1.0
  C  C1096  1  0.232400  0.382600  0.409300  1.0
  C  C1097  1  0.077200  0.988200  0.702500  1.0
  C  C1098  1  0.077200  0.011800  0.297500  1.0
  C  C1099  1  0.577200  0.488200  0.202500  1.0
  C  C1100  1  0.577200  0.511800  0.797500  1.0
  C  C1101  1  0.922800  0.011800  0.297500  1.0
  C  C1102  1  0.922800  0.988200  0.702500  1.0
  C  C1103  1  0.422800  0.511800  0.797500  1.0
  C  C1104  1  0.422800  0.488200  0.202500  1.0
  C  C1105  1  0.072500  0.921800  0.746600  1.0
  C  C1106  1  0.072500  0.078200  0.253400  1.0
  C  C1107  1  0.572500  0.421800  0.246600  1.0
  C  C1108  1  0.572500  0.578200  0.753400  1.0
  C  C1109  1  0.927500  0.078200  0.253400  1.0
  C  C1110  1  0.927500  0.921800  0.746600  1.0
  C  C1111  1  0.427500  0.578200  0.753400  1.0
  C  C1112  1  0.427500  0.421800  0.246600  1.0
  C  C1113  1  0.112800  0.938600  0.771800  1.0
  C  C1114  1  0.112800  0.061400  0.228200  1.0
  C  C1115  1  0.612800  0.438600  0.271800  1.0
  C  C1116  1  0.612800  0.561400  0.728200  1.0
  C  C1117  1  0.887200  0.061400  0.228200  1.0
  C  C1118  1  0.887200  0.938600  0.771800  1.0
  C  C1119  1  0.387200  0.561400  0.728200  1.0
  C  C1120  1  0.387200  0.438600  0.271800  1.0
  C  C1121  1  0.133600  0.983200  0.759900  1.0
  C  C1122  1  0.133600  0.016800  0.240100  1.0
  C  C1123  1  0.633600  0.483200  0.259900  1.0
  C  C1124  1  0.633600  0.516800  0.740100  1.0
  C  C1125  1  0.866400  0.016800  0.240100  1.0
  C  C1126  1  0.866400  0.983200  0.759900  1.0
  C  C1127  1  0.366400  0.516800  0.740100  1.0
  C  C1128  1  0.366400  0.483200  0.259900  1.0
  C  C1129  1  0.134000  0.909800  0.806400  1.0
  C  C1130  1  0.134000  0.090200  0.193600  1.0
  C  C1131  1  0.634000  0.409800  0.306400  1.0
  C  C1132  1  0.634000  0.590200  0.693600  1.0
  C  C1133  1  0.866000  0.090200  0.193600  1.0
  C  C1134  1  0.866000  0.909800  0.806400  1.0
  C  C1135  1  0.366000  0.590200  0.693600  1.0
  C  C1136  1  0.366000  0.409800  0.306400  1.0
  C  C1137  1  0.133200  0.837500  0.845100  1.0
  C  C1138  1  0.133200  0.162500  0.154900  1.0
  C  C1139  1  0.633200  0.337500  0.345100  1.0
  C  C1140  1  0.633200  0.662500  0.654900  1.0
  C  C1141  1  0.866800  0.162500  0.154900  1.0
  C  C1142  1  0.866800  0.837500  0.845100  1.0
  C  C1143  1  0.366800  0.662500  0.654900  1.0
  C  C1144  1  0.366800  0.337500  0.345100  1.0
  C  C1145  1  0.176100  0.852400  0.867900  1.0
  C  C1146  1  0.176100  0.147600  0.132100  1.0
  C  C1147  1  0.676100  0.352400  0.367900  1.0
  C  C1148  1  0.676100  0.647600  0.632100  1.0
  C  C1149  1  0.823900  0.147600  0.132100  1.0
  C  C1150  1  0.823900  0.852400  0.867900  1.0
  C  C1151  1  0.323900  0.647600  0.632100  1.0
  C  C1152  1  0.323900  0.352400  0.367900  1.0
  C  C1153  1  0.195600  0.897100  0.858900  1.0
  C  C1154  1  0.195600  0.102900  0.141100  1.0
  C  C1155  1  0.695600  0.397100  0.358900  1.0
  C  C1156  1  0.695600  0.602900  0.641100  1.0
  C  C1157  1  0.804400  0.102900  0.141100  1.0
  C  C1158  1  0.804400  0.897100  0.858900  1.0
  C  C1159  1  0.304400  0.602900  0.641100  1.0
  C  C1160  1  0.304400  0.397100  0.358900  1.0
  C  C1161  1  0.421900  0.017100  0.801800  1.0
  C  C1162  1  0.421900  0.982900  0.198200  1.0
  C  C1163  1  0.921900  0.517100  0.301800  1.0
  C  C1164  1  0.921900  0.482900  0.698200  1.0
  C  C1165  1  0.578100  0.982900  0.198200  1.0
  C  C1166  1  0.578100  0.017100  0.801800  1.0
  C  C1167  1  0.078100  0.482900  0.698200  1.0
  C  C1168  1  0.078100  0.517100  0.301800  1.0
  C  C1169  1  0.433900  0.064100  0.823000  1.0
  C  C1170  1  0.433900  0.935900  0.177000  1.0
  C  C1171  1  0.933900  0.564100  0.323000  1.0
  C  C1172  1  0.933900  0.435900  0.677000  1.0
  C  C1173  1  0.566100  0.935900  0.177000  1.0
  C  C1174  1  0.566100  0.064100  0.823000  1.0
  C  C1175  1  0.066100  0.435900  0.677000  1.0
  C  C1176  1  0.066100  0.564100  0.323000  1.0
  C  C1177  1  0.974600  0.548400  0.102400  1.0
  C  C1178  1  0.974600  0.451600  0.897600  1.0
  C  C1179  1  0.474600  0.048400  0.602400  1.0
  C  C1180  1  0.474600  0.951600  0.397600  1.0
  C  C1181  1  0.025400  0.451600  0.897600  1.0
  C  C1182  1  0.025400  0.548400  0.102400  1.0
  C  C1183  1  0.525400  0.951600  0.397600  1.0
  C  C1184  1  0.525400  0.048400  0.602400  1.0
  C  C1185  1  0.974400  0.645900  0.709200  1.0
  C  C1186  1  0.974400  0.354100  0.290800  1.0
  C  C1187  1  0.474400  0.145900  0.209200  1.0
  C  C1188  1  0.474400  0.854100  0.790800  1.0
  C  C1189  1  0.025600  0.354100  0.290800  1.0
  C  C1190  1  0.025600  0.645900  0.709200  1.0
  C  C1191  1  0.525600  0.854100  0.790800  1.0
  C  C1192  1  0.525600  0.145900  0.209200  1.0
  C  C1193  1  0.222600  0.589100  0.883200  1.0
  C  C1194  1  0.222600  0.410900  0.116800  1.0
  C  C1195  1  0.722600  0.089100  0.383200  1.0
  C  C1196  1  0.722600  0.910900  0.616800  1.0
  C  C1197  1  0.777400  0.410900  0.116800  1.0
  C  C1198  1  0.777400  0.589100  0.883200  1.0
  C  C1199  1  0.277400  0.910900  0.616800  1.0
  C  C1200  1  0.277400  0.089100  0.383200  1.0
  C  C1201  1  0.233200  0.586300  0.923400  1.0
  C  C1202  1  0.233200  0.413700  0.076600  1.0
  C  C1203  1  0.733200  0.086300  0.423400  1.0
  C  C1204  1  0.733200  0.913700  0.576600  1.0
  C  C1205  1  0.766800  0.413700  0.076600  1.0
  C  C1206  1  0.766800  0.586300  0.923400  1.0
  C  C1207  1  0.266800  0.913700  0.576600  1.0
  C  C1208  1  0.266800  0.086300  0.423400  1.0
  C  C1209  1  0.976400  0.869100  0.589400  1.0
  C  C1210  1  0.976400  0.130900  0.410600  1.0
  C  C1211  1  0.476400  0.369100  0.089400  1.0
  C  C1212  1  0.476400  0.630900  0.910600  1.0
  C  C1213  1  0.023600  0.130900  0.410600  1.0
  C  C1214  1  0.023600  0.869100  0.589400  1.0
  C  C1215  1  0.523600  0.630900  0.910600  1.0
  C  C1216  1  0.523600  0.369100  0.089400  1.0
  C  C1217  1  0.426200  0.784300  0.927000  1.0
  C  C1218  1  0.426200  0.215700  0.073000  1.0
  C  C1219  1  0.926200  0.284300  0.427000  1.0
  C  C1220  1  0.926200  0.715700  0.573000  1.0
  C  C1221  1  0.573800  0.215700  0.073000  1.0
  C  C1222  1  0.573800  0.784300  0.927000  1.0
  C  C1223  1  0.073800  0.715700  0.573000  1.0
  C  C1224  1  0.073800  0.284300  0.427000  1.0
  C  C1225  1  0.426900  0.771700  0.970500  1.0
  C  C1226  1  0.426900  0.228300  0.029500  1.0
  C  C1227  1  0.926900  0.271700  0.470500  1.0
  C  C1228  1  0.926900  0.728300  0.529500  1.0
  C  C1229  1  0.573100  0.228300  0.029500  1.0
  C  C1230  1  0.573100  0.771700  0.970500  1.0
  C  C1231  1  0.073100  0.728300  0.529500  1.0
  C  C1232  1  0.073100  0.271700  0.470500  1.0
  C  C1233  1  0.228500  0.897000  0.352900  1.0
  C  C1234  1  0.228500  0.103000  0.647100  1.0
  C  C1235  1  0.728500  0.397000  0.852900  1.0
  C  C1236  1  0.728500  0.603000  0.147100  1.0
  C  C1237  1  0.771500  0.103000  0.647100  1.0
  C  C1238  1  0.771500  0.897000  0.352900  1.0
  C  C1239  1  0.271500  0.603000  0.147100  1.0
  C  C1240  1  0.271500  0.397000  0.852900  1.0
  C  C1241  1  0.231800  0.946800  0.361900  1.0
  C  C1242  1  0.231800  0.053200  0.638100  1.0
  C  C1243  1  0.731800  0.446800  0.861900  1.0
  C  C1244  1  0.731800  0.553200  0.138100  1.0
  C  C1245  1  0.768200  0.053200  0.638100  1.0
  C  C1246  1  0.768200  0.946800  0.361900  1.0
  C  C1247  1  0.268200  0.553200  0.138100  1.0
  C  C1248  1  0.268200  0.446800  0.861900  1.0
  C  C1249  1  0.973100  0.704700  0.315200  1.0
  C  C1250  1  0.973100  0.295300  0.684800  1.0
  C  C1251  1  0.473100  0.204700  0.815200  1.0
  C  C1252  1  0.473100  0.795300  0.184800  1.0
  C  C1253  1  0.026900  0.295300  0.684800  1.0
  C  C1254  1  0.026900  0.704700  0.315200  1.0
  C  C1255  1  0.526900  0.795300  0.184800  1.0
  C  C1256  1  0.526900  0.204700  0.815200  1.0
  N  N1257  1  0.000000  0.737900  0.939800  1
  N  N1258  1  0.000000  0.262100  0.060200  1
  N  N1259  1  0.500000  0.237900  0.439800  1
  N  N1260  1  0.500000  0.762100  0.560200  1
  N  N1261  1  0.257100  0.749400  0.943900  1
  N  N1262  1  0.257100  0.250600  0.056100  1
  N  N1263  1  0.757100  0.249400  0.443900  1
  N  N1264  1  0.757100  0.750600  0.556100  1
  N  N1265  1  0.742900  0.250600  0.056100  1
  N  N1266  1  0.742900  0.749400  0.943900  1
  N  N1267  1  0.242900  0.750600  0.556100  1
  N  N1268  1  0.242900  0.249400  0.443900  1
  N  N1269  1  0.320800  0.887800  0.796800  1
  N  N1270  1  0.320800  0.112200  0.203200  1
  N  N1271  1  0.820800  0.387800  0.296800  1
  N  N1272  1  0.820800  0.612200  0.703200  1
  N  N1273  1  0.679200  0.112200  0.203200  1
  N  N1274  1  0.679200  0.887800  0.796800  1
  N  N1275  1  0.179200  0.612200  0.703200  1
  N  N1276  1  0.179200  0.387800  0.296800  1
  N  N1277  1  0.257100  0.949700  0.216900  1
  N  N1278  1  0.257100  0.050300  0.783100  1
  N  N1279  1  0.757100  0.449700  0.716900  1
  N  N1280  1  0.757100  0.550300  0.283100  1
  N  N1281  1  0.742900  0.050300  0.783100  1
  N  N1282  1  0.742900  0.949700  0.216900  1
  N  N1283  1  0.242900  0.550300  0.283100  1
  N  N1284  1  0.242900  0.449700  0.716900  1
  N  N1285  1  0.275700  0.000000  0.000000  1
  N  N1286  1  0.775700  0.500000  0.500000  1
  N  N1287  1  0.724300  0.000000  1.000000  1
  N  N1288  1  0.224300  0.500000  0.500000  1
  N  N1289  1  0.000000  0.587300  0.910300  1
  N  N1290  1  0.000000  0.412700  0.089700  1
  N  N1291  1  0.500000  0.087300  0.410300  1
  N  N1292  1  0.500000  0.912700  0.589700  1
  N  N1293  1  0.500000  0.922900  0.883700  1
  N  N1294  1  0.500000  0.077100  0.116300  1
  N  N1295  1  0.000000  0.422900  0.383700  1
  N  N1296  1  0.000000  0.577100  0.616300  1
  N  N1297  1  0.394500  0.928600  0.700100  1
  N  N1298  1  0.394500  0.071400  0.299900  1
  N  N1299  1  0.894500  0.428600  0.200100  1
  N  N1300  1  0.894500  0.571400  0.799900  1
  N  N1301  1  0.605500  0.071400  0.299900  1
  N  N1302  1  0.605500  0.928600  0.700100  1
  N  N1303  1  0.105500  0.571400  0.799900  1
  N  N1304  1  0.105500  0.428600  0.200100  1
  N  N1305  1  0.000000  0.946700  0.229400  1
  N  N1306  1  0.000000  0.053300  0.770600  1
  N  N1307  1  0.500000  0.446700  0.729400  1
  N  N1308  1  0.500000  0.553300  0.270600  1
  N  N1309  1  0.000000  0.702500  0.162200  1
  N  N1310  1  0.000000  0.297500  0.837800  1
  N  N1311  1  0.500000  0.202500  0.662200  1
  N  N1312  1  0.500000  0.797500  0.337800  1
  N  N1313  1  0.157700  0.871200  0.688900  1
  N  N1314  1  0.157700  0.128800  0.311100  1
  N  N1315  1  0.657700  0.371200  0.188900  1
  N  N1316  1  0.657700  0.628800  0.811100  1
  N  N1317  1  0.842300  0.128800  0.311100  1
  N  N1318  1  0.842300  0.871200  0.688900  1
  N  N1319  1  0.342300  0.628800  0.811100  1
  N  N1320  1  0.342300  0.371200  0.188900  1
  N  N1321  1  0.476600  0.855300  0.074100  1
  N  N1322  1  0.476600  0.144700  0.925900  1
  N  N1323  1  0.976600  0.355300  0.574100  1
  N  N1324  1  0.976600  0.644700  0.425900  1
  N  N1325  1  0.523400  0.144700  0.925900  1
  N  N1326  1  0.523400  0.855300  0.074100  1
  N  N1327  1  0.023400  0.644700  0.425900  1
  N  N1328  1  0.023400  0.355300  0.574100  1
  N  N1329  1  0.900000  0.477200  0.019900  1
  N  N1330  1  0.900000  0.522800  0.980100  1
  N  N1331  1  0.400000  0.977200  0.519900  1
  N  N1332  1  0.400000  0.022800  0.480100  1
  N  N1333  1  0.100000  0.522800  0.980100  1
  N  N1334  1  0.100000  0.477200  0.019900  1
  N  N1335  1  0.600000  0.022800  0.480100  1
  N  N1336  1  0.600000  0.977200  0.519900  1
  N  N1337  1  0.000000  0.913800  0.362700  1
  N  N1338  1  0.000000  0.086200  0.637300  1
  N  N1339  1  0.500000  0.413800  0.862700  1
  N  N1340  1  0.500000  0.586200  0.137300  1
  N  N1341  1  0.118600  0.687600  0.978300  1.0
  N  N1342  1  0.118600  0.312400  0.021700  1.0
  N  N1343  1  0.618600  0.187600  0.478300  1.0
  N  N1344  1  0.618600  0.812400  0.521700  1.0
  N  N1345  1  0.881400  0.312400  0.021700  1.0
  N  N1346  1  0.881400  0.687600  0.978300  1.0
  N  N1347  1  0.381400  0.812400  0.521700  1.0
  N  N1348  1  0.381400  0.187600  0.478300  1.0
  N  N1349  1  0.055500  0.675900  0.030900  1.0
  N  N1350  1  0.055500  0.324100  0.969100  1.0
  N  N1351  1  0.555500  0.175900  0.530900  1.0
  N  N1352  1  0.555500  0.824100  0.469100  1.0
  N  N1353  1  0.944500  0.324100  0.969100  1.0
  N  N1354  1  0.944500  0.675900  0.030900  1.0
  N  N1355  1  0.444500  0.824100  0.469100  1.0
  N  N1356  1  0.444500  0.175900  0.530900  1.0
  N  N1357  1  0.055400  0.825900  0.237300  1.0
  N  N1358  1  0.055400  0.174100  0.762700  1.0
  N  N1359  1  0.555400  0.325900  0.737300  1.0
  N  N1360  1  0.555400  0.674100  0.262700  1.0
  N  N1361  1  0.944600  0.174100  0.762700  1.0
  N  N1362  1  0.944600  0.825900  0.237300  1.0
  N  N1363  1  0.444600  0.674100  0.262700  1.0
  N  N1364  1  0.444600  0.325900  0.737300  1.0
  N  N1365  1  0.118200  0.884900  0.251000  1.0
  N  N1366  1  0.118200  0.115100  0.749000  1.0
  N  N1367  1  0.618200  0.384900  0.751000  1.0
  N  N1368  1  0.618200  0.615100  0.249000  1.0
  N  N1369  1  0.881800  0.115100  0.749000  1.0
  N  N1370  1  0.881800  0.884900  0.251000  1.0
  N  N1371  1  0.381800  0.615100  0.249000  1.0
  N  N1372  1  0.381800  0.384900  0.751000  1.0
  N  N1373  1  0.312900  0.870600  0.021600  1.0
  N  N1374  1  0.312900  0.129400  0.978400  1.0
  N  N1375  1  0.812900  0.370600  0.521600  1.0
  N  N1376  1  0.812900  0.629400  0.478400  1.0
  N  N1377  1  0.687100  0.129400  0.978400  1.0
  N  N1378  1  0.687100  0.870600  0.021600  1.0
  N  N1379  1  0.187100  0.629400  0.478400  1.0
  N  N1380  1  0.187100  0.370600  0.521600  1.0
  N  N1381  1  0.311400  0.922000  0.085900  1.0
  N  N1382  1  0.311400  0.078000  0.914100  1.0
  N  N1383  1  0.811400  0.422000  0.585900  1.0
  N  N1384  1  0.811400  0.578000  0.414100  1.0
  N  N1385  1  0.688600  0.078000  0.914100  1.0
  N  N1386  1  0.688600  0.922000  0.085900  1.0
  N  N1387  1  0.188600  0.578000  0.414100  1.0
  N  N1388  1  0.188600  0.422000  0.585900  1.0
  N  N1389  1  0.113400  0.794700  0.110000  1.0
  N  N1390  1  0.113400  0.205300  0.890000  1.0
  N  N1391  1  0.613400  0.294700  0.610000  1.0
  N  N1392  1  0.613400  0.705300  0.390000  1.0
  N  N1393  1  0.886600  0.205300  0.890000  1.0
  N  N1394  1  0.886600  0.794700  0.110000  1.0
  N  N1395  1  0.386600  0.705300  0.390000  1.0
  N  N1396  1  0.386600  0.294700  0.610000  1.0
  N  N1397  1  0.176600  0.854900  0.124500  1.0
  N  N1398  1  0.176600  0.145100  0.875500  1.0
  N  N1399  1  0.676600  0.354900  0.624500  1.0
  N  N1400  1  0.676600  0.645100  0.375500  1.0
  N  N1401  1  0.823400  0.145100  0.875500  1.0
  N  N1402  1  0.823400  0.854900  0.124500  1.0
  N  N1403  1  0.323400  0.645100  0.375500  1.0
  N  N1404  1  0.323400  0.354900  0.624500  1.0
  N  N1405  1  0.055900  0.724100  0.831400  1.0
  N  N1406  1  0.055900  0.275900  0.168600  1.0
  N  N1407  1  0.555900  0.224100  0.331400  1.0
  N  N1408  1  0.555900  0.775900  0.668600  1.0
  N  N1409  1  0.944100  0.275900  0.168600  1.0
  N  N1410  1  0.944100  0.724100  0.831400  1.0
  N  N1411  1  0.444100  0.775900  0.668600  1.0
  N  N1412  1  0.444100  0.224100  0.331400  1.0
  N  N1413  1  0.119000  0.710400  0.883900  1.0
  N  N1414  1  0.119000  0.289600  0.116100  1.0
  N  N1415  1  0.619000  0.210400  0.383900  1.0
  N  N1416  1  0.619000  0.789600  0.616100  1.0
  N  N1417  1  0.881000  0.289600  0.116100  1.0
  N  N1418  1  0.881000  0.710400  0.883900  1.0
  N  N1419  1  0.381000  0.789600  0.616100  1.0
  N  N1420  1  0.381000  0.210400  0.383900  1.0
  N  N1421  1  0.310800  0.969000  0.891200  1.0
  N  N1422  1  0.310800  0.031000  0.108800  1.0
  N  N1423  1  0.810800  0.469000  0.391200  1.0
  N  N1424  1  0.810800  0.531000  0.608800  1.0
  N  N1425  1  0.689200  0.031000  0.108800  1.0
  N  N1426  1  0.689200  0.969000  0.891200  1.0
  N  N1427  1  0.189200  0.531000  0.608800  1.0
  N  N1428  1  0.189200  0.469000  0.391200  1.0
  N  N1429  1  0.311900  0.895000  0.927400  1.0
  N  N1430  1  0.311900  0.105000  0.072600  1.0
  N  N1431  1  0.811900  0.395000  0.427400  1.0
  N  N1432  1  0.811900  0.605000  0.572600  1.0
  N  N1433  1  0.688100  0.105000  0.072600  1.0
  N  N1434  1  0.688100  0.895000  0.927400  1.0
  N  N1435  1  0.188100  0.605000  0.572600  1.0
  N  N1436  1  0.188100  0.395000  0.427400  1.0
  N  N1437  1  0.117600  0.005800  0.726300  1.0
  N  N1438  1  0.117600  0.994200  0.273700  1.0
  N  N1439  1  0.617600  0.505800  0.226300  1.0
  N  N1440  1  0.617600  0.494200  0.773700  1.0
  N  N1441  1  0.882400  0.994200  0.273700  1.0
  N  N1442  1  0.882400  0.005800  0.726300  1.0
  N  N1443  1  0.382400  0.494200  0.773700  1.0
  N  N1444  1  0.382400  0.505800  0.226300  1.0
  N  N1445  1  0.055400  0.947000  0.711800  1.0
  N  N1446  1  0.055400  0.053000  0.288200  1.0
  N  N1447  1  0.555400  0.447000  0.211800  1.0
  N  N1448  1  0.555400  0.553000  0.788200  1.0
  N  N1449  1  0.944600  0.053000  0.288200  1.0
  N  N1450  1  0.944600  0.947000  0.711800  1.0
  N  N1451  1  0.444600  0.553000  0.788200  1.0
  N  N1452  1  0.444600  0.447000  0.211800  1.0
  N  N1453  1  0.176200  0.925700  0.827800  1.0
  N  N1454  1  0.176200  0.074300  0.172200  1.0
  N  N1455  1  0.676200  0.425700  0.327800  1.0
  N  N1456  1  0.676200  0.574300  0.672200  1.0
  N  N1457  1  0.823800  0.074300  0.172200  1.0
  N  N1458  1  0.823800  0.925700  0.827800  1.0
  N  N1459  1  0.323800  0.574300  0.672200  1.0
  N  N1460  1  0.323800  0.425700  0.327800  1.0
  N  N1461  1  0.112400  0.865400  0.814200  1.0
  N  N1462  1  0.112400  0.134600  0.185800  1.0
  N  N1463  1  0.612400  0.365400  0.314200  1.0
  N  N1464  1  0.612400  0.634600  0.685800  1.0
  N  N1465  1  0.887600  0.134600  0.185800  1.0
  N  N1466  1  0.887600  0.865400  0.814200  1.0
  N  N1467  1  0.387600  0.634600  0.685800  1.0
  N  N1468  1  0.387600  0.365400  0.314200  1.0
  N  N1469  1  0.390300  0.985800  0.830300  1.0
  N  N1470  1  0.390300  0.014200  0.169700  1.0
  N  N1471  1  0.890300  0.485800  0.330300  1.0
  N  N1472  1  0.890300  0.514200  0.669700  1.0
  N  N1473  1  0.609700  0.014200  0.169700  1.0
  N  N1474  1  0.609700  0.985800  0.830300  1.0
  N  N1475  1  0.109700  0.514200  0.669700  1.0
  N  N1476  1  0.109700  0.485800  0.330300  1.0
  N  N1477  1  0.391600  0.083600  0.849500  1.0
  N  N1478  1  0.391600  0.916400  0.150500  1.0
  N  N1479  1  0.891600  0.583600  0.349500  1.0
  N  N1480  1  0.891600  0.416400  0.650500  1.0
  N  N1481  1  0.608400  0.916400  0.150500  1.0
  N  N1482  1  0.608400  0.083600  0.849500  1.0
  N  N1483  1  0.108400  0.416400  0.650500  1.0
  N  N1484  1  0.108400  0.583600  0.349500  1.0
  N  N1485  1  0.950000  0.584800  0.078800  1.0
  N  N1486  1  0.950000  0.415200  0.921200  1.0
  N  N1487  1  0.450000  0.084800  0.578800  1.0
  N  N1488  1  0.450000  0.915200  0.421200  1.0
  N  N1489  1  0.050000  0.415200  0.921200  1.0
  N  N1490  1  0.050000  0.584800  0.078800  1.0
  N  N1491  1  0.550000  0.915200  0.421200  1.0
  N  N1492  1  0.550000  0.084800  0.578800  1.0
  N  N1493  1  0.949200  0.667100  0.748300  1.0
  N  N1494  1  0.949200  0.332900  0.251700  1.0
  N  N1495  1  0.449200  0.167100  0.248300  1.0
  N  N1496  1  0.449200  0.832900  0.751700  1.0
  N  N1497  1  0.050800  0.332900  0.251700  1.0
  N  N1498  1  0.050800  0.667100  0.748300  1.0
  N  N1499  1  0.550800  0.832900  0.751700  1.0
  N  N1500  1  0.550800  0.167100  0.248300  1.0
  N  N1501  1  0.192700  0.633000  0.870400  1.0
  N  N1502  1  0.192700  0.367000  0.129600  1.0
  N  N1503  1  0.692700  0.133000  0.370400  1.0
  N  N1504  1  0.692700  0.867000  0.629600  1.0
  N  N1505  1  0.807300  0.367000  0.129600  1.0
  N  N1506  1  0.807300  0.633000  0.870400  1.0
  N  N1507  1  0.307300  0.867000  0.629600  1.0
  N  N1508  1  0.307300  0.133000  0.370400  1.0
  N  N1509  1  0.193000  0.610700  0.956000  1.0
  N  N1510  1  0.193000  0.389300  0.044000  1.0
  N  N1511  1  0.693000  0.110700  0.456000  1.0
  N  N1512  1  0.693000  0.889300  0.544000  1.0
  N  N1513  1  0.807000  0.389300  0.044000  1.0
  N  N1514  1  0.807000  0.610700  0.956000  1.0
  N  N1515  1  0.307000  0.889300  0.544000  1.0
  N  N1516  1  0.307000  0.110700  0.456000  1.0
  N  N1517  1  0.948800  0.889400  0.629000  1.0
  N  N1518  1  0.948800  0.110600  0.371000  1.0
  N  N1519  1  0.448800  0.389400  0.129000  1.0
  N  N1520  1  0.448800  0.610600  0.871000  1.0
  N  N1521  1  0.051200  0.110600  0.371000  1.0
  N  N1522  1  0.051200  0.889400  0.629000  1.0
  N  N1523  1  0.551200  0.610600  0.871000  1.0
  N  N1524  1  0.551200  0.389400  0.129000  1.0
  N  N1525  1  0.391000  0.821500  0.911300  1.0
  N  N1526  1  0.391000  0.178500  0.088700  1.0
  N  N1527  1  0.891000  0.321500  0.411300  1.0
  N  N1528  1  0.891000  0.678500  0.588700  1.0
  N  N1529  1  0.609000  0.178500  0.088700  1.0
  N  N1530  1  0.609000  0.821500  0.911300  1.0
  N  N1531  1  0.109000  0.678500  0.588700  1.0
  N  N1532  1  0.109000  0.321500  0.411300  1.0
  N  N1533  1  0.392500  0.797700  0.998400  1.0
  N  N1534  1  0.392500  0.202300  0.001600  1.0
  N  N1535  1  0.892500  0.297700  0.498400  1.0
  N  N1536  1  0.892500  0.702300  0.501600  1.0
  N  N1537  1  0.607500  0.202300  0.001600  1.0
  N  N1538  1  0.607500  0.797700  0.998400  1.0
  N  N1539  1  0.107500  0.702300  0.501600  1.0
  N  N1540  1  0.107500  0.297700  0.498400  1.0
  N  N1541  1  0.194000  0.878800  0.320100  1.0
  N  N1542  1  0.194000  0.121200  0.679900  1.0
  N  N1543  1  0.694000  0.378800  0.820100  1.0
  N  N1544  1  0.694000  0.621200  0.179900  1.0
  N  N1545  1  0.806000  0.121200  0.679900  1.0
  N  N1546  1  0.806000  0.878800  0.320100  1.0
  N  N1547  1  0.306000  0.621200  0.179900  1.0
  N  N1548  1  0.306000  0.378800  0.820100  1.0
  N  N1549  1  0.193900  0.973500  0.338600  1.0
  N  N1550  1  0.193900  0.026500  0.661400  1.0
  N  N1551  1  0.693900  0.473500  0.838600  1.0
  N  N1552  1  0.693900  0.526500  0.161400  1.0
  N  N1553  1  0.806100  0.026500  0.661400  1.0
  N  N1554  1  0.806100  0.973500  0.338600  1.0
  N  N1555  1  0.306100  0.526500  0.161400  1.0
  N  N1556  1  0.306100  0.473500  0.838600  1.0
  N  N1557  1  0.949300  0.740600  0.291700  1.0
  N  N1558  1  0.949300  0.259400  0.708300  1.0
  N  N1559  1  0.449300  0.240600  0.791700  1.0
  N  N1560  1  0.449300  0.759400  0.208300  1.0
  N  N1561  1  0.050700  0.259400  0.708300  1.0
  N  N1562  1  0.050700  0.740600  0.291700  1.0
  N  N1563  1  0.550700  0.759400  0.208300  1.0
  N  N1564  1  0.550700  0.240600  0.791700  1.0
  O  O1565  1  0.000000  0.693100  0.929800  1
  O  O1566  1  0.000000  0.306900  0.070200  1
  O  O1567  1  0.500000  0.193100  0.429800  1
  O  O1568  1  0.500000  0.806900  0.570200  1
  O  O1569  1  0.000000  0.758000  0.913000  1
  O  O1570  1  0.000000  0.242000  0.087000  1
  O  O1571  1  0.500000  0.258000  0.413000  1
  O  O1572  1  0.500000  0.742000  0.587000  1
  O  O1573  1  0.000000  0.751100  0.972800  1
  O  O1574  1  0.000000  0.248900  0.027200  1
  O  O1575  1  0.500000  0.251100  0.472800  1
  O  O1576  1  0.500000  0.748900  0.527200  1
  O  O1577  1  0.227500  0.778800  0.950100  1
  O  O1578  1  0.227500  0.221200  0.049900  1
  O  O1579  1  0.727500  0.278800  0.450100  1
  O  O1580  1  0.727500  0.721200  0.549900  1
  O  O1581  1  0.772500  0.221200  0.049900  1
  O  O1582  1  0.772500  0.778800  0.950100  1
  O  O1583  1  0.272500  0.721200  0.549900  1
  O  O1584  1  0.272500  0.278800  0.450100  1
  O  O1585  1  0.248400  0.710000  0.921800  1
  O  O1586  1  0.248400  0.290000  0.078200  1
  O  O1587  1  0.748400  0.210000  0.421800  1
  O  O1588  1  0.748400  0.790000  0.578200  1
  O  O1589  1  0.751600  0.290000  0.078200  1
  O  O1590  1  0.751600  0.710000  0.921800  1
  O  O1591  1  0.251600  0.790000  0.578200  1
  O  O1592  1  0.251600  0.210000  0.421800  1
  O  O1593  1  0.299600  0.760000  0.940100  1
  O  O1594  1  0.299600  0.240000  0.059900  1
  O  O1595  1  0.799600  0.260000  0.440100  1
  O  O1596  1  0.799600  0.740000  0.559900  1
  O  O1597  1  0.700400  0.240000  0.059900  1
  O  O1598  1  0.700400  0.760000  0.940100  1
  O  O1599  1  0.200400  0.740000  0.559900  1
  O  O1600  1  0.200400  0.260000  0.440100  1
  O  O1601  1  0.352800  0.874700  0.828500  1
  O  O1602  1  0.352800  0.125300  0.171500  1
  O  O1603  1  0.852800  0.374700  0.328500  1
  O  O1604  1  0.852800  0.625300  0.671500  1
  O  O1605  1  0.647200  0.125300  0.171500  1
  O  O1606  1  0.647200  0.874700  0.828500  1
  O  O1607  1  0.147200  0.625300  0.671500  1
  O  O1608  1  0.147200  0.374700  0.328500  1
  O  O1609  1  0.284800  0.852800  0.790700  1
  O  O1610  1  0.284800  0.147200  0.209300  1
  O  O1611  1  0.784800  0.352800  0.290700  1
  O  O1612  1  0.784800  0.647200  0.709300  1
  O  O1613  1  0.715200  0.147200  0.209300  1
  O  O1614  1  0.715200  0.852800  0.790700  1
  O  O1615  1  0.215200  0.647200  0.709300  1
  O  O1616  1  0.215200  0.352800  0.290700  1
  O  O1617  1  0.320000  0.926300  0.777500  1
  O  O1618  1  0.320000  0.073700  0.222500  1
  O  O1619  1  0.820000  0.426300  0.277500  1
  O  O1620  1  0.820000  0.573700  0.722500  1
  O  O1621  1  0.680000  0.073700  0.222500  1
  O  O1622  1  0.680000  0.926300  0.777500  1
  O  O1623  1  0.180000  0.573700  0.722500  1
  O  O1624  1  0.180000  0.426300  0.277500  1
  O  O1625  1  0.882700  0.747200  0.730200  1
  O  O1626  1  0.882700  0.252800  0.269800  1
  O  O1627  1  0.382700  0.247200  0.230200  1
  O  O1628  1  0.382700  0.752800  0.769800  1
  O  O1629  1  0.117300  0.252800  0.269800  1
  O  O1630  1  0.117300  0.747200  0.730200  1
  O  O1631  1  0.617300  0.752800  0.769800  1
  O  O1632  1  0.617300  0.247200  0.230200  1
  O  O1633  1  0.225400  0.955900  0.188500  1
  O  O1634  1  0.225400  0.044100  0.811500  1
  O  O1635  1  0.725400  0.455900  0.688500  1
  O  O1636  1  0.725400  0.544100  0.311500  1
  O  O1637  1  0.774600  0.044100  0.811500  1
  O  O1638  1  0.774600  0.955900  0.188500  1
  O  O1639  1  0.274600  0.544100  0.311500  1
  O  O1640  1  0.274600  0.455900  0.688500  1
  O  O1641  1  0.246600  0.929000  0.249300  1
  O  O1642  1  0.246600  0.071000  0.750700  1
  O  O1643  1  0.746600  0.429000  0.749300  1
  O  O1644  1  0.746600  0.571000  0.250700  1
  O  O1645  1  0.753400  0.071000  0.750700  1
  O  O1646  1  0.753400  0.929000  0.249300  1
  O  O1647  1  0.253400  0.571000  0.250700  1
  O  O1648  1  0.253400  0.429000  0.749300  1
  O  O1649  1  0.298600  0.971500  0.215900  1
  O  O1650  1  0.298600  0.028500  0.784100  1
  O  O1651  1  0.798600  0.471500  0.715900  1
  O  O1652  1  0.798600  0.528500  0.284100  1
  O  O1653  1  0.701400  0.028500  0.784100  1
  O  O1654  1  0.701400  0.971500  0.215900  1
  O  O1655  1  0.201400  0.528500  0.284100  1
  O  O1656  1  0.201400  0.471500  0.715900  1
  O  O1657  1  0.320800  1.000000  0.000000  1
  O  O1658  1  0.820800  0.500000  0.500000  1
  O  O1659  1  0.679200  1.000000  0.000000  1
  O  O1660  1  0.179200  0.500000  0.500000  1
  O  O1661  1  0.000000  0.581300  0.948200  1
  O  O1662  1  0.000000  0.418700  0.051800  1
  O  O1663  1  0.500000  0.081300  0.448200  1
  O  O1664  1  0.500000  0.918700  0.551800  1
  O  O1665  1  0.500000  0.961100  0.860000  1
  O  O1666  1  0.500000  0.038900  0.140000  1
  O  O1667  1  0.000000  0.461100  0.360000  1
  O  O1668  1  0.000000  0.538900  0.640000  1
  O  O1669  1  0.385200  0.954700  0.667700  1
  O  O1670  1  0.385200  0.045300  0.332300  1
  O  O1671  1  0.885200  0.454700  0.167700  1
  O  O1672  1  0.885200  0.545300  0.832300  1
  O  O1673  1  0.614800  0.045300  0.332300  1
  O  O1674  1  0.614800  0.954700  0.667700  1
  O  O1675  1  0.114800  0.545300  0.832300  1
  O  O1676  1  0.114800  0.454700  0.167700  1
  O  O1677  1  0.376800  0.887000  0.702600  1
  O  O1678  1  0.376800  0.113000  0.297400  1
  O  O1679  1  0.876800  0.387000  0.202600  1
  O  O1680  1  0.876800  0.613000  0.797400  1
  O  O1681  1  0.623200  0.113000  0.297400  1
  O  O1682  1  0.623200  0.887000  0.702600  1
  O  O1683  1  0.123200  0.613000  0.797400  1
  O  O1684  1  0.123200  0.387000  0.202600  1
  O  O1685  1  0.424800  0.944300  0.729900  1
  O  O1686  1  0.424800  0.055700  0.270100  1
  O  O1687  1  0.924800  0.444300  0.229900  1
  O  O1688  1  0.924800  0.555700  0.770100  1
  O  O1689  1  0.575200  0.055700  0.270100  1
  O  O1690  1  0.575200  0.944300  0.729900  1
  O  O1691  1  0.075200  0.555700  0.770100  1
  O  O1692  1  0.075200  0.444300  0.229900  1
  O  O1693  1  0.170000  0.628200  0.058400  1
  O  O1694  1  0.170000  0.371800  0.941600  1
  O  O1695  1  0.670000  0.128200  0.558400  1
  O  O1696  1  0.670000  0.871800  0.441600  1
  O  O1697  1  0.830000  0.371800  0.941600  1
  O  O1698  1  0.830000  0.628200  0.058400  1
  O  O1699  1  0.330000  0.871800  0.441600  1
  O  O1700  1  0.330000  0.128200  0.558400  1
  O  O1701  1  0.305600  0.741900  0.052700  1
  O  O1702  1  0.305600  0.258100  0.947300  1
  O  O1703  1  0.805600  0.241900  0.552700  1
  O  O1704  1  0.805600  0.758100  0.447300  1
  O  O1705  1  0.694400  0.258100  0.947300  1
  O  O1706  1  0.694400  0.741900  0.052700  1
  O  O1707  1  0.194400  0.758100  0.447300  1
  O  O1708  1  0.194400  0.241900  0.552700  1
  O  O1709  1  0.317500  0.816000  0.150800  1
  O  O1710  1  0.317500  0.184000  0.849200  1
  O  O1711  1  0.817500  0.316000  0.650800  1
  O  O1712  1  0.817500  0.684000  0.349200  1
  O  O1713  1  0.682500  0.184000  0.849200  1
  O  O1714  1  0.682500  0.816000  0.150800  1
  O  O1715  1  0.182500  0.684000  0.349200  1
  O  O1716  1  0.182500  0.316000  0.650800  1
  O  O1717  1  0.238700  0.948800  0.720200  1
  O  O1718  1  0.238700  0.051200  0.279800  1
  O  O1719  1  0.738700  0.448800  0.220200  1
  O  O1720  1  0.738700  0.551200  0.779800  1
  O  O1721  1  0.761300  0.051200  0.279800  1
  O  O1722  1  0.761300  0.948800  0.720200  1
  O  O1723  1  0.261300  0.551200  0.779800  1
  O  O1724  1  0.261300  0.448800  0.220200  1
  O  O1725  1  0.243600  0.717400  0.824200  1
  O  O1726  1  0.243600  0.282600  0.175800  1
  O  O1727  1  0.743600  0.217400  0.324200  1
  O  O1728  1  0.743600  0.782600  0.675800  1
  O  O1729  1  0.756400  0.282600  0.175800  1
  O  O1730  1  0.756400  0.717400  0.824200  1
  O  O1731  1  0.256400  0.782600  0.675800  1
  O  O1732  1  0.256400  0.217400  0.324200  1
  O  O1733  1  0.124900  0.804000  0.342500  1
  O  O1734  1  0.124900  0.196000  0.657500  1
  O  O1735  1  0.624900  0.304000  0.842500  1
  O  O1736  1  0.624900  0.696000  0.157500  1
  O  O1737  1  0.875100  0.196000  0.657500  1
  O  O1738  1  0.875100  0.804000  0.342500  1
  O  O1739  1  0.375100  0.696000  0.157500  1
  O  O1740  1  0.375100  0.304000  0.842500  1
  O  O1741  1  0.878600  0.027900  0.401000  1
  O  O1742  1  0.878600  0.972100  0.599000  1
  O  O1743  1  0.378600  0.527900  0.901000  1
  O  O1744  1  0.378600  0.472100  0.099000  1
  O  O1745  1  0.121400  0.972100  0.599000  1
  O  O1746  1  0.121400  0.027900  0.401000  1
  O  O1747  1  0.621400  0.472100  0.099000  1
  O  O1748  1  0.621400  0.527900  0.901000  1
  O  O1749  1  0.779200  0.798600  0.247700  1
  O  O1750  1  0.779200  0.201400  0.752300  1
  O  O1751  1  0.279200  0.298600  0.747700  1
  O  O1752  1  0.279200  0.701400  0.252300  1
  O  O1753  1  0.220800  0.201400  0.752300  1
  O  O1754  1  0.220800  0.798600  0.247700  1
  O  O1755  1  0.720800  0.701400  0.252300  1
  O  O1756  1  0.720800  0.298600  0.747700  1
  O  O1757  1  0.347100  0.660700  0.907200  1
  O  O1758  1  0.347100  0.339300  0.092800  1
  O  O1759  1  0.847100  0.160700  0.407200  1
  O  O1760  1  0.847100  0.839300  0.592800  1
  O  O1761  1  0.652900  0.339300  0.092800  1
  O  O1762  1  0.652900  0.660700  0.907200  1
  O  O1763  1  0.152900  0.839300  0.592800  1
  O  O1764  1  0.152900  0.160700  0.407200  1
  O  O1765  1  0.865300  0.715800  0.216400  1
  O  O1766  1  0.865300  0.284200  0.783600  1
  O  O1767  1  0.365300  0.215800  0.716400  1
  O  O1768  1  0.365300  0.784200  0.283600  1
  O  O1769  1  0.134700  0.284200  0.783600  1
  O  O1770  1  0.134700  0.715800  0.216400  1
  O  O1771  1  0.634700  0.784200  0.283600  1
  O  O1772  1  0.634700  0.215800  0.716400  1
  O  O1773  1  0.375700  0.925500  0.307400  1
  O  O1774  1  0.375700  0.074500  0.692600  1
  O  O1775  1  0.875700  0.425500  0.807400  1
  O  O1776  1  0.875700  0.574500  0.192600  1
  O  O1777  1  0.624300  0.074500  0.692600  1
  O  O1778  1  0.624300  0.925500  0.307400  1
  O  O1779  1  0.124300  0.574500  0.192600  1
  O  O1780  1  0.124300  0.425500  0.807400  1
  O  O1781  1  0.295300  0.963200  0.465900  1
  O  O1782  1  0.295300  0.036800  0.534100  1
  O  O1783  1  0.795300  0.463200  0.965900  1
  O  O1784  1  0.795300  0.536800  0.034100  1
  O  O1785  1  0.704700  0.036800  0.534100  1
  O  O1786  1  0.704700  0.963200  0.465900  1
  O  O1787  1  0.204700  0.536800  0.034100  1
  O  O1788  1  0.204700  0.463200  0.965900  1
  O  O1789  1  0.000000  0.169700  0.517400  1
  O  O1790  1  0.000000  0.830300  0.482600  1
  O  O1791  1  0.500000  0.669700  0.017400  1
  O  O1792  1  0.500000  0.330300  0.982600  1
  O  O1793  1  0.432100  0.066800  0.007500  1
  O  O1794  1  0.432100  0.933200  0.992500  1
  O  O1795  1  0.932100  0.566800  0.507500  1
  O  O1796  1  0.932100  0.433200  0.492500  1
  O  O1797  1  0.567900  0.933200  0.992500  1
  O  O1798  1  0.567900  0.066800  0.007500  1
  O  O1799  1  0.067900  0.433200  0.492500  1
  O  O1800  1  0.067900  0.566800  0.507500  1
  O  O1801  1  0.000000  0.000000  0.000000  1
  O  O1802  1  0.500000  0.500000  0.500000  1
  O  O1803  1  0.000000  0.938200  0.268500  1
  O  O1804  1  0.000000  0.061800  0.731500  1
  O  O1805  1  0.500000  0.438200  0.768500  1
  O  O1806  1  0.500000  0.561800  0.231500  1
  O  O1807  1  0.000000  0.987000  0.223300  1
  O  O1808  1  0.000000  0.013000  0.776700  1
  O  O1809  1  0.500000  0.487000  0.723300  1
  O  O1810  1  0.500000  0.513000  0.276700  1
  O  O1811  1  0.000000  0.907800  0.207700  1
  O  O1812  1  0.000000  0.092200  0.792300  1
  O  O1813  1  0.500000  0.407800  0.707700  1
  O  O1814  1  0.500000  0.592200  0.292300  1
  O  O1815  1  0.934300  0.500000  0.000000  1
  O  O1816  1  0.434300  1.000000  0.500000  1
  O  O1817  1  0.065700  0.500000  0.000000  1
  O  O1818  1  0.565700  1.000000  0.500000  1
  O  O1819  1  0.000000  0.823100  0.757000  1
  O  O1820  1  0.000000  0.176900  0.243000  1
  O  O1821  1  0.500000  0.323100  0.257000  1
  O  O1822  1  0.500000  0.676900  0.743000  1
  O  O1823  1  0.000000  0.791600  0.689900  1
  O  O1824  1  0.000000  0.208400  0.310100  1
  O  O1825  1  0.500000  0.291600  0.189900  1
  O  O1826  1  0.500000  0.708400  0.810100  1
  O  O1827  1  0.000000  0.707400  0.205100  1
  O  O1828  1  0.000000  0.292600  0.794900  1
  O  O1829  1  0.500000  0.207400  0.705100  1
  O  O1830  1  0.500000  0.792600  0.294900  1
  O  O1831  1  0.000000  0.737900  0.140000  1
  O  O1832  1  0.000000  0.262100  0.860000  1
  O  O1833  1  0.500000  0.237900  0.640000  1
  O  O1834  1  0.500000  0.762100  0.360000  1
  O  O1835  1  0.000000  0.659100  0.141400  1
  O  O1836  1  0.000000  0.340900  0.858600  1
  O  O1837  1  0.500000  0.159100  0.641400  1
  O  O1838  1  0.500000  0.840900  0.358600  1
  O  O1839  1  0.959600  0.758400  0.944700  1
  O  O1840  1  0.959600  0.241600  0.055300  1
  O  O1841  1  0.459600  0.258400  0.444700  1
  O  O1842  1  0.459600  0.741600  0.555300  1
  O  O1843  1  0.040400  0.241600  0.055300  1
  O  O1844  1  0.040400  0.758400  0.944700  1
  O  O1845  1  0.540400  0.741600  0.555300  1
  O  O1846  1  0.540400  0.258400  0.444700  1
  O  O1847  1  0.153800  0.909500  0.667500  1
  O  O1848  1  0.153800  0.090500  0.332500  1
  O  O1849  1  0.653800  0.409500  0.167500  1
  O  O1850  1  0.653800  0.590500  0.832500  1
  O  O1851  1  0.846200  0.090500  0.332500  1
  O  O1852  1  0.846200  0.909500  0.667500  1
  O  O1853  1  0.346200  0.590500  0.832500  1
  O  O1854  1  0.346200  0.409500  0.167500  1
  O  O1855  1  0.123100  0.839500  0.688700  1
  O  O1856  1  0.123100  0.160500  0.311300  1
  O  O1857  1  0.623100  0.339500  0.188700  1
  O  O1858  1  0.623100  0.660500  0.811300  1
  O  O1859  1  0.876900  0.160500  0.311300  1
  O  O1860  1  0.876900  0.839500  0.688700  1
  O  O1861  1  0.376900  0.660500  0.811300  1
  O  O1862  1  0.376900  0.339500  0.188700  1
  O  O1863  1  0.195600  0.863600  0.712400  1
  O  O1864  1  0.195600  0.136400  0.287600  1
  O  O1865  1  0.695600  0.363600  0.212400  1
  O  O1866  1  0.695600  0.636400  0.787600  1
  O  O1867  1  0.804400  0.136400  0.287600  1
  O  O1868  1  0.804400  0.863600  0.712400  1
  O  O1869  1  0.304400  0.636400  0.787600  1
  O  O1870  1  0.304400  0.363600  0.212400  1
  O  O1871  1  0.806700  0.774900  0.768500  1
  O  O1872  1  0.806700  0.225100  0.231500  1
  O  O1873  1  0.306700  0.274900  0.268500  1
  O  O1874  1  0.306700  0.725100  0.731500  1
  O  O1875  1  0.193300  0.225100  0.231500  1
  O  O1876  1  0.193300  0.774900  0.768500  1
  O  O1877  1  0.693300  0.725100  0.731500  1
  O  O1878  1  0.693300  0.274900  0.268500  1
  O  O1879  1  0.303700  0.790200  0.844600  1
  O  O1880  1  0.303700  0.209800  0.155400  1
  O  O1881  1  0.803700  0.290200  0.344600  1
  O  O1882  1  0.803700  0.709800  0.655400  1
  O  O1883  1  0.696300  0.209800  0.155400  1
  O  O1884  1  0.696300  0.790200  0.844600  1
  O  O1885  1  0.196300  0.709800  0.655400  1
  O  O1886  1  0.196300  0.290200  0.344600  1
  O  O1887  1  0.400900  0.833900  0.086600  1
  O  O1888  1  0.400900  0.166100  0.913400  1
  O  O1889  1  0.900900  0.333900  0.586600  1
  O  O1890  1  0.900900  0.666100  0.413400  1
  O  O1891  1  0.599100  0.166100  0.913400  1
  O  O1892  1  0.599100  0.833900  0.086600  1
  O  O1893  1  0.099100  0.666100  0.413400  1
  O  O1894  1  0.099100  0.333900  0.586600  1
  O  O1895  1  0.306700  0.778300  0.137800  1
  O  O1896  1  0.306700  0.221700  0.862200  1
  O  O1897  1  0.806700  0.278300  0.637800  1
  O  O1898  1  0.806700  0.721700  0.362200  1
  O  O1899  1  0.693300  0.221700  0.862200  1
  O  O1900  1  0.693300  0.778300  0.137800  1
  O  O1901  1  0.193300  0.721700  0.362200  1
  O  O1902  1  0.193300  0.278300  0.637800  1
  O  O1903  1  0.119200  0.657800  0.129000  1
  O  O1904  1  0.119200  0.342200  0.871000  1
  O  O1905  1  0.619200  0.157800  0.629000  1
  O  O1906  1  0.619200  0.842200  0.371000  1
  O  O1907  1  0.880800  0.342200  0.871000  1
  O  O1908  1  0.880800  0.657800  0.129000  1
  O  O1909  1  0.380800  0.842200  0.371000  1
  O  O1910  1  0.380800  0.157800  0.629000  1
  O  O1911  1  0.244000  0.684000  0.033800  1
  O  O1912  1  0.244000  0.316000  0.966200  1
  O  O1913  1  0.744000  0.184000  0.533800  1
  O  O1914  1  0.744000  0.816000  0.466200  1
  O  O1915  1  0.756000  0.316000  0.966200  1
  O  O1916  1  0.756000  0.684000  0.033800  1
  O  O1917  1  0.256000  0.816000  0.466200  1
  O  O1918  1  0.256000  0.184000  0.533800  1
  O  O1919  1  0.433700  0.006800  0.939900  1
  O  O1920  1  0.433700  0.993200  0.060100  1
  O  O1921  1  0.933700  0.506800  0.439900  1
  O  O1922  1  0.933700  0.493200  0.560100  1
  O  O1923  1  0.566300  0.993200  0.060100  1
  O  O1924  1  0.566300  0.006800  0.939900  1
  O  O1925  1  0.066300  0.493200  0.560100  1
  O  O1926  1  0.066300  0.506800  0.439900  1
  O  O1927  1  0.036900  0.939800  0.205900  1
  O  O1928  1  0.036900  0.060200  0.794100  1
  O  O1929  1  0.536900  0.439800  0.705900  1
  O  O1930  1  0.536900  0.560200  0.294100  1
  O  O1931  1  0.963100  0.060200  0.794100  1
  O  O1932  1  0.963100  0.939800  0.205900  1
  O  O1933  1  0.463100  0.560200  0.294100  1
  O  O1934  1  0.463100  0.439800  0.705900  1
  O  O1935  1  0.430100  0.849000  0.076800  1
  O  O1936  1  0.430100  0.151000  0.923200  1
  O  O1937  1  0.930100  0.349000  0.576800  1
  O  O1938  1  0.930100  0.651000  0.423200  1
  O  O1939  1  0.569900  0.151000  0.923200  1
  O  O1940  1  0.569900  0.849000  0.076800  1
  O  O1941  1  0.069900  0.651000  0.423200  1
  O  O1942  1  0.069900  0.349000  0.576800  1
  O  O1943  1  0.500000  0.882000  0.101200  1
  O  O1944  1  0.500000  0.118000  0.898800  1
  O  O1945  1  0.000000  0.382000  0.601200  1
  O  O1946  1  0.000000  0.618000  0.398800  1
  O  O1947  1  0.500000  0.837200  0.039900  1
  O  O1948  1  0.500000  0.162800  0.960100  1
  O  O1949  1  0.000000  0.337200  0.539900  1
  O  O1950  1  0.000000  0.662800  0.460100  1
  O  O1951  1  0.886700  0.440000  0.999000  1
  O  O1952  1  0.886700  0.560000  0.001000  1
  O  O1953  1  0.386700  0.940000  0.499000  1
  O  O1954  1  0.386700  0.060000  0.501000  1
  O  O1955  1  0.113300  0.560000  0.001000  1
  O  O1956  1  0.113300  0.440000  0.999000  1
  O  O1957  1  0.613300  0.060000  0.501000  1
  O  O1958  1  0.613300  0.940000  0.499000  1
  O  O1959  1  0.883400  0.488700  0.058100  1
  O  O1960  1  0.883400  0.511300  0.941900  1
  O  O1961  1  0.383400  0.988700  0.558100  1
  O  O1962  1  0.383400  0.011300  0.441900  1
  O  O1963  1  0.116600  0.511300  0.941900  1
  O  O1964  1  0.116600  0.488700  0.058100  1
  O  O1965  1  0.616600  0.011300  0.441900  1
  O  O1966  1  0.616600  0.988700  0.558100  1
  O  O1967  1  0.000000  0.958900  0.370800  1
  O  O1968  1  0.000000  0.041100  0.629200  1
  O  O1969  1  0.500000  0.458900  0.870800  1
  O  O1970  1  0.500000  0.541100  0.129200  1
  O  O1971  1  0.952400  0.921900  0.363600  1
  O  O1972  1  0.952400  0.078100  0.636400  1
  O  O1973  1  0.452400  0.421900  0.863600  1
  O  O1974  1  0.452400  0.578100  0.136400  1
  O  O1975  1  0.047600  0.078100  0.636400  1
  O  O1976  1  0.047600  0.921900  0.363600  1
  O  O1977  1  0.547600  0.578100  0.136400  1
  O  O1978  1  0.547600  0.421900  0.863600  1
  O  O1979  1  0.000000  0.865800  0.351500  1
  O  O1980  1  0.000000  0.134200  0.648500  1
  O  O1981  1  0.500000  0.365800  0.851500  1
  O  O1982  1  0.500000  0.634200  0.148500  1
  O  O1983  1  0.500000  0.045300  0.718600  1
  O  O1984  1  0.500000  0.954700  0.281400  1
  O  O1985  1  0.000000  0.545300  0.218600  1
  O  O1986  1  0.000000  0.454700  0.781400  1
  O  O1987  1  0.500000  0.993100  0.707800  1
  O  O1988  1  0.500000  0.006900  0.292200  1
  O  O1989  1  0.000000  0.493100  0.207800  1
  O  O1990  1  0.000000  0.506900  0.792200  1
  O  O1991  1  0.500000  0.100200  0.731600  1
  O  O1992  1  0.500000  0.899800  0.268400  1
  O  O1993  1  0.000000  0.600200  0.231600  1
  O  O1994  1  0.000000  0.399800  0.768400  1
  O  O1995  1  0.000000  0.800600  0.724200  1
  O  O1996  1  0.000000  0.199400  0.275800  1
  O  O1997  1  0.500000  0.300600  0.224200  1
  O  O1998  1  0.500000  0.699400  0.775800  1
  O  O1999  1  0.253700  0.961800  0.996100  1.0
  O  O2000  1  0.253700  0.038200  0.003900  1.0
  O  O2001  1  0.753700  0.461800  0.496100  1.0
  O  O2002  1  0.753700  0.538200  0.503900  1.0
  O  O2003  1  0.746300  0.038200  0.003900  1.0
  O  O2004  1  0.746300  0.961800  0.996100  1.0
  O  O2005  1  0.246300  0.538200  0.503900  1.0
  O  O2006  1  0.246300  0.461800  0.496100  1.0
  O  O2007  1  0.044700  0.588800  0.901500  1.0
  O  O2008  1  0.044700  0.411200  0.098500  1.0
  O  O2009  1  0.544700  0.088800  0.401500  1.0
  O  O2010  1  0.544700  0.911200  0.598500  1.0
  O  O2011  1  0.955300  0.411200  0.098500  1.0
  O  O2012  1  0.955300  0.588800  0.901500  1.0
  O  O2013  1  0.455300  0.911200  0.598500  1.0
  O  O2014  1  0.455300  0.088800  0.401500  1.0
  O  O2015  1  0.451900  0.914000  0.888500  1.0
  O  O2016  1  0.451900  0.086000  0.111500  1.0
  O  O2017  1  0.951900  0.414000  0.388500  1.0
  O  O2018  1  0.951900  0.586000  0.611500  1.0
  O  O2019  1  0.548100  0.086000  0.111500  1.0
  O  O2020  1  0.548100  0.914000  0.888500  1.0
  O  O2021  1  0.048100  0.586000  0.611500  1.0
  O  O2022  1  0.048100  0.414000  0.388500  1.0
