
#######################################################################
#
#                 Cambridge Crystallographic Data Centre
#                                CCDC 
#
#######################################################################
#
# If this CIF has been generated from an entry in the Cambridge 
# Structural Database, then it will include bibliographic, chemical, 
# crystal, experimental, refinement or atomic coordinate data resulting 
# from the CCDC's data processing and validation procedures.
#
#######################################################################

data_NACBOL
_chemical_formula_moiety         
'C176 H272 N112 Pd24 48+,4(C12 H8),48(N1 O3 1-),H2 O1'
_chemical_name_systematic        
'octakis(\m-2,4,6-tris(pyrimidin-5-yl)pyrimidine)-tetracosakis(ethylenediamine)-tetracosa-palladium(ii) tetrakis(acenaphthylene) octatetracontakis(nitrate) unknown solvate hydrate'
_symmetry_cell_setting           monoclinic
_symmetry_space_group_name_H-M   'I 2/m'
_symmetry_Int_Tables_number      12
_space_group_name_Hall           '-I 2y'
loop_
_symmetry_equiv_pos_site_id
_symmetry_equiv_pos_as_xyz
1 x,y,z
2 -x,y,-z
3 1/2+x,1/2+y,1/2+z
4 1/2-x,1/2+y,1/2-z
5 -x,-y,-z
6 x,-y,z
7 1/2-x,1/2-y,1/2-z
8 1/2+x,1/2-y,1/2+z
_cell_length_a                   27.068(4)
_cell_length_b                   26.615(3)
_cell_length_c                   30.276(6)
_cell_angle_alpha                90
_cell_angle_beta                 92.9030(10)
_cell_angle_gamma                90
_cell_volume                     21783.3
_exptl_crystal_colour            red
_exptl_crystal_description       block
_cell_formula_units_Z            2
_exptl_crystal_recrystallization_method 'Re-crystallisation from solvent: water'
loop_
_atom_site_label
_atom_site_type_symbol
_atom_site_fract_x
_atom_site_fract_y
_atom_site_fract_z
N2 N 0.2621(4) 1.0000 1.0602(3)
O4 O 0.3069(3) 1.0000 1.0702(3)
O5 O 0.242(2) 1.0000 1.087(2)
O6 O 0.2489(16) 1.0000 1.0272(15)
N3 N 0.2506(3) 0.7429(4) 1.0561(3)
O7 O 0.2212(3) 0.7725(3) 1.0499(2)
O8 O 0.2900(6) 0.7516(6) 1.0782(5)
O9 O 0.2400(10) 0.7004(11) 1.0599(8)
N4 N 0.1122(7) 0.6792(7) 1.2032(6)
O10 O 0.1253(4) 0.6472(4) 1.1715(4)
O11 O 0.1472(6) 0.7152(6) 1.2093(5)
O12 O 0.0737(7) 0.6800(8) 1.2225(7)
O13 O 0.2528(10) 1.1173(10) 1.2698(9)
N5 N 0.0503(4) 0.7429(4) 0.7831(4)
O14 O 0.0441(3) 0.7746(3) 0.8115(2)
O15 O 0.0710(8) 0.7534(8) 0.7507(7)
O16 O 0.0285(7) 0.7014(7) 0.7841(6)
N6 N 0.0000 0.7243(4) 1.0000
O17 O 0.0000 0.6792(4) 1.0000
O18 O 0.0382(6) 0.7463(6) 1.0039(5)
O18A O -0.0382(6) 0.7463(6) 0.9961(5)
N7 N 0.4127(5) 1.0000 1.0897(5)
O19 O 0.4112(6) 0.9553(6) 1.0985(5)
O20 O 0.4187(6) 1.0000 1.0518(5)
O19E O 0.4112(6) 1.0447(6) 1.0985(5)
N8 N 0.0771(8) 0.5000 1.1163(7)
O21 O 0.0389(7) 0.5000 1.1400(6)
O22 O 0.0860(5) 0.5481(5) 1.1115(4)
O22E O 0.0860(5) 0.4519(5) 1.1115(4)
N9 N 0.0714(9) 0.6055(10) 1.2999(9)
O23 O 0.0453(12) 0.6148(16) 1.3323(11)
O24 O 0.1130(7) 0.6232(7) 1.2974(6)
O25 O 0.0557(11) 0.5752(12) 1.2701(10)
O26 O 0.3718(11) 0.8300(11) 0.9416(9)
O27 O 0.2581(13) 0.6944(14) 0.9473(12)
O28 O 0.1840(14) 0.6825(14) 0.8492(12)
C1 C 0.1330(7) 0.9354(6) 0.9806(6)
C2 C 0.1561(7) 0.9796(6) 0.9664(7)
H1 H 0.1807 0.9954 0.9851
C3 C 0.1433(8) 1.0000 0.9252(7)
H2 H 0.1590 1.0303 0.9173
C4 C 0.1097(8) 0.9796(7) 0.8956(7)
H3 H 0.1041 0.9936 0.8669
C5 C 0.0831(7) 0.9363(7) 0.9091(6)
C6 C 0.0496(10) 0.9091(10) 0.8812(8)
H4 H 0.0431 0.9185 0.8512
C7 C 0.0265(7) 0.8682(9) 0.8994(8)
H5 H -0.0004 0.8536 0.8827
C8 C 0.0391(9) 0.8475(8) 0.9387(8)
H6 H 0.0239 0.8173 0.9480
C9 C 0.0762(7) 0.8722(7) 0.9662(6)
C10 C 0.0969(6) 0.9161(6) 0.9499(6)
C11 C 0.1340(9) 0.8998(9) 1.0197(7)
H7 H 0.1550 0.9032 1.0456
C12 C 0.1002(9) 0.8616(9) 1.0123(8)
H8 H 0.0933 0.8346 1.0316
C1E C 0.1330(7) 1.0646(6) 0.9806(6)
C2E C 0.1561(7) 1.0204(6) 0.9664(7)
H1E H 0.1807 1.0046 0.9851
H2E H 0.1590 0.9697 0.9173
C4E C 0.1097(8) 1.0204(7) 0.8956(7)
H3E H 0.1041 1.0064 0.8669
C5E C 0.0831(7) 1.0637(7) 0.9091(6)
C6E C 0.0496(10) 1.0909(10) 0.8812(8)
H4E H 0.0431 1.0815 0.8512
C7E C 0.0265(7) 1.1318(9) 0.8994(8)
H5E H -0.0004 1.1464 0.8827
C8E C 0.0391(9) 1.1525(8) 0.9387(8)
H6E H 0.0239 1.1827 0.9480
C9E C 0.0762(7) 1.1278(7) 0.9662(6)
C10E C 0.0969(6) 1.0839(6) 0.9499(6)
C11E C 0.1340(9) 1.1002(9) 1.0197(7)
H7E H 0.1550 1.0968 1.0456
C12E C 0.1002(9) 1.1384(9) 1.0123(8)
H8E H 0.0933 1.1654 1.0316
O29 O 0.0512(5) 0.7613(6) 1.2798(5)
O30 O 0.2826(8) 0.7564(8) 1.1758(7)
O31 O 0.1960(8) 0.8751(9) 0.6575(7)
O32 O -0.0279(10) 1.1214(10) 0.5990(9)
O33 O 0.2014(13) 1.2208(14) 0.7523(11)
O34 O 0.3393(16) 0.6529(15) 1.0928(15)
O35 O 0.2842(12) 1.1347(13) 0.7836(10)
O36 O 0.0745(13) 0.6243(14) 0.6926(12)
O37 O 0.0368(14) 0.7047(14) 0.5341(11)
O38 O -0.1697(19) 1.0000 0.4826(16)
O39 O -0.0668(7) 0.5679(7) 0.9925(6)
O40 O 0.0000 1.0000 1.0000
Pd1 Pd -0.02937(2) 0.65021(2) 1.12774(2)
Pd2 Pd 0.36791(3) 1.0000 0.94666(3)
Pd3 Pd 0.30387(4) 1.0000 1.20901(4)
Pd4 Pd 0.33839(3) 0.84534(3) 1.07795(2)
Pd5 Pd 0.08115(4) 1.0000 1.32860(4)
Pd6 Pd 0.15237(3) 0.64880(3) 1.03499(3)
Pd7 Pd 0.06714(3) 0.84517(4) 0.70443(3)
Pd8 Pd 0.21566(4) 1.0000 0.73621(5)
N10 N 0.3124(3) 0.8814(3) 1.0217(2)
N11 N 0.3241(2) 0.9445(2) 0.9691(2)
N12 N 0.1741(3) 0.9446(3) 0.7627(3)
N13 N 0.1151(3) 0.8818(3) 0.7490(3)
N14 N 0.1294(3) 0.6871(3) 0.9784(2)
N15 N 0.0780(2) 0.6886(3) 0.9141(2)
N16 N 0.2053(2) 0.8866(3) 0.8900(3)
N17 N 0.1451(3) 0.8234(3) 0.8755(3)
N18 N 0.2759(3) 0.9441(2) 1.1686(2)
N19 N 0.2896(3) 0.8810(3) 1.1161(2)
N20 N 0.0310(3) 0.6892(2) 1.1088(2)
N21 N 0.1050(3) 0.6881(3) 1.0726(2)
N22 N -0.0058(3) 0.8824(3) 1.2737(3)
N23 N 0.0530(3) 0.9446(3) 1.2882(3)
N24 N 0.0743(3) 0.8238(3) 1.1722(3)
N25 N 0.1346(3) 0.8876(3) 1.1858(3)
C13 C 0.3363(3) 0.9208(3) 1.0069(3)
H9 H 0.3639 0.9331 1.0243
C14 C 0.2729(3) 0.8637(3) 0.9975(3)
H10 H 0.2552 0.8356 1.0078
C15 C 0.2577(3) 0.8863(3) 0.9575(3)
C16 C 0.2849(3) 0.9262(3) 0.9441(3)
H11 H 0.2762 0.9417 0.9165
C17 C 0.1400(3) 0.9204(4) 0.7360(4)
H12 H 0.1340 0.9322 0.7066
C18 C 0.1831(3) 0.9267(3) 0.8033(3)
H13 H 0.2070 0.9430 0.8224
C19 C 0.1584(3) 0.8849(3) 0.8185(3)
C20 C 0.1233(3) 0.8636(3) 0.7896(3)
H14 H 0.1047 0.8355 0.7989
C21 C 0.0935(3) 0.6670(4) 0.9518(3)
H15 H 0.0787 0.6363 0.9603
C22 C 0.0982(3) 0.7323(3) 0.9021(3)
H16 H 0.0880 0.7473 0.8747
C23 C 0.1495(3) 0.7320(4) 0.9677(3)
H17 H 0.1746 0.7467 0.9866
C24 C 0.1337(3) 0.7557(3) 0.9297(3)
C25 C 0.1694(3) 0.8655(3) 0.8635(3)
C26 C 0.2166(3) 0.8652(3) 0.9288(3)
C27 C 0.1934(3) 0.8235(3) 0.9437(3)
H18 H 0.2017 0.8096 0.9720
C28 C 0.1577(3) 0.8027(3) 0.9162(3)
C29 C 0.3035(3) 0.9225(3) 1.1399(3)
H19 H 0.3350 0.9366 1.1354
C30 C 0.2441(3) 0.8645(3) 1.1199(3)
H20 H 0.2330 0.8368 1.1023
C31 C 0.2117(3) 0.8862(3) 1.1488(3)
C32 C 0.2299(3) 0.9278(3) 1.1729(3)
H21 H 0.2091 0.9446 1.1926
C33 C 0.0626(3) 0.6686(3) 1.0818(3)
H22 H 0.0535 0.6375 1.0683
C34 C 0.0434(3) 0.7336(3) 1.1277(3)
H23 H 0.0215 0.7491 1.1471
C35 C 0.0882(3) 0.7572(3) 1.1191(3)
C36 C 0.1174(3) 0.7324(4) 1.0907(3)
H24 H 0.1479 0.7474 1.0836
C37 C 0.0118(4) 0.9228(4) 1.2975(3)
H25 H -0.0064 0.9352 1.3212
C38 C 0.0782(3) 0.9275(3) 1.2534(3)
H26 H 0.1081 0.9437 1.2463
C39 C 0.0614(3) 0.8872(3) 1.2282(3)
C40 C 0.0168(3) 0.8664(4) 1.2401(3)
H27 H 0.0026 0.8397 1.2229
C41 C 0.0902(3) 0.8660(3) 1.1936(3)
C42 C 0.1625(3) 0.8668(3) 1.1549(3)
C43 C 0.1476(3) 0.8239(3) 1.1321(2)
H28 H 0.1678 0.8089 1.1110
C44 C 0.1029(3) 0.8044(3) 1.1411(3)
N26 N 0.0142(3) 0.6097(3) 1.1697(3)
H29 H 0.0343 0.5897 1.1543
H30 H 0.0335 0.6306 1.1870
N27 N -0.0836(3) 0.6084(3) 1.1505(3)
H31 H -0.1030 0.6278 1.1673
H32 H -0.1028 0.5964 1.1273
C45 C -0.0171(5) 0.5781(5) 1.1982(4)
H33 H 0.0007 0.5465 1.2058
H34 H -0.0224 0.5962 1.2261
C46 C -0.0641(5) 0.5661(5) 1.1770(5)
H35 H -0.0877 0.5575 1.1997
H36 H -0.0606 0.5365 1.1577
N28 N 0.4152(3) 1.0500(3) 0.9212(3)
H37 H 0.3980 1.0715 0.9028
H38 H 0.4300 1.0683 0.9435
C47 C 0.4516(8) 1.0254(3) 0.8976(7)
H39 H 0.4483 1.0368 0.8665
H40 H 0.4844 1.0368 0.9097
N29 N 0.3329(4) 1.0508(3) 1.2517(4)
H41 H 0.3568 1.0687 1.2386
H42 H 0.3090 1.0726 1.2595
C48 C 0.3541(9) 1.0256(5) 1.2908(6)
H43 H 0.3888 1.0370 1.2956
H44 H 0.3359 1.0370 1.3166
N30 N 0.3670(4) 0.8073(4) 1.1296(3)
H45 H 0.3762 0.8290 1.1517
H46 H 0.3437 0.7862 1.1399
N31 N 0.3893(4) 0.8070(5) 1.0440(3)
H47 H 0.3744 0.7915 1.0201
H48 H 0.4127 0.8284 1.0345
C49 C 0.4109(9) 0.7774(12) 1.1168(8)
H49 H 0.4410 0.7963 1.1264
H50 H 0.4113 0.7456 1.1337
C50 C 0.4137(7) 0.7668(7) 1.0766(6)
H51 H 0.3976 0.7340 1.0708
H52 H 0.4491 0.7632 1.0701
N32 N 0.1106(4) 1.0512(4) 1.3710(4)
H53 H 0.1350 1.0685 1.3582
H54 H 0.0870 1.0733 1.3788
C51 C 0.1309(10) 1.0236(6) 1.4106(6)
H55 H 0.1655 1.0347 1.4162
H56 H 0.1122 1.0347 1.4361
N33 N 0.1785(4) 0.6090(4) 1.0887(4)
H57 H 0.1925 0.6301 1.1095
H58 H 0.1535 0.5920 1.1009
N34 N 0.2023(4) 0.6075(5) 1.0016(4)
H59 H 0.1860 0.5904 0.9792
H60 H 0.2242 0.6287 0.9894
C52 C 0.2157(8) 0.5738(8) 1.0730(7)
H61 H 0.2466 0.5796 1.0912
H62 H 0.2043 0.5395 1.0801
C53 C 0.2283(7) 0.5731(7) 1.0295(8)
H63 H 0.2225 0.5388 1.0176
H64 H 0.2641 0.5802 1.0285
N35 N 0.1212(5) 0.8060(6) 0.6799(5)
H65 H 0.1430 0.8273 0.6678
H66 H 0.1376 0.7888 0.7021
N36 N 0.0265(4) 0.8061(5) 0.6614(4)
H67 H 0.0018 0.7909 0.6757
H68 H 0.0121 0.8277 0.6412
C54 C 0.1030(7) 0.7715(8) 0.6471(7)
H69 H 0.1186 0.7800 0.6192
H70 H 0.1150 0.7376 0.6560
C55 C 0.0532(8) 0.7682(11) 0.6381(8)
H71 H 0.0415 0.7345 0.6467
H72 H 0.0461 0.7721 0.6059
N37 N 0.2594(4) 1.0507(5) 0.7083(4)
H73 H 0.2408 1.0709 0.6898
H74 H 0.2742 1.0704 0.7298
C56 C 0.2953(8) 1.0269(9) 0.6848(8)
H75 H 0.3281 1.0384 0.6967
H76 H 0.2916 1.0384 0.6537
N28E N 0.4152(3) 0.9500(3) 0.9212(3)
H37E H 0.3980 0.9285 0.9028
H38E H 0.4300 0.9317 0.9435
C47E C 0.4516(8) 0.9746(3) 0.8976(7)
H39E H 0.4483 0.9632 0.8665
H40E H 0.4844 0.9632 0.9097
N29E N 0.3329(4) 0.9492(3) 1.2517(4)
H41E H 0.3568 0.9313 1.2386
H42E H 0.3090 0.9274 1.2595
C48E C 0.3541(9) 0.9744(5) 1.2908(6)
H43E H 0.3888 0.9630 1.2956
H44E H 0.3359 0.9630 1.3166
N32E N 0.1106(4) 0.9488(4) 1.3710(4)
H53E H 0.1350 0.9315 1.3582
H54E H 0.0870 0.9267 1.3788
C51E C 0.1309(10) 0.9764(6) 1.4106(6)
H55E H 0.1655 0.9653 1.4162
H56E H 0.1122 0.9653 1.4361
N37E N 0.2594(4) 0.9493(5) 0.7083(4)
H73E H 0.2408 0.9291 0.6898
H74E H 0.2742 0.9296 0.7298
C56E C 0.2953(8) 0.9731(9) 0.6848(8)
H75E H 0.3281 0.9616 0.6967
H76E H 0.2916 0.9616 0.6537
Pd1A Pd 0.02937(2) 0.65021(2) 0.87226(2)
Pd2A Pd -0.36791(3) 1.0000 1.05334(3)
Pd3A Pd -0.30387(4) 1.0000 0.79099(4)
Pd4A Pd -0.33839(3) 0.84534(3) 0.92205(2)
Pd5A Pd -0.08115(4) 1.0000 0.67140(4)
Pd6A Pd -0.15237(3) 0.64880(3) 0.96501(3)
Pd7A Pd -0.06714(3) 0.84517(4) 1.29557(3)
Pd8A Pd -0.21566(4) 1.0000 1.26379(5)
N10A N -0.3124(3) 0.8814(3) 0.9783(2)
N11A N -0.3241(2) 0.9445(2) 1.0309(2)
N12A N -0.1741(3) 0.9446(3) 1.2373(3)
N13A N -0.1151(3) 0.8818(3) 1.2510(3)
N14A N -0.1294(3) 0.6871(3) 1.0216(2)
N15A N -0.0780(2) 0.6886(3) 1.0859(2)
N16A N -0.2053(2) 0.8866(3) 1.1100(3)
N17A N -0.1451(3) 0.8234(3) 1.1245(3)
N18A N -0.2759(3) 0.9441(2) 0.8314(2)
N19A N -0.2896(3) 0.8810(3) 0.8839(2)
N20A N -0.0310(3) 0.6892(2) 0.8912(2)
N21A N -0.1050(3) 0.6881(3) 0.9274(2)
N22A N 0.0058(3) 0.8824(3) 0.7263(3)
N23A N -0.0530(3) 0.9446(3) 0.7118(3)
N24A N -0.0743(3) 0.8238(3) 0.8278(3)
N25A N -0.1346(3) 0.8876(3) 0.8142(3)
C13A C -0.3363(3) 0.9208(3) 0.9931(3)
H9A H -0.3639 0.9331 0.9757
C14A C -0.2729(3) 0.8637(3) 1.0025(3)
H10A H -0.2552 0.8356 0.9922
C15A C -0.2577(3) 0.8863(3) 1.0425(3)
C16A C -0.2849(3) 0.9262(3) 1.0559(3)
H11A H -0.2762 0.9417 1.0835
C17A C -0.1400(3) 0.9204(4) 1.2640(4)
H12A H -0.1340 0.9322 1.2934
C18A C -0.1831(3) 0.9267(3) 1.1967(3)
H13A H -0.2070 0.9430 1.1776
C19A C -0.1584(3) 0.8849(3) 1.1815(3)
C20A C -0.1233(3) 0.8636(3) 1.2104(3)
H14A H -0.1047 0.8355 1.2011
C21A C -0.0935(3) 0.6670(4) 1.0482(3)
H15A H -0.0787 0.6363 1.0397
C22A C -0.0982(3) 0.7323(3) 1.0979(3)
H16A H -0.0880 0.7473 1.1253
C23A C -0.1495(3) 0.7320(4) 1.0323(3)
H17A H -0.1746 0.7467 1.0134
C24A C -0.1337(3) 0.7557(3) 1.0703(3)
C25A C -0.1694(3) 0.8655(3) 1.1365(3)
C26A C -0.2166(3) 0.8652(3) 1.0712(3)
C27A C -0.1934(3) 0.8235(3) 1.0563(3)
H18A H -0.2017 0.8096 1.0280
C28A C -0.1577(3) 0.8027(3) 1.0838(3)
C29A C -0.3035(3) 0.9225(3) 0.8601(3)
H19A H -0.3350 0.9366 0.8646
C30A C -0.2441(3) 0.8645(3) 0.8801(3)
H20A H -0.2330 0.8368 0.8977
C31A C -0.2117(3) 0.8862(3) 0.8512(3)
C32A C -0.2299(3) 0.9278(3) 0.8271(3)
H21A H -0.2091 0.9446 0.8074
C33A C -0.0626(3) 0.6686(3) 0.9182(3)
H22A H -0.0535 0.6375 0.9317
C34A C -0.0434(3) 0.7336(3) 0.8723(3)
H23A H -0.0215 0.7491 0.8529
C35A C -0.0882(3) 0.7572(3) 0.8809(3)
C36A C -0.1174(3) 0.7324(4) 0.9093(3)
H24A H -0.1479 0.7474 0.9164
C37A C -0.0118(4) 0.9228(4) 0.7025(3)
H25A H 0.0064 0.9352 0.6788
C38A C -0.0782(3) 0.9275(3) 0.7466(3)
H26A H -0.1081 0.9437 0.7537
C39A C -0.0614(3) 0.8872(3) 0.7718(3)
C40A C -0.0168(3) 0.8664(4) 0.7599(3)
H27A H -0.0026 0.8397 0.7771
C41A C -0.0902(3) 0.8660(3) 0.8064(3)
C42A C -0.1625(3) 0.8668(3) 0.8451(3)
C43A C -0.1476(3) 0.8239(3) 0.8679(2)
H28A H -0.1678 0.8089 0.8890
C44A C -0.1029(3) 0.8044(3) 0.8589(3)
N26A N -0.0142(3) 0.6097(3) 0.8303(3)
H29A H -0.0343 0.5897 0.8457
H30A H -0.0335 0.6306 0.8130
N27A N 0.0836(3) 0.6084(3) 0.8495(3)
H31A H 0.1030 0.6278 0.8327
H32A H 0.1028 0.5964 0.8727
C45A C 0.0171(5) 0.5781(5) 0.8018(4)
H33A H -0.0007 0.5465 0.7942
H34A H 0.0224 0.5962 0.7739
C46A C 0.0641(5) 0.5661(5) 0.8230(5)
H35A H 0.0877 0.5575 0.8003
H36A H 0.0606 0.5365 0.8423
N28A N -0.4152(3) 1.0500(3) 1.0788(3)
H37A H -0.3980 1.0715 1.0972
H38A H -0.4300 1.0683 1.0565
C47A C -0.4516(8) 1.0254(3) 1.1024(7)
H39A H -0.4483 1.0368 1.1335
H40A H -0.4844 1.0368 1.0903
N29A N -0.3329(4) 1.0508(3) 0.7483(4)
H41A H -0.3568 1.0687 0.7614
H42A H -0.3090 1.0726 0.7405
C48A C -0.3541(9) 1.0256(5) 0.7092(6)
H43A H -0.3888 1.0370 0.7044
H44A H -0.3359 1.0370 0.6834
N30A N -0.3670(4) 0.8073(4) 0.8704(3)
H45A H -0.3762 0.8290 0.8483
H46A H -0.3437 0.7862 0.8601
N31A N -0.3893(4) 0.8070(5) 0.9560(3)
H47A H -0.3744 0.7915 0.9799
H48A H -0.4127 0.8284 0.9655
C49A C -0.4109(9) 0.7774(12) 0.8832(8)
H49A H -0.4410 0.7963 0.8736
H50A H -0.4113 0.7456 0.8663
C50A C -0.4137(7) 0.7668(7) 0.9234(6)
H51A H -0.3976 0.7340 0.9292
H52A H -0.4491 0.7632 0.9299
N32A N -0.1106(4) 1.0512(4) 0.6290(4)
H53A H -0.1350 1.0685 0.6418
H54A H -0.0870 1.0733 0.6212
C51A C -0.1309(10) 1.0236(6) 0.5894(6)
H55A H -0.1655 1.0347 0.5838
H56A H -0.1122 1.0347 0.5639
N33A N -0.1785(4) 0.6090(4) 0.9113(4)
H57A H -0.1925 0.6301 0.8905
H58A H -0.1535 0.5920 0.8991
N34A N -0.2023(4) 0.6075(5) 0.9984(4)
H59A H -0.1860 0.5904 1.0208
H60A H -0.2242 0.6287 1.0106
C52A C -0.2157(8) 0.5738(8) 0.9270(7)
H61A H -0.2466 0.5796 0.9088
H62A H -0.2043 0.5395 0.9199
C53A C -0.2283(7) 0.5731(7) 0.9705(8)
H63A H -0.2225 0.5388 0.9824
H64A H -0.2641 0.5802 0.9715
N35A N -0.1212(5) 0.8060(6) 1.3201(5)
H65A H -0.1430 0.8273 1.3322
H66A H -0.1376 0.7888 1.2979
N36A N -0.0265(4) 0.8061(5) 1.3386(4)
H67A H -0.0018 0.7909 1.3243
H68A H -0.0121 0.8277 1.3588
C54A C -0.1030(7) 0.7715(8) 1.3529(7)
H69A H -0.1186 0.7800 1.3808
H70A H -0.1150 0.7376 1.3440
C55A C -0.0532(8) 0.7682(11) 1.3619(8)
H71A H -0.0415 0.7345 1.3533
H72A H -0.0461 0.7721 1.3941
N37A N -0.2594(4) 1.0507(5) 1.2917(4)
H73A H -0.2408 1.0709 1.3102
H74A H -0.2742 1.0704 1.2702
C56A C -0.2953(8) 1.0269(9) 1.3152(8)
H75A H -0.3281 1.0384 1.3033
H76A H -0.2916 1.0384 1.3463
N28D N -0.4152(3) 0.9500(3) 1.0788(3)
H37D H -0.3980 0.9285 1.0972
H38D H -0.4300 0.9317 1.0565
C47D C -0.4516(8) 0.9746(3) 1.1024(7)
H39D H -0.4483 0.9632 1.1335
H40D H -0.4844 0.9632 1.0903
N29D N -0.3329(4) 0.9492(3) 0.7483(4)
H41D H -0.3568 0.9313 0.7614
H42D H -0.3090 0.9274 0.7405
C48D C -0.3541(9) 0.9744(5) 0.7092(6)
H43D H -0.3888 0.9630 0.7044
H44D H -0.3359 0.9630 0.6834
N32D N -0.1106(4) 0.9488(4) 0.6290(4)
H53D H -0.1350 0.9315 0.6418
H54D H -0.0870 0.9267 0.6212
C51D C -0.1309(10) 0.9764(6) 0.5894(6)
H55D H -0.1655 0.9653 0.5838
H56D H -0.1122 0.9653 0.5639
N37D N -0.2594(4) 0.9493(5) 1.2917(4)
H73D H -0.2408 0.9291 1.3102
H74D H -0.2742 0.9296 1.2702
C56D C -0.2953(8) 0.9731(9) 1.3152(8)
H75D H -0.3281 0.9616 1.3033
H76D H -0.2916 0.9616 1.3463
Pd1D Pd 0.02937(2) 1.34979(2) 0.87226(2)
Pd4D Pd -0.33839(3) 1.15466(3) 0.92205(2)
Pd6D Pd -0.15237(3) 1.35120(3) 0.96501(3)
Pd7D Pd -0.06714(3) 1.15483(4) 1.29557(3)
N10D N -0.3124(3) 1.1186(3) 0.9783(2)
N11D N -0.3241(2) 1.0555(2) 1.0309(2)
N12D N -0.1741(3) 1.0554(3) 1.2373(3)
N13D N -0.1151(3) 1.1182(3) 1.2510(3)
N14D N -0.1294(3) 1.3129(3) 1.0216(2)
N15D N -0.0780(2) 1.3114(3) 1.0859(2)
N16D N -0.2053(2) 1.1134(3) 1.1100(3)
N17D N -0.1451(3) 1.1766(3) 1.1245(3)
N18D N -0.2759(3) 1.0559(2) 0.8314(2)
N19D N -0.2896(3) 1.1190(3) 0.8839(2)
N20D N -0.0310(3) 1.3108(2) 0.8912(2)
N21D N -0.1050(3) 1.3119(3) 0.9274(2)
N22D N 0.0058(3) 1.1176(3) 0.7263(3)
N23D N -0.0530(3) 1.0554(3) 0.7118(3)
N24D N -0.0743(3) 1.1762(3) 0.8278(3)
N25D N -0.1346(3) 1.1124(3) 0.8142(3)
C13D C -0.3363(3) 1.0792(3) 0.9931(3)
H9D H -0.3639 1.0669 0.9757
C14D C -0.2729(3) 1.1363(3) 1.0025(3)
H10D H -0.2552 1.1644 0.9922
C15D C -0.2577(3) 1.1137(3) 1.0425(3)
C16D C -0.2849(3) 1.0738(3) 1.0559(3)
H11D H -0.2762 1.0583 1.0835
C17D C -0.1400(3) 1.0796(4) 1.2640(4)
H12D H -0.1340 1.0678 1.2934
C18D C -0.1831(3) 1.0733(3) 1.1967(3)
H13D H -0.2070 1.0570 1.1776
C19D C -0.1584(3) 1.1151(3) 1.1815(3)
C20D C -0.1233(3) 1.1364(3) 1.2104(3)
H14D H -0.1047 1.1645 1.2011
C21D C -0.0935(3) 1.3330(4) 1.0482(3)
H15D H -0.0787 1.3637 1.0397
C22D C -0.0982(3) 1.2677(3) 1.0979(3)
H16D H -0.0880 1.2527 1.1253
C23D C -0.1495(3) 1.2680(4) 1.0323(3)
H17D H -0.1746 1.2533 1.0134
C24D C -0.1337(3) 1.2443(3) 1.0703(3)
C25D C -0.1694(3) 1.1345(3) 1.1365(3)
C26D C -0.2166(3) 1.1348(3) 1.0712(3)
C27D C -0.1934(3) 1.1765(3) 1.0563(3)
H18D H -0.2017 1.1904 1.0280
C28D C -0.1577(3) 1.1973(3) 1.0838(3)
C29D C -0.3035(3) 1.0775(3) 0.8601(3)
H19D H -0.3350 1.0634 0.8646
C30D C -0.2441(3) 1.1355(3) 0.8801(3)
H20D H -0.2330 1.1632 0.8977
C31D C -0.2117(3) 1.1138(3) 0.8512(3)
C32D C -0.2299(3) 1.0722(3) 0.8271(3)
H21D H -0.2091 1.0554 0.8074
C33D C -0.0626(3) 1.3314(3) 0.9182(3)
H22D H -0.0535 1.3625 0.9317
C34D C -0.0434(3) 1.2664(3) 0.8723(3)
H23D H -0.0215 1.2509 0.8529
C35D C -0.0882(3) 1.2428(3) 0.8809(3)
C36D C -0.1174(3) 1.2676(4) 0.9093(3)
H24D H -0.1479 1.2526 0.9164
C37D C -0.0118(4) 1.0772(4) 0.7025(3)
H25D H 0.0064 1.0648 0.6788
C38D C -0.0782(3) 1.0725(3) 0.7466(3)
H26D H -0.1081 1.0563 0.7537
C39D C -0.0614(3) 1.1128(3) 0.7718(3)
C40D C -0.0168(3) 1.1336(4) 0.7599(3)
H27D H -0.0026 1.1603 0.7771
C41D C -0.0902(3) 1.1340(3) 0.8064(3)
C42D C -0.1625(3) 1.1332(3) 0.8451(3)
C43D C -0.1476(3) 1.1761(3) 0.8679(2)
H28D H -0.1678 1.1911 0.8890
C44D C -0.1029(3) 1.1956(3) 0.8589(3)
N26D N -0.0142(3) 1.3903(3) 0.8303(3)
H29D H -0.0343 1.4103 0.8457
H30D H -0.0335 1.3694 0.8130
N27D N 0.0836(3) 1.3916(3) 0.8495(3)
H31D H 0.1030 1.3722 0.8327
H32D H 0.1028 1.4036 0.8727
C45D C 0.0171(5) 1.4219(5) 0.8018(4)
H33D H -0.0007 1.4535 0.7942
H34D H 0.0224 1.4038 0.7739
C46D C 0.0641(5) 1.4339(5) 0.8230(5)
H35D H 0.0877 1.4425 0.8003
H36D H 0.0606 1.4635 0.8423
N30D N -0.3670(4) 1.1927(4) 0.8704(3)
H45D H -0.3762 1.1710 0.8483
H46D H -0.3437 1.2138 0.8601
N31D N -0.3893(4) 1.1930(5) 0.9560(3)
H47D H -0.3744 1.2085 0.9799
H48D H -0.4127 1.1716 0.9655
C49D C -0.4109(9) 1.2226(12) 0.8832(8)
H49D H -0.4410 1.2037 0.8736
H50D H -0.4113 1.2544 0.8663
C50D C -0.4137(7) 1.2332(7) 0.9234(6)
H51D H -0.3976 1.2660 0.9292
H52D H -0.4491 1.2368 0.9299
N33D N -0.1785(4) 1.3910(4) 0.9113(4)
H57D H -0.1925 1.3699 0.8905
H58D H -0.1535 1.4080 0.8991
N34D N -0.2023(4) 1.3925(5) 0.9984(4)
H59D H -0.1860 1.4096 1.0208
H60D H -0.2242 1.3713 1.0106
C52D C -0.2157(8) 1.4262(8) 0.9270(7)
H61D H -0.2466 1.4204 0.9088
H62D H -0.2043 1.4605 0.9199
C53D C -0.2283(7) 1.4269(7) 0.9705(8)
H63D H -0.2225 1.4612 0.9824
H64D H -0.2641 1.4198 0.9715
N35D N -0.1212(5) 1.1940(6) 1.3201(5)
H65D H -0.1430 1.1727 1.3322
H66D H -0.1376 1.2112 1.2979
N36D N -0.0265(4) 1.1939(5) 1.3386(4)
H67D H -0.0018 1.2091 1.3243
H68D H -0.0121 1.1723 1.3588
C54D C -0.1030(7) 1.2285(8) 1.3529(7)
H69D H -0.1186 1.2200 1.3808
H70D H -0.1150 1.2624 1.3440
C55D C -0.0532(8) 1.2318(11) 1.3619(8)
H71D H -0.0415 1.2655 1.3533
H72D H -0.0461 1.2279 1.3941
Pd1E Pd -0.02937(2) 1.34979(2) 1.12774(2)
Pd4E Pd 0.33839(3) 1.15466(3) 1.07795(2)
Pd6E Pd 0.15237(3) 1.35120(3) 1.03499(3)
Pd7E Pd 0.06714(3) 1.15483(4) 0.70443(3)
N10E N 0.3124(3) 1.1186(3) 1.0217(2)
N11E N 0.3241(2) 1.0555(2) 0.9691(2)
N12E N 0.1741(3) 1.0554(3) 0.7627(3)
N13E N 0.1151(3) 1.1182(3) 0.7490(3)
N14E N 0.1294(3) 1.3129(3) 0.9784(2)
N15E N 0.0780(2) 1.3114(3) 0.9141(2)
N16E N 0.2053(2) 1.1134(3) 0.8900(3)
N17E N 0.1451(3) 1.1766(3) 0.8755(3)
N18E N 0.2759(3) 1.0559(2) 1.1686(2)
N19E N 0.2896(3) 1.1190(3) 1.1161(2)
N20E N 0.0310(3) 1.3108(2) 1.1088(2)
N21E N 0.1050(3) 1.3119(3) 1.0726(2)
N22E N -0.0058(3) 1.1176(3) 1.2737(3)
N23E N 0.0530(3) 1.0554(3) 1.2882(3)
N24E N 0.0743(3) 1.1762(3) 1.1722(3)
N25E N 0.1346(3) 1.1124(3) 1.1858(3)
C13E C 0.3363(3) 1.0792(3) 1.0069(3)
H9E H 0.3639 1.0669 1.0243
C14E C 0.2729(3) 1.1363(3) 0.9975(3)
H10E H 0.2552 1.1644 1.0078
C15E C 0.2577(3) 1.1137(3) 0.9575(3)
C16E C 0.2849(3) 1.0738(3) 0.9441(3)
H11E H 0.2762 1.0583 0.9165
C17E C 0.1400(3) 1.0796(4) 0.7360(4)
H12E H 0.1340 1.0678 0.7066
C18E C 0.1831(3) 1.0733(3) 0.8033(3)
H13E H 0.2070 1.0570 0.8224
C19E C 0.1584(3) 1.1151(3) 0.8185(3)
C20E C 0.1233(3) 1.1364(3) 0.7896(3)
H14E H 0.1047 1.1645 0.7989
C21E C 0.0935(3) 1.3330(4) 0.9518(3)
H15E H 0.0787 1.3637 0.9603
C22E C 0.0982(3) 1.2677(3) 0.9021(3)
H16E H 0.0880 1.2527 0.8747
C23E C 0.1495(3) 1.2680(4) 0.9677(3)
H17E H 0.1746 1.2533 0.9866
C24E C 0.1337(3) 1.2443(3) 0.9297(3)
C25E C 0.1694(3) 1.1345(3) 0.8635(3)
C26E C 0.2166(3) 1.1348(3) 0.9288(3)
C27E C 0.1934(3) 1.1765(3) 0.9437(3)
H18E H 0.2017 1.1904 0.9720
C28E C 0.1577(3) 1.1973(3) 0.9162(3)
C29E C 0.3035(3) 1.0775(3) 1.1399(3)
H19E H 0.3350 1.0634 1.1354
C30E C 0.2441(3) 1.1355(3) 1.1199(3)
H20E H 0.2330 1.1632 1.1023
C31E C 0.2117(3) 1.1138(3) 1.1488(3)
C32E C 0.2299(3) 1.0722(3) 1.1729(3)
H21E H 0.2091 1.0554 1.1926
C33E C 0.0626(3) 1.3314(3) 1.0818(3)
H22E H 0.0535 1.3625 1.0683
C34E C 0.0434(3) 1.2664(3) 1.1277(3)
H23E H 0.0215 1.2509 1.1471
C35E C 0.0882(3) 1.2428(3) 1.1191(3)
C36E C 0.1174(3) 1.2676(4) 1.0907(3)
H24E H 0.1479 1.2526 1.0836
C37E C 0.0118(4) 1.0772(4) 1.2975(3)
H25E H -0.0064 1.0648 1.3212
C38E C 0.0782(3) 1.0725(3) 1.2534(3)
H26E H 0.1081 1.0563 1.2463
C39E C 0.0614(3) 1.1128(3) 1.2282(3)
C40E C 0.0168(3) 1.1336(4) 1.2401(3)
H27E H 0.0026 1.1603 1.2229
C41E C 0.0902(3) 1.1340(3) 1.1936(3)
C42E C 0.1625(3) 1.1332(3) 1.1549(3)
C43E C 0.1476(3) 1.1761(3) 1.1321(2)
H28E H 0.1678 1.1911 1.1110
C44E C 0.1029(3) 1.1956(3) 1.1411(3)
N26E N 0.0142(3) 1.3903(3) 1.1697(3)
H29E H 0.0343 1.4103 1.1543
H30E H 0.0335 1.3694 1.1870
N27E N -0.0836(3) 1.3916(3) 1.1505(3)
H31E H -0.1030 1.3722 1.1673
H32E H -0.1028 1.4036 1.1273
C45E C -0.0171(5) 1.4219(5) 1.1982(4)
H33E H 0.0007 1.4535 1.2058
H34E H -0.0224 1.4038 1.2261
C46E C -0.0641(5) 1.4339(5) 1.1770(5)
H35E H -0.0877 1.4425 1.1997
H36E H -0.0606 1.4635 1.1577
N30E N 0.3670(4) 1.1927(4) 1.1296(3)
H45E H 0.3762 1.1710 1.1517
H46E H 0.3437 1.2138 1.1399
N31E N 0.3893(4) 1.1930(5) 1.0440(3)
H47E H 0.3744 1.2085 1.0201
H48E H 0.4127 1.1716 1.0345
C49E C 0.4109(9) 1.2226(12) 1.1168(8)
H49E H 0.4410 1.2037 1.1264
H50E H 0.4113 1.2544 1.1337
C50E C 0.4137(7) 1.2332(7) 1.0766(6)
H51E H 0.3976 1.2660 1.0708
H52E H 0.4491 1.2368 1.0701
N33E N 0.1785(4) 1.3910(4) 1.0887(4)
H57E H 0.1925 1.3699 1.1095
H58E H 0.1535 1.4080 1.1009
N34E N 0.2023(4) 1.3925(5) 1.0016(4)
H59E H 0.1860 1.4096 0.9792
H60E H 0.2242 1.3713 0.9894
C52E C 0.2157(8) 1.4262(8) 1.0730(7)
H61E H 0.2466 1.4204 1.0912
H62E H 0.2043 1.4605 1.0801
C53E C 0.2283(7) 1.4269(7) 1.0295(8)
H63E H 0.2225 1.4612 1.0176
H64E H 0.2641 1.4198 1.0285
N35E N 0.1212(5) 1.1940(6) 0.6799(5)
H65E H 0.1430 1.1727 0.6678
H66E H 0.1376 1.2112 0.7021
N36E N 0.0265(4) 1.1939(5) 0.6614(4)
H67E H 0.0018 1.2091 0.6757
H68E H 0.0121 1.1723 0.6412
C54E C 0.1030(7) 1.2285(8) 0.6471(7)
H69E H 0.1186 1.2200 0.6192
H70E H 0.1150 1.2624 0.6560
C55E C 0.0532(8) 1.2318(11) 0.6381(8)
H71E H 0.0415 1.2655 0.6467
H72E H 0.0461 1.2279 0.6059
N38 N 0.0533(4) 1.0000 0.7706(3)
O41 O 0.0618(4) 1.0000 0.7315(4)
O42 O 0.0130(12) 1.0000 0.7767(9)
O43 O 0.0922(13) 1.0000 0.7923(10)
O44 O 0.5000 1.0657(10) 1.0000
O45 O 0.1769(6) 1.0000 1.2430(5)
O46 O 0.2084(14) 1.0000 1.3101(14)
N1 N 0.2975(5) 1.0000 0.8378(4)
O1 O 0.2926(9) 1.0000 0.7949(8)
O2 O 0.2621(3) 1.0000 0.8600(3)
O3 O 0.3409(14) 1.0000 0.8586(12)
loop_
_geom_bond_atom_site_label_1
_geom_bond_atom_site_label_2
_geom_bond_site_symmetry_1
_geom_bond_site_symmetry_2
N1 O1 1_555 1_555
O2 N1 1_555 1_555
O3 N1 1_555 1_555
N2 O4 1_555 1_555
O5 N2 1_555 1_555
O6 N2 1_555 1_555
N3 O7 1_555 1_555
O8 N3 1_555 1_555
O9 N3 1_555 1_555
N4 O10 1_555 1_555
O11 N4 1_555 1_555
O12 N4 1_555 1_555
N5 O14 1_555 1_555
O15 N5 1_555 1_555
O16 N5 1_555 1_555
N6 O17 1_555 1_555
O18 N6 1_555 1_555
N7 O19 1_555 1_555
O20 N7 1_555 1_555
N8 O21 1_555 1_555
O22 N8 1_555 1_555
N9 O23 1_555 1_555
O24 N9 1_555 1_555
O25 N9 1_555 1_555
C1 C2 1_555 1_555
C2 H1 1_555 1_555
H1 C2E 1_555 1_555
C3 C2 1_555 1_555
H2 C3 1_555 1_555
C4 C3 1_555 1_555
H3 C4 1_555 1_555
C5 C4 1_555 1_555
C6 C5 1_555 1_555
H4 C6 1_555 1_555
C7 C6 1_555 1_555
H5 C7 1_555 1_555
C8 C7 1_555 1_555
H6 C8 1_555 1_555
C9 C8 1_555 1_555
C10 C1 1_555 1_555
C11 C1 1_555 1_555
H7 C11 1_555 1_555
C12 C9 1_555 1_555
H8 C12 1_555 1_555
Pd1 N20 1_555 1_555
Pd2 N11 1_555 1_555
Pd3 N18 1_555 1_555
Pd4 N10 1_555 1_555
Pd5 N23 1_555 1_555
Pd6 N14 1_555 1_555
Pd7 N13 1_555 1_555
Pd8 N12 1_555 1_555
N10 C13 1_555 1_555
N11 C13 1_555 1_555
N12 C17 1_555 1_555
N13 C17 1_555 1_555
N14 C21 1_555 1_555
N15 C21 1_555 1_555
N16 C25 1_555 1_555
N17 C25 1_555 1_555
N18 C29 1_555 1_555
N19 Pd4 1_555 1_555
N20 C33 1_555 1_555
N21 Pd6 1_555 1_555
N22 C37 1_555 1_555
N23 C37 1_555 1_555
N24 C41 1_555 1_555
N25 C41 1_555 1_555
C13 H9 1_555 1_555
C14 N10 1_555 1_555
H10 C14 1_555 1_555
C15 C14 1_555 1_555
C16 N11 1_555 1_555
H11 C16 1_555 1_555
C17 H12 1_555 1_555
C18 N12 1_555 1_555
H13 C18 1_555 1_555
C19 C18 1_555 1_555
C20 N13 1_555 1_555
H14 C20 1_555 1_555
C21 H15 1_555 1_555
C22 N15 1_555 1_555
H16 C22 1_555 1_555
C23 N14 1_555 1_555
H17 C23 1_555 1_555
C24 C22 1_555 1_555
C25 C19 1_555 1_555
C26 N16 1_555 1_555
C27 C26 1_555 1_555
H18 C27 1_555 1_555
C28 N17 1_555 1_555
C29 N19 1_555 1_555
H19 C29 1_555 1_555
C30 N19 1_555 1_555
H20 C30 1_555 1_555
C31 C30 1_555 1_555
C32 N18 1_555 1_555
H21 C32 1_555 1_555
C33 N21 1_555 1_555
H22 C33 1_555 1_555
C34 N20 1_555 1_555
H23 C34 1_555 1_555
C35 C34 1_555 1_555
C36 N21 1_555 1_555
H24 C36 1_555 1_555
C37 H25 1_555 1_555
C38 N23 1_555 1_555
H26 C38 1_555 1_555
C39 C38 1_555 1_555
C40 N22 1_555 1_555
H27 C40 1_555 1_555
C41 C39 1_555 1_555
C42 N25 1_555 1_555
C43 C42 1_555 1_555
H28 C43 1_555 1_555
C44 N24 1_555 1_555
N26 Pd1 1_555 1_555
H29 N26 1_555 1_555
H30 N26 1_555 1_555
N27 Pd1 1_555 1_555
H31 N27 1_555 1_555
H32 N27 1_555 1_555
C45 N26 1_555 1_555
H33 C45 1_555 1_555
H34 C45 1_555 1_555
C46 N27 1_555 1_555
H35 C46 1_555 1_555
H36 C46 1_555 1_555
N28 Pd2 1_555 1_555
H37 N28 1_555 1_555
H38 N28 1_555 1_555
C47 N28 1_555 1_555
H39 C47 1_555 1_555
H40 C47 1_555 1_555
N29 Pd3 1_555 1_555
H41 N29 1_555 1_555
H42 N29 1_555 1_555
C48 N29 1_555 1_555
H43 C48 1_555 1_555
H44 C48 1_555 1_555
N30 Pd4 1_555 1_555
H45 N30 1_555 1_555
H46 N30 1_555 1_555
N31 Pd4 1_555 1_555
H47 N31 1_555 1_555
H48 N31 1_555 1_555
C49 N30 1_555 1_555
H49 C49 1_555 1_555
H50 C49 1_555 1_555
C50 N31 1_555 1_555
H51 C50 1_555 1_555
H52 C50 1_555 1_555
N32 Pd5 1_555 1_555
H53 N32 1_555 1_555
H54 N32 1_555 1_555
C51 N32 1_555 1_555
H55 C51 1_555 1_555
H56 C51 1_555 1_555
N33 Pd6 1_555 1_555
H57 N33 1_555 1_555
H58 N33 1_555 1_555
N34 Pd6 1_555 1_555
H59 N34 1_555 1_555
H60 N34 1_555 1_555
C52 N33 1_555 1_555
H61 C52 1_555 1_555
H62 C52 1_555 1_555
C53 N34 1_555 1_555
H63 C53 1_555 1_555
H64 C53 1_555 1_555
N35 Pd7 1_555 1_555
H65 N35 1_555 1_555
H66 N35 1_555 1_555
N36 Pd7 1_555 1_555
H67 N36 1_555 1_555
H68 N36 1_555 1_555
C54 N35 1_555 1_555
H69 C54 1_555 1_555
H70 C54 1_555 1_555
C55 N36 1_555 1_555
H71 C55 1_555 1_555
H72 C55 1_555 1_555
N37 Pd8 1_555 1_555
H73 N37 1_555 1_555
H74 N37 1_555 1_555
C56 N37 1_555 1_555
H75 C56 1_555 1_555
H76 C56 1_555 1_555
N38 O41 1_555 1_555
O42 N38 1_555 1_555
O43 N38 1_555 1_555
O18A N6 1_555 1_555
O19E N7 1_555 1_555
O22E N8 1_555 1_555
C1E C2E 1_555 1_555
C2E C2 1_555 1_555
H1E C2 1_555 1_555
H2E C3 1_555 1_555
C4E C3 1_555 1_555
H3E C4 1_555 1_555
C5E C4E 1_555 1_555
C6E C5E 1_555 1_555
H4E C6E 1_555 1_555
C7E C6E 1_555 1_555
H5E C7E 1_555 1_555
C8E C7E 1_555 1_555
H6E C8E 1_555 1_555
C9E C8E 1_555 1_555
C10E C1E 1_555 1_555
C11E C1E 1_555 1_555
H7E C11E 1_555 1_555
C12E C9E 1_555 1_555
H8E C12E 1_555 1_555
N28E Pd2 1_555 1_555
H37E N28E 1_555 1_555
H38E N28E 1_555 1_555
C47E C47 1_555 1_555
H39E C47E 1_555 1_555
H40E C47E 1_555 1_555
N29E Pd3 1_555 1_555
H41E N29E 1_555 1_555
H42E N29E 1_555 1_555
C48E C48 1_555 1_555
H43E C48E 1_555 1_555
H44E C48E 1_555 1_555
N32E Pd5 1_555 1_555
H53E N32E 1_555 1_555
H54E N32E 1_555 1_555
C51E C51 1_555 1_555
H55E C51E 1_555 1_555
H56E C51E 1_555 1_555
N37E Pd8 1_555 1_555
H73E N37E 1_555 1_555
H74E N37E 1_555 1_555
C56E C56 1_555 1_555
H75E C56E 1_555 1_555
H76E C56E 1_555 1_555
Pd1A N15 1_555 1_555
Pd2A N11A 1_555 1_555
Pd3A N18A 1_555 1_555
Pd4A N10A 1_555 1_555
Pd5A N23A 1_555 1_555
Pd6A N14A 1_555 1_555
Pd7A N22 1_555 1_555
Pd8A N12A 1_555 1_555
N10A C13A 1_555 1_555
N11A C13A 1_555 1_555
N12A C17A 1_555 1_555
N13A Pd7A 1_555 1_555
N14A C21A 1_555 1_555
N15A Pd1 1_555 1_555
N16A C25A 1_555 1_555
N17A C25A 1_555 1_555
N18A C29A 1_555 1_555
N19A Pd4A 1_555 1_555
N20A Pd1A 1_555 1_555
N21A Pd6A 1_555 1_555
N22A Pd7 1_555 1_555
N23A C37A 1_555 1_555
N24A C41A 1_555 1_555
N25A C41A 1_555 1_555
C13A H9A 1_555 1_555
C14A N10A 1_555 1_555
H10A C14A 1_555 1_555
C15A C14A 1_555 1_555
C16A N11A 1_555 1_555
H11A C16A 1_555 1_555
C17A N13A 1_555 1_555
H12A C17A 1_555 1_555
C18A N12A 1_555 1_555
H13A C18A 1_555 1_555
C19A C18A 1_555 1_555
C20A N13A 1_555 1_555
H14A C20A 1_555 1_555
C21A N15A 1_555 1_555
H15A C21A 1_555 1_555
C22A N15A 1_555 1_555
H16A C22A 1_555 1_555
C23A N14A 1_555 1_555
H17A C23A 1_555 1_555
C24A C22A 1_555 1_555
C25A C19A 1_555 1_555
C26A N16A 1_555 1_555
C27A C26A 1_555 1_555
H18A C27A 1_555 1_555
C28A N17A 1_555 1_555
C29A N19A 1_555 1_555
H19A C29A 1_555 1_555
C30A N19A 1_555 1_555
H20A C30A 1_555 1_555
C31A C30A 1_555 1_555
C32A N18A 1_555 1_555
H21A C32A 1_555 1_555
C33A N20A 1_555 1_555
H22A C33A 1_555 1_555
C34A N20A 1_555 1_555
H23A C34A 1_555 1_555
C35A C34A 1_555 1_555
C36A N21A 1_555 1_555
H24A C36A 1_555 1_555
C37A N22A 1_555 1_555
H25A C37A 1_555 1_555
C38A N23A 1_555 1_555
H26A C38A 1_555 1_555
C39A C38A 1_555 1_555
C40A N22A 1_555 1_555
H27A C40A 1_555 1_555
C41A C39A 1_555 1_555
C42A N25A 1_555 1_555
C43A C42A 1_555 1_555
H28A C43A 1_555 1_555
C44A N24A 1_555 1_555
N26A Pd1A 1_555 1_555
H29A N26A 1_555 1_555
H30A N26A 1_555 1_555
N27A Pd1A 1_555 1_555
H31A N27A 1_555 1_555
H32A N27A 1_555 1_555
C45A N26A 1_555 1_555
H33A C45A 1_555 1_555
H34A C45A 1_555 1_555
C46A N27A 1_555 1_555
H35A C46A 1_555 1_555
H36A C46A 1_555 1_555
N28A Pd2A 1_555 1_555
H37A N28A 1_555 1_555
H38A N28A 1_555 1_555
C47A N28A 1_555 1_555
H39A C47A 1_555 1_555
H40A C47A 1_555 1_555
N29A Pd3A 1_555 1_555
H41A N29A 1_555 1_555
H42A N29A 1_555 1_555
C48A N29A 1_555 1_555
H43A C48A 1_555 1_555
H44A C48A 1_555 1_555
N30A Pd4A 1_555 1_555
H45A N30A 1_555 1_555
H46A N30A 1_555 1_555
N31A Pd4A 1_555 1_555
H47A N31A 1_555 1_555
H48A N31A 1_555 1_555
C49A N30A 1_555 1_555
H49A C49A 1_555 1_555
H50A C49A 1_555 1_555
C50A N31A 1_555 1_555
H51A C50A 1_555 1_555
H52A C50A 1_555 1_555
N32A Pd5A 1_555 1_555
H53A N32A 1_555 1_555
H54A N32A 1_555 1_555
C51A N32A 1_555 1_555
H55A C51A 1_555 1_555
H56A C51A 1_555 1_555
N33A Pd6A 1_555 1_555
H57A N33A 1_555 1_555
H58A N33A 1_555 1_555
N34A Pd6A 1_555 1_555
H59A N34A 1_555 1_555
H60A N34A 1_555 1_555
C52A N33A 1_555 1_555
H61A C52A 1_555 1_555
H62A C52A 1_555 1_555
C53A N34A 1_555 1_555
H63A C53A 1_555 1_555
H64A C53A 1_555 1_555
N35A Pd7A 1_555 1_555
H65A N35A 1_555 1_555
H66A N35A 1_555 1_555
N36A Pd7A 1_555 1_555
H67A N36A 1_555 1_555
H68A N36A 1_555 1_555
C54A N35A 1_555 1_555
H69A C54A 1_555 1_555
H70A C54A 1_555 1_555
C55A N36A 1_555 1_555
H71A C55A 1_555 1_555
H72A C55A 1_555 1_555
N37A Pd8A 1_555 1_555
H73A N37A 1_555 1_555
H74A N37A 1_555 1_555
C56A N37A 1_555 1_555
H75A C56A 1_555 1_555
H76A C56A 1_555 1_555
N28D Pd2A 1_555 1_555
H37D N28D 1_555 1_555
H38D N28D 1_555 1_555
C47D C47A 1_555 1_555
H39D C47D 1_555 1_555
H40D C47D 1_555 1_555
N29D Pd3A 1_555 1_555
H41D N29D 1_555 1_555
H42D N29D 1_555 1_555
C48D C48A 1_555 1_555
H43D C48D 1_555 1_555
H44D C48D 1_555 1_555
N32D Pd5A 1_555 1_555
H53D N32D 1_555 1_555
H54D N32D 1_555 1_555
C51D C51A 1_555 1_555
H55D C51D 1_555 1_555
H56D C51D 1_555 1_555
N37D Pd8A 1_555 1_555
H73D N37D 1_555 1_555
H74D N37D 1_555 1_555
C56D C56A 1_555 1_555
H75D C56D 1_555 1_555
H76D C56D 1_555 1_555
Pd1D N20D 1_555 1_555
Pd4D N10D 1_555 1_555
Pd6D N14D 1_555 1_555
Pd7D N13D 1_555 1_555
N10D C13D 1_555 1_555
N11D Pd2A 1_555 1_555
N12D Pd8A 1_555 1_555
N13D C17D 1_555 1_555
N14D C21D 1_555 1_555
N15D C21D 1_555 1_555
N16D C25D 1_555 1_555
N17D C25D 1_555 1_555
N18D Pd3A 1_555 1_555
N19D Pd4D 1_555 1_555
N20D C33D 1_555 1_555
N21D Pd6D 1_555 1_555
N22D C37D 1_555 1_555
N23D Pd5A 1_555 1_555
N24D C41D 1_555 1_555
N25D C41D 1_555 1_555
C13D N11D 1_555 1_555
H9D C13D 1_555 1_555
C14D N10D 1_555 1_555
H10D C14D 1_555 1_555
C15D C14D 1_555 1_555
C16D N11D 1_555 1_555
H11D C16D 1_555 1_555
C17D N12D 1_555 1_555
H12D C17D 1_555 1_555
C18D N12D 1_555 1_555
H13D C18D 1_555 1_555
C19D C18D 1_555 1_555
C20D N13D 1_555 1_555
H14D C20D 1_555 1_555
C21D H15D 1_555 1_555
C22D N15D 1_555 1_555
H16D C22D 1_555 1_555
C23D N14D 1_555 1_555
H17D C23D 1_555 1_555
C24D C22D 1_555 1_555
C25D C19D 1_555 1_555
C26D N16D 1_555 1_555
C27D C26D 1_555 1_555
H18D C27D 1_555 1_555
C28D N17D 1_555 1_555
C29D N18D 1_555 1_555
H19D C29D 1_555 1_555
C30D N19D 1_555 1_555
H20D C30D 1_555 1_555
C31D C30D 1_555 1_555
C32D N18D 1_555 1_555
H21D C32D 1_555 1_555
C33D N21D 1_555 1_555
H22D C33D 1_555 1_555
C34D N20D 1_555 1_555
H23D C34D 1_555 1_555
C35D C34D 1_555 1_555
C36D N21D 1_555 1_555
H24D C36D 1_555 1_555
C37D N23D 1_555 1_555
H25D C37D 1_555 1_555
C38D N23D 1_555 1_555
H26D C38D 1_555 1_555
C39D C38D 1_555 1_555
C40D N22D 1_555 1_555
H27D C40D 1_555 1_555
C41D C39D 1_555 1_555
C42D N25D 1_555 1_555
C43D C42D 1_555 1_555
H28D C43D 1_555 1_555
C44D N24D 1_555 1_555
N26D Pd1D 1_555 1_555
H29D N26D 1_555 1_555
H30D N26D 1_555 1_555
N27D Pd1D 1_555 1_555
H31D N27D 1_555 1_555
H32D N27D 1_555 1_555
C45D N26D 1_555 1_555
H33D C45D 1_555 1_555
H34D C45D 1_555 1_555
C46D N27D 1_555 1_555
H35D C46D 1_555 1_555
H36D C46D 1_555 1_555
N30D Pd4D 1_555 1_555
H45D N30D 1_555 1_555
H46D N30D 1_555 1_555
N31D Pd4D 1_555 1_555
H47D N31D 1_555 1_555
H48D N31D 1_555 1_555
C49D N30D 1_555 1_555
H49D C49D 1_555 1_555
H50D C49D 1_555 1_555
C50D N31D 1_555 1_555
H51D C50D 1_555 1_555
H52D C50D 1_555 1_555
N33D Pd6D 1_555 1_555
H57D N33D 1_555 1_555
H58D N33D 1_555 1_555
N34D Pd6D 1_555 1_555
H59D N34D 1_555 1_555
H60D N34D 1_555 1_555
C52D N33D 1_555 1_555
H61D C52D 1_555 1_555
H62D C52D 1_555 1_555
C53D N34D 1_555 1_555
H63D C53D 1_555 1_555
H64D C53D 1_555 1_555
N35D Pd7D 1_555 1_555
H65D N35D 1_555 1_555
H66D N35D 1_555 1_555
N36D Pd7D 1_555 1_555
H67D N36D 1_555 1_555
H68D N36D 1_555 1_555
C54D N35D 1_555 1_555
H69D C54D 1_555 1_555
H70D C54D 1_555 1_555
C55D N36D 1_555 1_555
H71D C55D 1_555 1_555
H72D C55D 1_555 1_555
Pd1E N15D 1_555 1_555
Pd4E N10E 1_555 1_555
Pd6E N14E 1_555 1_555
Pd7E N22D 1_555 1_555
N10E C13E 1_555 1_555
N11E Pd2 1_555 1_555
N12E Pd8 1_555 1_555
N13E Pd7E 1_555 1_555
N14E C21E 1_555 1_555
N15E Pd1D 1_555 1_555
N16E C25E 1_555 1_555
N17E C25E 1_555 1_555
N18E Pd3 1_555 1_555
N19E Pd4E 1_555 1_555
N20E Pd1E 1_555 1_555
N21E Pd6E 1_555 1_555
N22E Pd7D 1_555 1_555
N23E Pd5 1_555 1_555
N24E C41E 1_555 1_555
N25E C41E 1_555 1_555
C13E N11E 1_555 1_555
H9E C13E 1_555 1_555
C14E N10E 1_555 1_555
H10E C14E 1_555 1_555
C15E C14E 1_555 1_555
C16E N11E 1_555 1_555
H11E C16E 1_555 1_555
C17E N12E 1_555 1_555
H12E C17E 1_555 1_555
C18E N12E 1_555 1_555
H13E C18E 1_555 1_555
C19E C18E 1_555 1_555
C20E N13E 1_555 1_555
H14E C20E 1_555 1_555
C21E N15E 1_555 1_555
H15E C21E 1_555 1_555
C22E N15E 1_555 1_555
H16E C22E 1_555 1_555
C23E N14E 1_555 1_555
H17E C23E 1_555 1_555
C24E C22E 1_555 1_555
C25E C19E 1_555 1_555
C26E N16E 1_555 1_555
C27E C26E 1_555 1_555
H18E C27E 1_555 1_555
C28E N17E 1_555 1_555
C29E N18E 1_555 1_555
H19E C29E 1_555 1_555
C30E N19E 1_555 1_555
H20E C30E 1_555 1_555
C31E C30E 1_555 1_555
C32E N18E 1_555 1_555
H21E C32E 1_555 1_555
C33E N20E 1_555 1_555
H22E C33E 1_555 1_555
C34E N20E 1_555 1_555
H23E C34E 1_555 1_555
C35E C34E 1_555 1_555
C36E N21E 1_555 1_555
H24E C36E 1_555 1_555
C37E N22E 1_555 1_555
H25E C37E 1_555 1_555
C38E N23E 1_555 1_555
H26E C38E 1_555 1_555
C39E C38E 1_555 1_555
C40E N22E 1_555 1_555
H27E C40E 1_555 1_555
C41E C39E 1_555 1_555
C42E N25E 1_555 1_555
C43E C42E 1_555 1_555
H28E C43E 1_555 1_555
C44E N24E 1_555 1_555
N26E Pd1E 1_555 1_555
H29E N26E 1_555 1_555
H30E N26E 1_555 1_555
N27E Pd1E 1_555 1_555
H31E N27E 1_555 1_555
H32E N27E 1_555 1_555
C45E N26E 1_555 1_555
H33E C45E 1_555 1_555
H34E C45E 1_555 1_555
C46E N27E 1_555 1_555
H35E C46E 1_555 1_555
H36E C46E 1_555 1_555
N30E Pd4E 1_555 1_555
H45E N30E 1_555 1_555
H46E N30E 1_555 1_555
N31E Pd4E 1_555 1_555
H47E N31E 1_555 1_555
H48E N31E 1_555 1_555
C49E N30E 1_555 1_555
H49E C49E 1_555 1_555
H50E C49E 1_555 1_555
C50E N31E 1_555 1_555
H51E C50E 1_555 1_555
H52E C50E 1_555 1_555
N33E Pd6E 1_555 1_555
H57E N33E 1_555 1_555
H58E N33E 1_555 1_555
N34E Pd6E 1_555 1_555
H59E N34E 1_555 1_555
H60E N34E 1_555 1_555
C52E N33E 1_555 1_555
H61E C52E 1_555 1_555
H62E C52E 1_555 1_555
C53E N34E 1_555 1_555
H63E C53E 1_555 1_555
H64E C53E 1_555 1_555
N35E Pd7E 1_555 1_555
H65E N35E 1_555 1_555
H66E N35E 1_555 1_555
N36E Pd7E 1_555 1_555
H67E N36E 1_555 1_555
H68E N36E 1_555 1_555
C54E N35E 1_555 1_555
H69E C54E 1_555 1_555
H70E C54E 1_555 1_555
C55E N36E 1_555 1_555
H71E C55E 1_555 1_555
H72E C55E 1_555 1_555
C3 C2E 1_555 1_555
C4 C4E 1_555 1_555
H3 C4E 1_555 1_555
C5 C10 1_555 1_555
C9 C10 1_555 1_555
C11 C12 1_555 1_555
C15 C16 1_555 1_555
C15 C26 1_555 1_555
C19 C20 1_555 1_555
C23 C24 1_555 1_555
C24 C28 1_555 1_555
C27 C28 1_555 1_555
C31 C32 1_555 1_555
C31 C42 1_555 1_555
C35 C36 1_555 1_555
C35 C44 1_555 1_555
C39 C40 1_555 1_555
C43 C44 1_555 1_555
C45 C46 1_555 1_555
C49 C50 1_555 1_555
C52 C53 1_555 1_555
C54 C55 1_555 1_555
C2E H1E 1_555 1_555
C4E H3E 1_555 1_555
C5E C10E 1_555 1_555
C9E C10E 1_555 1_555
C11E C12E 1_555 1_555
N28E C47E 1_555 1_555
N29E C48E 1_555 1_555
N32E C51E 1_555 1_555
N37E C56E 1_555 1_555
N21A C33A 1_555 1_555
C15A C16A 1_555 1_555
C15A C26A 1_555 1_555
C19A C20A 1_555 1_555
C23A C24A 1_555 1_555
C24A C28A 1_555 1_555
C27A C28A 1_555 1_555
C31A C32A 1_555 1_555
C31A C42A 1_555 1_555
C35A C36A 1_555 1_555
C35A C44A 1_555 1_555
C39A C40A 1_555 1_555
C43A C44A 1_555 1_555
C45A C46A 1_555 1_555
C49A C50A 1_555 1_555
C52A C53A 1_555 1_555
C54A C55A 1_555 1_555
N28D C47D 1_555 1_555
N29D C48D 1_555 1_555
N32D C51D 1_555 1_555
N37D C56D 1_555 1_555
N19D C29D 1_555 1_555
C15D C16D 1_555 1_555
C15D C26D 1_555 1_555
C19D C20D 1_555 1_555
C23D C24D 1_555 1_555
C24D C28D 1_555 1_555
C27D C28D 1_555 1_555
C31D C32D 1_555 1_555
C31D C42D 1_555 1_555
C35D C36D 1_555 1_555
C35D C44D 1_555 1_555
C39D C40D 1_555 1_555
C43D C44D 1_555 1_555
C45D C46D 1_555 1_555
C49D C50D 1_555 1_555
C52D C53D 1_555 1_555
C54D C55D 1_555 1_555
N13E C17E 1_555 1_555
N19E C29E 1_555 1_555
N21E C33E 1_555 1_555
N23E C37E 1_555 1_555
C15E C16E 1_555 1_555
C15E C26E 1_555 1_555
C19E C20E 1_555 1_555
C23E C24E 1_555 1_555
C24E C28E 1_555 1_555
C27E C28E 1_555 1_555
C31E C32E 1_555 1_555
C31E C42E 1_555 1_555
C35E C36E 1_555 1_555
C35E C44E 1_555 1_555
C39E C40E 1_555 1_555
C43E C44E 1_555 1_555
C45E C46E 1_555 1_555
C49E C50E 1_555 1_555
C52E C53E 1_555 1_555
C54E C55E 1_555 1_555

#END
