# generated using pymatgen
data_H80Pd6C58N38O59
_symmetry_space_group_name_H-M   'P 1'
_cell_length_a   23.76250631
_cell_length_b   23.76250631
_cell_length_c   24.61208533
_cell_angle_alpha   102.96186492
_cell_angle_beta   112.05687778
_cell_angle_gamma   112.25473110
_symmetry_Int_Tables_number   1
_chemical_formula_structural   H80Pd6C58N38O59
_chemical_formula_sum   'H320 Pd24 C232 N152 O236'
_cell_volume   10777.72083145
_cell_formula_units_Z   4
loop_
 _symmetry_equiv_pos_site_id
 _symmetry_equiv_pos_as_xyz
  1  'x, y, z'
loop_
 _atom_site_type_symbol
 _atom_site_label
 _atom_site_symmetry_multiplicity
 _atom_site_fract_x
 _atom_site_fract_y
 _atom_site_fract_z
 _atom_site_occupancy
  C  C1  1  0.364000  0.414000  0.778000  1.0
  C  C2  1  0.636000  0.586000  0.222000  1.0
  C  C3  1  0.426100  0.636900  0.063000  1.0
  C  C4  1  0.573900  0.363100  0.937000  1.0
  C  C5  1  0.525500  0.652600  0.919500  1.0
  C  C6  1  0.733100  0.606000  0.080500  1.0
  C  C7  1  0.474500  0.347400  0.080500  1.0
  C  C8  1  0.266900  0.394000  0.919500  1.0
  C  C9  1  0.521600  0.589800  0.883800  1.0
  C  C10  1  0.706000  0.637800  0.116200  1.0
  C  C11  1  0.478400  0.410200  0.116200  1.0
  C  C12  1  0.294000  0.362200  0.883800  1.0
  C  C13  1  0.455600  0.531000  0.846000  1.0
  C  C14  1  0.685000  0.609600  0.154000  1.0
  C  C15  1  0.544400  0.469000  0.154000  1.0
  C  C16  1  0.315000  0.390400  0.846000  1.0
  C  C17  1  0.447200  0.469800  0.819000  1.0
  C  C18  1  0.650800  0.628200  0.181000  1.0
  C  C19  1  0.552800  0.530200  0.181000  1.0
  C  C20  1  0.349200  0.371800  0.819000  1.0
  C  C21  1  0.506700  0.465900  0.829000  1.0
  C  C22  1  0.636900  0.677700  0.171000  1.0
  C  C23  1  0.493300  0.534100  0.171000  1.0
  C  C24  1  0.363100  0.322300  0.829000  1.0
  C  C25  1  0.575400  0.524800  0.868000  1.0
  C  C26  1  0.656800  0.707400  0.132000  1.0
  C  C27  1  0.424600  0.475200  0.132000  1.0
  C  C28  1  0.343200  0.292600  0.868000  1.0
  C  C29  1  0.579400  0.586000  0.892000  1.0
  C  C30  1  0.694000  0.687400  0.108000  1.0
  C  C31  1  0.420600  0.414000  0.108000  1.0
  C  C32  1  0.306000  0.312600  0.892000  1.0
  C  C33  1  0.544200  0.676700  0.989700  1.0
  C  C34  1  0.687000  0.554500  0.010300  1.0
  C  C35  1  0.455800  0.323300  0.010300  1.0
  C  C36  1  0.313000  0.445500  0.989700  1.0
  C  C37  1  0.485600  0.657800  0.998400  1.0
  C  C38  1  0.659400  0.487200  0.001600  1.0
  C  C39  1  0.514400  0.342200  0.001600  1.0
  C  C40  1  0.340600  0.512800  0.998400  1.0
  C  C41  1  0.490900  0.664400  0.056500  1.0
  C  C42  1  0.607900  0.434400  0.943500  1.0
  C  C43  1  0.509100  0.335600  0.943500  1.0
  C  C44  1  0.392100  0.565600  0.056500  1.0
  C  C45  1  0.557200  0.692000  0.109200  1.0
  C  C46  1  0.582800  0.448000  0.890800  1.0
  C  C47  1  0.442800  0.308000  0.890800  1.0
  C  C48  1  0.417200  0.552000  0.109200  1.0
  C  C49  1  0.618000  0.708800  0.102400  1.0
  C  C50  1  0.606400  0.515600  0.897600  1.0
  C  C51  1  0.382000  0.291200  0.897600  1.0
  C  C52  1  0.393600  0.484400  0.102400  1.0
  C  C53  1  0.607500  0.703900  0.041200  1.0
  C  C54  1  0.662700  0.566300  0.958800  1.0
  C  C55  1  0.392500  0.296100  0.958800  1.0
  C  C56  1  0.337300  0.433700  0.041200  1.0
  C  C57  1  0.851900  0.704800  0.287100  1.0
  C  C58  1  0.417700  0.564800  0.712900  1.0
  C  C59  1  0.148100  0.295200  0.712900  1.0
  C  C60  1  0.582300  0.435200  0.287100  1.0
  C  C61  1  0.273400  0.718900  0.836900  1.0
  C  C62  1  0.882000  0.436500  0.163100  1.0
  C  C63  1  0.726600  0.281100  0.163100  1.0
  C  C64  1  0.118000  0.563500  0.836900  1.0
  C  C65  1  0.342200  0.746300  0.943900  1.0
  C  C66  1  0.802400  0.398300  0.056100  1.0
  C  C67  1  0.657800  0.253700  0.056100  1.0
  C  C68  1  0.197600  0.601700  0.943900  1.0
  C  C69  1  0.768100  0.912700  0.018200  1.0
  C  C70  1  0.894500  0.749900  0.981800  1.0
  C  C71  1  0.231900  0.087300  0.981800  1.0
  C  C72  1  0.105500  0.250100  0.018200  1.0
  C  C73  1  0.822300  0.800400  0.270900  1.0
  C  C74  1  0.529500  0.551400  0.729100  1.0
  C  C75  1  0.177700  0.199600  0.729100  1.0
  C  C76  1  0.470500  0.448600  0.270900  1.0
  C  C77  1  0.865400  0.862400  0.195600  1.0
  C  C78  1  0.666800  0.669800  0.804400  1.0
  C  C79  1  0.134600  0.137600  0.804400  1.0
  C  C80  1  0.333200  0.330200  0.195600  1.0
  C  C81  1  0.551600  0.841600  0.168400  1.0
  C  C82  1  0.673200  0.383200  0.831600  1.0
  C  C83  1  0.448400  0.158400  0.831600  1.0
  C  C84  1  0.326800  0.616800  0.168400  1.0
  C  C85  1  0.602100  0.847400  0.098300  1.0
  C  C86  1  0.749100  0.503800  0.901700  1.0
  C  C87  1  0.397900  0.152600  0.901700  1.0
  C  C88  1  0.250900  0.496200  0.098300  1.0
  C  C89  1  0.916700  0.571300  0.329600  1.0
  C  C90  1  0.241700  0.587100  0.670400  1.0
  C  C91  1  0.083300  0.428700  0.670400  1.0
  C  C92  1  0.758300  0.412900  0.329600  1.0
  C  C93  1  0.926800  0.879600  0.141400  1.0
  C  C94  1  0.738200  0.785400  0.858600  1.0
  C  C95  1  0.073200  0.120400  0.858600  1.0
  C  C96  1  0.261800  0.214600  0.141400  1.0
  C  C97  1  0.656100  0.861600  0.030900  1.0
  C  C98  1  0.830700  0.625200  0.969100  1.0
  C  C99  1  0.343900  0.138400  0.969100  1.0
  C  C100  1  0.169300  0.374800  0.030900  1.0
  C  C101  1  0.648400  0.857700  0.972900  1.0
  C  C102  1  0.884800  0.675500  0.027100  1.0
  C  C103  1  0.351600  0.142300  0.027100  1.0
  C  C104  1  0.115200  0.324500  0.972900  1.0
  C  C105  1  0.858700  0.628000  0.343700  1.0
  C  C106  1  0.284300  0.515000  0.656300  1.0
  C  C107  1  0.141300  0.372000  0.656300  1.0
  C  C108  1  0.715700  0.485000  0.343700  1.0
  C  C109  1  0.495900  0.827100  0.177800  1.0
  C  C110  1  0.649300  0.318100  0.822200  1.0
  C  C111  1  0.504100  0.172900  0.822200  1.0
  C  C112  1  0.350700  0.681900  0.177800  1.0
  C  C113  1  0.391400  0.755600  0.876800  1.0
  C  C114  1  0.878800  0.514600  0.123200  1.0
  C  C115  1  0.608600  0.244400  0.123200  1.0
  C  C116  1  0.121200  0.485400  0.876800  1.0
  C  C117  1  0.567100  0.875800  0.286500  1.0
  C  C118  1  0.589300  0.280600  0.713500  1.0
  C  C119  1  0.432900  0.124200  0.713500  1.0
  C  C120  1  0.410700  0.719400  0.286500  1.0
  C  C121  1  0.759900  0.846400  0.335500  1.0
  C  C122  1  0.510900  0.424400  0.664500  1.0
  C  C123  1  0.240100  0.153600  0.664500  1.0
  C  C124  1  0.489100  0.575600  0.335500  1.0
  C  C125  1  0.721400  0.890900  0.082700  1.0
  C  C126  1  0.808200  0.638700  0.917300  1.0
  C  C127  1  0.278600  0.109100  0.917300  1.0
  C  C128  1  0.191800  0.361300  0.082700  1.0
  C  C129  1  0.871100  0.655200  0.299500  1.0
  C  C130  1  0.355700  0.571600  0.700500  1.0
  C  C131  1  0.128900  0.344800  0.700500  1.0
  C  C132  1  0.644300  0.428400  0.299500  1.0
  C  C133  1  0.773200  0.796900  0.340700  1.0
  C  C134  1  0.456200  0.432500  0.659300  1.0
  C  C135  1  0.226800  0.203100  0.659300  1.0
  C  C136  1  0.543800  0.567500  0.340700  1.0
  C  C137  1  0.757000  0.769300  0.381100  1.0
  C  C138  1  0.388200  0.375900  0.618900  1.0
  C  C139  1  0.243000  0.230700  0.618900  1.0
  C  C140  1  0.611800  0.624100  0.381100  1.0
  C  C141  1  0.918700  0.799000  0.181900  1.0
  C  C142  1  0.617100  0.736800  0.818100  1.0
  C  C143  1  0.081300  0.201000  0.818100  1.0
  C  C144  1  0.382900  0.263200  0.181900  1.0
  C  C145  1  0.400800  0.762000  0.937400  1.0
  C  C146  1  0.824600  0.463400  0.062600  1.0
  C  C147  1  0.599200  0.238000  0.062600  1.0
  C  C148  1  0.175400  0.536600  0.937400  1.0
  C  C149  1  0.720100  0.842600  0.405300  1.0
  C  C150  1  0.437300  0.314800  0.594700  1.0
  C  C151  1  0.279900  0.157400  0.594700  1.0
  C  C152  1  0.562700  0.685200  0.405300  1.0
  C  C153  1  0.803800  0.769200  0.305000  1.0
  C  C154  1  0.464200  0.498800  0.695000  1.0
  C  C155  1  0.196200  0.230800  0.695000  1.0
  C  C156  1  0.535800  0.501200  0.305000  1.0
  C  C157  1  0.876900  0.812400  0.203900  1.0
  C  C158  1  0.608500  0.673000  0.796100  1.0
  C  C159  1  0.123100  0.187600  0.796100  1.0
  C  C160  1  0.391500  0.327000  0.203900  1.0
  C  C161  1  0.591900  0.835600  0.038100  1.0
  C  C162  1  0.797500  0.553800  0.961900  1.0
  C  C163  1  0.408100  0.164400  0.961900  1.0
  C  C164  1  0.202500  0.446200  0.038100  1.0
  C  C165  1  0.470600  0.788200  0.994800  1.0
  C  C166  1  0.793400  0.475800  0.005200  1.0
  C  C167  1  0.529400  0.211800  0.005200  1.0
  C  C168  1  0.206600  0.524200  0.994800  1.0
  C  C169  1  0.615900  0.873000  0.222900  1.0
  C  C170  1  0.650100  0.393000  0.777100  1.0
  C  C171  1  0.384100  0.127000  0.777100  1.0
  C  C172  1  0.349900  0.607000  0.222900  1.0
  C  C173  1  0.908500  0.638000  0.277100  1.0
  C  C174  1  0.360900  0.631400  0.722900  1.0
  C  C175  1  0.091500  0.362000  0.722900  1.0
  C  C176  1  0.639100  0.368600  0.277100  1.0
  C  C177  1  0.853900  0.778700  0.241800  1.0
  C  C178  1  0.536900  0.612100  0.758200  1.0
  C  C179  1  0.146100  0.221300  0.758200  1.0
  C  C180  1  0.463100  0.387900  0.241800  1.0
  C  C181  1  0.542700  0.826900  0.103200  1.0
  C  C182  1  0.723700  0.439500  0.896800  1.0
  C  C183  1  0.457300  0.173100  0.896800  1.0
  C  C184  1  0.276300  0.560500  0.103200  1.0
  C  C185  1  0.937100  0.118300  0.213800  1.0
  C  C186  1  0.904500  0.723300  0.786200  1.0
  C  C187  1  0.062900  0.881700  0.786200  1.0
  C  C188  1  0.095500  0.276700  0.213800  1.0
  C  C189  1  0.995200  0.113000  0.246200  1.0
  C  C190  1  0.866800  0.749000  0.753800  1.0
  C  C191  1  0.004800  0.887000  0.753800  1.0
  C  C192  1  0.133200  0.251000  0.246200  1.0
  C  C193  1  0.930900  0.569700  0.555800  1.0
  C  C194  1  0.013900  0.375100  0.444200  1.0
  C  C195  1  0.069100  0.430300  0.444200  1.0
  C  C196  1  0.986100  0.624900  0.555800  1.0
  C  C197  1  0.162800  0.814700  0.923500  1.0
  C  C198  1  0.891200  0.239300  0.076500  1.0
  C  C199  1  0.837200  0.185300  0.076500  1.0
  C  C200  1  0.108800  0.760700  0.923500  1.0
  C  C201  1  0.140900  0.853000  0.135100  1.0
  C  C202  1  0.717900  0.005800  0.864900  1.0
  C  C203  1  0.859100  0.147000  0.864900  1.0
  C  C204  1  0.282100  0.994200  0.135100  1.0
  C  C205  1  0.157000  0.894200  0.195200  1.0
  C  C206  1  0.699000  0.961800  0.804800  1.0
  C  C207  1  0.843000  0.105800  0.804800  1.0
  C  C208  1  0.301000  0.038200  0.195200  1.0
  C  C209  1  0.308300  0.836200  0.706500  1.0
  C  C210  1  0.129700  0.601800  0.293500  1.0
  C  C211  1  0.691700  0.163800  0.293500  1.0
  C  C212  1  0.870300  0.398200  0.706500  1.0
  C  C213  1  0.321600  0.809400  0.661800  1.0
  C  C214  1  0.147600  0.659800  0.338200  1.0
  C  C215  1  0.678400  0.190600  0.338200  1.0
  C  C216  1  0.852400  0.340200  0.661800  1.0
  C  C217  1  0.402100  0.943900  0.289000  1.0
  C  C218  1  0.654900  0.113100  0.711000  1.0
  C  C219  1  0.597900  0.056100  0.711000  1.0
  C  C220  1  0.345100  0.886900  0.289000  1.0
  C  C221  1  0.829900  0.081900  0.457200  1.0
  C  C222  1  0.624700  0.372700  0.542800  1.0
  C  C223  1  0.170100  0.918100  0.542800  1.0
  C  C224  1  0.375300  0.627300  0.457200  1.0
  C  C225  1  0.776800  0.093600  0.420000  1.0
  C  C226  1  0.673600  0.356800  0.580000  1.0
  C  C227  1  0.223200  0.906400  0.580000  1.0
  C  C228  1  0.326400  0.643200  0.420000  1.0
  C  C229  1  0.828700  0.845700  0.616800  1.0
  C  C230  1  0.228900  0.211900  0.383200  1.0
  C  C231  1  0.171300  0.154300  0.383200  1.0
  C  C232  1  0.771100  0.788100  0.616800  1.0
  H  H233  1  0.351700  0.383800  0.735500  1.0
  H  H234  1  0.648300  0.616200  0.264500  1.0
  H  H235  1  0.335900  0.436000  0.771900  1.0
  H  H236  1  0.664100  0.564000  0.228100  1.0
  H  H237  1  0.389300  0.640300  0.029600  1.0
  H  H238  1  0.610700  0.359700  0.970400  1.0
  H  H239  1  0.438400  0.667200  0.105600  1.0
  H  H240  1  0.561600  0.332800  0.894400  1.0
  H  H241  1  0.404200  0.565400  0.868600  1.0
  H  H242  1  0.696800  0.535600  0.131400  1.0
  H  H243  1  0.595800  0.434600  0.131400  1.0
  H  H244  1  0.303200  0.464400  0.868600  1.0
  H  H245  1  0.391800  0.632500  0.945100  1.0
  H  H246  1  0.687400  0.446700  0.054900  1.0
  H  H247  1  0.608200  0.367500  0.054900  1.0
  H  H248  1  0.312600  0.553300  0.945100  1.0
  H  H249  1  0.478900  0.647700  0.894200  1.0
  H  H250  1  0.753500  0.584700  0.105800  1.0
  H  H251  1  0.521100  0.352300  0.105800  1.0
  H  H252  1  0.246500  0.415300  0.894200  1.0
  H  H253  1  0.560100  0.689900  0.916800  1.0
  H  H254  1  0.773100  0.643300  0.083200  1.0
  H  H255  1  0.439900  0.310100  0.083200  1.0
  H  H256  1  0.226900  0.356700  0.916800  1.0
  H  H257  1  0.502000  0.423600  0.810000  1.0
  H  H258  1  0.613600  0.692000  0.190000  1.0
  H  H259  1  0.498000  0.576400  0.190000  1.0
  H  H260  1  0.386400  0.308000  0.810000  1.0
  H  H261  1  0.616800  0.522400  0.877400  1.0
  H  H262  1  0.645000  0.739400  0.122600  1.0
  H  H263  1  0.383200  0.477600  0.122600  1.0
  H  H264  1  0.355000  0.260600  0.877400  1.0
  H  H265  1  0.624200  0.626300  0.914900  1.0
  H  H266  1  0.711400  0.709300  0.085100  1.0
  H  H267  1  0.375800  0.373700  0.085100  1.0
  H  H268  1  0.288600  0.290700  0.914900  1.0
  H  H269  1  0.562800  0.700200  0.151000  1.0
  H  H270  1  0.549200  0.411800  0.849000  1.0
  H  H271  1  0.437200  0.299800  0.849000  1.0
  H  H272  1  0.450800  0.588200  0.151000  1.0
  H  H273  1  0.662800  0.722300  0.137300  1.0
  H  H274  1  0.585000  0.525500  0.862700  1.0
  H  H275  1  0.337200  0.277700  0.862700  1.0
  H  H276  1  0.415000  0.474500  0.137300  1.0
  H  H277  1  0.647800  0.721100  0.036500  1.0
  H  H278  1  0.684600  0.611300  0.963500  1.0
  H  H279  1  0.352200  0.278900  0.963500  1.0
  H  H280  1  0.315400  0.388700  0.036500  1.0
  H  H281  1  0.227600  0.700400  0.800600  1.0
  H  H282  1  0.899800  0.427000  0.199400  1.0
  H  H283  1  0.772400  0.299600  0.199400  1.0
  H  H284  1  0.100200  0.573000  0.800600  1.0
  H  H285  1  0.346800  0.749500  0.984700  1.0
  H  H286  1  0.764800  0.362100  0.015300  1.0
  H  H287  1  0.653200  0.250500  0.015300  1.0
  H  H288  1  0.235200  0.637900  0.984700  1.0
  H  H289  1  0.808200  0.931900  0.013700  1.0
  H  H290  1  0.918200  0.794500  0.986300  1.0
  H  H291  1  0.191800  0.068100  0.986300  1.0
  H  H292  1  0.081800  0.205500  0.013700  1.0
  H  H293  1  0.814100  0.835700  0.266800  1.0
  H  H294  1  0.568900  0.547300  0.733200  1.0
  H  H295  1  0.185900  0.164300  0.733200  1.0
  H  H296  1  0.431100  0.452700  0.266800  1.0
  H  H297  1  0.840100  0.875100  0.212800  1.0
  H  H298  1  0.662300  0.627300  0.787200  1.0
  H  H299  1  0.159900  0.124900  0.787200  1.0
  H  H300  1  0.337700  0.372700  0.212800  1.0
  H  H301  1  0.648000  0.869000  0.135200  1.0
  H  H302  1  0.733800  0.512800  0.864800  1.0
  H  H303  1  0.352000  0.131000  0.864800  1.0
  H  H304  1  0.266200  0.487200  0.135200  1.0
  H  H305  1  0.932000  0.541400  0.339200  1.0
  H  H306  1  0.202200  0.592800  0.660800  1.0
  H  H307  1  0.068000  0.458600  0.660800  1.0
  H  H308  1  0.797800  0.407200  0.339200  1.0
  H  H309  1  0.943700  0.902300  0.118800  1.0
  H  H310  1  0.783500  0.824900  0.881200  1.0
  H  H311  1  0.056300  0.097700  0.881200  1.0
  H  H312  1  0.216500  0.175100  0.118800  1.0
  H  H313  1  0.602400  0.836600  0.936200  1.0
  H  H314  1  0.900400  0.666200  0.063800  1.0
  H  H315  1  0.397600  0.163400  0.063800  1.0
  H  H316  1  0.099600  0.333800  0.936200  1.0
  H  H317  1  0.835000  0.639900  0.363500  1.0
  H  H318  1  0.276400  0.471500  0.636500  1.0
  H  H319  1  0.165000  0.360100  0.636500  1.0
  H  H320  1  0.723600  0.528500  0.363500  1.0
  H  H321  1  0.449800  0.803400  0.140800  1.0
  H  H322  1  0.662600  0.309000  0.859200  1.0
  H  H323  1  0.550200  0.196600  0.859200  1.0
  H  H324  1  0.337400  0.691000  0.140800  1.0
  H  H325  1  0.430700  0.765500  0.870800  1.0
  H  H326  1  0.894700  0.559900  0.129200  1.0
  H  H327  1  0.569300  0.234500  0.129200  1.0
  H  H328  1  0.105300  0.440100  0.870800  1.0
  H  H329  1  0.573300  0.887800  0.328700  1.0
  H  H330  1  0.559100  0.244600  0.671300  1.0
  H  H331  1  0.426700  0.112200  0.671300  1.0
  H  H332  1  0.440900  0.755400  0.328700  1.0
  H  H333  1  0.769500  0.865000  0.307500  1.0
  H  H334  1  0.557500  0.462000  0.692500  1.0
  H  H335  1  0.230500  0.135000  0.692500  1.0
  H  H336  1  0.442500  0.538000  0.307500  1.0
  H  H337  1  0.726800  0.893100  0.123500  1.0
  H  H338  1  0.769600  0.603300  0.876500  1.0
  H  H339  1  0.273200  0.106900  0.876500  1.0
  H  H340  1  0.230400  0.396700  0.123500  1.0
  H  H341  1  0.764700  0.733900  0.386000  1.0
  H  H342  1  0.347900  0.378700  0.614000  1.0
  H  H343  1  0.235300  0.266100  0.614000  1.0
  H  H344  1  0.652100  0.621300  0.386000  1.0
  H  H345  1  0.930400  0.766300  0.189100  1.0
  H  H346  1  0.577200  0.741300  0.810900  1.0
  H  H347  1  0.069600  0.233700  0.810900  1.0
  H  H348  1  0.422800  0.258700  0.189100  1.0
  H  H349  1  0.701400  0.859700  0.428100  1.0
  H  H350  1  0.431600  0.273300  0.571900  1.0
  H  H351  1  0.298600  0.140300  0.571900  1.0
  H  H352  1  0.568400  0.726700  0.428100  1.0
  H  H353  1  0.656100  0.881700  0.218600  1.0
  H  H354  1  0.663100  0.437500  0.781400  1.0
  H  H355  1  0.343900  0.118300  0.781400  1.0
  H  H356  1  0.336900  0.562500  0.218600  1.0
  H  H357  1  0.919600  0.656600  0.249600  1.0
  H  H358  1  0.407000  0.670000  0.750400  1.0
  H  H359  1  0.080400  0.343400  0.750400  1.0
  H  H360  1  0.593000  0.330000  0.249600  1.0
  H  H361  1  0.880300  0.066300  0.120400  1.0
  H  H362  1  0.945900  0.759900  0.879600  1.0
  H  H363  1  0.119700  0.933700  0.879600  1.0
  H  H364  1  0.054100  0.240100  0.120400  1.0
  H  H365  1  0.837100  0.057000  0.151300  1.0
  H  H366  1  0.905700  0.685800  0.848700  1.0
  H  H367  1  0.162900  0.943000  0.848700  1.0
  H  H368  1  0.094300  0.314200  0.151300  1.0
  H  H369  1  0.952800  0.157200  0.203200  1.0
  H  H370  1  0.954000  0.749600  0.796800  1.0
  H  H371  1  0.047200  0.842800  0.796800  1.0
  H  H372  1  0.046000  0.250400  0.203200  1.0
  H  H373  1  0.920400  0.128500  0.243900  1.0
  H  H374  1  0.884600  0.676500  0.756100  1.0
  H  H375  1  0.079600  0.871500  0.756100  1.0
  H  H376  1  0.115400  0.323500  0.243900  1.0
  H  H377  1  0.977500  0.035700  0.271000  1.0
  H  H378  1  0.764700  0.706500  0.729000  1.0
  H  H379  1  0.022500  0.964300  0.729000  1.0
  H  H380  1  0.235300  0.293500  0.271000  1.0
  H  H381  1  0.009300  0.034000  0.229900  1.0
  H  H382  1  0.804100  0.779400  0.770100  1.0
  H  H383  1  0.990700  0.966000  0.770100  1.0
  H  H384  1  0.195900  0.220600  0.229900  1.0
  H  H385  1  0.019100  0.141300  0.293200  1.0
  H  H386  1  0.848100  0.725900  0.706800  1.0
  H  H387  1  0.980900  0.858700  0.706800  1.0
  H  H388  1  0.151900  0.274100  0.293200  1.0
  H  H389  1  0.029000  0.131000  0.231600  1.0
  H  H390  1  0.899400  0.797400  0.768400  1.0
  H  H391  1  0.971000  0.869000  0.768400  1.0
  H  H392  1  0.100600  0.202600  0.231600  1.0
  H  H393  1  0.830000  0.528800  0.497800  1.0
  H  H394  1  0.031000  0.332200  0.502200  1.0
  H  H395  1  0.170000  0.471200  0.502200  1.0
  H  H396  1  0.969000  0.667800  0.497800  1.0
  H  H397  1  0.856100  0.483900  0.482600  1.0
  H  H398  1  0.001300  0.373500  0.517400  1.0
  H  H399  1  0.143900  0.516100  0.517400  1.0
  H  H400  1  0.998700  0.626500  0.482600  1.0
  H  H401  1  0.920000  0.588900  0.587900  1.0
  H  H402  1  0.001000  0.332100  0.412100  1.0
  H  H403  1  0.080000  0.411100  0.412100  1.0
  H  H404  1  0.999000  0.667900  0.587900  1.0
  H  H405  1  0.949600  0.541600  0.570200  1.0
  H  H406  1  0.971400  0.379400  0.429800  1.0
  H  H407  1  0.050400  0.458400  0.429800  1.0
  H  H408  1  0.028600  0.620600  0.570200  1.0
  H  H409  1  0.259700  0.837100  0.963200  1.0
  H  H410  1  0.873900  0.296500  0.036800  1.0
  H  H411  1  0.740300  0.162900  0.036800  1.0
  H  H412  1  0.126100  0.703500  0.963200  1.0
  H  H413  1  0.227000  0.818600  0.893000  1.0
  H  H414  1  0.925600  0.334000  0.107000  1.0
  H  H415  1  0.773000  0.181400  0.107000  1.0
  H  H416  1  0.074400  0.666000  0.893000  1.0
  H  H417  1  0.140000  0.821400  0.884600  1.0
  H  H418  1  0.936800  0.255400  0.115400  1.0
  H  H419  1  0.860000  0.178600  0.115400  1.0
  H  H420  1  0.063200  0.744600  0.884600  1.0
  H  H421  1  0.182700  0.856000  0.961900  1.0
  H  H422  1  0.894100  0.220800  0.038100  1.0
  H  H423  1  0.817300  0.144000  0.038100  1.0
  H  H424  1  0.105900  0.779200  0.961900  1.0
  H  H425  1  0.067400  0.761100  0.088700  1.0
  H  H426  1  0.672400  0.978700  0.911300  1.0
  H  H427  1  0.932600  0.238900  0.911300  1.0
  H  H428  1  0.327600  0.021300  0.088700  1.0
  H  H429  1  0.059000  0.800400  0.050800  1.0
  H  H430  1  0.749600  0.008200  0.949200  1.0
  H  H431  1  0.941000  0.199600  0.949200  1.0
  H  H432  1  0.250400  0.991800  0.050800  1.0
  H  H433  1  0.155300  0.882100  0.114000  1.0
  H  H434  1  0.768100  0.041300  0.886000  1.0
  H  H435  1  0.844700  0.117900  0.886000  1.0
  H  H436  1  0.231900  0.958700  0.114000  1.0
  H  H437  1  0.170800  0.832500  0.142900  1.0
  H  H438  1  0.689600  0.027900  0.857100  1.0
  H  H439  1  0.829200  0.167500  0.857100  1.0
  H  H440  1  0.310400  0.972100  0.142900  1.0
  H  H441  1  0.098500  0.930700  0.204400  1.0
  H  H442  1  0.726300  0.894100  0.795600  1.0
  H  H443  1  0.901500  0.069300  0.795600  1.0
  H  H444  1  0.273700  0.105900  0.204400  1.0
  H  H445  1  0.098800  0.883900  0.234900  1.0
  H  H446  1  0.649000  0.863900  0.765100  1.0
  H  H447  1  0.901200  0.116100  0.765100  1.0
  H  H448  1  0.351000  0.136100  0.234900  1.0
  H  H449  1  0.189800  0.941400  0.206000  1.0
  H  H450  1  0.735400  0.983800  0.794000  1.0
  H  H451  1  0.810200  0.058600  0.794000  1.0
  H  H452  1  0.264600  0.016200  0.206000  1.0
  H  H453  1  0.182400  0.882100  0.228300  1.0
  H  H454  1  0.653800  0.954100  0.771700  1.0
  H  H455  1  0.817600  0.117900  0.771700  1.0
  H  H456  1  0.346200  0.045900  0.228300  1.0
  H  H457  1  0.293800  0.823700  0.776500  1.0
  H  H458  1  0.047200  0.517300  0.223500  1.0
  H  H459  1  0.706200  0.176300  0.223500  1.0
  H  H460  1  0.952800  0.482700  0.776500  1.0
  H  H461  1  0.369100  0.855400  0.795500  1.0
  H  H462  1  0.059900  0.573600  0.204500  1.0
  H  H463  1  0.630900  0.144600  0.204500  1.0
  H  H464  1  0.940100  0.426400  0.795500  1.0
  H  H465  1  0.257400  0.821100  0.684100  1.0
  H  H466  1  0.137000  0.573300  0.315900  1.0
  H  H467  1  0.742600  0.178900  0.315900  1.0
  H  H468  1  0.863000  0.426700  0.684100  1.0
  H  H469  1  0.334500  0.885600  0.721700  1.0
  H  H470  1  0.163900  0.612800  0.278300  1.0
  H  H471  1  0.665500  0.114400  0.278300  1.0
  H  H472  1  0.836100  0.387200  0.721700  1.0
  H  H473  1  0.324500  0.721800  0.642100  1.0
  H  H474  1  0.079700  0.682400  0.357900  1.0
  H  H475  1  0.675500  0.278200  0.357900  1.0
  H  H476  1  0.920300  0.317600  0.642100  1.0
  H  H477  1  0.252300  0.707500  0.624200  1.0
  H  H478  1  0.083300  0.628100  0.375800  1.0
  H  H479  1  0.747700  0.292500  0.375800  1.0
  H  H480  1  0.916700  0.371900  0.624200  1.0
  H  H481  1  0.372400  0.835300  0.676300  1.0
  H  H482  1  0.159000  0.696100  0.323700  1.0
  H  H483  1  0.627600  0.164700  0.323700  1.0
  H  H484  1  0.841000  0.303900  0.676300  1.0
  H  H485  1  0.293700  0.809000  0.619900  1.0
  H  H486  1  0.189100  0.673800  0.380100  1.0
  H  H487  1  0.706300  0.191000  0.380100  1.0
  H  H488  1  0.810900  0.326200  0.619900  1.0
  H  H489  1  0.487900  0.953100  0.291600  1.0
  H  H490  1  0.661500  0.196300  0.708400  1.0
  H  H491  1  0.512100  0.046900  0.708400  1.0
  H  H492  1  0.338500  0.803700  0.291600  1.0
  H  H493  1  0.429500  0.926400  0.225300  1.0
  H  H494  1  0.701100  0.204200  0.774700  1.0
  H  H495  1  0.570500  0.073600  0.774700  1.0
  H  H496  1  0.298900  0.795800  0.225300  1.0
  H  H497  1  0.436400  0.979200  0.334400  1.0
  H  H498  1  0.644800  0.102000  0.665600  1.0
  H  H499  1  0.563600  0.020800  0.665600  1.0
  H  H500  1  0.355200  0.898000  0.334400  1.0
  H  H501  1  0.380700  0.963900  0.263400  1.0
  H  H502  1  0.700500  0.117300  0.736600  1.0
  H  H503  1  0.619300  0.036100  0.736600  1.0
  H  H504  1  0.299500  0.882700  0.263400  1.0
  H  H505  1  0.823500  0.004200  0.474100  1.0
  H  H506  1  0.530100  0.349400  0.525900  1.0
  H  H507  1  0.176500  0.995800  0.525900  1.0
  H  H508  1  0.469900  0.650600  0.474100  1.0
  H  H509  1  0.852000  0.013400  0.430800  1.0
  H  H510  1  0.582600  0.421200  0.569200  1.0
  H  H511  1  0.148000  0.986600  0.569200  1.0
  H  H512  1  0.417400  0.578800  0.430800  1.0
  H  H513  1  0.840200  0.099200  0.502400  1.0
  H  H514  1  0.596800  0.337800  0.497600  1.0
  H  H515  1  0.159800  0.900800  0.497600  1.0
  H  H516  1  0.403200  0.662200  0.502400  1.0
  H  H517  1  0.873300  0.110100  0.457600  1.0
  H  H518  1  0.652500  0.415700  0.542400  1.0
  H  H519  1  0.126700  0.889900  0.542400  1.0
  H  H520  1  0.347500  0.584300  0.457600  1.0
  H  H521  1  0.721200  0.041500  0.328900  1.0
  H  H522  1  0.712600  0.392300  0.671100  1.0
  H  H523  1  0.278800  0.958500  0.671100  1.0
  H  H524  1  0.287400  0.607700  0.328900  1.0
  H  H525  1  0.679100  0.031000  0.360700  1.0
  H  H526  1  0.670300  0.318400  0.639300  1.0
  H  H527  1  0.320900  0.969000  0.639300  1.0
  H  H528  1  0.329700  0.681600  0.360700  1.0
  H  H529  1  0.797600  0.129500  0.407300  1.0
  H  H530  1  0.722200  0.390300  0.592700  1.0
  H  H531  1  0.202400  0.870500  0.592700  1.0
  H  H532  1  0.277800  0.609700  0.407300  1.0
  H  H533  1  0.758700  0.109500  0.446600  1.0
  H  H534  1  0.662900  0.312100  0.553400  1.0
  H  H535  1  0.241300  0.890500  0.553400  1.0
  H  H536  1  0.337100  0.687900  0.446600  1.0
  H  H537  1  0.844700  0.843500  0.543200  1.0
  H  H538  1  0.300300  0.301500  0.456800  1.0
  H  H539  1  0.155300  0.156500  0.456800  1.0
  H  H540  1  0.699700  0.698500  0.543200  1.0
  H  H541  1  0.810800  0.882600  0.551800  1.0
  H  H542  1  0.330800  0.259000  0.448200  1.0
  H  H543  1  0.189200  0.117400  0.448200  1.0
  H  H544  1  0.669200  0.741000  0.551800  1.0
  H  H545  1  0.872700  0.844100  0.635200  1.0
  H  H546  1  0.208900  0.237500  0.364800  1.0
  H  H547  1  0.127300  0.155900  0.364800  1.0
  H  H548  1  0.791100  0.762500  0.635200  1.0
  H  H549  1  0.838400  0.888800  0.645600  1.0
  H  H550  1  0.243200  0.192800  0.354400  1.0
  H  H551  1  0.161600  0.111200  0.354400  1.0
  H  H552  1  0.756800  0.807200  0.645600  1.0
  N  N553  1  0.292500  0.457800  0.265900  1
  N  N554  1  0.191900  0.026600  0.734100  1
  N  N555  1  0.707500  0.542200  0.734100  1
  N  N556  1  0.808100  0.973400  0.265900  1
  N  N557  1  0.228300  0.228300  1.000000  1
  N  N558  1  0.771700  0.771700  1.000000  1
  N  N559  1  0.069900  0.384600  0.092100  1
  N  N560  1  0.292500  0.977800  0.907900  1
  N  N561  1  0.930100  0.615400  0.907900  1
  N  N562  1  0.707500  0.022200  0.092100  1
  N  N563  1  0.495700  0.186500  0.194200  1
  N  N564  1  0.992300  0.301500  0.805800  1
  N  N565  1  0.504300  0.813500  0.805800  1
  N  N566  1  0.007700  0.698500  0.194200  1
  N  N567  1  0.889000  0.389000  0.500000  1
  N  N568  1  0.111000  0.611000  0.500000  1
  N  N569  1  0.027300  0.407000  0.225300  1
  N  N570  1  0.181700  0.802000  0.774700  1
  N  N571  1  0.972700  0.593000  0.774700  1
  N  N572  1  0.818300  0.198000  0.225300  1
  N  N573  1  0.209800  0.667000  0.191000  1
  N  N574  1  0.476000  0.018800  0.809000  1
  N  N575  1  0.790200  0.333000  0.809000  1
  N  N576  1  0.524000  0.981200  0.191000  1
  N  N577  1  0.799900  0.662000  0.461900  1
  N  N578  1  0.200100  0.338000  0.538100  1
  N  N579  1  0.881000  0.953100  0.783500  1
  N  N580  1  0.169600  0.097500  0.216500  1
  N  N581  1  0.119000  0.046900  0.216500  1
  N  N582  1  0.830400  0.902500  0.783500  1
  N  N583  1  0.446600  0.270900  0.717500  1
  N  N584  1  0.553400  0.729100  0.282500  1
  N  N585  1  0.929300  0.118700  0.048000  1
  N  N586  1  0.070700  0.881300  0.952000  1
  N  N587  1  0.588500  0.860300  0.448800  1
  N  N588  1  0.411500  0.139700  0.551200  1
  N  N589  1  0.241000  0.559300  0.800300  1
  N  N590  1  0.759000  0.440700  0.199700  1
  N  N591  1  0.086300  0.591500  0.677800  1
  N  N592  1  0.913700  0.408500  0.322200  1
  N  N593  1  0.942100  0.832300  0.150800  1.0
  N  N594  1  0.681500  0.791300  0.849200  1.0
  N  N595  1  0.057900  0.167700  0.849200  1.0
  N  N596  1  0.318500  0.208700  0.150800  1.0
  N  N597  1  0.889300  0.894800  0.162700  1.0
  N  N598  1  0.732100  0.726600  0.837300  1.0
  N  N599  1  0.110700  0.105200  0.837300  1.0
  N  N600  1  0.267900  0.273400  0.162700  1.0
  N  N601  1  0.730600  0.794100  0.412900  1.0
  N  N602  1  0.381200  0.317700  0.587100  1.0
  N  N603  1  0.269400  0.205900  0.587100  1.0
  N  N604  1  0.618800  0.682300  0.412900  1.0
  N  N605  1  0.735100  0.869100  0.366400  1.0
  N  N606  1  0.502700  0.368700  0.633600  1.0
  N  N607  1  0.264900  0.130900  0.633600  1.0
  N  N608  1  0.497300  0.631300  0.366400  1.0
  N  N609  1  0.624900  0.892200  0.281900  1.0
  N  N610  1  0.610300  0.343000  0.718100  1.0
  N  N611  1  0.375100  0.107800  0.718100  1.0
  N  N612  1  0.389700  0.657000  0.281900  1.0
  N  N613  1  0.502800  0.844700  0.237700  1.0
  N  N614  1  0.607000  0.265100  0.762300  1.0
  N  N615  1  0.497200  0.155300  0.762300  1.0
  N  N616  1  0.393000  0.734900  0.237700  1.0
  N  N617  1  0.279100  0.726800  0.894300  1.0
  N  N618  1  0.832500  0.384800  0.105700  1.0
  N  N619  1  0.720900  0.273200  0.105700  1.0
  N  N620  1  0.167500  0.615200  0.894300  1.0
  N  N621  1  0.329500  0.736000  0.826900  1.0
  N  N622  1  0.909100  0.502600  0.173100  1.0
  N  N623  1  0.670500  0.264000  0.173100  1.0
  N  N624  1  0.090900  0.497400  0.826900  1.0
  N  N625  1  0.931500  0.597000  0.290500  1.0
  N  N626  1  0.306500  0.641000  0.709500  1.0
  N  N627  1  0.068500  0.403000  0.709500  1.0
  N  N628  1  0.693500  0.359000  0.290500  1.0
  N  N629  1  0.706200  0.884200  0.966800  1.0
  N  N630  1  0.917400  0.739400  0.033200  1.0
  N  N631  1  0.293800  0.115800  0.033200  1.0
  N  N632  1  0.082600  0.260600  0.966800  1.0
  N  N633  1  0.779600  0.917400  0.077600  1.0
  N  N634  1  0.839800  0.702000  0.922400  1.0
  N  N635  1  0.220400  0.082600  0.922400  1.0
  N  N636  1  0.160200  0.298000  0.077600  1.0
  N  N637  1  0.880900  0.586100  0.356200  1.0
  N  N638  1  0.229900  0.524700  0.643800  1.0
  N  N639  1  0.119100  0.413900  0.643800  1.0
  N  N640  1  0.770100  0.475300  0.356200  1.0
  N  N641  1  0.528100  0.807000  0.984500  1.0
  N  N642  1  0.822500  0.543600  0.015500  1.0
  N  N643  1  0.471900  0.193000  0.015500  1.0
  N  N644  1  0.177500  0.456400  0.984500  1.0
  N  N645  1  0.476600  0.798300  0.050900  1.0
  N  N646  1  0.747400  0.425700  0.949100  1.0
  N  N647  1  0.523400  0.201700  0.949100  1.0
  N  N648  1  0.252600  0.574300  0.050900  1.0
  N  N649  1  0.870300  0.732500  0.250400  1.0
  N  N650  1  0.482100  0.619900  0.749600  1.0
  N  N651  1  0.129700  0.267500  0.749600  1.0
  N  N652  1  0.517900  0.380100  0.250400  1.0
  N  N653  1  0.818500  0.722000  0.315500  1.0
  N  N654  1  0.406500  0.503000  0.684500  1.0
  N  N655  1  0.181500  0.278000  0.684500  1.0
  N  N656  1  0.593500  0.497000  0.315500  1.0
  N  N657  1  0.878200  0.060800  0.155200  1.0
  N  N658  1  0.905600  0.723000  0.844800  1.0
  N  N659  1  0.121800  0.939200  0.844800  1.0
  N  N660  1  0.094400  0.277000  0.155200  1.0
  N  N661  1  0.976800  0.041800  0.235600  1.0
  N  N662  1  0.806200  0.741200  0.764400  1.0
  N  N663  1  0.023200  0.958200  0.764400  1.0
  N  N664  1  0.193800  0.258800  0.235600  1.0
  N  N665  1  0.865900  0.527100  0.493800  1.0
  N  N666  1  0.033300  0.372100  0.506200  1.0
  N  N667  1  0.134100  0.472900  0.506200  1.0
  N  N668  1  0.966700  0.627900  0.493800  1.0
  N  N669  1  0.219500  0.808300  0.924000  1.0
  N  N670  1  0.884300  0.295500  0.076000  1.0
  N  N671  1  0.780500  0.191700  0.076000  1.0
  N  N672  1  0.115700  0.704500  0.924000  1.0
  N  N673  1  0.071300  0.801200  0.090900  1.0
  N  N674  1  0.710300  0.980400  0.909100  1.0
  N  N675  1  0.928700  0.198800  0.909100  1.0
  N  N676  1  0.289700  0.019600  0.090900  1.0
  N  N677  1  0.097000  0.890900  0.199500  1.0
  N  N678  1  0.691400  0.897500  0.800500  1.0
  N  N679  1  0.903000  0.109100  0.800500  1.0
  N  N680  1  0.308600  0.102500  0.199500  1.0
  N  N681  1  0.324400  0.823100  0.762900  1.0
  N  N682  1  0.060200  0.561500  0.237100  1.0
  N  N683  1  0.675600  0.176900  0.237100  1.0
  N  N684  1  0.939800  0.438500  0.762900  1.0
  N  N685  1  0.298900  0.735800  0.654900  1.0
  N  N686  1  0.080900  0.644000  0.345100  1.0
  N  N687  1  0.701100  0.264200  0.345100  1.0
  N  N688  1  0.919100  0.356000  0.654900  1.0
  N  N689  1  0.440700  0.923800  0.263900  1.0
  N  N690  1  0.659900  0.176800  0.736100  1.0
  N  N691  1  0.559300  0.076200  0.736100  1.0
  N  N692  1  0.340100  0.823200  0.263900  1.0
  N  N693  1  0.819000  0.015200  0.440200  1.0
  N  N694  1  0.575000  0.378800  0.559800  1.0
  N  N695  1  0.181000  0.984800  0.559800  1.0
  N  N696  1  0.425000  0.621200  0.440200  1.0
  N  N697  1  0.720500  0.036300  0.364200  1.0
  N  N698  1  0.672100  0.356300  0.635800  1.0
  N  N699  1  0.279500  0.963700  0.635800  1.0
  N  N700  1  0.327900  0.643700  0.364200  1.0
  N  N701  1  0.810800  0.844300  0.551700  1.0
  N  N702  1  0.292600  0.259100  0.448300  1.0
  N  N703  1  0.189200  0.155700  0.448300  1.0
  N  N704  1  0.707400  0.740900  0.551700  1.0
  O  O705  1  0.318400  0.463800  0.231400  1
  O  O706  1  0.232400  0.087000  0.768600  1
  O  O707  1  0.681600  0.536200  0.768600  1
  O  O708  1  0.767600  0.913000  0.231400  1
  O  O709  1  0.230000  0.407700  0.240900  1
  O  O710  1  0.166800  0.989100  0.759100  1
  O  O711  1  0.770000  0.592300  0.759100  1
  O  O712  1  0.833200  0.010900  0.240900  1
  O  O713  1  0.318100  0.496200  0.319500  1
  O  O714  1  0.176700  0.998600  0.680500  1
  O  O715  1  0.681900  0.503800  0.680500  1
  O  O716  1  0.823300  0.001400  0.319500  1
  O  O717  1  0.181600  0.181600  1.000000  1
  O  O718  1  0.818400  0.818400  1.000000  1
  O  O719  1  0.021800  0.317500  0.046300  1
  O  O720  1  0.271200  0.975500  0.953700  1
  O  O721  1  0.978200  0.682500  0.953700  1
  O  O722  1  0.728800  0.024500  0.046300  1
  O  O723  1  0.066800  0.426400  0.068600  1
  O  O724  1  0.357800  0.998200  0.931400  1
  O  O725  1  0.933200  0.573600  0.931400  1
  O  O726  1  0.642200  0.001800  0.068600  1
  O  O727  1  0.113500  0.407000  0.153700  1
  O  O728  1  0.253300  0.959800  0.846300  1
  O  O729  1  0.886500  0.593000  0.846300  1
  O  O730  1  0.746700  0.040200  0.153700  1
  O  O731  1  0.494200  0.220200  0.170800  1
  O  O732  1  0.049400  0.323400  0.829200  1
  O  O733  1  0.505800  0.779800  0.829200  1
  O  O734  1  0.950600  0.676600  0.170800  1
  O  O735  1  0.445300  0.149800  0.201100  1
  O  O736  1  0.948700  0.244200  0.798900  1
  O  O737  1  0.554700  0.850200  0.798900  1
  O  O738  1  0.051300  0.755800  0.201100  1
  O  O739  1  0.535500  0.163600  0.207300  1
  O  O740  1  0.956300  0.328200  0.792700  1
  O  O741  1  0.464500  0.836400  0.792700  1
  O  O742  1  0.043700  0.671800  0.207300  1
  O  O743  1  0.982100  0.065900  0.628000  1
  O  O744  1  0.437900  0.354100  0.372000  1
  O  O745  1  0.017900  0.934100  0.372000  1
  O  O746  1  0.562100  0.645900  0.628000  1
  O  O747  1  0.937000  0.437000  0.500000  1
  O  O748  1  0.063000  0.563000  0.500000  1
  O  O749  1  0.963800  0.274800  0.574000  1
  O  O750  1  0.700800  0.389800  0.426000  1
  O  O751  1  0.036200  0.725200  0.426000  1
  O  O752  1  0.299200  0.610200  0.574000  1
  O  O753  1  0.009500  0.422100  0.181000  1
  O  O754  1  0.241100  0.828500  0.819000  1
  O  O755  1  0.990500  0.577900  0.819000  1
  O  O756  1  0.758900  0.171500  0.181000  1
  O  O757  1  0.999200  0.346800  0.217000  1
  O  O758  1  0.129800  0.782200  0.783000  1
  O  O759  1  0.000800  0.653200  0.783000  1
  O  O760  1  0.870200  0.217800  0.217000  1
  O  O761  1  0.075800  0.453600  0.283400  1
  O  O762  1  0.170200  0.792400  0.716600  1
  O  O763  1  0.924200  0.546400  0.716600  1
  O  O764  1  0.829800  0.207600  0.283400  1
  O  O765  1  0.255900  0.675800  0.241700  1
  O  O766  1  0.434100  0.014200  0.758300  1
  O  O767  1  0.744100  0.324200  0.758300  1
  O  O768  1  0.565900  0.985800  0.241700  1
  O  O769  1  0.165300  0.594300  0.148000  1
  O  O770  1  0.446300  0.017300  0.852000  1
  O  O771  1  0.834700  0.405700  0.852000  1
  O  O772  1  0.553700  0.982700  0.148000  1
  O  O773  1  0.200000  0.677000  0.139000  1
  O  O774  1  0.538000  0.061000  0.861000  1
  O  O775  1  0.800000  0.323000  0.861000  1
  O  O776  1  0.462000  0.939000  0.139000  1
  O  O777  1  0.086200  0.530200  0.018000  1
  O  O778  1  0.512200  0.068200  0.982000  1
  O  O779  1  0.913800  0.469800  0.982000  1
  O  O780  1  0.487800  0.931800  0.018000  1
  O  O781  1  0.990800  0.353000  0.941200  1
  O  O782  1  0.411800  0.049600  0.058800  1
  O  O783  1  0.009200  0.647000  0.058800  1
  O  O784  1  0.588200  0.950400  0.941200  1
  O  O785  1  0.213700  0.542200  0.229300  1
  O  O786  1  0.312900  0.984400  0.770700  1
  O  O787  1  0.786300  0.457800  0.770700  1
  O  O788  1  0.687100  0.015600  0.229300  1
  O  O789  1  0.820400  0.972400  0.540200  1
  O  O790  1  0.432200  0.280200  0.459800  1
  O  O791  1  0.179600  0.027600  0.459800  1
  O  O792  1  0.567800  0.719800  0.540200  1
  O  O793  1  0.600500  0.027400  0.382900  1
  O  O794  1  0.644500  0.217600  0.617100  1
  O  O795  1  0.399500  0.972600  0.617100  1
  O  O796  1  0.355500  0.782400  0.382900  1
  O  O797  1  0.054500  0.849100  0.301000  1
  O  O798  1  0.548100  0.753500  0.699000  1
  O  O799  1  0.945500  0.150900  0.699000  1
  O  O800  1  0.451900  0.246500  0.301000  1
  O  O801  1  0.500700  0.921900  0.725000  1
  O  O802  1  0.196900  0.775700  0.275000  1
  O  O803  1  0.499300  0.078100  0.275000  1
  O  O804  1  0.803100  0.224300  0.725000  1
  O  O805  1  0.004500  0.294500  0.299000  1
  O  O806  1  0.995500  0.705500  0.701000  1
  O  O807  1  0.091000  0.276000  0.367000  1
  O  O808  1  0.909000  0.724000  0.633000  1
  O  O809  1  0.308000  0.032000  0.340000  1
  O  O810  1  0.692000  0.968000  0.660000  1
  O  O811  1  0.072900  0.129700  0.068800  1
  O  O812  1  0.060900  0.004100  0.931200  1
  O  O813  1  0.927100  0.870300  0.931200  1
  O  O814  1  0.939100  0.995900  0.068800  1
  O  O815  1  0.925000  0.966000  0.449000  1
  O  O816  1  0.517000  0.476000  0.551000  1
  O  O817  1  0.075000  0.034000  0.551000  1
  O  O818  1  0.483000  0.524000  0.449000  1
  O  O819  1  0.945000  0.176000  0.373000  1
  O  O820  1  0.803000  0.572000  0.627000  1
  O  O821  1  0.055000  0.824000  0.627000  1
  O  O822  1  0.197000  0.428000  0.373000  1
  O  O823  1  0.880300  0.898700  0.779000  1
  O  O824  1  0.119700  0.101300  0.221000  1
  O  O825  1  0.846000  0.964000  0.810000  1
  O  O826  1  0.154000  0.036000  0.190000  1
  O  O827  1  0.764600  0.640500  0.405100  1
  O  O828  1  0.235400  0.359500  0.594900  1
  O  O829  1  0.845100  0.644200  0.489300  1
  O  O830  1  0.154900  0.355800  0.510700  1
  O  O831  1  0.798100  0.704700  0.502800  1
  O  O832  1  0.201900  0.295300  0.497200  1
  O  O833  1  0.965000  0.994000  0.339000  1
  O  O834  1  0.655000  0.626000  0.661000  1
  O  O835  1  0.035000  0.006000  0.661000  1
  O  O836  1  0.345000  0.374000  0.339000  1
  O  O837  1  0.960100  0.034200  0.716700  1
  O  O838  1  0.317500  0.243400  0.283300  1
  O  O839  1  0.039900  0.965800  0.283300  1
  O  O840  1  0.682500  0.756600  0.716700  1
  O  O841  1  0.844500  0.264500  0.509000  1
  O  O842  1  0.755500  0.335500  0.491000  1
  O  O843  1  0.155500  0.735500  0.491000  1
  O  O844  1  0.244500  0.664500  0.509000  1
  O  O845  1  0.399200  0.679800  0.631000  1
  O  O846  1  0.048800  0.768200  0.369000  1
  O  O847  1  0.600800  0.320200  0.369000  1
  O  O848  1  0.951200  0.231800  0.631000  1
  O  O849  1  0.707900  0.503100  0.463000  1
  O  O850  1  0.040100  0.244900  0.537000  1
  O  O851  1  0.292100  0.496900  0.537000  1
  O  O852  1  0.959900  0.755100  0.463000  1
  O  O853  1  0.374500  0.891300  0.017000  1
  O  O854  1  0.874300  0.357500  0.983000  1
  O  O855  1  0.625500  0.108700  0.983000  1
  O  O856  1  0.125700  0.642500  0.017000  1
  O  O857  1  0.459100  0.927500  0.906000  1
  O  O858  1  0.021500  0.553100  0.094000  1
  O  O859  1  0.540900  0.072500  0.094000  1
  O  O860  1  0.978500  0.446900  0.906000  1
  O  O861  1  0.016800  0.078700  0.956700  1
  O  O862  1  0.122000  0.060100  0.043300  1
  O  O863  1  0.983200  0.921300  0.043300  1
  O  O864  1  0.878000  0.939900  0.956700  1
  O  O865  1  0.954800  0.894200  0.451000  1
  O  O866  1  0.443200  0.503800  0.549000  1
  O  O867  1  0.045200  0.105800  0.549000  1
  O  O868  1  0.556800  0.496200  0.451000  1
  O  O869  1  0.406100  0.255500  0.738600  1
  O  O870  1  0.516900  0.667500  0.261400  1
  O  O871  1  0.593900  0.744500  0.261400  1
  O  O872  1  0.483100  0.332500  0.738600  1
  O  O873  1  0.492800  0.283200  0.776000  1
  O  O874  1  0.507200  0.716800  0.224000  1
  O  O875  1  0.413600  0.302700  0.716300  1
  O  O876  1  0.586400  0.697300  0.283700  1
  O  O877  1  0.302800  0.596400  0.815400  1
  O  O878  1  0.781000  0.487400  0.184600  1
  O  O879  1  0.697200  0.403600  0.184600  1
  O  O880  1  0.219000  0.512600  0.815400  1
  O  O881  1  0.274100  0.589900  0.864000  1
  O  O882  1  0.725900  0.410100  0.136000  1
  O  O883  1  0.252700  0.520300  0.773000  1
  O  O884  1  0.747300  0.479700  0.227000  1
  O  O885  1  0.141800  0.646200  0.680200  1
  O  O886  1  0.966000  0.461600  0.319800  1
  O  O887  1  0.858200  0.353800  0.319800  1
  O  O888  1  0.034000  0.538400  0.680200  1
  O  O889  1  0.131500  0.647100  0.700000  1
  O  O890  1  0.947100  0.431500  0.300000  1
  O  O891  1  0.868500  0.352900  0.300000  1
  O  O892  1  0.052900  0.568500  0.700000  1
  O  O893  1  0.622900  0.904700  0.441200  1
  O  O894  1  0.463500  0.181700  0.558800  1
  O  O895  1  0.377100  0.095300  0.558800  1
  O  O896  1  0.536500  0.818300  0.441200  1
  O  O897  1  0.964000  0.159400  0.025400  1
  O  O898  1  0.134000  0.938600  0.974600  1
  O  O899  1  0.036000  0.840600  0.974600  1
  O  O900  1  0.866000  0.061400  0.025400  1
  O  O901  1  0.914000  0.993400  0.767000  1
  O  O902  1  0.226400  0.147000  0.233000  1
  O  O903  1  0.086000  0.006600  0.233000  1
  O  O904  1  0.773600  0.853000  0.767000  1
  O  O905  1  0.435600  0.232500  0.668100  1
  O  O906  1  0.564400  0.767500  0.331900  1
  O  O907  1  0.681800  0.247800  0.929600  1
  O  O908  1  0.318200  0.752200  0.070400  1
  O  O909  1  0.692300  0.205700  0.898000  1
  O  O910  1  0.307700  0.794300  0.102000  1
  O  O911  1  0.962700  0.142300  0.105000  1
  O  O912  1  0.037300  0.857700  0.895000  1
  O  O913  1  0.896000  0.107000  0.003000  1
  O  O914  1  0.104000  0.893000  0.997000  1
  O  O915  1  0.632100  0.853600  0.485700  1
  O  O916  1  0.367900  0.146400  0.514300  1
  O  O917  1  0.541400  0.868600  0.410000  1
  O  O918  1  0.458600  0.131400  0.590000  1
  O  O919  1  0.195800  0.570700  0.766500  1
  O  O920  1  0.804200  0.429300  0.233500  1
  O  O921  1  0.079600  0.552500  0.632100  1
  O  O922  1  0.920400  0.447500  0.367900  1
  O  O923  1  0.091700  0.621300  0.713000  1
  O  O924  1  0.908300  0.378700  0.287000  1
  O  O925  1  0.290300  0.245300  0.035600  1.0
  O  O926  1  0.209700  0.254700  0.964400  1.0
  O  O927  1  0.709700  0.754700  0.964400  1.0
  O  O928  1  0.790300  0.745300  0.035600  1.0
  O  O929  1  0.827000  0.376000  0.471000  1.0
  O  O930  1  0.905000  0.356000  0.529000  1.0
  O  O931  1  0.173000  0.624000  0.529000  1.0
  O  O932  1  0.095000  0.644000  0.471000  1.0
  O  O933  1  0.395600  0.538000  0.834000  1.0
  O  O934  1  0.704000  0.561600  0.166000  1.0
  O  O935  1  0.604400  0.462000  0.166000  1.0
  O  O936  1  0.296000  0.438400  0.834000  1.0
  O  O937  1  0.419900  0.621700  0.940000  1.0
  O  O938  1  0.681700  0.479900  0.060000  1.0
  O  O939  1  0.580100  0.378300  0.060000  1.0
  O  O940  1  0.318300  0.520100  0.940000  1.0
  Pd  Pd941  1  0.870070  0.553140  0.423210  1.0
  Pd  Pd942  1  0.129930  0.446860  0.576790  1.0
  Pd  Pd943  1  0.195450  0.711030  0.906480  1.0
  Pd  Pd944  1  0.804550  0.288970  0.093520  1.0
  Pd  Pd945  1  0.420040  0.830940  0.250980  1.0
  Pd  Pd946  1  0.579960  0.169060  0.749020  1.0
  Pd  Pd947  1  0.716820  0.764940  0.481760  1.0
  Pd  Pd948  1  0.283180  0.235060  0.518240  1.0
  Pd  Pd949  1  0.879240  0.976180  0.156300  1.0
  Pd  Pd950  1  0.819880  0.722940  0.843700  1.0
  Pd  Pd951  1  0.120760  0.023820  0.843700  1.0
  Pd  Pd952  1  0.180120  0.277060  0.156300  1.0
  Pd  Pd953  1  0.005060  0.815100  0.118380  1.0
  Pd  Pd954  1  0.696720  0.886680  0.881620  1.0
  Pd  Pd955  1  0.994940  0.184900  0.881620  1.0
  Pd  Pd956  1  0.303280  0.113320  0.118380  1.0
  Pd  Pd957  1  0.315590  0.733700  0.740110  1.0
  Pd  Pd958  1  0.993590  0.575480  0.259890  1.0
  Pd  Pd959  1  0.684410  0.266300  0.259890  1.0
  Pd  Pd960  1  0.006410  0.424520  0.740110  1.0
  Pd  Pd961  1  0.723450  0.951070  0.363960  1.0
  Pd  Pd962  1  0.587110  0.359490  0.636040  1.0
  Pd  Pd963  1  0.276550  0.048930  0.636040  1.0
  Pd  Pd964  1  0.412890  0.640510  0.363960  1.0
