
#######################################################################
#
#                 Cambridge Crystallographic Data Centre
#                                CCDC 
#
#######################################################################
#
# If this CIF has been generated from an entry in the Cambridge 
# Structural Database, then it will include bibliographic, chemical, 
# crystal, experimental, refinement or atomic coordinate data resulting 
# from the CCDC's data processing and validation procedures.
#
#######################################################################

data_NACBIF
_chemical_formula_moiety         
'C176 H272 N112 Pd24 48+,C28 H24 O4,48(N1 O3 1-),H2 O1'
_chemical_name_systematic        
'octakis(\m-2,4,6-tris(pyrimidin-5-yl)pyrimidine)-tetracosakis(ethylenediamine)-tetracosa-palladium(ii) calix[4]arene octatetracontakis(nitrate) unknown solvate hydrate'
_symmetry_cell_setting           monoclinic
_symmetry_space_group_name_H-M   'C 2/m'
_symmetry_Int_Tables_number      12
_space_group_name_Hall           '-C 2y'
loop_
_symmetry_equiv_pos_site_id
_symmetry_equiv_pos_as_xyz
1 x,y,z
2 -x,y,-z
3 1/2+x,1/2+y,z
4 1/2-x,1/2+y,-z
5 -x,-y,-z
6 x,-y,z
7 1/2-x,1/2-y,-z
8 1/2+x,1/2-y,z
_cell_length_a                   39.459(5)
_cell_length_b                   26.488(4)
_cell_length_c                   27.040(4)
_cell_angle_alpha                90
_cell_angle_beta                 130.2970(10)
_cell_angle_gamma                90
_cell_volume                     21555.4
_exptl_crystal_colour            'pale yellow'
_exptl_crystal_description       block
_cell_formula_units_Z            2
_exptl_crystal_recrystallization_method 'Re-crystallisation from solvent: water'
loop_
_atom_site_label
_atom_site_type_symbol
_atom_site_fract_x
_atom_site_fract_y
_atom_site_fract_z
N2 N 0.2156(6) 0.7578(7) 0.2659(9)
O4 O 0.1884(4) 0.7246(5) 0.2314(6)
O5 O 0.2093(10) 0.8016(12) 0.2409(14)
O6 O 0.2488(10) 0.7526(12) 0.3195(15)
N3 N 0.0000 0.7717(5) 0.0000
O7 O 0.0000 0.8184(6) 0.0000
O8 O -0.0047(5) 0.7500(6) 0.0356(8)
O8A O 0.0047(5) 0.7500(6) -0.0356(8)
N4 N 0.7034(9) 1.3188(12) 1.0921(15)
O9 O 0.6710(5) 1.3535(5) 1.0463(7)
O10 O 0.7141(7) 1.2877(8) 1.0686(10)
O11 O 0.7236(8) 1.3166(10) 1.1537(13)
N5 N 0.4425(5) 1.2560(6) 1.1942(7)
O12 O 0.4484(4) 1.2282(5) 1.1708(6)
O13 O 0.4528(8) 1.3030(10) 1.2011(12)
O14 O 0.4177(10) 1.2541(12) 1.2073(15)
O15 O -0.1441(17) 0.790(2) 0.628(2)
N6 N 0.0000 0.611(3) 0.5000
O16 O 0.0000 0.563(3) 0.5000
O17 O 0.010(3) 0.634(3) 0.471(4)
O17A O -0.010(3) 0.634(3) 0.529(4)
O18 O 0.4425(11) 1.1677(13) 0.5740(16)
N7 N 0.8025(11) 1.3955(14) 1.2253(18)
O19 O 0.7968(8) 1.3747(10) 1.1810(12)
O20 O 0.7823(17) 1.4355(16) 1.217(2)
O21 O 0.8306(17) 1.377(2) 1.2834(17)
N8 N 0.8241(15) 1.1571(16) 1.191(2)
O22 O 0.8308(11) 1.1550(11) 1.2417(17)
O23 O 0.7885(16) 1.1942(19) 1.148(2)
O24 O 0.808(2) 1.131(3) 1.139(3)
O25 O 0.7310(14) 1.2008(18) 1.018(2)
O26 O -0.0118(14) 0.4502(18) -0.166(3)
H1 H 0.0149 0.4495 -0.1314
O27 O 0.0709(11) 0.4492(12) -0.0600(14)
H2 H 0.0929 0.4604 -0.0549
C1 C -0.086(2) 0.5000 -0.222(3)
H3 H -0.1162 0.5000 -0.2645
H4 H -0.0640 0.5000 -0.2281
C2 C 0.0233(9) 0.3707(15) -0.0805(16)
H5 H 0.0315 0.3838 -0.1058
H6 H 0.0233 0.3334 -0.0832
C3 C 0.1369(18) 0.5000 0.063(3)
H7 H 0.1403 0.5000 0.0296
H8 H 0.1672 0.5000 0.1056
C4 C -0.0240(10) 0.3862(12) -0.1162(17)
C5 C -0.0393(10) 0.4297(12) -0.1540(16)
C6 C -0.0792(11) 0.4510(14) -0.181(2)
C7 C -0.1059(11) 0.4282(16) -0.171(2)
H9 H -0.1342 0.4422 -0.1900
C8 C -0.0913(13) 0.3839(17) -0.132(2)
H10 H -0.1085 0.3691 -0.1226
C9 C -0.0507(11) 0.3633(14) -0.108(2)
H11 H -0.0415 0.3322 -0.0851
C10 C 0.0611(13) 0.3844(14) -0.0103(17)
C11 C 0.0853(12) 0.4275(13) -0.0016(15)
C12 C 0.1150(15) 0.4506(17) 0.0565(16)
C13 C 0.1220(17) 0.4300(18) 0.1092(19)
H12 H 0.1442 0.4440 0.1510
C14 C 0.0966(16) 0.3878(17) 0.1024(18)
H13 H 0.0984 0.3761 0.1373
C15 C 0.0688(15) 0.3649(16) 0.0412(17)
H14 H 0.0549 0.3338 0.0365
O26A O 0.0118(14) 0.4502(18) 0.166(3)
H1A H -0.0149 0.4495 0.1314
O27A O -0.0709(11) 0.4492(12) 0.0600(14)
H2A H -0.0929 0.4604 0.0549
C1A C 0.086(2) 0.5000 0.222(3)
H3A H 0.1162 0.5000 0.2645
H4A H 0.0640 0.5000 0.2281
C2A C -0.0233(9) 0.3707(15) 0.0805(16)
H5A H -0.0315 0.3838 0.1058
H6A H -0.0233 0.3334 0.0832
C3A C -0.1369(18) 0.5000 -0.063(3)
H7A H -0.1403 0.5000 -0.0296
H8A H -0.1672 0.5000 -0.1056
C4A C 0.0240(10) 0.3862(12) 0.1162(17)
C5A C 0.0393(10) 0.4297(12) 0.1540(16)
C6A C 0.0792(11) 0.4510(14) 0.181(2)
C7A C 0.1059(11) 0.4282(16) 0.171(2)
H9A H 0.1342 0.4422 0.1900
C8A C 0.0913(13) 0.3839(17) 0.132(2)
H10A H 0.1085 0.3691 0.1226
C9A C 0.0507(11) 0.3633(14) 0.108(2)
H11A H 0.0415 0.3322 0.0851
C10A C -0.0611(13) 0.3844(14) 0.0103(17)
C11A C -0.0853(12) 0.4275(13) 0.0016(15)
C12A C -0.1150(15) 0.4506(17) -0.0565(16)
C13A C -0.1220(17) 0.4300(18) -0.1092(19)
H12A H -0.1442 0.4440 -0.1510
C14A C -0.0966(16) 0.3878(17) -0.1024(18)
H13A H -0.0984 0.3761 -0.1373
C15A C -0.0688(15) 0.3649(16) -0.0412(17)
H14A H -0.0549 0.3338 -0.0365
O26D O 0.0118(14) 0.5498(18) 0.166(3)
H1D H -0.0149 0.5505 0.1314
O27D O -0.0709(11) 0.5508(12) 0.0600(14)
H2D H -0.0929 0.5396 0.0549
C2D C -0.0233(9) 0.6293(15) 0.0805(16)
H5D H -0.0315 0.6162 0.1058
H6D H -0.0233 0.6666 0.0832
C4D C 0.0240(10) 0.6138(12) 0.1162(17)
C5D C 0.0393(10) 0.5703(12) 0.1540(16)
C6D C 0.0792(11) 0.5490(14) 0.181(2)
C7D C 0.1059(11) 0.5718(16) 0.171(2)
H9D H 0.1342 0.5578 0.1900
C8D C 0.0913(13) 0.6161(17) 0.132(2)
H10D H 0.1085 0.6309 0.1226
C9D C 0.0507(11) 0.6367(14) 0.108(2)
H11D H 0.0415 0.6678 0.0851
C10D C -0.0611(13) 0.6156(14) 0.0103(17)
C11D C -0.0853(12) 0.5725(13) 0.0016(15)
C12D C -0.1150(15) 0.5494(17) -0.0565(16)
C13D C -0.1220(17) 0.5700(18) -0.1092(19)
H12D H -0.1442 0.5560 -0.1510
C14D C -0.0966(16) 0.6122(17) -0.1024(18)
H13D H -0.0984 0.6239 -0.1373
C15D C -0.0688(15) 0.6351(16) -0.0412(17)
H14D H -0.0549 0.6662 -0.0365
O26E O -0.0118(14) 0.5498(18) -0.166(3)
H1E H 0.0149 0.5505 -0.1314
O27E O 0.0709(11) 0.5508(12) -0.0600(14)
H2E H 0.0929 0.5396 -0.0549
C2E C 0.0233(9) 0.6293(15) -0.0805(16)
H5E H 0.0315 0.6162 -0.1058
H6E H 0.0233 0.6666 -0.0832
C4E C -0.0240(10) 0.6138(12) -0.1162(17)
C5E C -0.0393(10) 0.5703(12) -0.1540(16)
C6E C -0.0792(11) 0.5490(14) -0.181(2)
C7E C -0.1059(11) 0.5718(16) -0.171(2)
H9E H -0.1342 0.5578 -0.1900
C8E C -0.0913(13) 0.6161(17) -0.132(2)
H10E H -0.1085 0.6309 -0.1226
C9E C -0.0507(11) 0.6367(14) -0.108(2)
H11E H -0.0415 0.6678 -0.0851
C10E C 0.0611(13) 0.6156(14) -0.0103(17)
C11E C 0.0853(12) 0.5725(13) -0.0016(15)
C12E C 0.1150(15) 0.5494(17) 0.0565(16)
C13E C 0.1220(17) 0.5700(18) 0.1092(19)
H12E H 0.1442 0.5560 0.1510
C14E C 0.0966(16) 0.6122(17) 0.1024(18)
H13E H 0.0984 0.6239 0.1373
C15E C 0.0688(15) 0.6351(16) 0.0412(17)
H14E H 0.0549 0.6662 0.0365
O28 O 0.6517(10) 1.2987(12) 0.9412(15)
O29 O 0.7789(7) 1.2367(8) 1.2293(10)
O30 O 0.3461(12) 0.3737(15) 0.5402(18)
O31 O 0.4049(13) 0.3775(16) 0.3829(18)
O32 O 0.0478(14) 0.1987(17) 0.301(2)
O33 O 0.0731(14) 0.1512(15) -0.275(2)
O34 O 0.2945(16) 0.0000 0.299(2)
O35 O 0.276(2) 0.0000 0.367(3)
O36 O 0.032(2) 0.0000 0.340(3)
O37 O 0.0628(10) 0.9331(12) 1.0688(15)
O38 O 0.245(2) 0.279(3) 0.449(4)
O39 O 0.302(2) 0.126(3) 0.373(3)
Pd1 Pd 0.12662(4) 0.15044(4) 0.15630(5)
Pd2 Pd 0.05314(5) 0.5000 0.42321(7)
Pd3 Pd 0.21103(5) 0.5000 -0.09352(9)
Pd4 Pd -0.03579(4) 0.14911(4) 0.11838(6)
Pd5 Pd 0.07911(4) 0.34541(5) -0.25989(6)
Pd6 Pd 0.33094(6) 0.5000 0.25098(9)
Pd7 Pd 0.29579(5) 0.34472(6) 0.36396(6)
Pd8 Pd 0.26494(7) 0.5000 0.48176(8)
N9 N 0.0205(4) 0.1882(5) 0.1508(5)
C16 C 0.0700(5) 0.3652(5) 0.2871(6)
N10 N 0.0841(4) 0.1893(4) 0.1627(6)
C17 C 0.1412(4) 0.4223(4) -0.1631(7)
H15 H 0.1367 0.4363 -0.1994
N11 N 0.2382(4) 0.4441(4) 0.4129(5)
N12 N 0.2502(4) 0.3811(5) 0.3664(6)
C18 C 0.1740(4) 0.4277(4) -0.0561(7)
H16 H 0.1937 0.4442 -0.0153
N13 N 0.2746(4) 0.3824(5) 0.2819(6)
N14 N 0.2898(4) 0.4451(5) 0.2377(6)
N15 N 0.1710(4) 0.4442(4) -0.1057(6)
C19 C 0.0814(4) 0.1687(5) 0.0182(6)
H17 H 0.0687 0.1368 0.0137
N16 N 0.1167(3) 0.3807(4) -0.1731(5)
C20 C 0.1245(4) 0.3241(4) 0.2709(6)
H18 H 0.1442 0.3085 0.2668
N17 N -0.0220(3) 0.3810(4) 0.2905(5)
C21 C 0.0963(4) 0.2339(5) 0.1956(6)
H19 H 0.1239 0.2488 0.2128
N18 N 0.0724(3) 0.1882(4) -0.0332(5)
N19 N 0.1077(3) 0.1903(3) 0.0776(5)
C22 C 0.2292(4) 0.3876(5) 0.1684(6)
N20 N 0.0307(3) 0.4446(4) 0.3562(5)
C23 C 0.1718(4) 0.3244(4) 0.0983(6)
H20 H 0.1781 0.3091 0.1352
C24 C -0.0079(4) 0.4208(4) 0.3296(6)
H21 H -0.0257 0.4329 0.3392
C25 C 0.0471(4) 0.1675(5) 0.1414(6)
H22 H 0.0387 0.1364 0.1188
C26 C 0.1182(4) 0.2566(4) 0.0309(6)
C27 C 0.0911(4) 0.2334(5) -0.0271(7)
H23 H 0.0852 0.2486 -0.0638
C28 C 0.0565(5) 0.4285(5) 0.3437(7)
H24 H 0.0842 0.4443 0.3635
C29 C 0.2545(5) 0.4274(5) 0.1778(7)
H25 H 0.2472 0.4438 0.1408
C30 C 0.1205(4) 0.3649(4) -0.1232(6)
H26 H 0.1028 0.3373 -0.1292
C31 C 0.2976(5) 0.4218(6) 0.2865(7)
H27 H 0.3216 0.4338 0.3287
C32 C 0.2110(5) 0.3646(5) 0.3355(7)
H28 H 0.2015 0.3365 0.3075
C33 C 0.1261(4) 0.2352(4) 0.0827(6)
H29 H 0.1449 0.2518 0.1235
C34 C 0.0418(4) 0.3866(5) 0.2995(6)
C35 C 0.1822(5) 0.3853(5) 0.3407(6)
C36 C 0.1967(5) 0.4274(5) 0.3811(7)
H30 H 0.1776 0.4437 0.3860
C37 C 0.0311(4) 0.2321(5) 0.1819(6)
H31 H 0.0125 0.2462 0.1891
C38 C 0.1493(4) 0.3873(5) -0.0626(7)
C39 C 0.2639(5) 0.4213(5) 0.4053(7)
H32 H 0.2932 0.4335 0.4281
C40 C 0.1352(4) 0.3660(5) 0.3050(6)
C41 C 0.0697(4) 0.2573(4) 0.2039(6)
C42 C 0.1409(4) 0.3053(5) 0.0381(7)
C43 C 0.1562(4) 0.3680(4) -0.0052(6)
C44 C 0.2400(5) 0.3670(5) 0.2229(7)
H33 H 0.2221 0.3404 0.2186
C45 C 0.0033(4) 0.3653(4) 0.2771(6)
H34 H -0.0067 0.3367 0.2496
C46 C 0.0833(4) 0.3046(5) 0.2418(6)
C47 C 0.1937(4) 0.3668(5) 0.1032(7)
N21 N 0.1317(3) 0.3247(4) -0.0155(5)
N22 N 0.1863(4) 0.3880(4) 0.0509(6)
N23 N 0.0563(4) 0.3238(4) 0.2504(5)
N24 N 0.1095(4) 0.3875(4) 0.3155(5)
N25 N 0.1689(5) 0.1081(5) 0.1552(7)
H35 H 0.1532 0.0869 0.1204
H36 H 0.1856 0.1286 0.1513
C48 C 0.1975(7) 0.0792(8) 0.2138(11)
H37 H 0.2038 0.0466 0.2032
H38 H 0.2260 0.0975 0.2439
N26 N 0.1503(5) 0.1085(5) 0.2356(7)
H39 H 0.1646 0.1289 0.2710
H40 H 0.1273 0.0933 0.2299
C49 C 0.1820(9) 0.0690(9) 0.2462(11)
H41 H 0.2077 0.0664 0.2932
H42 H 0.1668 0.0358 0.2316
N27 N 0.0775(5) 0.5504(5) 0.4938(6)
H43 H 0.0983 0.5695 0.4978
H44 H 0.0552 0.5713 0.4826
C50 C 0.0973(11) 0.5276(5) 0.5558(10)
H45 H 0.1284 0.5395 0.5879
H46 H 0.0811 0.5395 0.5702
N28 N 0.2564(5) 0.4481(5) -0.0760(9)
H47 H 0.2703 0.4332 -0.0368
H48 H 0.2423 0.4237 -0.1070
C51 C 0.2877(8) 0.4730(9) -0.0765(19)
H49 H 0.2830 0.4616 -0.1154
H50 H 0.3176 0.4616 -0.0381
N29 N -0.0896(4) 0.1092(5) 0.0909(7)
H51 H -0.1088 0.1301 0.0887
H52 H -0.1039 0.0957 0.0508
C52 C -0.0764(9) 0.0706(10) 0.1351(15)
H53 H -0.0796 0.0383 0.1140
H54 H -0.0977 0.0698 0.1429
N30 N -0.0033(6) 0.1058(7) 0.1995(8)
H55 H 0.0183 0.0876 0.2044
H56 H 0.0100 0.1261 0.2349
C53 C -0.0338(9) 0.0720(12) 0.1952(16)
H57 H -0.0212 0.0374 0.2060
H58 H -0.0360 0.0819 0.2283
N31 N 0.1308(5) 0.3077(7) -0.2371(8)
H59 H 0.1532 0.3295 -0.2235
H60 H 0.1409 0.2855 -0.2045
C54 C 0.1172(10) 0.2810(18) -0.2935(14)
H61 H 0.1239 0.3028 -0.3159
H62 H 0.1364 0.2508 -0.2783
N32 N 0.0459(5) 0.3101(8) -0.3451(8)
H63 H 0.0197 0.2979 -0.3579
H64 H 0.0397 0.3322 -0.3758
C55 C 0.0748(9) 0.2654(10) -0.3382(11)
H65 H 0.0696 0.2343 -0.3237
H66 H 0.0676 0.2586 -0.3801
N33 N 0.3735(5) 0.4497(6) 0.2639(8)
H67 H 0.3784 0.4253 0.2916
H68 H 0.3611 0.4347 0.2253
C56 C 0.4154(11) 0.4715(6) 0.289(2)
H69 H 0.4386 0.4594 0.3344
H70 H 0.4233 0.4594 0.2634
N34 N 0.3182(7) 0.3030(9) 0.4402(8)
H71 H 0.3274 0.3232 0.4741
H72 H 0.2961 0.2827 0.4308
C57 C 0.3546(11) 0.2727(15) 0.4572(14)
H73 H 0.3807 0.2815 0.5024
H74 H 0.3472 0.2371 0.4576
N35 N 0.3400(7) 0.3037(12) 0.3642(9)
H75 H 0.3246 0.2831 0.3289
H76 H 0.3563 0.3253 0.3607
C58 C 0.3684(16) 0.2748(19) 0.420(2)
H77 H 0.3696 0.2401 0.4073
H78 H 0.3987 0.2892 0.4466
N36 N 0.2926(6) 0.4483(8) 0.5517(7)
H79 H 0.2710 0.4275 0.5432
H80 H 0.3118 0.4292 0.5518
C59 C 0.3169(16) 0.4712(5) 0.6168(13)
H81 H 0.3033 0.4592 0.6352
H82 H 0.3480 0.4592 0.6456
N27E N 0.0775(5) 0.4496(5) 0.4938(6)
H43E H 0.0983 0.4305 0.4978
H44E H 0.0552 0.4287 0.4826
C50E C 0.0973(11) 0.4724(5) 0.5558(10)
H45E H 0.1284 0.4605 0.5879
H46E H 0.0811 0.4605 0.5702
N28E N 0.2564(5) 0.5519(5) -0.0760(9)
H47E H 0.2703 0.5668 -0.0368
H48E H 0.2423 0.5763 -0.1070
C51E C 0.2877(8) 0.5270(9) -0.0765(19)
H49E H 0.2830 0.5384 -0.1154
H50E H 0.3176 0.5384 -0.0381
N33E N 0.3735(5) 0.5503(6) 0.2639(8)
H67E H 0.3784 0.5747 0.2916
H68E H 0.3611 0.5653 0.2253
C56E C 0.4154(11) 0.5285(6) 0.289(2)
H69E H 0.4386 0.5406 0.3344
H70E H 0.4233 0.5406 0.2634
N36E N 0.2926(6) 0.5517(8) 0.5517(7)
H79E H 0.2710 0.5725 0.5432
H80E H 0.3118 0.5708 0.5518
C59E C 0.3169(16) 0.5288(5) 0.6168(13)
H81E H 0.3033 0.5408 0.6352
H82E H 0.3480 0.5408 0.6456
Pd1A Pd -0.12662(4) 0.15044(4) -0.15630(5)
Pd2A Pd -0.05314(5) 0.5000 -0.42321(7)
Pd3A Pd -0.21103(5) 0.5000 0.09352(9)
Pd4A Pd 0.03579(4) 0.14911(4) -0.11838(6)
Pd5A Pd -0.07911(4) 0.34541(5) 0.25989(6)
Pd6A Pd -0.33094(6) 0.5000 -0.25098(9)
Pd7A Pd -0.29579(5) 0.34472(6) -0.36396(6)
Pd8A Pd -0.26494(7) 0.5000 -0.48176(8)
N9A N -0.0205(4) 0.1882(5) -0.1508(5)
C16A C -0.0700(5) 0.3652(5) -0.2871(6)
N10A N -0.0841(4) 0.1893(4) -0.1627(6)
C17A C -0.1412(4) 0.4223(4) 0.1631(7)
H15A H -0.1367 0.4363 0.1994
N11A N -0.2382(4) 0.4441(4) -0.4129(5)
N12A N -0.2502(4) 0.3811(5) -0.3664(6)
C18A C -0.1740(4) 0.4277(4) 0.0561(7)
H16A H -0.1937 0.4442 0.0153
N13A N -0.2746(4) 0.3824(5) -0.2819(6)
N14A N -0.2898(4) 0.4451(5) -0.2377(6)
N15A N -0.1710(4) 0.4442(4) 0.1057(6)
C19A C -0.0814(4) 0.1687(5) -0.0182(6)
H17A H -0.0687 0.1368 -0.0137
N16A N -0.1167(3) 0.3807(4) 0.1731(5)
C20A C -0.1245(4) 0.3241(4) -0.2709(6)
H18A H -0.1442 0.3085 -0.2668
N17A N 0.0220(3) 0.3810(4) -0.2905(5)
C21A C -0.0963(4) 0.2339(5) -0.1956(6)
H19A H -0.1239 0.2488 -0.2128
N18A N -0.0724(3) 0.1882(4) 0.0332(5)
N19A N -0.1077(3) 0.1903(3) -0.0776(5)
C22A C -0.2292(4) 0.3876(5) -0.1684(6)
N20A N -0.0307(3) 0.4446(4) -0.3562(5)
C23A C -0.1718(4) 0.3244(4) -0.0983(6)
H20A H -0.1781 0.3091 -0.1352
C24A C 0.0079(4) 0.4208(4) -0.3296(6)
H21A H 0.0257 0.4329 -0.3392
C25A C -0.0471(4) 0.1675(5) -0.1414(6)
H22A H -0.0387 0.1364 -0.1188
C26A C -0.1182(4) 0.2566(4) -0.0309(6)
C27A C -0.0911(4) 0.2334(5) 0.0271(7)
H23A H -0.0852 0.2486 0.0638
C28A C -0.0565(5) 0.4285(5) -0.3437(7)
H24A H -0.0842 0.4443 -0.3635
C29A C -0.2545(5) 0.4274(5) -0.1778(7)
H25A H -0.2472 0.4438 -0.1408
C30A C -0.1205(4) 0.3649(4) 0.1232(6)
H26A H -0.1028 0.3373 0.1292
C31A C -0.2976(5) 0.4218(6) -0.2865(7)
H27A H -0.3216 0.4338 -0.3287
C32A C -0.2110(5) 0.3646(5) -0.3355(7)
H28A H -0.2015 0.3365 -0.3075
C33A C -0.1261(4) 0.2352(4) -0.0827(6)
H29A H -0.1449 0.2518 -0.1235
C34A C -0.0418(4) 0.3866(5) -0.2995(6)
C35A C -0.1822(5) 0.3853(5) -0.3407(6)
C36A C -0.1967(5) 0.4274(5) -0.3811(7)
H30A H -0.1776 0.4437 -0.3860
C37A C -0.0311(4) 0.2321(5) -0.1819(6)
H31A H -0.0125 0.2462 -0.1891
C38A C -0.1493(4) 0.3873(5) 0.0626(7)
C39A C -0.2639(5) 0.4213(5) -0.4053(7)
H32A H -0.2932 0.4335 -0.4281
C40A C -0.1352(4) 0.3660(5) -0.3050(6)
C41A C -0.0697(4) 0.2573(4) -0.2039(6)
C42A C -0.1409(4) 0.3053(5) -0.0381(7)
C43A C -0.1562(4) 0.3680(4) 0.0052(6)
C44A C -0.2400(5) 0.3670(5) -0.2229(7)
H33A H -0.2221 0.3404 -0.2186
C45A C -0.0033(4) 0.3653(4) -0.2771(6)
H34A H 0.0067 0.3367 -0.2496
C46A C -0.0833(4) 0.3046(5) -0.2418(6)
C47A C -0.1937(4) 0.3668(5) -0.1032(7)
N21A N -0.1317(3) 0.3247(4) 0.0155(5)
N22A N -0.1863(4) 0.3880(4) -0.0509(6)
N23A N -0.0563(4) 0.3238(4) -0.2504(5)
N24A N -0.1095(4) 0.3875(4) -0.3155(5)
N25A N -0.1689(5) 0.1081(5) -0.1552(7)
H35A H -0.1532 0.0869 -0.1204
H36A H -0.1856 0.1286 -0.1513
C48A C -0.1975(7) 0.0792(8) -0.2138(11)
H37A H -0.2038 0.0466 -0.2032
H38A H -0.2260 0.0975 -0.2439
N26A N -0.1503(5) 0.1085(5) -0.2356(7)
H39A H -0.1646 0.1289 -0.2710
H40A H -0.1273 0.0933 -0.2299
C49A C -0.1820(9) 0.0690(9) -0.2462(11)
H41A H -0.2077 0.0664 -0.2932
H42A H -0.1668 0.0358 -0.2316
N27A N -0.0775(5) 0.5504(5) -0.4938(6)
H43A H -0.0983 0.5695 -0.4978
H44A H -0.0552 0.5713 -0.4826
C50A C -0.0973(11) 0.5276(5) -0.5558(10)
H45A H -0.1284 0.5395 -0.5879
H46A H -0.0811 0.5395 -0.5702
N28A N -0.2564(5) 0.4481(5) 0.0760(9)
H47A H -0.2703 0.4332 0.0368
H48A H -0.2423 0.4237 0.1070
C51A C -0.2877(8) 0.4730(9) 0.0765(19)
H49A H -0.2830 0.4616 0.1154
H50A H -0.3176 0.4616 0.0381
N29A N 0.0896(4) 0.1092(5) -0.0909(7)
H51A H 0.1088 0.1301 -0.0887
H52A H 0.1039 0.0957 -0.0508
C52A C 0.0764(9) 0.0706(10) -0.1351(15)
H53A H 0.0796 0.0383 -0.1140
H54A H 0.0977 0.0698 -0.1429
N30A N 0.0033(6) 0.1058(7) -0.1995(8)
H55A H -0.0183 0.0876 -0.2044
H56A H -0.0100 0.1261 -0.2349
C53A C 0.0338(9) 0.0720(12) -0.1952(16)
H57A H 0.0212 0.0374 -0.2060
H58A H 0.0360 0.0819 -0.2283
N31A N -0.1308(5) 0.3077(7) 0.2371(8)
H59A H -0.1532 0.3295 0.2235
H60A H -0.1409 0.2855 0.2045
C54A C -0.1172(10) 0.2810(18) 0.2935(14)
H61A H -0.1239 0.3028 0.3159
H62A H -0.1364 0.2508 0.2783
N32A N -0.0459(5) 0.3101(8) 0.3451(8)
H63A H -0.0197 0.2979 0.3579
H64A H -0.0397 0.3322 0.3758
C55A C -0.0748(9) 0.2654(10) 0.3382(11)
H65A H -0.0696 0.2343 0.3237
H66A H -0.0676 0.2586 0.3801
N33A N -0.3735(5) 0.4497(6) -0.2639(8)
H67A H -0.3784 0.4253 -0.2916
H68A H -0.3611 0.4347 -0.2253
C56A C -0.4154(11) 0.4715(6) -0.289(2)
H69A H -0.4386 0.4594 -0.3344
H70A H -0.4233 0.4594 -0.2634
N34A N -0.3182(7) 0.3030(9) -0.4402(8)
H71A H -0.3274 0.3232 -0.4741
H72A H -0.2961 0.2827 -0.4308
C57A C -0.3546(11) 0.2727(15) -0.4572(14)
H73A H -0.3807 0.2815 -0.5024
H74A H -0.3472 0.2371 -0.4576
N35A N -0.3400(7) 0.3037(12) -0.3642(9)
H75A H -0.3246 0.2831 -0.3289
H76A H -0.3563 0.3253 -0.3607
C58A C -0.3684(16) 0.2748(19) -0.420(2)
H77A H -0.3696 0.2401 -0.4073
H78A H -0.3987 0.2892 -0.4466
N36A N -0.2926(6) 0.4483(8) -0.5517(7)
H79A H -0.2710 0.4275 -0.5432
H80A H -0.3118 0.4292 -0.5518
C59A C -0.3169(16) 0.4712(5) -0.6168(13)
H81A H -0.3033 0.4592 -0.6352
H82A H -0.3480 0.4592 -0.6456
N27D N -0.0775(5) 0.4496(5) -0.4938(6)
H43D H -0.0983 0.4305 -0.4978
H44D H -0.0552 0.4287 -0.4826
C50D C -0.0973(11) 0.4724(5) -0.5558(10)
H45D H -0.1284 0.4605 -0.5879
H46D H -0.0811 0.4605 -0.5702
N28D N -0.2564(5) 0.5519(5) 0.0760(9)
H47D H -0.2703 0.5668 0.0368
H48D H -0.2423 0.5763 0.1070
C51D C -0.2877(8) 0.5270(9) 0.0765(19)
H49D H -0.2830 0.5384 0.1154
H50D H -0.3176 0.5384 0.0381
N33D N -0.3735(5) 0.5503(6) -0.2639(8)
H67D H -0.3784 0.5747 -0.2916
H68D H -0.3611 0.5653 -0.2253
C56D C -0.4154(11) 0.5285(6) -0.289(2)
H69D H -0.4386 0.5406 -0.3344
H70D H -0.4233 0.5406 -0.2634
N36D N -0.2926(6) 0.5517(8) -0.5517(7)
H79D H -0.2710 0.5725 -0.5432
H80D H -0.3118 0.5708 -0.5518
C59D C -0.3169(16) 0.5288(5) -0.6168(13)
H81D H -0.3033 0.5408 -0.6352
H82D H -0.3480 0.5408 -0.6456
Pd1D Pd -0.12662(4) 0.84956(4) -0.15630(5)
Pd4D Pd 0.03579(4) 0.85089(4) -0.11838(6)
Pd5D Pd -0.07911(4) 0.65459(5) 0.25989(6)
Pd7D Pd -0.29579(5) 0.65528(6) -0.36396(6)
N9D N -0.0205(4) 0.8118(5) -0.1508(5)
C16D C -0.0700(5) 0.6348(5) -0.2871(6)
N10D N -0.0841(4) 0.8107(4) -0.1627(6)
C17D C -0.1412(4) 0.5777(4) 0.1631(7)
H15D H -0.1367 0.5637 0.1994
N11D N -0.2382(4) 0.5559(4) -0.4129(5)
N12D N -0.2502(4) 0.6189(5) -0.3664(6)
C18D C -0.1740(4) 0.5723(4) 0.0561(7)
H16D H -0.1937 0.5558 0.0153
N13D N -0.2746(4) 0.6176(5) -0.2819(6)
N14D N -0.2898(4) 0.5549(5) -0.2377(6)
N15D N -0.1710(4) 0.5558(4) 0.1057(6)
C19D C -0.0814(4) 0.8313(5) -0.0182(6)
H17D H -0.0687 0.8632 -0.0137
N16D N -0.1167(3) 0.6193(4) 0.1731(5)
C20D C -0.1245(4) 0.6759(4) -0.2709(6)
H18D H -0.1442 0.6915 -0.2668
N17D N 0.0220(3) 0.6190(4) -0.2905(5)
C21D C -0.0963(4) 0.7661(5) -0.1956(6)
H19D H -0.1239 0.7512 -0.2128
N18D N -0.0724(3) 0.8118(4) 0.0332(5)
N19D N -0.1077(3) 0.8097(3) -0.0776(5)
C22D C -0.2292(4) 0.6124(5) -0.1684(6)
N20D N -0.0307(3) 0.5554(4) -0.3562(5)
C23D C -0.1718(4) 0.6756(4) -0.0983(6)
H20D H -0.1781 0.6909 -0.1352
C24D C 0.0079(4) 0.5792(4) -0.3296(6)
H21D H 0.0257 0.5671 -0.3392
C25D C -0.0471(4) 0.8325(5) -0.1414(6)
H22D H -0.0387 0.8636 -0.1188
C26D C -0.1182(4) 0.7434(4) -0.0309(6)
C27D C -0.0911(4) 0.7666(5) 0.0271(7)
H23D H -0.0852 0.7514 0.0638
C28D C -0.0565(5) 0.5715(5) -0.3437(7)
H24D H -0.0842 0.5557 -0.3635
C29D C -0.2545(5) 0.5726(5) -0.1778(7)
H25D H -0.2472 0.5562 -0.1408
C30D C -0.1205(4) 0.6351(4) 0.1232(6)
H26D H -0.1028 0.6627 0.1292
C31D C -0.2976(5) 0.5782(6) -0.2865(7)
H27D H -0.3216 0.5662 -0.3287
C32D C -0.2110(5) 0.6354(5) -0.3355(7)
H28D H -0.2015 0.6635 -0.3075
C33D C -0.1261(4) 0.7648(4) -0.0827(6)
H29D H -0.1449 0.7482 -0.1235
C34D C -0.0418(4) 0.6134(5) -0.2995(6)
C35D C -0.1822(5) 0.6147(5) -0.3407(6)
C36D C -0.1967(5) 0.5726(5) -0.3811(7)
H30D H -0.1776 0.5563 -0.3860
C37D C -0.0311(4) 0.7679(5) -0.1819(6)
H31D H -0.0125 0.7538 -0.1891
C38D C -0.1493(4) 0.6127(5) 0.0626(7)
C39D C -0.2639(5) 0.5787(5) -0.4053(7)
H32D H -0.2932 0.5665 -0.4281
C40D C -0.1352(4) 0.6340(5) -0.3050(6)
C41D C -0.0697(4) 0.7427(4) -0.2039(6)
C42D C -0.1409(4) 0.6947(5) -0.0381(7)
C43D C -0.1562(4) 0.6320(4) 0.0052(6)
C44D C -0.2400(5) 0.6330(5) -0.2229(7)
H33D H -0.2221 0.6596 -0.2186
C45D C -0.0033(4) 0.6347(4) -0.2771(6)
H34D H 0.0067 0.6633 -0.2496
C46D C -0.0833(4) 0.6954(5) -0.2418(6)
C47D C -0.1937(4) 0.6332(5) -0.1032(7)
N21D N -0.1317(3) 0.6753(4) 0.0155(5)
N22D N -0.1863(4) 0.6120(4) -0.0509(6)
N23D N -0.0563(4) 0.6762(4) -0.2504(5)
N24D N -0.1095(4) 0.6125(4) -0.3155(5)
N25D N -0.1689(5) 0.8919(5) -0.1552(7)
H35D H -0.1532 0.9131 -0.1204
H36D H -0.1856 0.8714 -0.1513
C48D C -0.1975(7) 0.9208(8) -0.2138(11)
H37D H -0.2038 0.9534 -0.2032
H38D H -0.2260 0.9025 -0.2439
N26D N -0.1503(5) 0.8915(5) -0.2356(7)
H39D H -0.1646 0.8711 -0.2710
H40D H -0.1273 0.9067 -0.2299
C49D C -0.1820(9) 0.9310(9) -0.2462(11)
H41D H -0.2077 0.9336 -0.2932
H42D H -0.1668 0.9642 -0.2316
N29D N 0.0896(4) 0.8908(5) -0.0909(7)
H51D H 0.1088 0.8699 -0.0887
H52D H 0.1039 0.9043 -0.0508
C52D C 0.0764(9) 0.9294(10) -0.1351(15)
H53D H 0.0796 0.9617 -0.1140
H54D H 0.0977 0.9302 -0.1429
N30D N 0.0033(6) 0.8942(7) -0.1995(8)
H55D H -0.0183 0.9124 -0.2044
H56D H -0.0100 0.8739 -0.2349
C53D C 0.0338(9) 0.9280(12) -0.1952(16)
H57D H 0.0212 0.9626 -0.2060
H58D H 0.0360 0.9181 -0.2283
N31D N -0.1308(5) 0.6923(7) 0.2371(8)
H59D H -0.1532 0.6705 0.2235
H60D H -0.1409 0.7145 0.2045
C54D C -0.1172(10) 0.7190(18) 0.2935(14)
H61D H -0.1239 0.6972 0.3159
H62D H -0.1364 0.7492 0.2783
N32D N -0.0459(5) 0.6899(8) 0.3451(8)
H63D H -0.0197 0.7021 0.3579
H64D H -0.0397 0.6678 0.3758
C55D C -0.0748(9) 0.7346(10) 0.3382(11)
H65D H -0.0696 0.7657 0.3237
H66D H -0.0676 0.7414 0.3801
N34D N -0.3182(7) 0.6970(9) -0.4402(8)
H71D H -0.3274 0.6768 -0.4741
H72D H -0.2961 0.7173 -0.4308
C57D C -0.3546(11) 0.7273(15) -0.4572(14)
H73D H -0.3807 0.7185 -0.5024
H74D H -0.3472 0.7629 -0.4576
N35D N -0.3400(7) 0.6963(12) -0.3642(9)
H75D H -0.3246 0.7169 -0.3289
H76D H -0.3563 0.6747 -0.3607
C58D C -0.3684(16) 0.7252(19) -0.420(2)
H77D H -0.3696 0.7599 -0.4073
H78D H -0.3987 0.7108 -0.4466
Pd1E Pd 0.12662(4) 0.84956(4) 0.15630(5)
Pd4E Pd -0.03579(4) 0.85089(4) 0.11838(6)
Pd5E Pd 0.07911(4) 0.65459(5) -0.25989(6)
Pd7E Pd 0.29579(5) 0.65528(6) 0.36396(6)
N9E N 0.0205(4) 0.8118(5) 0.1508(5)
C16E C 0.0700(5) 0.6348(5) 0.2871(6)
N10E N 0.0841(4) 0.8107(4) 0.1627(6)
C17E C 0.1412(4) 0.5777(4) -0.1631(7)
H15E H 0.1367 0.5637 -0.1994
N11E N 0.2382(4) 0.5559(4) 0.4129(5)
N12E N 0.2502(4) 0.6189(5) 0.3664(6)
C18E C 0.1740(4) 0.5723(4) -0.0561(7)
H16E H 0.1937 0.5558 -0.0153
N13E N 0.2746(4) 0.6176(5) 0.2819(6)
N14E N 0.2898(4) 0.5549(5) 0.2377(6)
N15E N 0.1710(4) 0.5558(4) -0.1057(6)
C19E C 0.0814(4) 0.8313(5) 0.0182(6)
H17E H 0.0687 0.8632 0.0137
N16E N 0.1167(3) 0.6193(4) -0.1731(5)
C20E C 0.1245(4) 0.6759(4) 0.2709(6)
H18E H 0.1442 0.6915 0.2668
N17E N -0.0220(3) 0.6190(4) 0.2905(5)
C21E C 0.0963(4) 0.7661(5) 0.1956(6)
H19E H 0.1239 0.7512 0.2128
N18E N 0.0724(3) 0.8118(4) -0.0332(5)
N19E N 0.1077(3) 0.8097(3) 0.0776(5)
C22E C 0.2292(4) 0.6124(5) 0.1684(6)
N20E N 0.0307(3) 0.5554(4) 0.3562(5)
C23E C 0.1718(4) 0.6756(4) 0.0983(6)
H20E H 0.1781 0.6909 0.1352
C24E C -0.0079(4) 0.5792(4) 0.3296(6)
H21E H -0.0257 0.5671 0.3392
C25E C 0.0471(4) 0.8325(5) 0.1414(6)
H22E H 0.0387 0.8636 0.1188
C26E C 0.1182(4) 0.7434(4) 0.0309(6)
C27E C 0.0911(4) 0.7666(5) -0.0271(7)
H23E H 0.0852 0.7514 -0.0638
C28E C 0.0565(5) 0.5715(5) 0.3437(7)
H24E H 0.0842 0.5557 0.3635
C29E C 0.2545(5) 0.5726(5) 0.1778(7)
H25E H 0.2472 0.5562 0.1408
C30E C 0.1205(4) 0.6351(4) -0.1232(6)
H26E H 0.1028 0.6627 -0.1292
C31E C 0.2976(5) 0.5782(6) 0.2865(7)
H27E H 0.3216 0.5662 0.3287
C32E C 0.2110(5) 0.6354(5) 0.3355(7)
H28E H 0.2015 0.6635 0.3075
C33E C 0.1261(4) 0.7648(4) 0.0827(6)
H29E H 0.1449 0.7482 0.1235
C34E C 0.0418(4) 0.6134(5) 0.2995(6)
C35E C 0.1822(5) 0.6147(5) 0.3407(6)
C36E C 0.1967(5) 0.5726(5) 0.3811(7)
H30E H 0.1776 0.5563 0.3860
C37E C 0.0311(4) 0.7679(5) 0.1819(6)
H31E H 0.0125 0.7538 0.1891
C38E C 0.1493(4) 0.6127(5) -0.0626(7)
C39E C 0.2639(5) 0.5787(5) 0.4053(7)
H32E H 0.2932 0.5665 0.4281
C40E C 0.1352(4) 0.6340(5) 0.3050(6)
C41E C 0.0697(4) 0.7427(4) 0.2039(6)
C42E C 0.1409(4) 0.6947(5) 0.0381(7)
C43E C 0.1562(4) 0.6320(4) -0.0052(6)
C44E C 0.2400(5) 0.6330(5) 0.2229(7)
H33E H 0.2221 0.6596 0.2186
C45E C 0.0033(4) 0.6347(4) 0.2771(6)
H34E H -0.0067 0.6633 0.2496
C46E C 0.0833(4) 0.6954(5) 0.2418(6)
C47E C 0.1937(4) 0.6332(5) 0.1032(7)
N21E N 0.1317(3) 0.6753(4) -0.0155(5)
N22E N 0.1863(4) 0.6120(4) 0.0509(6)
N23E N 0.0563(4) 0.6762(4) 0.2504(5)
N24E N 0.1095(4) 0.6125(4) 0.3155(5)
N25E N 0.1689(5) 0.8919(5) 0.1552(7)
H35E H 0.1532 0.9131 0.1204
H36E H 0.1856 0.8714 0.1513
C48E C 0.1975(7) 0.9208(8) 0.2138(11)
H37E H 0.2038 0.9534 0.2032
H38E H 0.2260 0.9025 0.2439
N26E N 0.1503(5) 0.8915(5) 0.2356(7)
H39E H 0.1646 0.8711 0.2710
H40E H 0.1273 0.9067 0.2299
C49E C 0.1820(9) 0.9310(9) 0.2462(11)
H41E H 0.2077 0.9336 0.2932
H42E H 0.1668 0.9642 0.2316
N29E N -0.0896(4) 0.8908(5) 0.0909(7)
H51E H -0.1088 0.8699 0.0887
H52E H -0.1039 0.9043 0.0508
C52E C -0.0764(9) 0.9294(10) 0.1351(15)
H53E H -0.0796 0.9617 0.1140
H54E H -0.0977 0.9302 0.1429
N30E N -0.0033(6) 0.8942(7) 0.1995(8)
H55E H 0.0183 0.9124 0.2044
H56E H 0.0100 0.8739 0.2349
C53E C -0.0338(9) 0.9280(12) 0.1952(16)
H57E H -0.0212 0.9626 0.2060
H58E H -0.0360 0.9181 0.2283
N31E N 0.1308(5) 0.6923(7) -0.2371(8)
H59E H 0.1532 0.6705 -0.2235
H60E H 0.1409 0.7145 -0.2045
C54E C 0.1172(10) 0.7190(18) -0.2935(14)
H61E H 0.1239 0.6972 -0.3159
H62E H 0.1364 0.7492 -0.2783
N32E N 0.0459(5) 0.6899(8) -0.3451(8)
H63E H 0.0197 0.7021 -0.3579
H64E H 0.0397 0.6678 -0.3758
C55E C 0.0748(9) 0.7346(10) -0.3382(11)
H65E H 0.0696 0.7657 -0.3237
H66E H 0.0676 0.7414 -0.3801
N34E N 0.3182(7) 0.6970(9) 0.4402(8)
H71E H 0.3274 0.6768 0.4741
H72E H 0.2961 0.7173 0.4308
C57E C 0.3546(11) 0.7273(15) 0.4572(14)
H73E H 0.3807 0.7185 0.5024
H74E H 0.3472 0.7629 0.4576
N35E N 0.3400(7) 0.6963(12) 0.3642(9)
H75E H 0.3246 0.7169 0.3289
H76E H 0.3563 0.6747 0.3607
C58E C 0.3684(16) 0.7252(19) 0.420(2)
H77E H 0.3696 0.7599 0.4073
H78E H 0.3987 0.7108 0.4466
O40 O -0.1013(12) 1.0000 0.779(2)
O41 O -0.0360(13) 1.0000 0.810(3)
N1 N 0.1620(7) 0.5000 0.4619(10)
O1 O 0.1405(5) 0.5000 0.4051(7)
O2 O 0.1442(13) 0.5000 0.4893(19)
O3 O 0.2047(11) 0.5000 0.5028(16)
loop_
_geom_bond_atom_site_label_1
_geom_bond_atom_site_label_2
_geom_bond_site_symmetry_1
_geom_bond_site_symmetry_2
N1 O1 1_555 1_555
O2 N1 1_555 1_555
O3 N1 1_555 1_555
N2 O4 1_555 1_555
O5 N2 1_555 1_555
O6 N2 1_555 1_555
N3 O7 1_555 1_555
O8 N3 1_555 1_555
N4 O9 1_555 1_555
O10 N4 1_555 1_555
O11 N4 1_555 1_555
N5 O12 1_555 1_555
O13 N5 1_555 1_555
O14 N5 1_555 1_555
N6 O16 1_555 1_555
O17 N6 1_555 1_555
N7 O19 1_555 1_555
O20 N7 1_555 1_555
O21 N7 1_555 1_555
N8 O22 1_555 1_555
O23 N8 1_555 1_555
O24 N8 1_555 1_555
O26 H1 1_555 1_555
O27 H2 1_555 1_555
C1 H3 1_555 1_555
H4 C1 1_555 1_555
C2 H5 1_555 1_555
H6 C2 1_555 1_555
C3 H7 1_555 1_555
H8 C3 1_555 1_555
C4 C2 1_555 1_555
C5 O26 1_555 1_555
C6 C1 1_555 1_555
C7 C6 1_555 1_555
H9 C7 1_555 1_555
C8 C7 1_555 1_555
H10 C8 1_555 1_555
C9 C4 1_555 1_555
H11 C9 1_555 1_555
C10 C2 1_555 1_555
C11 O27 1_555 1_555
C12 C3 1_555 1_555
C13 C12 1_555 1_555
H12 C13 1_555 1_555
C14 C13 1_555 1_555
H13 C14 1_555 1_555
C15 C10 1_555 1_555
H14 C15 1_555 1_555
Pd1 N10 1_555 1_555
Pd2 N20 1_555 1_555
Pd3 N15 1_555 1_555
Pd4 N9 1_555 1_555
Pd5 N16 1_555 1_555
Pd6 N14 1_555 1_555
Pd7 N12 1_555 1_555
Pd8 N11 1_555 1_555
N9 C25 1_555 1_555
C16 C34 1_555 1_555
N10 C21 1_555 1_555
C17 H15 1_555 1_555
N11 C36 1_555 1_555
N12 C32 1_555 1_555
C18 H16 1_555 1_555
N13 Pd7 1_555 1_555
N14 C29 1_555 1_555
N15 C17 1_555 1_555
C19 H17 1_555 1_555
N16 C17 1_555 1_555
C20 H18 1_555 1_555
N17 C24 1_555 1_555
C21 H19 1_555 1_555
N18 C19 1_555 1_555
N19 Pd1 1_555 1_555
C22 C29 1_555 1_555
N20 C24 1_555 1_555
C23 H20 1_555 1_555
C24 H21 1_555 1_555
C25 N10 1_555 1_555
H22 C25 1_555 1_555
C26 C27 1_555 1_555
C27 N18 1_555 1_555
H23 C27 1_555 1_555
C28 N20 1_555 1_555
H24 C28 1_555 1_555
C29 H25 1_555 1_555
C30 N16 1_555 1_555
H26 C30 1_555 1_555
C31 N13 1_555 1_555
H27 C31 1_555 1_555
C32 H28 1_555 1_555
C33 N19 1_555 1_555
H29 C33 1_555 1_555
C34 C28 1_555 1_555
C35 C32 1_555 1_555
C36 C35 1_555 1_555
H30 C36 1_555 1_555
C37 N9 1_555 1_555
H31 C37 1_555 1_555
C38 C18 1_555 1_555
C39 N11 1_555 1_555
H32 C39 1_555 1_555
C40 C20 1_555 1_555
C41 C21 1_555 1_555
C42 C23 1_555 1_555
C43 C38 1_555 1_555
C44 N13 1_555 1_555
H33 C44 1_555 1_555
C45 N17 1_555 1_555
H34 C45 1_555 1_555
C46 C20 1_555 1_555
C47 C22 1_555 1_555
N21 C42 1_555 1_555
N22 C43 1_555 1_555
N23 C16 1_555 1_555
N24 C16 1_555 1_555
N25 Pd1 1_555 1_555
H35 N25 1_555 1_555
H36 N25 1_555 1_555
C48 N25 1_555 1_555
H37 C48 1_555 1_555
H38 C48 1_555 1_555
N26 Pd1 1_555 1_555
H39 N26 1_555 1_555
H40 N26 1_555 1_555
C49 C48 1_555 1_555
H41 C49 1_555 1_555
H42 C49 1_555 1_555
N27 Pd2 1_555 1_555
H43 N27 1_555 1_555
H44 N27 1_555 1_555
C50 N27 1_555 1_555
H45 C50 1_555 1_555
H46 C50 1_555 1_555
N28 Pd3 1_555 1_555
H47 N28 1_555 1_555
H48 N28 1_555 1_555
C51 N28 1_555 1_555
H49 C51 1_555 1_555
H50 C51 1_555 1_555
N29 Pd4 1_555 1_555
H51 N29 1_555 1_555
H52 N29 1_555 1_555
C52 N29 1_555 1_555
H53 C52 1_555 1_555
H54 C52 1_555 1_555
N30 Pd4 1_555 1_555
H55 N30 1_555 1_555
H56 N30 1_555 1_555
C53 C52 1_555 1_555
H57 C53 1_555 1_555
H58 C53 1_555 1_555
N31 Pd5 1_555 1_555
H59 N31 1_555 1_555
H60 N31 1_555 1_555
C54 N31 1_555 1_555
H61 C54 1_555 1_555
H62 C54 1_555 1_555
N32 Pd5 1_555 1_555
H63 N32 1_555 1_555
H64 N32 1_555 1_555
C55 C54 1_555 1_555
H65 C55 1_555 1_555
H66 C55 1_555 1_555
N33 Pd6 1_555 1_555
H67 N33 1_555 1_555
H68 N33 1_555 1_555
C56 N33 1_555 1_555
H69 C56 1_555 1_555
H70 C56 1_555 1_555
N34 Pd7 1_555 1_555
H71 N34 1_555 1_555
H72 N34 1_555 1_555
C57 N34 1_555 1_555
H73 C57 1_555 1_555
H74 C57 1_555 1_555
N35 Pd7 1_555 1_555
H75 N35 1_555 1_555
H76 N35 1_555 1_555
C58 C57 1_555 1_555
H77 C58 1_555 1_555
H78 C58 1_555 1_555
N36 Pd8 1_555 1_555
H79 N36 1_555 1_555
H80 N36 1_555 1_555
C59 N36 1_555 1_555
H81 C59 1_555 1_555
H82 C59 1_555 1_555
O8A N3 1_555 1_555
O17A N6 1_555 1_555
O26A H1A 1_555 1_555
O27A H2A 1_555 1_555
C1A H3A 1_555 1_555
H4A C1A 1_555 1_555
C2A H5A 1_555 1_555
H6A C2A 1_555 1_555
C3A H7A 1_555 1_555
H8A C3A 1_555 1_555
C4A C2A 1_555 1_555
C5A O26A 1_555 1_555
C6A C1A 1_555 1_555
C7A C6A 1_555 1_555
H9A C7A 1_555 1_555
C8A C14 1_555 1_555
H10A C14 1_555 1_555
C9A C4A 1_555 1_555
H11A C9A 1_555 1_555
C10A C2A 1_555 1_555
C11A O27A 1_555 1_555
C12A C3A 1_555 1_555
C13A C12A 1_555 1_555
H12A C13A 1_555 1_555
C14A C8 1_555 1_555
H13A C14A 1_555 1_555
C15A C10A 1_555 1_555
H14A C15A 1_555 1_555
O26D H1D 1_555 1_555
O27D H2D 1_555 1_555
C2D H5D 1_555 1_555
H6D C2D 1_555 1_555
C4D C2D 1_555 1_555
C5D O26D 1_555 1_555
C6D C1A 1_555 1_555
C7D C6D 1_555 1_555
H9D C7D 1_555 1_555
C8D C7D 1_555 1_555
H10D C8D 1_555 1_555
C9D C4D 1_555 1_555
H11D C9D 1_555 1_555
C10D C2D 1_555 1_555
C11D O27D 1_555 1_555
C12D C3A 1_555 1_555
C13D C12D 1_555 1_555
H12D C13D 1_555 1_555
C14D C13D 1_555 1_555
H13D C14D 1_555 1_555
C15D C10D 1_555 1_555
H14D C15D 1_555 1_555
O26E H1E 1_555 1_555
O27E H2E 1_555 1_555
C2E H5E 1_555 1_555
H6E C2E 1_555 1_555
C4E C2E 1_555 1_555
C5E O26E 1_555 1_555
C6E C1 1_555 1_555
C7E C6E 1_555 1_555
H9E C7E 1_555 1_555
C8E C14D 1_555 1_555
H10E C14D 1_555 1_555
C9E C4E 1_555 1_555
H11E C9E 1_555 1_555
C10E C2E 1_555 1_555
C11E O27E 1_555 1_555
C12E C3 1_555 1_555
C13E C12E 1_555 1_555
H12E C13E 1_555 1_555
C14E C8D 1_555 1_555
H13E C14E 1_555 1_555
C15E C10E 1_555 1_555
H14E C15E 1_555 1_555
N27E Pd2 1_555 1_555
H43E N27E 1_555 1_555
H44E N27E 1_555 1_555
C50E C50 1_555 1_555
H45E C50E 1_555 1_555
H46E C50E 1_555 1_555
N28E Pd3 1_555 1_555
H47E N28E 1_555 1_555
H48E N28E 1_555 1_555
C51E C51 1_555 1_555
H49E C51E 1_555 1_555
H50E C51E 1_555 1_555
N33E Pd6 1_555 1_555
H67E N33E 1_555 1_555
H68E N33E 1_555 1_555
C56E C56 1_555 1_555
H69E C56E 1_555 1_555
H70E C56E 1_555 1_555
N36E Pd8 1_555 1_555
H79E N36E 1_555 1_555
H80E N36E 1_555 1_555
C59E C59 1_555 1_555
H81E C59E 1_555 1_555
H82E C59E 1_555 1_555
Pd1A N10A 1_555 1_555
Pd2A N20A 1_555 1_555
Pd3A N15A 1_555 1_555
Pd4A N18 1_555 1_555
Pd5A N17 1_555 1_555
Pd6A N14A 1_555 1_555
Pd7A N12A 1_555 1_555
Pd8A N11A 1_555 1_555
N9A Pd4A 1_555 1_555
C16A C34A 1_555 1_555
N10A C21A 1_555 1_555
C17A H15A 1_555 1_555
N11A C36A 1_555 1_555
N12A C32A 1_555 1_555
C18A H16A 1_555 1_555
N13A Pd7A 1_555 1_555
N14A C29A 1_555 1_555
N15A C17A 1_555 1_555
C19A H17A 1_555 1_555
N16A Pd5A 1_555 1_555
C20A H18A 1_555 1_555
N17A Pd5 1_555 1_555
C21A H19A 1_555 1_555
N18A Pd4 1_555 1_555
N19A Pd1A 1_555 1_555
C22A C29A 1_555 1_555
N20A C24A 1_555 1_555
C23A H20A 1_555 1_555
C24A N17A 1_555 1_555
H21A C24A 1_555 1_555
C25A N9A 1_555 1_555
H22A C25A 1_555 1_555
C26A C27A 1_555 1_555
C27A N18A 1_555 1_555
H23A C27A 1_555 1_555
C28A N20A 1_555 1_555
H24A C28A 1_555 1_555
C29A H25A 1_555 1_555
C30A N16A 1_555 1_555
H26A C30A 1_555 1_555
C31A N13A 1_555 1_555
H27A C31A 1_555 1_555
C32A H28A 1_555 1_555
C33A N19A 1_555 1_555
H29A C33A 1_555 1_555
C34A C28A 1_555 1_555
C35A C32A 1_555 1_555
C36A C35A 1_555 1_555
H30A C36A 1_555 1_555
C37A N9A 1_555 1_555
H31A C37A 1_555 1_555
C38A C18A 1_555 1_555
C39A N11A 1_555 1_555
H32A C39A 1_555 1_555
C40A C20A 1_555 1_555
C41A C21A 1_555 1_555
C42A C23A 1_555 1_555
C43A C38A 1_555 1_555
C44A N13A 1_555 1_555
H33A C44A 1_555 1_555
C45A N17A 1_555 1_555
H34A C45A 1_555 1_555
C46A C20A 1_555 1_555
C47A C22A 1_555 1_555
N21A C42A 1_555 1_555
N22A C43A 1_555 1_555
N23A C16A 1_555 1_555
N24A C16A 1_555 1_555
N25A Pd1A 1_555 1_555
H35A N25A 1_555 1_555
H36A N25A 1_555 1_555
C48A N25A 1_555 1_555
H37A C48A 1_555 1_555
H38A C48A 1_555 1_555
N26A Pd1A 1_555 1_555
H39A N26A 1_555 1_555
H40A N26A 1_555 1_555
C49A C48A 1_555 1_555
H41A C49A 1_555 1_555
H42A C49A 1_555 1_555
N27A Pd2A 1_555 1_555
H43A N27A 1_555 1_555
H44A N27A 1_555 1_555
C50A N27A 1_555 1_555
H45A C50A 1_555 1_555
H46A C50A 1_555 1_555
N28A Pd3A 1_555 1_555
H47A N28A 1_555 1_555
H48A N28A 1_555 1_555
C51A N28A 1_555 1_555
H49A C51A 1_555 1_555
H50A C51A 1_555 1_555
N29A Pd4A 1_555 1_555
H51A N29A 1_555 1_555
H52A N29A 1_555 1_555
C52A N29A 1_555 1_555
H53A C52A 1_555 1_555
H54A C52A 1_555 1_555
N30A Pd4A 1_555 1_555
H55A N30A 1_555 1_555
H56A N30A 1_555 1_555
C53A C52A 1_555 1_555
H57A C53A 1_555 1_555
H58A C53A 1_555 1_555
N31A Pd5A 1_555 1_555
H59A N31A 1_555 1_555
H60A N31A 1_555 1_555
C54A N31A 1_555 1_555
H61A C54A 1_555 1_555
H62A C54A 1_555 1_555
N32A Pd5A 1_555 1_555
H63A N32A 1_555 1_555
H64A N32A 1_555 1_555
C55A C54A 1_555 1_555
H65A C55A 1_555 1_555
H66A C55A 1_555 1_555
N33A Pd6A 1_555 1_555
H67A N33A 1_555 1_555
H68A N33A 1_555 1_555
C56A N33A 1_555 1_555
H69A C56A 1_555 1_555
H70A C56A 1_555 1_555
N34A Pd7A 1_555 1_555
H71A N34A 1_555 1_555
H72A N34A 1_555 1_555
C57A N34A 1_555 1_555
H73A C57A 1_555 1_555
H74A C57A 1_555 1_555
N35A Pd7A 1_555 1_555
H75A N35A 1_555 1_555
H76A N35A 1_555 1_555
C58A C57A 1_555 1_555
H77A C58A 1_555 1_555
H78A C58A 1_555 1_555
N36A Pd8A 1_555 1_555
H79A N36A 1_555 1_555
H80A N36A 1_555 1_555
C59A N36A 1_555 1_555
H81A C59A 1_555 1_555
H82A C59A 1_555 1_555
N27D Pd2A 1_555 1_555
H43D N27D 1_555 1_555
H44D N27D 1_555 1_555
C50D C50A 1_555 1_555
H45D C50D 1_555 1_555
H46D C50D 1_555 1_555
N28D Pd3A 1_555 1_555
H47D N28D 1_555 1_555
H48D N28D 1_555 1_555
C51D C51A 1_555 1_555
H49D C51D 1_555 1_555
H50D C51D 1_555 1_555
N33D Pd6A 1_555 1_555
H67D N33D 1_555 1_555
H68D N33D 1_555 1_555
C56D C56A 1_555 1_555
H69D C56D 1_555 1_555
H70D C56D 1_555 1_555
N36D Pd8A 1_555 1_555
H79D N36D 1_555 1_555
H80D N36D 1_555 1_555
C59D C59A 1_555 1_555
H81D C59D 1_555 1_555
H82D C59D 1_555 1_555
Pd1D N10D 1_555 1_555
Pd4D N9D 1_555 1_555
Pd5D N16D 1_555 1_555
Pd7D N12D 1_555 1_555
N9D C25D 1_555 1_555
C16D C34D 1_555 1_555
N10D C21D 1_555 1_555
C17D H15D 1_555 1_555
N11D Pd8A 1_555 1_555
N12D C32D 1_555 1_555
C18D H16D 1_555 1_555
N13D Pd7D 1_555 1_555
N14D Pd6A 1_555 1_555
N15D Pd3A 1_555 1_555
C19D H17D 1_555 1_555
N16D C17D 1_555 1_555
C20D H18D 1_555 1_555
N17D C24D 1_555 1_555
C21D H19D 1_555 1_555
N18D C19D 1_555 1_555
N19D Pd1D 1_555 1_555
C22D C29D 1_555 1_555
N20D Pd2A 1_555 1_555
C23D H20D 1_555 1_555
C24D N20D 1_555 1_555
H21D C24D 1_555 1_555
C25D N10D 1_555 1_555
H22D C25D 1_555 1_555
C26D C27D 1_555 1_555
C27D N18D 1_555 1_555
H23D C27D 1_555 1_555
C28D N20D 1_555 1_555
H24D C28D 1_555 1_555
C29D N14D 1_555 1_555
H25D C29D 1_555 1_555
C30D N16D 1_555 1_555
H26D C30D 1_555 1_555
C31D N13D 1_555 1_555
H27D C31D 1_555 1_555
C32D H28D 1_555 1_555
C33D N19D 1_555 1_555
H29D C33D 1_555 1_555
C34D C28D 1_555 1_555
C35D C32D 1_555 1_555
C36D N11D 1_555 1_555
H30D C36D 1_555 1_555
C37D N9D 1_555 1_555
H31D C37D 1_555 1_555
C38D C18D 1_555 1_555
C39D N11D 1_555 1_555
H32D C39D 1_555 1_555
C40D C20D 1_555 1_555
C41D C21D 1_555 1_555
C42D C23D 1_555 1_555
C43D C38D 1_555 1_555
C44D N13D 1_555 1_555
H33D C44D 1_555 1_555
C45D N17D 1_555 1_555
H34D C45D 1_555 1_555
C46D C20D 1_555 1_555
C47D C22D 1_555 1_555
N21D C42D 1_555 1_555
N22D C43D 1_555 1_555
N23D C16D 1_555 1_555
N24D C16D 1_555 1_555
N25D Pd1D 1_555 1_555
H35D N25D 1_555 1_555
H36D N25D 1_555 1_555
C48D N25D 1_555 1_555
H37D C48D 1_555 1_555
H38D C48D 1_555 1_555
N26D Pd1D 1_555 1_555
H39D N26D 1_555 1_555
H40D N26D 1_555 1_555
C49D C48D 1_555 1_555
H41D C49D 1_555 1_555
H42D C49D 1_555 1_555
N29D Pd4D 1_555 1_555
H51D N29D 1_555 1_555
H52D N29D 1_555 1_555
C52D N29D 1_555 1_555
H53D C52D 1_555 1_555
H54D C52D 1_555 1_555
N30D Pd4D 1_555 1_555
H55D N30D 1_555 1_555
H56D N30D 1_555 1_555
C53D C52D 1_555 1_555
H57D C53D 1_555 1_555
H58D C53D 1_555 1_555
N31D Pd5D 1_555 1_555
H59D N31D 1_555 1_555
H60D N31D 1_555 1_555
C54D N31D 1_555 1_555
H61D C54D 1_555 1_555
H62D C54D 1_555 1_555
N32D Pd5D 1_555 1_555
H63D N32D 1_555 1_555
H64D N32D 1_555 1_555
C55D C54D 1_555 1_555
H65D C55D 1_555 1_555
H66D C55D 1_555 1_555
N34D Pd7D 1_555 1_555
H71D N34D 1_555 1_555
H72D N34D 1_555 1_555
C57D N34D 1_555 1_555
H73D C57D 1_555 1_555
H74D C57D 1_555 1_555
N35D Pd7D 1_555 1_555
H75D N35D 1_555 1_555
H76D N35D 1_555 1_555
C58D C57D 1_555 1_555
H77D C58D 1_555 1_555
H78D C58D 1_555 1_555
Pd1E N10E 1_555 1_555
Pd4E N18D 1_555 1_555
Pd5E N17D 1_555 1_555
Pd7E N12E 1_555 1_555
N9E Pd4E 1_555 1_555
C16E C34E 1_555 1_555
N10E C21E 1_555 1_555
C17E H15E 1_555 1_555
N11E Pd8 1_555 1_555
N12E C32E 1_555 1_555
C18E H16E 1_555 1_555
N13E Pd7E 1_555 1_555
N14E Pd6 1_555 1_555
N15E Pd3 1_555 1_555
C19E H17E 1_555 1_555
N16E Pd5E 1_555 1_555
C20E H18E 1_555 1_555
N17E Pd5D 1_555 1_555
C21E H19E 1_555 1_555
N18E Pd4D 1_555 1_555
N19E Pd1E 1_555 1_555
C22E C29E 1_555 1_555
N20E Pd2 1_555 1_555
C23E H20E 1_555 1_555
C24E N17E 1_555 1_555
H21E C24E 1_555 1_555
C25E N9E 1_555 1_555
H22E C25E 1_555 1_555
C26E C27E 1_555 1_555
C27E N18E 1_555 1_555
H23E C27E 1_555 1_555
C28E N20E 1_555 1_555
H24E C28E 1_555 1_555
C29E N14E 1_555 1_555
H25E C29E 1_555 1_555
C30E N16E 1_555 1_555
H26E C30E 1_555 1_555
C31E N13E 1_555 1_555
H27E C31E 1_555 1_555
C32E H28E 1_555 1_555
C33E N19E 1_555 1_555
H29E C33E 1_555 1_555
C34E C28E 1_555 1_555
C35E C32E 1_555 1_555
C36E N11E 1_555 1_555
H30E C36E 1_555 1_555
C37E N9E 1_555 1_555
H31E C37E 1_555 1_555
C38E C18E 1_555 1_555
C39E N11E 1_555 1_555
H32E C39E 1_555 1_555
C40E C20E 1_555 1_555
C41E C21E 1_555 1_555
C42E C23E 1_555 1_555
C43E C38E 1_555 1_555
C44E N13E 1_555 1_555
H33E C44E 1_555 1_555
C45E N17E 1_555 1_555
H34E C45E 1_555 1_555
C46E C20E 1_555 1_555
C47E C22E 1_555 1_555
N21E C42E 1_555 1_555
N22E C43E 1_555 1_555
N23E C16E 1_555 1_555
N24E C16E 1_555 1_555
N25E Pd1E 1_555 1_555
H35E N25E 1_555 1_555
H36E N25E 1_555 1_555
C48E N25E 1_555 1_555
H37E C48E 1_555 1_555
H38E C48E 1_555 1_555
N26E Pd1E 1_555 1_555
H39E N26E 1_555 1_555
H40E N26E 1_555 1_555
C49E C48E 1_555 1_555
H41E C49E 1_555 1_555
H42E C49E 1_555 1_555
N29E Pd4E 1_555 1_555
H51E N29E 1_555 1_555
H52E N29E 1_555 1_555
C52E N29E 1_555 1_555
H53E C52E 1_555 1_555
H54E C52E 1_555 1_555
N30E Pd4E 1_555 1_555
H55E N30E 1_555 1_555
H56E N30E 1_555 1_555
C53E C52E 1_555 1_555
H57E C53E 1_555 1_555
H58E C53E 1_555 1_555
N31E Pd5E 1_555 1_555
H59E N31E 1_555 1_555
H60E N31E 1_555 1_555
C54E N31E 1_555 1_555
H61E C54E 1_555 1_555
H62E C54E 1_555 1_555
N32E Pd5E 1_555 1_555
H63E N32E 1_555 1_555
H64E N32E 1_555 1_555
C55E C54E 1_555 1_555
H65E C55E 1_555 1_555
H66E C55E 1_555 1_555
N34E Pd7E 1_555 1_555
H71E N34E 1_555 1_555
H72E N34E 1_555 1_555
C57E N34E 1_555 1_555
H73E C57E 1_555 1_555
H74E C57E 1_555 1_555
N35E Pd7E 1_555 1_555
H75E N35E 1_555 1_555
H76E N35E 1_555 1_555
C58E C57E 1_555 1_555
H77E C58E 1_555 1_555
H78E C58E 1_555 1_555
C4 C5 1_555 1_555
C5 C6 1_555 1_555
C8 C9 1_555 1_555
H10 C14A 1_555 1_555
C10 C11 1_555 1_555
C11 C12 1_555 1_555
C14 C15 1_555 1_555
N12 C39 1_555 1_555
C18 N15 1_555 1_555
N14 C31 1_555 1_555
C19 N19 1_555 1_555
C22 C44 1_555 1_555
C23 C47 1_555 1_555
C26 C33 1_555 1_555
C26 C42 1_555 1_555
C30 C38 1_555 1_555
C34 C45 1_555 1_555
C35 C40 1_555 1_555
C37 C41 1_555 1_555
C40 N24 1_555 1_555
C41 C46 1_555 1_555
C43 N21 1_555 1_555
C46 N23 1_555 1_555
C47 N22 1_555 1_555
N26 C49 1_555 1_555
N30 C53 1_555 1_555
N32 C55 1_555 1_555
N35 C58 1_555 1_555
C4A C5A 1_555 1_555
C5A C6A 1_555 1_555
C7A C8A 1_555 1_555
C8A H10A 1_555 1_555
C8A C9A 1_555 1_555
C10A C11A 1_555 1_555
C11A C12A 1_555 1_555
C13A C14A 1_555 1_555
C14A C15A 1_555 1_555
C4D C5D 1_555 1_555
C5D C6D 1_555 1_555
C8D C9D 1_555 1_555
H10D C14E 1_555 1_555
C10D C11D 1_555 1_555
C11D C12D 1_555 1_555
C14D C15D 1_555 1_555
C4E C5E 1_555 1_555
C5E C6E 1_555 1_555
C7E C8E 1_555 1_555
C8E H10E 1_555 1_555
C8E C9E 1_555 1_555
C10E C11E 1_555 1_555
C11E C12E 1_555 1_555
C13E C14E 1_555 1_555
C14E C15E 1_555 1_555
N27E C50E 1_555 1_555
N28E C51E 1_555 1_555
N33E C56E 1_555 1_555
N36E C59E 1_555 1_555
N10A C25A 1_555 1_555
C17A N16A 1_555 1_555
N12A C39A 1_555 1_555
C18A N15A 1_555 1_555
N14A C31A 1_555 1_555
C19A N18A 1_555 1_555
C19A N19A 1_555 1_555
C22A C44A 1_555 1_555
C23A C47A 1_555 1_555
C26A C33A 1_555 1_555
C26A C42A 1_555 1_555
C30A C38A 1_555 1_555
C34A C45A 1_555 1_555
C35A C40A 1_555 1_555
C37A C41A 1_555 1_555
C40A N24A 1_555 1_555
C41A C46A 1_555 1_555
C43A N21A 1_555 1_555
C46A N23A 1_555 1_555
C47A N22A 1_555 1_555
N26A C49A 1_555 1_555
N30A C53A 1_555 1_555
N32A C55A 1_555 1_555
N35A C58A 1_555 1_555
N27D C50D 1_555 1_555
N28D C51D 1_555 1_555
N33D C56D 1_555 1_555
N36D C59D 1_555 1_555
C17D N15D 1_555 1_555
N12D C39D 1_555 1_555
C18D N15D 1_555 1_555
N14D C31D 1_555 1_555
C19D N19D 1_555 1_555
C22D C44D 1_555 1_555
C23D C47D 1_555 1_555
C26D C33D 1_555 1_555
C26D C42D 1_555 1_555
C30D C38D 1_555 1_555
C34D C45D 1_555 1_555
C35D C36D 1_555 1_555
C35D C40D 1_555 1_555
C37D C41D 1_555 1_555
C40D N24D 1_555 1_555
C41D C46D 1_555 1_555
C43D N21D 1_555 1_555
C46D N23D 1_555 1_555
C47D N22D 1_555 1_555
N26D C49D 1_555 1_555
N30D C53D 1_555 1_555
N32D C55D 1_555 1_555
N35D C58D 1_555 1_555
N10E C25E 1_555 1_555
C17E N15E 1_555 1_555
C17E N16E 1_555 1_555
N12E C39E 1_555 1_555
C18E N15E 1_555 1_555
N14E C31E 1_555 1_555
C19E N18E 1_555 1_555
C19E N19E 1_555 1_555
C22E C44E 1_555 1_555
N20E C24E 1_555 1_555
C23E C47E 1_555 1_555
C26E C33E 1_555 1_555
C26E C42E 1_555 1_555
C30E C38E 1_555 1_555
C34E C45E 1_555 1_555
C35E C36E 1_555 1_555
C35E C40E 1_555 1_555
C37E C41E 1_555 1_555
C40E N24E 1_555 1_555
C41E C46E 1_555 1_555
C43E N21E 1_555 1_555
C46E N23E 1_555 1_555
C47E N22E 1_555 1_555
N26E C49E 1_555 1_555
N30E C53E 1_555 1_555
N32E C55E 1_555 1_555
N35E C58E 1_555 1_555

#END
