# generated using pymatgen
data_H408.0Pd36C264N217.18O246.5398
_symmetry_space_group_name_H-M   'P 1'
_cell_length_a   22.74900000
_cell_length_b   22.74900000
_cell_length_c   31.45900000
_cell_angle_alpha   90.00000000
_cell_angle_beta   90.00000000
_cell_angle_gamma   120.00000000
_symmetry_Int_Tables_number   1
_chemical_formula_structural   H408.0Pd36C264N217.18O246.5398
_chemical_formula_sum   'H408.0 Pd36 C264 N217.18 O246.5398'
_cell_volume   14099.38489966
_cell_formula_units_Z   1
loop_
 _symmetry_equiv_pos_site_id
 _symmetry_equiv_pos_as_xyz
  1  'x, y, z'
loop_
 _atom_site_type_symbol
 _atom_site_label
 _atom_site_symmetry_multiplicity
 _atom_site_fract_x
 _atom_site_fract_y
 _atom_site_fract_z
 _atom_site_occupancy
  H  H1  1  0.867500  0.062600  0.611000  0.485
  H  H2  1  0.195100  0.132500  0.611000  0.485
  H  H3  1  0.937400  0.804900  0.611000  0.485
  H  H4  1  0.867500  0.062600  0.389000  0.485
  H  H5  1  0.195100  0.132500  0.389000  0.485
  H  H6  1  0.937400  0.804900  0.389000  0.485
  H  H7  1  0.857000  0.090600  0.650200  0.485
  H  H8  1  0.233600  0.143000  0.650200  0.485
  H  H9  1  0.909400  0.766400  0.650200  0.485
  H  H10  1  0.857000  0.090600  0.349800  0.485
  H  H11  1  0.233600  0.143000  0.349800  0.485
  H  H12  1  0.909400  0.766400  0.349800  0.485
  H  H13  1  0.823100  0.992400  0.689500  0.485
  H  H14  1  0.169300  0.176900  0.689500  0.485
  H  H15  1  0.007600  0.830700  0.689500  0.485
  H  H16  1  0.823100  0.992400  0.310500  0.485
  H  H17  1  0.169300  0.176900  0.310500  0.485
  H  H18  1  0.007600  0.830700  0.310500  0.485
  H  H19  1  0.865200  0.978800  0.653000  0.485
  H  H20  1  0.113600  0.134800  0.653000  0.485
  H  H21  1  0.021200  0.886400  0.653000  0.485
  H  H22  1  0.865200  0.978800  0.347000  0.485
  H  H23  1  0.113600  0.134800  0.347000  0.485
  H  H24  1  0.021200  0.886400  0.347000  0.485
  H  H25  1  0.763400  0.917900  0.607000  0.485
  H  H26  1  0.154500  0.236600  0.607000  0.485
  H  H27  1  0.082100  0.845500  0.607000  0.485
  H  H28  1  0.763400  0.917900  0.393000  0.485
  H  H29  1  0.154500  0.236600  0.393000  0.485
  H  H30  1  0.082100  0.845500  0.393000  0.485
  H  H31  1  0.732300  0.888300  0.652800  0.485
  H  H32  1  0.156000  0.267700  0.652800  0.485
  H  H33  1  0.111700  0.844000  0.652800  0.485
  H  H34  1  0.732300  0.888300  0.347200  0.485
  H  H35  1  0.156000  0.267700  0.347200  0.485
  H  H36  1  0.111700  0.844000  0.347200  0.485
  H  H37  1  0.683400  0.954400  0.655300  0.485
  H  H38  1  0.271000  0.316600  0.655300  0.485
  H  H39  1  0.045600  0.729000  0.655300  0.485
  H  H40  1  0.683400  0.954400  0.344700  0.485
  H  H41  1  0.271000  0.316600  0.344700  0.485
  H  H42  1  0.045600  0.729000  0.344700  0.485
  H  H43  1  0.669300  0.927500  0.611400  0.485
  H  H44  1  0.258200  0.330700  0.611400  0.485
  H  H45  1  0.072500  0.741800  0.611400  0.485
  H  H46  1  0.669300  0.927500  0.388600  0.485
  H  H47  1  0.258200  0.330700  0.388600  0.485
  H  H48  1  0.072500  0.741800  0.388600  0.485
  H  H49  1  0.747200  0.352900  0.806700  0.485
  H  H50  1  0.605700  0.252800  0.806700  0.485
  H  H51  1  0.647100  0.394300  0.806700  0.485
  H  H52  1  0.747200  0.352900  0.193300  0.485
  H  H53  1  0.605700  0.252800  0.193300  0.485
  H  H54  1  0.647100  0.394300  0.193300  0.485
  H  H55  1  0.788900  0.271700  0.710000  0.485
  H  H56  1  0.482800  0.211100  0.710000  0.485
  H  H57  1  0.728300  0.517200  0.710000  0.485
  H  H58  1  0.788900  0.271700  0.290000  0.485
  H  H59  1  0.482800  0.211100  0.290000  0.485
  H  H60  1  0.728300  0.517200  0.290000  0.485
  H  H61  1  0.836700  0.464000  0.704500  0.485
  H  H62  1  0.627300  0.163300  0.704500  0.485
  H  H63  1  0.536000  0.372700  0.704500  0.485
  H  H64  1  0.836700  0.464000  0.295500  0.485
  H  H65  1  0.627300  0.163300  0.295500  0.485
  H  H66  1  0.536000  0.372700  0.295500  0.485
  H  H67  1  0.919900  0.394700  0.555200  0.485
  H  H68  1  0.474800  0.080100  0.555200  0.485
  H  H69  1  0.605300  0.525200  0.555200  0.485
  H  H70  1  0.919900  0.394700  0.444800  0.485
  H  H71  1  0.474800  0.080100  0.444800  0.485
  H  H72  1  0.605300  0.525200  0.444800  0.485
  H  H73  1  0.012600  0.681400  0.534800  0.485
  H  H74  1  0.668800  0.987400  0.534800  0.485
  H  H75  1  0.318600  0.331200  0.534800  0.485
  H  H76  1  0.012600  0.681400  0.465200  0.485
  H  H77  1  0.668800  0.987400  0.465200  0.485
  H  H78  1  0.318600  0.331200  0.465200  0.485
  H  H79  1  0.998900  0.506100  0.545700  0.485
  H  H80  1  0.507200  0.001100  0.545700  0.485
  H  H81  1  0.493900  0.492800  0.545700  0.485
  H  H82  1  0.998900  0.506100  0.454300  0.485
  H  H83  1  0.507200  0.001100  0.454300  0.485
  H  H84  1  0.493900  0.492800  0.454300  0.485
  H  H85  1  0.907300  0.558100  0.627700  0.485
  H  H86  1  0.650800  0.092700  0.627700  0.485
  H  H87  1  0.441900  0.349200  0.627700  0.485
  H  H88  1  0.907300  0.558100  0.372300  0.485
  H  H89  1  0.650800  0.092700  0.372300  0.485
  H  H90  1  0.441900  0.349200  0.372300  0.485
  H  H91  1  0.847400  0.112100  0.537400  0.485
  H  H92  1  0.264700  0.152600  0.537400  0.485
  H  H93  1  0.887900  0.735300  0.537400  0.485
  H  H94  1  0.847400  0.112100  0.462600  0.485
  H  H95  1  0.264700  0.152600  0.462600  0.485
  H  H96  1  0.887900  0.735300  0.462600  0.485
  H  H97  1  0.931200  0.310300  0.534000  0.485
  H  H98  1  0.379100  0.068800  0.534000  0.485
  H  H99  1  0.689700  0.620900  0.534000  0.485
  H  H100  1  0.931200  0.310300  0.466000  0.485
  H  H101  1  0.379100  0.068800  0.466000  0.485
  H  H102  1  0.689700  0.620900  0.466000  0.485
  H  H103  1  0.787600  0.200100  0.618900  0.485
  H  H104  1  0.412500  0.212400  0.618900  0.485
  H  H105  1  0.799900  0.587500  0.618900  0.485
  H  H106  1  0.787600  0.200100  0.381100  0.485
  H  H107  1  0.412500  0.212400  0.381100  0.485
  H  H108  1  0.799900  0.587500  0.381100  0.485
  Pd  Pd109  1  0.790300  0.493700  0.788500  0.485
  Pd  Pd110  1  0.703400  0.209700  0.788500  0.485
  Pd  Pd111  1  0.506300  0.296600  0.788500  0.485
  Pd  Pd112  1  0.790300  0.493700  0.211500  0.485
  Pd  Pd113  1  0.703400  0.209700  0.211500  0.485
  Pd  Pd114  1  0.506300  0.296600  0.211500  0.485
  Pd  Pd115  1  0.754110  0.050490  0.606830  0.485
  Pd  Pd116  1  0.296380  0.245890  0.606830  0.485
  Pd  Pd117  1  0.949510  0.703620  0.606830  0.485
  Pd  Pd118  1  0.754110  0.050490  0.393170  0.485
  Pd  Pd119  1  0.296380  0.245890  0.393170  0.485
  Pd  Pd120  1  0.949510  0.703620  0.393170  0.485
  H  H121  1  0.766600  0.863800  0.835000  1.0
  H  H122  1  0.097200  0.233400  0.835000  1.0
  H  H123  1  0.136200  0.902800  0.835000  1.0
  H  H124  1  0.766600  0.863800  0.165000  1.0
  H  H125  1  0.097200  0.233400  0.165000  1.0
  H  H126  1  0.136200  0.902800  0.165000  1.0
  H  H127  1  0.813000  0.864800  0.868300  1.0
  H  H128  1  0.051800  0.187000  0.868300  1.0
  H  H129  1  0.135200  0.948200  0.868300  1.0
  H  H130  1  0.813000  0.864800  0.131700  1.0
  H  H131  1  0.051800  0.187000  0.131700  1.0
  H  H132  1  0.135200  0.948200  0.131700  1.0
  H  H133  1  0.765700  0.691600  0.871200  1.0
  H  H134  1  0.925900  0.234300  0.871200  1.0
  H  H135  1  0.308400  0.074100  0.871200  1.0
  H  H136  1  0.765700  0.691600  0.128800  1.0
  H  H137  1  0.925900  0.234300  0.128800  1.0
  H  H138  1  0.308400  0.074100  0.128800  1.0
  H  H139  1  0.714900  0.667000  0.836700  1.0
  H  H140  1  0.952100  0.285100  0.836700  1.0
  H  H141  1  0.333000  0.047900  0.836700  1.0
  H  H142  1  0.714900  0.667000  0.163300  1.0
  H  H143  1  0.952100  0.285100  0.163300  1.0
  H  H144  1  0.333000  0.047900  0.163300  1.0
  H  H145  1  0.166000  0.172500  0.936400  1.0
  H  H146  1  0.006500  0.834000  0.936400  1.0
  H  H147  1  0.827500  0.993500  0.936400  1.0
  H  H148  1  0.166000  0.172500  0.063600  1.0
  H  H149  1  0.006500  0.834000  0.063600  1.0
  H  H150  1  0.827500  0.993500  0.063600  1.0
  H  H151  1  0.238600  0.194700  0.942100  1.0
  H  H152  1  0.956100  0.761400  0.942100  1.0
  H  H153  1  0.805300  0.043900  0.942100  1.0
  H  H154  1  0.238600  0.194700  0.057900  1.0
  H  H155  1  0.956100  0.761400  0.057900  1.0
  H  H156  1  0.805300  0.043900  0.057900  1.0
  H  H157  1  0.133700  0.080700  0.968800  1.0
  H  H158  1  0.947000  0.866300  0.968800  1.0
  H  H159  1  0.919300  0.053000  0.968800  1.0
  H  H160  1  0.133700  0.080700  0.031200  1.0
  H  H161  1  0.947000  0.866300  0.031200  1.0
  H  H162  1  0.919300  0.053000  0.031200  1.0
  H  H163  1  0.211200  0.099600  0.968800  1.0
  H  H164  1  0.888400  0.788800  0.968800  1.0
  H  H165  1  0.900400  0.111600  0.968800  1.0
  H  H166  1  0.211200  0.099600  0.031200  1.0
  H  H167  1  0.888400  0.788800  0.031200  1.0
  H  H168  1  0.900400  0.111600  0.031200  1.0
  H  H169  1  0.548800  0.626700  0.699800  1.0
  H  H170  1  0.077900  0.451200  0.699800  1.0
  H  H171  1  0.373300  0.922100  0.699800  1.0
  H  H172  1  0.548800  0.626700  0.300200  1.0
  H  H173  1  0.077900  0.451200  0.300200  1.0
  H  H174  1  0.373300  0.922100  0.300200  1.0
  H  H175  1  0.508400  0.611700  0.660400  1.0
  H  H176  1  0.103300  0.491600  0.660400  1.0
  H  H177  1  0.388300  0.896700  0.660400  1.0
  H  H178  1  0.508400  0.611700  0.339600  1.0
  H  H179  1  0.103300  0.491600  0.339600  1.0
  H  H180  1  0.388300  0.896700  0.339600  1.0
  H  H181  1  0.591500  0.700400  0.623900  1.0
  H  H182  1  0.108900  0.408500  0.623900  1.0
  H  H183  1  0.299600  0.891100  0.623900  1.0
  H  H184  1  0.591500  0.700400  0.376100  1.0
  H  H185  1  0.108900  0.408500  0.376100  1.0
  H  H186  1  0.299600  0.891100  0.376100  1.0
  H  H187  1  0.631600  0.670400  0.649900  1.0
  H  H188  1  0.038800  0.368400  0.649900  1.0
  H  H189  1  0.329600  0.961200  0.649900  1.0
  H  H190  1  0.631600  0.670400  0.350100  1.0
  H  H191  1  0.038800  0.368400  0.350100  1.0
  H  H192  1  0.329600  0.961200  0.350100  1.0
  H  H193  1  0.683700  0.793600  0.665400  1.0
  H  H194  1  0.109900  0.316300  0.665400  1.0
  H  H195  1  0.206400  0.890100  0.665400  1.0
  H  H196  1  0.683700  0.793600  0.334600  1.0
  H  H197  1  0.109900  0.316300  0.334600  1.0
  H  H198  1  0.206400  0.890100  0.334600  1.0
  H  H199  1  0.650500  0.751600  0.708700  1.0
  H  H200  1  0.101100  0.349500  0.708700  1.0
  H  H201  1  0.248400  0.898900  0.708700  1.0
  H  H202  1  0.650500  0.751600  0.291300  1.0
  H  H203  1  0.101100  0.349500  0.291300  1.0
  H  H204  1  0.248400  0.898900  0.291300  1.0
  H  H205  1  0.578500  0.794000  0.651000  1.0
  H  H206  1  0.215500  0.421500  0.651000  1.0
  H  H207  1  0.206000  0.784500  0.651000  1.0
  H  H208  1  0.578500  0.794000  0.349000  1.0
  H  H209  1  0.215500  0.421500  0.349000  1.0
  H  H210  1  0.206000  0.784500  0.349000  1.0
  H  H211  1  0.596300  0.819700  0.695100  1.0
  H  H212  1  0.223400  0.403700  0.695100  1.0
  H  H213  1  0.180300  0.776600  0.695100  1.0
  H  H214  1  0.596300  0.819700  0.304900  1.0
  H  H215  1  0.223400  0.403700  0.304900  1.0
  H  H216  1  0.180300  0.776600  0.304900  1.0
  H  H217  1  0.613300  0.463400  0.938700  1.0
  H  H218  1  0.850100  0.386700  0.938700  1.0
  H  H219  1  0.536600  0.149900  0.938700  1.0
  H  H220  1  0.613300  0.463400  0.061300  1.0
  H  H221  1  0.850100  0.386700  0.061300  1.0
  H  H222  1  0.536600  0.149900  0.061300  1.0
  H  H223  1  0.683200  0.522400  0.938400  1.0
  H  H224  1  0.839200  0.316800  0.938400  1.0
  H  H225  1  0.477600  0.160800  0.938400  1.0
  H  H226  1  0.683200  0.522400  0.061600  1.0
  H  H227  1  0.839200  0.316800  0.061600  1.0
  H  H228  1  0.477600  0.160800  0.061600  1.0
  H  H229  1  0.646600  0.402200  0.973400  1.0
  H  H230  1  0.755600  0.353400  0.973400  1.0
  H  H231  1  0.597800  0.244400  0.973400  1.0
  H  H232  1  0.646600  0.402200  0.026600  1.0
  H  H233  1  0.755600  0.353400  0.026600  1.0
  H  H234  1  0.597800  0.244400  0.026600  1.0
  H  H235  1  0.721400  0.465500  0.973400  1.0
  H  H236  1  0.744100  0.278600  0.973400  1.0
  H  H237  1  0.534500  0.255900  0.973400  1.0
  H  H238  1  0.721400  0.465500  0.026600  1.0
  H  H239  1  0.744100  0.278600  0.026600  1.0
  H  H240  1  0.534500  0.255900  0.026600  1.0
  H  H241  1  0.899400  0.510300  0.844900  1.0
  H  H242  1  0.610900  0.100600  0.844900  1.0
  H  H243  1  0.489700  0.389100  0.844900  1.0
  H  H244  1  0.899400  0.510300  0.155100  1.0
  H  H245  1  0.610900  0.100600  0.155100  1.0
  H  H246  1  0.489700  0.389100  0.155100  1.0
  H  H247  1  0.918900  0.550000  0.805200  1.0
  H  H248  1  0.631100  0.081100  0.805200  1.0
  H  H249  1  0.450000  0.368900  0.805200  1.0
  H  H250  1  0.918900  0.550000  0.194800  1.0
  H  H251  1  0.631100  0.081100  0.194800  1.0
  H  H252  1  0.450000  0.368900  0.194800  1.0
  H  H253  1  0.905100  0.595500  0.885200  1.0
  H  H254  1  0.690400  0.094900  0.885200  1.0
  H  H255  1  0.404500  0.309600  0.885200  1.0
  H  H256  1  0.905100  0.595500  0.114800  1.0
  H  H257  1  0.690400  0.094900  0.114800  1.0
  H  H258  1  0.404500  0.309600  0.114800  1.0
  H  H259  1  0.965200  0.637200  0.851500  1.0
  H  H260  1  0.672000  0.034800  0.851500  1.0
  H  H261  1  0.362800  0.328000  0.851500  1.0
  H  H262  1  0.965200  0.637200  0.148500  1.0
  H  H263  1  0.672000  0.034800  0.148500  1.0
  H  H264  1  0.362800  0.328000  0.148500  1.0
  H  H265  1  0.897900  0.655600  0.808700  1.0
  H  H266  1  0.757700  0.102100  0.808700  1.0
  H  H267  1  0.344400  0.242300  0.808700  1.0
  H  H268  1  0.897900  0.655600  0.191300  1.0
  H  H269  1  0.757700  0.102100  0.191300  1.0
  H  H270  1  0.344400  0.242300  0.191300  1.0
  H  H271  1  0.880700  0.670800  0.855100  1.0
  H  H272  1  0.790100  0.119300  0.855100  1.0
  H  H273  1  0.329200  0.209900  0.855100  1.0
  H  H274  1  0.880700  0.670800  0.144900  1.0
  H  H275  1  0.790100  0.119300  0.144900  1.0
  H  H276  1  0.329200  0.209900  0.144900  1.0
  H  H277  1  0.788400  0.601800  0.806800  1.0
  H  H278  1  0.813400  0.211600  0.806800  1.0
  H  H279  1  0.398200  0.186600  0.806800  1.0
  H  H280  1  0.788400  0.601800  0.193200  1.0
  H  H281  1  0.813400  0.211600  0.193200  1.0
  H  H282  1  0.398200  0.186600  0.193200  1.0
  H  H283  1  0.779300  0.582400  0.852300  1.0
  H  H284  1  0.803100  0.220700  0.852300  1.0
  H  H285  1  0.417600  0.196900  0.852300  1.0
  H  H286  1  0.779300  0.582400  0.147700  1.0
  H  H287  1  0.803100  0.220700  0.147700  1.0
  H  H288  1  0.417600  0.196900  0.147700  1.0
  H  H289  1  0.350400  0.601600  0.678000  1.0
  H  H290  1  0.251200  0.649600  0.678000  1.0
  H  H291  1  0.398400  0.748800  0.678000  1.0
  H  H292  1  0.350400  0.601600  0.322000  1.0
  H  H293  1  0.251200  0.649600  0.322000  1.0
  H  H294  1  0.398400  0.748800  0.322000  1.0
  H  H295  1  0.469100  0.620800  0.775700  1.0
  H  H296  1  0.151700  0.530900  0.775700  1.0
  H  H297  1  0.379200  0.848300  0.775700  1.0
  H  H298  1  0.469100  0.620800  0.224300  1.0
  H  H299  1  0.151700  0.530900  0.224300  1.0
  H  H300  1  0.379200  0.848300  0.224300  1.0
  H  H301  1  0.267200  0.481200  0.777300  1.0
  H  H302  1  0.214000  0.732800  0.777300  1.0
  H  H303  1  0.518800  0.786000  0.777300  1.0
  H  H304  1  0.267200  0.481200  0.222700  1.0
  H  H305  1  0.214000  0.732800  0.222700  1.0
  H  H306  1  0.518800  0.786000  0.222700  1.0
  H  H307  1  0.394800  0.475400  0.932600  1.0
  H  H308  1  0.080600  0.605200  0.932600  1.0
  H  H309  1  0.524600  0.919400  0.932600  1.0
  H  H310  1  0.394800  0.475400  0.067400  1.0
  H  H311  1  0.080600  0.605200  0.067400  1.0
  H  H312  1  0.524600  0.919400  0.067400  1.0
  H  H313  1  0.682000  0.665600  0.948500  1.0
  H  H314  1  0.983600  0.318000  0.948500  1.0
  H  H315  1  0.334400  0.016400  0.948500  1.0
  H  H316  1  0.682000  0.665600  0.051500  1.0
  H  H317  1  0.983600  0.318000  0.051500  1.0
  H  H318  1  0.334400  0.016400  0.051500  1.0
  H  H319  1  0.553600  0.654800  0.861300  1.0
  H  H320  1  0.101200  0.446400  0.861300  1.0
  H  H321  1  0.345200  0.898800  0.861300  1.0
  H  H322  1  0.553600  0.654800  0.138700  1.0
  H  H323  1  0.101200  0.446400  0.138700  1.0
  H  H324  1  0.345200  0.898800  0.138700  1.0
  H  H325  1  0.498800  0.503400  0.946600  1.0
  H  H326  1  0.004600  0.501200  0.946600  1.0
  H  H327  1  0.496600  0.995400  0.946600  1.0
  H  H328  1  0.498800  0.503400  0.053400  1.0
  H  H329  1  0.004600  0.501200  0.053400  1.0
  H  H330  1  0.496600  0.995400  0.053400  1.0
  H  H331  1  0.110500  0.262100  0.947400  1.0
  H  H332  1  0.151600  0.889500  0.947400  1.0
  H  H333  1  0.737900  0.848400  0.947400  1.0
  H  H334  1  0.110500  0.262100  0.052600  1.0
  H  H335  1  0.151600  0.889500  0.052600  1.0
  H  H336  1  0.737900  0.848400  0.052600  1.0
  H  H337  1  0.200400  0.408700  0.863000  1.0
  H  H338  1  0.208300  0.799600  0.863000  1.0
  H  H339  1  0.591300  0.791700  0.863000  1.0
  H  H340  1  0.200400  0.408700  0.137000  1.0
  H  H341  1  0.208300  0.799600  0.137000  1.0
  H  H342  1  0.591300  0.791700  0.137000  1.0
  H  H343  1  0.309200  0.371300  0.949600  1.0
  H  H344  1  0.062100  0.690800  0.949600  1.0
  H  H345  1  0.628700  0.937900  0.949600  1.0
  H  H346  1  0.309200  0.371300  0.050400  1.0
  H  H347  1  0.062100  0.690800  0.050400  1.0
  H  H348  1  0.628700  0.937900  0.050400  1.0
  H  H349  1  0.798300  0.818200  0.788300  0.5
  H  H350  1  0.019900  0.201700  0.788300  0.5
  H  H351  1  0.181800  0.980100  0.788300  0.5
  H  H352  1  0.798300  0.818200  0.211700  0.5
  H  H353  1  0.019900  0.201700  0.211700  0.5
  H  H354  1  0.181800  0.980100  0.211700  0.5
  H  H355  1  0.862500  0.842600  0.818400  0.5
  H  H356  1  0.980100  0.137500  0.818400  0.5
  H  H357  1  0.157400  0.019900  0.818400  0.5
  H  H358  1  0.862500  0.842600  0.181600  0.5
  H  H359  1  0.980100  0.137500  0.181600  0.5
  H  H360  1  0.157400  0.019900  0.181600  0.5
  H  H361  1  0.844700  0.755500  0.826700  0.5
  H  H362  1  0.910800  0.155300  0.826700  0.5
  H  H363  1  0.244500  0.089200  0.826700  0.5
  H  H364  1  0.844700  0.755500  0.173300  0.5
  H  H365  1  0.910800  0.155300  0.173300  0.5
  H  H366  1  0.244500  0.089200  0.173300  0.5
  H  H367  1  0.788800  0.733500  0.790400  0.5
  H  H368  1  0.944700  0.211200  0.790400  0.5
  H  H369  1  0.266500  0.055300  0.790400  0.5
  H  H370  1  0.788800  0.733500  0.209600  0.5
  H  H371  1  0.944700  0.211200  0.209600  0.5
  H  H372  1  0.266500  0.055300  0.209600  0.5
  H  H373  1  0.853600  0.838100  0.811400  0.5
  H  H374  1  0.984500  0.146400  0.811400  0.5
  H  H375  1  0.161900  0.015500  0.811400  0.5
  H  H376  1  0.853600  0.838100  0.188600  0.5
  H  H377  1  0.984500  0.146400  0.188600  0.5
  H  H378  1  0.161900  0.015500  0.188600  0.5
  H  H379  1  0.868900  0.839300  0.860800  0.5
  H  H380  1  0.970400  0.131100  0.860800  0.5
  H  H381  1  0.160700  0.029600  0.860800  0.5
  H  H382  1  0.868900  0.839300  0.139200  0.5
  H  H383  1  0.970400  0.131100  0.139200  0.5
  H  H384  1  0.160700  0.029600  0.139200  0.5
  H  H385  1  0.848800  0.751800  0.855600  0.5
  H  H386  1  0.903000  0.151200  0.855600  0.5
  H  H387  1  0.248200  0.097000  0.855600  0.5
  H  H388  1  0.848800  0.751800  0.144400  0.5
  H  H389  1  0.903000  0.151200  0.144400  0.5
  H  H390  1  0.248200  0.097000  0.144400  0.5
  H  H391  1  0.823200  0.747600  0.808000  0.5
  H  H392  1  0.924400  0.176800  0.808000  0.5
  H  H393  1  0.252400  0.075600  0.808000  0.5
  H  H394  1  0.823200  0.747600  0.192000  0.5
  H  H395  1  0.924400  0.176800  0.192000  0.5
  H  H396  1  0.252400  0.075600  0.192000  0.5
  H  H397  1  0.983400  0.171700  0.569700  0.5
  H  H398  1  0.188300  0.016600  0.569700  0.5
  H  H399  1  0.828300  0.811700  0.569700  0.5
  H  H400  1  0.983400  0.171700  0.430300  0.5
  H  H401  1  0.188300  0.016600  0.430300  0.5
  H  H402  1  0.828300  0.811700  0.430300  0.5
  H  H403  1  0.053500  0.235300  0.567300  0.5
  H  H404  1  0.181800  0.946500  0.567300  0.5
  H  H405  1  0.764700  0.818200  0.567300  0.5
  H  H406  1  0.053500  0.235300  0.432700  0.5
  H  H407  1  0.181800  0.946500  0.432700  0.5
  H  H408  1  0.764700  0.818200  0.432700  0.5
  H  H409  1  0.080900  0.149700  0.548300  0.5
  H  H410  1  0.068800  0.919100  0.548300  0.5
  H  H411  1  0.850300  0.931200  0.548300  0.5
  H  H412  1  0.080900  0.149700  0.451700  0.5
  H  H413  1  0.068800  0.919100  0.451700  0.5
  H  H414  1  0.850300  0.931200  0.451700  0.5
  H  H415  1  0.011800  0.113000  0.520300  0.5
  H  H416  1  0.101200  0.988200  0.520300  0.5
  H  H417  1  0.887000  0.898800  0.520300  0.5
  H  H418  1  0.011800  0.113000  0.479700  0.5
  H  H419  1  0.101200  0.988200  0.479700  0.5
  H  H420  1  0.887000  0.898800  0.479700  0.5
  H  H421  1  0.109800  0.191400  0.483400  0.5
  H  H422  1  0.081600  0.890200  0.483400  0.5
  H  H423  1  0.808600  0.918400  0.483400  0.5
  H  H424  1  0.109800  0.191400  0.516600  0.5
  H  H425  1  0.081600  0.890200  0.516600  0.5
  H  H426  1  0.808600  0.918400  0.516600  0.5
  H  H427  1  0.106900  0.248600  0.511900  0.5
  H  H428  1  0.141700  0.893100  0.511900  0.5
  H  H429  1  0.751400  0.858300  0.511900  0.5
  H  H430  1  0.106900  0.248600  0.488100  0.5
  H  H431  1  0.141700  0.893100  0.488100  0.5
  H  H432  1  0.751400  0.858300  0.488100  0.5
  H  H433  1  0.996200  0.156400  0.456900  0.5
  H  H434  1  0.160200  0.003800  0.456900  0.5
  H  H435  1  0.843600  0.839800  0.456900  0.5
  H  H436  1  0.996200  0.156400  0.543100  0.5
  H  H437  1  0.160200  0.003800  0.543100  0.5
  H  H438  1  0.843600  0.839800  0.543100  0.5
  H  H439  1  0.034300  0.231100  0.450900  0.5
  H  H440  1  0.196800  0.965700  0.450900  0.5
  H  H441  1  0.768900  0.803200  0.450900  0.5
  H  H442  1  0.034300  0.231100  0.549100  0.5
  H  H443  1  0.196800  0.965700  0.549100  0.5
  H  H444  1  0.768900  0.803200  0.549100  0.5
  H  H445  1  0.128200  0.608900  0.567600  0.5
  H  H446  1  0.480700  0.871800  0.567600  0.5
  H  H447  1  0.391100  0.519300  0.567600  0.5
  H  H448  1  0.128200  0.608900  0.432400  0.5
  H  H449  1  0.480700  0.871800  0.432400  0.5
  H  H450  1  0.391100  0.519300  0.432400  0.5
  H  H451  1  0.171600  0.684500  0.576600  0.5
  H  H452  1  0.512900  0.828400  0.576600  0.5
  H  H453  1  0.315500  0.487100  0.576600  0.5
  H  H454  1  0.171600  0.684500  0.423400  0.5
  H  H455  1  0.512900  0.828400  0.423400  0.5
  H  H456  1  0.315500  0.487100  0.423400  0.5
  H  H457  1  0.201300  0.607000  0.522400  0.5
  H  H458  1  0.405700  0.798700  0.522400  0.5
  H  H459  1  0.393000  0.594300  0.522400  0.5
  H  H460  1  0.201300  0.607000  0.477600  0.5
  H  H461  1  0.405700  0.798700  0.477600  0.5
  H  H462  1  0.393000  0.594300  0.477600  0.5
  H  H463  1  0.254900  0.666000  0.553400  0.5
  H  H464  1  0.411100  0.745100  0.553400  0.5
  H  H465  1  0.334000  0.588900  0.553400  0.5
  H  H466  1  0.254900  0.666000  0.446600  0.5
  H  H467  1  0.411100  0.745100  0.446600  0.5
  H  H468  1  0.334000  0.588900  0.446600  0.5
  H  H469  1  0.233200  0.748200  0.511800  0.5
  H  H470  1  0.515000  0.766800  0.511800  0.5
  H  H471  1  0.251800  0.485000  0.511800  0.5
  H  H472  1  0.233200  0.748200  0.488200  0.5
  H  H473  1  0.515000  0.766800  0.488200  0.5
  H  H474  1  0.251800  0.485000  0.488200  0.5
  H  H475  1  0.269400  0.716500  0.482700  0.5
  H  H476  1  0.447100  0.730600  0.482700  0.5
  H  H477  1  0.283500  0.552900  0.482700  0.5
  H  H478  1  0.269400  0.716500  0.517300  0.5
  H  H479  1  0.447100  0.730600  0.517300  0.5
  H  H480  1  0.283500  0.552900  0.517300  0.5
  H  H481  1  0.158800  0.626800  0.459000  0.5
  H  H482  1  0.468000  0.841200  0.459000  0.5
  H  H483  1  0.373200  0.532000  0.459000  0.5
  H  H484  1  0.158800  0.626800  0.541000  0.5
  H  H485  1  0.468000  0.841200  0.541000  0.5
  H  H486  1  0.373200  0.532000  0.541000  0.5
  H  H487  1  0.151100  0.687300  0.455000  0.5
  H  H488  1  0.536200  0.848900  0.455000  0.5
  H  H489  1  0.312700  0.463800  0.455000  0.5
  H  H490  1  0.151100  0.687300  0.545000  0.5
  H  H491  1  0.536200  0.848900  0.545000  0.5
  H  H492  1  0.312700  0.463800  0.545000  0.5
  H  H493  1  0.865000  0.053600  0.642100  0.515
  H  H494  1  0.188600  0.135000  0.642100  0.515
  H  H495  1  0.946400  0.811400  0.642100  0.515
  H  H496  1  0.865000  0.053600  0.357900  0.515
  H  H497  1  0.188600  0.135000  0.357900  0.515
  H  H498  1  0.946400  0.811400  0.357900  0.515
  H  H499  1  0.869100  0.103700  0.673700  0.515
  H  H500  1  0.234600  0.130900  0.673700  0.515
  H  H501  1  0.896300  0.765400  0.673700  0.515
  H  H502  1  0.869100  0.103700  0.326300  0.515
  H  H503  1  0.234600  0.130900  0.326300  0.515
  H  H504  1  0.896300  0.765400  0.326300  0.515
  H  H505  1  0.852900  0.992000  0.706200  0.515
  H  H506  1  0.139100  0.147100  0.706200  0.515
  H  H507  1  0.008000  0.860900  0.706200  0.515
  H  H508  1  0.852900  0.992000  0.293800  0.515
  H  H509  1  0.139100  0.147100  0.293800  0.515
  H  H510  1  0.008000  0.860900  0.293800  0.515
  H  H511  1  0.806200  0.019500  0.726600  0.515
  H  H512  1  0.213300  0.193800  0.726600  0.515
  H  H513  1  0.980500  0.786700  0.726600  0.515
  H  H514  1  0.806200  0.019500  0.273400  0.515
  H  H515  1  0.213300  0.193800  0.273400  0.515
  H  H516  1  0.980500  0.786700  0.273400  0.515
  H  H517  1  0.772200  0.929100  0.658000  0.515
  H  H518  1  0.156900  0.227800  0.658000  0.515
  H  H519  1  0.070900  0.843100  0.658000  0.515
  H  H520  1  0.772200  0.929100  0.342000  0.515
  H  H521  1  0.156900  0.227800  0.342000  0.515
  H  H522  1  0.070900  0.843100  0.342000  0.515
  H  H523  1  0.737700  0.910600  0.703900  0.515
  H  H524  1  0.172900  0.262300  0.703900  0.515
  H  H525  1  0.089400  0.827100  0.703900  0.515
  H  H526  1  0.737700  0.910600  0.296100  0.515
  H  H527  1  0.172900  0.262300  0.296100  0.515
  H  H528  1  0.089400  0.827100  0.296100  0.515
  H  H529  1  0.683000  0.961800  0.690400  0.515
  H  H530  1  0.278800  0.317000  0.690400  0.515
  H  H531  1  0.038200  0.721200  0.690400  0.515
  H  H532  1  0.683000  0.961800  0.309600  0.515
  H  H533  1  0.278800  0.317000  0.309600  0.515
  H  H534  1  0.038200  0.721200  0.309600  0.515
  H  H535  1  0.679900  0.928900  0.649300  0.515
  H  H536  1  0.249000  0.320100  0.649300  0.515
  H  H537  1  0.071100  0.751000  0.649300  0.515
  H  H538  1  0.679900  0.928900  0.350700  0.515
  H  H539  1  0.249000  0.320100  0.350700  0.515
  H  H540  1  0.071100  0.751000  0.350700  0.515
  H  H541  1  0.749300  0.350100  0.838200  0.515
  H  H542  1  0.600800  0.250700  0.838200  0.515
  H  H543  1  0.649900  0.399200  0.838200  0.515
  H  H544  1  0.749300  0.350100  0.161800  0.515
  H  H545  1  0.600800  0.250700  0.161800  0.515
  H  H546  1  0.649900  0.399200  0.161800  0.515
  H  H547  1  0.777500  0.265300  0.735900  0.515
  H  H548  1  0.487800  0.222500  0.735900  0.515
  H  H549  1  0.734700  0.512200  0.735900  0.515
  H  H550  1  0.777500  0.265300  0.264100  0.515
  H  H551  1  0.487800  0.222500  0.264100  0.515
  H  H552  1  0.734700  0.512200  0.264100  0.515
  H  H553  1  0.846900  0.465300  0.738000  0.515
  H  H554  1  0.618400  0.153100  0.738000  0.515
  H  H555  1  0.534700  0.381600  0.738000  0.515
  H  H556  1  0.846900  0.465300  0.262000  0.515
  H  H557  1  0.618400  0.153100  0.262000  0.515
  H  H558  1  0.534700  0.381600  0.262000  0.515
  H  H559  1  0.917400  0.395700  0.582000  0.515
  H  H560  1  0.478300  0.082600  0.582000  0.515
  H  H561  1  0.604300  0.521700  0.582000  0.515
  H  H562  1  0.917400  0.395700  0.418000  0.515
  H  H563  1  0.478300  0.082600  0.418000  0.515
  H  H564  1  0.604300  0.521700  0.418000  0.515
  H  H565  1  0.017600  0.684000  0.566000  0.515
  H  H566  1  0.666400  0.982400  0.566000  0.515
  H  H567  1  0.316000  0.333600  0.566000  0.515
  H  H568  1  0.017600  0.684000  0.434000  0.515
  H  H569  1  0.666400  0.982400  0.434000  0.515
  H  H570  1  0.316000  0.333600  0.434000  0.515
  H  H571  1  0.992700  0.500200  0.569100  0.515
  H  H572  1  0.507500  0.007300  0.569100  0.515
  H  H573  1  0.499800  0.492500  0.569100  0.515
  H  H574  1  0.992700  0.500200  0.430900  0.515
  H  H575  1  0.507500  0.007300  0.430900  0.515
  H  H576  1  0.499800  0.492500  0.430900  0.515
  H  H577  1  0.893900  0.552800  0.651600  0.515
  H  H578  1  0.658900  0.106100  0.651600  0.515
  H  H579  1  0.447200  0.341100  0.651600  0.515
  H  H580  1  0.893900  0.552800  0.348400  0.515
  H  H581  1  0.658900  0.106100  0.348400  0.515
  H  H582  1  0.447200  0.341100  0.348400  0.515
  H  H583  1  0.848200  0.110500  0.567200  0.515
  H  H584  1  0.262300  0.151800  0.567200  0.515
  H  H585  1  0.889500  0.737700  0.567200  0.515
  H  H586  1  0.848200  0.110500  0.432800  0.515
  H  H587  1  0.262300  0.151800  0.432800  0.515
  H  H588  1  0.889500  0.737700  0.432800  0.515
  H  H589  1  0.939200  0.313000  0.563700  0.515
  H  H590  1  0.373800  0.060800  0.563700  0.515
  H  H591  1  0.687000  0.626200  0.563700  0.515
  H  H592  1  0.939200  0.313000  0.436300  0.515
  H  H593  1  0.373800  0.060800  0.436300  0.515
  H  H594  1  0.687000  0.626200  0.436300  0.515
  H  H595  1  0.796500  0.203600  0.653200  0.515
  H  H596  1  0.407100  0.203500  0.653200  0.515
  H  H597  1  0.796400  0.592900  0.653200  0.515
  H  H598  1  0.796500  0.203600  0.346800  0.515
  H  H599  1  0.407100  0.203500  0.346800  0.515
  H  H600  1  0.796400  0.592900  0.346800  0.515
  Pd  Pd601  1  0.703070  0.755900  0.876570  1.0
  Pd  Pd602  1  0.052830  0.296930  0.876570  1.0
  Pd  Pd603  1  0.244100  0.947170  0.876570  1.0
  Pd  Pd604  1  0.703070  0.755900  0.123430  1.0
  Pd  Pd605  1  0.052830  0.296930  0.123430  1.0
  Pd  Pd606  1  0.244100  0.947170  0.123430  1.0
  Pd  Pd607  1  0.206340  0.248420  1.000000  1.0
  Pd  Pd608  1  0.042080  0.793660  1.000000  1.0
  Pd  Pd609  1  0.751580  0.957920  1.000000  1.0
  Pd  Pd610  1  0.498400  0.702500  0.699040  1.0
  Pd  Pd611  1  0.204100  0.501600  0.699040  1.0
  Pd  Pd612  1  0.297500  0.795900  0.699040  1.0
  Pd  Pd613  1  0.498400  0.702500  0.300960  1.0
  Pd  Pd614  1  0.204100  0.501600  0.300960  1.0
  Pd  Pd615  1  0.297500  0.795900  0.300960  1.0
  Pd  Pd616  1  0.621850  0.538710  0.000000  1.0
  Pd  Pd617  1  0.916860  0.378150  1.000000  1.0
  Pd  Pd618  1  0.461290  0.083140  0.000000  1.0
  Pd  Pd619  1  0.958610  0.207100  0.514650  0.5
  Pd  Pd620  1  0.248490  0.041390  0.514650  0.5
  Pd  Pd621  1  0.792900  0.751510  0.514650  0.5
  Pd  Pd622  1  0.958610  0.207100  0.485350  0.5
  Pd  Pd623  1  0.248490  0.041390  0.485350  0.5
  Pd  Pd624  1  0.792900  0.751510  0.485350  0.5
  Pd  Pd625  1  0.083640  0.622040  0.515750  0.5
  Pd  Pd626  1  0.538400  0.916360  0.515750  0.5
  Pd  Pd627  1  0.377960  0.461600  0.515750  0.5
  Pd  Pd628  1  0.083640  0.622040  0.484250  0.5
  Pd  Pd629  1  0.538400  0.916360  0.484250  0.5
  Pd  Pd630  1  0.377960  0.461600  0.484250  0.5
  Pd  Pd631  1  0.798070  0.500220  0.813780  0.515
  Pd  Pd632  1  0.702150  0.201930  0.813780  0.515
  Pd  Pd633  1  0.499780  0.297850  0.813780  0.515
  Pd  Pd634  1  0.798070  0.500220  0.186220  0.515
  Pd  Pd635  1  0.702150  0.201930  0.186220  0.515
  Pd  Pd636  1  0.499780  0.297850  0.186220  0.515
  Pd  Pd637  1  0.757140  0.054200  0.639260  0.515
  Pd  Pd638  1  0.297060  0.242860  0.639260  0.515
  Pd  Pd639  1  0.945800  0.702940  0.639260  0.515
  Pd  Pd640  1  0.757140  0.054200  0.360740  0.515
  Pd  Pd641  1  0.297060  0.242860  0.360740  0.515
  Pd  Pd642  1  0.945800  0.702940  0.360740  0.515
  C  C643  1  0.179700  0.115100  0.978400  1.0
  C  C644  1  0.935400  0.820300  0.978400  1.0
  C  C645  1  0.884900  0.064600  0.978400  1.0
  C  C646  1  0.179700  0.115100  0.021600  1.0
  C  C647  1  0.935400  0.820300  0.021600  1.0
  C  C648  1  0.884900  0.064600  0.021600  1.0
  C  C649  1  0.602800  0.691500  0.652700  1.0
  C  C650  1  0.088700  0.397200  0.652700  1.0
  C  C651  1  0.308500  0.911300  0.652700  1.0
  C  C652  1  0.602800  0.691500  0.347300  1.0
  C  C653  1  0.088700  0.397200  0.347300  1.0
  C  C654  1  0.308500  0.911300  0.347300  1.0
  C  C655  1  0.640900  0.759800  0.679200  1.0
  C  C656  1  0.118900  0.359100  0.679200  1.0
  C  C657  1  0.240200  0.881100  0.679200  1.0
  C  C658  1  0.640900  0.759800  0.320800  1.0
  C  C659  1  0.118900  0.359100  0.320800  1.0
  C  C660  1  0.240200  0.881100  0.320800  1.0
  C  C661  1  0.674000  0.450000  0.982400  1.0
  C  C662  1  0.776000  0.326000  0.982400  1.0
  C  C663  1  0.550000  0.224000  0.982400  1.0
  C  C664  1  0.674000  0.450000  0.017600  1.0
  C  C665  1  0.776000  0.326000  0.017600  1.0
  C  C666  1  0.550000  0.224000  0.017600  1.0
  C  C667  1  0.915800  0.605600  0.854700  1.0
  C  C668  1  0.689800  0.084200  0.854700  1.0
  C  C669  1  0.394400  0.310200  0.854700  1.0
  C  C670  1  0.915800  0.605600  0.145300  1.0
  C  C671  1  0.689800  0.084200  0.145300  1.0
  C  C672  1  0.394400  0.310200  0.145300  1.0
  C  C673  1  0.876700  0.634300  0.836100  1.0
  C  C674  1  0.757600  0.123300  0.836100  1.0
  C  C675  1  0.365700  0.242400  0.836100  1.0
  C  C676  1  0.876700  0.634300  0.163900  1.0
  C  C677  1  0.757600  0.123300  0.163900  1.0
  C  C678  1  0.365700  0.242400  0.163900  1.0
  C  C679  1  0.080000  0.203000  0.500000  1.0
  C  C680  1  0.123000  0.920000  0.500000  1.0
  C  C681  1  0.797000  0.877000  0.500000  1.0
  C  C682  1  0.229000  0.706000  0.500000  1.0
  C  C683  1  0.477000  0.771000  0.500000  1.0
  C  C684  1  0.294000  0.523000  0.500000  1.0
  C  C685  1  0.354800  0.587600  0.705700  1.0
  C  C686  1  0.232800  0.645200  0.705700  1.0
  C  C687  1  0.412400  0.767200  0.705700  1.0
  C  C688  1  0.354800  0.587600  0.294300  1.0
  C  C689  1  0.232800  0.645200  0.294300  1.0
  C  C690  1  0.412400  0.767200  0.294300  1.0
  C  C691  1  0.425700  0.598700  0.762500  1.0
  C  C692  1  0.173000  0.574300  0.762500  1.0
  C  C693  1  0.401300  0.827000  0.762500  1.0
  C  C694  1  0.425700  0.598700  0.237500  1.0
  C  C695  1  0.173000  0.574300  0.237500  1.0
  C  C696  1  0.401300  0.827000  0.237500  1.0
  C  C697  1  0.369200  0.544400  0.782800  1.0
  C  C698  1  0.175200  0.630800  0.782800  1.0
  C  C699  1  0.455600  0.824800  0.782800  1.0
  C  C700  1  0.369200  0.544400  0.217200  1.0
  C  C701  1  0.175200  0.630800  0.217200  1.0
  C  C702  1  0.455600  0.824800  0.217200  1.0
  C  C703  1  0.305900  0.516100  0.763300  1.0
  C  C704  1  0.210200  0.694100  0.763300  1.0
  C  C705  1  0.483900  0.789800  0.763300  1.0
  C  C706  1  0.305900  0.516100  0.236700  1.0
  C  C707  1  0.210200  0.694100  0.236700  1.0
  C  C708  1  0.483900  0.789800  0.236700  1.0
  C  C709  1  0.377700  0.524200  0.826400  1.0
  C  C710  1  0.146500  0.622300  0.826400  1.0
  C  C711  1  0.475800  0.853500  0.826400  1.0
  C  C712  1  0.377700  0.524200  0.173600  1.0
  C  C713  1  0.146500  0.622300  0.173600  1.0
  C  C714  1  0.475800  0.853500  0.173600  1.0
  C  C715  1  0.446100  0.536800  0.882600  1.0
  C  C716  1  0.090700  0.553900  0.882600  1.0
  C  C717  1  0.463200  0.909300  0.882600  1.0
  C  C718  1  0.446100  0.536800  0.117400  1.0
  C  C719  1  0.090700  0.553900  0.117400  1.0
  C  C720  1  0.463200  0.909300  0.117400  1.0
  C  C721  1  0.390900  0.487300  0.904200  1.0
  C  C722  1  0.096400  0.609100  0.904200  1.0
  C  C723  1  0.512700  0.903600  0.904200  1.0
  C  C724  1  0.390900  0.487300  0.095800  1.0
  C  C725  1  0.096400  0.609100  0.095800  1.0
  C  C726  1  0.512700  0.903600  0.095800  1.0
  C  C727  1  0.328700  0.455300  0.882600  1.0
  C  C728  1  0.126600  0.671300  0.882600  1.0
  C  C729  1  0.544700  0.873400  0.882600  1.0
  C  C730  1  0.328700  0.455300  0.117400  1.0
  C  C731  1  0.126600  0.671300  0.117400  1.0
  C  C732  1  0.544700  0.873400  0.117400  1.0
  C  C733  1  0.638100  0.641200  0.936000  1.0
  C  C734  1  0.003100  0.361900  0.936000  1.0
  C  C735  1  0.358800  0.996900  0.936000  1.0
  C  C736  1  0.638100  0.641200  0.064000  1.0
  C  C737  1  0.003100  0.361900  0.064000  1.0
  C  C738  1  0.358800  0.996900  0.064000  1.0
  C  C739  1  0.563700  0.636000  0.885300  1.0
  C  C740  1  0.072300  0.436300  0.885300  1.0
  C  C741  1  0.364000  0.927700  0.885300  1.0
  C  C742  1  0.563700  0.636000  0.114700  1.0
  C  C743  1  0.072300  0.436300  0.114700  1.0
  C  C744  1  0.364000  0.927700  0.114700  1.0
  C  C745  1  0.514100  0.575000  0.901300  1.0
  C  C746  1  0.060900  0.485900  0.901300  1.0
  C  C747  1  0.425000  0.939100  0.901300  1.0
  C  C748  1  0.514100  0.575000  0.098700  1.0
  C  C749  1  0.060900  0.485900  0.098700  1.0
  C  C750  1  0.425000  0.939100  0.098700  1.0
  C  C751  1  0.531100  0.546600  0.935700  1.0
  C  C752  1  0.015500  0.468900  0.935700  1.0
  C  C753  1  0.453400  0.984500  0.935700  1.0
  C  C754  1  0.531100  0.546600  0.064300  1.0
  C  C755  1  0.015500  0.468900  0.064300  1.0
  C  C756  1  0.453400  0.984500  0.064300  1.0
  C  C757  1  0.151200  0.297800  0.935700  1.0
  C  C758  1  0.146600  0.848800  0.935700  1.0
  C  C759  1  0.702200  0.853400  0.935700  1.0
  C  C760  1  0.151200  0.297800  0.064300  1.0
  C  C761  1  0.146600  0.848800  0.064300  1.0
  C  C762  1  0.702200  0.853400  0.064300  1.0
  C  C763  1  0.203700  0.383700  0.886100  1.0
  C  C764  1  0.180000  0.796300  0.886100  1.0
  C  C765  1  0.616300  0.820000  0.886100  1.0
  C  C766  1  0.203700  0.383700  0.113900  1.0
  C  C767  1  0.180000  0.796300  0.113900  1.0
  C  C768  1  0.616300  0.820000  0.113900  1.0
  C  C769  1  0.267300  0.401500  0.901900  1.0
  C  C770  1  0.134200  0.732700  0.901900  1.0
  C  C771  1  0.598500  0.865800  0.901900  1.0
  C  C772  1  0.267300  0.401500  0.098100  1.0
  C  C773  1  0.134200  0.732700  0.098100  1.0
  C  C774  1  0.598500  0.865800  0.098100  1.0
  C  C775  1  0.267200  0.361600  0.937200  1.0
  C  C776  1  0.094400  0.732800  0.937200  1.0
  C  C777  1  0.638400  0.905600  0.937200  1.0
  C  C778  1  0.267200  0.361600  0.062800  1.0
  C  C779  1  0.094400  0.732800  0.062800  1.0
  C  C780  1  0.638400  0.905600  0.062800  1.0
  C  C781  1  0.828000  0.988000  0.659000  0.485
  C  C782  1  0.160000  0.172000  0.659000  0.485
  C  C783  1  0.012000  0.840000  0.659000  0.485
  C  C784  1  0.828000  0.988000  0.341000  0.485
  C  C785  1  0.160000  0.172000  0.341000  0.485
  C  C786  1  0.012000  0.840000  0.341000  0.485
  C  C787  1  0.753000  0.930000  0.635000  0.485
  C  C788  1  0.177000  0.247000  0.635000  0.485
  C  C789  1  0.070000  0.823000  0.635000  0.485
  C  C790  1  0.753000  0.930000  0.365000  0.485
  C  C791  1  0.177000  0.247000  0.365000  0.485
  C  C792  1  0.070000  0.823000  0.365000  0.485
  C  C793  1  0.767000  0.356000  0.779700  0.485
  C  C794  1  0.589000  0.233000  0.779700  0.485
  C  C795  1  0.644000  0.411000  0.779700  0.485
  C  C796  1  0.767000  0.356000  0.220300  0.485
  C  C797  1  0.589000  0.233000  0.220300  0.485
  C  C798  1  0.644000  0.411000  0.220300  0.485
  C  C799  1  0.794000  0.311000  0.724500  0.485
  C  C800  1  0.517000  0.206000  0.724500  0.485
  C  C801  1  0.689000  0.483000  0.724500  0.485
  C  C802  1  0.794000  0.311000  0.275500  0.485
  C  C803  1  0.517000  0.206000  0.275500  0.485
  C  C804  1  0.689000  0.483000  0.275500  0.485
  C  C805  1  0.828000  0.371000  0.703700  0.485
  C  C806  1  0.543000  0.172000  0.703700  0.485
  C  C807  1  0.629000  0.457000  0.703700  0.485
  C  C808  1  0.828000  0.371000  0.296300  0.485
  C  C809  1  0.543000  0.172000  0.296300  0.485
  C  C810  1  0.629000  0.457000  0.296300  0.485
  C  C811  1  0.822000  0.423000  0.720500  0.485
  C  C812  1  0.601000  0.178000  0.720500  0.485
  C  C813  1  0.577000  0.399000  0.720500  0.485
  C  C814  1  0.822000  0.423000  0.279500  0.485
  C  C815  1  0.601000  0.178000  0.279500  0.485
  C  C816  1  0.577000  0.399000  0.279500  0.485
  C  C817  1  0.859000  0.378300  0.662100  0.485
  C  C818  1  0.519300  0.141000  0.662100  0.485
  C  C819  1  0.621700  0.480700  0.662100  0.485
  C  C820  1  0.859000  0.378300  0.337900  0.485
  C  C821  1  0.519300  0.141000  0.337900  0.485
  C  C822  1  0.621700  0.480700  0.337900  0.485
  C  C823  1  0.911000  0.446000  0.606000  0.485
  C  C824  1  0.535000  0.089000  0.606000  0.485
  C  C825  1  0.554000  0.465000  0.606000  0.485
  C  C826  1  0.911000  0.446000  0.394000  0.485
  C  C827  1  0.535000  0.089000  0.394000  0.485
  C  C828  1  0.554000  0.465000  0.394000  0.485
  C  C829  1  0.904000  0.390000  0.583600  0.485
  C  C830  1  0.486000  0.096000  0.583600  0.485
  C  C831  1  0.610000  0.514000  0.583600  0.485
  C  C832  1  0.904000  0.390000  0.416400  0.485
  C  C833  1  0.486000  0.096000  0.416400  0.485
  C  C834  1  0.610000  0.514000  0.416400  0.485
  C  C835  1  0.873000  0.328000  0.602900  0.485
  C  C836  1  0.455000  0.127000  0.602900  0.485
  C  C837  1  0.672000  0.545000  0.602900  0.485
  C  C838  1  0.873000  0.328000  0.397100  0.485
  C  C839  1  0.455000  0.127000  0.397100  0.485
  C  C840  1  0.672000  0.545000  0.397100  0.485
  C  C841  1  0.996800  0.639000  0.548600  0.485
  C  C842  1  0.642200  0.003200  0.548600  0.485
  C  C843  1  0.361000  0.357800  0.548600  0.485
  C  C844  1  0.996800  0.639000  0.451400  0.485
  C  C845  1  0.642200  0.003200  0.451400  0.485
  C  C846  1  0.361000  0.357800  0.451400  0.485
  C  C847  1  0.987000  0.538000  0.555900  0.485
  C  C848  1  0.551000  0.013000  0.555900  0.485
  C  C849  1  0.462000  0.449000  0.555900  0.485
  C  C850  1  0.987000  0.538000  0.444100  0.485
  C  C851  1  0.551000  0.013000  0.444100  0.485
  C  C852  1  0.462000  0.449000  0.444100  0.485
  C  C853  1  0.948000  0.516000  0.591900  0.485
  C  C854  1  0.568000  0.052000  0.591900  0.485
  C  C855  1  0.484000  0.432000  0.591900  0.485
  C  C856  1  0.948000  0.516000  0.408100  0.485
  C  C857  1  0.568000  0.052000  0.408100  0.485
  C  C858  1  0.484000  0.432000  0.408100  0.485
  C  C859  1  0.936000  0.566000  0.603700  0.485
  C  C860  1  0.630000  0.064000  0.603700  0.485
  C  C861  1  0.434000  0.370000  0.603700  0.485
  C  C862  1  0.936000  0.566000  0.396300  0.485
  C  C863  1  0.630000  0.064000  0.396300  0.485
  C  C864  1  0.434000  0.370000  0.396300  0.485
  C  C865  1  0.852500  0.152800  0.549300  0.485
  C  C866  1  0.300300  0.147500  0.549300  0.485
  C  C867  1  0.847200  0.699700  0.549300  0.485
  C  C868  1  0.852500  0.152800  0.450700  0.485
  C  C869  1  0.300300  0.147500  0.450700  0.485
  C  C870  1  0.847200  0.699700  0.450700  0.485
  C  C871  1  0.903000  0.268400  0.547300  0.485
  C  C872  1  0.365400  0.097000  0.547300  0.485
  C  C873  1  0.731600  0.634600  0.547300  0.485
  C  C874  1  0.903000  0.268400  0.452700  0.485
  C  C875  1  0.365400  0.097000  0.452700  0.485
  C  C876  1  0.731600  0.634600  0.452700  0.485
  C  C877  1  0.867000  0.266500  0.583800  0.485
  C  C878  1  0.399500  0.133000  0.583800  0.485
  C  C879  1  0.733500  0.600500  0.583800  0.485
  C  C880  1  0.867000  0.266500  0.416200  0.485
  C  C881  1  0.399500  0.133000  0.416200  0.485
  C  C882  1  0.733500  0.600500  0.416200  0.485
  C  C883  1  0.819000  0.203000  0.597800  0.485
  C  C884  1  0.384000  0.181000  0.597800  0.485
  C  C885  1  0.797000  0.616000  0.597800  0.485
  C  C886  1  0.819000  0.203000  0.402200  0.485
  C  C887  1  0.384000  0.181000  0.402200  0.485
  C  C888  1  0.797000  0.616000  0.402200  0.485
  C  C889  1  0.812700  0.812300  0.817000  0.5
  C  C890  1  0.999600  0.187300  0.817000  0.5
  C  C891  1  0.187700  0.000400  0.817000  0.5
  C  C892  1  0.812700  0.812300  0.183000  0.5
  C  C893  1  0.999600  0.187300  0.183000  0.5
  C  C894  1  0.187700  0.000400  0.183000  0.5
  C  C895  1  0.802000  0.754000  0.819200  0.5
  C  C896  1  0.952000  0.198000  0.819200  0.5
  C  C897  1  0.246000  0.048000  0.819200  0.5
  C  C898  1  0.802000  0.754000  0.180800  0.5
  C  C899  1  0.952000  0.198000  0.180800  0.5
  C  C900  1  0.246000  0.048000  0.180800  0.5
  C  C901  1  0.833000  0.818000  0.839100  0.5
  C  C902  1  0.985000  0.167000  0.839100  0.5
  C  C903  1  0.182000  0.015000  0.839100  0.5
  C  C904  1  0.833000  0.818000  0.160900  0.5
  C  C905  1  0.985000  0.167000  0.160900  0.5
  C  C906  1  0.182000  0.015000  0.160900  0.5
  C  C907  1  0.816300  0.757600  0.837600  0.5
  C  C908  1  0.941300  0.183700  0.837600  0.5
  C  C909  1  0.242400  0.058700  0.837600  0.5
  C  C910  1  0.816300  0.757600  0.162400  0.5
  C  C911  1  0.941300  0.183700  0.162400  0.5
  C  C912  1  0.242400  0.058700  0.162400  0.5
  C  C913  1  0.049000  0.157000  0.531100  0.5
  C  C914  1  0.108000  0.951000  0.531100  0.5
  C  C915  1  0.843000  0.892000  0.531100  0.5
  C  C916  1  0.049000  0.157000  0.468900  0.5
  C  C917  1  0.108000  0.951000  0.468900  0.5
  C  C918  1  0.843000  0.892000  0.468900  0.5
  C  C919  1  0.215000  0.652000  0.535100  0.5
  C  C920  1  0.437000  0.785000  0.535100  0.5
  C  C921  1  0.348000  0.563000  0.535100  0.5
  C  C922  1  0.215000  0.652000  0.464900  0.5
  C  C923  1  0.437000  0.785000  0.464900  0.5
  C  C924  1  0.348000  0.563000  0.464900  0.5
  C  C925  1  0.817000  0.003000  0.700100  0.515
  C  C926  1  0.186000  0.183000  0.700100  0.515
  C  C927  1  0.997000  0.814000  0.700100  0.515
  C  C928  1  0.817000  0.003000  0.299900  0.515
  C  C929  1  0.186000  0.183000  0.299900  0.515
  C  C930  1  0.997000  0.814000  0.299900  0.515
  C  C931  1  0.758000  0.947000  0.682200  0.515
  C  C932  1  0.189000  0.242000  0.682200  0.515
  C  C933  1  0.053000  0.811000  0.682200  0.515
  C  C934  1  0.758000  0.947000  0.317800  0.515
  C  C935  1  0.189000  0.242000  0.317800  0.515
  C  C936  1  0.053000  0.811000  0.317800  0.515
  C  C937  1  0.767400  0.354500  0.810400  0.515
  C  C938  1  0.587100  0.232600  0.810400  0.515
  C  C939  1  0.645500  0.412900  0.810400  0.515
  C  C940  1  0.767400  0.354500  0.189600  0.515
  C  C941  1  0.587100  0.232600  0.189600  0.515
  C  C942  1  0.645500  0.412900  0.189600  0.515
  C  C943  1  0.786300  0.305100  0.751000  0.515
  C  C944  1  0.518800  0.213700  0.751000  0.515
  C  C945  1  0.694900  0.481200  0.751000  0.515
  C  C946  1  0.786300  0.305100  0.249000  0.515
  C  C947  1  0.518800  0.213700  0.249000  0.515
  C  C948  1  0.694900  0.481200  0.249000  0.515
  C  C949  1  0.823200  0.368200  0.731400  0.515
  C  C950  1  0.545000  0.176800  0.731400  0.515
  C  C951  1  0.631800  0.455000  0.731400  0.515
  C  C952  1  0.823200  0.368200  0.268600  0.515
  C  C953  1  0.545000  0.176800  0.268600  0.515
  C  C954  1  0.631800  0.455000  0.268600  0.515
  C  C955  1  0.825400  0.422400  0.751700  0.515
  C  C956  1  0.597000  0.174600  0.751700  0.515
  C  C957  1  0.577600  0.403000  0.751700  0.515
  C  C958  1  0.825400  0.422400  0.248300  0.515
  C  C959  1  0.597000  0.174600  0.248300  0.515
  C  C960  1  0.577600  0.403000  0.248300  0.515
  C  C961  1  0.854200  0.376300  0.688900  0.515
  C  C962  1  0.522100  0.145800  0.688900  0.515
  C  C963  1  0.623700  0.477900  0.688900  0.515
  C  C964  1  0.854200  0.376300  0.311100  0.515
  C  C965  1  0.522100  0.145800  0.311100  0.515
  C  C966  1  0.623700  0.477900  0.311100  0.515
  C  C967  1  0.906500  0.445900  0.632400  0.515
  C  C968  1  0.539400  0.093500  0.632400  0.515
  C  C969  1  0.554100  0.460600  0.632400  0.515
  C  C970  1  0.906500  0.445900  0.367600  0.515
  C  C971  1  0.539400  0.093500  0.367600  0.515
  C  C972  1  0.554100  0.460600  0.367600  0.515
  C  C973  1  0.902900  0.391300  0.610700  0.515
  C  C974  1  0.488400  0.097100  0.610700  0.515
  C  C975  1  0.608700  0.511600  0.610700  0.515
  C  C976  1  0.902900  0.391300  0.389300  0.515
  C  C977  1  0.488400  0.097100  0.389300  0.515
  C  C978  1  0.608700  0.511600  0.389300  0.515
  C  C979  1  0.877900  0.330500  0.631500  0.515
  C  C980  1  0.452600  0.122100  0.631500  0.515
  C  C981  1  0.669500  0.547400  0.631500  0.515
  C  C982  1  0.877900  0.330500  0.368500  0.515
  C  C983  1  0.452600  0.122100  0.368500  0.515
  C  C984  1  0.669500  0.547400  0.368500  0.515
  C  C985  1  0.998100  0.640400  0.578700  0.515
  C  C986  1  0.642300  0.001900  0.578700  0.515
  C  C987  1  0.359600  0.357700  0.578700  0.515
  C  C988  1  0.998100  0.640400  0.421300  0.515
  C  C989  1  0.642300  0.001900  0.421300  0.515
  C  C990  1  0.359600  0.357700  0.421300  0.515
  C  C991  1  0.983700  0.533400  0.580700  0.515
  C  C992  1  0.549700  0.016300  0.580700  0.515
  C  C993  1  0.466600  0.450300  0.580700  0.515
  C  C994  1  0.983700  0.533400  0.419300  0.515
  C  C995  1  0.549700  0.016300  0.419300  0.515
  C  C996  1  0.466600  0.450300  0.419300  0.515
  C  C997  1  0.941200  0.515800  0.615900  0.515
  C  C998  1  0.574600  0.058800  0.615900  0.515
  C  C999  1  0.484200  0.425400  0.615900  0.515
  C  C1000  1  0.941200  0.515800  0.384100  0.515
  C  C1001  1  0.574600  0.058800  0.384100  0.515
  C  C1002  1  0.484200  0.425400  0.384100  0.515
  C  C1003  1  0.926400  0.564000  0.629500  0.515
  C  C1004  1  0.637600  0.073600  0.629500  0.515
  C  C1005  1  0.436000  0.362400  0.629500  0.515
  C  C1006  1  0.926400  0.564000  0.370500  0.515
  C  C1007  1  0.637600  0.073600  0.370500  0.515
  C  C1008  1  0.436000  0.362400  0.370500  0.515
  C  C1009  1  0.853400  0.151300  0.578900  0.515
  C  C1010  1  0.297900  0.146600  0.578900  0.515
  C  C1011  1  0.848700  0.702100  0.578900  0.515
  C  C1012  1  0.853400  0.151300  0.421100  0.515
  C  C1013  1  0.297900  0.146600  0.421100  0.515
  C  C1014  1  0.848700  0.702100  0.421100  0.515
  C  C1015  1  0.907900  0.270800  0.576400  0.515
  C  C1016  1  0.362900  0.092100  0.576400  0.515
  C  C1017  1  0.729200  0.637100  0.576400  0.515
  C  C1018  1  0.907900  0.270800  0.423600  0.515
  C  C1019  1  0.362900  0.092100  0.423600  0.515
  C  C1020  1  0.729200  0.637100  0.423600  0.515
  C  C1021  1  0.869100  0.268400  0.611300  0.515
  C  C1022  1  0.399300  0.130900  0.611300  0.515
  C  C1023  1  0.731600  0.600700  0.611300  0.515
  C  C1024  1  0.869100  0.268400  0.388700  0.515
  C  C1025  1  0.399300  0.130900  0.388700  0.515
  C  C1026  1  0.731600  0.600700  0.388700  0.515
  C  C1027  1  0.822600  0.205400  0.629200  0.515
  C  C1028  1  0.382800  0.177400  0.629200  0.515
  C  C1029  1  0.794600  0.617200  0.629200  0.515
  C  C1030  1  0.822600  0.205400  0.370800  0.515
  C  C1031  1  0.382800  0.177400  0.370800  0.515
  C  C1032  1  0.794600  0.617200  0.370800  0.515
  N  N1033  1  0.781800  0.838500  0.848400  1.0
  N  N1034  1  0.056700  0.218200  0.848400  1.0
  N  N1035  1  0.161500  0.943300  0.848400  1.0
  N  N1036  1  0.781800  0.838500  0.151600  1.0
  N  N1037  1  0.056700  0.218200  0.151600  1.0
  N  N1038  1  0.161500  0.943300  0.151600  1.0
  N  N1039  1  0.746600  0.704600  0.850600  1.0
  N  N1040  1  0.958000  0.253400  0.850600  1.0
  N  N1041  1  0.295400  0.042000  0.850600  1.0
  N  N1042  1  0.746600  0.704600  0.149400  1.0
  N  N1043  1  0.958000  0.253400  0.149400  1.0
  N  N1044  1  0.295400  0.042000  0.149400  1.0
  N  N1045  1  0.198400  0.179400  0.955900  1.0
  N  N1046  1  0.981000  0.801600  0.955900  1.0
  N  N1047  1  0.820600  0.019000  0.955900  1.0
  N  N1048  1  0.198400  0.179400  0.044100  1.0
  N  N1049  1  0.981000  0.801600  0.044100  1.0
  N  N1050  1  0.820600  0.019000  0.044100  1.0
  N  N1051  1  0.538800  0.645700  0.677500  1.0
  N  N1052  1  0.106900  0.461200  0.677500  1.0
  N  N1053  1  0.354300  0.893100  0.677500  1.0
  N  N1054  1  0.538800  0.645700  0.322500  1.0
  N  N1055  1  0.106900  0.461200  0.322500  1.0
  N  N1056  1  0.354300  0.893100  0.322500  1.0
  N  N1057  1  0.584000  0.783000  0.678000  1.0
  N  N1058  1  0.199000  0.416000  0.678000  1.0
  N  N1059  1  0.217000  0.801000  0.678000  1.0
  N  N1060  1  0.584000  0.783000  0.322000  1.0
  N  N1061  1  0.199000  0.416000  0.322000  1.0
  N  N1062  1  0.217000  0.801000  0.322000  1.0
  N  N1063  1  0.649300  0.491500  0.955300  1.0
  N  N1064  1  0.842200  0.350700  0.955300  1.0
  N  N1065  1  0.508500  0.157800  0.955300  1.0
  N  N1066  1  0.649300  0.491500  0.044700  1.0
  N  N1067  1  0.842200  0.350700  0.044700  1.0
  N  N1068  1  0.508500  0.157800  0.044700  1.0
  N  N1069  1  0.893300  0.540400  0.829100  1.0
  N  N1070  1  0.647100  0.106700  0.829100  1.0
  N  N1071  1  0.459600  0.352900  0.829100  1.0
  N  N1072  1  0.893300  0.540400  0.170900  1.0
  N  N1073  1  0.647100  0.106700  0.170900  1.0
  N  N1074  1  0.459600  0.352900  0.170900  1.0
  N  N1075  1  0.804000  0.586800  0.828500  1.0
  N  N1076  1  0.782800  0.196000  0.828500  1.0
  N  N1077  1  0.413200  0.217200  0.828500  1.0
  N  N1078  1  0.804000  0.586800  0.171500  1.0
  N  N1079  1  0.782800  0.196000  0.171500  1.0
  N  N1080  1  0.413200  0.217200  0.171500  1.0
  N  N1081  1  0.416200  0.618400  0.723600  1.0
  N  N1082  1  0.202200  0.583800  0.723600  1.0
  N  N1083  1  0.381600  0.797800  0.723600  1.0
  N  N1084  1  0.416200  0.618400  0.276400  1.0
  N  N1085  1  0.202200  0.583800  0.276400  1.0
  N  N1086  1  0.381600  0.797800  0.276400  1.0
  N  N1087  1  0.299100  0.538100  0.724200  1.0
  N  N1088  1  0.239000  0.700900  0.724200  1.0
  N  N1089  1  0.461900  0.761000  0.724200  1.0
  N  N1090  1  0.299100  0.538100  0.275800  1.0
  N  N1091  1  0.239000  0.700900  0.275800  1.0
  N  N1092  1  0.461900  0.761000  0.275800  1.0
  N  N1093  1  0.438600  0.556500  0.843200  1.0
  N  N1094  1  0.117900  0.561400  0.843200  1.0
  N  N1095  1  0.443500  0.882100  0.843200  1.0
  N  N1096  1  0.438600  0.556500  0.156800  1.0
  N  N1097  1  0.117900  0.561400  0.156800  1.0
  N  N1098  1  0.443500  0.882100  0.156800  1.0
  N  N1099  1  0.322200  0.474600  0.844300  1.0
  N  N1100  1  0.152400  0.677800  0.844300  1.0
  N  N1101  1  0.525400  0.847600  0.844300  1.0
  N  N1102  1  0.322200  0.474600  0.155700  1.0
  N  N1103  1  0.152400  0.677800  0.155700  1.0
  N  N1104  1  0.525400  0.847600  0.155700  1.0
  N  N1105  1  0.625200  0.669400  0.902300  1.0
  N  N1106  1  0.044200  0.374800  0.902300  1.0
  N  N1107  1  0.330600  0.955800  0.902300  1.0
  N  N1108  1  0.625200  0.669400  0.097700  1.0
  N  N1109  1  0.044200  0.374800  0.097700  1.0
  N  N1110  1  0.330600  0.955800  0.097700  1.0
  N  N1111  1  0.594100  0.581600  0.953200  1.0
  N  N1112  1  0.987500  0.405900  0.953200  1.0
  N  N1113  1  0.418400  0.012500  0.953200  1.0
  N  N1114  1  0.594100  0.581600  0.046800  1.0
  N  N1115  1  0.987500  0.405900  0.046800  1.0
  N  N1116  1  0.418400  0.012500  0.046800  1.0
  N  N1117  1  0.147200  0.332800  0.902300  1.0
  N  N1118  1  0.185600  0.852800  0.902300  1.0
  N  N1119  1  0.667200  0.814400  0.902300  1.0
  N  N1120  1  0.147200  0.332800  0.097700  1.0
  N  N1121  1  0.185600  0.852800  0.097700  1.0
  N  N1122  1  0.667200  0.814400  0.097700  1.0
  N  N1123  1  0.210500  0.311700  0.952900  1.0
  N  N1124  1  0.101200  0.789500  0.952900  1.0
  N  N1125  1  0.688300  0.898800  0.952900  1.0
  N  N1126  1  0.210500  0.311700  0.047100  1.0
  N  N1127  1  0.101200  0.789500  0.047100  1.0
  N  N1128  1  0.688300  0.898800  0.047100  1.0
  N  N1129  1  0.272700  0.854000  0.000000  1.0
  N  N1130  1  0.581300  0.727300  0.000000  1.0
  N  N1131  1  0.146000  0.418700  1.000000  1.0
  N  N1132  1  0.787800  0.795800  1.000000  1.0
  N  N1133  1  0.008000  0.212200  0.000000  1.0
  N  N1134  1  0.204200  0.992000  0.000000  1.0
  N  N1135  1  0.333333  0.666633  0.813900  1.0
  N  N1136  1  0.333333  0.666633  0.186100  1.0
  N  N1137  1  0.598200  0.511300  0.848100  1.0
  N  N1138  1  0.913100  0.401800  0.848100  1.0
  N  N1139  1  0.488700  0.086900  0.848100  1.0
  N  N1140  1  0.598200  0.511300  0.151900  1.0
  N  N1141  1  0.913100  0.401800  0.151900  1.0
  N  N1142  1  0.488700  0.086900  0.151900  1.0
  N  N1143  1  0.663300  0.903600  0.782200  1.0
  N  N1144  1  0.240300  0.336700  0.782200  1.0
  N  N1145  1  0.096400  0.759700  0.782200  1.0
  N  N1146  1  0.663300  0.903600  0.217800  1.0
  N  N1147  1  0.240300  0.336700  0.217800  1.0
  N  N1148  1  0.096400  0.759700  0.217800  1.0
  N  N1149  1  0.508500  0.915900  0.672500  1.0
  N  N1150  1  0.407400  0.491500  0.672500  1.0
  N  N1151  1  0.084100  0.592600  0.672500  1.0
  N  N1152  1  0.508500  0.915900  0.327500  1.0
  N  N1153  1  0.407400  0.491500  0.327500  1.0
  N  N1154  1  0.084100  0.592600  0.327500  1.0
  N  N1155  1  0.901700  0.236000  0.734500  1.0
  N  N1156  1  0.334300  0.098300  0.734500  1.0
  N  N1157  1  0.764000  0.665700  0.734500  1.0
  N  N1158  1  0.901700  0.236000  0.265500  1.0
  N  N1159  1  0.334300  0.098300  0.265500  1.0
  N  N1160  1  0.764000  0.665700  0.265500  1.0
  N  N1161  1  0.666667  0.333333  0.701200  1.0
  N  N1162  1  0.666667  0.333333  0.298800  1.0
  N  N1163  1  0.837000  0.054000  0.632400  0.485
  N  N1164  1  0.217000  0.163000  0.632400  0.485
  N  N1165  1  0.946000  0.783000  0.632400  0.485
  N  N1166  1  0.837000  0.054000  0.367600  0.485
  N  N1167  1  0.217000  0.163000  0.367600  0.485
  N  N1168  1  0.946000  0.783000  0.367600  0.485
  N  N1169  1  0.703000  0.955000  0.629800  0.485
  N  N1170  1  0.252000  0.297000  0.629800  0.485
  N  N1171  1  0.045000  0.748000  0.629800  0.485
  N  N1172  1  0.703000  0.955000  0.370200  0.485
  N  N1173  1  0.252000  0.297000  0.370200  0.485
  N  N1174  1  0.045000  0.748000  0.370200  0.485
  N  N1175  1  0.796000  0.418000  0.759700  0.485
  N  N1176  1  0.622000  0.204000  0.759700  0.485
  N  N1177  1  0.582000  0.378000  0.759700  0.485
  N  N1178  1  0.796000  0.418000  0.240300  0.485
  N  N1179  1  0.622000  0.204000  0.240300  0.485
  N  N1180  1  0.582000  0.378000  0.240300  0.485
  N  N1181  1  0.766000  0.301000  0.763800  0.485
  N  N1182  1  0.535000  0.234000  0.763800  0.485
  N  N1183  1  0.699000  0.465000  0.763800  0.485
  N  N1184  1  0.766000  0.301000  0.236200  0.485
  N  N1185  1  0.535000  0.234000  0.236200  0.485
  N  N1186  1  0.699000  0.465000  0.236200  0.485
  N  N1187  1  0.888700  0.440700  0.646000  0.485
  N  N1188  1  0.552000  0.111300  0.646000  0.485
  N  N1189  1  0.559300  0.448000  0.646000  0.485
  N  N1190  1  0.888700  0.440700  0.354000  0.485
  N  N1191  1  0.552000  0.111300  0.354000  0.485
  N  N1192  1  0.559300  0.448000  0.354000  0.485
  N  N1193  1  0.847200  0.320900  0.642500  0.485
  N  N1194  1  0.473700  0.152800  0.642500  0.485
  N  N1195  1  0.679100  0.526300  0.642500  0.485
  N  N1196  1  0.847200  0.320900  0.357500  0.485
  N  N1197  1  0.473700  0.152800  0.357500  0.485
  N  N1198  1  0.679100  0.526300  0.357500  0.485
  N  N1199  1  0.960400  0.626000  0.584200  0.485
  N  N1200  1  0.665600  0.039600  0.584200  0.485
  N  N1201  1  0.374000  0.334400  0.584200  0.485
  N  N1202  1  0.960400  0.626000  0.415800  0.485
  N  N1203  1  0.665600  0.039600  0.415800  0.485
  N  N1204  1  0.374000  0.334400  0.415800  0.485
  N  N1205  1  0.011600  0.593600  0.531700  0.485
  N  N1206  1  0.582000  0.988400  0.531700  0.485
  N  N1207  1  0.406400  0.418000  0.531700  0.485
  N  N1208  1  0.011600  0.593600  0.468300  0.485
  N  N1209  1  0.582000  0.988400  0.468300  0.485
  N  N1210  1  0.406400  0.418000  0.468300  0.485
  N  N1211  1  0.813800  0.145700  0.583400  0.485
  N  N1212  1  0.331900  0.186200  0.583400  0.485
  N  N1213  1  0.854300  0.668100  0.583400  0.485
  N  N1214  1  0.813800  0.145700  0.416600  0.485
  N  N1215  1  0.331900  0.186200  0.416600  0.485
  N  N1216  1  0.854300  0.668100  0.416600  0.485
  N  N1217  1  0.897700  0.211000  0.530100  0.485
  N  N1218  1  0.313300  0.102300  0.530100  0.485
  N  N1219  1  0.789000  0.686700  0.530100  0.485
  N  N1220  1  0.897700  0.211000  0.469900  0.485
  N  N1221  1  0.313300  0.102300  0.469900  0.485
  N  N1222  1  0.789000  0.686700  0.469900  0.485
  N  N1223  1  0.022000  0.195800  0.554500  0.5
  N  N1224  1  0.173800  0.978000  0.554500  0.5
  N  N1225  1  0.804200  0.826200  0.554500  0.5
  N  N1226  1  0.022000  0.195800  0.445500  0.5
  N  N1227  1  0.173800  0.978000  0.445500  0.5
  N  N1228  1  0.804200  0.826200  0.445500  0.5
  N  N1229  1  0.019000  0.197000  0.470400  0.5
  N  N1230  1  0.178000  0.981000  0.470400  0.5
  N  N1231  1  0.803000  0.822000  0.470400  0.5
  N  N1232  1  0.019000  0.197000  0.529600  0.5
  N  N1233  1  0.178000  0.981000  0.529600  0.5
  N  N1234  1  0.803000  0.822000  0.529600  0.5
  N  N1235  1  0.161000  0.650000  0.557900  0.5
  N  N1236  1  0.489000  0.839000  0.557900  0.5
  N  N1237  1  0.350000  0.511000  0.557900  0.5
  N  N1238  1  0.161000  0.650000  0.442100  0.5
  N  N1239  1  0.489000  0.839000  0.442100  0.5
  N  N1240  1  0.350000  0.511000  0.442100  0.5
  N  N1241  1  0.158000  0.661000  0.474000  0.5
  N  N1242  1  0.503000  0.842000  0.474000  0.5
  N  N1243  1  0.339000  0.497000  0.474000  0.5
  N  N1244  1  0.158000  0.661000  0.526000  0.5
  N  N1245  1  0.503000  0.842000  0.526000  0.5
  N  N1246  1  0.339000  0.497000  0.526000  0.5
  N  N1247  1  0.419300  0.274300  0.515900  0.5
  N  N1248  1  0.855000  0.580700  0.515900  0.5
  N  N1249  1  0.725700  0.145000  0.515900  0.5
  N  N1250  1  0.419300  0.274300  0.484100  0.5
  N  N1251  1  0.855000  0.580700  0.484100  0.5
  N  N1252  1  0.725700  0.145000  0.484100  0.5
  N  N1253  1  0.424300  0.385800  0.987100  0.5
  N  N1254  1  0.961500  0.575700  0.987100  0.5
  N  N1255  1  0.614200  0.038500  0.987100  0.5
  N  N1256  1  0.424300  0.385800  0.012900  0.5
  N  N1257  1  0.961500  0.575700  0.012900  0.5
  N  N1258  1  0.614200  0.038500  0.012900  0.5
  N  N1259  1  0.794000  0.651000  0.932400  0.5
  N  N1260  1  0.857000  0.206000  0.932400  0.5
  N  N1261  1  0.349000  0.143000  0.932400  0.5
  N  N1262  1  0.794000  0.651000  0.067600  0.5
  N  N1263  1  0.857000  0.206000  0.067600  0.5
  N  N1264  1  0.349000  0.143000  0.067600  0.5
  N  N1265  1  0.841800  0.061500  0.662700  0.515
  N  N1266  1  0.219700  0.158200  0.662700  0.515
  N  N1267  1  0.938500  0.780300  0.662700  0.515
  N  N1268  1  0.841800  0.061500  0.337300  0.515
  N  N1269  1  0.219700  0.158200  0.337300  0.515
  N  N1270  1  0.938500  0.780300  0.337300  0.515
  N  N1271  1  0.708100  0.961200  0.668100  0.515
  N  N1272  1  0.253100  0.291900  0.668100  0.515
  N  N1273  1  0.038800  0.746900  0.668100  0.515
  N  N1274  1  0.708100  0.961200  0.331900  0.515
  N  N1275  1  0.253100  0.291900  0.331900  0.515
  N  N1276  1  0.038800  0.746900  0.331900  0.515
  N  N1277  1  0.797800  0.416700  0.790700  0.515
  N  N1278  1  0.618900  0.202200  0.790700  0.515
  N  N1279  1  0.583300  0.381100  0.790700  0.515
  N  N1280  1  0.797800  0.416700  0.209300  0.515
  N  N1281  1  0.618900  0.202200  0.209300  0.515
  N  N1282  1  0.583300  0.381100  0.209300  0.515
  N  N1283  1  0.762700  0.299600  0.791100  0.515
  N  N1284  1  0.536900  0.237300  0.791100  0.515
  N  N1285  1  0.700400  0.463100  0.791100  0.515
  N  N1286  1  0.762700  0.299600  0.208900  0.515
  N  N1287  1  0.536900  0.237300  0.208900  0.515
  N  N1288  1  0.700400  0.463100  0.208900  0.515
  N  N1289  1  0.881000  0.439000  0.672300  0.515
  N  N1290  1  0.558000  0.119000  0.672300  0.515
  N  N1291  1  0.561000  0.442000  0.672300  0.515
  N  N1292  1  0.881000  0.439000  0.327700  0.515
  N  N1293  1  0.558000  0.119000  0.327700  0.515
  N  N1294  1  0.561000  0.442000  0.327700  0.515
  N  N1295  1  0.849600  0.320900  0.670200  0.515
  N  N1296  1  0.471300  0.150400  0.670200  0.515
  N  N1297  1  0.679100  0.528700  0.670200  0.515
  N  N1298  1  0.849600  0.320900  0.329800  0.515
  N  N1299  1  0.471300  0.150400  0.329800  0.515
  N  N1300  1  0.679100  0.528700  0.329800  0.515
  N  N1301  1  0.956300  0.626500  0.612800  0.515
  N  N1302  1  0.670200  0.043700  0.612800  0.515
  N  N1303  1  0.373500  0.329800  0.612800  0.515
  N  N1304  1  0.956300  0.626500  0.387200  0.515
  N  N1305  1  0.670200  0.043700  0.387200  0.515
  N  N1306  1  0.373500  0.329800  0.387200  0.515
  N  N1307  1  0.012700  0.594800  0.562300  0.515
  N  N1308  1  0.582100  0.987300  0.562300  0.515
  N  N1309  1  0.405200  0.417900  0.562300  0.515
  N  N1310  1  0.012700  0.594800  0.437700  0.515
  N  N1311  1  0.582100  0.987300  0.437700  0.515
  N  N1312  1  0.405200  0.417900  0.437700  0.515
  N  N1313  1  0.814500  0.146600  0.612300  0.515
  N  N1314  1  0.332100  0.185500  0.612300  0.515
  N  N1315  1  0.853400  0.667900  0.612300  0.515
  N  N1316  1  0.814500  0.146600  0.387700  0.515
  N  N1317  1  0.332100  0.185500  0.387700  0.515
  N  N1318  1  0.853400  0.667900  0.387700  0.515
  N  N1319  1  0.900000  0.211300  0.560800  0.515
  N  N1320  1  0.311300  0.100000  0.560800  0.515
  N  N1321  1  0.788700  0.688700  0.560800  0.515
  N  N1322  1  0.900000  0.211300  0.439200  0.515
  N  N1323  1  0.311300  0.100000  0.439200  0.515
  N  N1324  1  0.788700  0.688700  0.439200  0.515
  N  N1325  1  0.788000  0.005000  0.526300  0.515
  N  N1326  1  0.217000  0.212000  0.526300  0.515
  N  N1327  1  0.995000  0.783000  0.526300  0.515
  N  N1328  1  0.788000  0.005000  0.473700  0.515
  N  N1329  1  0.217000  0.212000  0.473700  0.515
  N  N1330  1  0.995000  0.783000  0.473700  0.515
  N  N1331  1  0.650000  0.844000  0.574700  0.515
  N  N1332  1  0.194000  0.350000  0.574700  0.515
  N  N1333  1  0.156000  0.806000  0.574700  0.515
  N  N1334  1  0.650000  0.844000  0.425300  0.515
  N  N1335  1  0.194000  0.350000  0.425300  0.515
  N  N1336  1  0.156000  0.806000  0.425300  0.515
  O  O1337  1  0.258100  0.898300  1.000000  1.0
  O  O1338  1  0.640200  0.741900  0.000000  1.0
  O  O1339  1  0.101700  0.359800  1.000000  1.0
  O  O1340  1  0.231000  0.796000  1.000000  1.0
  O  O1341  1  0.565000  0.769000  1.000000  1.0
  O  O1342  1  0.204000  0.435000  1.000000  1.0
  O  O1343  1  0.775700  0.765600  0.963700  1.0
  O  O1344  1  0.989900  0.224300  0.963700  1.0
  O  O1345  1  0.234400  0.010100  0.963700  1.0
  O  O1346  1  0.775700  0.765600  0.036300  1.0
  O  O1347  1  0.989900  0.224300  0.036300  1.0
  O  O1348  1  0.234400  0.010100  0.036300  1.0
  O  O1349  1  0.812500  0.858100  1.000000  1.0
  O  O1350  1  0.045600  0.187500  1.000000  1.0
  O  O1351  1  0.141900  0.954400  1.000000  1.0
  O  O1352  1  0.333333  0.666633  0.776600  1.0
  O  O1353  1  0.333333  0.666633  0.223400  1.0
  O  O1354  1  0.390400  0.677700  0.832000  1.0
  O  O1355  1  0.287300  0.609600  0.832000  1.0
  O  O1356  1  0.322300  0.712700  0.832000  1.0
  O  O1357  1  0.390400  0.677700  0.168000  1.0
  O  O1358  1  0.287300  0.609600  0.168000  1.0
  O  O1359  1  0.322300  0.712700  0.168000  1.0
  O  O1360  1  0.568800  0.467600  0.874400  1.0
  O  O1361  1  0.898800  0.431200  0.874400  1.0
  O  O1362  1  0.532400  0.101200  0.874400  1.0
  O  O1363  1  0.568800  0.467600  0.125600  1.0
  O  O1364  1  0.898800  0.431200  0.125600  1.0
  O  O1365  1  0.532400  0.101200  0.125600  1.0
  O  O1366  1  0.652600  0.557500  0.863100  1.0
  O  O1367  1  0.904900  0.347400  0.863100  1.0
  O  O1368  1  0.442500  0.095100  0.863100  1.0
  O  O1369  1  0.652600  0.557500  0.136900  1.0
  O  O1370  1  0.904900  0.347400  0.136900  1.0
  O  O1371  1  0.442500  0.095100  0.136900  1.0
  O  O1372  1  0.555900  0.507000  0.815800  1.0
  O  O1373  1  0.951100  0.444100  0.815800  1.0
  O  O1374  1  0.493000  0.048900  0.815800  1.0
  O  O1375  1  0.555900  0.507000  0.184200  1.0
  O  O1376  1  0.951100  0.444100  0.184200  1.0
  O  O1377  1  0.493000  0.048900  0.184200  1.0
  O  O1378  1  0.423000  0.219000  0.500000  1.0
  O  O1379  1  0.796000  0.577000  0.500000  1.0
  O  O1380  1  0.781000  0.204000  0.500000  1.0
  O  O1381  1  0.681400  0.861800  0.797400  1.0
  O  O1382  1  0.180400  0.318600  0.797400  1.0
  O  O1383  1  0.138200  0.819600  0.797400  1.0
  O  O1384  1  0.681400  0.861800  0.202600  1.0
  O  O1385  1  0.180400  0.318600  0.202600  1.0
  O  O1386  1  0.138200  0.819600  0.202600  1.0
  O  O1387  1  0.627000  0.892300  0.748300  1.0
  O  O1388  1  0.265300  0.373000  0.748300  1.0
  O  O1389  1  0.107700  0.734700  0.748300  1.0
  O  O1390  1  0.627000  0.892300  0.251700  1.0
  O  O1391  1  0.265300  0.373000  0.251700  1.0
  O  O1392  1  0.107700  0.734700  0.251700  1.0
  O  O1393  1  0.688200  0.958700  0.800500  1.0
  O  O1394  1  0.270500  0.311800  0.800500  1.0
  O  O1395  1  0.041300  0.729500  0.800500  1.0
  O  O1396  1  0.688200  0.958700  0.199500  1.0
  O  O1397  1  0.270500  0.311800  0.199500  1.0
  O  O1398  1  0.041300  0.729500  0.199500  1.0
  O  O1399  1  0.409600  0.426400  1.000000  1.0
  O  O1400  1  0.016800  0.590400  1.000000  1.0
  O  O1401  1  0.573600  0.983200  0.000000  1.0
  O  O1402  1  0.563500  0.915200  0.669700  1.0
  O  O1403  1  0.351700  0.436500  0.669700  1.0
  O  O1404  1  0.084800  0.648300  0.669700  1.0
  O  O1405  1  0.563500  0.915200  0.330300  1.0
  O  O1406  1  0.351700  0.436500  0.330300  1.0
  O  O1407  1  0.084800  0.648300  0.330300  1.0
  O  O1408  1  0.504000  0.946000  0.699200  1.0
  O  O1409  1  0.442000  0.496000  0.699200  1.0
  O  O1410  1  0.054000  0.558000  0.699200  1.0
  O  O1411  1  0.504000  0.946000  0.300800  1.0
  O  O1412  1  0.442000  0.496000  0.300800  1.0
  O  O1413  1  0.054000  0.558000  0.300800  1.0
  O  O1414  1  0.473000  0.894000  0.641800  1.0
  O  O1415  1  0.421000  0.527000  0.641800  1.0
  O  O1416  1  0.106000  0.579000  0.641800  1.0
  O  O1417  1  0.473000  0.894000  0.358200  1.0
  O  O1418  1  0.421000  0.527000  0.358200  1.0
  O  O1419  1  0.106000  0.579000  0.358200  1.0
  O  O1420  1  0.892000  0.263900  0.768200  1.0
  O  O1421  1  0.371900  0.108000  0.768200  1.0
  O  O1422  1  0.736100  0.628100  0.768200  1.0
  O  O1423  1  0.892000  0.263900  0.231800  1.0
  O  O1424  1  0.371900  0.108000  0.231800  1.0
  O  O1425  1  0.736100  0.628100  0.231800  1.0
  O  O1426  1  0.955000  0.291000  0.711800  1.0
  O  O1427  1  0.336000  0.045000  0.711800  1.0
  O  O1428  1  0.709000  0.664000  0.711800  1.0
  O  O1429  1  0.955000  0.291000  0.288200  1.0
  O  O1430  1  0.336000  0.045000  0.288200  1.0
  O  O1431  1  0.709000  0.664000  0.288200  1.0
  O  O1432  1  0.857300  0.176100  0.724200  1.0
  O  O1433  1  0.318800  0.142700  0.724200  1.0
  O  O1434  1  0.823900  0.681200  0.724200  1.0
  O  O1435  1  0.857300  0.176100  0.275800  1.0
  O  O1436  1  0.318800  0.142700  0.275800  1.0
  O  O1437  1  0.823900  0.681200  0.275800  1.0
  O  O1438  1  0.666667  0.333333  0.739200  1.0
  O  O1439  1  0.666667  0.333333  0.260800  1.0
  O  O1440  1  0.579200  0.722800  0.796100  1.0
  O  O1441  1  0.143600  0.420800  0.796100  1.0
  O  O1442  1  0.277200  0.856400  0.796100  1.0
  O  O1443  1  0.579200  0.722800  0.203900  1.0
  O  O1444  1  0.143600  0.420800  0.203900  1.0
  O  O1445  1  0.277200  0.856400  0.203900  1.0
  O  O1446  1  0.773000  0.976000  0.867400  1.0
  O  O1447  1  0.203000  0.227000  0.867400  1.0
  O  O1448  1  0.024000  0.797000  0.867400  1.0
  O  O1449  1  0.773000  0.976000  0.132600  1.0
  O  O1450  1  0.203000  0.227000  0.132600  1.0
  O  O1451  1  0.024000  0.797000  0.132600  1.0
  O  O1452  1  0.725600  0.133600  0.716900  1.0
  O  O1453  1  0.408000  0.274400  0.716900  1.0
  O  O1454  1  0.866400  0.592000  0.716900  1.0
  O  O1455  1  0.725600  0.133600  0.283100  1.0
  O  O1456  1  0.408000  0.274400  0.283100  1.0
  O  O1457  1  0.866400  0.592000  0.283100  1.0
  O  O1458  1  0.600000  0.620300  0.760600  1.0
  O  O1459  1  0.020300  0.400000  0.760600  1.0
  O  O1460  1  0.379700  0.979700  0.760600  1.0
  O  O1461  1  0.600000  0.620300  0.239400  1.0
  O  O1462  1  0.020300  0.400000  0.239400  1.0
  O  O1463  1  0.379700  0.979700  0.239400  1.0
  O  O1464  1  0.867400  0.929300  0.917400  1.0
  O  O1465  1  0.061900  0.132600  0.917400  1.0
  O  O1466  1  0.070700  0.938100  0.917400  1.0
  O  O1467  1  0.867400  0.929300  0.082600  1.0
  O  O1468  1  0.061900  0.132600  0.082600  1.0
  O  O1469  1  0.070700  0.938100  0.082600  1.0
  O  O1470  1  0.610000  0.017700  0.755700  1.0
  O  O1471  1  0.407700  0.390000  0.755700  1.0
  O  O1472  1  0.982300  0.592300  0.755700  1.0
  O  O1473  1  0.610000  0.017700  0.244300  1.0
  O  O1474  1  0.407700  0.390000  0.244300  1.0
  O  O1475  1  0.982300  0.592300  0.244300  1.0
  O  O1476  1  0.949000  0.044000  0.583000  1.0
  O  O1477  1  0.095000  0.051000  0.583000  1.0
  O  O1478  1  0.956000  0.905000  0.583000  1.0
  O  O1479  1  0.949000  0.044000  0.417000  1.0
  O  O1480  1  0.095000  0.051000  0.417000  1.0
  O  O1481  1  0.956000  0.905000  0.417000  1.0
  O  O1482  1  0.304000  0.769000  0.903300  1.0
  O  O1483  1  0.465000  0.696000  0.903300  1.0
  O  O1484  1  0.231000  0.535000  0.903300  1.0
  O  O1485  1  0.304000  0.769000  0.096700  1.0
  O  O1486  1  0.465000  0.696000  0.096700  1.0
  O  O1487  1  0.231000  0.535000  0.096700  1.0
  O  O1488  1  0.006000  0.119000  0.702000  1.0
  O  O1489  1  0.113000  0.994000  0.702000  1.0
  O  O1490  1  0.881000  0.887000  0.702000  1.0
  O  O1491  1  0.006000  0.119000  0.298000  1.0
  O  O1492  1  0.113000  0.994000  0.298000  1.0
  O  O1493  1  0.881000  0.887000  0.298000  1.0
  O  O1494  1  0.232000  0.024000  0.640000  1.0
  O  O1495  1  0.792000  0.768000  0.640000  1.0
  O  O1496  1  0.976000  0.208000  0.640000  1.0
  O  O1497  1  0.232000  0.024000  0.360000  1.0
  O  O1498  1  0.792000  0.768000  0.360000  1.0
  O  O1499  1  0.976000  0.208000  0.360000  1.0
  O  O1500  1  0.521000  0.302000  0.611300  1.0
  O  O1501  1  0.781000  0.479000  0.611300  1.0
  O  O1502  1  0.698000  0.219000  0.611300  1.0
  O  O1503  1  0.521000  0.302000  0.388700  1.0
  O  O1504  1  0.781000  0.479000  0.388700  1.0
  O  O1505  1  0.698000  0.219000  0.388700  1.0
  O  O1506  1  0.887000  0.994000  0.823400  1.0
  O  O1507  1  0.107000  0.113000  0.823400  1.0
  O  O1508  1  0.006000  0.893000  0.823400  1.0
  O  O1509  1  0.887000  0.994000  0.176600  1.0
  O  O1510  1  0.107000  0.113000  0.176600  1.0
  O  O1511  1  0.006000  0.893000  0.176600  1.0
  O  O1512  1  0.256000  0.541000  0.613900  1.0
  O  O1513  1  0.285000  0.744000  0.613900  1.0
  O  O1514  1  0.459000  0.715000  0.613900  1.0
  O  O1515  1  0.256000  0.541000  0.386100  1.0
  O  O1516  1  0.285000  0.744000  0.386100  1.0
  O  O1517  1  0.459000  0.715000  0.386100  1.0
  O  O1518  1  0.587000  0.338000  0.892700  1.0
  O  O1519  1  0.751000  0.413000  0.892700  1.0
  O  O1520  1  0.662000  0.249000  0.892700  1.0
  O  O1521  1  0.587000  0.338000  0.107300  1.0
  O  O1522  1  0.751000  0.413000  0.107300  1.0
  O  O1523  1  0.662000  0.249000  0.107300  1.0
  O  O1524  1  0.200000  0.689000  1.000000  1.0
  O  O1525  1  0.489000  0.800000  1.000000  1.0
  O  O1526  1  0.311000  0.511000  1.000000  1.0
  O  O1527  1  0.000000  0.000000  0.792000  1.0
  O  O1528  1  0.000000  0.000000  0.208000  1.0
  O  O1529  1  0.000000  0.000000  0.878000  1.0
  O  O1530  1  0.000000  0.000000  0.122000  1.0
  O  O1531  1  0.000000  0.000000  0.922000  1.0
  O  O1532  1  0.000000  0.000000  0.078000  1.0
  O  O1533  1  0.320000  0.862000  0.975900  0.25
  O  O1534  1  0.542000  0.680000  0.975900  0.25
  O  O1535  1  0.138000  0.458000  0.975900  0.25
  O  O1536  1  0.320000  0.862000  0.024100  0.25
  O  O1537  1  0.542000  0.680000  0.024100  0.25
  O  O1538  1  0.138000  0.458000  0.024100  0.25
  O  O1539  1  0.483000  0.406000  0.989000  0.25
  O  O1540  1  0.923000  0.517000  0.989000  0.25
  O  O1541  1  0.594000  0.077000  0.989000  0.25
  O  O1542  1  0.483000  0.406000  0.011000  0.25
  O  O1543  1  0.923000  0.517000  0.011000  0.25
  O  O1544  1  0.594000  0.077000  0.011000  0.25
  O  O1545  1  0.334000  0.872000  1.000000  0.5
  O  O1546  1  0.538000  0.666000  0.000000  0.5
  O  O1547  1  0.128000  0.462000  0.000000  0.5
  O  O1548  1  0.360200  0.259600  0.515500  0.5
  O  O1549  1  0.899400  0.639800  0.515500  0.5
  O  O1550  1  0.740400  0.100600  0.515500  0.5
  O  O1551  1  0.360200  0.259600  0.484500  0.5
  O  O1552  1  0.899400  0.639800  0.484500  0.5
  O  O1553  1  0.740400  0.100600  0.484500  0.5
  O  O1554  1  0.449000  0.309000  0.548000  0.5
  O  O1555  1  0.860000  0.551000  0.548000  0.5
  O  O1556  1  0.691000  0.140000  0.548000  0.5
  O  O1557  1  0.449000  0.309000  0.452000  0.5
  O  O1558  1  0.860000  0.551000  0.452000  0.5
  O  O1559  1  0.691000  0.140000  0.452000  0.5
  O  O1560  1  0.428000  0.382000  0.962900  0.5
  O  O1561  1  0.954000  0.572000  0.962900  0.5
  O  O1562  1  0.618000  0.046000  0.962900  0.5
  O  O1563  1  0.428000  0.382000  0.037100  0.5
  O  O1564  1  0.954000  0.572000  0.037100  0.5
  O  O1565  1  0.618000  0.046000  0.037100  0.5
  O  O1566  1  0.370000  0.337000  0.000000  0.5
  O  O1567  1  0.967000  0.630000  0.000000  0.5
  O  O1568  1  0.663000  0.033000  0.000000  0.5
  O  O1569  1  0.758800  0.620000  0.916800  0.5
  O  O1570  1  0.861200  0.241200  0.916800  0.5
  O  O1571  1  0.380000  0.138800  0.916800  0.5
  O  O1572  1  0.758800  0.620000  0.083200  0.5
  O  O1573  1  0.861200  0.241200  0.083200  0.5
  O  O1574  1  0.380000  0.138800  0.083200  0.5
  O  O1575  1  0.854000  0.705000  0.917100  0.5
  O  O1576  1  0.851000  0.146000  0.917100  0.5
  O  O1577  1  0.295000  0.149000  0.917100  0.5
  O  O1578  1  0.854000  0.705000  0.082900  0.5
  O  O1579  1  0.851000  0.146000  0.082900  0.5
  O  O1580  1  0.295000  0.149000  0.082900  0.5
  O  O1581  1  0.801000  0.635000  0.975700  0.5
  O  O1582  1  0.834000  0.199000  0.975700  0.5
  O  O1583  1  0.365000  0.166000  0.975700  0.5
  O  O1584  1  0.801000  0.635000  0.024300  0.5
  O  O1585  1  0.834000  0.199000  0.024300  0.5
  O  O1586  1  0.365000  0.166000  0.024300  0.5
  O  O1587  1  0.052000  0.377000  0.535000  0.5
  O  O1588  1  0.325000  0.948000  0.535000  0.5
  O  O1589  1  0.623000  0.675000  0.535000  0.5
  O  O1590  1  0.052000  0.377000  0.465000  0.5
  O  O1591  1  0.325000  0.948000  0.465000  0.5
  O  O1592  1  0.623000  0.675000  0.465000  0.5
  O  O1593  1  0.880000  0.648000  0.955000  0.5
  O  O1594  1  0.768000  0.120000  0.955000  0.5
  O  O1595  1  0.352000  0.232000  0.955000  0.5
  O  O1596  1  0.880000  0.648000  0.045000  0.5
  O  O1597  1  0.768000  0.120000  0.045000  0.5
  O  O1598  1  0.352000  0.232000  0.045000  0.5
  O  O1599  1  0.769200  0.991000  0.553600  0.515
  O  O1600  1  0.221800  0.230800  0.553600  0.515
  O  O1601  1  0.009000  0.778200  0.553600  0.515
  O  O1602  1  0.769200  0.991000  0.446400  0.515
  O  O1603  1  0.221800  0.230800  0.446400  0.515
  O  O1604  1  0.009000  0.778200  0.446400  0.515
  O  O1605  1  0.756000  0.985100  0.513600  0.515
  O  O1606  1  0.229100  0.244000  0.513600  0.515
  O  O1607  1  0.014900  0.770900  0.513600  0.515
  O  O1608  1  0.756000  0.985100  0.486400  0.515
  O  O1609  1  0.229100  0.244000  0.486400  0.515
  O  O1610  1  0.014900  0.770900  0.486400  0.515
  O  O1611  1  0.861000  0.046500  0.517600  0.515
  O  O1612  1  0.185500  0.139000  0.517600  0.515
  O  O1613  1  0.953500  0.814500  0.517600  0.515
  O  O1614  1  0.861000  0.046500  0.482400  0.515
  O  O1615  1  0.185500  0.139000  0.482400  0.515
  O  O1616  1  0.953500  0.814500  0.482400  0.515
  O  O1617  1  0.618800  0.863400  0.600700  0.515
  O  O1618  1  0.244600  0.381200  0.600700  0.515
  O  O1619  1  0.136600  0.755400  0.600700  0.515
  O  O1620  1  0.618800  0.863400  0.399300  0.515
  O  O1621  1  0.244600  0.381200  0.399300  0.515
  O  O1622  1  0.136600  0.755400  0.399300  0.515
  O  O1623  1  0.685000  0.835000  0.588300  0.515
  O  O1624  1  0.150000  0.315000  0.588300  0.515
  O  O1625  1  0.165000  0.850000  0.588300  0.515
  O  O1626  1  0.685000  0.835000  0.411700  0.515
  O  O1627  1  0.150000  0.315000  0.411700  0.515
  O  O1628  1  0.165000  0.850000  0.411700  0.515
  O  O1629  1  0.641000  0.854000  0.546000  0.515
  O  O1630  1  0.213000  0.359000  0.546000  0.515
  O  O1631  1  0.146000  0.787000  0.546000  0.515
  O  O1632  1  0.641000  0.854000  0.454000  0.515
  O  O1633  1  0.213000  0.359000  0.454000  0.515
  O  O1634  1  0.146000  0.787000  0.454000  0.515
  O  O1635  1  0.677000  0.283000  0.683400  0.3333
  O  O1636  1  0.606000  0.323000  0.683400  0.3333
  O  O1637  1  0.717000  0.394000  0.683400  0.3333
  O  O1638  1  0.677000  0.283000  0.316600  0.3333
  O  O1639  1  0.606000  0.323000  0.316600  0.3333
  O  O1640  1  0.717000  0.394000  0.316600  0.3333
