
#######################################################################
#
#                 Cambridge Crystallographic Data Centre
#                                CCDC 
#
#######################################################################
#
# If this CIF has been generated from an entry in the Cambridge 
# Structural Database, then it will include bibliographic, chemical, 
# crystal, experimental, refinement or atomic coordinate data resulting 
# from the CCDC's data processing and validation procedures.
#
#######################################################################

data_NACSIT
_chemical_formula_moiety         'C132 H108 Ga4 N12 O24,18(C3 H7 N1 O1)'
_chemical_name_systematic        
'hexakis(\m~2~-Isophthal-bis(p-tolyl)hydroxamato)-tetra-gallium(iii) dimethylformamide solvate'
_symmetry_cell_setting           tetragonal
_symmetry_space_group_name_H-M   'I 41/a'
_symmetry_Int_Tables_number      88
_space_group_name_Hall           '-I 4ad'
loop_
_symmetry_equiv_pos_site_id
_symmetry_equiv_pos_as_xyz
1 x,y,z
2 3/4-y,1/4+x,1/4+z
3 1/2-x,-y,1/2+z
4 3/4+y,3/4-x,3/4+z
5 1/2+x,1/2+y,1/2+z
6 1/4-y,3/4+x,3/4+z
7 -x,1/2-y,z
8 1/4+y,1/4-x,1/4+z
9 -x,-y,-z
10 1/4+y,3/4-x,3/4-z
11 1/2+x,y,1/2-z
12 1/4-y,1/4+x,1/4-z
13 1/2-x,1/2-y,1/2-z
14 3/4+y,1/4-x,1/4-z
15 x,1/2+y,-z
16 3/4-y,3/4+x,3/4-z
_cell_length_a                   24.0590(9)
_cell_length_b                   24.0590(9)
_cell_length_c                   68.547(3)
_cell_angle_alpha                90
_cell_angle_beta                 90
_cell_angle_gamma                90
_cell_volume                     39677.4
_exptl_crystal_colour            colorless
_cell_formula_units_Z            12
loop_
_atom_site_label
_atom_site_type_symbol
_atom_site_fract_x
_atom_site_fract_y
_atom_site_fract_z
Ga1 Ga 0.02500(10) 0.06815(9) 0.07685(3)
O1 O 0.0050(5) -0.0051(5) 0.0869(2)
O2 O 0.0965(5) 0.0429(5) 0.0670(2)
O3 O -0.0156(5) 0.0536(5) 0.0533(2)
O4 O -0.0413(5) 0.0901(5) 0.0927(2)
O5 O 0.0691(6) 0.0915(5) 0.0994(2)
O6 O 0.0283(5) 0.1452(5) 0.0654(2)
N1 N -0.0447(7) -0.0005(7) 0.0969(2)
N2 N 0.1363(7) 0.0499(6) 0.0816(2)
N3 N -0.0247(6) 0.1021(7) 0.0428(2)
C1 C -0.0667(8) -0.0523(9) 0.1033(3)
C2 C -0.0768(9) -0.0608(10) 0.1231(3)
C3 C -0.1025(10) -0.113(1) 0.1295(3)
C4 C -0.1114(10) -0.150(1) 0.1146(4)
C5 C -0.102(1) -0.146(1) 0.0963(4)
C6 C -0.0763(9) -0.0950(10) 0.0902(3)
C7 C -0.140(1) -0.205(1) 0.1212(4)
C8 C 0.1924(9) 0.0338(9) 0.0760(3)
C9 C 0.2000(9) -0.0167(9) 0.0672(3)
C10 C 0.254(1) -0.032(1) 0.0614(3)
C11 C 0.293(1) 0.004(1) 0.0640(3)
C12 C 0.287(1) 0.054(1) 0.0733(3)
C13 C 0.2338(10) 0.0720(9) 0.0791(3)
C14 C 0.354(1) -0.014(1) 0.0587(4)
C15 C -0.0616(8) 0.0966(8) 0.0270(2)
C16 C -0.0535(8) 0.0560(8) 0.0142(3)
C17 C -0.0891(9) 0.0472(9) -0.0012(3)
C18 C -0.1353(9) 0.0807(9) -0.0034(3)
C19 C -0.1425(9) 0.1211(10) 0.0103(3)
C20 C -0.1059(9) 0.1294(9) 0.0257(3)
C21 C -0.179(1) 0.071(1) -0.0197(4)
C22 C 0.0026(8) 0.1467(8) 0.0493(3)
C23 C 0.0003(8) 0.1995(8) 0.0382(2)
C24 C 0.0031(8) 0.2002(9) 0.0185(3)
C25 C 0.00000 0.25000 0.0080(4)
C26 C 0.00000 0.25000 0.0481(4)
C27 C -0.0678(9) 0.0489(10) 0.0991(3)
C28 C -0.1209(8) 0.0550(8) 0.1087(2)
C29 C -0.1696(8) 0.0303(8) 0.1004(2)
C30 C -0.2208(9) 0.0408(9) 0.1102(3)
C31 C -0.2234(8) 0.0686(8) 0.1270(3)
C32 C -0.1752(10) 0.0916(9) 0.1348(3)
C33 C -0.1235(8) 0.0867(8) 0.1255(2)
C34 C 0.1174(10) 0.0723(9) 0.0976(3)
H1 H -0.067 -0.033 0.132
H3 H -0.112 -0.175 0.087
H5 H -0.176 -0.197 0.127
H6 H -0.118 -0.224 0.130
H7 H -0.146 -0.228 0.110
H8 H 0.169 -0.041 0.065
H9 H 0.260 -0.067 0.056
H10 H 0.319 0.077 0.076
H11 H 0.227 0.107 0.085
H12 H 0.354 -0.050 0.053
H13 H 0.370 0.012 0.050
H14 H 0.376 -0.015 0.070
H15 H -0.022 0.032 0.016
H16 H -0.082 0.018 -0.011
H17 H -0.176 0.143 0.010
H18 H -0.111 0.158 0.035
H19 H -0.213 0.062 -0.014
H20 H -0.167 0.042 -0.028
H21 H -0.183 0.104 -0.027
H22 H 0.006 0.166 0.012
H23 H 0.000 0.250 -0.007
H25 H -0.168 0.009 0.089
H26 H -0.254 0.026 0.105
H27 H -0.260 0.073 0.134
H29 H -0.092 0.105 0.131
C24F C -0.0031(8) 0.2998(9) 0.0185(3)
C23F C -0.0003(8) 0.3005(8) 0.0382(2)
C22F C -0.0026(8) 0.3533(8) 0.0493(3)
O6F O -0.0283(5) 0.3548(5) 0.0654(2)
Ga1F Ga -0.02500(10) 0.43185(9) 0.07685(3)
O1F O -0.0050(5) 0.5051(5) 0.0869(2)
N1F N 0.0447(7) 0.5005(7) 0.0969(2)
C1F C 0.0667(8) 0.5523(9) 0.1033(3)
C2F C 0.0768(9) 0.5608(10) 0.1231(3)
C3F C 0.1025(10) 0.613(1) 0.1295(3)
C4F C 0.1114(10) 0.650(1) 0.1146(4)
C5F C 0.102(1) 0.646(1) 0.0963(4)
C6F C 0.0763(9) 0.5950(10) 0.0902(3)
H3F H 0.112 0.675 0.087
C7F C 0.140(1) 0.705(1) 0.1212(4)
H5F H 0.176 0.697 0.127
H6F H 0.118 0.724 0.130
H7F H 0.146 0.728 0.110
H1F H 0.067 0.533 0.132
C27F C 0.0678(9) 0.4511(10) 0.0991(3)
O4F O 0.0413(5) 0.4099(5) 0.0927(2)
O2F O -0.0965(5) 0.4571(5) 0.0670(2)
N2F N -0.1363(7) 0.4501(6) 0.0816(2)
C8F C -0.1924(9) 0.4662(9) 0.0760(3)
C9F C -0.2000(9) 0.5167(9) 0.0672(3)
C10F C -0.254(1) 0.532(1) 0.0614(3)
C11F C -0.293(1) 0.496(1) 0.0640(3)
C12F C -0.287(1) 0.446(1) 0.0733(3)
C13F C -0.2338(10) 0.4280(9) 0.0791(3)
H11F H -0.227 0.393 0.085
H10F H -0.319 0.423 0.076
C14F C -0.354(1) 0.514(1) 0.0587(4)
H12F H -0.354 0.550 0.053
H13F H -0.370 0.488 0.050
H14F H -0.376 0.515 0.070
H9F H -0.260 0.567 0.056
H8F H -0.169 0.541 0.065
C34F C -0.1174(10) 0.4277(9) 0.0976(3)
O5F O -0.0691(6) 0.4085(5) 0.0994(2)
O3F O 0.0156(5) 0.4464(5) 0.0533(2)
N3F N 0.0247(6) 0.3979(7) 0.0428(2)
C15F C 0.0616(8) 0.4034(8) 0.0270(2)
C16F C 0.0535(8) 0.4440(8) 0.0142(3)
C17F C 0.0891(9) 0.4528(9) -0.0012(3)
C18F C 0.1353(9) 0.4193(9) -0.0034(3)
C19F C 0.1425(9) 0.3789(10) 0.0103(3)
C20F C 0.1059(9) 0.3706(9) 0.0257(3)
H18F H 0.111 0.342 0.035
H17F H 0.176 0.357 0.010
C21F C 0.179(1) 0.429(1) -0.0197(4)
H19F H 0.213 0.438 -0.014
H20F H 0.167 0.458 -0.028
H21F H 0.183 0.396 -0.027
H16F H 0.082 0.482 -0.011
H15F H 0.022 0.468 0.016
C32M C -0.1584(9) 0.4252(10) 0.1152(3)
C31M C -0.1814(8) 0.4734(8) 0.1230(3)
C30M C -0.2092(9) 0.4708(9) 0.1398(3)
C29M C -0.2197(8) 0.4196(8) 0.1496(2)
C28M C -0.1950(8) 0.3709(8) 0.1413(2)
C27M C -0.2011(10) 0.3178(9) 0.1509(3)
O4M O -0.1599(5) 0.2913(5) 0.1573(2)
Ga1M Ga -0.18185(9) 0.22500(10) 0.17315(3)
O1M O -0.2551(5) 0.2450(5) 0.1631(2)
N1M N -0.2505(7) 0.2947(7) 0.1531(2)
C1M C -0.3023(9) 0.3167(8) 0.1467(3)
C2M C -0.3108(10) 0.3268(9) 0.1269(3)
C3M C -0.363(1) 0.3525(10) 0.1205(3)
C4M C -0.400(1) 0.3614(10) 0.1354(4)
C5M C -0.396(1) 0.352(1) 0.1537(4)
C6M C -0.3450(10) 0.3263(9) 0.1598(3)
H3M H -0.425 0.362 0.163
C7M C -0.455(1) 0.390(1) 0.1288(4)
H5M H -0.447 0.426 0.123
H6M H -0.474 0.368 0.120
H7M H -0.478 0.396 0.140
H1M H -0.283 0.317 0.118
O2M O -0.2071(5) 0.1535(5) 0.1830(2)
N2M N -0.2001(6) 0.1137(7) 0.1684(2)
C8M C -0.2162(9) 0.0576(9) 0.1740(3)
C9M C -0.2667(9) 0.0500(9) 0.1828(3)
C10M C -0.282(1) -0.004(1) 0.1886(3)
C11M C -0.246(1) -0.043(1) 0.1860(3)
C12M C -0.196(1) -0.037(1) 0.1767(3)
C13M C -0.1780(9) 0.0162(10) 0.1709(3)
H11M H -0.143 0.023 0.165
H10M H -0.173 -0.069 0.174
C14M C -0.264(1) -0.104(1) 0.1913(4)
H12M H -0.300 -0.104 0.197
H13M H -0.238 -0.120 0.200
H14M H -0.265 -0.126 0.180
H9M H -0.317 -0.010 0.194
H8M H -0.291 0.081 0.185
C34M C -0.1777(9) 0.1326(10) 0.1524(3)
O5M O -0.1585(5) 0.1809(6) 0.1506(2)
O3M O -0.1964(5) 0.2656(5) 0.1967(2)
N3M N -0.1479(7) 0.2747(6) 0.2072(2)
C15M C -0.1534(8) 0.3116(8) 0.2230(2)
C16M C -0.1940(8) 0.3035(8) 0.2358(3)
C17M C -0.2028(9) 0.3391(9) 0.2512(3)
C18M C -0.1693(9) 0.3853(9) 0.2534(3)
C19M C -0.1289(10) 0.3925(9) 0.2397(3)
C20M C -0.1206(9) 0.3559(9) 0.2243(3)
H18M H -0.092 0.361 0.215
H17M H -0.107 0.426 0.240
C21M C -0.179(1) 0.429(1) 0.2697(4)
H19M H -0.188 0.463 0.264
H20M H -0.208 0.417 0.278
H21M H -0.146 0.433 0.277
H16M H -0.232 0.332 0.261
H15M H -0.218 0.272 0.234
C22M C -0.1033(8) 0.2474(8) 0.2007(3)
O6M O -0.1048(5) 0.2217(5) 0.1846(2)
C23M C -0.0505(8) 0.2497(8) 0.2118(2)
C24M C -0.0498(9) 0.2469(8) 0.2315(3)
C25M C 0.00000 0.25000 0.2420(4)
C24K C 0.0498(9) 0.2531(8) 0.2315(3)
C23K C 0.0505(8) 0.2503(8) 0.2118(2)
C22K C 0.1033(8) 0.2526(8) 0.2007(3)
O6K O 0.1048(5) 0.2783(5) 0.1846(2)
Ga1K Ga 0.18185(9) 0.27500(10) 0.17315(3)
O1K O 0.2551(5) 0.2550(5) 0.1631(2)
N1K N 0.2505(7) 0.2053(7) 0.1531(2)
C1K C 0.3023(9) 0.1833(8) 0.1467(3)
C2K C 0.3108(10) 0.1732(9) 0.1269(3)
C3K C 0.363(1) 0.1475(10) 0.1205(3)
C4K C 0.400(1) 0.1386(10) 0.1354(4)
C5K C 0.396(1) 0.148(1) 0.1537(4)
C6K C 0.3450(10) 0.1737(9) 0.1598(3)
H3K H 0.425 0.138 0.163
C7K C 0.455(1) 0.110(1) 0.1288(4)
H5K H 0.447 0.074 0.123
H6K H 0.474 0.132 0.120
H7K H 0.478 0.104 0.140
H1K H 0.283 0.183 0.118
C27K C 0.2011(10) 0.1822(9) 0.1509(3)
O4K O 0.1599(5) 0.2087(5) 0.1573(2)
O2K O 0.2071(5) 0.3465(5) 0.1830(2)
N2K N 0.2001(6) 0.3863(7) 0.1684(2)
C8K C 0.2162(9) 0.4424(9) 0.1740(3)
C9K C 0.2667(9) 0.4500(9) 0.1828(3)
C10K C 0.282(1) 0.504(1) 0.1886(3)
C11K C 0.246(1) 0.543(1) 0.1860(3)
C12K C 0.196(1) 0.537(1) 0.1767(3)
C13K C 0.1780(9) 0.4838(10) 0.1709(3)
H11K H 0.143 0.477 0.165
H10K H 0.173 0.569 0.174
C14K C 0.264(1) 0.604(1) 0.1913(4)
H12K H 0.300 0.604 0.197
H13K H 0.238 0.620 0.200
H14K H 0.265 0.626 0.180
H9K H 0.317 0.510 0.194
H8K H 0.291 0.419 0.185
C34K C 0.1777(9) 0.3674(10) 0.1524(3)
O5K O 0.1585(5) 0.3191(6) 0.1506(2)
O3K O 0.1964(5) 0.2344(5) 0.1967(2)
N3K N 0.1479(7) 0.2253(6) 0.2072(2)
C15K C 0.1534(8) 0.1884(8) 0.2230(2)
C16K C 0.1940(8) 0.1965(8) 0.2358(3)
C17K C 0.2028(9) 0.1609(9) 0.2512(3)
C18K C 0.1693(9) 0.1147(9) 0.2534(3)
C19K C 0.1289(10) 0.1075(9) 0.2397(3)
C20K C 0.1206(9) 0.1441(9) 0.2243(3)
H18K H 0.092 0.139 0.215
H17K H 0.107 0.074 0.240
C21K C 0.179(1) 0.071(1) 0.2697(4)
H19K H 0.188 0.037 0.264
H20K H 0.208 0.083 0.278
H21K H 0.146 0.067 0.277
H16K H 0.232 0.168 0.261
H15K H 0.218 0.228 0.234
C32F C 0.1752(10) 0.4084(9) 0.1348(3)
C31F C 0.2234(8) 0.4314(8) 0.1270(3)
C30F C 0.2208(9) 0.4592(9) 0.1102(3)
C29F C 0.1696(8) 0.4697(8) 0.1004(2)
C28F C 0.1209(8) 0.4450(8) 0.1087(2)
C33F C 0.1235(8) 0.4133(8) 0.1255(2)
H29F H 0.092 0.395 0.131
H25F H 0.168 0.491 0.089
H26F H 0.254 0.474 0.105
H27F H 0.260 0.427 0.134
C28K C 0.1950(8) 0.1291(8) 0.1413(2)
C29K C 0.2197(8) 0.0804(8) 0.1496(2)
C30K C 0.2092(9) 0.0292(9) 0.1398(3)
C31K C 0.1814(8) 0.0266(8) 0.1230(3)
C32K C 0.1584(9) 0.0748(10) 0.1152(3)
C33K C 0.1633(8) 0.1265(8) 0.1245(2)
H29K H 0.145 0.158 0.119
H27K H 0.177 -0.010 0.116
H26K H 0.224 -0.004 0.145
H25K H 0.241 0.082 0.161
C26K C 0.00000 0.25000 0.2019(4)
H22K H 0.084 0.256 0.238
H23M H 0.000 0.250 0.257
H22M H -0.084 0.244 0.238
C33M C -0.1633(8) 0.3735(8) 0.1245(2)
H29M H -0.145 0.342 0.119
H25M H -0.241 0.418 0.161
H26M H -0.224 0.504 0.145
H27M H -0.177 0.510 0.116
H22F H -0.006 0.334 0.012
Ga2 Ga -0.32525(10) 0.22970(10) -0.07495(3)
O7 O -0.3171(5) 0.1828(5) -0.0526(2)
O8 O -0.2910(5) 0.2949(5) -0.0628(2)
O9 O -0.2547(5) 0.2066(5) -0.0862(2)
O10 O -0.3993(5) 0.2419(5) -0.0629(2)
O11 O -0.3418(5) 0.2857(5) -0.0962(2)
O12 O -0.3548(5) 0.1721(5) -0.0929(2)
N4 N -0.3618(7) 0.1875(7) -0.0399(2)
N5 N -0.2910(6) 0.3375(7) -0.0767(2)
N6 N -0.2638(7) 0.1656(7) -0.0995(2)
C35 C -0.3634(9) 0.1465(9) -0.0244(3)
C36 C -0.320(1) 0.151(1) -0.0111(4)
C37 C -0.318(1) 0.113(1) 0.0040(4)
C38 C -0.357(1) 0.070(1) 0.0045(4)
C39 C -0.402(1) 0.070(1) -0.0084(3)
C40 C -0.4057(9) 0.1074(9) -0.0228(3)
C41 C -0.351(1) 0.026(1) 0.0211(4)
C42 C -0.2668(10) 0.3869(10) -0.0694(3)
C43 C -0.2959(9) 0.437(1) -0.0699(3)
C44 C -0.2710(10) 0.4864(9) -0.0628(3)
C45 C -0.218(1) 0.481(1) -0.0547(3)
C46 C -0.191(1) 0.433(1) -0.0536(3)
C47 C -0.214(1) 0.385(1) -0.0609(3)
C48 C -0.191(1) 0.537(1) -0.0470(4)
C49 C -0.2172(9) 0.1441(8) -0.1096(3)
C50 C -0.2137(9) 0.1409(9) -0.1288(3)
C51 C -0.165(1) 0.1191(10) -0.1381(3)
C52 C -0.1222(10) 0.1030(9) -0.1258(3)
C53 C -0.1243(8) 0.1087(8) -0.1068(3)
C54 C -0.1725(8) 0.1311(8) -0.0979(3)
C55 C -0.071(1) 0.078(1) -0.1360(4)
C56 C -0.4045(9) 0.2201(9) -0.0462(3)
C57 C -0.4526(8) 0.2343(8) -0.0344(3)
C58 C -0.4514(10) 0.2358(9) -0.0145(3)
C59 C -0.500 0.25000 -0.0039(4)
C60 C -0.500 0.25000 -0.0449(4)
C61 C -0.3139(10) 0.1467(9) -0.1019(3)
C62 C -0.3290(8) 0.1003(8) -0.1149(2)
C63 C -0.3072(8) 0.0476(9) -0.1097(3)
C64 C -0.3232(9) -0.0001(9) -0.1204(3)
C65 C -0.3591(9) 0.0064(9) -0.1360(3)
C66 C -0.3805(8) 0.0595(9) -0.1406(2)
C67 C -0.3636(8) 0.1040(9) -0.1297(3)
C68 C -0.3142(8) 0.3312(9) -0.0934(3)
H30 H -0.292 0.179 -0.012
H31 H -0.291 0.115 0.014
H32 H -0.432 0.044 -0.007
H33 H -0.435 0.106 -0.032
H34 H -0.380 0.001 0.021
H35 H -0.350 0.046 0.033
H36 H -0.316 0.008 0.019
H37 H -0.333 0.438 -0.074
H38 H -0.289 0.522 -0.064
H39 H -0.155 0.432 -0.048
H40 H -0.195 0.351 -0.060
H41 H -0.185 0.562 -0.057
H42 H -0.215 0.554 -0.038
H43 H -0.156 0.530 -0.041
H44 H -0.245 0.152 -0.137
H46 H -0.094 0.098 -0.099
H49 H -0.040 0.102 -0.133
H50 H -0.066 0.043 -0.132
H51 H -0.418 0.228 -0.008
H53 H -0.500 0.250 -0.059
H54 H -0.283 0.043 -0.099
H55 H -0.311 -0.036 -0.117
H56 H -0.370 -0.027 -0.144
H57 H -0.379 0.139 -0.133
C68I C -0.4188(9) 0.0642(8) -0.1566(3)
O11I O -0.4643(5) 0.0918(5) -0.1538(2)
Ga2I Ga -0.52030(10) 0.07525(10) -0.17505(3)
O7I O -0.5672(5) 0.0671(5) -0.1974(2)
N4I N -0.5625(7) 0.1118(7) -0.2101(2)
C35I C -0.6035(9) 0.1134(9) -0.2256(3)
C36I C -0.599(1) 0.070(1) -0.2389(4)
C37I C -0.637(1) 0.068(1) -0.2540(4)
C38I C -0.680(1) 0.107(1) -0.2545(4)
C39I C -0.680(1) 0.152(1) -0.2416(3)
C40I C -0.6426(9) 0.1557(9) -0.2272(3)
H33I H -0.644 0.185 -0.218
H32I H -0.706 0.182 -0.243
C41I C -0.724(1) 0.101(1) -0.2711(4)
H34I H -0.749 0.130 -0.271
H35I H -0.704 0.100 -0.283
H36I H -0.742 0.066 -0.269
H31I H -0.635 0.041 -0.264
H30I H -0.571 0.042 -0.238
C56I C -0.5299(9) 0.1545(9) -0.2038(3)
O10I O -0.5081(5) 0.1493(5) -0.1871(2)
O8I O -0.4551(5) 0.0410(5) -0.1872(2)
N5I N -0.4125(7) 0.0410(6) -0.1733(2)
C42I C -0.3631(10) 0.0168(10) -0.1806(3)
C43I C -0.313(1) 0.0459(9) -0.1801(3)
C44I C -0.2636(9) 0.0210(10) -0.1872(3)
C45I C -0.269(1) -0.032(1) -0.1953(3)
C46I C -0.317(1) -0.059(1) -0.1964(3)
C47I C -0.365(1) -0.036(1) -0.1891(3)
H40I H -0.399 -0.055 -0.190
H39I H -0.318 -0.095 -0.202
C48I C -0.213(1) -0.059(1) -0.2030(4)
H41I H -0.188 -0.065 -0.193
H42I H -0.196 -0.035 -0.212
H43I H -0.220 -0.094 -0.209
H38I H -0.228 0.039 -0.186
H37I H -0.312 0.083 -0.176
O9I O -0.5434(5) 0.0047(5) -0.1638(2)
N6I N -0.5844(7) 0.0138(7) -0.1505(2)
C49I C -0.6059(8) -0.0328(9) -0.1404(3)
C50I C -0.6091(9) -0.0363(9) -0.1212(3)
C51I C -0.6309(10) -0.085(1) -0.1119(3)
C52I C -0.6470(9) -0.1278(10) -0.1242(3)
C53I C -0.6413(8) -0.1257(8) -0.1432(3)
C54I C -0.6189(8) -0.0775(8) -0.1521(3)
H46I H -0.652 -0.156 -0.151
C55I C -0.672(1) -0.179(1) -0.1140(4)
H49I H -0.648 -0.210 -0.117
H50I H -0.707 -0.184 -0.118
H44I H -0.598 -0.005 -0.113
C61I C -0.6033(9) 0.0639(10) -0.1481(3)
O12I O -0.5779(5) 0.1048(5) -0.1571(2)
C62I C -0.6497(8) 0.0790(8) -0.1351(2)
C63I C -0.7024(9) 0.0572(8) -0.1403(3)
C64I C -0.7501(9) 0.0732(9) -0.1296(3)
C65I C -0.7436(9) 0.1091(9) -0.1140(3)
C66I C -0.6905(9) 0.1305(8) -0.1094(2)
C67I C -0.6460(9) 0.1136(8) -0.1203(3)
H57I H -0.611 0.129 -0.117
C68F C -0.6858(8) 0.1688(9) -0.0934(3)
O11F O -0.6582(5) 0.2143(5) -0.0962(2)
Ga2F Ga -0.67475(10) 0.27030(10) -0.07495(3)
O7F O -0.6829(5) 0.3172(5) -0.0526(2)
N4F N -0.6382(7) 0.3125(7) -0.0399(2)
C35F C -0.6366(9) 0.3535(9) -0.0244(3)
C36F C -0.680(1) 0.349(1) -0.0111(4)
C37F C -0.682(1) 0.387(1) 0.0040(4)
C38F C -0.643(1) 0.430(1) 0.0045(4)
C39F C -0.598(1) 0.430(1) -0.0084(3)
C40F C -0.5943(9) 0.3926(9) -0.0228(3)
H33F H -0.565 0.394 -0.032
H32F H -0.568 0.456 -0.007
C41F C -0.649(1) 0.474(1) 0.0211(4)
H34F H -0.620 0.499 0.021
H35F H -0.650 0.454 0.033
H36F H -0.684 0.492 0.019
H31F H -0.709 0.385 0.014
H30F H -0.708 0.321 -0.012
C56F C -0.5955(9) 0.2799(9) -0.0462(3)
O10F O -0.6007(5) 0.2581(5) -0.0629(2)
O8F O -0.7090(5) 0.2051(5) -0.0628(2)
N5F N -0.7090(6) 0.1625(7) -0.0767(2)
C42F C -0.7332(10) 0.1131(10) -0.0694(3)
C43F C -0.7041(9) 0.063(1) -0.0699(3)
C44F C -0.7290(10) 0.0136(9) -0.0628(3)
C45F C -0.782(1) 0.019(1) -0.0547(3)
C46F C -0.809(1) 0.067(1) -0.0536(3)
C47F C -0.786(1) 0.115(1) -0.0609(3)
H40F H -0.805 0.149 -0.060
H39F H -0.845 0.068 -0.048
C48F C -0.809(1) -0.037(1) -0.0470(4)
H41F H -0.815 -0.062 -0.057
H42F H -0.785 -0.054 -0.038
H43F H -0.844 -0.030 -0.041
H38F H -0.711 -0.022 -0.064
H37F H -0.667 0.062 -0.074
O9F O -0.7453(5) 0.2934(5) -0.0862(2)
N6F N -0.7362(7) 0.3344(7) -0.0995(2)
C49F C -0.7828(9) 0.3559(8) -0.1096(3)
C50F C -0.7863(9) 0.3591(9) -0.1288(3)
C51F C -0.835(1) 0.3809(10) -0.1381(3)
C52F C -0.8778(10) 0.3970(9) -0.1258(3)
C53F C -0.8757(8) 0.3913(8) -0.1068(3)
C54F C -0.8275(8) 0.3689(8) -0.0979(3)
H46F H -0.906 0.402 -0.099
C55F C -0.929(1) 0.422(1) -0.1360(4)
H49F H -0.960 0.398 -0.133
H50F H -0.934 0.457 -0.132
H44F H -0.755 0.348 -0.137
C61F C -0.6861(10) 0.3533(9) -0.1019(3)
O12F O -0.6452(5) 0.3279(5) -0.0929(2)
C62F C -0.6710(8) 0.3997(8) -0.1149(2)
C63F C -0.6928(8) 0.4524(9) -0.1097(3)
C64F C -0.6768(9) 0.5001(9) -0.1204(3)
C65F C -0.6409(9) 0.4936(9) -0.1360(3)
C66F C -0.6195(8) 0.4405(9) -0.1406(2)
C67F C -0.6364(8) 0.3960(9) -0.1297(3)
H57F H -0.621 0.361 -0.133
C68O C -0.5812(9) 0.4358(8) -0.1566(3)
O11O O -0.5357(5) 0.4082(5) -0.1538(2)
Ga2O Ga -0.47970(10) 0.42475(10) -0.17505(3)
O7O O -0.4328(5) 0.4329(5) -0.1974(2)
N4O N -0.4375(7) 0.3882(7) -0.2101(2)
C35O C -0.3965(9) 0.3866(9) -0.2256(3)
C36O C -0.401(1) 0.430(1) -0.2389(4)
C37O C -0.363(1) 0.432(1) -0.2540(4)
C38O C -0.320(1) 0.393(1) -0.2545(4)
C39O C -0.320(1) 0.348(1) -0.2416(3)
C40O C -0.3574(9) 0.3443(9) -0.2272(3)
H33O H -0.356 0.315 -0.218
H32O H -0.294 0.318 -0.243
C41O C -0.276(1) 0.399(1) -0.2711(4)
H34O H -0.251 0.370 -0.271
H35O H -0.296 0.400 -0.283
H36O H -0.258 0.434 -0.269
H31O H -0.365 0.459 -0.264
H30O H -0.429 0.458 -0.238
C56O C -0.4701(9) 0.3455(9) -0.2038(3)
O10O O -0.4919(5) 0.3507(5) -0.1871(2)
O8O O -0.5449(5) 0.4590(5) -0.1872(2)
N5O N -0.5875(7) 0.4590(6) -0.1733(2)
C42O C -0.6369(10) 0.4832(10) -0.1806(3)
C43O C -0.687(1) 0.4541(9) -0.1801(3)
C44O C -0.7364(9) 0.4790(10) -0.1872(3)
C45O C -0.731(1) 0.532(1) -0.1953(3)
C46O C -0.683(1) 0.559(1) -0.1964(3)
C47O C -0.635(1) 0.536(1) -0.1891(3)
H40O H -0.601 0.555 -0.190
H39O H -0.682 0.595 -0.202
C48O C -0.787(1) 0.559(1) -0.2030(4)
H41O H -0.812 0.565 -0.193
H42O H -0.804 0.535 -0.212
H43O H -0.780 0.594 -0.209
H38O H -0.772 0.461 -0.186
H37O H -0.688 0.417 -0.176
O9O O -0.4566(5) 0.4953(5) -0.1638(2)
N6O N -0.4156(7) 0.4862(7) -0.1505(2)
C49O C -0.3941(8) 0.5328(9) -0.1404(3)
C50O C -0.3909(9) 0.5363(9) -0.1212(3)
C51O C -0.3691(10) 0.585(1) -0.1119(3)
C52O C -0.3530(9) 0.6278(10) -0.1242(3)
C53O C -0.3587(8) 0.6257(8) -0.1432(3)
C54O C -0.3811(8) 0.5775(8) -0.1521(3)
H46O H -0.348 0.656 -0.151
C55O C -0.328(1) 0.679(1) -0.1140(4)
H49O H -0.352 0.710 -0.117
H50O H -0.293 0.684 -0.118
H44O H -0.402 0.505 -0.113
C61O C -0.3967(9) 0.4361(10) -0.1481(3)
O12O O -0.4221(5) 0.3952(5) -0.1571(2)
C62O C -0.3503(8) 0.4210(8) -0.1351(2)
C63O C -0.2976(9) 0.4428(8) -0.1403(3)
C64O C -0.2499(9) 0.4268(9) -0.1296(3)
C65O C -0.2564(9) 0.3909(9) -0.1140(3)
C66O C -0.3095(9) 0.3695(8) -0.1094(2)
C67O C -0.3540(9) 0.3864(8) -0.1203(3)
H57O H -0.389 0.371 -0.117
H56O H -0.223 0.380 -0.106
H55O H -0.214 0.439 -0.133
H54O H -0.293 0.467 -0.151
C57O C -0.4843(8) 0.2974(8) -0.2156(3)
C58O C -0.4858(9) 0.2986(10) -0.2355(3)
C59O C -0.50000 0.250 -0.2461(4)
C58I C -0.5142(9) 0.2014(10) -0.2355(3)
C57I C -0.5157(8) 0.2026(8) -0.2156(3)
C60I C -0.50000 0.250 -0.2051(4)
H53I H -0.500 0.250 -0.191
H51I H -0.522 0.168 -0.242
H51O H -0.478 0.332 -0.242
H56F H -0.630 0.527 -0.144
H55F H -0.689 0.536 -0.117
H54F H -0.717 0.457 -0.099
C57F C -0.5474(8) 0.2657(8) -0.0344(3)
C58F C -0.5486(10) 0.2642(9) -0.0145(3)
H51F H -0.582 0.272 -0.008
H56I H -0.777 0.120 -0.106
H55I H -0.786 0.061 -0.133
H54I H -0.707 0.033 -0.151
O13 O -0.183(1) 0.305(1) 0.0758(3)
N7 N -0.133(1) 0.247(1) 0.0936(3)
C69 C -0.138(2) 0.290(2) 0.0793(5)
C70 C -0.081(1) 0.233(1) 0.1031(4)
C71 C -0.182(2) 0.217(2) 0.1025(5)
H58 H -0.107 0.304 0.072
H59 H -0.052 0.253 0.097
H60 H -0.074 0.195 0.102
H63 H -0.179 0.179 0.101
H64 H -0.215 0.229 0.095
O14 O -0.0826(7) -0.0943(7) -0.0113(2)
N8 N -0.175(1) -0.0978(8) -0.0165(3)
C72 C -0.124(2) -0.103(1) -0.0224(4)
C73 C -0.219(1) -0.113(1) -0.0295(4)
C74 C -0.191(1) -0.079(1) 0.0023(4)
H66 H -0.204 -0.121 -0.042
H67 H -0.244 -0.081 -0.031
H68 H -0.238 -0.143 -0.024
H69 H -0.215 -0.048 0.001
H70 H -0.210 -0.109 0.009
H71 H -0.159 -0.069 0.009
O15 O -0.1008(9) 0.1147(8) -0.0585(3)
N9 N -0.0199(8) 0.1116(8) -0.0432(2)
C75 C -0.058(1) 0.090(1) -0.0528(3)
C76 C 0.027(1) 0.080(1) -0.0362(3)
C77 C -0.030(1) 0.165(1) -0.0338(4)
H72 H -0.054 0.053 -0.057
H73 H 0.014 0.050 -0.028
H74 H 0.046 0.064 -0.047
H75 H 0.051 0.103 -0.029
H76 H -0.040 0.191 -0.043
H77 H -0.060 0.161 -0.025
H78 H 0.003 0.176 -0.027
O16 O -0.5635(9) 0.073(1) -0.0715(3)
N10 N -0.5091(9) 0.1222(9) -0.0931(3)
C78 C -0.550(1) 0.118(2) -0.0791(5)
C79 C -0.498(1) 0.175(1) -0.1018(4)
C80 C -0.484(1) 0.068(1) -0.1002(4)
H79 H -0.567 0.151 -0.074
H80 H -0.531 0.189 -0.107
H81 H -0.486 0.199 -0.092
H82 H -0.469 0.171 -0.111
H83 H -0.458 0.075 -0.110
H84 H -0.513 0.044 -0.105
H85 H -0.466 0.049 -0.090
C81? C 0.00000 0.25000 -0.1287(6)
C82? C 0.00000 0.25000 -0.1025(7)
C83? C 0.022(3) 0.283(3) -0.0876(8)
C84? C 0.101(2) 0.195(2) -0.0513(6)
C85? C 0.123(3) 0.197(4) -0.030(1)
C86? C 0.137(2) 0.227(2) -0.0139(7)
C87? C 0.164(4) 0.233(3) -0.003(1)
C88? C 0.175(3) 0.237(2) -0.0213(9)
C89? C 0.164(1) 0.247(1) -0.0350(5)
C90? C 0.154(3) 0.254(2) -0.0532(9)
C91? C 0.194(2) 0.287(2) -0.0400(8)
C92? C 0.226(3) 0.239(2) -0.0228(7)
C93? C 0.244(2) 0.221(2) -0.0049(6)
C94? C 0.296(2) 0.201(1) -0.0012(5)
C95? C 0.333(2) 0.171(2) -0.0155(7)
C96? C 0.348(3) 0.142(3) -0.0285(10)
C97? C 0.322(3) -0.137(2) -0.0601(7)
C98? C 0.391(2) 0.132(2) -0.0335(7)
C99? C 0.380(1) 0.131(1) -0.0145(5)
C100? C 0.327(3) -0.245(4) -0.043(1)
C101? C 0.290(3) -0.211(3) -0.0511(9)
C102? C 0.254(3) -0.214(2) -0.0404(8)
C103? C 0.313(3) -0.277(3) -0.059(1)
C104? C 0.379(2) 0.119(2) 0.0061(7)
C105? C 0.371(3) -0.110(3) -0.0617(9)
C106? C 0.422(4) -0.071(3) -0.058(1)
C107? C 0.477(3) -0.066(3) -0.067(1)
C108? C 0.480(2) -0.074(3) -0.0460(7)
C109? C 0.496(3) -0.035(3) -0.0434(10)
C110? C 0.498(3) -0.015(3) -0.029(1)
C111? C 0.485(3) -0.130(3) -0.0384(9)
C112? C 0.445(3) 0.080(3) -0.015(1)
C113? C 0.573(3) -0.130(3) -0.073(1)
H2? H -0.113 -0.119 0.143
H4? H -0.066 -0.091 0.077
H24? H 0.000 0.250 0.062
H28? H -0.177 0.112 0.147
H45? H -0.161 0.118 -0.152
H47? H -0.175 0.136 -0.084
H48? H -0.078 0.080 -0.150
H52? H -0.500 0.250 0.010
H61? H -0.083 0.244 0.116
H62? H -0.187 0.228 0.116
H65? H -0.120 -0.113 -0.035
loop_
_geom_bond_atom_site_label_1
_geom_bond_atom_site_label_2
_geom_bond_site_symmetry_1
_geom_bond_site_symmetry_2
Ga1 O1 1_555 1_555
Ga2 O7 1_555 1_555
O1 N1 1_555 1_555
O2 Ga1 1_555 1_555
O3 Ga1 1_555 1_555
O4 Ga1 1_555 1_555
O5 Ga1 1_555 1_555
O6 Ga1 1_555 1_555
O7 N4 1_555 1_555
O8 Ga2 1_555 1_555
O9 Ga2 1_555 1_555
O10 Ga2 1_555 1_555
O11 Ga2 1_555 1_555
O12 Ga2 1_555 1_555
O13 C69 1_555 1_555
O14 C72 1_555 1_555
O15 C75 1_555 1_555
O16 C78 1_555 1_555
N1 C1 1_555 1_555
N2 O2 1_555 1_555
N3 O3 1_555 1_555
N4 C35 1_555 1_555
N5 O8 1_555 1_555
N6 O9 1_555 1_555
N7 C69 1_555 1_555
N8 C72 1_555 1_555
N9 C75 1_555 1_555
N10 C78 1_555 1_555
C1 C2 1_555 1_555
C2 C3 1_555 1_555
C3 C4 1_555 1_555
C4 C5 1_555 1_555
C5 C6 1_555 1_555
C6 C1 1_555 1_555
C7 C4 1_555 1_555
C8 N2 1_555 1_555
C9 C8 1_555 1_555
C10 C9 1_555 1_555
C11 C10 1_555 1_555
C12 C11 1_555 1_555
C13 C8 1_555 1_555
C14 C11 1_555 1_555
C15 N3 1_555 1_555
C16 C15 1_555 1_555
C17 C16 1_555 1_555
C18 C17 1_555 1_555
C19 C18 1_555 1_555
C20 C15 1_555 1_555
C21 C18 1_555 1_555
C22 O6 1_555 1_555
C23 C22 1_555 1_555
C24 C23 1_555 1_555
C25 C24 1_555 1_555
C26 C23 1_555 1_555
C27 O4 1_555 1_555
C28 C27 1_555 1_555
C29 C28 1_555 1_555
C30 C29 1_555 1_555
C31 C30 1_555 1_555
C32 C31 1_555 1_555
C33 C28 1_555 1_555
C34 O5 1_555 1_555
C35 C36 1_555 1_555
C36 C37 1_555 1_555
C37 C38 1_555 1_555
C38 C39 1_555 1_555
C39 C40 1_555 1_555
C40 C35 1_555 1_555
C41 C38 1_555 1_555
C42 N5 1_555 1_555
C43 C42 1_555 1_555
C44 C43 1_555 1_555
C45 C44 1_555 1_555
C46 C45 1_555 1_555
C47 C42 1_555 1_555
C48 C45 1_555 1_555
C49 N6 1_555 1_555
C50 C49 1_555 1_555
C51 C50 1_555 1_555
C52 C51 1_555 1_555
C53 C52 1_555 1_555
C54 C49 1_555 1_555
C55 C52 1_555 1_555
C56 O10 1_555 1_555
C57 C56 1_555 1_555
C58 C57 1_555 1_555
C59 C58 1_555 1_555
C60 C57 1_555 1_555
C61 O12 1_555 1_555
C62 C61 1_555 1_555
C63 C62 1_555 1_555
C64 C63 1_555 1_555
C65 C64 1_555 1_555
C66 C65 1_555 1_555
C67 C62 1_555 1_555
C68 O11 1_555 1_555
C69 H58 1_555 1_555
C70 N7 1_555 1_555
C71 N7 1_555 1_555
C73 N8 1_555 1_555
C74 N8 1_555 1_555
C75 H72 1_555 1_555
C76 N9 1_555 1_555
C77 N9 1_555 1_555
C78 H79 1_555 1_555
C79 N10 1_555 1_555
C80 N10 1_555 1_555
H1 C2 1_555 1_555
H3 C5 1_555 1_555
H5 C7 1_555 1_555
H6 C7 1_555 1_555
H7 C7 1_555 1_555
H8 C9 1_555 1_555
H9 C10 1_555 1_555
H10 C12 1_555 1_555
H11 C13 1_555 1_555
H12 C14 1_555 1_555
H13 C14 1_555 1_555
H14 C14 1_555 1_555
H15 C16 1_555 1_555
H16 C17 1_555 1_555
H17 C19 1_555 1_555
H18 C20 1_555 1_555
H19 C21 1_555 1_555
H20 C21 1_555 1_555
H21 C21 1_555 1_555
H22 C24 1_555 1_555
H23 C25 1_555 1_555
H25 C29 1_555 1_555
H26 C30 1_555 1_555
H27 C31 1_555 1_555
H29 C33 1_555 1_555
H30 C36 1_555 1_555
H31 C37 1_555 1_555
H32 C39 1_555 1_555
H33 C40 1_555 1_555
H34 C41 1_555 1_555
H35 C41 1_555 1_555
H36 C41 1_555 1_555
H37 C43 1_555 1_555
H38 C44 1_555 1_555
H39 C46 1_555 1_555
H40 C47 1_555 1_555
H41 C48 1_555 1_555
H42 C48 1_555 1_555
H43 C48 1_555 1_555
H44 C50 1_555 1_555
H46 C53 1_555 1_555
H49 C55 1_555 1_555
H50 C55 1_555 1_555
H51 C58 1_555 1_555
H53 C60 1_555 1_555
H54 C63 1_555 1_555
H55 C64 1_555 1_555
H56 C65 1_555 1_555
H57 C67 1_555 1_555
H59 C70 1_555 1_555
H60 C70 1_555 1_555
H63 C71 1_555 1_555
H64 C71 1_555 1_555
H66 C73 1_555 1_555
H67 C73 1_555 1_555
H68 C73 1_555 1_555
H69 C74 1_555 1_555
H70 C74 1_555 1_555
H71 C74 1_555 1_555
H73 C76 1_555 1_555
H74 C76 1_555 1_555
H75 C76 1_555 1_555
H76 C77 1_555 1_555
H77 C77 1_555 1_555
H78 C77 1_555 1_555
H80 C79 1_555 1_555
H81 C79 1_555 1_555
H82 C79 1_555 1_555
H83 C80 1_555 1_555
H84 C80 1_555 1_555
H85 C80 1_555 1_555
C24F C25 1_555 1_555
C23F C26 1_555 1_555
C22F C23F 1_555 1_555
O6F C22F 1_555 1_555
Ga1F O6F 1_555 1_555
O1F Ga1F 1_555 1_555
N1F O1F 1_555 1_555
C1F N1F 1_555 1_555
C2F C1F 1_555 1_555
C3F C2F 1_555 1_555
C4F C3F 1_555 1_555
C5F C4F 1_555 1_555
C6F C1F 1_555 1_555
H3F C5F 1_555 1_555
C7F C4F 1_555 1_555
H5F C7F 1_555 1_555
H6F C7F 1_555 1_555
H7F C7F 1_555 1_555
H1F C2F 1_555 1_555
C27F N1F 1_555 1_555
O4F Ga1F 1_555 1_555
O2F Ga1F 1_555 1_555
N2F O2F 1_555 1_555
C8F N2F 1_555 1_555
C9F C8F 1_555 1_555
C10F C9F 1_555 1_555
C11F C10F 1_555 1_555
C12F C11F 1_555 1_555
C13F C8F 1_555 1_555
H11F C13F 1_555 1_555
H10F C12F 1_555 1_555
C14F C11F 1_555 1_555
H12F C14F 1_555 1_555
H13F C14F 1_555 1_555
H14F C14F 1_555 1_555
H9F C10F 1_555 1_555
H8F C9F 1_555 1_555
C34F N2F 1_555 1_555
O5F Ga1F 1_555 1_555
O3F Ga1F 1_555 1_555
N3F C22F 1_555 1_555
C15F N3F 1_555 1_555
C16F C15F 1_555 1_555
C17F C16F 1_555 1_555
C18F C17F 1_555 1_555
C19F C18F 1_555 1_555
C20F C15F 1_555 1_555
H18F C20F 1_555 1_555
H17F C19F 1_555 1_555
C21F C18F 1_555 1_555
H19F C21F 1_555 1_555
H20F C21F 1_555 1_555
H21F C21F 1_555 1_555
H16F C17F 1_555 1_555
H15F C16F 1_555 1_555
C32M C34F 1_555 1_555
C31M C32M 1_555 1_555
C30M C31M 1_555 1_555
C29M C30M 1_555 1_555
C28M C29M 1_555 1_555
C27M C28M 1_555 1_555
O4M C27M 1_555 1_555
Ga1M O4M 1_555 1_555
O1M Ga1M 1_555 1_555
N1M C27M 1_555 1_555
C1M N1M 1_555 1_555
C2M C1M 1_555 1_555
C3M C2M 1_555 1_555
C4M C3M 1_555 1_555
C5M C4M 1_555 1_555
C6M C1M 1_555 1_555
H3M C5M 1_555 1_555
C7M C4M 1_555 1_555
H5M C7M 1_555 1_555
H6M C7M 1_555 1_555
H7M C7M 1_555 1_555
H1M C2M 1_555 1_555
O2M Ga1M 1_555 1_555
N2M O2M 1_555 1_555
C8M N2M 1_555 1_555
C9M C8M 1_555 1_555
C10M C9M 1_555 1_555
C11M C10M 1_555 1_555
C12M C11M 1_555 1_555
C13M C8M 1_555 1_555
H11M C13M 1_555 1_555
H10M C12M 1_555 1_555
C14M C11M 1_555 1_555
H12M C14M 1_555 1_555
H13M C14M 1_555 1_555
H14M C14M 1_555 1_555
H9M C10M 1_555 1_555
H8M C9M 1_555 1_555
C34M C32 1_555 1_555
O5M Ga1M 1_555 1_555
O3M Ga1M 1_555 1_555
N3M O3M 1_555 1_555
C15M N3M 1_555 1_555
C16M C15M 1_555 1_555
C17M C16M 1_555 1_555
C18M C17M 1_555 1_555
C19M C18M 1_555 1_555
C20M C15M 1_555 1_555
H18M C20M 1_555 1_555
H17M C19M 1_555 1_555
C21M C18M 1_555 1_555
H19M C21M 1_555 1_555
H20M C21M 1_555 1_555
H21M C21M 1_555 1_555
H16M C17M 1_555 1_555
H15M C16M 1_555 1_555
C22M N3M 1_555 1_555
O6M Ga1M 1_555 1_555
C23M C22M 1_555 1_555
C24M C23M 1_555 1_555
C25M C24M 1_555 1_555
C24K C25M 1_555 1_555
C23K C24K 1_555 1_555
C22K C23K 1_555 1_555
O6K C22K 1_555 1_555
Ga1K O6K 1_555 1_555
O1K Ga1K 1_555 1_555
N1K O1K 1_555 1_555
C1K N1K 1_555 1_555
C2K C1K 1_555 1_555
C3K C2K 1_555 1_555
C4K C3K 1_555 1_555
C5K C4K 1_555 1_555
C6K C1K 1_555 1_555
H3K C5K 1_555 1_555
C7K C4K 1_555 1_555
H5K C7K 1_555 1_555
H6K C7K 1_555 1_555
H7K C7K 1_555 1_555
H1K C2K 1_555 1_555
C27K N1K 1_555 1_555
O4K Ga1K 1_555 1_555
O2K Ga1K 1_555 1_555
N2K O2K 1_555 1_555
C8K N2K 1_555 1_555
C9K C8K 1_555 1_555
C10K C9K 1_555 1_555
C11K C10K 1_555 1_555
C12K C11K 1_555 1_555
C13K C8K 1_555 1_555
H11K C13K 1_555 1_555
H10K C12K 1_555 1_555
C14K C11K 1_555 1_555
H12K C14K 1_555 1_555
H13K C14K 1_555 1_555
H14K C14K 1_555 1_555
H9K C10K 1_555 1_555
H8K C9K 1_555 1_555
C34K N2K 1_555 1_555
O5K Ga1K 1_555 1_555
O3K Ga1K 1_555 1_555
N3K C22K 1_555 1_555
C15K N3K 1_555 1_555
C16K C15K 1_555 1_555
C17K C16K 1_555 1_555
C18K C17K 1_555 1_555
C19K C18K 1_555 1_555
C20K C15K 1_555 1_555
H18K C20K 1_555 1_555
H17K C19K 1_555 1_555
C21K C18K 1_555 1_555
H19K C21K 1_555 1_555
H20K C21K 1_555 1_555
H21K C21K 1_555 1_555
H16K C17K 1_555 1_555
H15K C16K 1_555 1_555
C32F C34K 1_555 1_555
C31F C32F 1_555 1_555
C30F C31F 1_555 1_555
C29F C30F 1_555 1_555
C28F C27F 1_555 1_555
C33F C32F 1_555 1_555
H29F C33F 1_555 1_555
H25F C29F 1_555 1_555
H26F C30F 1_555 1_555
H27F C31F 1_555 1_555
C28K C27K 1_555 1_555
C29K C28K 1_555 1_555
C30K C29K 1_555 1_555
C31K C30K 1_555 1_555
C32K C34 1_555 1_555
C33K C28K 1_555 1_555
H29K C33K 1_555 1_555
H27K C31K 1_555 1_555
H26K C30K 1_555 1_555
H25K C29K 1_555 1_555
C26K C23M 1_555 1_555
H22K C24K 1_555 1_555
H23M C25M 1_555 1_555
H22M C24M 1_555 1_555
C33M C32M 1_555 1_555
H29M C33M 1_555 1_555
H25M C29M 1_555 1_555
H26M C30M 1_555 1_555
H27M C31M 1_555 1_555
H22F C24F 1_555 1_555
C68I C66 1_555 1_555
O11I C68I 1_555 1_555
Ga2I O11I 1_555 1_555
O7I Ga2I 1_555 1_555
N4I O7I 1_555 1_555
C35I N4I 1_555 1_555
C36I C35I 1_555 1_555
C37I C36I 1_555 1_555
C38I C37I 1_555 1_555
C39I C38I 1_555 1_555
C40I C35I 1_555 1_555
H33I C40I 1_555 1_555
H32I C39I 1_555 1_555
C41I C38I 1_555 1_555
H34I C41I 1_555 1_555
H35I C41I 1_555 1_555
H36I C41I 1_555 1_555
H31I C37I 1_555 1_555
H30I C36I 1_555 1_555
C56I N4I 1_555 1_555
O10I Ga2I 1_555 1_555
O8I Ga2I 1_555 1_555
N5I C68I 1_555 1_555
C42I N5I 1_555 1_555
C43I C42I 1_555 1_555
C44I C43I 1_555 1_555
C45I C44I 1_555 1_555
C46I C45I 1_555 1_555
C47I C42I 1_555 1_555
H40I C47I 1_555 1_555
H39I C46I 1_555 1_555
C48I C45I 1_555 1_555
H41I C48I 1_555 1_555
H42I C48I 1_555 1_555
H43I C48I 1_555 1_555
H38I C44I 1_555 1_555
H37I C43I 1_555 1_555
O9I Ga2I 1_555 1_555
N6I O9I 1_555 1_555
C49I N6I 1_555 1_555
C50I C49I 1_555 1_555
C51I C50I 1_555 1_555
C52I C51I 1_555 1_555
C53I C52I 1_555 1_555
C54I C49I 1_555 1_555
H46I C53I 1_555 1_555
C55I C52I 1_555 1_555
H49I C55I 1_555 1_555
H50I C55I 1_555 1_555
H44I C50I 1_555 1_555
C61I N6I 1_555 1_555
O12I Ga2I 1_555 1_555
C62I C61I 1_555 1_555
C63I C62I 1_555 1_555
C64I C63I 1_555 1_555
C65I C64I 1_555 1_555
C66I C65I 1_555 1_555
C67I C62I 1_555 1_555
H57I C67I 1_555 1_555
C68F C66I 1_555 1_555
O11F C68F 1_555 1_555
Ga2F O11F 1_555 1_555
O7F Ga2F 1_555 1_555
N4F O7F 1_555 1_555
C35F N4F 1_555 1_555
C36F C35F 1_555 1_555
C37F C36F 1_555 1_555
C38F C37F 1_555 1_555
C39F C38F 1_555 1_555
C40F C35F 1_555 1_555
H33F C40F 1_555 1_555
H32F C39F 1_555 1_555
C41F C38F 1_555 1_555
H34F C41F 1_555 1_555
H35F C41F 1_555 1_555
H36F C41F 1_555 1_555
H31F C37F 1_555 1_555
H30F C36F 1_555 1_555
C56F N4F 1_555 1_555
O10F Ga2F 1_555 1_555
O8F Ga2F 1_555 1_555
N5F C68F 1_555 1_555
C42F N5F 1_555 1_555
C43F C42F 1_555 1_555
C44F C43F 1_555 1_555
C45F C44F 1_555 1_555
C46F C45F 1_555 1_555
C47F C42F 1_555 1_555
H40F C47F 1_555 1_555
H39F C46F 1_555 1_555
C48F C45F 1_555 1_555
H41F C48F 1_555 1_555
H42F C48F 1_555 1_555
H43F C48F 1_555 1_555
H38F C44F 1_555 1_555
H37F C43F 1_555 1_555
O9F Ga2F 1_555 1_555
N6F O9F 1_555 1_555
C49F N6F 1_555 1_555
C50F C49F 1_555 1_555
C51F C50F 1_555 1_555
C52F C51F 1_555 1_555
C53F C52F 1_555 1_555
C54F C49F 1_555 1_555
H46F C53F 1_555 1_555
C55F C52F 1_555 1_555
H49F C55F 1_555 1_555
H50F C55F 1_555 1_555
H44F C50F 1_555 1_555
C61F N6F 1_555 1_555
O12F Ga2F 1_555 1_555
C62F C61F 1_555 1_555
C63F C62F 1_555 1_555
C64F C63F 1_555 1_555
C65F C64F 1_555 1_555
C66F C65F 1_555 1_555
C67F C62F 1_555 1_555
H57F C67F 1_555 1_555
C68O C66F 1_555 1_555
O11O C68O 1_555 1_555
Ga2O O11O 1_555 1_555
O7O Ga2O 1_555 1_555
N4O O7O 1_555 1_555
C35O N4O 1_555 1_555
C36O C35O 1_555 1_555
C37O C36O 1_555 1_555
C38O C37O 1_555 1_555
C39O C38O 1_555 1_555
C40O C35O 1_555 1_555
H33O C40O 1_555 1_555
H32O C39O 1_555 1_555
C41O C38O 1_555 1_555
H34O C41O 1_555 1_555
H35O C41O 1_555 1_555
H36O C41O 1_555 1_555
H31O C37O 1_555 1_555
H30O C36O 1_555 1_555
C56O N4O 1_555 1_555
O10O Ga2O 1_555 1_555
O8O Ga2O 1_555 1_555
N5O C68O 1_555 1_555
C42O N5O 1_555 1_555
C43O C42O 1_555 1_555
C44O C43O 1_555 1_555
C45O C44O 1_555 1_555
C46O C45O 1_555 1_555
C47O C42O 1_555 1_555
H40O C47O 1_555 1_555
H39O C46O 1_555 1_555
C48O C45O 1_555 1_555
H41O C48O 1_555 1_555
H42O C48O 1_555 1_555
H43O C48O 1_555 1_555
H38O C44O 1_555 1_555
H37O C43O 1_555 1_555
O9O Ga2O 1_555 1_555
N6O O9O 1_555 1_555
C49O N6O 1_555 1_555
C50O C49O 1_555 1_555
C51O C50O 1_555 1_555
C52O C51O 1_555 1_555
C53O C52O 1_555 1_555
C54O C49O 1_555 1_555
H46O C53O 1_555 1_555
C55O C52O 1_555 1_555
H49O C55O 1_555 1_555
H50O C55O 1_555 1_555
H44O C50O 1_555 1_555
C61O N6O 1_555 1_555
O12O Ga2O 1_555 1_555
C62O C61O 1_555 1_555
C63O C62O 1_555 1_555
C64O C63O 1_555 1_555
C65O C64O 1_555 1_555
C66O C68 1_555 1_555
C67O C62O 1_555 1_555
H57O C67O 1_555 1_555
H56O C65O 1_555 1_555
H55O C64O 1_555 1_555
H54O C63O 1_555 1_555
C57O C56O 1_555 1_555
C58O C57O 1_555 1_555
C59O C58O 1_555 1_555
C58I C59O 1_555 1_555
C57I C56I 1_555 1_555
C60I C57O 1_555 1_555
H53I C60I 1_555 1_555
H51I C58I 1_555 1_555
H51O C58O 1_555 1_555
H56F C65F 1_555 1_555
H55F C64F 1_555 1_555
H54F C63F 1_555 1_555
C57F C60 1_555 1_555
C58F C59 1_555 1_555
H51F C58F 1_555 1_555
H56I C65I 1_555 1_555
H55I C64I 1_555 1_555
H54I C63I 1_555 1_555
N1 C27 1_555 1_555
N2 C34 1_555 1_555
N3 C22 1_555 1_555
N4 C56 1_555 1_555
N5 C68 1_555 1_555
N6 C61 1_555 1_555
C12 C13 1_555 1_555
C19 C20 1_555 1_555
C32 C33 1_555 1_555
C46 C47 1_555 1_555
C53 C54 1_555 1_555
C66 C67 1_555 1_555
C24F C23F 1_555 1_555
C5F C6F 1_555 1_555
C27F O4F 1_555 1_555
C12F C13F 1_555 1_555
C34F O5F 1_555 1_555
O3F N3F 1_555 1_555
C19F C20F 1_555 1_555
C28M C33M 1_555 1_555
O1M N1M 1_555 1_555
C5M C6M 1_555 1_555
N2M C34M 1_555 1_555
C12M C13M 1_555 1_555
C34M O5M 1_555 1_555
C19M C20M 1_555 1_555
C22M O6M 1_555 1_555
C23K C26K 1_555 1_555
C5K C6K 1_555 1_555
C27K O4K 1_555 1_555
C12K C13K 1_555 1_555
C34K O5K 1_555 1_555
O3K N3K 1_555 1_555
C19K C20K 1_555 1_555
C29F C28F 1_555 1_555
C28F C33F 1_555 1_555
C31K C32K 1_555 1_555
C32K C33K 1_555 1_555
C39I C40I 1_555 1_555
C56I O10I 1_555 1_555
O8I N5I 1_555 1_555
C46I C47I 1_555 1_555
C53I C54I 1_555 1_555
C61I O12I 1_555 1_555
C66I C67I 1_555 1_555
C39F C40F 1_555 1_555
C56F O10F 1_555 1_555
C56F C57F 1_555 1_555
O8F N5F 1_555 1_555
C46F C47F 1_555 1_555
C53F C54F 1_555 1_555
C61F O12F 1_555 1_555
C66F C67F 1_555 1_555
C39O C40O 1_555 1_555
C56O O10O 1_555 1_555
O8O N5O 1_555 1_555
C46O C47O 1_555 1_555
C53O C54O 1_555 1_555
C61O O12O 1_555 1_555
C65O C66O 1_555 1_555
C66O C67O 1_555 1_555
C58I C57I 1_555 1_555
C57I C60I 1_555 1_555
C57F C58F 1_555 1_555

#END
