
#######################################################################
#
#                 Cambridge Crystallographic Data Centre
#                                CCDC 
#
#######################################################################
#
# If this CIF has been generated from an entry in the Cambridge 
# Structural Database, then it will include bibliographic, chemical, 
# crystal, experimental, refinement or atomic coordinate data resulting 
# from the CCDC's data processing and validation procedures.
#
#######################################################################

data_NACSIT01
_chemical_formula_moiety         'C132 H108 Ga4 N12 O24,18(C3 H7 N1 O1)'
_chemical_name_systematic        
'hexakis((Isophthal-bis-N-(p-tolyl)hydroxamato))-tetra-gallium(iii) dimethylformamide solvate'
_symmetry_cell_setting           tetragonal
_symmetry_space_group_name_H-M   'I 41/a'
_symmetry_Int_Tables_number      88
_space_group_name_Hall           '-I 4ad'
loop_
_symmetry_equiv_pos_site_id
_symmetry_equiv_pos_as_xyz
1 x,y,z
2 3/4-y,1/4+x,1/4+z
3 1/2+x,1/2+y,1/2+z
4 1/4-y,3/4+x,3/4+z
5 1/4+y,1/4-x,1/4+z
6 1/2+x,y,1/2-z
7 1/4-y,1/4+x,1/4-z
8 x,1/2+y,-z
9 -x,-y,-z
10 1/4+y,3/4-x,3/4-z
11 1/2-x,1/2-y,1/2-z
12 3/4+y,1/4-x,1/4-z
13 3/4-y,3/4+x,3/4-z
14 1/2-x,-y,1/2+z
15 3/4+y,3/4-x,3/4+z
16 -x,1/2-y,z
_cell_length_a                   24.0738(2)
_cell_length_b                   24.0738(2)
_cell_length_c                   68.5828(5)
_cell_angle_alpha                90
_cell_angle_beta                 90
_cell_angle_gamma                90
_cell_volume                     39747
_exptl_crystal_colour            colorless
_exptl_crystal_description       prism
_cell_formula_units_Z            8
loop_
_atom_site_label
_atom_site_type_symbol
_atom_site_fract_x
_atom_site_fract_y
_atom_site_fract_z
Ga1 Ga 0.02490(5) 0.06816(5) 0.07682(2)
O1 O 0.0058(3) -0.0047(3) 0.08698(9)
O2 O 0.0965(3) 0.0435(3) 0.06709(10)
O3 O -0.0155(3) 0.0542(3) 0.05329(10)
O4 O -0.0417(3) 0.0906(3) 0.09246(10)
O5 O 0.0705(3) 0.0919(3) 0.09930(9)
O6 O 0.0279(3) 0.1445(3) 0.06519(10)
N1 N -0.0439(4) -0.0012(4) 0.09689(12)
N2 N 0.1354(4) 0.0491(4) 0.08172(12)
N3 N -0.0237(4) 0.1021(3) 0.04291(12)
C1 C -0.0664(4) -0.0540(4) 0.1038(2)
C2 C -0.0775(5) -0.0611(5) 0.1229(2)
H1 H -0.0694(5) -0.0335(5) 0.1319(2)
C3 C -0.1023(6) -0.1129(6) 0.1289(2)
H2 H -0.1109(6) -0.1193(6) 0.1419(2)
C4 C -0.1125(6) -0.1510(6) 0.1156(2)
C5 C -0.1020(6) -0.1448(6) 0.0967(2)
H3 H -0.1109(6) -0.1726(6) 0.0879(2)
C6 C -0.0770(5) -0.0951(5) 0.0905(2)
H4 H -0.0678(5) -0.0901(5) 0.0774(2)
C7 C -0.1424(8) -0.2065(8) 0.1219(3)
H5 H -0.1471(8) -0.2301(8) 0.1108(3)
H6 H -0.1782(8) -0.1978(8) 0.1274(3)
H7 H -0.1203(8) -0.2252(8) 0.1316(3)
C8 C 0.1912(4) 0.0335(4) 0.07621(15)
C9 C 0.2003(5) -0.0168(5) 0.0671(2)
H8 H 0.1708(5) -0.0410(5) 0.0648(2)
C10 C 0.2539(5) -0.0313(6) 0.0612(2)
H9 H 0.2602(5) -0.0651(6) 0.0550(2)
C11 C 0.2968(6) 0.0039(6) 0.0644(2)
C12 C 0.2869(6) 0.0540(6) 0.0729(2)
H10 H 0.3166(6) 0.0782(6) 0.0749(2)
C13 C 0.2337(5) 0.0707(5) 0.0788(2)
H11 H 0.2275(5) 0.1055(5) 0.0842(2)
C14 C 0.3553(7) -0.0139(7) 0.0578(2)
H12 H 0.3815(7) 0.0148(7) 0.0610(2)
H13 H 0.3553(7) -0.0199(7) 0.0439(2)
H14 H 0.3656(7) -0.0476(7) 0.0643(2)
C15 C -0.0609(4) 0.0960(4) 0.02683(14)
C16 C -0.0528(5) 0.0552(5) 0.0136(2)
H15 H -0.0215(5) 0.0328(5) 0.0146(2)
C17 C -0.0906(5) 0.0463(5) -0.0014(2)
H16 H -0.0852(5) 0.0171(5) -0.0101(2)
C18 C -0.1364(5) 0.0808(5) -0.0034(2)
C19 C -0.1441(5) 0.1219(5) 0.0100(2)
H17 H -0.1748(5) 0.1451(5) 0.0089(2)
C20 C -0.1068(5) 0.1300(5) 0.0254(2)
H18 H -0.1128(5) 0.1579(5) 0.0346(2)
C21 C -0.1789(7) 0.0711(7) -0.0193(2)
H19 H -0.1670(7) 0.0408(7) -0.0274(2)
H20 H -0.1824(7) 0.1041(7) -0.0271(2)
H21 H -0.2141(7) 0.0623(7) -0.0135(2)
C22 C 0.0022(4) 0.1476(4) 0.04921(14)
C23 C 0.0012(4) 0.1999(4) 0.03802(14)
C24 C 0.0030(5) 0.2000(5) 0.0181(2)
H22 H 0.0061(5) 0.1666(5) 0.0114(2)
C25 C 0.0000 0.2500 0.0076(3)
H23 H 0.0000 0.2500 -0.0059(3)
C26 C 0.0000 0.2500 0.0483(2)
H24 H 0.0000 0.2500 0.0619(2)
C27 C -0.0676(4) 0.0484(4) 0.09891(15)
C28 C -0.1217(4) 0.0544(4) 0.10879(14)
C29 C -0.1692(5) 0.0306(5) 0.1006(2)
H25 H -0.1670(5) 0.0094(5) 0.0893(2)
C30 C -0.2205(5) 0.0398(5) 0.1100(2)
H26 H -0.2531(5) 0.0260(5) 0.1046(2)
C31 C -0.2223(4) 0.0693(4) 0.12710(15)
H27 H -0.2560(4) 0.0734(4) 0.13356(15)
C32 C -0.1752(4) 0.0930(4) 0.13491(14)
C33 C -0.1243(4) 0.0859(4) 0.12499(14)
H28 H -0.0923(4) 0.1031(4) 0.12967(14)
C34 C 0.1199(4) 0.0720(5) 0.09804(15)
C24O C -0.0030(5) 0.3000(5) 0.0181(2)
C23O C -0.0012(4) 0.3001(4) 0.03802(14)
C22O C -0.0022(4) 0.3524(4) 0.04921(14)
O6O O -0.0279(3) 0.3555(3) 0.06519(10)
Ga1O Ga -0.02490(5) 0.43184(5) 0.07682(2)
O1O O -0.0058(3) 0.5047(3) 0.08698(9)
N1O N 0.0439(4) 0.5012(4) 0.09689(12)
C1O C 0.0664(4) 0.5540(4) 0.1038(2)
C2O C 0.0775(5) 0.5611(5) 0.1229(2)
H1O H 0.0694(5) 0.5335(5) 0.1319(2)
C3O C 0.1023(6) 0.6129(6) 0.1289(2)
H2O H 0.1109(6) 0.6193(6) 0.1419(2)
C4O C 0.1125(6) 0.6510(6) 0.1156(2)
C5O C 0.1020(6) 0.6448(6) 0.0967(2)
H3O H 0.1109(6) 0.6726(6) 0.0879(2)
C6O C 0.0770(5) 0.5951(5) 0.0905(2)
H4O H 0.0678(5) 0.5901(5) 0.0774(2)
C7O C 0.1424(8) 0.7065(8) 0.1219(3)
H5O H 0.1471(8) 0.7301(8) 0.1108(3)
H6O H 0.1782(8) 0.6978(8) 0.1274(3)
H7O H 0.1203(8) 0.7252(8) 0.1316(3)
C27O C 0.0676(4) 0.4516(4) 0.09891(15)
O4O O 0.0417(3) 0.4094(3) 0.09246(10)
O2O O -0.0965(3) 0.4565(3) 0.06709(10)
N2O N -0.1354(4) 0.4509(4) 0.08172(12)
C8O C -0.1912(4) 0.4665(4) 0.07621(15)
C9O C -0.2003(5) 0.5168(5) 0.0671(2)
H8O H -0.1708(5) 0.5410(5) 0.0648(2)
C10O C -0.2539(5) 0.5313(6) 0.0612(2)
H9O H -0.2602(5) 0.5651(6) 0.0550(2)
C11O C -0.2968(6) 0.4961(6) 0.0644(2)
C12O C -0.2869(6) 0.4460(6) 0.0729(2)
H10O H -0.3166(6) 0.4218(6) 0.0749(2)
C13O C -0.2337(5) 0.4293(5) 0.0788(2)
H11O H -0.2275(5) 0.3945(5) 0.0842(2)
C14O C -0.3553(7) 0.5139(7) 0.0578(2)
H12O H -0.3815(7) 0.4852(7) 0.0610(2)
H13O H -0.3553(7) 0.5199(7) 0.0439(2)
H14O H -0.3656(7) 0.5476(7) 0.0643(2)
C34O C -0.1199(4) 0.4280(5) 0.09804(15)
O5O O -0.0705(3) 0.4081(3) 0.09930(9)
O3O O 0.0155(3) 0.4458(3) 0.05329(10)
N3O N 0.0237(4) 0.3979(3) 0.04291(12)
C15O C 0.0609(4) 0.4040(4) 0.02683(14)
C16O C 0.0528(5) 0.4448(5) 0.0136(2)
H15O H 0.0215(5) 0.4672(5) 0.0146(2)
C17O C 0.0906(5) 0.4537(5) -0.0014(2)
H16O H 0.0852(5) 0.4829(5) -0.0101(2)
C18O C 0.1364(5) 0.4192(5) -0.0034(2)
C19O C 0.1441(5) 0.3781(5) 0.0100(2)
H17O H 0.1748(5) 0.3549(5) 0.0089(2)
C20O C 0.1068(5) 0.3700(5) 0.0254(2)
H18O H 0.1128(5) 0.3421(5) 0.0346(2)
C21O C 0.1789(7) 0.4289(7) -0.0193(2)
H19O H 0.1670(7) 0.4592(7) -0.0274(2)
H20O H 0.1824(7) 0.3959(7) -0.0271(2)
H21O H 0.2141(7) 0.4377(7) -0.0135(2)
C32K C -0.1570(4) 0.4252(4) 0.11509(14)
C31K C -0.1807(4) 0.4723(4) 0.12290(15)
C30K C -0.2102(5) 0.4705(5) 0.1400(2)
C29K C -0.2194(5) 0.4192(5) 0.1494(2)
C28K C -0.1956(4) 0.3717(4) 0.14121(14)
C27K C -0.2016(4) 0.3176(4) 0.15109(15)
O4K O -0.1594(3) 0.2917(3) 0.15754(10)
Ga1K Ga -0.18184(5) 0.22510(5) 0.17318(2)
O1K O -0.2547(3) 0.2442(3) 0.16302(9)
N1K N -0.2512(4) 0.2939(4) 0.15311(12)
C1K C -0.3040(4) 0.3164(4) 0.1462(2)
C2K C -0.3111(5) 0.3275(5) 0.1271(2)
H1K H -0.2835(5) 0.3194(5) 0.1181(2)
C3K C -0.3629(6) 0.3523(6) 0.1211(2)
H2K H -0.3693(6) 0.3609(6) 0.1081(2)
C4K C -0.4010(6) 0.3625(6) 0.1344(2)
C5K C -0.3948(6) 0.3520(6) 0.1533(2)
H3K H -0.4226(6) 0.3609(6) 0.1621(2)
C6K C -0.3451(5) 0.3270(5) 0.1595(2)
H4K H -0.3401(5) 0.3178(5) 0.1726(2)
C7K C -0.4565(8) 0.3924(8) 0.1281(3)
H5K H -0.4801(8) 0.3971(8) 0.1392(3)
H6K H -0.4478(8) 0.4282(8) 0.1226(3)
H7K H -0.4752(8) 0.3703(8) 0.1184(3)
O2K O -0.2065(3) 0.1535(3) 0.18291(10)
N2K N -0.2009(4) 0.1146(4) 0.16828(12)
C8K C -0.2165(4) 0.0588(4) 0.17379(15)
C9K C -0.2668(5) 0.0497(5) 0.1829(2)
H8K H -0.2910(5) 0.0792(5) 0.1852(2)
C10K C -0.2813(6) -0.0039(5) 0.1888(2)
H9K H -0.3151(6) -0.0102(5) 0.1950(2)
C11K C -0.2461(6) -0.0468(6) 0.1856(2)
C12K C -0.1960(6) -0.0369(6) 0.1771(2)
H10K H -0.1718(6) -0.0666(6) 0.1751(2)
C13K C -0.1793(5) 0.0163(5) 0.1712(2)
H11K H -0.1445(5) 0.0225(5) 0.1658(2)
C14K C -0.2639(7) -0.1053(7) 0.1922(2)
H12K H -0.2352(7) -0.1315(7) 0.1890(2)
H13K H -0.2699(7) -0.1053(7) 0.2061(2)
H14K H -0.2976(7) -0.1156(7) 0.1857(2)
C34K C -0.1780(5) 0.1301(4) 0.15196(15)
O5K O -0.1581(3) 0.1795(3) 0.15070(9)
O3K O -0.1958(3) 0.2655(3) 0.19671(10)
N3K N -0.1479(3) 0.2737(4) 0.20709(12)
C15K C -0.1540(4) 0.3109(4) 0.22317(14)
C16K C -0.1948(5) 0.3028(5) 0.2364(2)
H15K H -0.2172(5) 0.2715(5) 0.2354(2)
C17K C -0.2037(5) 0.3406(5) 0.2514(2)
H16K H -0.2329(5) 0.3352(5) 0.2601(2)
C18K C -0.1692(5) 0.3864(5) 0.2534(2)
C19K C -0.1281(5) 0.3941(5) 0.2400(2)
H17K H -0.1049(5) 0.4248(5) 0.2411(2)
C20K C -0.1200(5) 0.3568(5) 0.2246(2)
H18K H -0.0921(5) 0.3628(5) 0.2154(2)
C21K C -0.1789(7) 0.4289(7) 0.2693(2)
H19K H -0.2092(7) 0.4170(7) 0.2774(2)
H20K H -0.1459(7) 0.4324(7) 0.2771(2)
H21K H -0.1877(7) 0.4641(7) 0.2635(2)
C22K C -0.1024(4) 0.2478(4) 0.20079(14)
O6K O -0.1055(3) 0.2221(3) 0.18481(10)
C23K C -0.0501(4) 0.2488(4) 0.21198(14)
C24K C -0.0500(5) 0.2470(5) 0.2319(2)
H22K H -0.0834(5) 0.2439(5) 0.2386(2)
C25K C 0.0000 0.2500 0.2424(3)
C24F C 0.0500(5) 0.2530(5) 0.2319(2)
C23F C 0.0501(4) 0.2512(4) 0.21198(14)
C22F C 0.1024(4) 0.2522(4) 0.20079(14)
O6F O 0.1055(3) 0.2779(3) 0.18481(10)
Ga1F Ga 0.18184(5) 0.27490(5) 0.17318(2)
O1F O 0.2547(3) 0.2558(3) 0.16302(9)
N1F N 0.2512(4) 0.2061(4) 0.15311(12)
C1F C 0.3040(4) 0.1836(4) 0.1462(2)
C2F C 0.3111(5) 0.1725(5) 0.1271(2)
H1F H 0.2835(5) 0.1806(5) 0.1181(2)
C3F C 0.3629(6) 0.1477(6) 0.1211(2)
H2F H 0.3693(6) 0.1391(6) 0.1081(2)
C4F C 0.4010(6) 0.1375(6) 0.1344(2)
C5F C 0.3948(6) 0.1480(6) 0.1533(2)
H3F H 0.4226(6) 0.1391(6) 0.1621(2)
C6F C 0.3451(5) 0.1730(5) 0.1595(2)
H4F H 0.3401(5) 0.1822(5) 0.1726(2)
C7F C 0.4565(8) 0.1076(8) 0.1281(3)
H5F H 0.4801(8) 0.1029(8) 0.1392(3)
H6F H 0.4478(8) 0.0718(8) 0.1226(3)
H7F H 0.4752(8) 0.1297(8) 0.1184(3)
C27F C 0.2016(4) 0.1824(4) 0.15109(15)
O4F O 0.1594(3) 0.2083(3) 0.15754(10)
O2F O 0.2065(3) 0.3465(3) 0.18291(10)
N2F N 0.2009(4) 0.3854(4) 0.16828(12)
C8F C 0.2165(4) 0.4412(4) 0.17379(15)
C9F C 0.2668(5) 0.4503(5) 0.1829(2)
H8F H 0.2910(5) 0.4208(5) 0.1852(2)
C10F C 0.2813(6) 0.5039(5) 0.1888(2)
H9F H 0.3151(6) 0.5102(5) 0.1950(2)
C11F C 0.2461(6) 0.5468(6) 0.1856(2)
C12F C 0.1960(6) 0.5369(6) 0.1771(2)
H10F H 0.1718(6) 0.5666(6) 0.1751(2)
C13F C 0.1793(5) 0.4837(5) 0.1712(2)
H11F H 0.1445(5) 0.4775(5) 0.1658(2)
C14F C 0.2639(7) 0.6053(7) 0.1922(2)
H12F H 0.2352(7) 0.6315(7) 0.1890(2)
H13F H 0.2699(7) 0.6053(7) 0.2061(2)
H14F H 0.2976(7) 0.6156(7) 0.1857(2)
C34F C 0.1780(5) 0.3699(4) 0.15196(15)
O5F O 0.1581(3) 0.3205(3) 0.15070(9)
O3F O 0.1958(3) 0.2345(3) 0.19671(10)
N3F N 0.1479(3) 0.2263(4) 0.20709(12)
C15F C 0.1540(4) 0.1891(4) 0.22317(14)
C16F C 0.1948(5) 0.1972(5) 0.2364(2)
H15F H 0.2172(5) 0.2285(5) 0.2354(2)
C17F C 0.2037(5) 0.1594(5) 0.2514(2)
H16F H 0.2329(5) 0.1648(5) 0.2601(2)
C18F C 0.1692(5) 0.1136(5) 0.2534(2)
C19F C 0.1281(5) 0.1059(5) 0.2400(2)
H17F H 0.1049(5) 0.0752(5) 0.2411(2)
C20F C 0.1200(5) 0.1432(5) 0.2246(2)
H18F H 0.0921(5) 0.1372(5) 0.2154(2)
C21F C 0.1789(7) 0.0711(7) 0.2693(2)
H19F H 0.2092(7) 0.0830(7) 0.2774(2)
H20F H 0.1459(7) 0.0676(7) 0.2771(2)
H21F H 0.1877(7) 0.0359(7) 0.2635(2)
C32O C 0.1752(4) 0.4070(4) 0.13491(14)
C31O C 0.2223(4) 0.4307(4) 0.12710(15)
C30O C 0.2205(5) 0.4602(5) 0.1100(2)
C29O C 0.1692(5) 0.4694(5) 0.1006(2)
C28O C 0.1217(4) 0.4456(4) 0.10879(14)
C33O C 0.1243(4) 0.4141(4) 0.12499(14)
H28O H 0.0923(4) 0.3969(4) 0.12967(14)
H25O H 0.1670(5) 0.4906(5) 0.0893(2)
H26O H 0.2531(5) 0.4740(5) 0.1046(2)
H27O H 0.2560(4) 0.4266(4) 0.13356(15)
C28F C 0.1956(4) 0.1283(4) 0.14121(14)
C29F C 0.2194(5) 0.0808(5) 0.1494(2)
H25F H 0.2406(5) 0.0830(5) 0.1607(2)
C30F C 0.2102(5) 0.0295(5) 0.1400(2)
H26F H 0.2240(5) -0.0031(5) 0.1454(2)
C31F C 0.1807(4) 0.0277(4) 0.12290(15)
H27F H 0.1766(4) -0.0060(4) 0.11644(15)
C32F C 0.1570(4) 0.0748(4) 0.11509(14)
C33F C 0.1641(4) 0.1257(4) 0.12501(14)
H28F H 0.1469(4) 0.1577(4) 0.12033(14)
C26F C 0.0000 0.2500 0.2017(2)
H24F H 0.0000 0.2500 0.1881(2)
H22F H 0.0834(5) 0.2561(5) 0.2386(2)
H23K H 0.0000 0.2500 0.2559(3)
C33K C -0.1641(4) 0.3743(4) 0.12501(14)
H28K H -0.1469(4) 0.3423(4) 0.12033(14)
H25K H -0.2406(5) 0.4170(5) 0.1607(2)
H26K H -0.2240(5) 0.5031(5) 0.1454(2)
H27K H -0.1766(4) 0.5060(4) 0.11644(15)
H22O H -0.0061(5) 0.3334(5) 0.0114(2)
Ga2 Ga -0.32523(5) 0.22978(5) -0.07495(2)
O7 O -0.3172(3) 0.1832(3) -0.05203(10)
O8 O -0.2915(3) 0.2948(3) -0.06269(10)
O9 O -0.2552(3) 0.2068(3) -0.08643(10)
O10 O -0.3993(3) 0.2424(3) -0.06294(10)
O11 O -0.3424(3) 0.2852(3) -0.09592(10)
O12 O -0.3545(3) 0.1717(3) -0.09285(10)
N4 N -0.3630(4) 0.1873(4) -0.04023(13)
N5 N -0.2909(4) 0.3375(4) -0.07630(12)
N6 N -0.2637(4) 0.1653(4) -0.09945(12)
C35 C -0.3632(5) 0.1481(5) -0.0244(2)
C36 C -0.3188(6) 0.1503(6) -0.0115(2)
H29 H -0.2906(6) 0.1763(6) -0.0132(2)
C37 C -0.3172(7) 0.1123(7) 0.0043(2)
H30 H -0.2906(7) 0.1151(7) 0.0141(2)
C38 C -0.3570(6) 0.0706(6) 0.0045(2)
C39 C -0.4008(6) 0.0720(6) -0.0079(2)
H31 H -0.4301(6) 0.0475(6) -0.0060(2)
C40 C -0.4030(5) 0.1084(5) -0.0231(2)
H32 H -0.4311(5) 0.1060(5) -0.0324(2)
C41 C -0.3521(9) 0.0287(8) 0.0219(3)
H33 H -0.3179(9) 0.0351(8) 0.0287(3)
H34 H -0.3526(9) -0.0086(8) 0.0169(3)
H35 H -0.3828(9) 0.0338(8) 0.0306(3)
C42 C -0.2661(5) 0.3881(5) -0.0689(2)
C43 C -0.2950(5) 0.4363(5) -0.0699(2)
H36 H -0.3306(5) 0.4371(5) -0.0752(2)
C44 C -0.2702(6) 0.4848(6) -0.0629(2)
H37 H -0.2891(6) 0.5184(6) -0.0637(2)
C45 C -0.2180(6) 0.4830(6) -0.0549(2)
C46 C -0.1915(6) 0.4357(6) -0.0538(2)
H38 H -0.1561(6) 0.4351(6) -0.0484(2)
C47 C -0.2143(6) 0.3861(6) -0.0606(2)
H39 H -0.1951(6) 0.3527(6) -0.0595(2)
C48 C -0.1928(7) 0.5378(7) -0.0470(2)
H40 H -0.2185(7) 0.5677(7) -0.0491(2)
H41 H -0.1587(7) 0.5456(7) -0.0538(2)
H42 H -0.1855(7) 0.5342(7) -0.0333(2)
C49 C -0.2165(5) 0.1449(5) -0.1095(2)
C50 C -0.2136(5) 0.1421(5) -0.1289(2)
H43 H -0.2434(5) 0.1543(5) -0.1364(2)
C51 C -0.1652(5) 0.1207(5) -0.1383(2)
H44 H -0.1633(5) 0.1176(5) -0.1518(2)
C52 C -0.1207(6) 0.1046(5) -0.1265(2)
C53 C -0.1241(5) 0.1085(5) -0.1071(2)
H45 H -0.0947(5) 0.0962(5) -0.0994(2)
C54 C -0.1714(5) 0.1308(5) -0.0981(2)
H46 H -0.1723(5) 0.1360(5) -0.0847(2)
C55 C -0.0701(7) 0.0793(7) -0.1364(2)
H47 H -0.0752(7) 0.0801(7) -0.1503(2)
H48 H -0.0656(7) 0.0415(7) -0.1322(2)
H49 H -0.0376(7) 0.1003(7) -0.1331(2)
C56 C -0.4036(5) 0.2211(5) -0.0464(2)
C57 C -0.4525(5) 0.2344(5) -0.0342(2)
C58 C -0.4527(5) 0.2345(5) -0.0145(2)
H50 H -0.4207(5) 0.2240(5) -0.0079(2)
C59 C -0.5000 0.2500 -0.0039(3)
H51 H -0.5000 0.2500 0.0097(3)
C60 C -0.5000 0.2500 -0.0439(2)
C61 C -0.3158(5) 0.1474(4) -0.1021(2)
C62 C -0.3291(4) 0.0997(4) -0.11460(15)
C63 C -0.3066(5) 0.0462(5) -0.1098(2)
H52 H -0.2809(5) 0.0424(5) -0.0998(2)
C64 C -0.3240(5) 0.0004(5) -0.1203(2)
H53 H -0.3124(5) -0.0349(5) -0.1167(2)
C65 C -0.3583(5) 0.0070(5) -0.1361(2)
H54 H -0.3675(5) -0.0235(5) -0.1438(2)
C66 C -0.3800(4) 0.0601(4) -0.14067(15)
C67 C -0.3656(4) 0.1054(4) -0.12975(14)
H55 H -0.3806(4) 0.1401(4) -0.13263(14)
C68 C -0.3148(4) 0.3305(4) -0.09315(15)
C68I C -0.4195(4) 0.0648(4) -0.15685(15)
O11I O -0.4648(3) 0.0924(3) -0.15408(10)
Ga2I Ga -0.52022(5) 0.07523(5) -0.17505(2)
O7I O -0.5668(3) 0.0672(3) -0.19797(10)
N4I N -0.5627(4) 0.1130(4) -0.20977(13)
C35I C -0.6019(5) 0.1132(5) -0.2256(2)
C36I C -0.5997(6) 0.0688(6) -0.2385(2)
H29I H -0.5737(6) 0.0406(6) -0.2368(2)
C37I C -0.6377(7) 0.0672(7) -0.2543(2)
H30I H -0.6349(7) 0.0406(7) -0.2641(2)
C38I C -0.6794(6) 0.1070(6) -0.2545(2)
C39I C -0.6780(6) 0.1508(6) -0.2421(2)
H31I H -0.7025(6) 0.1801(6) -0.2440(2)
C40I C -0.6416(5) 0.1530(5) -0.2269(2)
H32I H -0.6440(5) 0.1811(5) -0.2176(2)
C41I C -0.7213(8) 0.1021(9) -0.2719(3)
H33I H -0.7149(8) 0.0679(9) -0.2787(3)
H34I H -0.7586(8) 0.1026(9) -0.2669(3)
H35I H -0.7162(8) 0.1328(9) -0.2806(3)
C56I C -0.5289(5) 0.1536(5) -0.2036(2)
O10I O -0.5076(3) 0.1493(3) -0.18706(10)
O8I O -0.4552(3) 0.0415(3) -0.18731(10)
N5I N -0.4125(4) 0.0409(4) -0.17370(12)
C42I C -0.3619(5) 0.0161(5) -0.1811(2)
C43I C -0.3137(5) 0.0450(5) -0.1801(2)
H36I H -0.3129(5) 0.0806(5) -0.1748(2)
C44I C -0.2652(6) 0.0202(6) -0.1871(2)
H37I H -0.2316(6) 0.0391(6) -0.1863(2)
C45I C -0.2670(6) -0.0320(6) -0.1951(2)
C46I C -0.3143(6) -0.0585(6) -0.1962(2)
H38I H -0.3149(6) -0.0939(6) -0.2016(2)
C47I C -0.3639(6) -0.0357(6) -0.1894(2)
H39I H -0.3973(6) -0.0549(6) -0.1905(2)
C48I C -0.2122(7) -0.0572(7) -0.2030(2)
H40I H -0.1823(7) -0.0315(7) -0.2009(2)
H41I H -0.2044(7) -0.0913(7) -0.1962(2)
H42I H -0.2158(7) -0.0645(7) -0.2167(2)
O9I O -0.5432(3) 0.0052(3) -0.16357(10)
N6I N -0.5847(4) 0.0137(4) -0.15055(12)
C49I C -0.6051(5) -0.0335(5) -0.1405(2)
C50I C -0.6079(5) -0.0364(5) -0.1211(2)
H43I H -0.5957(5) -0.0066(5) -0.1136(2)
C51I C -0.6293(5) -0.0848(5) -0.1117(2)
H44I H -0.6324(5) -0.0867(5) -0.0982(2)
C52I C -0.6454(5) -0.1293(6) -0.1235(2)
C53I C -0.6415(5) -0.1259(5) -0.1429(2)
H45I H -0.6538(5) -0.1553(5) -0.1506(2)
C54I C -0.6192(5) -0.0786(5) -0.1519(2)
H46I H -0.6140(5) -0.0777(5) -0.1653(2)
C55I C -0.6707(7) -0.1799(7) -0.1136(2)
H47I H -0.6699(7) -0.1748(7) -0.0997(2)
H48I H -0.7085(7) -0.1844(7) -0.1178(2)
H49I H -0.6497(7) -0.2124(7) -0.1169(2)
C61I C -0.6026(4) 0.0658(5) -0.1479(2)
O12I O -0.5783(3) 0.1045(3) -0.15715(10)
C62I C -0.6503(4) 0.0791(4) -0.13540(15)
C63I C -0.7038(5) 0.0566(5) -0.1402(2)
H52I H -0.7076(5) 0.0309(5) -0.1502(2)
C64I C -0.7496(5) 0.0740(5) -0.1297(2)
H53I H -0.7849(5) 0.0624(5) -0.1333(2)
C65I C -0.7430(5) 0.1083(5) -0.1139(2)
H54I H -0.7735(5) 0.1175(5) -0.1062(2)
C66I C -0.6899(4) 0.1300(4) -0.10933(15)
C67I C -0.6446(4) 0.1156(4) -0.12025(14)
H55I H -0.6099(4) 0.1306(4) -0.11737(14)
C68O C -0.6852(4) 0.1695(4) -0.09315(15)
O11O O -0.6576(3) 0.2148(3) -0.09592(10)
Ga2O Ga -0.67477(5) 0.27022(5) -0.07495(2)
O7O O -0.6828(3) 0.3168(3) -0.05203(10)
N4O N -0.6370(4) 0.3127(4) -0.04023(13)
C35O C -0.6368(5) 0.3519(5) -0.0244(2)
C36O C -0.6812(6) 0.3497(6) -0.0115(2)
H29O H -0.7094(6) 0.3237(6) -0.0132(2)
C37O C -0.6828(7) 0.3877(7) 0.0043(2)
H30O H -0.7094(7) 0.3849(7) 0.0141(2)
C38O C -0.6430(6) 0.4294(6) 0.0045(2)
C39O C -0.5992(6) 0.4280(6) -0.0079(2)
H31O H -0.5699(6) 0.4525(6) -0.0060(2)
C40O C -0.5970(5) 0.3916(5) -0.0231(2)
H32O H -0.5689(5) 0.3940(5) -0.0324(2)
C41O C -0.6479(9) 0.4713(8) 0.0219(3)
H33O H -0.6821(9) 0.4649(8) 0.0287(3)
H34O H -0.6474(9) 0.5086(8) 0.0169(3)
H35O H -0.6172(9) 0.4662(8) 0.0306(3)
C56O C -0.5964(5) 0.2789(5) -0.0464(2)
O10O O -0.6007(3) 0.2576(3) -0.06294(10)
O8O O -0.7085(3) 0.2052(3) -0.06269(10)
N5O N -0.7091(4) 0.1625(4) -0.07630(12)
C42O C -0.7339(5) 0.1119(5) -0.0689(2)
C43O C -0.7050(5) 0.0637(5) -0.0699(2)
H36O H -0.6694(5) 0.0629(5) -0.0752(2)
C44O C -0.7298(6) 0.0152(6) -0.0629(2)
H37O H -0.7109(6) -0.0184(6) -0.0637(2)
C45O C -0.7820(6) 0.0170(6) -0.0549(2)
C46O C -0.8085(6) 0.0643(6) -0.0538(2)
H38O H -0.8439(6) 0.0649(6) -0.0484(2)
C47O C -0.7857(6) 0.1139(6) -0.0606(2)
H39O H -0.8049(6) 0.1473(6) -0.0595(2)
C48O C -0.8072(7) -0.0378(7) -0.0470(2)
H40O H -0.7815(7) -0.0677(7) -0.0491(2)
H41O H -0.8413(7) -0.0456(7) -0.0538(2)
H42O H -0.8145(7) -0.0342(7) -0.0333(2)
O9O O -0.7448(3) 0.2932(3) -0.08643(10)
N6O N -0.7363(4) 0.3347(4) -0.09945(12)
C49O C -0.7835(5) 0.3551(5) -0.1095(2)
C50O C -0.7864(5) 0.3579(5) -0.1289(2)
H43O H -0.7566(5) 0.3457(5) -0.1364(2)
C51O C -0.8348(5) 0.3793(5) -0.1383(2)
H44O H -0.8367(5) 0.3824(5) -0.1518(2)
C52O C -0.8793(6) 0.3954(5) -0.1265(2)
C53O C -0.8759(5) 0.3915(5) -0.1071(2)
H45O H -0.9053(5) 0.4038(5) -0.0994(2)
C54O C -0.8286(5) 0.3692(5) -0.0981(2)
H46O H -0.8277(5) 0.3640(5) -0.0847(2)
C55O C -0.9299(7) 0.4207(7) -0.1364(2)
H47O H -0.9248(7) 0.4199(7) -0.1503(2)
H48O H -0.9344(7) 0.4585(7) -0.1322(2)
H49O H -0.9624(7) 0.3997(7) -0.1331(2)
C61O C -0.6842(5) 0.3526(4) -0.1021(2)
O12O O -0.6455(3) 0.3283(3) -0.09285(10)
C62O C -0.6709(4) 0.4003(4) -0.11460(15)
C63O C -0.6934(5) 0.4538(5) -0.1098(2)
H52O H -0.7191(5) 0.4576(5) -0.0998(2)
C64O C -0.6760(5) 0.4996(5) -0.1203(2)
H53O H -0.6876(5) 0.5349(5) -0.1167(2)
C65O C -0.6417(5) 0.4930(5) -0.1361(2)
H54O H -0.6325(5) 0.5235(5) -0.1438(2)
C66O C -0.6200(4) 0.4399(4) -0.14067(15)
C67O C -0.6344(4) 0.3946(4) -0.12975(14)
H55O H -0.6194(4) 0.3599(4) -0.13263(14)
C68L C -0.5805(4) 0.4352(4) -0.15685(15)
O11L O -0.5352(3) 0.4076(3) -0.15408(10)
Ga2L Ga -0.47978(5) 0.42477(5) -0.17505(2)
O7L O -0.4332(3) 0.4328(3) -0.19797(10)
N4L N -0.4373(4) 0.3870(4) -0.20977(13)
C35L C -0.3981(5) 0.3868(5) -0.2256(2)
C36L C -0.4003(6) 0.4312(6) -0.2385(2)
H29L H -0.4263(6) 0.4594(6) -0.2368(2)
C37L C -0.3623(7) 0.4328(7) -0.2543(2)
H30L H -0.3651(7) 0.4594(7) -0.2641(2)
C38L C -0.3206(6) 0.3930(6) -0.2545(2)
C39L C -0.3220(6) 0.3492(6) -0.2421(2)
H31L H -0.2975(6) 0.3199(6) -0.2440(2)
C40L C -0.3584(5) 0.3470(5) -0.2269(2)
H32L H -0.3560(5) 0.3189(5) -0.2176(2)
C41L C -0.2787(8) 0.3979(9) -0.2719(3)
H33L H -0.2851(8) 0.4321(9) -0.2787(3)
H34L H -0.2414(8) 0.3974(9) -0.2669(3)
H35L H -0.2838(8) 0.3672(9) -0.2806(3)
C56L C -0.4711(5) 0.3464(5) -0.2036(2)
O10L O -0.4924(3) 0.3507(3) -0.18706(10)
O8L O -0.5448(3) 0.4585(3) -0.18731(10)
N5L N -0.5875(4) 0.4591(4) -0.17370(12)
C42L C -0.6381(5) 0.4839(5) -0.1811(2)
C43L C -0.6863(5) 0.4550(5) -0.1801(2)
H36L H -0.6871(5) 0.4194(5) -0.1748(2)
C44L C -0.7348(6) 0.4798(6) -0.1871(2)
H37L H -0.7684(6) 0.4609(6) -0.1863(2)
C45L C -0.7330(6) 0.5320(6) -0.1951(2)
C46L C -0.6857(6) 0.5585(6) -0.1962(2)
H38L H -0.6851(6) 0.5939(6) -0.2016(2)
C47L C -0.6361(6) 0.5357(6) -0.1894(2)
H39L H -0.6027(6) 0.5549(6) -0.1905(2)
C48L C -0.7878(7) 0.5572(7) -0.2030(2)
H40L H -0.8177(7) 0.5315(7) -0.2009(2)
H41L H -0.7956(7) 0.5913(7) -0.1962(2)
H42L H -0.7842(7) 0.5645(7) -0.2167(2)
O9L O -0.4568(3) 0.4948(3) -0.16357(10)
N6L N -0.4153(4) 0.4863(4) -0.15055(12)
C49L C -0.3949(5) 0.5335(5) -0.1405(2)
C50L C -0.3921(5) 0.5364(5) -0.1211(2)
H43L H -0.4043(5) 0.5066(5) -0.1136(2)
C51L C -0.3707(5) 0.5848(5) -0.1117(2)
H44L H -0.3676(5) 0.5867(5) -0.0982(2)
C52L C -0.3546(5) 0.6293(6) -0.1235(2)
C53L C -0.3585(5) 0.6259(5) -0.1429(2)
H45L H -0.3462(5) 0.6553(5) -0.1506(2)
C54L C -0.3808(5) 0.5786(5) -0.1519(2)
H46L H -0.3860(5) 0.5777(5) -0.1653(2)
C55L C -0.3293(7) 0.6799(7) -0.1136(2)
H47L H -0.3301(7) 0.6748(7) -0.0997(2)
H48L H -0.2915(7) 0.6844(7) -0.1178(2)
H49L H -0.3503(7) 0.7124(7) -0.1169(2)
C61L C -0.3974(4) 0.4342(5) -0.1479(2)
O12L O -0.4217(3) 0.3955(3) -0.15715(10)
C62L C -0.3497(4) 0.4209(4) -0.13540(15)
C63L C -0.2962(5) 0.4434(5) -0.1402(2)
H52L H -0.2924(5) 0.4691(5) -0.1502(2)
C64L C -0.2504(5) 0.4260(5) -0.1297(2)
H53L H -0.2151(5) 0.4376(5) -0.1333(2)
C65L C -0.2570(5) 0.3917(5) -0.1139(2)
H54L H -0.2265(5) 0.3825(5) -0.1062(2)
C66L C -0.3101(4) 0.3700(4) -0.10933(15)
C67L C -0.3554(4) 0.3844(4) -0.12025(14)
H55L H -0.3901(4) 0.3694(4) -0.11737(14)
C57L C -0.4844(5) 0.2975(5) -0.2158(2)
C58L C -0.4845(5) 0.2973(5) -0.2355(2)
H50L H -0.4740(5) 0.3293(5) -0.2421(2)
C59L C -0.5000 0.2500 -0.2461(3)
C58I C -0.5155(5) 0.2027(5) -0.2355(2)
C57I C -0.5156(5) 0.2025(5) -0.2158(2)
C60I C -0.5000 0.2500 -0.2061(2)
H50I H -0.5260(5) 0.1707(5) -0.2421(2)
H51L H -0.5000 0.2500 -0.2597(3)
C57O C -0.5475(5) 0.2656(5) -0.0342(2)
C58O C -0.5473(5) 0.2655(5) -0.0145(2)
H50O H -0.5793(5) 0.2760(5) -0.0079(2)
O13 O -0.1847(7) 0.3042(6) 0.0756(2)
N7 N -0.1341(6) 0.2474(5) 0.0944(2)
C69 C -0.1401(9) 0.2887(8) 0.0809(3)
H56 H -0.1085(9) 0.3052(8) 0.0757(3)
C70 C -0.0817(8) 0.2340(8) 0.1023(3)
H57 H -0.0857(8) 0.2042(8) 0.1115(3)
H58 H -0.0666(8) 0.2660(8) 0.1088(3)
H59 H -0.0571(8) 0.2228(8) 0.0920(3)
C71 C -0.1832(9) 0.2185(9) 0.1023(3)
H60 H -0.1714(9) 0.1909(9) 0.1116(3)
H61 H -0.2030(9) 0.2008(9) 0.0919(3)
H62 H -0.2070(9) 0.2448(9) 0.1087(3)
O14 O -0.0823(5) -0.0926(4) -0.0116(2)
N8 N -0.1732(5) -0.0963(5) -0.0163(2)
C72 C -0.1212(7) -0.1023(7) -0.0225(2)
H63 H -0.1145(7) -0.1140(7) -0.0353(2)
C73 C -0.2181(8) -0.1094(8) -0.0293(3)
H64 H -0.2529(8) -0.1030(8) -0.0228(3)
H65 H -0.2157(8) -0.1477(8) -0.0331(3)
H66 H -0.2158(8) -0.0862(8) -0.0407(3)
C74 C -0.1886(7) -0.0800(7) 0.0026(2)
H67 H -0.2284(7) -0.0787(7) 0.0035(2)
H68 H -0.1736(7) -0.0439(7) 0.0053(2)
H69 H -0.1745(7) -0.1063(7) 0.0118(2)
O15 O -0.1021(5) 0.1151(5) -0.0587(2)
N9 N -0.0197(4) 0.1127(4) -0.04307(13)
C75 C -0.0589(6) 0.0923(6) -0.0535(2)
H70 H -0.0540(6) 0.0558(6) -0.0576(2)
C76 C 0.0266(6) 0.0806(6) -0.0360(2)
H71 H 0.0509(6) 0.1040(6) -0.0286(2)
H72 H 0.0465(6) 0.0652(6) -0.0469(2)
H73 H 0.0131(6) 0.0510(6) -0.0279(2)
C77 C -0.0278(8) 0.1658(7) -0.0336(3)
H74 H 0.0050(8) 0.1755(7) -0.0264(3)
H75 H -0.0588(8) 0.1634(7) -0.0249(3)
H76 H -0.0350(8) 0.1937(7) -0.0433(3)
O16 O -0.5634(6) 0.0750(6) -0.0718(2)
N10 N -0.5118(6) 0.1214(6) -0.0931(2)
C78 C -0.5485(8) 0.1190(9) -0.0791(3)
H77 H -0.5638(8) 0.1520(9) -0.0745(3)
C79 C -0.4992(8) 0.1733(8) -0.1020(3)
H78 H -0.4717(8) 0.1679(8) -0.1120(3)
H79 H -0.4851(8) 0.1984(8) -0.0923(3)
H80 H -0.5323(8) 0.1886(8) -0.1077(3)
C80 C -0.4848(8) 0.0703(8) -0.1008(3)
H81 H -0.4593(8) 0.0801(8) -0.1110(3)
H82 H -0.5127(8) 0.0457(8) -0.1059(3)
H83 H -0.4651(8) 0.0520(8) -0.0905(3)
C81? C 0.0000 0.2500 -0.0995(4)
C82? C 0.0240(17) 0.2841(16) -0.0814(6)
C83? C 0.0986(11) 0.1940(11) -0.0531(4)
C84? C 0.1168(22) 0.1948(22) -0.0339(8)
C85? C 0.1342(14) 0.2256(14) -0.0158(5)
C86? C 0.1531(17) 0.2325(17) -0.0062(6)
C87? C 0.1784(17) 0.2412(14) -0.0222(6)
C88? C 0.1605(10) 0.2436(10) -0.0338(4)
C89? C 0.1446(18) 0.2448(18) -0.0526(6)
C90? C 0.1807(14) 0.2732(15) -0.0438(5)
C91? C 0.2279(17) 0.2394(16) -0.0222(6)
C92? C 0.2461(15) 0.2187(14) -0.0055(5)
C93? C 0.2997(12) 0.2001(11) -0.0008(4)
C94? C 0.3710(15) 0.1447(15) -0.0140(5)
C95? C 0.3580(19) 0.1365(17) -0.0294(6)
C96? C 0.3222(15) -0.1307(15) -0.0598(5)
C97? C 0.3934(17) 0.1311(14) -0.0328(5)
C98? C 0.3930(15) 0.1153(15) -0.0131(5)
C99? C 0.3153(20) -0.2483(22) -0.0453(7)
C100? C 0.2947(26) -0.2004(27) -0.0516(8)
C101? C 0.2515(21) -0.2173(20) -0.0418(7)
C102? C 0.3237(28) -0.2876(28) -0.0622(10)
C103? C 0.3807(14) 0.1230(14) 0.0057(5)
C104? C 0.3757(23) -0.1049(22) -0.0596(7)
C105? C 0.4264(45) -0.0646(42) -0.0600(14)
C106? C 0.4919(34) -0.0745(31) -0.0611(11)
C107? C 0.4742(20) -0.0718(21) -0.0448(7)
C108? C 0.5007(15) -0.0384(16) -0.0424(5)
C109? C 0.4978(32) -0.0173(31) -0.0307(11)
C110? C 0.4817(20) -0.1288(21) -0.0366(6)
C111? C 0.4556(23) 0.0710(23) -0.0120(8)
C112? C 0.4241(23) -0.3656(23) -0.0747(8)
C113? C 0.0000 0.2500 -0.1317(5)
C114? C 0.0153(16) 0.2776(16) -0.1168(6)
C115? C 0.0334(24) 0.2943(24) -0.0970(9)
C116? C 0.3322(17) 0.1766(17) -0.0156(5)
loop_
_geom_bond_atom_site_label_1
_geom_bond_atom_site_label_2
_geom_bond_site_symmetry_1
_geom_bond_site_symmetry_2
Ga1 O1 1_555 1_555
Ga2 O7 1_555 1_555
O1 N1 1_555 1_555
O2 Ga1 1_555 1_555
O3 Ga1 1_555 1_555
O4 Ga1 1_555 1_555
O5 Ga1 1_555 1_555
O6 Ga1 1_555 1_555
O7 N4 1_555 1_555
O8 Ga2 1_555 1_555
O9 Ga2 1_555 1_555
O10 Ga2 1_555 1_555
O11 Ga2 1_555 1_555
O12 Ga2 1_555 1_555
O13 C69 1_555 1_555
O14 C72 1_555 1_555
O15 C75 1_555 1_555
O16 C78 1_555 1_555
N1 C1 1_555 1_555
N2 O2 1_555 1_555
N3 O3 1_555 1_555
N4 C35 1_555 1_555
N5 O8 1_555 1_555
N6 O9 1_555 1_555
N7 C69 1_555 1_555
N8 C72 1_555 1_555
N9 C75 1_555 1_555
N10 C78 1_555 1_555
C1 C2 1_555 1_555
C2 H1 1_555 1_555
C3 C2 1_555 1_555
H2 C3 1_555 1_555
C4 C3 1_555 1_555
C5 C4 1_555 1_555
H3 C5 1_555 1_555
C6 C1 1_555 1_555
H4 C6 1_555 1_555
C7 C4 1_555 1_555
H5 C7 1_555 1_555
H6 C7 1_555 1_555
H7 C7 1_555 1_555
C8 N2 1_555 1_555
C9 C8 1_555 1_555
H8 C9 1_555 1_555
C10 C9 1_555 1_555
H9 C10 1_555 1_555
C11 C10 1_555 1_555
C12 C11 1_555 1_555
H10 C12 1_555 1_555
C13 C8 1_555 1_555
H11 C13 1_555 1_555
C14 C11 1_555 1_555
H12 C14 1_555 1_555
H13 C14 1_555 1_555
H14 C14 1_555 1_555
C15 N3 1_555 1_555
C16 C15 1_555 1_555
H15 C16 1_555 1_555
C17 C16 1_555 1_555
H16 C17 1_555 1_555
C18 C17 1_555 1_555
C19 C18 1_555 1_555
H17 C19 1_555 1_555
C20 C15 1_555 1_555
H18 C20 1_555 1_555
C21 C18 1_555 1_555
H19 C21 1_555 1_555
H20 C21 1_555 1_555
H21 C21 1_555 1_555
C22 O6 1_555 1_555
C23 C22 1_555 1_555
C24 C23 1_555 1_555
H22 C24 1_555 1_555
C25 C24 1_555 1_555
H23 C25 1_555 1_555
C26 C23 1_555 1_555
H24 C26 1_555 1_555
C27 O4 1_555 1_555
C28 C27 1_555 1_555
C29 C28 1_555 1_555
H25 C29 1_555 1_555
C30 C29 1_555 1_555
H26 C30 1_555 1_555
C31 C30 1_555 1_555
H27 C31 1_555 1_555
C32 C31 1_555 1_555
C33 C28 1_555 1_555
H28 C33 1_555 1_555
C34 O5 1_555 1_555
C35 C36 1_555 1_555
C36 H29 1_555 1_555
C37 C36 1_555 1_555
H30 C37 1_555 1_555
C38 C37 1_555 1_555
C39 C38 1_555 1_555
H31 C39 1_555 1_555
C40 C35 1_555 1_555
H32 C40 1_555 1_555
C41 C38 1_555 1_555
H33 C41 1_555 1_555
H34 C41 1_555 1_555
H35 C41 1_555 1_555
C42 N5 1_555 1_555
C43 C42 1_555 1_555
H36 C43 1_555 1_555
C44 C43 1_555 1_555
H37 C44 1_555 1_555
C45 C44 1_555 1_555
C46 C45 1_555 1_555
H38 C46 1_555 1_555
C47 C42 1_555 1_555
H39 C47 1_555 1_555
C48 C45 1_555 1_555
H40 C48 1_555 1_555
H41 C48 1_555 1_555
H42 C48 1_555 1_555
C49 N6 1_555 1_555
C50 C49 1_555 1_555
H43 C50 1_555 1_555
C51 C50 1_555 1_555
H44 C51 1_555 1_555
C52 C51 1_555 1_555
C53 C52 1_555 1_555
H45 C53 1_555 1_555
C54 C49 1_555 1_555
H46 C54 1_555 1_555
C55 C52 1_555 1_555
H47 C55 1_555 1_555
H48 C55 1_555 1_555
H49 C55 1_555 1_555
C56 O10 1_555 1_555
C57 C56 1_555 1_555
C58 C57 1_555 1_555
H50 C58 1_555 1_555
C59 C58 1_555 1_555
H51 C59 1_555 1_555
C60 C57 1_555 1_555
C61 O12 1_555 1_555
C62 C61 1_555 1_555
C63 C62 1_555 1_555
H52 C63 1_555 1_555
C64 C63 1_555 1_555
H53 C64 1_555 1_555
C65 C64 1_555 1_555
H54 C65 1_555 1_555
C66 C65 1_555 1_555
C67 C62 1_555 1_555
H55 C67 1_555 1_555
C68 O11 1_555 1_555
C69 H56 1_555 1_555
C70 N7 1_555 1_555
H57 C70 1_555 1_555
H58 C70 1_555 1_555
H59 C70 1_555 1_555
C71 N7 1_555 1_555
H60 C71 1_555 1_555
H61 C71 1_555 1_555
H62 C71 1_555 1_555
C72 H63 1_555 1_555
C73 N8 1_555 1_555
H64 C73 1_555 1_555
H65 C73 1_555 1_555
H66 C73 1_555 1_555
C74 N8 1_555 1_555
H67 C74 1_555 1_555
H68 C74 1_555 1_555
H69 C74 1_555 1_555
C75 H70 1_555 1_555
C76 N9 1_555 1_555
H71 C76 1_555 1_555
H72 C76 1_555 1_555
H73 C76 1_555 1_555
C77 N9 1_555 1_555
H74 C77 1_555 1_555
H75 C77 1_555 1_555
H76 C77 1_555 1_555
C78 H77 1_555 1_555
C79 N10 1_555 1_555
H78 C79 1_555 1_555
H79 C79 1_555 1_555
H80 C79 1_555 1_555
C80 N10 1_555 1_555
H81 C80 1_555 1_555
H82 C80 1_555 1_555
H83 C80 1_555 1_555
C24O C25 1_555 1_555
C23O C26 1_555 1_555
C22O C23O 1_555 1_555
O6O C22O 1_555 1_555
Ga1O O6O 1_555 1_555
O1O Ga1O 1_555 1_555
N1O O1O 1_555 1_555
C1O N1O 1_555 1_555
C2O C1O 1_555 1_555
H1O C2O 1_555 1_555
C3O C2O 1_555 1_555
H2O C3O 1_555 1_555
C4O C3O 1_555 1_555
C5O C4O 1_555 1_555
H3O C5O 1_555 1_555
C6O C1O 1_555 1_555
H4O C6O 1_555 1_555
C7O C4O 1_555 1_555
H5O C7O 1_555 1_555
H6O C7O 1_555 1_555
H7O C7O 1_555 1_555
C27O N1O 1_555 1_555
O4O Ga1O 1_555 1_555
O2O Ga1O 1_555 1_555
N2O O2O 1_555 1_555
C8O N2O 1_555 1_555
C9O C8O 1_555 1_555
H8O C9O 1_555 1_555
C10O C9O 1_555 1_555
H9O C10O 1_555 1_555
C11O C10O 1_555 1_555
C12O C11O 1_555 1_555
H10O C12O 1_555 1_555
C13O C8O 1_555 1_555
H11O C13O 1_555 1_555
C14O C11O 1_555 1_555
H12O C14O 1_555 1_555
H13O C14O 1_555 1_555
H14O C14O 1_555 1_555
C34O N2O 1_555 1_555
O5O Ga1O 1_555 1_555
O3O Ga1O 1_555 1_555
N3O C22O 1_555 1_555
C15O N3O 1_555 1_555
C16O C15O 1_555 1_555
H15O C16O 1_555 1_555
C17O C16O 1_555 1_555
H16O C17O 1_555 1_555
C18O C17O 1_555 1_555
C19O C18O 1_555 1_555
H17O C19O 1_555 1_555
C20O C15O 1_555 1_555
H18O C20O 1_555 1_555
C21O C18O 1_555 1_555
H19O C21O 1_555 1_555
H20O C21O 1_555 1_555
H21O C21O 1_555 1_555
C32K C34O 1_555 1_555
C31K C32K 1_555 1_555
C30K C31K 1_555 1_555
C29K C30K 1_555 1_555
C28K C29K 1_555 1_555
C27K C28K 1_555 1_555
O4K C27K 1_555 1_555
Ga1K O4K 1_555 1_555
O1K Ga1K 1_555 1_555
N1K C27K 1_555 1_555
C1K N1K 1_555 1_555
C2K C1K 1_555 1_555
H1K C2K 1_555 1_555
C3K C2K 1_555 1_555
H2K C3K 1_555 1_555
C4K C3K 1_555 1_555
C5K C4K 1_555 1_555
H3K C5K 1_555 1_555
C6K C1K 1_555 1_555
H4K C6K 1_555 1_555
C7K C4K 1_555 1_555
H5K C7K 1_555 1_555
H6K C7K 1_555 1_555
H7K C7K 1_555 1_555
O2K Ga1K 1_555 1_555
N2K O2K 1_555 1_555
C8K N2K 1_555 1_555
C9K C8K 1_555 1_555
H8K C9K 1_555 1_555
C10K C9K 1_555 1_555
H9K C10K 1_555 1_555
C11K C10K 1_555 1_555
C12K C11K 1_555 1_555
H10K C12K 1_555 1_555
C13K C8K 1_555 1_555
H11K C13K 1_555 1_555
C14K C11K 1_555 1_555
H12K C14K 1_555 1_555
H13K C14K 1_555 1_555
H14K C14K 1_555 1_555
C34K C32 1_555 1_555
O5K Ga1K 1_555 1_555
O3K Ga1K 1_555 1_555
N3K O3K 1_555 1_555
C15K N3K 1_555 1_555
C16K C15K 1_555 1_555
H15K C16K 1_555 1_555
C17K C16K 1_555 1_555
H16K C17K 1_555 1_555
C18K C17K 1_555 1_555
C19K C18K 1_555 1_555
H17K C19K 1_555 1_555
C20K C15K 1_555 1_555
H18K C20K 1_555 1_555
C21K C18K 1_555 1_555
H19K C21K 1_555 1_555
H20K C21K 1_555 1_555
H21K C21K 1_555 1_555
C22K N3K 1_555 1_555
O6K Ga1K 1_555 1_555
C23K C22K 1_555 1_555
C24K C23K 1_555 1_555
H22K C24K 1_555 1_555
C25K C24K 1_555 1_555
C24F C25K 1_555 1_555
C23F C24F 1_555 1_555
C22F C23F 1_555 1_555
O6F C22F 1_555 1_555
Ga1F O6F 1_555 1_555
O1F Ga1F 1_555 1_555
N1F O1F 1_555 1_555
C1F N1F 1_555 1_555
C2F C1F 1_555 1_555
H1F C2F 1_555 1_555
C3F C2F 1_555 1_555
H2F C3F 1_555 1_555
C4F C3F 1_555 1_555
C5F C4F 1_555 1_555
H3F C5F 1_555 1_555
C6F C1F 1_555 1_555
H4F C6F 1_555 1_555
C7F C4F 1_555 1_555
H5F C7F 1_555 1_555
H6F C7F 1_555 1_555
H7F C7F 1_555 1_555
C27F N1F 1_555 1_555
O4F Ga1F 1_555 1_555
O2F Ga1F 1_555 1_555
N2F O2F 1_555 1_555
C8F N2F 1_555 1_555
C9F C8F 1_555 1_555
H8F C9F 1_555 1_555
C10F C9F 1_555 1_555
H9F C10F 1_555 1_555
C11F C10F 1_555 1_555
C12F C11F 1_555 1_555
H10F C12F 1_555 1_555
C13F C8F 1_555 1_555
H11F C13F 1_555 1_555
C14F C11F 1_555 1_555
H12F C14F 1_555 1_555
H13F C14F 1_555 1_555
H14F C14F 1_555 1_555
C34F N2F 1_555 1_555
O5F Ga1F 1_555 1_555
O3F Ga1F 1_555 1_555
N3F C22F 1_555 1_555
C15F N3F 1_555 1_555
C16F C15F 1_555 1_555
H15F C16F 1_555 1_555
C17F C16F 1_555 1_555
H16F C17F 1_555 1_555
C18F C17F 1_555 1_555
C19F C18F 1_555 1_555
H17F C19F 1_555 1_555
C20F C15F 1_555 1_555
H18F C20F 1_555 1_555
C21F C18F 1_555 1_555
H19F C21F 1_555 1_555
H20F C21F 1_555 1_555
H21F C21F 1_555 1_555
C32O C34F 1_555 1_555
C31O C32O 1_555 1_555
C30O C31O 1_555 1_555
C29O C30O 1_555 1_555
C28O C27O 1_555 1_555
C33O C32O 1_555 1_555
H28O C33O 1_555 1_555
H25O C29O 1_555 1_555
H26O C30O 1_555 1_555
H27O C31O 1_555 1_555
C28F C27F 1_555 1_555
C29F C28F 1_555 1_555
H25F C29F 1_555 1_555
C30F C29F 1_555 1_555
H26F C30F 1_555 1_555
C31F C30F 1_555 1_555
H27F C31F 1_555 1_555
C32F C34 1_555 1_555
C33F C28F 1_555 1_555
H28F C33F 1_555 1_555
C26F C23K 1_555 1_555
H24F C26F 1_555 1_555
H22F C24F 1_555 1_555
H23K C25K 1_555 1_555
C33K C32K 1_555 1_555
H28K C33K 1_555 1_555
H25K C29K 1_555 1_555
H26K C30K 1_555 1_555
H27K C31K 1_555 1_555
H22O C24O 1_555 1_555
C68I C66 1_555 1_555
O11I C68I 1_555 1_555
Ga2I O11I 1_555 1_555
O7I Ga2I 1_555 1_555
N4I O7I 1_555 1_555
C35I N4I 1_555 1_555
C36I C35I 1_555 1_555
H29I C36I 1_555 1_555
C37I C36I 1_555 1_555
H30I C37I 1_555 1_555
C38I C37I 1_555 1_555
C39I C38I 1_555 1_555
H31I C39I 1_555 1_555
C40I C35I 1_555 1_555
H32I C40I 1_555 1_555
C41I C38I 1_555 1_555
H33I C41I 1_555 1_555
H34I C41I 1_555 1_555
H35I C41I 1_555 1_555
C56I N4I 1_555 1_555
O10I Ga2I 1_555 1_555
O8I Ga2I 1_555 1_555
N5I C68I 1_555 1_555
C42I N5I 1_555 1_555
C43I C42I 1_555 1_555
H36I C43I 1_555 1_555
C44I C43I 1_555 1_555
H37I C44I 1_555 1_555
C45I C44I 1_555 1_555
C46I C45I 1_555 1_555
H38I C46I 1_555 1_555
C47I C42I 1_555 1_555
H39I C47I 1_555 1_555
C48I C45I 1_555 1_555
H40I C48I 1_555 1_555
H41I C48I 1_555 1_555
H42I C48I 1_555 1_555
O9I Ga2I 1_555 1_555
N6I O9I 1_555 1_555
C49I N6I 1_555 1_555
C50I C49I 1_555 1_555
H43I C50I 1_555 1_555
C51I C50I 1_555 1_555
H44I C51I 1_555 1_555
C52I C51I 1_555 1_555
C53I C52I 1_555 1_555
H45I C53I 1_555 1_555
C54I C49I 1_555 1_555
H46I C54I 1_555 1_555
C55I C52I 1_555 1_555
H47I C55I 1_555 1_555
H48I C55I 1_555 1_555
H49I C55I 1_555 1_555
C61I N6I 1_555 1_555
O12I Ga2I 1_555 1_555
C62I C61I 1_555 1_555
C63I C62I 1_555 1_555
H52I C63I 1_555 1_555
C64I C63I 1_555 1_555
H53I C64I 1_555 1_555
C65I C64I 1_555 1_555
H54I C65I 1_555 1_555
C66I C65I 1_555 1_555
C67I C62I 1_555 1_555
H55I C67I 1_555 1_555
C68O C66I 1_555 1_555
O11O C68O 1_555 1_555
Ga2O O11O 1_555 1_555
O7O Ga2O 1_555 1_555
N4O O7O 1_555 1_555
C35O N4O 1_555 1_555
C36O C35O 1_555 1_555
H29O C36O 1_555 1_555
C37O C36O 1_555 1_555
H30O C37O 1_555 1_555
C38O C37O 1_555 1_555
C39O C38O 1_555 1_555
H31O C39O 1_555 1_555
C40O C35O 1_555 1_555
H32O C40O 1_555 1_555
C41O C38O 1_555 1_555
H33O C41O 1_555 1_555
H34O C41O 1_555 1_555
H35O C41O 1_555 1_555
C56O N4O 1_555 1_555
O10O Ga2O 1_555 1_555
O8O Ga2O 1_555 1_555
N5O C68O 1_555 1_555
C42O N5O 1_555 1_555
C43O C42O 1_555 1_555
H36O C43O 1_555 1_555
C44O C43O 1_555 1_555
H37O C44O 1_555 1_555
C45O C44O 1_555 1_555
C46O C45O 1_555 1_555
H38O C46O 1_555 1_555
C47O C42O 1_555 1_555
H39O C47O 1_555 1_555
C48O C45O 1_555 1_555
H40O C48O 1_555 1_555
H41O C48O 1_555 1_555
H42O C48O 1_555 1_555
O9O Ga2O 1_555 1_555
N6O O9O 1_555 1_555
C49O N6O 1_555 1_555
C50O C49O 1_555 1_555
H43O C50O 1_555 1_555
C51O C50O 1_555 1_555
H44O C51O 1_555 1_555
C52O C51O 1_555 1_555
C53O C52O 1_555 1_555
H45O C53O 1_555 1_555
C54O C49O 1_555 1_555
H46O C54O 1_555 1_555
C55O C52O 1_555 1_555
H47O C55O 1_555 1_555
H48O C55O 1_555 1_555
H49O C55O 1_555 1_555
C61O N6O 1_555 1_555
O12O Ga2O 1_555 1_555
C62O C61O 1_555 1_555
C63O C62O 1_555 1_555
H52O C63O 1_555 1_555
C64O C63O 1_555 1_555
H53O C64O 1_555 1_555
C65O C64O 1_555 1_555
H54O C65O 1_555 1_555
C66O C65O 1_555 1_555
C67O C62O 1_555 1_555
H55O C67O 1_555 1_555
C68L C66O 1_555 1_555
O11L C68L 1_555 1_555
Ga2L O11L 1_555 1_555
O7L Ga2L 1_555 1_555
N4L O7L 1_555 1_555
C35L N4L 1_555 1_555
C36L C35L 1_555 1_555
H29L C36L 1_555 1_555
C37L C36L 1_555 1_555
H30L C37L 1_555 1_555
C38L C37L 1_555 1_555
C39L C38L 1_555 1_555
H31L C39L 1_555 1_555
C40L C35L 1_555 1_555
H32L C40L 1_555 1_555
C41L C38L 1_555 1_555
H33L C41L 1_555 1_555
H34L C41L 1_555 1_555
H35L C41L 1_555 1_555
C56L N4L 1_555 1_555
O10L Ga2L 1_555 1_555
O8L Ga2L 1_555 1_555
N5L C68L 1_555 1_555
C42L N5L 1_555 1_555
C43L C42L 1_555 1_555
H36L C43L 1_555 1_555
C44L C43L 1_555 1_555
H37L C44L 1_555 1_555
C45L C44L 1_555 1_555
C46L C45L 1_555 1_555
H38L C46L 1_555 1_555
C47L C42L 1_555 1_555
H39L C47L 1_555 1_555
C48L C45L 1_555 1_555
H40L C48L 1_555 1_555
H41L C48L 1_555 1_555
H42L C48L 1_555 1_555
O9L Ga2L 1_555 1_555
N6L O9L 1_555 1_555
C49L N6L 1_555 1_555
C50L C49L 1_555 1_555
H43L C50L 1_555 1_555
C51L C50L 1_555 1_555
H44L C51L 1_555 1_555
C52L C51L 1_555 1_555
C53L C52L 1_555 1_555
H45L C53L 1_555 1_555
C54L C49L 1_555 1_555
H46L C54L 1_555 1_555
C55L C52L 1_555 1_555
H47L C55L 1_555 1_555
H48L C55L 1_555 1_555
H49L C55L 1_555 1_555
C61L N6L 1_555 1_555
O12L Ga2L 1_555 1_555
C62L C61L 1_555 1_555
C63L C62L 1_555 1_555
H52L C63L 1_555 1_555
C64L C63L 1_555 1_555
H53L C64L 1_555 1_555
C65L C64L 1_555 1_555
H54L C65L 1_555 1_555
C66L C68 1_555 1_555
C67L C62L 1_555 1_555
H55L C67L 1_555 1_555
C57L C56L 1_555 1_555
C58L C57L 1_555 1_555
H50L C58L 1_555 1_555
C59L C58L 1_555 1_555
C58I C59L 1_555 1_555
C57I C56I 1_555 1_555
C60I C57L 1_555 1_555
H50I C58I 1_555 1_555
H51L C59L 1_555 1_555
C57O C60 1_555 1_555
C58O C59 1_555 1_555
H50O C58O 1_555 1_555
N1 C27 1_555 1_555
N2 C34 1_555 1_555
N3 C22 1_555 1_555
N4 C56 1_555 1_555
N5 C68 1_555 1_555
N6 C61 1_555 1_555
C5 C6 1_555 1_555
C12 C13 1_555 1_555
C19 C20 1_555 1_555
C32 C33 1_555 1_555
C39 C40 1_555 1_555
C46 C47 1_555 1_555
C53 C54 1_555 1_555
C66 C67 1_555 1_555
C24O C23O 1_555 1_555
C5O C6O 1_555 1_555
C27O O4O 1_555 1_555
C12O C13O 1_555 1_555
C34O O5O 1_555 1_555
O3O N3O 1_555 1_555
C19O C20O 1_555 1_555
C28K C33K 1_555 1_555
O1K N1K 1_555 1_555
C5K C6K 1_555 1_555
N2K C34K 1_555 1_555
C12K C13K 1_555 1_555
C34K O5K 1_555 1_555
C19K C20K 1_555 1_555
C22K O6K 1_555 1_555
C23F C26F 1_555 1_555
C5F C6F 1_555 1_555
C27F O4F 1_555 1_555
C12F C13F 1_555 1_555
C34F O5F 1_555 1_555
O3F N3F 1_555 1_555
C19F C20F 1_555 1_555
C29O C28O 1_555 1_555
C28O C33O 1_555 1_555
C31F C32F 1_555 1_555
C32F C33F 1_555 1_555
C39I C40I 1_555 1_555
C56I O10I 1_555 1_555
O8I N5I 1_555 1_555
C46I C47I 1_555 1_555
C53I C54I 1_555 1_555
C61I O12I 1_555 1_555
C66I C67I 1_555 1_555
C39O C40O 1_555 1_555
C56O O10O 1_555 1_555
C56O C57O 1_555 1_555
O8O N5O 1_555 1_555
C46O C47O 1_555 1_555
C53O C54O 1_555 1_555
C61O O12O 1_555 1_555
C66O C67O 1_555 1_555
C39L C40L 1_555 1_555
C56L O10L 1_555 1_555
O8L N5L 1_555 1_555
C46L C47L 1_555 1_555
C53L C54L 1_555 1_555
C61L O12L 1_555 1_555
C65L C66L 1_555 1_555
C66L C67L 1_555 1_555
C58I C57I 1_555 1_555
C57I C60I 1_555 1_555
C57O C58O 1_555 1_555

#END
