# generated using pymatgen
data_Ga2H83C110(N5O8)2
_symmetry_space_group_name_H-M   'P 1'
_cell_length_a   24.05900000
_cell_length_b   24.05900000
_cell_length_c   38.26343611
_cell_angle_alpha   108.32376911
_cell_angle_beta   108.32376911
_cell_angle_gamma   90.00000000
_symmetry_Int_Tables_number   1
_chemical_formula_structural   Ga2H83C110(N5O8)2
_chemical_formula_sum   'Ga16 H664 C880 N80 O128'
_cell_volume   19838.71785805
_cell_formula_units_Z   8
loop_
 _symmetry_equiv_pos_site_id
 _symmetry_equiv_pos_as_xyz
  1  'x, y, z'
loop_
 _atom_site_type_symbol
 _atom_site_label
 _atom_site_symmetry_multiplicity
 _atom_site_fract_x
 _atom_site_fract_y
 _atom_site_fract_z
 _atom_site_occupancy
  C  C1  1  0.941300  0.369300  0.158600  1
  C  C2  1  0.789300  0.441300  0.658600  1
  C  C3  1  0.217300  0.289300  0.158600  1
  C  C4  1  0.869300  0.717300  0.658600  1
  C  C5  1  0.058700  0.630700  0.841400  1
  C  C6  1  0.210700  0.558700  0.341400  1
  C  C7  1  0.782700  0.710700  0.841400  1
  C  C8  1  0.130700  0.282700  0.341400  1
  C  C9  1  0.022100  0.336100  0.206200  1
  C  C10  1  0.870100  0.522100  0.706200  1
  C  C11  1  0.184100  0.370100  0.206200  1
  C  C12  1  0.836100  0.684100  0.706200  1
  C  C13  1  0.977900  0.663900  0.793800  1
  C  C14  1  0.129900  0.477900  0.293800  1
  C  C15  1  0.815900  0.629900  0.793800  1
  C  C16  1  0.163900  0.315900  0.293800  1
  C  C17  1  0.920500  0.319500  0.205000  1
  C  C18  1  0.885500  0.420500  0.705000  1
  C  C19  1  0.284500  0.385500  0.205000  1
  C  C20  1  0.819500  0.784500  0.705000  1
  C  C21  1  0.079500  0.680500  0.795000  1
  C  C22  1  0.114500  0.579500  0.295000  1
  C  C23  1  0.715500  0.614500  0.795000  1
  C  C24  1  0.180500  0.215500  0.295000  1
  C  C25  1  0.853600  0.874600  0.955200  1
  C  C26  1  0.080600  0.353600  0.455200  1
  C  C27  1  0.101600  0.580600  0.955200  1
  C  C28  1  0.374600  0.601600  0.455200  1
  C  C29  1  0.146400  0.125400  0.044800  1
  C  C30  1  0.919400  0.646400  0.544800  1
  C  C31  1  0.898400  0.419400  0.044800  1
  C  C32  1  0.625400  0.398400  0.544800  1
  C  C33  1  0.751500  0.857500  0.941000  1
  C  C34  1  0.083500  0.251500  0.441000  1
  C  C35  1  0.189500  0.583500  0.941000  1
  C  C36  1  0.357500  0.689500  0.441000  1
  C  C37  1  0.248500  0.142500  0.059000  1
  C  C38  1  0.916500  0.748500  0.559000  1
  C  C39  1  0.810500  0.416500  0.059000  1
  C  C40  1  0.642500  0.310500  0.559000  1
  C  C41  1  0.811300  0.923300  0.004600  1
  C  C42  1  0.081300  0.311300  0.504600  1
  C  C43  1  0.193300  0.581300  0.004600  1
  C  C44  1  0.423300  0.693300  0.504600  1
  C  C45  1  0.188700  0.076700  0.995400  1
  C  C46  1  0.918700  0.688700  0.495400  1
  C  C47  1  0.806700  0.418700  0.995400  1
  C  C48  1  0.576700  0.306700  0.495400  1
  C  C49  1  0.889200  0.037200  0.894400  1
  C  C50  1  0.857200  0.389200  0.394400  1
  C  C51  1  0.005200  0.357200  0.894400  1
  C  C52  1  0.537200  0.505200  0.394400  1
  C  C53  1  0.110800  0.962800  0.105600  1
  C  C54  1  0.142800  0.610800  0.605600  1
  C  C55  1  0.994800  0.642800  0.105600  1
  C  C56  1  0.462800  0.494800  0.605600  1
  C  C57  1  0.990800  0.043800  0.927600  1
  C  C58  1  0.883800  0.490800  0.427600  1
  C  C59  1  0.936800  0.383800  0.927600  1
  C  C60  1  0.543800  0.436800  0.427600  1
  C  C61  1  0.009200  0.956200  0.072400  1
  C  C62  1  0.116200  0.509200  0.572400  1
  C  C63  1  0.063200  0.616200  0.072400  1
  C  C64  1  0.456200  0.563200  0.572400  1
  C  C65  1  0.936200  0.131200  0.932400  1
  C  C66  1  0.801200  0.436200  0.432400  1
  C  C67  1  0.996200  0.301200  0.932400  1
  C  C68  1  0.631200  0.496200  0.432400  1
  C  C69  1  0.063800  0.868800  0.067600  1
  C  C70  1  0.198800  0.563800  0.567600  1
  C  C71  1  0.003800  0.698800  0.067600  1
  C  C72  1  0.368800  0.503800  0.567600  1
  C  C73  1  0.370900  0.038900  0.841800  1
  C  C74  1  0.802900  0.870900  0.341800  1
  C  C75  1  0.470900  0.302900  0.841800  1
  C  C76  1  0.538900  0.970900  0.341800  1
  C  C77  1  0.629100  0.961100  0.158200  1
  C  C78  1  0.197100  0.129100  0.658200  1
  C  C79  1  0.529100  0.697100  0.158200  1
  C  C80  1  0.461100  0.029100  0.658200  1
  C  C81  1  0.400200  0.073200  0.796400  1
  C  C82  1  0.723200  0.900200  0.296400  1
  C  C83  1  0.396200  0.223200  0.796400  1
  C  C84  1  0.573200  0.896200  0.296400  1
  C  C85  1  0.599800  0.926800  0.203600  1
  C  C86  1  0.276800  0.099800  0.703600  1
  C  C87  1  0.603800  0.776800  0.203600  1
  C  C88  1  0.426800  0.103800  0.703600  1
  C  C89  1  0.415800  0.967800  0.799600  1
  C  C90  1  0.831800  0.915800  0.299600  1
  C  C91  1  0.383800  0.331800  0.799600  1
  C  C92  1  0.467800  0.883800  0.299600  1
  C  C93  1  0.584200  0.032200  0.200400  1
  C  C94  1  0.168200  0.084200  0.700400  1
  C  C95  1  0.616200  0.668200  0.200400  1
  C  C96  1  0.532200  0.116200  0.700400  1
  C  C97  1  0.871300  0.121300  0.742600  1
  C  C98  1  0.621300  0.371300  0.242600  1
  C  C99  1  0.128700  0.878700  0.257400  1
  C  C100  1  0.378700  0.628700  0.757400  1
  C  C101  1  0.897500  0.147500  0.795000  1
  C  C102  1  0.647500  0.397500  0.295000  1
  C  C103  1  0.102500  0.852500  0.205000  1
  C  C104  1  0.352500  0.602500  0.705000  1
  C  C105  1  0.934400  0.195400  0.824800  1
  C  C106  1  0.629400  0.434400  0.324800  1
  C  C107  1  0.890400  0.129400  0.824800  1
  C  C108  1  0.695400  0.390400  0.324800  1
  C  C109  1  0.065600  0.804600  0.175200  1
  C  C110  1  0.370600  0.565600  0.675200  1
  C  C111  1  0.109600  0.870600  0.175200  1
  C  C112  1  0.304600  0.609600  0.675200  1
  C  C113  1  0.049700  0.143700  0.897400  1
  C  C114  1  0.753700  0.549700  0.397400  1
  C  C115  1  0.847700  0.253700  0.897400  1
  C  C116  1  0.643700  0.347700  0.397400  1
  C  C117  1  0.950300  0.856300  0.102600  1
  C  C118  1  0.246300  0.450300  0.602600  1
  C  C119  1  0.152300  0.746300  0.102600  1
  C  C120  1  0.356300  0.652300  0.602600  1
  C  C121  1  0.093000  0.167000  0.940000  1
  C  C122  1  0.773000  0.593000  0.440000  1
  C  C123  1  0.847000  0.273000  0.940000  1
  C  C124  1  0.667000  0.347000  0.440000  1
  C  C125  1  0.907000  0.833000  0.060000  1
  C  C126  1  0.227000  0.407000  0.560000  1
  C  C127  1  0.153000  0.727000  0.060000  1
  C  C128  1  0.333000  0.653000  0.560000  1
  C  C129  1  0.123100  0.213100  0.972200  1
  C  C130  1  0.759100  0.623100  0.472200  1
  C  C131  1  0.849100  0.259100  0.972200  1
  C  C132  1  0.713100  0.349100  0.472200  1
  C  C133  1  0.876900  0.786900  0.027800  1
  C  C134  1  0.240900  0.376900  0.527800  1
  C  C135  1  0.150900  0.740900  0.027800  1
  C  C136  1  0.286900  0.650900  0.527800  1
  C  C137  1  0.161000  0.230000  0.994000  1
  C  C138  1  0.764000  0.661000  0.494000  1
  C  C139  1  0.833000  0.264000  0.994000  1
  C  C140  1  0.730000  0.333000  0.494000  1
  C  C141  1  0.839000  0.770000  0.006000  1
  C  C142  1  0.236000  0.339000  0.506000  1
  C  C143  1  0.167000  0.736000  0.006000  1
  C  C144  1  0.270000  0.667000  0.506000  1
  C  C145  1  0.153700  0.215700  0.957400  1
  C  C146  1  0.741700  0.653700  0.457400  1
  C  C147  1  0.803700  0.241700  0.957400  1
  C  C148  1  0.715700  0.303700  0.457400  1
  C  C149  1  0.846300  0.784300  0.042600  1
  C  C150  1  0.258300  0.346300  0.542600  1
  C  C151  1  0.196300  0.758300  0.042600  1
  C  C152  1  0.284300  0.696300  0.542600  1
  C  C153  1  0.129000  0.212000  0.930000  1
  C  C154  1  0.718000  0.629000  0.430000  1
  C  C155  1  0.801000  0.218000  0.930000  1
  C  C156  1  0.712000  0.301000  0.430000  1
  C  C157  1  0.871000  0.788000  0.070000  1
  C  C158  1  0.282000  0.371000  0.570000  1
  C  C159  1  0.199000  0.782000  0.070000  1
  C  C160  1  0.288000  0.699000  0.570000  1
  C  C161  1  0.100800  0.200800  0.893600  1
  C  C162  1  0.692800  0.600800  0.393600  1
  C  C163  1  0.792800  0.192800  0.893600  1
  C  C164  1  0.700800  0.292800  0.393600  1
  C  C165  1  0.899200  0.799200  0.106400  1
  C  C166  1  0.307200  0.399200  0.606400  1
  C  C167  1  0.207200  0.807200  0.106400  1
  C  C168  1  0.299200  0.707200  0.606400  1
  C  C169  1  0.154000  0.247000  0.920000  1
  C  C170  1  0.673000  0.654000  0.420000  1
  C  C171  1  0.766000  0.173000  0.920000  1
  C  C172  1  0.747000  0.266000  0.420000  1
  C  C173  1  0.846000  0.753000  0.080000  1
  C  C174  1  0.327000  0.346000  0.580000  1
  C  C175  1  0.234000  0.827000  0.080000  1
  C  C176  1  0.253000  0.734000  0.580000  1
  C  C177  1  0.203200  0.216200  0.954400  1
  C  C178  1  0.738200  0.703200  0.454400  1
  C  C179  1  0.751200  0.238200  0.954400  1
  C  C180  1  0.716200  0.251200  0.454400  1
  C  C181  1  0.796800  0.783800  0.045600  1
  C  C182  1  0.261800  0.296800  0.545600  1
  C  C183  1  0.248800  0.761800  0.045600  1
  C  C184  1  0.283800  0.748800  0.545600  1
  C  C185  1  0.239100  0.216100  0.990200  1
  C  C186  1  0.774100  0.739100  0.490200  1
  C  C187  1  0.751100  0.274100  0.990200  1
  C  C188  1  0.716100  0.251100  0.490200  1
  C  C189  1  0.760900  0.783900  0.009800  1
  C  C190  1  0.225900  0.260900  0.509800  1
  C  C191  1  0.248900  0.725900  0.009800  1
  C  C192  1  0.283900  0.748900  0.509800  1
  C  C193  1  0.294800  0.199800  0.997600  1
  C  C194  1  0.797800  0.794800  0.497600  1
  C  C195  1  0.702800  0.297800  0.997600  1
  C  C196  1  0.699800  0.202800  0.497600  1
  C  C197  1  0.705200  0.800200  0.002400  1
  C  C198  1  0.202200  0.205200  0.502400  1
  C  C199  1  0.297200  0.702200  0.002400  1
  C  C200  1  0.300200  0.797200  0.502400  1
  C  C201  1  0.317500  0.155500  0.969000  1
  C  C202  1  0.813500  0.817500  0.469000  1
  C  C203  1  0.651500  0.313500  0.969000  1
  C  C204  1  0.655500  0.151500  0.469000  1
  C  C205  1  0.682500  0.844500  0.031000  1
  C  C206  1  0.186500  0.182500  0.531000  1
  C  C207  1  0.348500  0.686500  0.031000  1
  C  C208  1  0.344500  0.848500  0.531000  1
  C  C209  1  0.319500  0.113500  0.943000  1
  C  C210  1  0.829500  0.819500  0.443000  1
  C  C211  1  0.623500  0.329500  0.943000  1
  C  C212  1  0.613500  0.123500  0.443000  1
  C  C213  1  0.680500  0.886500  0.057000  1
  C  C214  1  0.170500  0.180500  0.557000  1
  C  C215  1  0.376500  0.670500  0.057000  1
  C  C216  1  0.386500  0.876500  0.557000  1
  C  C217  1  0.261900  0.802900  0.879800  1
  C  C218  1  0.076900  0.761900  0.379800  1
  C  C219  1  0.617900  0.576900  0.879800  1
  C  C220  1  0.302900  0.117900  0.379800  1
  C  C221  1  0.738100  0.197100  0.120200  1
  C  C222  1  0.923100  0.238100  0.620200  1
  C  C223  1  0.382100  0.423100  0.120200  1
  C  C224  1  0.697100  0.882100  0.620200  1
  C  C225  1  0.357500  0.098500  0.933000  1
  C  C226  1  0.834500  0.857500  0.433000  1
  C  C227  1  0.575500  0.334500  0.933000  1
  C  C228  1  0.598500  0.075500  0.433000  1
  C  C229  1  0.642500  0.901500  0.067000  1
  C  C230  1  0.165500  0.142500  0.567000  1
  C  C231  1  0.424500  0.665500  0.067000  1
  C  C232  1  0.401500  0.924500  0.567000  1
  C  C233  1  0.365500  0.116500  0.971000  1
  C  C234  1  0.854500  0.865500  0.471000  1
  C  C235  1  0.605500  0.354500  0.971000  1
  C  C236  1  0.616500  0.105500  0.471000  1
  C  C237  1  0.634500  0.883500  0.029000  1
  C  C238  1  0.145500  0.134500  0.529000  1
  C  C239  1  0.394500  0.645500  0.029000  1
  C  C240  1  0.383500  0.894500  0.529000  1
  C  C241  1  0.284000  0.712000  0.914000  1
  C  C242  1  0.202000  0.784000  0.414000  1
  C  C243  1  0.630000  0.702000  0.914000  1
  C  C244  1  0.212000  0.130000  0.414000  1
  C  C245  1  0.716000  0.288000  0.086000  1
  C  C246  1  0.798000  0.216000  0.586000  1
  C  C247  1  0.370000  0.298000  0.086000  1
  C  C248  1  0.788000  0.870000  0.586000  1
  C  C249  1  0.238900  0.737900  0.897800  1
  C  C250  1  0.159900  0.738900  0.397800  1
  C  C251  1  0.658900  0.659900  0.897800  1
  C  C252  1  0.237900  0.158900  0.397800  1
  C  C253  1  0.761100  0.262100  0.102200  1
  C  C254  1  0.840100  0.261100  0.602200  1
  C  C255  1  0.341100  0.340100  0.102200  1
  C  C256  1  0.762100  0.841100  0.602200  1
  C  C257  1  0.213600  0.745600  0.919200  1
  C  C258  1  0.173600  0.713600  0.419200  1
  C  C259  1  0.705600  0.673600  0.919200  1
  C  C260  1  0.245600  0.205600  0.419200  1
  C  C261  1  0.786400  0.254400  0.080800  1
  C  C262  1  0.826400  0.286400  0.580800  1
  C  C263  1  0.294400  0.326400  0.080800  1
  C  C264  1  0.754400  0.794400  0.580800  1
  C  C265  1  0.254000  0.664000  0.882000  1
  C  C266  1  0.218000  0.754000  0.382000  1
  C  C267  1  0.628000  0.718000  0.882000  1
  C  C268  1  0.164000  0.128000  0.382000  1
  C  C269  1  0.746000  0.336000  0.118000  1
  C  C270  1  0.782000  0.246000  0.618000  1
  C  C271  1  0.372000  0.282000  0.118000  1
  C  C272  1  0.836000  0.872000  0.618000  1
  C  C273  1  0.385100  0.125100  0.012200  1
  C  C274  1  0.887100  0.885100  0.512200  1
  C  C275  1  0.627100  0.387100  0.012200  1
  C  C276  1  0.625100  0.127100  0.512200  1
  C  C277  1  0.614900  0.874900  0.987800  1
  C  C278  1  0.112900  0.114900  0.487800  1
  C  C279  1  0.372900  0.612900  0.987800  1
  C  C280  1  0.374900  0.872900  0.487800  1
  C  C281  1  0.309300  0.828300  0.876600  1
  C  C282  1  0.048300  0.809300  0.376600  1
  C  C283  1  0.567300  0.548300  0.876600  1
  C  C284  1  0.328300  0.067300  0.376600  1
  C  C285  1  0.690700  0.171700  0.123400  1
  C  C286  1  0.951700  0.190700  0.623400  1
  C  C287  1  0.432700  0.451700  0.123400  1
  C  C288  1  0.671700  0.932700  0.623400  1
  C  C289  1  0.364000  0.871000  0.884000  1
  C  C290  1  0.013000  0.864000  0.384000  1
  C  C291  1  0.520000  0.513000  0.884000  1
  C  C292  1  0.371000  0.020000  0.384000  1
  C  C293  1  0.636000  0.129000  0.116000  1
  C  C294  1  0.987000  0.136000  0.616000  1
  C  C295  1  0.480000  0.487000  0.116000  1
  C  C296  1  0.629000  0.980000  0.616000  1
  C  C297  1  0.410000  0.867000  0.866000  1
  C  C298  1  0.999000  0.910000  0.366000  1
  C  C299  1  0.456000  0.499000  0.866000  1
  C  C300  1  0.367000  0.956000  0.366000  1
  C  C301  1  0.590000  0.133000  0.134000  1
  C  C302  1  0.001000  0.090000  0.634000  1
  C  C303  1  0.544000  0.501000  0.134000  1
  C  C304  1  0.633000  0.044000  0.634000  1
  C  C305  1  0.434000  0.880000  0.908000  1
  C  C306  1  0.028000  0.934000  0.408000  1
  C  C307  1  0.474000  0.528000  0.908000  1
  C  C308  1  0.380000  0.974000  0.408000  1
  C  C309  1  0.566000  0.120000  0.092000  1
  C  C310  1  0.972000  0.066000  0.592000  1
  C  C311  1  0.526000  0.472000  0.092000  1
  C  C312  1  0.620000  0.026000  0.592000  1
  C  C313  1  0.452600  0.921600  0.913200  1
  C  C314  1  0.991600  0.952600  0.413200  1
  C  C315  1  0.460600  0.491600  0.913200  1
  C  C316  1  0.421600  0.960600  0.413200  1
  C  C317  1  0.547400  0.078400  0.086800  1
  C  C318  1  0.008400  0.047400  0.586800  1
  C  C319  1  0.539400  0.508400  0.086800  1
  C  C320  1  0.578400  0.039400  0.586800  1
  C  C321  1  0.469000  0.956000  0.942000  1
  C  C322  1  0.986000  0.969000  0.442000  1
  C  C323  1  0.473000  0.486000  0.942000  1
  C  C324  1  0.456000  0.973000  0.442000  1
  C  C325  1  0.531000  0.044000  0.058000  1
  C  C326  1  0.014000  0.031000  0.558000  1
  C  C327  1  0.527000  0.514000  0.058000  1
  C  C328  1  0.544000  0.027000  0.558000  1
  C  C329  1  0.446600  0.831600  0.923200  1
  C  C330  1  0.091600  0.946600  0.423200  1
  C  C331  1  0.476600  0.591600  0.923200  1
  C  C332  1  0.331600  0.976600  0.423200  1
  C  C333  1  0.553400  0.168400  0.076800  1
  C  C334  1  0.908400  0.053400  0.576800  1
  C  C335  1  0.523400  0.408400  0.076800  1
  C  C336  1  0.668400  0.023400  0.576800  1
  C  C337  1  0.430000  0.065000  0.970000  1
  C  C338  1  0.905000  0.930000  0.470000  1
  C  C339  1  0.540000  0.405000  0.970000  1
  C  C340  1  0.565000  0.040000  0.470000  1
  C  C341  1  0.570000  0.935000  0.030000  1
  C  C342  1  0.095000  0.070000  0.530000  1
  C  C343  1  0.460000  0.595000  0.030000  1
  C  C344  1  0.435000  0.960000  0.530000  1
  C  C345  1  0.500000  0.797000  0.854000  1
  C  C346  1  0.057000  1.000000  0.354000  1
  C  C347  1  0.354000  0.557000  0.854000  1
  C  C348  1  0.297000  0.854000  0.354000  1
  C  C349  1  0.500000  0.203000  0.146000  1
  C  C350  1  0.943000  0.000000  0.646000  1
  C  C351  1  0.646000  0.443000  0.146000  1
  C  C352  1  0.703000  0.146000  0.646000  1
  C  C353  1  0.008000  0.258000  0.016000  1.0
  C  C354  1  0.758000  0.508000  0.516000  1.0
  C  C355  1  0.992000  0.742000  0.984000  1.0
  C  C356  1  0.242000  0.492000  0.484000  1.0
  C  C357  1  0.048100  0.298100  0.096200  1.0
  C  C358  1  0.798100  0.548100  0.596200  1.0
  C  C359  1  0.951900  0.701900  0.903800  1.0
  C  C360  1  0.201900  0.451900  0.403800  1.0
  C  C361  1  0.496100  0.246100  0.992200  1.0
  C  C362  1  0.746100  0.996100  0.492200  1.0
  C  C363  1  0.503900  0.753900  0.007800  1.0
  C  C364  1  0.253900  0.003900  0.507800  1.0
  C  C365  1  0.455100  0.205100  0.910200  1.0
  C  C366  1  0.705100  0.955100  0.410200  1.0
  C  C367  1  0.544900  0.794900  0.089800  1.0
  C  C368  1  0.294900  0.044900  0.589800  1.0
  C  C369  1  0.036600  0.051000  0.206600  1.0
  C  C370  1  0.155600  0.536600  0.706600  1.0
  C  C371  1  0.170000  0.655600  0.206600  1.0
  C  C372  1  0.551000  0.670000  0.706600  1.0
  C  C373  1  0.963400  0.949000  0.793400  1.0
  C  C374  1  0.844400  0.463400  0.293400  1.0
  C  C375  1  0.830000  0.344400  0.793400  1.0
  C  C376  1  0.449000  0.330000  0.293400  1.0
  C  C377  1  0.046300  0.062300  0.246200  1.0
  C  C378  1  0.183900  0.546300  0.746200  1.0
  C  C379  1  0.199900  0.683900  0.246200  1.0
  C  C380  1  0.562300  0.699900  0.746200  1.0
  C  C381  1  0.953700  0.937700  0.753800  1.0
  C  C382  1  0.816100  0.453700  0.253800  1.0
  C  C383  1  0.800100  0.316100  0.753800  1.0
  C  C384  1  0.437700  0.300100  0.253800  1.0
  C  C385  1  0.027000  0.016500  0.259000  1.0
  C  C386  1  0.242500  0.527000  0.759000  1.0
  C  C387  1  0.232000  0.742500  0.259000  1.0
  C  C388  1  0.516500  0.732000  0.759000  1.0
  C  C389  1  0.973000  0.983500  0.741000  1.0
  C  C390  1  0.757500  0.473000  0.241000  1.0
  C  C391  1  0.768000  0.257500  0.741000  1.0
  C  C392  1  0.483500  0.268000  0.241000  1.0
  C  C393  1  0.003200  0.964600  0.229200  1.0
  C  C394  1  0.264600  0.503200  0.729200  1.0
  C  C395  1  0.226000  0.764600  0.229200  1.0
  C  C396  1  0.464600  0.726000  0.729200  1.0
  C  C397  1  0.996800  0.035400  0.770800  1.0
  C  C398  1  0.735400  0.496800  0.270800  1.0
  C  C399  1  0.774000  0.235400  0.770800  1.0
  C  C400  1  0.535400  0.274000  0.270800  1.0
  C  C401  1  0.994300  0.950300  0.192600  1.0
  C  C402  1  0.242300  0.494300  0.692600  1.0
  C  C403  1  0.198300  0.742300  0.192600  1.0
  C  C404  1  0.450300  0.698300  0.692600  1.0
  C  C405  1  0.005700  0.049700  0.807400  1.0
  C  C406  1  0.757700  0.505700  0.307400  1.0
  C  C407  1  0.801700  0.257700  0.807400  1.0
  C  C408  1  0.549700  0.301700  0.307400  1.0
  C  C409  1  0.013900  0.995200  0.180400  1.0
  C  C410  1  0.185200  0.513900  0.680400  1.0
  C  C411  1  0.166500  0.685200  0.180400  1.0
  C  C412  1  0.495200  0.666500  0.680400  1.0
  C  C413  1  0.986100  0.004800  0.819600  1.0
  C  C414  1  0.814800  0.486100  0.319600  1.0
  C  C415  1  0.833500  0.314800  0.819600  1.0
  C  C416  1  0.504800  0.333500  0.319600  1.0
  C  C417  1  0.981200  0.916200  0.242400  1.0
  C  C418  1  0.326200  0.481200  0.742400  1.0
  C  C419  1  0.261200  0.826200  0.242400  1.0
  C  C420  1  0.416200  0.761200  0.742400  1.0
  C  C421  1  0.018800  0.083800  0.757600  1.0
  C  C422  1  0.673800  0.518800  0.257600  1.0
  C  C423  1  0.738800  0.173800  0.757600  1.0
  C  C424  1  0.583800  0.238800  0.257600  1.0
  C  C425  1  0.268400  0.109800  0.152000  1.0
  C  C426  1  0.042200  0.768400  0.652000  1.0
  C  C427  1  0.883600  0.542200  0.152000  1.0
  C  C428  1  0.609800  0.383600  0.652000  1.0
  C  C429  1  0.731600  0.890200  0.848000  1.0
  C  C430  1  0.957800  0.231600  0.348000  1.0
  C  C431  1  0.116400  0.457800  0.848000  1.0
  C  C432  1  0.390200  0.616400  0.348000  1.0
  C  C433  1  0.267200  0.050500  0.134400  1.0
  C  C434  1  0.083900  0.767200  0.634400  1.0
  C  C435  1  0.867200  0.583900  0.134400  1.0
  C  C436  1  0.550500  0.367200  0.634400  1.0
  C  C437  1  0.732800  0.949500  0.865600  1.0
  C  C438  1  0.916100  0.232800  0.365600  1.0
  C  C439  1  0.132800  0.416100  0.865600  1.0
  C  C440  1  0.449500  0.632800  0.365600  1.0
  C  C441  1  0.315400  0.029400  0.122800  1.0
  C  C442  1  0.093400  0.815400  0.622800  1.0
  C  C443  1  0.807400  0.593400  0.122800  1.0
  C  C444  1  0.529400  0.307400  0.622800  1.0
  C  C445  1  0.684600  0.970600  0.877200  1.0
  C  C446  1  0.906600  0.184600  0.377200  1.0
  C  C447  1  0.192600  0.406600  0.877200  1.0
  C  C448  1  0.470600  0.692600  0.377200  1.0
  C  C449  1  0.357000  0.068000  0.128000  1.0
  C  C450  1  0.060000  0.857000  0.628000  1.0
  C  C451  1  0.771000  0.560000  0.128000  1.0
  C  C452  1  0.568000  0.271000  0.628000  1.0
  C  C453  1  0.643000  0.932000  0.872000  1.0
  C  C454  1  0.940000  0.143000  0.372000  1.0
  C  C455  1  0.229000  0.440000  0.872000  1.0
  C  C456  1  0.432000  0.729000  0.372000  1.0
  C  C457  1  0.360300  0.127300  0.146600  1.0
  C  C458  1  0.019300  0.860300  0.646600  1.0
  C  C459  1  0.786300  0.519300  0.146600  1.0
  C  C460  1  0.627300  0.286300  0.646600  1.0
  C  C461  1  0.639700  0.872700  0.853400  1.0
  C  C462  1  0.980700  0.139700  0.353400  1.0
  C  C463  1  0.213700  0.480700  0.853400  1.0
  C  C464  1  0.372700  0.713700  0.353400  1.0
  C  C465  1  0.312900  0.151100  0.158200  1.0
  C  C466  1  0.007100  0.812900  0.658200  1.0
  C  C467  1  0.845300  0.507100  0.158200  1.0
  C  C468  1  0.651100  0.345300  0.658200  1.0
  C  C469  1  0.687100  0.848900  0.841800  1.0
  C  C470  1  0.992900  0.187100  0.341800  1.0
  C  C471  1  0.154700  0.492900  0.841800  1.0
  C  C472  1  0.348900  0.654700  0.341800  1.0
  C  C473  1  0.412700  0.044700  0.117400  1.0
  C  C474  1  0.072700  0.912700  0.617400  1.0
  C  C475  1  0.704700  0.572700  0.117400  1.0
  C  C476  1  0.544700  0.204700  0.617400  1.0
  C  C477  1  0.587300  0.955300  0.882600  1.0
  C  C478  1  0.927300  0.087300  0.382600  1.0
  C  C479  1  0.295300  0.427300  0.882600  1.0
  C  C480  1  0.455300  0.795300  0.382600  1.0
  C  C481  1  0.965400  0.123600  0.054000  1.0
  C  C482  1  0.930400  0.465400  0.554000  1.0
  C  C483  1  0.088600  0.430400  0.054000  1.0
  C  C484  1  0.623600  0.588600  0.554000  1.0
  C  C485  1  0.034600  0.876400  0.946000  1.0
  C  C486  1  0.069600  0.534600  0.446000  1.0
  C  C487  1  0.911400  0.569600  0.946000  1.0
  C  C488  1  0.376400  0.411400  0.446000  1.0
  C  C489  1  0.960700  0.070200  0.028400  1.0
  C  C490  1  0.958200  0.460700  0.528400  1.0
  C  C491  1  0.067700  0.458200  0.028400  1.0
  C  C492  1  0.570200  0.567700  0.528400  1.0
  C  C493  1  0.039300  0.929800  0.971600  1.0
  C  C494  1  0.041800  0.539300  0.471600  1.0
  C  C495  1  0.932300  0.541800  0.971600  1.0
  C  C496  1  0.429800  0.432300  0.471600  1.0
  C  C497  1  0.909700  0.046000  0.997600  1.0
  C  C498  1  0.951600  0.409700  0.497600  1.0
  C  C499  1  0.087900  0.451600  0.997600  1.0
  C  C500  1  0.546000  0.587900  0.497600  1.0
  C  C501  1  0.090300  0.954000  0.002400  1.0
  C  C502  1  0.048400  0.590300  0.502400  1.0
  C  C503  1  0.912100  0.548400  0.002400  1.0
  C  C504  1  0.454000  0.412100  0.502400  1.0
  C  C505  1  0.861300  0.077300  0.993200  1.0
  C  C506  1  0.915900  0.361300  0.493200  1.0
  C  C507  1  0.131900  0.415900  0.993200  1.0
  C  C508  1  0.577300  0.631900  0.493200  1.0
  C  C509  1  0.138700  0.922700  0.006800  1.0
  C  C510  1  0.084100  0.638700  0.506800  1.0
  C  C511  1  0.868100  0.584100  0.006800  1.0
  C  C512  1  0.422700  0.368100  0.506800  1.0
  C  C513  1  0.867800  0.131400  0.020600  1.0
  C  C514  1  0.889200  0.367800  0.520600  1.0
  C  C515  1  0.152800  0.389200  0.020600  1.0
  C  C516  1  0.631400  0.652800  0.520600  1.0
  C  C517  1  0.132200  0.868600  0.979400  1.0
  C  C518  1  0.110800  0.632200  0.479400  1.0
  C  C519  1  0.847200  0.610800  0.979400  1.0
  C  C520  1  0.368600  0.347200  0.479400  1.0
  C  C521  1  0.919800  0.155100  0.051400  1.0
  C  C522  1  0.896300  0.419800  0.551400  1.0
  C  C523  1  0.131600  0.396300  0.051400  1.0
  C  C524  1  0.655100  0.631600  0.551400  1.0
  C  C525  1  0.080200  0.844900  0.948600  1.0
  C  C526  1  0.103700  0.580200  0.448600  1.0
  C  C527  1  0.868400  0.603700  0.948600  1.0
  C  C528  1  0.344900  0.368400  0.448600  1.0
  C  C529  1  0.801300  0.051300  0.960600  1.0
  C  C530  1  0.909300  0.301300  0.460600  1.0
  C  C531  1  0.159300  0.409300  0.960600  1.0
  C  C532  1  0.551300  0.659300  0.460600  1.0
  C  C533  1  0.198700  0.948700  0.039400  1.0
  C  C534  1  0.090700  0.698700  0.539400  1.0
  C  C535  1  0.840700  0.590700  0.039400  1.0
  C  C536  1  0.448700  0.340700  0.539400  1.0
  C  C537  1  0.051900  0.196000  0.098600  1.0
  C  C538  1  0.902600  0.551900  0.598600  1.0
  C  C539  1  0.046700  0.402600  0.098600  1.0
  C  C540  1  0.696000  0.546700  0.598600  1.0
  C  C541  1  0.948100  0.804000  0.901400  1.0
  C  C542  1  0.097400  0.448100  0.401400  1.0
  C  C543  1  0.953300  0.597400  0.901400  1.0
  C  C544  1  0.304000  0.453300  0.401400  1.0
  C  C545  1  0.038500  0.237700  0.076400  1.0
  C  C546  1  0.838700  0.538500  0.576400  1.0
  C  C547  1  0.037900  0.338700  0.076400  1.0
  C  C548  1  0.737700  0.537900  0.576400  1.0
  C  C549  1  0.961500  0.762300  0.923600  1.0
  C  C550  1  0.161300  0.461500  0.423600  1.0
  C  C551  1  0.962100  0.661300  0.923600  1.0
  C  C552  1  0.262300  0.462100  0.423600  1.0
  C  C553  1  0.021600  0.218700  0.037000  1.0
  C  C554  1  0.818300  0.521600  0.537000  1.0
  C  C555  1  0.015400  0.318300  0.037000  1.0
  C  C556  1  0.718700  0.515400  0.537000  1.0
  C  C557  1  0.978400  0.781300  0.963000  1.0
  C  C558  1  0.181700  0.478400  0.463000  1.0
  C  C559  1  0.984600  0.681700  0.963000  1.0
  C  C560  1  0.281300  0.484600  0.463000  1.0
  C  C561  1  0.031300  0.148000  0.198200  1.0
  C  C562  1  0.050200  0.531300  0.698200  1.0
  C  C563  1  0.166900  0.550200  0.198200  1.0
  C  C564  1  0.648000  0.666900  0.698200  1.0
  C  C565  1  0.968700  0.852000  0.801800  1.0
  C  C566  1  0.949800  0.468700  0.301800  1.0
  C  C567  1  0.833100  0.449800  0.801800  1.0
  C  C568  1  0.352000  0.333100  0.301800  1.0
  C  C569  1  0.987800  0.163700  0.217400  1.0
  C  C570  1  0.053700  0.487800  0.717400  1.0
  C  C571  1  0.229600  0.553700  0.217400  1.0
  C  C572  1  0.663700  0.729600  0.717400  1.0
  C  C573  1  0.012200  0.836300  0.782600  1.0
  C  C574  1  0.946300  0.512200  0.282600  1.0
  C  C575  1  0.770400  0.446300  0.782600  1.0
  C  C576  1  0.336300  0.270400  0.282600  1.0
  C  C577  1  0.930800  0.130700  0.200800  1.0
  C  C578  1  0.070100  0.430800  0.700800  1.0
  C  C579  1  0.270000  0.570100  0.200800  1.0
  C  C580  1  0.630700  0.770000  0.700800  1.0
  C  C581  1  0.069200  0.869300  0.799200  1.0
  C  C582  1  0.929900  0.569200  0.299200  1.0
  C  C583  1  0.730000  0.429900  0.799200  1.0
  C  C584  1  0.369300  0.230000  0.299200  1.0
  C  C585  1  0.889400  0.151000  0.220400  1.0
  C  C586  1  0.069400  0.389400  0.720400  1.0
  C  C587  1  0.331000  0.569400  0.220400  1.0
  C  C588  1  0.651000  0.831000  0.720400  1.0
  C  C589  1  0.110600  0.849000  0.779600  1.0
  C  C590  1  0.930600  0.610600  0.279600  1.0
  C  C591  1  0.669000  0.430600  0.779600  1.0
  C  C592  1  0.349000  0.169000  0.279600  1.0
  C  C593  1  0.903600  0.195600  0.254000  1.0
  C  C594  1  0.058400  0.403600  0.754000  1.0
  C  C595  1  0.350400  0.558400  0.254000  1.0
  C  C596  1  0.695600  0.850400  0.754000  1.0
  C  C597  1  0.096400  0.804400  0.746000  1.0
  C  C598  1  0.941600  0.596400  0.246000  1.0
  C  C599  1  0.649600  0.441600  0.746000  1.0
  C  C600  1  0.304400  0.149600  0.246000  1.0
  C  C601  1  0.959600  0.226400  0.269600  1.0
  C  C602  1  0.043200  0.459600  0.769600  1.0
  C  C603  1  0.310000  0.543200  0.269600  1.0
  C  C604  1  0.726400  0.810000  0.769600  1.0
  C  C605  1  0.040400  0.773600  0.730400  1.0
  C  C606  1  0.956800  0.540400  0.230400  1.0
  C  C607  1  0.690000  0.456800  0.730400  1.0
  C  C608  1  0.273600  0.190000  0.230400  1.0
  C  C609  1  0.002000  0.212200  0.251000  1.0
  C  C610  1  0.038800  0.502000  0.751000  1.0
  C  C611  1  0.249000  0.538800  0.251000  1.0
  C  C612  1  0.712200  0.749000  0.751000  1.0
  C  C613  1  0.998000  0.787800  0.749000  1.0
  C  C614  1  0.961200  0.498000  0.249000  1.0
  C  C615  1  0.751000  0.461200  0.749000  1.0
  C  C616  1  0.287800  0.251000  0.249000  1.0
  C  C617  1  0.215000  0.169900  0.195200  1.0
  C  C618  1  0.025300  0.715000  0.695200  1.0
  C  C619  1  0.980200  0.525300  0.195200  1.0
  C  C620  1  0.669900  0.480200  0.695200  1.0
  C  C621  1  0.785000  0.830100  0.804800  1.0
  C  C622  1  0.974700  0.285000  0.304800  1.0
  C  C623  1  0.019800  0.474700  0.804800  1.0
  C  C624  1  0.330100  0.519800  0.304800  1.0
  C  C625  1  0.612200  0.122100  0.951200  1.0
  C  C626  1  0.829100  0.112200  0.451200  1.0
  C  C627  1  0.339000  0.329100  0.951200  1.0
  C  C628  1  0.622100  0.839000  0.451200  1.0
  C  C629  1  0.387800  0.877900  0.048800  1.0
  C  C630  1  0.170900  0.887800  0.548800  1.0
  C  C631  1  0.661000  0.670900  0.048800  1.0
  C  C632  1  0.377900  0.161000  0.548800  1.0
  C  C633  1  0.668900  0.139900  0.977800  1.0
  C  C634  1  0.837900  0.168900  0.477800  1.0
  C  C635  1  0.308900  0.337900  0.977800  1.0
  C  C636  1  0.639900  0.808900  0.477800  1.0
  C  C637  1  0.331100  0.860100  0.022200  1.0
  C  C638  1  0.162100  0.831100  0.522200  1.0
  C  C639  1  0.691100  0.662100  0.022200  1.0
  C  C640  1  0.360100  0.191100  0.522200  1.0
  C  C641  1  0.686000  0.117000  0.008000  1.0
  C  C642  1  0.891000  0.186000  0.508000  1.0
  C  C643  1  0.322000  0.391000  0.008000  1.0
  C  C644  1  0.617000  0.822000  0.508000  1.0
  C  C645  1  0.314000  0.883000  0.992000  1.0
  C  C646  1  0.109000  0.814000  0.492000  1.0
  C  C647  1  0.678000  0.609000  0.992000  1.0
  C  C648  1  0.383000  0.178000  0.492000  1.0
  C  C649  1  0.647500  0.074500  0.009000  1.0
  C  C650  1  0.934500  0.147500  0.509000  1.0
  C  C651  1  0.361500  0.434500  0.009000  1.0
  C  C652  1  0.574500  0.861500  0.509000  1.0
  C  C653  1  0.352500  0.925500  0.991000  1.0
  C  C654  1  0.065500  0.852500  0.491000  1.0
  C  C655  1  0.638500  0.565500  0.991000  1.0
  C  C656  1  0.425500  0.138500  0.491000  1.0
  C  C657  1  0.589600  0.061600  0.983200  1.0
  C  C658  1  0.921600  0.089600  0.483200  1.0
  C  C659  1  0.393600  0.421600  0.983200  1.0
  C  C660  1  0.561600  0.893600  0.483200  1.0
  C  C661  1  0.410400  0.938400  0.016800  1.0
  C  C662  1  0.078400  0.910400  0.516800  1.0
  C  C663  1  0.606400  0.578400  0.016800  1.0
  C  C664  1  0.438400  0.106400  0.516800  1.0
  C  C665  1  0.571500  0.084600  0.954400  1.0
  C  C666  1  0.869800  0.071500  0.454400  1.0
  C  C667  1  0.382900  0.369800  0.954400  1.0
  C  C668  1  0.584600  0.882900  0.454400  1.0
  C  C669  1  0.428500  0.915400  0.045600  1.0
  C  C670  1  0.130200  0.928500  0.545600  1.0
  C  C671  1  0.617100  0.630200  0.045600  1.0
  C  C672  1  0.415400  0.117100  0.545600  1.0
  C  C673  1  0.670100  0.047100  0.042200  1.0
  C  C674  1  0.995100  0.170100  0.542200  1.0
  C  C675  1  0.372100  0.495100  0.042200  1.0
  C  C676  1  0.547100  0.872100  0.542200  1.0
  C  C677  1  0.329900  0.952900  0.957800  1.0
  C  C678  1  0.004900  0.829900  0.457800  1.0
  C  C679  1  0.627900  0.504900  0.957800  1.0
  C  C680  1  0.452900  0.127900  0.457800  1.0
  C  C681  1  0.663800  0.317500  0.861200  1.0
  C  C682  1  0.543700  0.163800  0.361200  1.0
  C  C683  1  0.197400  0.043700  0.861200  1.0
  C  C684  1  0.817500  0.697400  0.361200  1.0
  C  C685  1  0.336200  0.682500  0.138800  1.0
  C  C686  1  0.456300  0.836200  0.638800  1.0
  C  C687  1  0.802600  0.956300  0.138800  1.0
  C  C688  1  0.182500  0.302600  0.638800  1.0
  C  C689  1  0.634200  0.367100  0.860200  1.0
  C  C690  1  0.493100  0.134200  0.360200  1.0
  C  C691  1  0.226000  0.993100  0.860200  1.0
  C  C692  1  0.867100  0.726000  0.360200  1.0
  C  C693  1  0.365800  0.632900  0.139800  1.0
  C  C694  1  0.506900  0.865800  0.639800  1.0
  C  C695  1  0.774000  0.006900  0.139800  1.0
  C  C696  1  0.132900  0.274000  0.639800  1.0
  C  C697  1  0.666200  0.423600  0.874400  1.0
  C  C698  1  0.450800  0.166200  0.374400  1.0
  C  C699  1  0.208200  0.950800  0.874400  1.0
  C  C700  1  0.923600  0.708200  0.374400  1.0
  C  C701  1  0.333800  0.576400  0.125600  1.0
  C  C702  1  0.549200  0.833800  0.625600  1.0
  C  C703  1  0.791800  0.049200  0.125600  1.0
  C  C704  1  0.076400  0.291800  0.625600  1.0
  C  C705  1  0.727300  0.426300  0.890600  1.0
  C  C706  1  0.464300  0.227300  0.390600  1.0
  C  C707  1  0.163300  0.964300  0.890600  1.0
  C  C708  1  0.926300  0.663300  0.390600  1.0
  C  C709  1  0.272700  0.573700  0.109400  1.0
  C  C710  1  0.535700  0.772700  0.609400  1.0
  C  C711  1  0.836700  0.035700  0.109400  1.0
  C  C712  1  0.073700  0.336700  0.609400  1.0
  C  C713  1  0.755400  0.379400  0.892800  1.0
  C  C714  1  0.513400  0.255400  0.392800  1.0
  C  C715  1  0.137400  0.013400  0.892800  1.0
  C  C716  1  0.879400  0.637400  0.392800  1.0
  C  C717  1  0.244600  0.620600  0.107200  1.0
  C  C718  1  0.486600  0.744600  0.607200  1.0
  C  C719  1  0.862600  0.986600  0.107200  1.0
  C  C720  1  0.120600  0.362600  0.607200  1.0
  C  C721  1  0.725100  0.324100  0.878200  1.0
  C  C722  1  0.554100  0.225100  0.378200  1.0
  C  C723  1  0.153100  0.054100  0.878200  1.0
  C  C724  1  0.824100  0.653100  0.378200  1.0
  C  C725  1  0.274900  0.675900  0.121800  1.0
  C  C726  1  0.445900  0.774900  0.621800  1.0
  C  C727  1  0.846900  0.945900  0.121800  1.0
  C  C728  1  0.175900  0.346900  0.621800  1.0
  C  C729  1  0.762000  0.490000  0.906000  1.0
  C  C730  1  0.416000  0.262000  0.406000  1.0
  C  C731  1  0.144000  0.916000  0.906000  1.0
  C  C732  1  0.990000  0.644000  0.406000  1.0
  C  C733  1  0.238000  0.510000  0.094000  1.0
  C  C734  1  0.584000  0.738000  0.594000  1.0
  C  C735  1  0.856000  0.084000  0.094000  1.0
  C  C736  1  0.010000  0.356000  0.594000  1.0
  C  C737  1  0.673200  0.034500  0.780800  1.0
  C  C738  1  0.746300  0.173200  0.280800  1.0
  C  C739  1  0.107600  0.246300  0.780800  1.0
  C  C740  1  0.534500  0.607600  0.280800  1.0
  C  C741  1  0.326800  0.965500  0.219200  1.0
  C  C742  1  0.253700  0.826800  0.719200  1.0
  C  C743  1  0.892400  0.753700  0.219200  1.0
  C  C744  1  0.465500  0.392400  0.719200  1.0
  C  C745  1  0.657500  0.012100  0.742400  1.0
  C  C746  1  0.730300  0.157500  0.242400  1.0
  C  C747  1  0.084900  0.230300  0.742400  1.0
  C  C748  1  0.512100  0.584900  0.242400  1.0
  C  C749  1  0.342500  0.987900  0.257600  1.0
  C  C750  1  0.269700  0.842500  0.757600  1.0
  C  C751  1  0.915100  0.769700  0.257600  1.0
  C  C752  1  0.487900  0.415100  0.757600  1.0
  C  C753  1  0.696900  0.981000  0.723800  1.0
  C  C754  1  0.742800  0.196900  0.223800  1.0
  C  C755  1  0.026900  0.242800  0.723800  1.0
  C  C756  1  0.481000  0.526900  0.223800  1.0
  C  C757  1  0.303100  0.019000  0.276200  1.0
  C  C758  1  0.257200  0.803100  0.776200  1.0
  C  C759  1  0.973100  0.757200  0.276200  1.0
  C  C760  1  0.519000  0.473100  0.776200  1.0
  C  C761  1  0.752000  0.977200  0.748400  1.0
  C  C762  1  0.771200  0.252000  0.248400  1.0
  C  C763  1  0.996400  0.271200  0.748400  1.0
  C  C764  1  0.477200  0.496400  0.248400  1.0
  C  C765  1  0.248000  0.022800  0.251600  1.0
  C  C766  1  0.228800  0.748000  0.751600  1.0
  C  C767  1  0.003600  0.728800  0.251600  1.0
  C  C768  1  0.522800  0.503600  0.751600  1.0
  C  C769  1  0.768900  0.001900  0.786400  1.0
  C  C770  1  0.784500  0.268900  0.286400  1.0
  C  C771  1  0.017500  0.284500  0.786400  1.0
  C  C772  1  0.501900  0.517500  0.286400  1.0
  C  C773  1  0.231100  0.998100  0.213600  1.0
  C  C774  1  0.215500  0.731100  0.713600  1.0
  C  C775  1  0.982500  0.715500  0.213600  1.0
  C  C776  1  0.498100  0.482500  0.713600  1.0
  C  C777  1  0.729600  0.033200  0.804200  1.0
  C  C778  1  0.771000  0.229600  0.304200  1.0
  C  C779  1  0.074600  0.271000  0.804200  1.0
  C  C780  1  0.533200  0.574600  0.304200  1.0
  C  C781  1  0.270400  0.966800  0.195800  1.0
  C  C782  1  0.229000  0.770400  0.695800  1.0
  C  C783  1  0.925400  0.729000  0.195800  1.0
  C  C784  1  0.466800  0.425400  0.695800  1.0
  C  C785  1  0.793000  0.942000  0.728000  1.0
  C  C786  1  0.786000  0.293000  0.228000  1.0
  C  C787  1  0.935000  0.286000  0.728000  1.0
  C  C788  1  0.442000  0.435000  0.228000  1.0
  C  C789  1  0.207000  0.058000  0.272000  1.0
  C  C790  1  0.214000  0.707000  0.772000  1.0
  C  C791  1  0.065000  0.714000  0.272000  1.0
  C  C792  1  0.558000  0.565000  0.772000  1.0
  C  C793  1  0.549300  0.173900  0.907600  1.0
  C  C794  1  0.733700  0.049300  0.407600  1.0
  C  C795  1  0.358300  0.233700  0.907600  1.0
  C  C796  1  0.673900  0.858300  0.407600  1.0
  C  C797  1  0.450700  0.826100  0.092400  1.0
  C  C798  1  0.266300  0.950700  0.592400  1.0
  C  C799  1  0.641700  0.766300  0.092400  1.0
  C  C800  1  0.326100  0.141700  0.592400  1.0
  C  C801  1  0.513000  0.199900  0.931200  1.0
  C  C802  1  0.731300  0.013000  0.431200  1.0
  C  C803  1  0.418200  0.231300  0.931200  1.0
  C  C804  1  0.699900  0.918200  0.431200  1.0
  C  C805  1  0.487000  0.800100  0.068800  1.0
  C  C806  1  0.268700  0.987000  0.568800  1.0
  C  C807  1  0.581800  0.768700  0.068800  1.0
  C  C808  1  0.300100  0.081800  0.568800  1.0
  C  C809  1  0.534100  0.221300  0.971000  1.0
  C  C810  1  0.749700  0.034100  0.471000  1.0
  C  C811  1  0.436900  0.249700  0.971000  1.0
  C  C812  1  0.721300  0.936900  0.471000  1.0
  C  C813  1  0.465900  0.778700  0.029000  1.0
  C  C814  1  0.250300  0.965900  0.529000  1.0
  C  C815  1  0.563100  0.750300  0.029000  1.0
  C  C816  1  0.278700  0.063100  0.529000  1.0
  C  C817  1  0.584200  0.044800  0.796200  1.0
  C  C818  1  0.751400  0.084200  0.296200  1.0
  C  C819  1  0.212000  0.251400  0.796200  1.0
  C  C820  1  0.544800  0.712000  0.296200  1.0
  C  C821  1  0.415800  0.955200  0.203800  1.0
  C  C822  1  0.248600  0.915800  0.703800  1.0
  C  C823  1  0.788000  0.748600  0.203800  1.0
  C  C824  1  0.455200  0.288000  0.703800  1.0
  C  C825  1  0.556100  0.985400  0.770200  1.0
  C  C826  1  0.784800  0.056100  0.270200  1.0
  C  C827  1  0.214100  0.284800  0.770200  1.0
  C  C828  1  0.485400  0.714100  0.270200  1.0
  C  C829  1  0.443900  0.014600  0.229800  1.0
  C  C830  1  0.215200  0.943900  0.729800  1.0
  C  C831  1  0.785900  0.715200  0.229800  1.0
  C  C832  1  0.514600  0.285900  0.729800  1.0
  C  C833  1  0.583100  0.937900  0.780600  1.0
  C  C834  1  0.842700  0.083100  0.280600  1.0
  C  C835  1  0.197500  0.342700  0.780600  1.0
  C  C836  1  0.437900  0.697500  0.280600  1.0
  C  C837  1  0.416900  0.062100  0.219400  1.0
  C  C838  1  0.157300  0.916900  0.719400  1.0
  C  C839  1  0.802500  0.657300  0.219400  1.0
  C  C840  1  0.562100  0.302500  0.719400  1.0
  C  C841  1  0.556400  0.879500  0.759200  1.0
  C  C842  1  0.879700  0.056400  0.259200  1.0
  C  C843  1  0.202800  0.379700  0.759200  1.0
  C  C844  1  0.379500  0.702800  0.259200  1.0
  C  C845  1  0.443600  0.120500  0.240800  1.0
  C  C846  1  0.120300  0.943600  0.740800  1.0
  C  C847  1  0.797200  0.620300  0.240800  1.0
  C  C848  1  0.620500  0.297200  0.740800  1.0
  C  C849  1  0.504900  0.870400  0.728000  1.0
  C  C850  1  0.857600  0.004900  0.228000  1.0
  C  C851  1  0.223100  0.357600  0.728000  1.0
  C  C852  1  0.370400  0.723100  0.228000  1.0
  C  C853  1  0.495100  0.129600  0.272000  1.0
  C  C854  1  0.142400  0.995100  0.772000  1.0
  C  C855  1  0.776900  0.642400  0.272000  1.0
  C  C856  1  0.629600  0.276900  0.772000  1.0
  C  C857  1  0.478900  0.918900  0.718800  1.0
  C  C858  1  0.799900  0.978900  0.218800  1.0
  C  C859  1  0.239900  0.299900  0.718800  1.0
  C  C860  1  0.418900  0.739900  0.218800  1.0
  C  C861  1  0.521100  0.081100  0.281200  1.0
  C  C862  1  0.200100  0.021100  0.781200  1.0
  C  C863  1  0.760100  0.700100  0.281200  1.0
  C  C864  1  0.581100  0.260100  0.781200  1.0
  C  C865  1  0.506700  0.974300  0.740600  1.0
  C  C866  1  0.766300  0.006700  0.240600  1.0
  C  C867  1  0.233900  0.266300  0.740600  1.0
  C  C868  1  0.474300  0.733900  0.240600  1.0
  C  C869  1  0.493300  0.025700  0.259400  1.0
  C  C870  1  0.233700  0.993300  0.759400  1.0
  C  C871  1  0.766100  0.733700  0.259400  1.0
  C  C872  1  0.525700  0.266100  0.759400  1.0
  C  C873  1  0.592400  0.237800  0.813200  1.0
  C  C874  1  0.575400  0.092400  0.313200  1.0
  C  C875  1  0.220800  0.075400  0.813200  1.0
  C  C876  1  0.737800  0.720800  0.313200  1.0
  C  C877  1  0.407600  0.762200  0.186800  1.0
  C  C878  1  0.424600  0.907600  0.686800  1.0
  C  C879  1  0.779200  0.924600  0.186800  1.0
  C  C880  1  0.262200  0.279200  0.686800  1.0
  Ga  Ga881  1  0.101850  0.145000  0.153700  1.0
  Ga  Ga882  1  0.008700  0.601850  0.653700  1.0
  Ga  Ga883  1  0.051850  0.508700  0.153700  1.0
  Ga  Ga884  1  0.645000  0.551850  0.653700  1.0
  Ga  Ga885  1  0.898150  0.855000  0.846300  1.0
  Ga  Ga886  1  0.991300  0.398150  0.346300  1.0
  Ga  Ga887  1  0.948150  0.491300  0.846300  1.0
  Ga  Ga888  1  0.355000  0.448150  0.346300  1.0
  Ga  Ga889  1  0.599800  0.154750  0.850100  1.0
  Ga  Ga890  1  0.695350  0.099800  0.350100  1.0
  Ga  Ga891  1  0.250300  0.195350  0.850100  1.0
  Ga  Ga892  1  0.654750  0.750300  0.350100  1.0
  Ga  Ga893  1  0.400200  0.845250  0.149900  1.0
  Ga  Ga894  1  0.304650  0.900200  0.649900  1.0
  Ga  Ga895  1  0.749700  0.804650  0.149900  1.0
  Ga  Ga896  1  0.345250  0.249700  0.649900  1.0
  H  H897  1  0.965000  0.376000  0.144000  1
  H  H898  1  0.768000  0.465000  0.644000  1
  H  H899  1  0.179000  0.268000  0.144000  1
  H  H900  1  0.876000  0.679000  0.644000  1
  H  H901  1  0.035000  0.624000  0.856000  1
  H  H902  1  0.232000  0.535000  0.356000  1
  H  H903  1  0.821000  0.732000  0.856000  1
  H  H904  1  0.124000  0.321000  0.356000  1
  H  H905  1  0.045000  0.350000  0.194000  1
  H  H906  1  0.844000  0.545000  0.694000  1
  H  H907  1  0.149000  0.344000  0.194000  1
  H  H908  1  0.850000  0.649000  0.694000  1
  H  H909  1  0.955000  0.650000  0.806000  1
  H  H910  1  0.156000  0.455000  0.306000  1
  H  H911  1  0.851000  0.656000  0.806000  1
  H  H912  1  0.150000  0.351000  0.306000  1
  H  H913  1  0.028000  0.297000  0.204000  1
  H  H914  1  0.907000  0.528000  0.704000  1
  H  H915  1  0.176000  0.407000  0.204000  1
  H  H916  1  0.797000  0.676000  0.704000  1
  H  H917  1  0.972000  0.703000  0.796000  1
  H  H918  1  0.093000  0.472000  0.296000  1
  H  H919  1  0.824000  0.593000  0.796000  1
  H  H920  1  0.203000  0.324000  0.296000  1
  H  H921  1  0.922000  0.280000  0.202000  1
  H  H922  1  0.922000  0.422000  0.702000  1
  H  H923  1  0.280000  0.422000  0.202000  1
  H  H924  1  0.780000  0.780000  0.702000  1
  H  H925  1  0.078000  0.720000  0.798000  1
  H  H926  1  0.078000  0.578000  0.298000  1
  H  H927  1  0.720000  0.578000  0.798000  1
  H  H928  1  0.220000  0.220000  0.298000  1
  H  H929  1  0.880000  0.324000  0.190000  1
  H  H930  1  0.866000  0.380000  0.690000  1
  H  H931  1  0.310000  0.366000  0.190000  1
  H  H932  1  0.824000  0.810000  0.690000  1
  H  H933  1  0.120000  0.676000  0.810000  1
  H  H934  1  0.134000  0.620000  0.310000  1
  H  H935  1  0.690000  0.634000  0.810000  1
  H  H936  1  0.176000  0.190000  0.310000  1
  H  H937  1  0.754000  0.837000  0.916000  1
  H  H938  1  0.079000  0.254000  0.416000  1
  H  H939  1  0.162000  0.579000  0.916000  1
  H  H940  1  0.337000  0.662000  0.416000  1
  H  H941  1  0.246000  0.163000  0.084000  1
  H  H942  1  0.921000  0.746000  0.584000  1
  H  H943  1  0.838000  0.421000  0.084000  1
  H  H944  1  0.663000  0.338000  0.584000  1
  H  H945  1  0.725000  0.888000  0.938000  1
  H  H946  1  0.050000  0.225000  0.438000  1
  H  H947  1  0.213000  0.550000  0.938000  1
  H  H948  1  0.388000  0.713000  0.438000  1
  H  H949  1  0.275000  0.112000  0.062000  1
  H  H950  1  0.950000  0.775000  0.562000  1
  H  H951  1  0.787000  0.450000  0.062000  1
  H  H952  1  0.612000  0.287000  0.562000  1
  H  H953  1  0.738000  0.833000  0.952000  1
  H  H954  1  0.119000  0.238000  0.452000  1
  H  H955  1  0.214000  0.619000  0.952000  1
  H  H956  1  0.333000  0.714000  0.452000  1
  H  H957  1  0.262000  0.167000  0.048000  1
  H  H958  1  0.881000  0.762000  0.548000  1
  H  H959  1  0.786000  0.381000  0.048000  1
  H  H960  1  0.667000  0.286000  0.548000  1
  H  H961  1  0.786000  0.953000  0.002000  1
  H  H962  1  0.049000  0.286000  0.502000  1
  H  H963  1  0.216000  0.549000  0.002000  1
  H  H964  1  0.453000  0.716000  0.502000  1
  H  H965  1  0.214000  0.047000  0.998000  1
  H  H966  1  0.951000  0.714000  0.498000  1
  H  H967  1  0.784000  0.451000  0.998000  1
  H  H968  1  0.547000  0.284000  0.498000  1
  H  H969  1  0.799000  0.900000  0.018000  1
  H  H970  1  0.118000  0.299000  0.518000  1
  H  H971  1  0.219000  0.618000  0.018000  1
  H  H972  1  0.400000  0.719000  0.518000  1
  H  H973  1  0.201000  0.100000  0.982000  1
  H  H974  1  0.882000  0.701000  0.482000  1
  H  H975  1  0.781000  0.382000  0.982000  1
  H  H976  1  0.600000  0.281000  0.482000  1
  H  H977  1  0.850000  0.940000  0.018000  1
  H  H978  1  0.078000  0.350000  0.518000  1
  H  H979  1  0.168000  0.578000  0.018000  1
  H  H980  1  0.440000  0.668000  0.518000  1
  H  H981  1  0.150000  0.060000  0.982000  1
  H  H982  1  0.922000  0.650000  0.482000  1
  H  H983  1  0.832000  0.422000  0.982000  1
  H  H984  1  0.560000  0.332000  0.482000  1
  H  H985  1  0.889000  0.996000  0.886000  1
  H  H986  1  0.890000  0.389000  0.386000  1
  H  H987  1  0.997000  0.390000  0.886000  1
  H  H988  1  0.496000  0.497000  0.386000  1
  H  H989  1  0.111000  0.004000  0.114000  1
  H  H990  1  0.110000  0.611000  0.614000  1
  H  H991  1  0.003000  0.610000  0.114000  1
  H  H992  1  0.504000  0.503000  0.614000  1
  H  H993  1  0.986000  0.022000  0.944000  1
  H  H994  1  0.922000  0.486000  0.444000  1
  H  H995  1  0.958000  0.422000  0.944000  1
  H  H996  1  0.522000  0.458000  0.444000  1
  H  H997  1  0.014000  0.978000  0.056000  1
  H  H998  1  0.078000  0.514000  0.556000  1
  H  H999  1  0.042000  0.578000  0.056000  1
  H  H1000  1  0.478000  0.542000  0.556000  1
  H  H1001  1  0.999000  0.017000  0.906000  1
  H  H1002  1  0.889000  0.499000  0.406000  1
  H  H1003  1  0.907000  0.389000  0.906000  1
  H  H1004  1  0.517000  0.407000  0.406000  1
  H  H1005  1  0.001000  0.983000  0.094000  1
  H  H1006  1  0.111000  0.501000  0.594000  1
  H  H1007  1  0.093000  0.611000  0.094000  1
  H  H1008  1  0.483000  0.593000  0.594000  1
  H  H1009  1  0.022000  0.074000  0.942000  1
  H  H1010  1  0.868000  0.522000  0.442000  1
  H  H1011  1  0.920000  0.368000  0.942000  1
  H  H1012  1  0.574000  0.420000  0.442000  1
  H  H1013  1  0.978000  0.926000  0.058000  1
  H  H1014  1  0.132000  0.478000  0.558000  1
  H  H1015  1  0.080000  0.632000  0.058000  1
  H  H1016  1  0.426000  0.580000  0.558000  1
  H  H1017  1  0.917000  0.148000  0.914000  1
  H  H1018  1  0.766000  0.417000  0.414000  1
  H  H1019  1  0.997000  0.266000  0.914000  1
  H  H1020  1  0.648000  0.497000  0.414000  1
  H  H1021  1  0.083000  0.852000  0.086000  1
  H  H1022  1  0.234000  0.583000  0.586000  1
  H  H1023  1  0.003000  0.734000  0.086000  1
  H  H1024  1  0.352000  0.503000  0.586000  1
  H  H1025  1  0.915000  0.136000  0.950000  1
  H  H1026  1  0.814000  0.415000  0.450000  1
  H  H1027  1  0.035000  0.314000  0.950000  1
  H  H1028  1  0.636000  0.535000  0.450000  1
  H  H1029  1  0.085000  0.864000  0.050000  1
  H  H1030  1  0.186000  0.585000  0.550000  1
  H  H1031  1  0.965000  0.686000  0.050000  1
  H  H1032  1  0.364000  0.465000  0.550000  1
  H  H1033  1  0.976000  0.149000  0.946000  1
  H  H1034  1  0.797000  0.476000  0.446000  1
  H  H1035  1  0.970000  0.297000  0.946000  1
  H  H1036  1  0.649000  0.470000  0.446000  1
  H  H1037  1  0.024000  0.851000  0.054000  1
  H  H1038  1  0.203000  0.524000  0.554000  1
  H  H1039  1  0.030000  0.703000  0.054000  1
  H  H1040  1  0.351000  0.530000  0.554000  1
  H  H1041  1  0.359000  0.077000  0.852000  1
  H  H1042  1  0.775000  0.859000  0.352000  1
  H  H1043  1  0.493000  0.275000  0.852000  1
  H  H1044  1  0.577000  0.993000  0.352000  1
  H  H1045  1  0.641000  0.923000  0.148000  1
  H  H1046  1  0.225000  0.141000  0.648000  1
  H  H1047  1  0.507000  0.725000  0.148000  1
  H  H1048  1  0.423000  0.007000  0.648000  1
  H  H1049  1  0.362000  0.082000  0.786000  1
  H  H1050  1  0.704000  0.862000  0.286000  1
  H  H1051  1  0.424000  0.204000  0.786000  1
  H  H1052  1  0.582000  0.924000  0.286000  1
  H  H1053  1  0.638000  0.918000  0.214000  1
  H  H1054  1  0.296000  0.138000  0.714000  1
  H  H1055  1  0.576000  0.796000  0.214000  1
  H  H1056  1  0.418000  0.076000  0.714000  1
  H  H1057  1  0.422000  0.107000  0.816000  1
  H  H1058  1  0.709000  0.922000  0.316000  1
  H  H1059  1  0.394000  0.209000  0.816000  1
  H  H1060  1  0.607000  0.894000  0.316000  1
  H  H1061  1  0.578000  0.893000  0.184000  1
  H  H1062  1  0.291000  0.078000  0.684000  1
  H  H1063  1  0.606000  0.791000  0.184000  1
  H  H1064  1  0.393000  0.106000  0.684000  1
  H  H1065  1  0.420000  0.060000  0.778000  1
  H  H1066  1  0.718000  0.920000  0.278000  1
  H  H1067  1  0.358000  0.218000  0.778000  1
  H  H1068  1  0.560000  0.858000  0.278000  1
  H  H1069  1  0.580000  0.940000  0.222000  1
  H  H1070  1  0.282000  0.080000  0.722000  1
  H  H1071  1  0.642000  0.782000  0.222000  1
  H  H1072  1  0.440000  0.142000  0.722000  1
  H  H1073  1  0.432000  0.965000  0.780000  1
  H  H1074  1  0.815000  0.932000  0.280000  1
  H  H1075  1  0.348000  0.315000  0.780000  1
  H  H1076  1  0.465000  0.848000  0.280000  1
  H  H1077  1  0.568000  0.035000  0.220000  1
  H  H1078  1  0.185000  0.068000  0.720000  1
  H  H1079  1  0.652000  0.685000  0.220000  1
  H  H1080  1  0.535000  0.152000  0.720000  1
  H  H1081  1  0.382000  0.939000  0.790000  1
  H  H1082  1  0.851000  0.882000  0.290000  1
  H  H1083  1  0.408000  0.351000  0.790000  1
  H  H1084  1  0.439000  0.908000  0.290000  1
  H  H1085  1  0.618000  0.061000  0.210000  1
  H  H1086  1  0.149000  0.118000  0.710000  1
  H  H1087  1  0.592000  0.649000  0.210000  1
  H  H1088  1  0.561000  0.092000  0.710000  1
  H  H1089  1  0.444000  0.959000  0.820000  1
  H  H1090  1  0.861000  0.944000  0.320000  1
  H  H1091  1  0.376000  0.361000  0.820000  1
  H  H1092  1  0.459000  0.876000  0.320000  1
  H  H1093  1  0.556000  0.041000  0.180000  1
  H  H1094  1  0.139000  0.056000  0.680000  1
  H  H1095  1  0.624000  0.639000  0.180000  1
  H  H1096  1  0.541000  0.124000  0.680000  1
  H  H1097  1  0.030000  0.024000  0.286000  1
  H  H1098  1  0.262000  0.530000  0.786000  1
  H  H1099  1  0.256000  0.762000  0.286000  1
  H  H1100  1  0.524000  0.756000  0.786000  1
  H  H1101  1  0.970000  0.976000  0.714000  1
  H  H1102  1  0.738000  0.470000  0.214000  1
  H  H1103  1  0.744000  0.238000  0.714000  1
  H  H1104  1  0.476000  0.244000  0.214000  1
  H  H1105  1  0.011000  0.986000  0.154000  1
  H  H1106  1  0.168000  0.511000  0.654000  1
  H  H1107  1  0.143000  0.668000  0.154000  1
  H  H1108  1  0.486000  0.643000  0.654000  1
  H  H1109  1  0.989000  0.014000  0.846000  1
  H  H1110  1  0.832000  0.489000  0.346000  1
  H  H1111  1  0.857000  0.332000  0.846000  1
  H  H1112  1  0.514000  0.357000  0.346000  1
  H  H1113  1  0.062000  0.312000  0.124000  1
  H  H1114  1  0.812000  0.562000  0.624000  1
  H  H1115  1  0.938000  0.688000  0.876000  1
  H  H1116  1  0.188000  0.438000  0.376000  1
  H  H1117  1  0.970000  0.259000  0.294000  1
  H  H1118  1  0.035000  0.470000  0.794000  1
  H  H1119  1  0.324000  0.535000  0.294000  1
  H  H1120  1  0.759000  0.824000  0.794000  1
  H  H1121  1  0.030000  0.741000  0.706000  1
  H  H1122  1  0.965000  0.530000  0.206000  1
  H  H1123  1  0.676000  0.465000  0.706000  1
  H  H1124  1  0.241000  0.176000  0.206000  1
  H  H1125  1  0.687000  0.966000  0.696000  1
  H  H1126  1  0.730000  0.187000  0.196000  1
  H  H1127  1  0.009000  0.230000  0.696000  1
  H  H1128  1  0.466000  0.509000  0.196000  1
  H  H1129  1  0.313000  0.034000  0.304000  1
  H  H1130  1  0.270000  0.813000  0.804000  1
  H  H1131  1  0.991000  0.770000  0.304000  1
  H  H1132  1  0.534000  0.491000  0.804000  1
  H  H1133  1  0.741000  0.052000  0.832000  1
  H  H1134  1  0.780000  0.241000  0.332000  1
  H  H1135  1  0.091000  0.280000  0.832000  1
  H  H1136  1  0.552000  0.591000  0.332000  1
  H  H1137  1  0.259000  0.948000  0.168000  1
  H  H1138  1  0.220000  0.759000  0.668000  1
  H  H1139  1  0.909000  0.720000  0.168000  1
  H  H1140  1  0.448000  0.409000  0.668000  1
  H  H1141  1  0.772000  0.930000  0.700000  1
  H  H1142  1  0.770000  0.272000  0.200000  1
  H  H1143  1  0.928000  0.270000  0.700000  1
  H  H1144  1  0.430000  0.428000  0.200000  1
  H  H1145  1  0.228000  0.070000  0.300000  1
  H  H1146  1  0.230000  0.728000  0.800000  1
  H  H1147  1  0.072000  0.730000  0.300000  1
  H  H1148  1  0.570000  0.572000  0.800000  1
  H  H1149  1  0.510000  0.260000  0.020000  1
  H  H1150  1  0.760000  0.010000  0.520000  1
  H  H1151  1  0.490000  0.740000  0.980000  1
  H  H1152  1  0.240000  0.990000  0.480000  1
  H  H1153  1  0.033000  0.360000  0.232000  1
  H  H1154  1  0.872000  0.533000  0.732000  1
  H  H1155  1  0.199000  0.372000  0.232000  1
  H  H1156  1  0.860000  0.699000  0.732000  1
  H  H1157  1  0.967000  0.640000  0.768000  1
  H  H1158  1  0.128000  0.467000  0.268000  1
  H  H1159  1  0.801000  0.628000  0.768000  1
  H  H1160  1  0.140000  0.301000  0.268000  1
  H  H1161  1  0.929000  0.344000  0.232000  1
  H  H1162  1  0.888000  0.429000  0.732000  1
  H  H1163  1  0.303000  0.388000  0.232000  1
  H  H1164  1  0.844000  0.803000  0.732000  1
  H  H1165  1  0.071000  0.656000  0.768000  1
  H  H1166  1  0.112000  0.571000  0.268000  1
  H  H1167  1  0.697000  0.612000  0.768000  1
  H  H1168  1  0.156000  0.197000  0.268000  1
  H  H1169  1  0.845000  0.852000  0.930000  1
  H  H1170  1  0.078000  0.345000  0.430000  1
  H  H1171  1  0.085000  0.578000  0.930000  1
  H  H1172  1  0.352000  0.585000  0.430000  1
  H  H1173  1  0.155000  0.148000  0.070000  1
  H  H1174  1  0.922000  0.655000  0.570000  1
  H  H1175  1  0.915000  0.422000  0.070000  1
  H  H1176  1  0.648000  0.415000  0.570000  1
  H  H1177  1  0.993000  0.243000  0.986000  1.0
  H  H1178  1  0.743000  0.493000  0.486000  1.0
  H  H1179  1  0.007000  0.757000  0.014000  1.0
  H  H1180  1  0.257000  0.507000  0.514000  1.0
  H  H1181  1  0.441000  0.191000  0.882000  1.0
  H  H1182  1  0.691000  0.941000  0.382000  1.0
  H  H1183  1  0.559000  0.809000  0.118000  1.0
  H  H1184  1  0.309000  0.059000  0.618000  1.0
  H  H1185  1  0.065000  0.099000  0.264000  1.0
  H  H1186  1  0.165000  0.565000  0.764000  1.0
  H  H1187  1  0.199000  0.665000  0.264000  1.0
  H  H1188  1  0.599000  0.699000  0.764000  1.0
  H  H1189  1  0.935000  0.901000  0.736000  1.0
  H  H1190  1  0.835000  0.435000  0.236000  1.0
  H  H1191  1  0.801000  0.335000  0.736000  1.0
  H  H1192  1  0.401000  0.301000  0.236000  1.0
  H  H1193  1  0.975000  0.912000  0.174000  1.0
  H  H1194  1  0.262000  0.475000  0.674000  1.0
  H  H1195  1  0.199000  0.762000  0.174000  1.0
  H  H1196  1  0.412000  0.699000  0.674000  1.0
  H  H1197  1  0.025000  0.088000  0.826000  1.0
  H  H1198  1  0.738000  0.525000  0.326000  1.0
  H  H1199  1  0.801000  0.238000  0.826000  1.0
  H  H1200  1  0.588000  0.301000  0.326000  1.0
  H  H1201  1  0.951000  0.930000  0.254000  1.0
  H  H1202  1  0.324000  0.451000  0.754000  1.0
  H  H1203  1  0.303000  0.824000  0.254000  1.0
  H  H1204  1  0.430000  0.803000  0.754000  1.0
  H  H1205  1  0.049000  0.070000  0.746000  1.0
  H  H1206  1  0.676000  0.549000  0.246000  1.0
  H  H1207  1  0.697000  0.176000  0.746000  1.0
  H  H1208  1  0.570000  0.197000  0.246000  1.0
  H  H1209  1  0.012000  0.906000  0.260000  1.0
  H  H1210  1  0.354000  0.512000  0.760000  1.0
  H  H1211  1  0.248000  0.854000  0.260000  1.0
  H  H1212  1  0.406000  0.748000  0.760000  1.0
  H  H1213  1  0.988000  0.094000  0.740000  1.0
  H  H1214  1  0.646000  0.488000  0.240000  1.0
  H  H1215  1  0.752000  0.146000  0.740000  1.0
  H  H1216  1  0.594000  0.252000  0.240000  1.0
  H  H1217  1  0.964000  0.882000  0.220000  1.0
  H  H1218  1  0.338000  0.464000  0.720000  1.0
  H  H1219  1  0.256000  0.838000  0.220000  1.0
  H  H1220  1  0.382000  0.756000  0.720000  1.0
  H  H1221  1  0.036000  0.118000  0.780000  1.0
  H  H1222  1  0.662000  0.536000  0.280000  1.0
  H  H1223  1  0.744000  0.162000  0.780000  1.0
  H  H1224  1  0.618000  0.244000  0.280000  1.0
  H  H1225  1  0.234000  0.024000  0.130000  1.0
  H  H1226  1  0.106000  0.734000  0.630000  1.0
  H  H1227  1  0.896000  0.606000  0.130000  1.0
  H  H1228  1  0.524000  0.396000  0.630000  1.0
  H  H1229  1  0.766000  0.976000  0.870000  1.0
  H  H1230  1  0.894000  0.266000  0.370000  1.0
  H  H1231  1  0.104000  0.394000  0.870000  1.0
  H  H1232  1  0.476000  0.604000  0.370000  1.0
  H  H1233  1  0.316000  0.989000  0.112000  1.0
  H  H1234  1  0.123000  0.816000  0.612000  1.0
  H  H1235  1  0.796000  0.623000  0.112000  1.0
  H  H1236  1  0.489000  0.296000  0.612000  1.0
  H  H1237  1  0.684000  0.011000  0.888000  1.0
  H  H1238  1  0.877000  0.184000  0.388000  1.0
  H  H1239  1  0.204000  0.377000  0.888000  1.0
  H  H1240  1  0.511000  0.704000  0.388000  1.0
  H  H1241  1  0.395000  0.153000  0.152000  1.0
  H  H1242  1  0.999000  0.895000  0.652000  1.0
  H  H1243  1  0.757000  0.499000  0.152000  1.0
  H  H1244  1  0.653000  0.257000  0.652000  1.0
  H  H1245  1  0.605000  0.847000  0.848000  1.0
  H  H1246  1  0.001000  0.105000  0.348000  1.0
  H  H1247  1  0.243000  0.501000  0.848000  1.0
  H  H1248  1  0.347000  0.743000  0.348000  1.0
  H  H1249  1  0.312000  0.192000  0.170000  1.0
  H  H1250  1  0.978000  0.812000  0.670000  1.0
  H  H1251  1  0.858000  0.478000  0.170000  1.0
  H  H1252  1  0.692000  0.358000  0.670000  1.0
  H  H1253  1  0.688000  0.808000  0.830000  1.0
  H  H1254  1  0.022000  0.188000  0.330000  1.0
  H  H1255  1  0.142000  0.522000  0.830000  1.0
  H  H1256  1  0.308000  0.642000  0.330000  1.0
  H  H1257  1  0.407000  0.003000  0.106000  1.0
  H  H1258  1  0.103000  0.907000  0.606000  1.0
  H  H1259  1  0.699000  0.603000  0.106000  1.0
  H  H1260  1  0.503000  0.199000  0.606000  1.0
  H  H1261  1  0.593000  0.997000  0.894000  1.0
  H  H1262  1  0.897000  0.093000  0.394000  1.0
  H  H1263  1  0.301000  0.397000  0.894000  1.0
  H  H1264  1  0.497000  0.801000  0.394000  1.0
  H  H1265  1  0.420000  0.062000  0.100000  1.0
  H  H1266  1  0.038000  0.920000  0.600000  1.0
  H  H1267  1  0.680000  0.538000  0.100000  1.0
  H  H1268  1  0.562000  0.180000  0.600000  1.0
  H  H1269  1  0.580000  0.938000  0.900000  1.0
  H  H1270  1  0.962000  0.080000  0.400000  1.0
  H  H1271  1  0.320000  0.462000  0.900000  1.0
  H  H1272  1  0.438000  0.820000  0.400000  1.0
  H  H1273  1  0.446000  0.055000  0.140000  1.0
  H  H1274  1  0.085000  0.946000  0.640000  1.0
  H  H1275  1  0.694000  0.585000  0.140000  1.0
  H  H1276  1  0.555000  0.194000  0.640000  1.0
  H  H1277  1  0.554000  0.945000  0.860000  1.0
  H  H1278  1  0.915000  0.054000  0.360000  1.0
  H  H1279  1  0.306000  0.415000  0.860000  1.0
  H  H1280  1  0.445000  0.806000  0.360000  1.0
  H  H1281  1  0.994000  0.048000  0.032000  1.0
  H  H1282  1  0.984000  0.494000  0.532000  1.0
  H  H1283  1  0.038000  0.484000  0.032000  1.0
  H  H1284  1  0.548000  0.538000  0.532000  1.0
  H  H1285  1  0.006000  0.952000  0.968000  1.0
  H  H1286  1  0.016000  0.506000  0.468000  1.0
  H  H1287  1  0.962000  0.516000  0.968000  1.0
  H  H1288  1  0.452000  0.462000  0.468000  1.0
  H  H1289  1  0.907000  0.007000  0.978000  1.0
  H  H1290  1  0.971000  0.407000  0.478000  1.0
  H  H1291  1  0.071000  0.471000  0.978000  1.0
  H  H1292  1  0.507000  0.571000  0.478000  1.0
  H  H1293  1  0.093000  0.993000  0.022000  1.0
  H  H1294  1  0.029000  0.593000  0.522000  1.0
  H  H1295  1  0.929000  0.529000  0.022000  1.0
  H  H1296  1  0.493000  0.429000  0.522000  1.0
  H  H1297  1  0.834000  0.153000  0.020000  1.0
  H  H1298  1  0.867000  0.334000  0.520000  1.0
  H  H1299  1  0.186000  0.367000  0.020000  1.0
  H  H1300  1  0.653000  0.686000  0.520000  1.0
  H  H1301  1  0.166000  0.847000  0.980000  1.0
  H  H1302  1  0.133000  0.666000  0.480000  1.0
  H  H1303  1  0.814000  0.633000  0.980000  1.0
  H  H1304  1  0.347000  0.314000  0.480000  1.0
  H  H1305  1  0.924000  0.193000  0.070000  1.0
  H  H1306  1  0.877000  0.424000  0.570000  1.0
  H  H1307  1  0.146000  0.377000  0.070000  1.0
  H  H1308  1  0.693000  0.646000  0.570000  1.0
  H  H1309  1  0.076000  0.807000  0.930000  1.0
  H  H1310  1  0.123000  0.576000  0.430000  1.0
  H  H1311  1  0.854000  0.623000  0.930000  1.0
  H  H1312  1  0.307000  0.354000  0.430000  1.0
  H  H1313  1  0.773000  0.048000  0.972000  1.0
  H  H1314  1  0.924000  0.273000  0.472000  1.0
  H  H1315  1  0.199000  0.424000  0.972000  1.0
  H  H1316  1  0.548000  0.699000  0.472000  1.0
  H  H1317  1  0.227000  0.952000  0.028000  1.0
  H  H1318  1  0.076000  0.727000  0.528000  1.0
  H  H1319  1  0.801000  0.576000  0.028000  1.0
  H  H1320  1  0.452000  0.301000  0.528000  1.0
  H  H1321  1  0.805000  0.014000  0.944000  1.0
  H  H1322  1  0.930000  0.305000  0.444000  1.0
  H  H1323  1  0.139000  0.430000  0.944000  1.0
  H  H1324  1  0.514000  0.639000  0.444000  1.0
  H  H1325  1  0.195000  0.986000  0.056000  1.0
  H  H1326  1  0.070000  0.695000  0.556000  1.0
  H  H1327  1  0.861000  0.570000  0.056000  1.0
  H  H1328  1  0.486000  0.361000  0.556000  1.0
  H  H1329  1  0.790000  0.077000  0.946000  1.0
  H  H1330  1  0.869000  0.290000  0.446000  1.0
  H  H1331  1  0.156000  0.369000  0.946000  1.0
  H  H1332  1  0.577000  0.656000  0.446000  1.0
  H  H1333  1  0.210000  0.923000  0.054000  1.0
  H  H1334  1  0.131000  0.710000  0.554000  1.0
  H  H1335  1  0.844000  0.631000  0.054000  1.0
  H  H1336  1  0.423000  0.344000  0.554000  1.0
  H  H1337  1  0.018000  0.178000  0.024000  1.0
  H  H1338  1  0.846000  0.518000  0.524000  1.0
  H  H1339  1  0.006000  0.346000  0.024000  1.0
  H  H1340  1  0.678000  0.506000  0.524000  1.0
  H  H1341  1  0.982000  0.822000  0.976000  1.0
  H  H1342  1  0.154000  0.482000  0.476000  1.0
  H  H1343  1  0.994000  0.654000  0.976000  1.0
  H  H1344  1  0.322000  0.494000  0.476000  1.0
  H  H1345  1  0.921000  0.098000  0.178000  1.0
  H  H1346  1  0.080000  0.421000  0.678000  1.0
  H  H1347  1  0.257000  0.580000  0.178000  1.0
  H  H1348  1  0.598000  0.757000  0.678000  1.0
  H  H1349  1  0.079000  0.902000  0.822000  1.0
  H  H1350  1  0.920000  0.579000  0.322000  1.0
  H  H1351  1  0.743000  0.420000  0.822000  1.0
  H  H1352  1  0.402000  0.243000  0.322000  1.0
  H  H1353  1  0.851000  0.131000  0.210000  1.0
  H  H1354  1  0.079000  0.351000  0.710000  1.0
  H  H1355  1  0.359000  0.579000  0.210000  1.0
  H  H1356  1  0.631000  0.859000  0.710000  1.0
  H  H1357  1  0.149000  0.869000  0.790000  1.0
  H  H1358  1  0.921000  0.649000  0.290000  1.0
  H  H1359  1  0.641000  0.421000  0.790000  1.0
  H  H1360  1  0.369000  0.141000  0.290000  1.0
  H  H1361  1  0.874000  0.207000  0.268000  1.0
  H  H1362  1  0.061000  0.374000  0.768000  1.0
  H  H1363  1  0.394000  0.561000  0.268000  1.0
  H  H1364  1  0.707000  0.894000  0.768000  1.0
  H  H1365  1  0.126000  0.793000  0.732000  1.0
  H  H1366  1  0.939000  0.626000  0.232000  1.0
  H  H1367  1  0.606000  0.439000  0.732000  1.0
  H  H1368  1  0.293000  0.106000  0.232000  1.0
  H  H1369  1  0.039000  0.236000  0.262000  1.0
  H  H1370  1  0.026000  0.539000  0.762000  1.0
  H  H1371  1  0.223000  0.526000  0.262000  1.0
  H  H1372  1  0.736000  0.723000  0.762000  1.0
  H  H1373  1  0.961000  0.764000  0.738000  1.0
  H  H1374  1  0.974000  0.461000  0.238000  1.0
  H  H1375  1  0.777000  0.474000  0.738000  1.0
  H  H1376  1  0.264000  0.277000  0.238000  1.0
  H  H1377  1  0.696000  0.167000  0.976000  1.0
  H  H1378  1  0.809000  0.196000  0.476000  1.0
  H  H1379  1  0.280000  0.309000  0.976000  1.0
  H  H1380  1  0.667000  0.780000  0.476000  1.0
  H  H1381  1  0.304000  0.833000  0.024000  1.0
  H  H1382  1  0.191000  0.804000  0.524000  1.0
  H  H1383  1  0.720000  0.691000  0.024000  1.0
  H  H1384  1  0.333000  0.220000  0.524000  1.0
  H  H1385  1  0.723000  0.129000  0.028000  1.0
  H  H1386  1  0.899000  0.223000  0.528000  1.0
  H  H1387  1  0.305000  0.399000  0.028000  1.0
  H  H1388  1  0.629000  0.805000  0.528000  1.0
  H  H1389  1  0.277000  0.871000  0.972000  1.0
  H  H1390  1  0.101000  0.777000  0.472000  1.0
  H  H1391  1  0.695000  0.601000  0.972000  1.0
  H  H1392  1  0.371000  0.195000  0.472000  1.0
  H  H1393  1  0.561000  0.037000  0.986000  1.0
  H  H1394  1  0.949000  0.061000  0.486000  1.0
  H  H1395  1  0.425000  0.449000  0.986000  1.0
  H  H1396  1  0.537000  0.925000  0.486000  1.0
  H  H1397  1  0.439000  0.963000  0.014000  1.0
  H  H1398  1  0.051000  0.939000  0.514000  1.0
  H  H1399  1  0.575000  0.551000  0.014000  1.0
  H  H1400  1  0.463000  0.075000  0.514000  1.0
  H  H1401  1  0.533000  0.074000  0.936000  1.0
  H  H1402  1  0.862000  0.033000  0.436000  1.0
  H  H1403  1  0.403000  0.362000  0.936000  1.0
  H  H1404  1  0.574000  0.903000  0.436000  1.0
  H  H1405  1  0.467000  0.926000  0.064000  1.0
  H  H1406  1  0.138000  0.967000  0.564000  1.0
  H  H1407  1  0.597000  0.638000  0.064000  1.0
  H  H1408  1  0.426000  0.097000  0.564000  1.0
  H  H1409  1  0.641000  0.022000  0.042000  1.0
  H  H1410  1  0.020000  0.141000  0.542000  1.0
  H  H1411  1  0.401000  0.520000  0.042000  1.0
  H  H1412  1  0.522000  0.901000  0.542000  1.0
  H  H1413  1  0.359000  0.978000  0.958000  1.0
  H  H1414  1  0.980000  0.859000  0.458000  1.0
  H  H1415  1  0.599000  0.480000  0.958000  1.0
  H  H1416  1  0.478000  0.099000  0.458000  1.0
  H  H1417  1  0.683000  0.079000  0.066000  1.0
  H  H1418  1  0.987000  0.183000  0.566000  1.0
  H  H1419  1  0.383000  0.487000  0.066000  1.0
  H  H1420  1  0.579000  0.883000  0.566000  1.0
  H  H1421  1  0.317000  0.921000  0.934000  1.0
  H  H1422  1  0.013000  0.817000  0.434000  1.0
  H  H1423  1  0.617000  0.513000  0.934000  1.0
  H  H1424  1  0.421000  0.117000  0.434000  1.0
  H  H1425  1  0.703000  0.027000  0.038000  1.0
  H  H1426  1  0.011000  0.203000  0.538000  1.0
  H  H1427  1  0.335000  0.511000  0.038000  1.0
  H  H1428  1  0.527000  0.835000  0.538000  1.0
  H  H1429  1  0.297000  0.973000  0.962000  1.0
  H  H1430  1  0.989000  0.797000  0.462000  1.0
  H  H1431  1  0.665000  0.489000  0.962000  1.0
  H  H1432  1  0.473000  0.165000  0.462000  1.0
  H  H1433  1  0.593000  0.364000  0.852000  1.0
  H  H1434  1  0.488000  0.093000  0.352000  1.0
  H  H1435  1  0.259000  0.988000  0.852000  1.0
  H  H1436  1  0.864000  0.759000  0.352000  1.0
  H  H1437  1  0.407000  0.636000  0.148000  1.0
  H  H1438  1  0.512000  0.907000  0.648000  1.0
  H  H1439  1  0.741000  0.012000  0.148000  1.0
  H  H1440  1  0.136000  0.241000  0.648000  1.0
  H  H1441  1  0.647000  0.458000  0.872000  1.0
  H  H1442  1  0.414000  0.147000  0.372000  1.0
  H  H1443  1  0.225000  0.914000  0.872000  1.0
  H  H1444  1  0.958000  0.725000  0.372000  1.0
  H  H1445  1  0.353000  0.542000  0.128000  1.0
  H  H1446  1  0.586000  0.853000  0.628000  1.0
  H  H1447  1  0.775000  0.086000  0.128000  1.0
  H  H1448  1  0.042000  0.275000  0.628000  1.0
  H  H1449  1  0.797000  0.384000  0.904000  1.0
  H  H1450  1  0.520000  0.297000  0.404000  1.0
  H  H1451  1  0.107000  0.020000  0.904000  1.0
  H  H1452  1  0.884000  0.607000  0.404000  1.0
  H  H1453  1  0.203000  0.616000  0.096000  1.0
  H  H1454  1  0.480000  0.703000  0.596000  1.0
  H  H1455  1  0.893000  0.980000  0.096000  1.0
  H  H1456  1  0.116000  0.393000  0.596000  1.0
  H  H1457  1  0.745000  0.291000  0.880000  1.0
  H  H1458  1  0.589000  0.245000  0.380000  1.0
  H  H1459  1  0.135000  0.089000  0.880000  1.0
  H  H1460  1  0.791000  0.635000  0.380000  1.0
  H  H1461  1  0.255000  0.709000  0.120000  1.0
  H  H1462  1  0.411000  0.755000  0.620000  1.0
  H  H1463  1  0.865000  0.911000  0.120000  1.0
  H  H1464  1  0.209000  0.365000  0.620000  1.0
  H  H1465  1  0.758000  0.505000  0.886000  1.0
  H  H1466  1  0.381000  0.258000  0.386000  1.0
  H  H1467  1  0.128000  0.881000  0.886000  1.0
  H  H1468  1  0.005000  0.628000  0.386000  1.0
  H  H1469  1  0.242000  0.495000  0.114000  1.0
  H  H1470  1  0.619000  0.742000  0.614000  1.0
  H  H1471  1  0.872000  0.119000  0.114000  1.0
  H  H1472  1  0.995000  0.372000  0.614000  1.0
  H  H1473  1  0.747000  0.516000  0.924000  1.0
  H  H1474  1  0.408000  0.247000  0.424000  1.0
  H  H1475  1  0.177000  0.908000  0.924000  1.0
  H  H1476  1  0.016000  0.677000  0.424000  1.0
  H  H1477  1  0.253000  0.484000  0.076000  1.0
  H  H1478  1  0.592000  0.753000  0.576000  1.0
  H  H1479  1  0.823000  0.092000  0.076000  1.0
  H  H1480  1  0.984000  0.323000  0.576000  1.0
  H  H1481  1  0.803000  0.489000  0.918000  1.0
  H  H1482  1  0.429000  0.303000  0.418000  1.0
  H  H1483  1  0.115000  0.929000  0.918000  1.0
  H  H1484  1  0.989000  0.615000  0.418000  1.0
  H  H1485  1  0.197000  0.511000  0.082000  1.0
  H  H1486  1  0.571000  0.697000  0.582000  1.0
  H  H1487  1  0.885000  0.071000  0.082000  1.0
  H  H1488  1  0.011000  0.385000  0.582000  1.0
  H  H1489  1  0.618000  0.015000  0.726000  1.0
  H  H1490  1  0.711000  0.118000  0.226000  1.0
  H  H1491  1  0.108000  0.211000  0.726000  1.0
  H  H1492  1  0.515000  0.608000  0.226000  1.0
  H  H1493  1  0.382000  0.985000  0.274000  1.0
  H  H1494  1  0.289000  0.882000  0.774000  1.0
  H  H1495  1  0.892000  0.789000  0.274000  1.0
  H  H1496  1  0.485000  0.392000  0.774000  1.0
  H  H1497  1  0.807000  0.999000  0.802000  1.0
  H  H1498  1  0.803000  0.307000  0.302000  1.0
  H  H1499  1  0.995000  0.303000  0.802000  1.0
  H  H1500  1  0.499000  0.495000  0.302000  1.0
  H  H1501  1  0.193000  0.001000  0.198000  1.0
  H  H1502  1  0.197000  0.693000  0.698000  1.0
  H  H1503  1  0.005000  0.697000  0.198000  1.0
  H  H1504  1  0.501000  0.505000  0.698000  1.0
  H  H1505  1  0.827000  0.969000  0.734000  1.0
  H  H1506  1  0.765000  0.327000  0.234000  1.0
  H  H1507  1  0.907000  0.265000  0.734000  1.0
  H  H1508  1  0.469000  0.407000  0.234000  1.0
  H  H1509  1  0.173000  0.031000  0.266000  1.0
  H  H1510  1  0.235000  0.673000  0.766000  1.0
  H  H1511  1  0.093000  0.735000  0.266000  1.0
  H  H1512  1  0.531000  0.593000  0.766000  1.0
  H  H1513  1  0.802000  0.911000  0.736000  1.0
  H  H1514  1  0.825000  0.302000  0.236000  1.0
  H  H1515  1  0.934000  0.325000  0.736000  1.0
  H  H1516  1  0.411000  0.434000  0.236000  1.0
  H  H1517  1  0.198000  0.089000  0.264000  1.0
  H  H1518  1  0.175000  0.698000  0.764000  1.0
  H  H1519  1  0.066000  0.675000  0.264000  1.0
  H  H1520  1  0.589000  0.566000  0.764000  1.0
  H  H1521  1  0.574000  0.220000  0.984000  1.0
  H  H1522  1  0.764000  0.074000  0.484000  1.0
  H  H1523  1  0.410000  0.264000  0.984000  1.0
  H  H1524  1  0.720000  0.910000  0.484000  1.0
  H  H1525  1  0.426000  0.780000  0.016000  1.0
  H  H1526  1  0.236000  0.926000  0.516000  1.0
  H  H1527  1  0.590000  0.736000  0.016000  1.0
  H  H1528  1  0.280000  0.090000  0.516000  1.0
  H  H1529  1  0.618000  0.944000  0.802000  1.0
  H  H1530  1  0.858000  0.118000  0.302000  1.0
  H  H1531  1  0.184000  0.358000  0.802000  1.0
  H  H1532  1  0.444000  0.684000  0.302000  1.0
  H  H1533  1  0.382000  0.056000  0.198000  1.0
  H  H1534  1  0.142000  0.882000  0.698000  1.0
  H  H1535  1  0.816000  0.642000  0.198000  1.0
  H  H1536  1  0.556000  0.316000  0.698000  1.0
  H  H1537  1  0.572000  0.847000  0.766000  1.0
  H  H1538  1  0.919000  0.072000  0.266000  1.0
  H  H1539  1  0.194000  0.419000  0.766000  1.0
  H  H1540  1  0.347000  0.694000  0.266000  1.0
  H  H1541  1  0.428000  0.153000  0.234000  1.0
  H  H1542  1  0.081000  0.928000  0.734000  1.0
  H  H1543  1  0.806000  0.581000  0.234000  1.0
  H  H1544  1  0.653000  0.306000  0.734000  1.0
  H  H1545  1  0.486000  0.829000  0.712000  1.0
  H  H1546  1  0.883000  0.986000  0.212000  1.0
  H  H1547  1  0.226000  0.383000  0.712000  1.0
  H  H1548  1  0.329000  0.726000  0.212000  1.0
  H  H1549  1  0.514000  0.171000  0.288000  1.0
  H  H1550  1  0.117000  0.014000  0.788000  1.0
  H  H1551  1  0.774000  0.617000  0.288000  1.0
  H  H1552  1  0.671000  0.274000  0.788000  1.0
  H  H1553  1  0.488000  0.006000  0.734000  1.0
  H  H1554  1  0.728000  0.988000  0.234000  1.0
  H  H1555  1  0.246000  0.228000  0.734000  1.0
  H  H1556  1  0.506000  0.746000  0.234000  1.0
  H  H1557  1  0.512000  0.994000  0.266000  1.0
  H  H1558  1  0.272000  0.012000  0.766000  1.0
  H  H1559  1  0.754000  0.772000  0.266000  1.0
  H  H1560  1  0.494000  0.254000  0.766000  1.0
  N  N1561  1  0.960600  0.340600  0.187200  1
  N  N1562  1  0.846600  0.460600  0.687200  1
  N  N1563  1  0.226600  0.346600  0.187200  1
  N  N1564  1  0.840600  0.726600  0.687200  1
  N  N1565  1  0.039400  0.659400  0.812800  1
  N  N1566  1  0.153400  0.539400  0.312800  1
  N  N1567  1  0.773400  0.653400  0.812800  1
  N  N1568  1  0.159400  0.273400  0.312800  1
  N  N1569  1  0.808500  0.885700  0.967000  1
  N  N1570  1  0.081300  0.308500  0.467000  1
  N  N1571  1  0.158500  0.581300  0.967000  1
  N  N1572  1  0.385700  0.658500  0.467000  1
  N  N1573  1  0.191500  0.114300  0.033000  1
  N  N1574  1  0.918700  0.691500  0.533000  1
  N  N1575  1  0.841500  0.418700  0.033000  1
  N  N1576  1  0.614300  0.341500  0.533000  1
  N  N1577  1  0.936900  0.068400  0.913600  1
  N  N1578  1  0.845200  0.436900  0.413600  1
  N  N1579  1  0.976700  0.345200  0.913600  1
  N  N1580  1  0.568400  0.476700  0.413600  1
  N  N1581  1  0.063100  0.931600  0.086400  1
  N  N1582  1  0.154800  0.563100  0.586400  1
  N  N1583  1  0.023300  0.654800  0.086400  1
  N  N1584  1  0.431600  0.523300  0.586400  1
  N  N1585  1  0.397800  0.029100  0.813800  1
  N  N1586  1  0.784700  0.897800  0.313800  1
  N  N1587  1  0.416000  0.284700  0.813800  1
  N  N1588  1  0.529100  0.916000  0.313800  1
  N  N1589  1  0.602200  0.970900  0.186200  1
  N  N1590  1  0.215300  0.102200  0.686200  1
  N  N1591  1  0.584000  0.715300  0.186200  1
  N  N1592  1  0.470900  0.084000  0.686200  1
  N  N1593  1  0.052200  0.096400  0.193800  1.0
  N  N1594  1  0.097400  0.552200  0.693800  1.0
  N  N1595  1  0.141600  0.597400  0.193800  1.0
  N  N1596  1  0.596400  0.641600  0.693800  1.0
  N  N1597  1  0.947800  0.903600  0.806200  1.0
  N  N1598  1  0.902600  0.447800  0.306200  1.0
  N  N1599  1  0.858400  0.402600  0.806200  1.0
  N  N1600  1  0.403600  0.358400  0.306200  1.0
  N  N1601  1  0.217900  0.131500  0.163200  1.0
  N  N1602  1  0.031700  0.717900  0.663200  1.0
  N  N1603  1  0.945300  0.531700  0.163200  1.0
  N  N1604  1  0.631500  0.445300  0.663200  1.0
  N  N1605  1  0.782100  0.868500  0.836800  1.0
  N  N1606  1  0.968300  0.282100  0.336800  1.0
  N  N1607  1  0.054700  0.468300  0.836800  1.0
  N  N1608  1  0.368500  0.554700  0.336800  1.0
  N  N1609  1  0.018100  0.144900  0.085600  1.0
  N  N1610  1  0.940700  0.518100  0.585600  1.0
  N  N1611  1  0.067500  0.440700  0.085600  1.0
  N  N1612  1  0.644900  0.567500  0.585600  1.0
  N  N1613  1  0.981900  0.855100  0.914400  1.0
  N  N1614  1  0.059300  0.481900  0.414400  1.0
  N  N1615  1  0.932500  0.559300  0.914400  1.0
  N  N1616  1  0.355100  0.432500  0.414400  1.0
  N  N1617  1  0.598300  0.147600  0.920200  1.0
  N  N1618  1  0.772600  0.098300  0.420200  1.0
  N  N1619  1  0.321900  0.272600  0.920200  1.0
  N  N1620  1  0.647600  0.821900  0.420200  1.0
  N  N1621  1  0.401700  0.852400  0.079800  1.0
  N  N1622  1  0.227400  0.901700  0.579800  1.0
  N  N1623  1  0.678100  0.727400  0.079800  1.0
  N  N1624  1  0.352400  0.178100  0.579800  1.0
  N  N1625  1  0.632300  0.260800  0.846600  1.0
  N  N1626  1  0.585800  0.132300  0.346600  1.0
  N  N1627  1  0.214300  0.085800  0.846600  1.0
  N  N1628  1  0.760800  0.714300  0.346600  1.0
  N  N1629  1  0.367700  0.739200  0.153400  1.0
  N  N1630  1  0.414200  0.867700  0.653400  1.0
  N  N1631  1  0.785700  0.914200  0.153400  1.0
  N  N1632  1  0.239200  0.285700  0.653400  1.0
  N  N1633  1  0.636700  0.066100  0.801000  1.0
  N  N1634  1  0.734900  0.136700  0.301000  1.0
  N  N1635  1  0.164300  0.234900  0.801000  1.0
  N  N1636  1  0.566100  0.664300  0.301000  1.0
  N  N1637  1  0.363300  0.933900  0.199000  1.0
  N  N1638  1  0.265100  0.863300  0.699000  1.0
  N  N1639  1  0.835700  0.765100  0.199000  1.0
  N  N1640  1  0.433900  0.335700  0.699000  1.0
  O  O1641  1  0.892800  0.380800  0.151600  1
  O  O1642  1  0.770800  0.392800  0.651600  1
  O  O1643  1  0.258800  0.270800  0.151600  1
  O  O1644  1  0.880800  0.758800  0.651600  1
  O  O1645  1  0.107200  0.619200  0.848400  1
  O  O1646  1  0.229200  0.607200  0.348400  1
  O  O1647  1  0.741200  0.729200  0.848400  1
  O  O1648  1  0.119200  0.241200  0.348400  1
  O  O1649  1  0.906100  0.894400  0.977400  1
  O  O1650  1  0.083000  0.406100  0.477400  1
  O  O1651  1  0.071300  0.583000  0.977400  1
  O  O1652  1  0.394400  0.571300  0.477400  1
  O  O1653  1  0.093900  0.105600  0.022600  1
  O  O1654  1  0.917000  0.593900  0.522600  1
  O  O1655  1  0.928700  0.417000  0.022600  1
  O  O1656  1  0.605600  0.428700  0.522600  1
  O  O1657  1  0.840700  0.056200  0.883000  1
  O  O1658  1  0.826800  0.340700  0.383000  1
  O  O1659  1  0.042300  0.326800  0.883000  1
  O  O1660  1  0.556200  0.542300  0.383000  1
  O  O1661  1  0.159300  0.943800  0.117000  1
  O  O1662  1  0.173200  0.659300  0.617000  1
  O  O1663  1  0.957700  0.673200  0.117000  1
  O  O1664  1  0.443800  0.457700  0.617000  1
  O  O1665  1  0.365000  0.001500  0.857000  1
  O  O1666  1  0.855500  0.865000  0.357000  1
  O  O1667  1  0.492000  0.355500  0.857000  1
  O  O1668  1  0.501500  0.992000  0.357000  1
  O  O1669  1  0.635000  0.998500  0.143000  1
  O  O1670  1  0.144500  0.135000  0.643000  1
  O  O1671  1  0.508000  0.644500  0.143000  1
  O  O1672  1  0.498500  0.008000  0.643000  1
  O  O1673  1  0.091900  0.081800  0.173800  1.0
  O  O1674  1  0.092000  0.591900  0.673800  1.0
  O  O1675  1  0.081900  0.592000  0.173800  1.0
  O  O1676  1  0.581800  0.581900  0.673800  1.0
  O  O1677  1  0.908100  0.918200  0.826200  1.0
  O  O1678  1  0.908000  0.408100  0.326200  1.0
  O  O1679  1  0.918100  0.408000  0.826200  1.0
  O  O1680  1  0.418200  0.418100  0.326200  1.0
  O  O1681  1  0.163500  0.109900  0.134000  1.0
  O  O1682  1  0.024100  0.663500  0.634000  1.0
  O  O1683  1  0.970500  0.524100  0.134000  1.0
  O  O1684  1  0.609900  0.470500  0.634000  1.0
  O  O1685  1  0.836500  0.890100  0.866000  1.0
  O  O1686  1  0.975900  0.336500  0.366000  1.0
  O  O1687  1  0.029500  0.475900  0.866000  1.0
  O  O1688  1  0.390100  0.529500  0.366000  1.0
  O  O1689  1  0.037700  0.106900  0.106600  1.0
  O  O1690  1  0.999700  0.537700  0.606600  1.0
  O  O1691  1  0.068900  0.499700  0.106600  1.0
  O  O1692  1  0.606900  0.568900  0.606600  1.0
  O  O1693  1  0.962300  0.893100  0.893400  1.0
  O  O1694  1  0.000300  0.462300  0.393400  1.0
  O  O1695  1  0.931100  0.500300  0.893400  1.0
  O  O1696  1  0.393100  0.431100  0.393400  1.0
  O  O1697  1  0.051400  0.182800  0.185400  1.0
  O  O1698  1  0.002600  0.551400  0.685400  1.0
  O  O1699  1  0.134000  0.502600  0.185400  1.0
  O  O1700  1  0.682800  0.634000  0.685400  1.0
  O  O1701  1  0.948600  0.817200  0.814600  1.0
  O  O1702  1  0.997400  0.448600  0.314600  1.0
  O  O1703  1  0.866000  0.497400  0.814600  1.0
  O  O1704  1  0.317200  0.366000  0.314600  1.0
  O  O1705  1  0.168500  0.190900  0.198800  1.0
  O  O1706  1  0.007900  0.668500  0.698800  1.0
  O  O1707  1  0.030300  0.507900  0.198800  1.0
  O  O1708  1  0.690900  0.530300  0.698800  1.0
  O  O1709  1  0.831500  0.809100  0.801200  1.0
  O  O1710  1  0.992100  0.331500  0.301200  1.0
  O  O1711  1  0.969700  0.492100  0.801200  1.0
  O  O1712  1  0.309100  0.469700  0.301200  1.0
  O  O1713  1  0.093700  0.210600  0.130800  1.0
  O  O1714  1  0.920200  0.593700  0.630800  1.0
  O  O1715  1  0.037100  0.420200  0.130800  1.0
  O  O1716  1  0.710600  0.537100  0.630800  1.0
  O  O1717  1  0.906300  0.789400  0.869200  1.0
  O  O1718  1  0.079800  0.406300  0.369200  1.0
  O  O1719  1  0.962900  0.579800  0.869200  1.0
  O  O1720  1  0.289400  0.462900  0.369200  1.0
  O  O1721  1  0.630300  0.130200  0.894800  1.0
  O  O1722  1  0.764600  0.130300  0.394800  1.0
  O  O1723  1  0.264500  0.264600  0.894800  1.0
  O  O1724  1  0.630200  0.764500  0.394800  1.0
  O  O1725  1  0.369700  0.869800  0.105200  1.0
  O  O1726  1  0.235400  0.869700  0.605200  1.0
  O  O1727  1  0.735500  0.735400  0.105200  1.0
  O  O1728  1  0.369800  0.235500  0.605200  1.0
  O  O1729  1  0.646200  0.232100  0.874400  1.0
  O  O1730  1  0.642300  0.146200  0.374400  1.0
  O  O1731  1  0.228200  0.142300  0.874400  1.0
  O  O1732  1  0.732100  0.728200  0.374400  1.0
  O  O1733  1  0.353800  0.767900  0.125600  1.0
  O  O1734  1  0.357700  0.853800  0.625600  1.0
  O  O1735  1  0.771800  0.857700  0.125600  1.0
  O  O1736  1  0.267900  0.271800  0.625600  1.0
  O  O1737  1  0.659100  0.120400  0.827600  1.0
  O  O1738  1  0.707200  0.159100  0.327600  1.0
  O  O1739  1  0.168500  0.207200  0.827600  1.0
  O  O1740  1  0.620400  0.668500  0.327600  1.0
  O  O1741  1  0.340900  0.879600  0.172400  1.0
  O  O1742  1  0.292800  0.840900  0.672400  1.0
  O  O1743  1  0.831500  0.792800  0.172400  1.0
  O  O1744  1  0.379600  0.331500  0.672400  1.0
  O  O1745  1  0.537800  0.179000  0.874200  1.0
  O  O1746  1  0.695200  0.037800  0.374200  1.0
  O  O1747  1  0.336400  0.195200  0.874200  1.0
  O  O1748  1  0.679000  0.836400  0.374200  1.0
  O  O1749  1  0.462200  0.821000  0.125800  1.0
  O  O1750  1  0.304800  0.962200  0.625800  1.0
  O  O1751  1  0.663600  0.804800  0.125800  1.0
  O  O1752  1  0.321000  0.163600  0.625800  1.0
  O  O1753  1  0.562000  0.189500  0.807600  1.0
  O  O1754  1  0.618100  0.062000  0.307600  1.0
  O  O1755  1  0.245600  0.118100  0.807600  1.0
  O  O1756  1  0.689500  0.745600  0.307600  1.0
  O  O1757  1  0.438000  0.810500  0.192400  1.0
  O  O1758  1  0.381900  0.938000  0.692400  1.0
  O  O1759  1  0.754400  0.881900  0.192400  1.0
  O  O1760  1  0.310500  0.254400  0.692400  1.0
  O  O1761  1  0.552300  0.079200  0.814200  1.0
  O  O1762  1  0.735000  0.052300  0.314200  1.0
  O  O1763  1  0.261900  0.235000  0.814200  1.0
  O  O1764  1  0.579200  0.761900  0.314200  1.0
  O  O1765  1  0.447700  0.920800  0.185800  1.0
  O  O1766  1  0.265000  0.947700  0.685800  1.0
  O  O1767  1  0.738100  0.765000  0.185800  1.0
  O  O1768  1  0.420800  0.238100  0.685800  1.0
