# generated using pymatgen
data_Ga4H163C226(N5O8)4
_symmetry_space_group_name_H-M   'P 1'
_cell_length_a   24.07380000
_cell_length_b   24.07380000
_cell_length_c   38.28412252
_cell_angle_alpha   108.32518243
_cell_angle_beta   108.32518243
_cell_angle_gamma   90.00000000
_symmetry_Int_Tables_number   1
_chemical_formula_structural   Ga4H163C226(N5O8)4
_chemical_formula_sum   'Ga16 H652 C904 N80 O128'
_cell_volume   19873.50702141
_cell_formula_units_Z   4
loop_
 _symmetry_equiv_pos_site_id
 _symmetry_equiv_pos_as_xyz
  1  'x, y, z'
loop_
 _atom_site_type_symbol
 _atom_site_label
 _atom_site_symmetry_multiplicity
 _atom_site_fract_x
 _atom_site_fract_y
 _atom_site_fract_z
 _atom_site_occupancy
  C  C1  1  0.940800  0.369600  0.161800  1
  C  C2  1  0.792200  0.440800  0.661800  1
  C  C3  1  0.869600  0.721000  0.661800  1
  C  C4  1  0.779000  0.707800  0.838200  1
  C  C5  1  0.130400  0.279000  0.338200  1
  C  C6  1  0.059200  0.630400  0.838200  1
  C  C7  1  0.207800  0.559200  0.338200  1
  C  C8  1  0.221000  0.292200  0.161800  1
  C  C9  1  0.020600  0.336300  0.204600  1
  C  C10  1  0.868300  0.520600  0.704600  1
  C  C11  1  0.836300  0.684000  0.704600  1
  C  C12  1  0.816000  0.631700  0.795400  1
  C  C13  1  0.163700  0.316000  0.295400  1
  C  C14  1  0.979400  0.663700  0.795400  1
  C  C15  1  0.131700  0.479400  0.295400  1
  C  C16  1  0.184000  0.368300  0.204600  1
  C  C17  1  0.919100  0.320800  0.204600  1
  C  C18  1  0.883800  0.419100  0.704600  1
  C  C19  1  0.820800  0.785500  0.704600  1
  C  C20  1  0.714500  0.616200  0.795400  1
  C  C21  1  0.179200  0.214500  0.295400  1
  C  C22  1  0.080900  0.679200  0.795400  1
  C  C23  1  0.116200  0.580900  0.295400  1
  C  C24  1  0.285500  0.383800  0.204600  1
  C  C25  1  0.856300  0.875200  0.955000  1
  C  C26  1  0.079800  0.356300  0.455000  1
  C  C27  1  0.375200  0.598700  0.455000  1
  C  C28  1  0.901300  0.420200  0.045000  1
  C  C29  1  0.624800  0.401300  0.545000  1
  C  C30  1  0.143700  0.124800  0.045000  1
  C  C31  1  0.920200  0.643700  0.545000  1
  C  C32  1  0.098700  0.579800  0.955000  1
  C  C33  1  0.752600  0.861300  0.941400  1
  C  C34  1  0.080100  0.252600  0.441400  1
  C  C35  1  0.361300  0.688800  0.441400  1
  C  C36  1  0.811200  0.419900  0.058600  1
  C  C37  1  0.638700  0.311200  0.558600  1
  C  C38  1  0.247400  0.138700  0.058600  1
  C  C39  1  0.919900  0.747400  0.558600  1
  C  C40  1  0.188800  0.580100  0.941400  1
  C  C41  1  0.814000  0.922600  0.005200  1
  C  C42  1  0.082600  0.314000  0.505200  1
  C  C43  1  0.422600  0.691200  0.505200  1
  C  C44  1  0.808800  0.417400  0.994800  1
  C  C45  1  0.577400  0.308800  0.494800  1
  C  C46  1  0.186000  0.077400  0.994800  1
  C  C47  1  0.917400  0.686000  0.494800  1
  C  C48  1  0.191200  0.582600  0.005200  1
  C  C49  1  0.887600  0.038800  0.893000  1
  C  C50  1  0.854200  0.387600  0.393000  1
  C  C51  1  0.538800  0.505400  0.393000  1
  C  C52  1  0.994600  0.645800  0.107000  1
  C  C53  1  0.461200  0.494600  0.607000  1
  C  C54  1  0.112400  0.961200  0.107000  1
  C  C55  1  0.145800  0.612400  0.607000  1
  C  C56  1  0.005400  0.354200  0.893000  1
  C  C57  1  0.990600  0.044600  0.928000  1
  C  C58  1  0.883400  0.490600  0.428000  1
  C  C59  1  0.544600  0.437400  0.428000  1
  C  C60  1  0.062600  0.616600  0.072000  1
  C  C61  1  0.455400  0.562600  0.572000  1
  C  C62  1  0.009400  0.955400  0.072000  1
  C  C63  1  0.116600  0.509400  0.572000  1
  C  C64  1  0.937400  0.383400  0.928000  1
  C  C65  1  0.938600  0.132200  0.932800  1
  C  C66  1  0.800600  0.438600  0.432800  1
  C  C67  1  0.632200  0.494200  0.432800  1
  C  C68  1  0.005800  0.699400  0.067200  1
  C  C69  1  0.367800  0.505800  0.567200  1
  C  C70  1  0.061400  0.867800  0.067200  1
  C  C71  1  0.199400  0.561400  0.567200  1
  C  C72  1  0.994200  0.300600  0.932800  1
  C  C73  1  0.372400  0.039900  0.841800  1
  C  C74  1  0.801900  0.872400  0.341800  1
  C  C75  1  0.539900  0.969400  0.341800  1
  C  C76  1  0.530600  0.698100  0.158200  1
  C  C77  1  0.460100  0.030600  0.658200  1
  C  C78  1  0.627600  0.960100  0.158200  1
  C  C79  1  0.198100  0.127600  0.658200  1
  C  C80  1  0.469400  0.301900  0.841800  1
  C  C81  1  0.398800  0.071300  0.796000  1
  C  C82  1  0.724700  0.898800  0.296000  1
  C  C83  1  0.571300  0.897200  0.296000  1
  C  C84  1  0.602800  0.775300  0.204000  1
  C  C85  1  0.428700  0.102800  0.704000  1
  C  C86  1  0.601200  0.928700  0.204000  1
  C  C87  1  0.275300  0.101200  0.704000  1
  C  C88  1  0.397200  0.224700  0.796000  1
  C  C89  1  0.414400  0.969500  0.798400  1
  C  C90  1  0.828900  0.914400  0.298400  1
  C  C91  1  0.469500  0.884000  0.298400  1
  C  C92  1  0.616000  0.671100  0.201600  1
  C  C93  1  0.530500  0.116000  0.701600  1
  C  C94  1  0.585600  0.030500  0.201600  1
  C  C95  1  0.171100  0.085600  0.701600  1
  C  C96  1  0.384000  0.328900  0.798400  1
  C  C97  1  0.900500  0.150500  0.801000  1
  C  C98  1  0.650500  0.400500  0.301000  1
  C  C99  1  0.099500  0.849500  0.199000  1
  C  C100  1  0.349500  0.599500  0.699000  1
  C  C101  1  0.942600  0.202700  0.837200  1
  C  C102  1  0.634500  0.442600  0.337200  1
  C  C103  1  0.702700  0.394600  0.337200  1
  C  C104  1  0.105400  0.865500  0.162800  1
  C  C105  1  0.297300  0.605400  0.662800  1
  C  C106  1  0.057400  0.797300  0.162800  1
  C  C107  1  0.365500  0.557400  0.662800  1
  C  C108  1  0.894600  0.134500  0.837200  1
  C  C109  1  0.045500  0.140900  0.893800  1
  C  C110  1  0.752900  0.545500  0.393800  1
  C  C111  1  0.640900  0.348300  0.393800  1
  C  C112  1  0.151700  0.747100  0.106200  1
  C  C113  1  0.359100  0.651700  0.606200  1
  C  C114  1  0.954500  0.859100  0.106200  1
  C  C115  1  0.247100  0.454500  0.606200  1
  C  C116  1  0.848300  0.252900  0.893800  1
  C  C117  1  0.082900  0.160900  0.932200  1
  C  C118  1  0.771300  0.582900  0.432200  1
  C  C119  1  0.660900  0.349300  0.432200  1
  C  C120  1  0.150700  0.728700  0.067800  1
  C  C121  1  0.339100  0.650700  0.567800  1
  C  C122  1  0.917100  0.839100  0.067800  1
  C  C123  1  0.228700  0.417100  0.567800  1
  C  C124  1  0.849300  0.271300  0.932200  1
  C  C125  1  0.118400  0.209800  0.968400  1
  C  C126  1  0.758600  0.618400  0.468400  1
  C  C127  1  0.709800  0.350000  0.468400  1
  C  C128  1  0.150000  0.741400  0.031600  1
  C  C129  1  0.290200  0.650000  0.531600  1
  C  C130  1  0.881600  0.790200  0.031600  1
  C  C131  1  0.241400  0.381600  0.531600  1
  C  C132  1  0.850000  0.258600  0.968400  1
  C  C133  1  0.146900  0.226300  0.987600  1
  C  C134  1  0.761300  0.646900  0.487600  1
  C  C135  1  0.726300  0.340700  0.487600  1
  C  C136  1  0.159300  0.738700  0.012400  1
  C  C137  1  0.273700  0.659300  0.512400  1
  C  C138  1  0.853100  0.773700  0.012400  1
  C  C139  1  0.238700  0.353100  0.512400  1
  C  C140  1  0.840700  0.261300  0.987600  1
  C  C141  1  0.156200  0.219000  0.955600  1
  C  C142  1  0.736600  0.656200  0.455600  1
  C  C143  1  0.719000  0.299400  0.455600  1
  C  C144  1  0.200600  0.763400  0.044400  1
  C  C145  1  0.281000  0.700600  0.544400  1
  C  C146  1  0.843800  0.781000  0.044400  1
  C  C147  1  0.263400  0.343800  0.544400  1
  C  C148  1  0.799400  0.236600  0.955600  1
  C  C149  1  0.126700  0.209800  0.932400  1
  C  C150  1  0.722600  0.626700  0.432400  1
  C  C151  1  0.709800  0.305700  0.432400  1
  C  C152  1  0.194300  0.777400  0.067600  1
  C  C153  1  0.290200  0.694300  0.567600  1
  C  C154  1  0.873300  0.790200  0.067600  1
  C  C155  1  0.277400  0.373300  0.567600  1
  C  C156  1  0.805700  0.222600  0.932400  1
  C  C157  1  0.092000  0.192200  0.894800  1
  C  C158  1  0.702600  0.592000  0.394800  1
  C  C159  1  0.692200  0.302800  0.394800  1
  C  C160  1  0.197200  0.797400  0.105200  1
  C  C161  1  0.307800  0.697200  0.605200  1
  C  C162  1  0.908000  0.807800  0.105200  1
  C  C163  1  0.297400  0.408000  0.605200  1
  C  C164  1  0.802800  0.202600  0.894800  1
  C  C165  1  0.136900  0.229400  0.912400  1
  C  C166  1  0.683000  0.636900  0.412400  1
  C  C167  1  0.729400  0.275500  0.412400  1
  C  C168  1  0.224500  0.817000  0.087600  1
  C  C169  1  0.270600  0.724500  0.587600  1
  C  C170  1  0.863100  0.770600  0.087600  1
  C  C171  1  0.317000  0.363100  0.587600  1
  C  C172  1  0.775500  0.183000  0.912400  1
  C  C173  1  0.205700  0.217200  0.955600  1
  C  C174  1  0.738400  0.705700  0.455600  1
  C  C175  1  0.717200  0.249900  0.455600  1
  C  C176  1  0.250100  0.761600  0.044400  1
  C  C177  1  0.282800  0.750100  0.544400  1
  C  C178  1  0.794300  0.782800  0.044400  1
  C  C179  1  0.261600  0.294300  0.544400  1
  C  C180  1  0.749900  0.238400  0.955600  1
  C  C181  1  0.240600  0.213200  0.989000  1
  C  C182  1  0.775800  0.740600  0.489000  1
  C  C183  1  0.713200  0.248400  0.489000  1
  C  C184  1  0.251600  0.724200  0.011000  1
  C  C185  1  0.286800  0.751600  0.511000  1
  C  C186  1  0.759400  0.786800  0.011000  1
  C  C187  1  0.224200  0.259400  0.511000  1
  C  C188  1  0.748400  0.275800  0.989000  1
  C  C189  1  0.298900  0.199300  0.998400  1
  C  C190  1  0.799100  0.798900  0.498400  1
  C  C191  1  0.699300  0.199500  0.498400  1
  C  C192  1  0.300500  0.700900  0.001600  1
  C  C193  1  0.300700  0.800500  0.501600  1
  C  C194  1  0.701100  0.800700  0.001600  1
  C  C195  1  0.200900  0.201100  0.501600  1
  C  C196  1  0.699500  0.299100  0.998400  1
  C  C197  1  0.357000  0.130700  0.972000  1
  C  C198  1  0.841300  0.857000  0.472000  1
  C  C199  1  0.630700  0.115000  0.472000  1
  C  C200  1  0.385000  0.658700  0.028000  1
  C  C201  1  0.369300  0.885000  0.528000  1
  C  C202  1  0.643000  0.869300  0.028000  1
  C  C203  1  0.158700  0.143000  0.528000  1
  C  C204  1  0.615000  0.341300  0.972000  1
  C  C205  1  0.328600  0.107100  0.941200  1
  C  C206  1  0.834100  0.828600  0.441200  1
  C  C207  1  0.607100  0.112600  0.441200  1
  C  C208  1  0.387400  0.665900  0.058800  1
  C  C209  1  0.392900  0.887400  0.558800  1
  C  C210  1  0.671400  0.892900  0.058800  1
  C  C211  1  0.165900  0.171400  0.558800  1
  C  C212  1  0.612600  0.334100  0.941200  1
  C  C213  1  0.262400  0.809500  0.880400  1
  C  C214  1  0.070900  0.762400  0.380400  1
  C  C215  1  0.309500  0.118000  0.380400  1
  C  C216  1  0.382000  0.429100  0.119600  1
  C  C217  1  0.690500  0.882000  0.619600  1
  C  C218  1  0.737600  0.190500  0.119600  1
  C  C219  1  0.929100  0.237600  0.619600  1
  C  C220  1  0.618000  0.570900  0.880400  1
  C  C221  1  0.360600  0.098300  0.934400  1
  C  C222  1  0.836100  0.860600  0.434400  1
  C  C223  1  0.598300  0.073800  0.434400  1
  C  C224  1  0.426200  0.663900  0.065600  1
  C  C225  1  0.401700  0.926200  0.565600  1
  C  C226  1  0.639400  0.901700  0.065600  1
  C  C227  1  0.163900  0.139400  0.565600  1
  C  C228  1  0.573800  0.336100  0.934400  1
  C  C229  1  0.379900  0.102200  0.973800  1
  C  C230  1  0.871600  0.879900  0.473800  1
  C  C231  1  0.602200  0.093900  0.473800  1
  C  C232  1  0.406100  0.628400  0.026200  1
  C  C233  1  0.397800  0.906100  0.526200  1
  C  C234  1  0.620100  0.897800  0.026200  1
  C  C235  1  0.128400  0.120100  0.526200  1
  C  C236  1  0.593900  0.371600  0.973800  1
  C  C237  1  0.270000  0.706400  0.909400  1
  C  C238  1  0.203000  0.770000  0.409400  1
  C  C239  1  0.206400  0.139400  0.409400  1
  C  C240  1  0.360600  0.297000  0.090600  1
  C  C241  1  0.793600  0.860600  0.590600  1
  C  C242  1  0.730000  0.293600  0.090600  1
  C  C243  1  0.797000  0.230000  0.590600  1
  C  C244  1  0.639400  0.703000  0.909400  1
  C  C245  1  0.243100  0.748000  0.896800  1
  C  C246  1  0.148800  0.743100  0.396800  1
  C  C247  1  0.248000  0.153700  0.396800  1
  C  C248  1  0.346300  0.351200  0.103200  1
  C  C249  1  0.752000  0.846300  0.603200  1
  C  C250  1  0.756900  0.252000  0.103200  1
  C  C251  1  0.851200  0.256900  0.603200  1
  C  C252  1  0.653700  0.648800  0.896800  1
  C  C253  1  0.209700  0.740900  0.916400  1
  C  C254  1  0.175500  0.709700  0.416400  1
  C  C255  1  0.240900  0.206700  0.416400  1
  C  C256  1  0.293300  0.324500  0.083600  1
  C  C257  1  0.759100  0.793300  0.583600  1
  C  C258  1  0.790300  0.259100  0.083600  1
  C  C259  1  0.824500  0.290300  0.583600  1
  C  C260  1  0.706700  0.675500  0.916400  1
  C  C261  1  0.261500  0.650200  0.875600  1
  C  C262  1  0.225400  0.761500  0.375600  1
  C  C263  1  0.150200  0.114100  0.375600  1
  C  C264  1  0.385900  0.274600  0.124400  1
  C  C265  1  0.849800  0.885900  0.624400  1
  C  C266  1  0.738500  0.349800  0.124400  1
  C  C267  1  0.774600  0.238500  0.624400  1
  C  C268  1  0.614100  0.725400  0.875600  1
  C  C269  1  0.386400  0.128700  0.011400  1
  C  C270  1  0.882700  0.886400  0.511400  1
  C  C271  1  0.628700  0.125000  0.511400  1
  C  C272  1  0.375000  0.617300  0.988600  1
  C  C273  1  0.371300  0.875000  0.488600  1
  C  C274  1  0.613600  0.871300  0.988600  1
  C  C275  1  0.117300  0.113600  0.488600  1
  C  C276  1  0.625000  0.382700  0.011400  1
  C  C277  1  0.316100  0.835500  0.880800  1
  C  C278  1  0.045300  0.816100  0.380800  1
  C  C279  1  0.335500  0.064700  0.380800  1
  C  C280  1  0.435300  0.454700  0.119200  1
  C  C281  1  0.664500  0.935300  0.619200  1
  C  C282  1  0.683900  0.164500  0.119200  1
  C  C283  1  0.954700  0.183900  0.619200  1
  C  C284  1  0.564700  0.545300  0.880800  1
  C  C285  1  0.366400  0.875400  0.880000  1
  C  C286  1  0.004600  0.866400  0.380000  1
  C  C287  1  0.375400  0.013600  0.380000  1
  C  C288  1  0.486400  0.495400  0.120000  1
  C  C289  1  0.624600  0.986400  0.620000  1
  C  C290  1  0.633600  0.124600  0.120000  1
  C  C291  1  0.995400  0.133600  0.620000  1
  C  C292  1  0.513600  0.504600  0.880000  1
  C  C293  1  0.430800  0.864400  0.877800  1
  C  C294  1  0.013400  0.930800  0.377800  1
  C  C295  1  0.364400  0.947000  0.377800  1
  C  C296  1  0.553000  0.486600  0.122200  1
  C  C297  1  0.635600  0.053000  0.622200  1
  C  C298  1  0.569200  0.135600  0.122200  1
  C  C299  1  0.986600  0.069200  0.622200  1
  C  C300  1  0.447000  0.513400  0.877800  1
  C  C301  1  0.429400  0.883400  0.910400  1
  C  C302  1  0.027000  0.929400  0.410400  1
  C  C303  1  0.383400  0.981000  0.410400  1
  C  C304  1  0.519000  0.473000  0.089600  1
  C  C305  1  0.616600  0.019000  0.589600  1
  C  C306  1  0.570600  0.116600  0.089600  1
  C  C307  1  0.973000  0.070600  0.589600  1
  C  C308  1  0.481000  0.527000  0.910400  1
  C  C309  1  0.458300  0.919200  0.915200  1
  C  C310  1  0.996000  0.958300  0.415200  1
  C  C311  1  0.419200  0.956900  0.415200  1
  C  C312  1  0.543100  0.504000  0.084800  1
  C  C313  1  0.580800  0.043100  0.584800  1
  C  C314  1  0.541700  0.080800  0.084800  1
  C  C315  1  0.004000  0.041700  0.584800  1
  C  C316  1  0.456900  0.496000  0.915200  1
  C  C317  1  0.467100  0.952000  0.938600  1
  C  C318  1  0.986600  0.967100  0.438600  1
  C  C319  1  0.452000  0.971500  0.438600  1
  C  C320  1  0.528500  0.513400  0.061400  1
  C  C321  1  0.548000  0.028500  0.561400  1
  C  C322  1  0.532900  0.048000  0.061400  1
  C  C323  1  0.013400  0.032900  0.561400  1
  C  C324  1  0.471500  0.486600  0.938600  1
  C  C325  1  0.445100  0.834600  0.926800  1
  C  C326  1  0.092200  0.945100  0.426800  1
  C  C327  1  0.334600  0.981700  0.426800  1
  C  C328  1  0.518300  0.407800  0.073200  1
  C  C329  1  0.665400  0.018300  0.573200  1
  C  C330  1  0.554900  0.165400  0.073200  1
  C  C331  1  0.907800  0.054900  0.573200  1
  C  C332  1  0.481700  0.592200  0.926800  1
  C  C333  1  0.443600  0.059000  0.976000  1
  C  C334  1  0.917000  0.943600  0.476000  1
  C  C335  1  0.559000  0.032400  0.476000  1
  C  C336  1  0.467600  0.583000  0.024000  1
  C  C337  1  0.441000  0.967600  0.524000  1
  C  C338  1  0.556400  0.941000  0.024000  1
  C  C339  1  0.083000  0.056400  0.524000  1
  C  C340  1  0.532400  0.417000  0.976000  1
  C  C341  1  0.349400  0.559700  0.850600  1
  C  C342  1  0.290900  0.849400  0.350600  1
  C  C343  1  0.059700  0.001200  0.350600  1
  C  C344  1  0.498800  0.209100  0.149400  1
  C  C345  1  0.940300  0.998800  0.649400  1
  C  C346  1  0.650600  0.440300  0.149400  1
  C  C347  1  0.709100  0.150600  0.649400  1
  C  C348  1  0.501200  0.790900  0.850600  1
  C  C349  1  0.868300  0.118300  0.736600  1
  C  C350  1  0.618300  0.368300  0.236600  1
  C  C351  1  0.131700  0.881700  0.263400  1
  C  C352  1  0.381700  0.631700  0.763400  1
  C  C353  1  0.898500  0.160800  0.766400  1
  C  C354  1  0.605600  0.398500  0.266400  1
  C  C355  1  0.660800  0.367900  0.266400  1
  C  C356  1  0.132100  0.894400  0.233600  1
  C  C357  1  0.339200  0.632100  0.733600  1
  C  C358  1  0.101500  0.839200  0.233600  1
  C  C359  1  0.394400  0.601500  0.733600  1
  C  C360  1  0.867900  0.105600  0.766400  1
  C  C361  1  0.936400  0.197300  0.806000  1
  C  C362  1  0.608700  0.436400  0.306000  1
  C  C363  1  0.697300  0.369600  0.306000  1
  C  C364  1  0.130400  0.891300  0.194000  1
  C  C365  1  0.302700  0.630400  0.694000  1
  C  C366  1  0.063600  0.802700  0.194000  1
  C  C367  1  0.391300  0.563600  0.694000  1
  C  C368  1  0.869600  0.108700  0.806000  1
  C  C369  1  0.316600  0.161000  0.968800  1
  C  C370  1  0.807800  0.816600  0.468800  1
  C  C371  1  0.661000  0.152200  0.468800  1
  C  C372  1  0.347800  0.692200  0.031200  1
  C  C373  1  0.339000  0.847800  0.531200  1
  C  C374  1  0.683400  0.839000  0.031200  1
  C  C375  1  0.192200  0.183400  0.531200  1
  C  C376  1  0.652200  0.307800  0.968800  1
  C  C377  1  0.007600  0.257600  0.015200  1.0
  C  C378  1  0.757600  0.507600  0.515200  1.0
  C  C379  1  0.992400  0.742400  0.984800  1.0
  C  C380  1  0.242400  0.492400  0.484800  1.0
  C  C381  1  0.048300  0.298300  0.096600  1.0
  C  C382  1  0.798300  0.548300  0.596600  1.0
  C  C383  1  0.951700  0.701700  0.903400  1.0
  C  C384  1  0.201700  0.451700  0.403400  1.0
  C  C385  1  0.496100  0.246100  0.992200  1.0
  C  C386  1  0.746100  0.996100  0.492200  1.0
  C  C387  1  0.503900  0.753900  0.007800  1.0
  C  C388  1  0.253900  0.003900  0.507800  1.0
  C  C389  1  0.456100  0.206100  0.912200  1.0
  C  C390  1  0.706100  0.956100  0.412200  1.0
  C  C391  1  0.543900  0.793900  0.087800  1.0
  C  C392  1  0.293900  0.043900  0.587800  1.0
  C  C393  1  0.037400  0.049800  0.207600  1.0
  C  C394  1  0.157800  0.537400  0.707600  1.0
  C  C395  1  0.549800  0.670200  0.707600  1.0
  C  C396  1  0.829800  0.342200  0.792400  1.0
  C  C397  1  0.450200  0.329800  0.292400  1.0
  C  C398  1  0.962600  0.950200  0.792400  1.0
  C  C399  1  0.842200  0.462600  0.292400  1.0
  C  C400  1  0.170200  0.657800  0.207600  1.0
  C  C401  1  0.045400  0.061800  0.245800  1.0
  C  C402  1  0.184000  0.545400  0.745800  1.0
  C  C403  1  0.561800  0.700400  0.745800  1.0
  C  C404  1  0.799600  0.316000  0.754200  1.0
  C  C405  1  0.438200  0.299600  0.254200  1.0
  C  C406  1  0.954600  0.938200  0.754200  1.0
  C  C407  1  0.816000  0.454600  0.254200  1.0
  C  C408  1  0.200400  0.684000  0.245800  1.0
  C  C409  1  0.026600  0.016000  0.257800  1.0
  C  C410  1  0.241800  0.526600  0.757800  1.0
  C  C411  1  0.516000  0.731200  0.757800  1.0
  C  C412  1  0.768800  0.258200  0.742200  1.0
  C  C413  1  0.484000  0.268800  0.242200  1.0
  C  C414  1  0.973400  0.984000  0.742200  1.0
  C  C415  1  0.758200  0.473400  0.242200  1.0
  C  C416  1  0.231200  0.741800  0.257800  1.0
  C  C417  1  0.003100  0.964600  0.231200  1.0
  C  C418  1  0.266600  0.503100  0.731200  1.0
  C  C419  1  0.464600  0.728100  0.731200  1.0
  C  C420  1  0.771900  0.233400  0.768800  1.0
  C  C421  1  0.535400  0.271900  0.268800  1.0
  C  C422  1  0.996900  0.035400  0.768800  1.0
  C  C423  1  0.733400  0.496900  0.268800  1.0
  C  C424  1  0.228100  0.766600  0.231200  1.0
  C  C425  1  0.994700  0.951900  0.193400  1.0
  C  C426  1  0.241500  0.494700  0.693400  1.0
  C  C427  1  0.451900  0.698700  0.693400  1.0
  C  C428  1  0.801300  0.258500  0.806600  1.0
  C  C429  1  0.548100  0.301300  0.306600  1.0
  C  C430  1  0.005300  0.048100  0.806600  1.0
  C  C431  1  0.758500  0.505300  0.306600  1.0
  C  C432  1  0.198700  0.741500  0.193400  1.0
  C  C433  1  0.013500  0.995400  0.181000  1.0
  C  C434  1  0.185600  0.513500  0.681000  1.0
  C  C435  1  0.495400  0.667500  0.681000  1.0
  C  C436  1  0.832500  0.314400  0.819000  1.0
  C  C437  1  0.504600  0.332500  0.319000  1.0
  C  C438  1  0.986500  0.004600  0.819000  1.0
  C  C439  1  0.814400  0.486500  0.319000  1.0
  C  C440  1  0.167500  0.685600  0.181000  1.0
  C  C441  1  0.979500  0.915400  0.243800  1.0
  C  C442  1  0.328400  0.479500  0.743800  1.0
  C  C443  1  0.415400  0.764300  0.743800  1.0
  C  C444  1  0.735700  0.171600  0.756200  1.0
  C  C445  1  0.584600  0.235700  0.256200  1.0
  C  C446  1  0.020500  0.084600  0.756200  1.0
  C  C447  1  0.671600  0.520500  0.256200  1.0
  C  C448  1  0.264300  0.828400  0.243800  1.0
  C  C449  1  0.267410  0.109710  0.152420  1.0
  C  C450  1  0.042710  0.767410  0.652420  1.0
  C  C451  1  0.609710  0.385010  0.652420  1.0
  C  C452  1  0.114990  0.457290  0.847580  1.0
  C  C453  1  0.390290  0.614990  0.347580  1.0
  C  C454  1  0.732590  0.890290  0.847580  1.0
  C  C455  1  0.957290  0.232590  0.347580  1.0
  C  C456  1  0.885010  0.542710  0.152420  1.0
  C  C457  1  0.267400  0.050300  0.134200  1.0
  C  C458  1  0.083900  0.767400  0.634200  1.0
  C  C459  1  0.550300  0.366800  0.634200  1.0
  C  C460  1  0.133200  0.416100  0.865800  1.0
  C  C461  1  0.449700  0.633200  0.365800  1.0
  C  C462  1  0.732600  0.949700  0.865800  1.0
  C  C463  1  0.916100  0.232600  0.365800  1.0
  C  C464  1  0.866800  0.583900  0.134200  1.0
  C  C465  1  0.315100  0.029900  0.122400  1.0
  C  C466  1  0.092500  0.815100  0.622400  1.0
  C  C467  1  0.529900  0.307300  0.622400  1.0
  C  C468  1  0.192700  0.407500  0.877600  1.0
  C  C469  1  0.470100  0.692700  0.377600  1.0
  C  C470  1  0.684900  0.970100  0.877600  1.0
  C  C471  1  0.907500  0.184900  0.377600  1.0
  C  C472  1  0.807300  0.592500  0.122400  1.0
  C  C473  1  0.361200  0.068300  0.128800  1.0
  C  C474  1  0.060500  0.861200  0.628800  1.0
  C  C475  1  0.568300  0.267600  0.628800  1.0
  C  C476  1  0.232400  0.439500  0.871200  1.0
  C  C477  1  0.431700  0.732400  0.371200  1.0
  C  C478  1  0.638800  0.931700  0.871200  1.0
  C  C479  1  0.939500  0.138800  0.371200  1.0
  C  C480  1  0.767600  0.560500  0.128800  1.0
  C  C481  1  0.359800  0.126900  0.145800  1.0
  C  C482  1  0.018900  0.859800  0.645800  1.0
  C  C483  1  0.626900  0.286000  0.645800  1.0
  C  C484  1  0.214000  0.481100  0.854200  1.0
  C  C485  1  0.373100  0.714000  0.354200  1.0
  C  C486  1  0.640200  0.873100  0.854200  1.0
  C  C487  1  0.981100  0.140200  0.354200  1.0
  C  C488  1  0.786000  0.518900  0.145800  1.0
  C  C489  1  0.312500  0.149500  0.157600  1.0
  C  C490  1  0.008100  0.812500  0.657600  1.0
  C  C491  1  0.649500  0.345100  0.657600  1.0
  C  C492  1  0.154900  0.491900  0.842400  1.0
  C  C493  1  0.350500  0.654900  0.342400  1.0
  C  C494  1  0.687500  0.850500  0.842400  1.0
  C  C495  1  0.991900  0.187500  0.342400  1.0
  C  C496  1  0.845100  0.508100  0.157600  1.0
  C  C497  1  0.413100  0.043900  0.115600  1.0
  C  C498  1  0.071700  0.913100  0.615600  1.0
  C  C499  1  0.543900  0.202500  0.615600  1.0
  C  C500  1  0.297500  0.428300  0.884400  1.0
  C  C501  1  0.456100  0.797500  0.384400  1.0
  C  C502  1  0.586900  0.956100  0.884400  1.0
  C  C503  1  0.928300  0.086900  0.384400  1.0
  C  C504  1  0.702500  0.571700  0.115600  1.0
  C  C505  1  0.965930  0.122830  0.053660  1.0
  C  C506  1  0.930830  0.465930  0.553660  1.0
  C  C507  1  0.622830  0.587730  0.553660  1.0
  C  C508  1  0.912270  0.569170  0.946340  1.0
  C  C509  1  0.377170  0.412270  0.446340  1.0
  C  C510  1  0.034070  0.877170  0.946340  1.0
  C  C511  1  0.069170  0.534070  0.446340  1.0
  C  C512  1  0.087730  0.430830  0.053660  1.0
  C  C513  1  0.960800  0.068800  0.027200  1.0
  C  C514  1  0.958400  0.460800  0.527200  1.0
  C  C515  1  0.568800  0.566400  0.527200  1.0
  C  C516  1  0.933600  0.541600  0.972800  1.0
  C  C517  1  0.431200  0.433600  0.472800  1.0
  C  C518  1  0.039200  0.931200  0.972800  1.0
  C  C519  1  0.041600  0.539200  0.472800  1.0
  C  C520  1  0.066400  0.458400  0.027200  1.0
  C  C521  1  0.908000  0.044900  0.997200  1.0
  C  C522  1  0.952300  0.408000  0.497200  1.0
  C  C523  1  0.544900  0.589200  0.497200  1.0
  C  C524  1  0.910800  0.547700  0.002800  1.0
  C  C525  1  0.455100  0.410800  0.502800  1.0
  C  C526  1  0.092000  0.955100  0.002800  1.0
  C  C527  1  0.047700  0.592000  0.502800  1.0
  C  C528  1  0.089200  0.452300  0.997200  1.0
  C  C529  1  0.860200  0.077400  0.993200  1.0
  C  C530  1  0.915800  0.360200  0.493200  1.0
  C  C531  1  0.577400  0.633000  0.493200  1.0
  C  C532  1  0.867000  0.584200  0.006800  1.0
  C  C533  1  0.422600  0.367000  0.506800  1.0
  C  C534  1  0.139800  0.922600  0.006800  1.0
  C  C535  1  0.084200  0.639800  0.506800  1.0
  C  C536  1  0.133000  0.415800  0.993200  1.0
  C  C537  1  0.865900  0.131900  0.020000  1.0
  C  C538  1  0.888100  0.365900  0.520000  1.0
  C  C539  1  0.631900  0.654100  0.520000  1.0
  C  C540  1  0.845900  0.611900  0.980000  1.0
  C  C541  1  0.368100  0.345900  0.480000  1.0
  C  C542  1  0.134100  0.868100  0.980000  1.0
  C  C543  1  0.111900  0.634100  0.480000  1.0
  C  C544  1  0.154100  0.388100  0.020000  1.0
  C  C545  1  0.918600  0.155400  0.050800  1.0
  C  C546  1  0.895400  0.418600  0.550800  1.0
  C  C547  1  0.655400  0.632200  0.550800  1.0
  C  C548  1  0.867800  0.604600  0.949200  1.0
  C  C549  1  0.344600  0.367800  0.449200  1.0
  C  C550  1  0.081400  0.844600  0.949200  1.0
  C  C551  1  0.104600  0.581400  0.449200  1.0
  C  C552  1  0.132200  0.395400  0.050800  1.0
  C  C553  1  0.801800  0.051800  0.961400  1.0
  C  C554  1  0.909600  0.301800  0.461400  1.0
  C  C555  1  0.551800  0.659600  0.461400  1.0
  C  C556  1  0.840400  0.590400  0.038600  1.0
  C  C557  1  0.448200  0.340400  0.538600  1.0
  C  C558  1  0.198200  0.948200  0.038600  1.0
  C  C559  1  0.090400  0.698200  0.538600  1.0
  C  C560  1  0.159600  0.409600  0.961400  1.0
  C  C561  1  0.051410  0.196810  0.098420  1.0
  C  C562  1  0.901610  0.551410  0.598420  1.0
  C  C563  1  0.696810  0.547010  0.598420  1.0
  C  C564  1  0.952990  0.598390  0.901580  1.0
  C  C565  1  0.303190  0.452990  0.401580  1.0
  C  C566  1  0.948590  0.803190  0.901580  1.0
  C  C567  1  0.098390  0.448590  0.401580  1.0
  C  C568  1  0.047010  0.401610  0.098420  1.0
  C  C569  1  0.039220  0.237920  0.076040  1.0
  C  C570  1  0.838120  0.539220  0.576040  1.0
  C  C571  1  0.737920  0.536820  0.576040  1.0
  C  C572  1  0.963180  0.661880  0.923960  1.0
  C  C573  1  0.262080  0.463180  0.423960  1.0
  C  C574  1  0.960780  0.762080  0.923960  1.0
  C  C575  1  0.161880  0.460780  0.423960  1.0
  C  C576  1  0.036820  0.338120  0.076040  1.0
  C  C577  1  0.021100  0.218100  0.036200  1.0
  C  C578  1  0.818100  0.521100  0.536200  1.0
  C  C579  1  0.718100  0.515100  0.536200  1.0
  C  C580  1  0.984900  0.681900  0.963800  1.0
  C  C581  1  0.281900  0.484900  0.463800  1.0
  C  C582  1  0.978900  0.781900  0.963800  1.0
  C  C583  1  0.181900  0.478900  0.463800  1.0
  C  C584  1  0.015100  0.318100  0.036200  1.0
  C  C585  1  0.031310  0.147310  0.197820  1.0
  C  C586  1  0.050510  0.531310  0.697820  1.0
  C  C587  1  0.647310  0.666510  0.697820  1.0
  C  C588  1  0.833490  0.449490  0.802180  1.0
  C  C589  1  0.352690  0.333490  0.302180  1.0
  C  C590  1  0.968690  0.852690  0.802180  1.0
  C  C591  1  0.949490  0.468690  0.302180  1.0
  C  C592  1  0.166510  0.550510  0.197820  1.0
  C  C593  1  0.987090  0.163190  0.217580  1.0
  C  C594  1  0.054390  0.487090  0.717580  1.0
  C  C595  1  0.663190  0.730490  0.717580  1.0
  C  C596  1  0.769510  0.445610  0.782420  1.0
  C  C597  1  0.336810  0.269510  0.282420  1.0
  C  C598  1  0.012910  0.836810  0.782420  1.0
  C  C599  1  0.945610  0.512910  0.282420  1.0
  C  C600  1  0.230490  0.554390  0.217580  1.0
  C  C601  1  0.931400  0.131200  0.201200  1.0
  C  C602  1  0.070000  0.431400  0.701200  1.0
  C  C603  1  0.631200  0.769800  0.701200  1.0
  C  C604  1  0.730200  0.430000  0.798800  1.0
  C  C605  1  0.368800  0.230200  0.298800  1.0
  C  C606  1  0.068600  0.868800  0.798800  1.0
  C  C607  1  0.930000  0.568600  0.298800  1.0
  C  C608  1  0.269800  0.570000  0.201200  1.0
  C  C609  1  0.889500  0.149800  0.220000  1.0
  C  C610  1  0.070200  0.389500  0.720000  1.0
  C  C611  1  0.649800  0.830500  0.720000  1.0
  C  C612  1  0.669500  0.429800  0.780000  1.0
  C  C613  1  0.350200  0.169500  0.280000  1.0
  C  C614  1  0.110500  0.850200  0.780000  1.0
  C  C615  1  0.929800  0.610500  0.280000  1.0
  C  C616  1  0.330500  0.570200  0.220000  1.0
  C  C617  1  0.904800  0.196400  0.254200  1.0
  C  C618  1  0.057800  0.404800  0.754200  1.0
  C  C619  1  0.696400  0.849400  0.754200  1.0
  C  C620  1  0.650600  0.442200  0.745800  1.0
  C  C621  1  0.303600  0.150600  0.245800  1.0
  C  C622  1  0.095200  0.803600  0.745800  1.0
  C  C623  1  0.942200  0.595200  0.245800  1.0
  C  C624  1  0.349400  0.557800  0.254200  1.0
  C  C625  1  0.959710  0.227910  0.269820  1.0
  C  C626  1  0.041910  0.459710  0.769820  1.0
  C  C627  1  0.727910  0.810110  0.769820  1.0
  C  C628  1  0.689890  0.458090  0.730180  1.0
  C  C629  1  0.272090  0.189890  0.230180  1.0
  C  C630  1  0.040290  0.772090  0.730180  1.0
  C  C631  1  0.958090  0.540290  0.230180  1.0
  C  C632  1  0.310110  0.541910  0.269820  1.0
  C  C633  1  0.000690  0.210890  0.249980  1.0
  C  C634  1  0.039090  0.500690  0.749980  1.0
  C  C635  1  0.710890  0.749290  0.749980  1.0
  C  C636  1  0.750710  0.460910  0.750020  1.0
  C  C637  1  0.289110  0.250710  0.250020  1.0
  C  C638  1  0.999310  0.789110  0.750020  1.0
  C  C639  1  0.960910  0.499310  0.250020  1.0
  C  C640  1  0.249290  0.539090  0.249980  1.0
  C  C641  1  0.217940  0.170040  0.196080  1.0
  C  C642  1  0.026040  0.717940  0.696080  1.0
  C  C643  1  0.670040  0.478140  0.696080  1.0
  C  C644  1  0.021860  0.473960  0.803920  1.0
  C  C645  1  0.329960  0.521860  0.303920  1.0
  C  C646  1  0.782060  0.829960  0.803920  1.0
  C  C647  1  0.973960  0.282060  0.303920  1.0
  C  C648  1  0.978140  0.526040  0.196080  1.0
  C  C649  1  0.612400  0.123700  0.951200  1.0
  C  C650  1  0.827500  0.112400  0.451200  1.0
  C  C651  1  0.623700  0.838800  0.451200  1.0
  C  C652  1  0.661200  0.672500  0.048800  1.0
  C  C653  1  0.376300  0.161200  0.548800  1.0
  C  C654  1  0.387600  0.876300  0.048800  1.0
  C  C655  1  0.172500  0.887600  0.548800  1.0
  C  C656  1  0.338800  0.327500  0.951200  1.0
  C  C657  1  0.669700  0.138800  0.977000  1.0
  C  C658  1  0.838200  0.169700  0.477000  1.0
  C  C659  1  0.638800  0.807300  0.477000  1.0
  C  C660  1  0.692700  0.661800  0.023000  1.0
  C  C661  1  0.361200  0.192700  0.523000  1.0
  C  C662  1  0.330300  0.861200  0.023000  1.0
  C  C663  1  0.161800  0.830300  0.523000  1.0
  C  C664  1  0.307300  0.338200  0.977000  1.0
  C  C665  1  0.687100  0.116600  0.008600  1.0
  C  C666  1  0.892000  0.187100  0.508600  1.0
  C  C667  1  0.616600  0.821500  0.508600  1.0
  C  C668  1  0.678500  0.608000  0.991400  1.0
  C  C669  1  0.383400  0.178500  0.491400  1.0
  C  C670  1  0.312900  0.883400  0.991400  1.0
  C  C671  1  0.108000  0.812900  0.491400  1.0
  C  C672  1  0.321500  0.392000  0.008600  1.0
  C  C673  1  0.647500  0.075100  0.009000  1.0
  C  C674  1  0.933900  0.147500  0.509000  1.0
  C  C675  1  0.575100  0.861500  0.509000  1.0
  C  C676  1  0.638500  0.566100  0.991000  1.0
  C  C677  1  0.424900  0.138500  0.491000  1.0
  C  C678  1  0.352500  0.924900  0.991000  1.0
  C  C679  1  0.066100  0.852500  0.491000  1.0
  C  C680  1  0.361500  0.433900  0.009000  1.0
  C  C681  1  0.591300  0.064100  0.984200  1.0
  C  C682  1  0.920100  0.091300  0.484200  1.0
  C  C683  1  0.564100  0.892900  0.484200  1.0
  C  C684  1  0.607100  0.579900  0.015800  1.0
  C  C685  1  0.435900  0.107100  0.515800  1.0
  C  C686  1  0.408700  0.935900  0.015800  1.0
  C  C687  1  0.079900  0.908700  0.515800  1.0
  C  C688  1  0.392900  0.420100  0.984200  1.0
  C  C689  1  0.573900  0.085300  0.953800  1.0
  C  C690  1  0.868500  0.073900  0.453800  1.0
  C  C691  1  0.585300  0.879900  0.453800  1.0
  C  C692  1  0.620100  0.631500  0.046200  1.0
  C  C693  1  0.414700  0.120100  0.546200  1.0
  C  C694  1  0.426100  0.914700  0.046200  1.0
  C  C695  1  0.131500  0.926100  0.546200  1.0
  C  C696  1  0.379900  0.368500  0.953800  1.0
  C  C697  1  0.669800  0.050600  0.043800  1.0
  C  C698  1  0.993200  0.169800  0.543800  1.0
  C  C699  1  0.550600  0.874000  0.543800  1.0
  C  C700  1  0.626000  0.506800  0.956200  1.0
  C  C701  1  0.449400  0.126000  0.456200  1.0
  C  C702  1  0.330200  0.949400  0.956200  1.0
  C  C703  1  0.006800  0.830200  0.456200  1.0
  C  C704  1  0.374000  0.493200  0.043800  1.0
  C  C705  1  0.665000  0.319200  0.862200  1.0
  C  C706  1  0.543000  0.165000  0.362200  1.0
  C  C707  1  0.819200  0.697200  0.362200  1.0
  C  C708  1  0.802800  0.957000  0.137800  1.0
  C  C709  1  0.180800  0.302800  0.637800  1.0
  C  C710  1  0.335000  0.680800  0.137800  1.0
  C  C711  1  0.457000  0.835000  0.637800  1.0
  C  C712  1  0.197200  0.043000  0.862200  1.0
  C  C713  1  0.635100  0.366400  0.860200  1.0
  C  C714  1  0.493800  0.135100  0.360200  1.0
  C  C715  1  0.866400  0.725100  0.360200  1.0
  C  C716  1  0.774900  0.006200  0.139800  1.0
  C  C717  1  0.133600  0.274900  0.639800  1.0
  C  C718  1  0.364900  0.633600  0.139800  1.0
  C  C719  1  0.506200  0.864900  0.639800  1.0
  C  C720  1  0.225100  0.993800  0.860200  1.0
  C  C721  1  0.666900  0.421900  0.874200  1.0
  C  C722  1  0.452300  0.166900  0.374200  1.0
  C  C723  1  0.921900  0.707300  0.374200  1.0
  C  C724  1  0.792700  0.047700  0.125800  1.0
  C  C725  1  0.078100  0.292700  0.625800  1.0
  C  C726  1  0.333100  0.578100  0.125800  1.0
  C  C727  1  0.547700  0.833100  0.625800  1.0
  C  C728  1  0.207300  0.952300  0.874200  1.0
  C  C729  1  0.727100  0.428100  0.890200  1.0
  C  C730  1  0.462100  0.227100  0.390200  1.0
  C  C731  1  0.928100  0.663100  0.390200  1.0
  C  C732  1  0.836900  0.037900  0.109800  1.0
  C  C733  1  0.071900  0.336900  0.609800  1.0
  C  C734  1  0.272900  0.571900  0.109800  1.0
  C  C735  1  0.537900  0.772900  0.609800  1.0
  C  C736  1  0.163100  0.962100  0.890200  1.0
  C  C737  1  0.754700  0.381900  0.892400  1.0
  C  C738  1  0.510500  0.254700  0.392400  1.0
  C  C739  1  0.881900  0.637700  0.392400  1.0
  C  C740  1  0.862300  0.989500  0.107600  1.0
  C  C741  1  0.118100  0.362300  0.607600  1.0
  C  C742  1  0.245300  0.618100  0.107600  1.0
  C  C743  1  0.489500  0.745300  0.607600  1.0
  C  C744  1  0.137700  0.010500  0.892400  1.0
  C  C745  1  0.725100  0.325500  0.878800  1.0
  C  C746  1  0.553300  0.225100  0.378800  1.0
  C  C747  1  0.825500  0.653700  0.378800  1.0
  C  C748  1  0.846300  0.946700  0.121200  1.0
  C  C749  1  0.174500  0.346300  0.621200  1.0
  C  C750  1  0.274900  0.674500  0.121200  1.0
  C  C751  1  0.446700  0.774900  0.621200  1.0
  C  C752  1  0.153700  0.053300  0.878800  1.0
  C  C753  1  0.760200  0.490800  0.906000  1.0
  C  C754  1  0.415200  0.260200  0.406000  1.0
  C  C755  1  0.990800  0.645800  0.406000  1.0
  C  C756  1  0.854200  0.084800  0.094000  1.0
  C  C757  1  0.009200  0.354200  0.594000  1.0
  C  C758  1  0.239800  0.509200  0.094000  1.0
  C  C759  1  0.584800  0.739800  0.594000  1.0
  C  C760  1  0.145800  0.915200  0.906000  1.0
  C  C761  1  0.674000  0.035400  0.781000  1.0
  C  C762  1  0.745600  0.174000  0.281000  1.0
  C  C763  1  0.535400  0.607000  0.281000  1.0
  C  C764  1  0.893000  0.754400  0.219000  1.0
  C  C765  1  0.464600  0.393000  0.719000  1.0
  C  C766  1  0.326000  0.964600  0.219000  1.0
  C  C767  1  0.254400  0.826000  0.719000  1.0
  C  C768  1  0.107000  0.245600  0.781000  1.0
  C  C769  1  0.657500  0.013200  0.742200  1.0
  C  C770  1  0.729000  0.157500  0.242200  1.0
  C  C771  1  0.513200  0.584700  0.242200  1.0
  C  C772  1  0.915300  0.771000  0.257800  1.0
  C  C773  1  0.486800  0.415300  0.757800  1.0
  C  C774  1  0.342500  0.986800  0.257800  1.0
  C  C775  1  0.271000  0.842500  0.757800  1.0
  C  C776  1  0.084700  0.229000  0.742200  1.0
  C  C777  1  0.696500  0.982400  0.723400  1.0
  C  C778  1  0.741000  0.196500  0.223400  1.0
  C  C779  1  0.482400  0.526900  0.223400  1.0
  C  C780  1  0.973100  0.759000  0.276600  1.0
  C  C781  1  0.517600  0.473100  0.776600  1.0
  C  C782  1  0.303500  0.017600  0.276600  1.0
  C  C783  1  0.259000  0.803500  0.776600  1.0
  C  C784  1  0.026900  0.241000  0.723400  1.0
  C  C785  1  0.752800  0.978100  0.747000  1.0
  C  C786  1  0.768900  0.252800  0.247000  1.0
  C  C787  1  0.478100  0.494200  0.247000  1.0
  C  C788  1  0.005800  0.731100  0.253000  1.0
  C  C789  1  0.521900  0.505800  0.753000  1.0
  C  C790  1  0.247200  0.021900  0.253000  1.0
  C  C791  1  0.231100  0.747200  0.753000  1.0
  C  C792  1  0.994200  0.268900  0.747000  1.0
  C  C793  1  0.768800  0.001400  0.785800  1.0
  C  C794  1  0.784400  0.268800  0.285800  1.0
  C  C795  1  0.501400  0.517000  0.285800  1.0
  C  C796  1  0.983000  0.715600  0.214200  1.0
  C  C797  1  0.498600  0.483000  0.714200  1.0
  C  C798  1  0.231200  0.998600  0.214200  1.0
  C  C799  1  0.215600  0.731200  0.714200  1.0
  C  C800  1  0.017000  0.284400  0.785800  1.0
  C  C801  1  0.730500  0.032700  0.803800  1.0
  C  C802  1  0.771100  0.230500  0.303800  1.0
  C  C803  1  0.532700  0.573300  0.303800  1.0
  C  C804  1  0.926700  0.728900  0.196200  1.0
  C  C805  1  0.467300  0.426700  0.696200  1.0
  C  C806  1  0.269500  0.967300  0.196200  1.0
  C  C807  1  0.228900  0.769500  0.696200  1.0
  C  C808  1  0.073300  0.271100  0.803800  1.0
  C  C809  1  0.793500  0.942900  0.727200  1.0
  C  C810  1  0.784300  0.293500  0.227200  1.0
  C  C811  1  0.442900  0.433700  0.227200  1.0
  C  C812  1  0.066300  0.715700  0.272800  1.0
  C  C813  1  0.557100  0.566300  0.772800  1.0
  C  C814  1  0.206500  0.057100  0.272800  1.0
  C  C815  1  0.215700  0.706500  0.772800  1.0
  C  C816  1  0.933700  0.284300  0.727200  1.0
  C  C817  1  0.550000  0.174700  0.907200  1.0
  C  C818  1  0.732500  0.050000  0.407200  1.0
  C  C819  1  0.674700  0.857200  0.407200  1.0
  C  C820  1  0.642800  0.767500  0.092800  1.0
  C  C821  1  0.325300  0.142800  0.592800  1.0
  C  C822  1  0.450000  0.825300  0.092800  1.0
  C  C823  1  0.267500  0.950000  0.592800  1.0
  C  C824  1  0.357200  0.232500  0.907200  1.0
  C  C825  1  0.513300  0.200200  0.931600  1.0
  C  C826  1  0.731400  0.013300  0.431600  1.0
  C  C827  1  0.700200  0.918300  0.431600  1.0
  C  C828  1  0.581700  0.768600  0.068400  1.0
  C  C829  1  0.299800  0.081700  0.568400  1.0
  C  C830  1  0.486700  0.799800  0.068400  1.0
  C  C831  1  0.268600  0.986700  0.568400  1.0
  C  C832  1  0.418300  0.231400  0.931600  1.0
  C  C833  1  0.532800  0.220000  0.971000  1.0
  C  C834  1  0.751000  0.032800  0.471000  1.0
  C  C835  1  0.720000  0.938200  0.471000  1.0
  C  C836  1  0.561800  0.749000  0.029000  1.0
  C  C837  1  0.280000  0.061800  0.529000  1.0
  C  C838  1  0.467200  0.780000  0.029000  1.0
  C  C839  1  0.249000  0.967200  0.529000  1.0
  C  C840  1  0.438200  0.251000  0.971000  1.0
  C  C841  1  0.582100  0.045300  0.795800  1.0
  C  C842  1  0.750500  0.082100  0.295800  1.0
  C  C843  1  0.545300  0.713700  0.295800  1.0
  C  C844  1  0.786300  0.749500  0.204200  1.0
  C  C845  1  0.454700  0.286300  0.704200  1.0
  C  C846  1  0.417900  0.954700  0.204200  1.0
  C  C847  1  0.249500  0.917900  0.704200  1.0
  C  C848  1  0.213700  0.250500  0.795800  1.0
  C  C849  1  0.556300  0.985100  0.770800  1.0
  C  C850  1  0.785700  0.056300  0.270800  1.0
  C  C851  1  0.485100  0.714500  0.270800  1.0
  C  C852  1  0.785500  0.714300  0.229200  1.0
  C  C853  1  0.514900  0.285500  0.729200  1.0
  C  C854  1  0.443700  0.014900  0.229200  1.0
  C  C855  1  0.214300  0.943700  0.729200  1.0
  C  C856  1  0.214500  0.285700  0.770800  1.0
  C  C857  1  0.583600  0.936400  0.780400  1.0
  C  C858  1  0.844000  0.083600  0.280400  1.0
  C  C859  1  0.436400  0.696800  0.280400  1.0
  C  C860  1  0.803200  0.656000  0.219600  1.0
  C  C861  1  0.563600  0.303200  0.719600  1.0
  C  C862  1  0.416400  0.063600  0.219600  1.0
  C  C863  1  0.156000  0.916400  0.719600  1.0
  C  C864  1  0.196800  0.344000  0.780400  1.0
  C  C865  1  0.555700  0.880100  0.759400  1.0
  C  C866  1  0.879300  0.055700  0.259400  1.0
  C  C867  1  0.380100  0.703700  0.259400  1.0
  C  C868  1  0.796300  0.620700  0.240600  1.0
  C  C869  1  0.619900  0.296300  0.740600  1.0
  C  C870  1  0.444300  0.119900  0.240600  1.0
  C  C871  1  0.120700  0.944300  0.740600  1.0
  C  C872  1  0.203700  0.379300  0.759400  1.0
  C  C873  1  0.505600  0.870900  0.727800  1.0
  C  C874  1  0.856900  0.005600  0.227800  1.0
  C  C875  1  0.370900  0.722200  0.227800  1.0
  C  C876  1  0.777800  0.643100  0.272200  1.0
  C  C877  1  0.629100  0.277800  0.772200  1.0
  C  C878  1  0.494400  0.129100  0.272200  1.0
  C  C879  1  0.143100  0.994400  0.772200  1.0
  C  C880  1  0.222200  0.356900  0.727800  1.0
  C  C881  1  0.479330  0.919430  0.718660  1.0
  C  C882  1  0.799230  0.979330  0.218660  1.0
  C  C883  1  0.419430  0.739330  0.218660  1.0
  C  C884  1  0.760670  0.700770  0.281340  1.0
  C  C885  1  0.580570  0.260670  0.781340  1.0
  C  C886  1  0.520670  0.080570  0.281340  1.0
  C  C887  1  0.200770  0.020670  0.781340  1.0
  C  C888  1  0.239330  0.299230  0.718660  1.0
  C  C889  1  0.504650  0.975650  0.740500  1.0
  C  C890  1  0.764850  0.004650  0.240500  1.0
  C  C891  1  0.475650  0.735850  0.240500  1.0
  C  C892  1  0.764150  0.735150  0.259500  1.0
  C  C893  1  0.524350  0.264150  0.759500  1.0
  C  C894  1  0.495350  0.024350  0.259500  1.0
  C  C895  1  0.235150  0.995350  0.759500  1.0
  C  C896  1  0.235850  0.264850  0.740500  1.0
  C  C897  1  0.592050  0.237350  0.813700  1.0
  C  C898  1  0.576350  0.092050  0.313700  1.0
  C  C899  1  0.737350  0.721650  0.313700  1.0
  C  C900  1  0.778350  0.923650  0.186300  1.0
  C  C901  1  0.262650  0.278350  0.686300  1.0
  C  C902  1  0.407950  0.762650  0.186300  1.0
  C  C903  1  0.423650  0.907950  0.686300  1.0
  C  C904  1  0.221650  0.076350  0.813700  1.0
  Ga  Ga905  1  0.101720  0.144980  0.153640  1.0
  Ga  Ga906  1  0.008660  0.601720  0.653640  1.0
  Ga  Ga907  1  0.644980  0.551920  0.653640  1.0
  Ga  Ga908  1  0.948080  0.491340  0.846360  1.0
  Ga  Ga909  1  0.355020  0.448080  0.346360  1.0
  Ga  Ga910  1  0.898280  0.855020  0.846360  1.0
  Ga  Ga911  1  0.991340  0.398280  0.346360  1.0
  Ga  Ga912  1  0.051920  0.508660  0.153640  1.0
  Ga  Ga913  1  0.599820  0.154830  0.850100  1.0
  Ga  Ga914  1  0.695270  0.099820  0.350100  1.0
  Ga  Ga915  1  0.654830  0.750280  0.350100  1.0
  Ga  Ga916  1  0.749720  0.804730  0.149900  1.0
  Ga  Ga917  1  0.345170  0.249720  0.649900  1.0
  Ga  Ga918  1  0.400180  0.845170  0.149900  1.0
  Ga  Ga919  1  0.304730  0.900180  0.649900  1.0
  Ga  Ga920  1  0.250280  0.195270  0.850100  1.0
  H  H921  1  0.967200  0.380900  0.151400  1
  H  H922  1  0.770500  0.467200  0.651400  1
  H  H923  1  0.880900  0.684200  0.651400  1
  H  H924  1  0.815800  0.729500  0.848600  1
  H  H925  1  0.119100  0.315800  0.348600  1
  H  H926  1  0.032800  0.619100  0.848600  1
  H  H927  1  0.229500  0.532800  0.348600  1
  H  H928  1  0.184200  0.270500  0.151400  1
  H  H929  1  0.025800  0.315700  0.223000  1
  H  H930  1  0.907300  0.525800  0.723000  1
  H  H931  1  0.815700  0.697200  0.723000  1
  H  H932  1  0.802800  0.592700  0.777000  1
  H  H933  1  0.184300  0.302800  0.277000  1
  H  H934  1  0.974200  0.684300  0.777000  1
  H  H935  1  0.092700  0.474200  0.277000  1
  H  H936  1  0.197200  0.407300  0.223000  1
  H  H937  1  0.042200  0.374800  0.217600  1
  H  H938  1  0.842800  0.542200  0.717600  1
  H  H939  1  0.874800  0.675400  0.717600  1
  H  H940  1  0.824600  0.657200  0.782400  1
  H  H941  1  0.125200  0.324600  0.282400  1
  H  H942  1  0.957800  0.625200  0.782400  1
  H  H943  1  0.157200  0.457800  0.282400  1
  H  H944  1  0.175400  0.342800  0.217600  1
  H  H945  1  0.034900  0.314800  0.184000  1
  H  H946  1  0.869200  0.534900  0.684000  1
  H  H947  1  0.814800  0.649100  0.684000  1
  H  H948  1  0.850900  0.630800  0.816000  1
  H  H949  1  0.185200  0.350900  0.316000  1
  H  H950  1  0.965100  0.685200  0.816000  1
  H  H951  1  0.130800  0.465100  0.316000  1
  H  H952  1  0.149100  0.369200  0.184000  1
  H  H953  1  0.940200  0.302500  0.223200  1
  H  H954  1  0.920700  0.440200  0.723200  1
  H  H955  1  0.802500  0.783000  0.723200  1
  H  H956  1  0.717000  0.579300  0.776800  1
  H  H957  1  0.197500  0.217000  0.276800  1
  H  H958  1  0.059800  0.697500  0.776800  1
  H  H959  1  0.079300  0.559800  0.276800  1
  H  H960  1  0.283000  0.420700  0.223200  1
  H  H961  1  0.888900  0.292700  0.183800  1
  H  H962  1  0.891100  0.388900  0.683800  1
  H  H963  1  0.792700  0.794900  0.683800  1
  H  H964  1  0.705100  0.608900  0.816200  1
  H  H965  1  0.207300  0.205100  0.316200  1
  H  H966  1  0.111100  0.707300  0.816200  1
  H  H967  1  0.108900  0.611100  0.316200  1
  H  H968  1  0.294900  0.391100  0.183800  1
  H  H969  1  0.901700  0.353500  0.217400  1
  H  H970  1  0.863900  0.401700  0.717400  1
  H  H971  1  0.853500  0.815700  0.717400  1
  H  H972  1  0.684300  0.636100  0.782600  1
  H  H973  1  0.146500  0.184300  0.282600  1
  H  H974  1  0.098300  0.646500  0.782600  1
  H  H975  1  0.136100  0.598300  0.282600  1
  H  H976  1  0.315700  0.363900  0.217400  1
  H  H977  1  0.850200  0.850700  0.929400  1
  H  H978  1  0.078700  0.350200  0.429400  1
  H  H979  1  0.350700  0.579200  0.429400  1
  H  H980  1  0.920800  0.421300  0.070600  1
  H  H981  1  0.649300  0.420800  0.570600  1
  H  H982  1  0.149800  0.149300  0.070600  1
  H  H983  1  0.921300  0.649800  0.570600  1
  H  H984  1  0.079200  0.578700  0.929400  1
  H  H985  1  0.724300  0.874200  0.954400  1
  H  H986  1  0.080200  0.224300  0.454400  1
  H  H987  1  0.374200  0.730100  0.454400  1
  H  H988  1  0.769900  0.419800  0.045600  1
  H  H989  1  0.625800  0.269900  0.545600  1
  H  H990  1  0.275700  0.125800  0.045600  1
  H  H991  1  0.919800  0.775700  0.545600  1
  H  H992  1  0.230100  0.580200  0.954400  1
  H  H993  1  0.751200  0.819200  0.933800  1
  H  H994  1  0.114600  0.251200  0.433800  1
  H  H995  1  0.319200  0.682600  0.433800  1
  H  H996  1  0.817400  0.385400  0.066200  1
  H  H997  1  0.680800  0.317400  0.566200  1
  H  H998  1  0.248800  0.180800  0.066200  1
  H  H999  1  0.885400  0.748800  0.566200  1
  H  H1000  1  0.182600  0.614600  0.933800  1
  H  H1001  1  0.743500  0.873100  0.918600  1
  H  H1002  1  0.045500  0.243500  0.418600  1
  H  H1003  1  0.373100  0.675100  0.418600  1
  H  H1004  1  0.824900  0.454500  0.081400  1
  H  H1005  1  0.626900  0.324900  0.581400  1
  H  H1006  1  0.256500  0.126900  0.081400  1
  H  H1007  1  0.954500  0.756500  0.581400  1
  H  H1008  1  0.175100  0.545500  0.918600  1
  H  H1009  1  0.775100  0.924800  0.007000  1
  H  H1010  1  0.082200  0.275100  0.507000  1
  H  H1011  1  0.424800  0.731900  0.507000  1
  H  H1012  1  0.768100  0.417800  0.993000  1
  H  H1013  1  0.575200  0.268100  0.493000  1
  H  H1014  1  0.224900  0.075200  0.993000  1
  H  H1015  1  0.917800  0.724900  0.493000  1
  H  H1016  1  0.231900  0.582200  0.007000  1
  H  H1017  1  0.831700  0.961400  0.010600  1
  H  H1018  1  0.049200  0.331700  0.510600  1
  H  H1019  1  0.461400  0.678900  0.510600  1
  H  H1020  1  0.821100  0.450800  0.989400  1
  H  H1021  1  0.538600  0.321100  0.489400  1
  H  H1022  1  0.168300  0.038600  0.989400  1
  H  H1023  1  0.950800  0.668300  0.489400  1
  H  H1024  1  0.178900  0.549200  0.010600  1
  H  H1025  1  0.837300  0.905500  0.023600  1
  H  H1026  1  0.118100  0.337300  0.523600  1
  H  H1027  1  0.405500  0.686300  0.523600  1
  H  H1028  1  0.813700  0.381900  0.976400  1
  H  H1029  1  0.594500  0.313700  0.476400  1
  H  H1030  1  0.162700  0.094500  0.976400  1
  H  H1031  1  0.881900  0.662700  0.476400  1
  H  H1032  1  0.186300  0.618100  0.023600  1
  H  H1033  1  0.888400  0.998200  0.884800  1
  H  H1034  1  0.886600  0.388400  0.384800  1
  H  H1035  1  0.498200  0.496400  0.384800  1
  H  H1036  1  0.003600  0.613400  0.115200  1
  H  H1037  1  0.501800  0.503600  0.615200  1
  H  H1038  1  0.111600  0.001800  0.115200  1
  H  H1039  1  0.113400  0.611600  0.615200  1
  H  H1040  1  0.996400  0.386600  0.884800  1
  H  H1041  1  0.022300  0.075400  0.942800  1
  H  H1042  1  0.867400  0.522300  0.442800  1
  H  H1043  1  0.575400  0.420500  0.442800  1
  H  H1044  1  0.079500  0.632600  0.057200  1
  H  H1045  1  0.424600  0.579500  0.557200  1
  H  H1046  1  0.977700  0.924600  0.057200  1
  H  H1047  1  0.132600  0.477700  0.557200  1
  H  H1048  1  0.920500  0.367400  0.942800  1
  H  H1049  1  0.999600  0.018300  0.906200  1
  H  H1050  1  0.887900  0.499600  0.406200  1
  H  H1051  1  0.518300  0.406600  0.406200  1
  H  H1052  1  0.093400  0.612100  0.093800  1
  H  H1053  1  0.481700  0.593400  0.593800  1
  H  H1054  1  0.000400  0.981700  0.093800  1
  H  H1055  1  0.112100  0.500400  0.593800  1
  H  H1056  1  0.906600  0.387900  0.906200  1
  H  H1057  1  0.985200  0.023100  0.944200  1
  H  H1058  1  0.921100  0.485200  0.444200  1
  H  H1059  1  0.523100  0.459000  0.444200  1
  H  H1060  1  0.041000  0.578900  0.055800  1
  H  H1061  1  0.476900  0.541000  0.555800  1
  H  H1062  1  0.014800  0.976900  0.055800  1
  H  H1063  1  0.078900  0.514800  0.555800  1
  H  H1064  1  0.959000  0.421100  0.944200  1
  H  H1065  1  0.978600  0.149100  0.947200  1
  H  H1066  1  0.798100  0.478600  0.447200  1
  H  H1067  1  0.649100  0.468600  0.447200  1
  H  H1068  1  0.031400  0.701900  0.052800  1
  H  H1069  1  0.350900  0.531400  0.552800  1
  H  H1070  1  0.021400  0.850900  0.052800  1
  H  H1071  1  0.201900  0.521400  0.552800  1
  H  H1072  1  0.968600  0.298100  0.947200  1
  H  H1073  1  0.916300  0.138500  0.950200  1
  H  H1074  1  0.811700  0.416300  0.450200  1
  H  H1075  1  0.638500  0.533900  0.450200  1
  H  H1076  1  0.966100  0.688300  0.049800  1
  H  H1077  1  0.361500  0.466100  0.549800  1
  H  H1078  1  0.083700  0.861500  0.049800  1
  H  H1079  1  0.188300  0.583700  0.549800  1
  H  H1080  1  0.033900  0.311700  0.950200  1
  H  H1081  1  0.921700  0.150400  0.913400  1
  H  H1082  1  0.763000  0.421700  0.413400  1
  H  H1083  1  0.650400  0.491700  0.413400  1
  H  H1084  1  0.008300  0.737000  0.086600  1
  H  H1085  1  0.349600  0.508300  0.586600  1
  H  H1086  1  0.078300  0.849600  0.086600  1
  H  H1087  1  0.237000  0.578300  0.586600  1
  H  H1088  1  0.991700  0.263000  0.913400  1
  H  H1089  1  0.361700  0.077500  0.851000  1
  H  H1090  1  0.773500  0.861700  0.351000  1
  H  H1091  1  0.577500  0.989300  0.351000  1
  H  H1092  1  0.510700  0.726500  0.149000  1
  H  H1093  1  0.422500  0.010700  0.649000  1
  H  H1094  1  0.638300  0.922500  0.149000  1
  H  H1095  1  0.226500  0.138300  0.649000  1
  H  H1096  1  0.489300  0.273500  0.851000  1
  H  H1097  1  0.416300  0.055900  0.776000  1
  H  H1098  1  0.720100  0.916300  0.276000  1
  H  H1099  1  0.555900  0.859700  0.276000  1
  H  H1100  1  0.640300  0.779900  0.224000  1
  H  H1101  1  0.444100  0.140300  0.724000  1
  H  H1102  1  0.583700  0.944100  0.224000  1
  H  H1103  1  0.279900  0.083700  0.724000  1
  H  H1104  1  0.359700  0.220100  0.776000  1
  H  H1105  1  0.422600  0.106100  0.815400  1
  H  H1106  1  0.709300  0.922600  0.315400  1
  H  H1107  1  0.606100  0.892800  0.315400  1
  H  H1108  1  0.607200  0.790700  0.184600  1
  H  H1109  1  0.393900  0.107200  0.684600  1
  H  H1110  1  0.577400  0.893900  0.184600  1
  H  H1111  1  0.290700  0.077400  0.684600  1
  H  H1112  1  0.392800  0.209300  0.815400  1
  H  H1113  1  0.360000  0.080900  0.784600  1
  H  H1114  1  0.703700  0.860000  0.284600  1
  H  H1115  1  0.580900  0.924600  0.284600  1
  H  H1116  1  0.575400  0.796300  0.215400  1
  H  H1117  1  0.419100  0.075400  0.715400  1
  H  H1118  1  0.640000  0.919100  0.215400  1
  H  H1119  1  0.296300  0.140000  0.715400  1
  H  H1120  1  0.424600  0.203700  0.784600  1
  H  H1121  1  0.429700  0.969100  0.778000  1
  H  H1122  1  0.808900  0.929700  0.278000  1
  H  H1123  1  0.469100  0.848300  0.278000  1
  H  H1124  1  0.651700  0.691100  0.222000  1
  H  H1125  1  0.530900  0.151700  0.722000  1
  H  H1126  1  0.570300  0.030900  0.222000  1
  H  H1127  1  0.191100  0.070300  0.722000  1
  H  H1128  1  0.348300  0.308900  0.778000  1
  H  H1129  1  0.381400  0.939800  0.788200  1
  H  H1130  1  0.848400  0.881400  0.288200  1
  H  H1131  1  0.439800  0.906800  0.288200  1
  H  H1132  1  0.593200  0.651600  0.211800  1
  H  H1133  1  0.560200  0.093200  0.711800  1
  H  H1134  1  0.618600  0.060200  0.211800  1
  H  H1135  1  0.151600  0.118600  0.711800  1
  H  H1136  1  0.406800  0.348400  0.788200  1
  H  H1137  1  0.444400  0.961500  0.819000  1
  H  H1138  1  0.857500  0.944400  0.319000  1
  H  H1139  1  0.461500  0.874600  0.319000  1
  H  H1140  1  0.625400  0.642500  0.181000  1
  H  H1141  1  0.538500  0.125400  0.681000  1
  H  H1142  1  0.555600  0.038500  0.181000  1
  H  H1143  1  0.142500  0.055600  0.681000  1
  H  H1144  1  0.374600  0.357500  0.819000  1
  H  H1145  1  0.994100  0.244100  0.988200  1.0
  H  H1146  1  0.744100  0.494100  0.488200  1.0
  H  H1147  1  0.005900  0.755900  0.011800  1.0
  H  H1148  1  0.255900  0.505900  0.511800  1.0
  H  H1149  1  0.061900  0.311900  0.123800  1.0
  H  H1150  1  0.811900  0.561900  0.623800  1.0
  H  H1151  1  0.938100  0.688100  0.876200  1.0
  H  H1152  1  0.188100  0.438100  0.376200  1.0
  H  H1153  1  0.509700  0.259700  0.019400  1.0
  H  H1154  1  0.759700  0.009700  0.519400  1.0
  H  H1155  1  0.490300  0.740300  0.980600  1.0
  H  H1156  1  0.240300  0.990300  0.480600  1.0
  H  H1157  1  0.062500  0.098400  0.263800  1.0
  H  H1158  1  0.165400  0.562500  0.763800  1.0
  H  H1159  1  0.598400  0.701300  0.763800  1.0
  H  H1160  1  0.798700  0.334600  0.736200  1.0
  H  H1161  1  0.401600  0.298700  0.236200  1.0
  H  H1162  1  0.937500  0.901600  0.736200  1.0
  H  H1163  1  0.834600  0.437500  0.236200  1.0
  H  H1164  1  0.201300  0.665400  0.263800  1.0
  H  H1165  1  0.031000  0.022600  0.283800  1.0
  H  H1166  1  0.261200  0.531000  0.783800  1.0
  H  H1167  1  0.522600  0.752800  0.783800  1.0
  H  H1168  1  0.747200  0.238800  0.716200  1.0
  H  H1169  1  0.477400  0.247200  0.216200  1.0
  H  H1170  1  0.969000  0.977400  0.716200  1.0
  H  H1171  1  0.738800  0.469000  0.216200  1.0
  H  H1172  1  0.252800  0.761200  0.283800  1.0
  H  H1173  1  0.977000  0.915300  0.175800  1.0
  H  H1174  1  0.260500  0.477000  0.675800  1.0
  H  H1175  1  0.415300  0.698800  0.675800  1.0
  H  H1176  1  0.801200  0.239500  0.824200  1.0
  H  H1177  1  0.584700  0.301200  0.324200  1.0
  H  H1178  1  0.023000  0.084700  0.824200  1.0
  H  H1179  1  0.739500  0.523000  0.324200  1.0
  H  H1180  1  0.198800  0.760500  0.175800  1.0
  H  H1181  1  0.009600  0.987300  0.154800  1.0
  H  H1182  1  0.167500  0.509600  0.654800  1.0
  H  H1183  1  0.487300  0.645200  0.654800  1.0
  H  H1184  1  0.854800  0.332500  0.845200  1.0
  H  H1185  1  0.512700  0.354800  0.345200  1.0
  H  H1186  1  0.990400  0.012700  0.845200  1.0
  H  H1187  1  0.832500  0.490400  0.345200  1.0
  H  H1188  1  0.145200  0.667500  0.154800  1.0
  H  H1189  1  0.963700  0.880700  0.221600  1.0
  H  H1190  1  0.340900  0.463700  0.721600  1.0
  H  H1191  1  0.380700  0.757900  0.721600  1.0
  H  H1192  1  0.742100  0.159100  0.778400  1.0
  H  H1193  1  0.619300  0.242100  0.278400  1.0
  H  H1194  1  0.036300  0.119300  0.778400  1.0
  H  H1195  1  0.659100  0.536300  0.278400  1.0
  H  H1196  1  0.257900  0.840900  0.221600  1.0
  H  H1197  1  0.949200  0.929600  0.254800  1.0
  H  H1198  1  0.325200  0.449200  0.754800  1.0
  H  H1199  1  0.429600  0.805600  0.754800  1.0
  H  H1200  1  0.694400  0.174800  0.745200  1.0
  H  H1201  1  0.570400  0.194400  0.245200  1.0
  H  H1202  1  0.050800  0.070400  0.745200  1.0
  H  H1203  1  0.674800  0.550800  0.245200  1.0
  H  H1204  1  0.305600  0.825200  0.254800  1.0
  H  H1205  1  0.011300  0.906400  0.263200  1.0
  H  H1206  1  0.356800  0.511300  0.763200  1.0
  H  H1207  1  0.406400  0.751900  0.763200  1.0
  H  H1208  1  0.748100  0.143200  0.736800  1.0
  H  H1209  1  0.593600  0.248100  0.236800  1.0
  H  H1210  1  0.988700  0.093600  0.736800  1.0
  H  H1211  1  0.643200  0.488700  0.236800  1.0
  H  H1212  1  0.251900  0.856800  0.263200  1.0
  H  H1213  1  0.235600  0.023800  0.129600  1.0
  H  H1214  1  0.105800  0.735600  0.629600  1.0
  H  H1215  1  0.523800  0.394000  0.629600  1.0
  H  H1216  1  0.106000  0.394200  0.870400  1.0
  H  H1217  1  0.476200  0.606000  0.370400  1.0
  H  H1218  1  0.764400  0.976200  0.870400  1.0
  H  H1219  1  0.894200  0.264400  0.370400  1.0
  H  H1220  1  0.894000  0.605800  0.129600  1.0
  H  H1221  1  0.315200  0.989900  0.110000  1.0
  H  H1222  1  0.120100  0.815200  0.610000  1.0
  H  H1223  1  0.489900  0.294800  0.610000  1.0
  H  H1224  1  0.205200  0.379900  0.890000  1.0
  H  H1225  1  0.510100  0.705200  0.390000  1.0
  H  H1226  1  0.684800  0.010100  0.890000  1.0
  H  H1227  1  0.879900  0.184800  0.390000  1.0
  H  H1228  1  0.794800  0.620100  0.110000  1.0
  H  H1229  1  0.391500  0.153100  0.149800  1.0
  H  H1230  1  0.996700  0.891500  0.649800  1.0
  H  H1231  1  0.653100  0.258300  0.649800  1.0
  H  H1232  1  0.241700  0.503300  0.850200  1.0
  H  H1233  1  0.346900  0.741700  0.350200  1.0
  H  H1234  1  0.608500  0.846900  0.850200  1.0
  H  H1235  1  0.003300  0.108500  0.350200  1.0
  H  H1236  1  0.758300  0.496700  0.149800  1.0
  H  H1237  1  0.311700  0.189700  0.168400  1.0
  H  H1238  1  0.978700  0.811700  0.668400  1.0
  H  H1239  1  0.689700  0.356700  0.668400  1.0
  H  H1240  1  0.143300  0.521300  0.831600  1.0
  H  H1241  1  0.310300  0.643300  0.331600  1.0
  H  H1242  1  0.688300  0.810300  0.831600  1.0
  H  H1243  1  0.021300  0.188300  0.331600  1.0
  H  H1244  1  0.856700  0.478700  0.168400  1.0
  H  H1245  1  0.442500  0.075800  0.122000  1.0
  H  H1246  1  0.046200  0.942500  0.622000  1.0
  H  H1247  1  0.575800  0.179500  0.622000  1.0
  H  H1248  1  0.320500  0.453800  0.878000  1.0
  H  H1249  1  0.424200  0.820500  0.378000  1.0
  H  H1250  1  0.557500  0.924200  0.878000  1.0
  H  H1251  1  0.953800  0.057500  0.378000  1.0
  H  H1252  1  0.679500  0.546200  0.122000  1.0
  H  H1253  1  0.399200  0.024000  0.087800  1.0
  H  H1254  1  0.063800  0.899200  0.587800  1.0
  H  H1255  1  0.524000  0.188600  0.587800  1.0
  H  H1256  1  0.311400  0.436200  0.912200  1.0
  H  H1257  1  0.476000  0.811400  0.412200  1.0
  H  H1258  1  0.600800  0.976000  0.912200  1.0
  H  H1259  1  0.936200  0.100800  0.412200  1.0
  H  H1260  1  0.688600  0.563800  0.087800  1.0
  H  H1261  1  0.429900  0.016700  0.128600  1.0
  H  H1262  1  0.111900  0.929900  0.628600  1.0
  H  H1263  1  0.516700  0.198700  0.628600  1.0
  H  H1264  1  0.301300  0.388100  0.871400  1.0
  H  H1265  1  0.483300  0.801300  0.371400  1.0
  H  H1266  1  0.570100  0.983300  0.871400  1.0
  H  H1267  1  0.888100  0.070100  0.371400  1.0
  H  H1268  1  0.698700  0.611900  0.128600  1.0
  H  H1269  1  0.993100  0.047400  0.029200  1.0
  H  H1270  1  0.981800  0.493100  0.529200  1.0
  H  H1271  1  0.547400  0.536100  0.529200  1.0
  H  H1272  1  0.963900  0.518200  0.970800  1.0
  H  H1273  1  0.452600  0.463900  0.470800  1.0
  H  H1274  1  0.006900  0.952600  0.970800  1.0
  H  H1275  1  0.018200  0.506900  0.470800  1.0
  H  H1276  1  0.036100  0.481800  0.029200  1.0
  H  H1277  1  0.904700  0.007000  0.979800  1.0
  H  H1278  1  0.972800  0.404700  0.479800  1.0
  H  H1279  1  0.507000  0.575100  0.479800  1.0
  H  H1280  1  0.924900  0.527200  0.020200  1.0
  H  H1281  1  0.493000  0.424900  0.520200  1.0
  H  H1282  1  0.095300  0.993000  0.020200  1.0
  H  H1283  1  0.027200  0.595300  0.520200  1.0
  H  H1284  1  0.075100  0.472800  0.979800  1.0
  H  H1285  1  0.834100  0.154000  0.017800  1.0
  H  H1286  1  0.863800  0.334100  0.517800  1.0
  H  H1287  1  0.654000  0.683700  0.517800  1.0
  H  H1288  1  0.816300  0.636200  0.982200  1.0
  H  H1289  1  0.346000  0.316300  0.482200  1.0
  H  H1290  1  0.165900  0.846000  0.982200  1.0
  H  H1291  1  0.136200  0.665900  0.482200  1.0
  H  H1292  1  0.183700  0.363800  0.017800  1.0
  H  H1293  1  0.921800  0.192500  0.069200  1.0
  H  H1294  1  0.876700  0.421800  0.569200  1.0
  H  H1295  1  0.692500  0.647400  0.569200  1.0
  H  H1296  1  0.852600  0.623300  0.930800  1.0
  H  H1297  1  0.307500  0.352600  0.430800  1.0
  H  H1298  1  0.078200  0.807500  0.930800  1.0
  H  H1299  1  0.123300  0.578200  0.430800  1.0
  H  H1300  1  0.147400  0.376700  0.069200  1.0
  H  H1301  1  0.805600  0.013400  0.945200  1.0
  H  H1302  1  0.931800  0.305600  0.445200  1.0
  H  H1303  1  0.513400  0.639600  0.445200  1.0
  H  H1304  1  0.860400  0.568200  0.054800  1.0
  H  H1305  1  0.486600  0.360400  0.554800  1.0
  H  H1306  1  0.194400  0.986600  0.054800  1.0
  H  H1307  1  0.068200  0.694400  0.554800  1.0
  H  H1308  1  0.139600  0.431800  0.945200  1.0
  H  H1309  1  0.790500  0.077000  0.945800  1.0
  H  H1310  1  0.868800  0.290500  0.445800  1.0
  H  H1311  1  0.577000  0.655300  0.445800  1.0
  H  H1312  1  0.844700  0.631200  0.054200  1.0
  H  H1313  1  0.423000  0.344700  0.554200  1.0
  H  H1314  1  0.209500  0.923000  0.054200  1.0
  H  H1315  1  0.131200  0.709500  0.554200  1.0
  H  H1316  1  0.155300  0.368800  0.945800  1.0
  H  H1317  1  0.772400  0.048800  0.973000  1.0
  H  H1318  1  0.924200  0.272400  0.473000  1.0
  H  H1319  1  0.548800  0.700600  0.473000  1.0
  H  H1320  1  0.799400  0.575800  0.027000  1.0
  H  H1321  1  0.451200  0.299400  0.527000  1.0
  H  H1322  1  0.227600  0.951200  0.027000  1.0
  H  H1323  1  0.075800  0.727600  0.527000  1.0
  H  H1324  1  0.200600  0.424200  0.973000  1.0
  H  H1325  1  0.017500  0.178000  0.022800  1.0
  H  H1326  1  0.844800  0.517500  0.522800  1.0
  H  H1327  1  0.678000  0.505300  0.522800  1.0
  H  H1328  1  0.994700  0.655200  0.977200  1.0
  H  H1329  1  0.322000  0.494700  0.477200  1.0
  H  H1330  1  0.982500  0.822000  0.977200  1.0
  H  H1331  1  0.155200  0.482500  0.477200  1.0
  H  H1332  1  0.005300  0.344800  0.022800  1.0
  H  H1333  1  0.922300  0.098700  0.178600  1.0
  H  H1334  1  0.079900  0.422300  0.678600  1.0
  H  H1335  1  0.598700  0.756300  0.678600  1.0
  H  H1336  1  0.743700  0.420100  0.821400  1.0
  H  H1337  1  0.401300  0.243700  0.321400  1.0
  H  H1338  1  0.077700  0.901300  0.821400  1.0
  H  H1339  1  0.920100  0.577700  0.321400  1.0
  H  H1340  1  0.256300  0.579900  0.178600  1.0
  H  H1341  1  0.851500  0.130600  0.209200  1.0
  H  H1342  1  0.078600  0.351500  0.709200  1.0
  H  H1343  1  0.630600  0.857700  0.709200  1.0
  H  H1344  1  0.642300  0.421400  0.790800  1.0
  H  H1345  1  0.369400  0.142300  0.290800  1.0
  H  H1346  1  0.148500  0.869400  0.790800  1.0
  H  H1347  1  0.921400  0.648500  0.290800  1.0
  H  H1348  1  0.357700  0.578600  0.209200  1.0
  H  H1349  1  0.877560  0.206960  0.267120  1.0
  H  H1350  1  0.060160  0.377560  0.767120  1.0
  H  H1351  1  0.706960  0.889560  0.767120  1.0
  H  H1352  1  0.610440  0.439840  0.732880  1.0
  H  H1353  1  0.293040  0.110440  0.232880  1.0
  H  H1354  1  0.122440  0.793040  0.732880  1.0
  H  H1355  1  0.939840  0.622440  0.232880  1.0
  H  H1356  1  0.389560  0.560160  0.267120  1.0
  H  H1357  1  0.037370  0.232770  0.259340  1.0
  H  H1358  1  0.026570  0.537370  0.759340  1.0
  H  H1359  1  0.732770  0.721970  0.759340  1.0
  H  H1360  1  0.778030  0.473430  0.740660  1.0
  H  H1361  1  0.267230  0.278030  0.240660  1.0
  H  H1362  1  0.962630  0.767230  0.740660  1.0
  H  H1363  1  0.973430  0.462630  0.240660  1.0
  H  H1364  1  0.221970  0.526570  0.259340  1.0
  H  H1365  1  0.696200  0.163100  0.973600  1.0
  H  H1366  1  0.810500  0.196200  0.473600  1.0
  H  H1367  1  0.663100  0.777400  0.473600  1.0
  H  H1368  1  0.722600  0.689500  0.026400  1.0
  H  H1369  1  0.336900  0.222600  0.526400  1.0
  H  H1370  1  0.303800  0.836900  0.026400  1.0
  H  H1371  1  0.189500  0.803800  0.526400  1.0
  H  H1372  1  0.277400  0.310500  0.973600  1.0
  H  H1373  1  0.723500  0.129200  0.028200  1.0
  H  H1374  1  0.899000  0.223500  0.528200  1.0
  H  H1375  1  0.629200  0.804700  0.528200  1.0
  H  H1376  1  0.695300  0.601000  0.971800  1.0
  H  H1377  1  0.370800  0.195300  0.471800  1.0
  H  H1378  1  0.276500  0.870800  0.971800  1.0
  H  H1379  1  0.101000  0.776500  0.471800  1.0
  H  H1380  1  0.304700  0.399000  0.028200  1.0
  H  H1381  1  0.563900  0.041500  0.988000  1.0
  H  H1382  1  0.946500  0.063900  0.488000  1.0
  H  H1383  1  0.541500  0.924100  0.488000  1.0
  H  H1384  1  0.575900  0.553500  0.012000  1.0
  H  H1385  1  0.458500  0.075900  0.512000  1.0
  H  H1386  1  0.436100  0.958500  0.012000  1.0
  H  H1387  1  0.053500  0.936100  0.512000  1.0
  H  H1388  1  0.424100  0.446500  0.988000  1.0
  H  H1389  1  0.536500  0.073600  0.935200  1.0
  H  H1390  1  0.861600  0.036500  0.435200  1.0
  H  H1391  1  0.573600  0.898700  0.435200  1.0
  H  H1392  1  0.601300  0.638400  0.064800  1.0
  H  H1393  1  0.426400  0.101300  0.564800  1.0
  H  H1394  1  0.463500  0.926400  0.064800  1.0
  H  H1395  1  0.138400  0.963500  0.564800  1.0
  H  H1396  1  0.398700  0.361600  0.935200  1.0
  H  H1397  1  0.710800  0.063800  0.057400  1.0
  H  H1398  1  0.993600  0.210800  0.557400  1.0
  H  H1399  1  0.563800  0.846600  0.557400  1.0
  H  H1400  1  0.653400  0.506400  0.942600  1.0
  H  H1401  1  0.436200  0.153400  0.442600  1.0
  H  H1402  1  0.289200  0.936200  0.942600  1.0
  H  H1403  1  0.006400  0.789200  0.442600  1.0
  H  H1404  1  0.346600  0.493600  0.057400  1.0
  H  H1405  1  0.664300  0.008300  0.033800  1.0
  H  H1406  1  0.025500  0.164300  0.533800  1.0
  H  H1407  1  0.508300  0.869500  0.533800  1.0
  H  H1408  1  0.630500  0.474500  0.966200  1.0
  H  H1409  1  0.491700  0.130500  0.466200  1.0
  H  H1410  1  0.335700  0.991700  0.966200  1.0
  H  H1411  1  0.974500  0.835700  0.466200  1.0
  H  H1412  1  0.369500  0.525500  0.033800  1.0
  H  H1413  1  0.647800  0.064400  0.061200  1.0
  H  H1414  1  0.996800  0.147800  0.561200  1.0
  H  H1415  1  0.564400  0.913400  0.561200  1.0
  H  H1416  1  0.586600  0.503200  0.938800  1.0
  H  H1417  1  0.435600  0.086600  0.438800  1.0
  H  H1418  1  0.352200  0.935600  0.938800  1.0
  H  H1419  1  0.003200  0.852200  0.438800  1.0
  H  H1420  1  0.413400  0.496800  0.061200  1.0
  H  H1421  1  0.594200  0.361900  0.849600  1.0
  H  H1422  1  0.487700  0.094200  0.349600  1.0
  H  H1423  1  0.861900  0.755400  0.349600  1.0
  H  H1424  1  0.744600  0.012300  0.150400  1.0
  H  H1425  1  0.138100  0.244600  0.650400  1.0
  H  H1426  1  0.405800  0.638100  0.150400  1.0
  H  H1427  1  0.512300  0.905800  0.650400  1.0
  H  H1428  1  0.255400  0.987700  0.849600  1.0
  H  H1429  1  0.647200  0.454700  0.872600  1.0
  H  H1430  1  0.417900  0.147200  0.372600  1.0
  H  H1431  1  0.954700  0.725400  0.372600  1.0
  H  H1432  1  0.774600  0.082100  0.127400  1.0
  H  H1433  1  0.045300  0.274600  0.627400  1.0
  H  H1434  1  0.352800  0.545300  0.127400  1.0
  H  H1435  1  0.582100  0.852800  0.627400  1.0
  H  H1436  1  0.225400  0.917900  0.872600  1.0
  H  H1437  1  0.795500  0.386700  0.903200  1.0
  H  H1438  1  0.516500  0.295500  0.403200  1.0
  H  H1439  1  0.886700  0.607700  0.403200  1.0
  H  H1440  1  0.892300  0.983500  0.096800  1.0
  H  H1441  1  0.113300  0.392300  0.596800  1.0
  H  H1442  1  0.204500  0.613300  0.096800  1.0
  H  H1443  1  0.483500  0.704500  0.596800  1.0
  H  H1444  1  0.107700  0.016500  0.903200  1.0
  H  H1445  1  0.745400  0.293200  0.881000  1.0
  H  H1446  1  0.587800  0.245400  0.381000  1.0
  H  H1447  1  0.793200  0.635600  0.381000  1.0
  H  H1448  1  0.864400  0.912200  0.119000  1.0
  H  H1449  1  0.206800  0.364400  0.619000  1.0
  H  H1450  1  0.254600  0.706800  0.119000  1.0
  H  H1451  1  0.412200  0.754600  0.619000  1.0
  H  H1452  1  0.135600  0.087800  0.881000  1.0
  H  H1453  1  0.732400  0.518600  0.901800  1.0
  H  H1454  1  0.383200  0.232400  0.401800  1.0
  H  H1455  1  0.018600  0.669400  0.401800  1.0
  H  H1456  1  0.830600  0.116800  0.098200  1.0
  H  H1457  1  0.981400  0.330600  0.598200  1.0
  H  H1458  1  0.267600  0.481400  0.098200  1.0
  H  H1459  1  0.616800  0.767600  0.598200  1.0
  H  H1460  1  0.169400  0.883200  0.901800  1.0
  H  H1461  1  0.787500  0.491800  0.892400  1.0
  H  H1462  1  0.400600  0.287500  0.392400  1.0
  H  H1463  1  0.991800  0.604900  0.392400  1.0
  H  H1464  1  0.895100  0.099400  0.107600  1.0
  H  H1465  1  0.008200  0.395100  0.607600  1.0
  H  H1466  1  0.212500  0.508200  0.107600  1.0
  H  H1467  1  0.599400  0.712500  0.607600  1.0
  H  H1468  1  0.104900  0.900600  0.892400  1.0
  H  H1469  1  0.781200  0.500900  0.933400  1.0
  H  H1470  1  0.432500  0.281200  0.433400  1.0
  H  H1471  1  0.000900  0.652200  0.433400  1.0
  H  H1472  1  0.847800  0.067500  0.066600  1.0
  H  H1473  1  0.999100  0.347800  0.566600  1.0
  H  H1474  1  0.218800  0.499100  0.066600  1.0
  H  H1475  1  0.567500  0.718800  0.566600  1.0
  H  H1476  1  0.152200  0.932500  0.933400  1.0
  H  H1477  1  0.620200  0.017900  0.727200  1.0
  H  H1478  1  0.709300  0.120200  0.227200  1.0
  H  H1479  1  0.517900  0.607000  0.227200  1.0
  H  H1480  1  0.893000  0.790700  0.272800  1.0
  H  H1481  1  0.482100  0.393000  0.772800  1.0
  H  H1482  1  0.379800  0.982100  0.272800  1.0
  H  H1483  1  0.290700  0.879800  0.772800  1.0
  H  H1484  1  0.107000  0.209300  0.727200  1.0
  H  H1485  1  0.684900  0.965800  0.696400  1.0
  H  H1486  1  0.730600  0.184900  0.196400  1.0
  H  H1487  1  0.465800  0.511500  0.196400  1.0
  H  H1488  1  0.988500  0.769400  0.303600  1.0
  H  H1489  1  0.534200  0.488500  0.803600  1.0
  H  H1490  1  0.315100  0.034200  0.303600  1.0
  H  H1491  1  0.269400  0.815100  0.803600  1.0
  H  H1492  1  0.011500  0.230600  0.696400  1.0
  H  H1493  1  0.805900  0.996800  0.801200  1.0
  H  H1494  1  0.804400  0.305900  0.301200  1.0
  H  H1495  1  0.496800  0.495300  0.301200  1.0
  H  H1496  1  0.004700  0.695600  0.198800  1.0
  H  H1497  1  0.503200  0.504700  0.698800  1.0
  H  H1498  1  0.194100  0.003200  0.198800  1.0
  H  H1499  1  0.195600  0.694100  0.698800  1.0
  H  H1500  1  0.995300  0.304400  0.801200  1.0
  H  H1501  1  0.743000  0.051300  0.830600  1.0
  H  H1502  1  0.779300  0.243000  0.330600  1.0
  H  H1503  1  0.551300  0.587600  0.330600  1.0
  H  H1504  1  0.912400  0.720700  0.169400  1.0
  H  H1505  1  0.448700  0.412400  0.669400  1.0
  H  H1506  1  0.257000  0.948700  0.169400  1.0
  H  H1507  1  0.220700  0.757000  0.669400  1.0
  H  H1508  1  0.087600  0.279300  0.830600  1.0
  H  H1509  1  0.774500  0.929800  0.699400  1.0
  H  H1510  1  0.769600  0.274500  0.199400  1.0
  H  H1511  1  0.429800  0.424900  0.199400  1.0
  H  H1512  1  0.075100  0.730400  0.300600  1.0
  H  H1513  1  0.570200  0.575100  0.800600  1.0
  H  H1514  1  0.225500  0.070200  0.300600  1.0
  H  H1515  1  0.230400  0.725500  0.800600  1.0
  H  H1516  1  0.924900  0.269600  0.699400  1.0
  H  H1517  1  0.802200  0.909300  0.735600  1.0
  H  H1518  1  0.826300  0.302200  0.235600  1.0
  H  H1519  1  0.409300  0.433400  0.235600  1.0
  H  H1520  1  0.066600  0.673700  0.264400  1.0
  H  H1521  1  0.590700  0.566600  0.764400  1.0
  H  H1522  1  0.197800  0.090700  0.264400  1.0
  H  H1523  1  0.173700  0.697800  0.764400  1.0
  H  H1524  1  0.933400  0.326300  0.735600  1.0
  H  H1525  1  0.829300  0.967200  0.733800  1.0
  H  H1526  1  0.766600  0.329300  0.233800  1.0
  H  H1527  1  0.467200  0.404500  0.233800  1.0
  H  H1528  1  0.095500  0.733400  0.266200  1.0
  H  H1529  1  0.532800  0.595500  0.766200  1.0
  H  H1530  1  0.170700  0.032800  0.266200  1.0
  H  H1531  1  0.233400  0.670700  0.766200  1.0
  H  H1532  1  0.904500  0.266600  0.733800  1.0
  H  H1533  1  0.571400  0.216100  0.984200  1.0
  H  H1534  1  0.768100  0.071400  0.484200  1.0
  H  H1535  1  0.716100  0.912800  0.484200  1.0
  H  H1536  1  0.587200  0.731900  0.015800  1.0
  H  H1537  1  0.283900  0.087200  0.515800  1.0
  H  H1538  1  0.428600  0.783900  0.015800  1.0
  H  H1539  1  0.231900  0.928600  0.515800  1.0
  H  H1540  1  0.412800  0.268100  0.984200  1.0
  H  H1541  1  0.619300  0.942600  0.800400  1.0
  H  H1542  1  0.857800  0.119300  0.300400  1.0
  H  H1543  1  0.442600  0.681100  0.300400  1.0
  H  H1544  1  0.818900  0.642200  0.199600  1.0
  H  H1545  1  0.557400  0.318900  0.699600  1.0
  H  H1546  1  0.380700  0.057400  0.199600  1.0
  H  H1547  1  0.142200  0.880700  0.699600  1.0
  H  H1548  1  0.181100  0.357800  0.800400  1.0
  H  H1549  1  0.570900  0.848400  0.766600  1.0
  H  H1550  1  0.918200  0.070900  0.266600  1.0
  H  H1551  1  0.348400  0.695700  0.266600  1.0
  H  H1552  1  0.804300  0.581800  0.233400  1.0
  H  H1553  1  0.651600  0.304300  0.733400  1.0
  H  H1554  1  0.429100  0.151600  0.233400  1.0
  H  H1555  1  0.081800  0.929100  0.733400  1.0
  H  H1556  1  0.195700  0.418200  0.766600  1.0
  H  H1557  1  0.488700  0.832700  0.712400  1.0
  H  H1558  1  0.879700  0.988700  0.212400  1.0
  H  H1559  1  0.332700  0.723700  0.212400  1.0
  H  H1560  1  0.776300  0.620300  0.287600  1.0
  H  H1561  1  0.667300  0.276300  0.787600  1.0
  H  H1562  1  0.511300  0.167300  0.287600  1.0
  H  H1563  1  0.120300  0.011300  0.787600  1.0
  H  H1564  1  0.223700  0.379700  0.712400  1.0
  H  H1565  1  0.486770  0.007470  0.734740  1.0
  H  H1566  1  0.727270  0.986770  0.234740  1.0
  H  H1567  1  0.507470  0.747970  0.234740  1.0
  H  H1568  1  0.752030  0.772730  0.265260  1.0
  H  H1569  1  0.492530  0.252030  0.765260  1.0
  H  H1570  1  0.513230  0.992530  0.265260  1.0
  H  H1571  1  0.272730  0.013230  0.765260  1.0
  H  H1572  1  0.247970  0.227270  0.734740  1.0
  N  N1573  1  0.960300  0.341800  0.188800  1
  N  N1574  1  0.847000  0.460300  0.688800  1
  N  N1575  1  0.841800  0.728500  0.688800  1
  N  N1576  1  0.771500  0.653000  0.811200  1
  N  N1577  1  0.158200  0.271500  0.311200  1
  N  N1578  1  0.039700  0.658200  0.811200  1
  N  N1579  1  0.153000  0.539700  0.311200  1
  N  N1580  1  0.228500  0.347000  0.188800  1
  N  N1581  1  0.810500  0.887400  0.967400  1
  N  N1582  1  0.080000  0.310500  0.467400  1
  N  N1583  1  0.387400  0.656900  0.467400  1
  N  N1584  1  0.843100  0.420000  0.032600  1
  N  N1585  1  0.612600  0.343100  0.532600  1
  N  N1586  1  0.189500  0.112600  0.032600  1
  N  N1587  1  0.920000  0.689500  0.532600  1
  N  N1588  1  0.156900  0.580000  0.967400  1
  N  N1589  1  0.937230  0.069630  0.913860  1
  N  N1590  1  0.844230  0.437230  0.413860  1
  N  N1591  1  0.569630  0.476630  0.413860  1
  N  N1592  1  0.023370  0.655770  0.086140  1
  N  N1593  1  0.430370  0.523370  0.586140  1
  N  N1594  1  0.062770  0.930370  0.086140  1
  N  N1595  1  0.155770  0.562770  0.586140  1
  N  N1596  1  0.976630  0.344230  0.913860  1
  N  N1597  1  0.395100  0.028300  0.813800  1
  N  N1598  1  0.785500  0.895100  0.313800  1
  N  N1599  1  0.528300  0.918700  0.313800  1
  N  N1600  1  0.581300  0.714500  0.186200  1
  N  N1601  1  0.471700  0.081300  0.686200  1
  N  N1602  1  0.604900  0.971700  0.186200  1
  N  N1603  1  0.214500  0.104900  0.686200  1
  N  N1604  1  0.418700  0.285500  0.813800  1
  N  N1605  1  0.052990  0.095690  0.193780  1.0
  N  N1606  1  0.098090  0.552990  0.693780  1.0
  N  N1607  1  0.595690  0.640790  0.693780  1.0
  N  N1608  1  0.859210  0.401910  0.806220  1.0
  N  N1609  1  0.404310  0.359210  0.306220  1.0
  N  N1610  1  0.947010  0.904310  0.806220  1.0
  N  N1611  1  0.901910  0.447010  0.306220  1.0
  N  N1612  1  0.140790  0.598090  0.193780  1.0
  N  N1613  1  0.217120  0.130820  0.163440  1.0
  N  N1614  1  0.032620  0.717120  0.663440  1.0
  N  N1615  1  0.630820  0.446320  0.663440  1.0
  N  N1616  1  0.053680  0.467380  0.836560  1.0
  N  N1617  1  0.369180  0.553680  0.336560  1.0
  N  N1618  1  0.782880  0.869180  0.836560  1.0
  N  N1619  1  0.967380  0.282880  0.336560  1.0
  N  N1620  1  0.946320  0.532620  0.163440  1.0
  N  N1621  1  0.019210  0.145010  0.085820  1.0
  N  N1622  1  0.940810  0.519210  0.585820  1.0
  N  N1623  1  0.645010  0.566610  0.585820  1.0
  N  N1624  1  0.933390  0.559190  0.914180  1.0
  N  N1625  1  0.354990  0.433390  0.414180  1.0
  N  N1626  1  0.980790  0.854990  0.914180  1.0
  N  N1627  1  0.059190  0.480790  0.414180  1.0
  N  N1628  1  0.066610  0.440810  0.085820  1.0
  N  N1629  1  0.596770  0.147070  0.919540  1.0
  N  N1630  1  0.772470  0.096770  0.419540  1.0
  N  N1631  1  0.647070  0.822770  0.419540  1.0
  N  N1632  1  0.677230  0.727530  0.080460  1.0
  N  N1633  1  0.352930  0.177230  0.580460  1.0
  N  N1634  1  0.403230  0.852930  0.080460  1.0
  N  N1635  1  0.227530  0.903230  0.580460  1.0
  N  N1636  1  0.322770  0.272470  0.919540  1.0
  N  N1637  1  0.632800  0.261200  0.847400  1.0
  N  N1638  1  0.586200  0.132800  0.347400  1.0
  N  N1639  1  0.761200  0.714600  0.347400  1.0
  N  N1640  1  0.785400  0.913800  0.152600  1.0
  N  N1641  1  0.238800  0.285400  0.652600  1.0
  N  N1642  1  0.367200  0.738800  0.152600  1.0
  N  N1643  1  0.413800  0.867200  0.652600  1.0
  N  N1644  1  0.214600  0.086200  0.847400  1.0
  N  N1645  1  0.636850  0.065850  0.801100  1.0
  N  N1646  1  0.735250  0.136850  0.301100  1.0
  N  N1647  1  0.565850  0.664250  0.301100  1.0
  N  N1648  1  0.835750  0.764750  0.198900  1.0
  N  N1649  1  0.434150  0.335750  0.698900  1.0
  N  N1650  1  0.363150  0.934150  0.198900  1.0
  N  N1651  1  0.264750  0.863150  0.698900  1.0
  N  N1652  1  0.164250  0.235250  0.801100  1.0
  O  O1653  1  0.890900  0.379800  0.151200  1
  O  O1654  1  0.771400  0.390900  0.651200  1
  O  O1655  1  0.879800  0.760300  0.651200  1
  O  O1656  1  0.739700  0.728600  0.848800  1
  O  O1657  1  0.120200  0.239700  0.348800  1
  O  O1658  1  0.109100  0.620200  0.848800  1
  O  O1659  1  0.228600  0.609100  0.348800  1
  O  O1660  1  0.260300  0.271400  0.151200  1
  O  O1661  1  0.906100  0.895800  0.976800  1
  O  O1662  1  0.081000  0.406100  0.476800  1
  O  O1663  1  0.395800  0.570700  0.476800  1
  O  O1664  1  0.929300  0.419000  0.023200  1
  O  O1665  1  0.604200  0.429300  0.523200  1
  O  O1666  1  0.093900  0.104200  0.023200  1
  O  O1667  1  0.919000  0.593900  0.523200  1
  O  O1668  1  0.070700  0.581000  0.976800  1
  O  O1669  1  0.839200  0.056400  0.882600  1
  O  O1670  1  0.826200  0.339200  0.382600  1
  O  O1671  1  0.556400  0.543400  0.382600  1
  O  O1672  1  0.956600  0.673800  0.117400  1
  O  O1673  1  0.443600  0.456600  0.617400  1
  O  O1674  1  0.160800  0.943600  0.117400  1
  O  O1675  1  0.173800  0.660800  0.617400  1
  O  O1676  1  0.043400  0.326200  0.882600  1
  O  O1677  1  0.364800  0.003200  0.856400  1
  O  O1678  1  0.853200  0.864800  0.356400  1
  O  O1679  1  0.503200  0.991600  0.356400  1
  O  O1680  1  0.508400  0.646800  0.143600  1
  O  O1681  1  0.496800  0.008400  0.643600  1
  O  O1682  1  0.635200  0.996800  0.143600  1
  O  O1683  1  0.146800  0.135200  0.643600  1
  O  O1684  1  0.491600  0.353200  0.856400  1
  O  O1685  1  0.092780  0.082280  0.173960  1.0
  O  O1686  1  0.091680  0.592780  0.673960  1.0
  O  O1687  1  0.582280  0.581180  0.673960  1.0
  O  O1688  1  0.918820  0.408320  0.826040  1.0
  O  O1689  1  0.417720  0.418820  0.326040  1.0
  O  O1690  1  0.907220  0.917720  0.826040  1.0
  O  O1691  1  0.908320  0.407220  0.326040  1.0
  O  O1692  1  0.081180  0.591680  0.173960  1.0
  O  O1693  1  0.163590  0.110590  0.134180  1.0
  O  O1694  1  0.023590  0.663590  0.634180  1.0
  O  O1695  1  0.610590  0.470590  0.634180  1.0
  O  O1696  1  0.029410  0.476410  0.865820  1.0
  O  O1697  1  0.389410  0.529410  0.365820  1.0
  O  O1698  1  0.836410  0.889410  0.865820  1.0
  O  O1699  1  0.976410  0.336410  0.365820  1.0
  O  O1700  1  0.970590  0.523590  0.134180  1.0
  O  O1701  1  0.037790  0.107490  0.106580  1.0
  O  O1702  1  0.999090  0.537790  0.606580  1.0
  O  O1703  1  0.607490  0.568790  0.606580  1.0
  O  O1704  1  0.931210  0.500910  0.893420  1.0
  O  O1705  1  0.392510  0.431210  0.393420  1.0
  O  O1706  1  0.962210  0.892510  0.893420  1.0
  O  O1707  1  0.000910  0.462210  0.393420  1.0
  O  O1708  1  0.068790  0.499090  0.106580  1.0
  O  O1709  1  0.050760  0.183060  0.184920  1.0
  O  O1710  1  0.001860  0.550760  0.684920  1.0
  O  O1711  1  0.683060  0.634160  0.684920  1.0
  O  O1712  1  0.865840  0.498140  0.815080  1.0
  O  O1713  1  0.316940  0.365840  0.315080  1.0
  O  O1714  1  0.949240  0.816940  0.815080  1.0
  O  O1715  1  0.998140  0.449240  0.315080  1.0
  O  O1716  1  0.134160  0.501860  0.184920  1.0
  O  O1717  1  0.169800  0.191200  0.198600  1.0
  O  O1718  1  0.007400  0.669800  0.698600  1.0
  O  O1719  1  0.691200  0.528800  0.698600  1.0
  O  O1720  1  0.971200  0.492600  0.801400  1.0
  O  O1721  1  0.308800  0.471200  0.301400  1.0
  O  O1722  1  0.830200  0.808800  0.801400  1.0
  O  O1723  1  0.992600  0.330200  0.301400  1.0
  O  O1724  1  0.028800  0.507400  0.198600  1.0
  O  O1725  1  0.093090  0.209690  0.130380  1.0
  O  O1726  1  0.920690  0.593090  0.630380  1.0
  O  O1727  1  0.709690  0.537290  0.630380  1.0
  O  O1728  1  0.962710  0.579310  0.869620  1.0
  O  O1729  1  0.290310  0.462710  0.369620  1.0
  O  O1730  1  0.906910  0.790310  0.869620  1.0
  O  O1731  1  0.079310  0.406910  0.369620  1.0
  O  O1732  1  0.037290  0.420690  0.130380  1.0
  O  O1733  1  0.630770  0.131170  0.895940  1.0
  O  O1734  1  0.764770  0.130770  0.395940  1.0
  O  O1735  1  0.631170  0.765170  0.395940  1.0
  O  O1736  1  0.734830  0.735230  0.104060  1.0
  O  O1737  1  0.368830  0.234830  0.604060  1.0
  O  O1738  1  0.369230  0.868830  0.104060  1.0
  O  O1739  1  0.235230  0.869230  0.604060  1.0
  O  O1740  1  0.265170  0.264770  0.895940  1.0
  O  O1741  1  0.645810  0.232110  0.874620  1.0
  O  O1742  1  0.642510  0.145810  0.374620  1.0
  O  O1743  1  0.732110  0.728810  0.374620  1.0
  O  O1744  1  0.771190  0.857490  0.125380  1.0
  O  O1745  1  0.267890  0.271190  0.625380  1.0
  O  O1746  1  0.354190  0.767890  0.125380  1.0
  O  O1747  1  0.357490  0.854190  0.625380  1.0
  O  O1748  1  0.228810  0.142510  0.874620  1.0
  O  O1749  1  0.658370  0.120370  0.827140  1.0
  O  O1750  1  0.706770  0.158370  0.327140  1.0
  O  O1751  1  0.620370  0.668770  0.327140  1.0
  O  O1752  1  0.831230  0.793230  0.172860  1.0
  O  O1753  1  0.379630  0.331230  0.672860  1.0
  O  O1754  1  0.341630  0.879630  0.172860  1.0
  O  O1755  1  0.293230  0.841630  0.672860  1.0
  O  O1756  1  0.168770  0.206770  0.827140  1.0
  O  O1757  1  0.537760  0.179460  0.874120  1.0
  O  O1758  1  0.694660  0.037760  0.374120  1.0
  O  O1759  1  0.679460  0.836360  0.374120  1.0
  O  O1760  1  0.663640  0.805340  0.125880  1.0
  O  O1761  1  0.320540  0.163640  0.625880  1.0
  O  O1762  1  0.462240  0.820540  0.125880  1.0
  O  O1763  1  0.305340  0.962240  0.625880  1.0
  O  O1764  1  0.336360  0.194660  0.874120  1.0
  O  O1765  1  0.561680  0.189280  0.808160  1.0
  O  O1766  1  0.618880  0.061680  0.308160  1.0
  O  O1767  1  0.689280  0.746480  0.308160  1.0
  O  O1768  1  0.753520  0.881120  0.191840  1.0
  O  O1769  1  0.310720  0.253520  0.691840  1.0
  O  O1770  1  0.438320  0.810720  0.191840  1.0
  O  O1771  1  0.381120  0.938320  0.691840  1.0
  O  O1772  1  0.246480  0.118880  0.808160  1.0
  O  O1773  1  0.552650  0.078850  0.814300  1.0
  O  O1774  1  0.735450  0.052650  0.314300  1.0
  O  O1775  1  0.578850  0.761650  0.314300  1.0
  O  O1776  1  0.738350  0.764550  0.185700  1.0
  O  O1777  1  0.421150  0.238350  0.685700  1.0
  O  O1778  1  0.447350  0.921150  0.185700  1.0
  O  O1779  1  0.264550  0.947350  0.685700  1.0
  O  O1780  1  0.261650  0.235450  0.814300  1.0
