
#######################################################################
#
#                 Cambridge Crystallographic Data Centre
#                                CCDC 
#
#######################################################################
#
# If this CIF has been generated from an entry in the Cambridge 
# Structural Database, then it will include bibliographic, chemical, 
# crystal, experimental, refinement or atomic coordinate data resulting 
# from the CCDC's data processing and validation procedures.
#
#######################################################################

data_NAHDEG
_chemical_formula_moiety         
'C132 H96 N36 Pd6 12+,12(N1 O3 1-),4(C10 H16),x(H2 O1)'
_chemical_name_systematic        
"tetrakis(\m~3~-2,4,6-tris(4-Pyridyl)-1,3,5-triazene)-hexakis(2,2'-bipyridyl)-hexa-palladium(ii) dodecanitrate tetrakis(adamantane) clathrate hydrate"
_symmetry_cell_setting           tetragonal
_symmetry_space_group_name_H-M   'P 43 21 2'
_symmetry_Int_Tables_number      96
_space_group_name_Hall           'P 4nw 2abw'
loop_
_symmetry_equiv_pos_site_id
_symmetry_equiv_pos_as_xyz
1 x,y,z
2 -x,-y,1/2+z
3 1/2-y,1/2+x,3/4+z
4 1/2+y,1/2-x,1/4+z
5 1/2-x,1/2+y,3/4-z
6 1/2+x,1/2-y,1/4-z
7 y,x,-z
8 -y,-x,1/2-z
_cell_length_a                   29.579(6)
_cell_length_b                   29.579(6)
_cell_length_c                   33.202(9)
_cell_angle_alpha                90
_cell_angle_beta                 90
_cell_angle_gamma                90
_cell_volume                     29049
_exptl_crystal_description       block
_cell_formula_units_Z            4
loop_
_atom_site_label
_atom_site_type_symbol
_atom_site_fract_x
_atom_site_fract_y
_atom_site_fract_z
H74 H 0.6792 -0.8290 -1.2794
C97 C 0.6283(8) -0.7970(8) -1.2541(7)
C98 C 0.6346(15) -0.7501(13) -1.2370(12)
H82 H 0.6659 -0.7463 -1.2271
H83 H 0.6135 -0.7450 -1.2143
C99 C 0.6631(13) -0.8060(14) -1.2808(9)
H85 H 0.6925 -0.8027 -1.2669
C100 C 0.5853(15) -0.8027(15) -1.2727(12)
H86 H 0.5618 -0.7993 -1.2517
H87 H 0.5834 -0.8342 -1.2828
C101 C 0.5730(7) -0.7708(8) -1.3079(7)
H88 H 0.5427 -0.7760 -1.3204
C102 C 0.5778(14) -0.7249(15) -1.2822(11)
H89 H 0.5645 -0.6996 -1.2977
H90 H 0.5607 -0.7280 -1.2568
C103 C 0.6245(8) -0.7144(8) -1.2730(8)
H91 H 0.6254 -0.6833 -1.2612
C104 C 0.6646(15) -0.7188(13) -1.3032(13)
C105 C 0.6603(9) -0.7677(10) -1.3224(8)
H94 H 0.6835 -0.7739 -1.3436
C106 C 0.6137(11) -0.7729(13) -1.3369(12)
H95 H 0.6121 -0.8025 -1.3509
H96 H 0.6087 -0.7494 -1.3577
C117 C 0.7820(8) 0.1281(7) -0.1181(7)
H113 H 0.7878 0.1082 -0.0944
C118 C 0.7901(15) 0.1755(12) -0.1047(10)
H114 H 0.8218 0.1784 -0.0955
H115 H 0.7702 0.1822 -0.0815
C119 C 0.7366(15) 0.1177(13) -0.1325(13)
H116 H 0.7143 0.1214 -0.1104
H117 H 0.7351 0.0862 -0.1423
C120 C 0.8202(15) 0.1171(14) -0.1505(13)
H118 H 0.8181 0.0855 -0.1599
H119 H 0.8508 0.1225 -0.1393
C121 C 0.8091(8) 0.1524(8) -0.1867(7)
H120 H 0.8311 0.1471 -0.2091
C122 C 0.8132(13) 0.2000(11) -0.1735(10)
H121 H 0.8077 0.2201 -0.1968
H122 H 0.8445 0.2054 -0.1640
C123 C 0.7806(9) 0.2121(8) -0.1401(7)
H123 H 0.7840 0.2440 -0.1308
C124 C 0.7305(13) 0.2007(11) -0.1558(14)
H124 H 0.7087 0.2061 -0.1336
H125 H 0.7227 0.2217 -0.1780
C125 C 0.7253(8) 0.1540(8) -0.1701(8)
H126 H 0.6944 0.1488 -0.1813
C126 C 0.7628(14) 0.1413(14) -0.2016(11)
H127 H 0.7610 0.1085 -0.2075
H128 H 0.7571 0.1578 -0.2270
N23 N 0.8525(3) 0.4464(3) 0.0158(3)
O1 O 0.8195(3) 0.4369(3) -0.0072(2)
O2 O 0.8911(3) 0.4432(3) 0.0035(3)
O3 O 0.8438(4) 0.4595(3) 0.0503(2)
N24 N 0.4818(3) -0.1201(4) -0.8354(3)
O4 O 0.4499(3) -0.1236(4) -0.8610(3)
O5 O 0.5158(3) -0.1436(3) -0.8388(2)
O6 O 0.4786(3) -0.0932(3) -0.8066(3)
N25 N 0.5454(5) 0.0537(5) 0.0718(5)
O7 O 0.5243(6) 0.0785(6) 0.0983(5)
O8 O 0.5247(6) 0.0384(6) 0.0435(5)
O9 O 0.5861(6) 0.0474(8) 0.0752(7)
N26 N 0.9756(19) -0.8143(12) -1.4322(12)
O10 O 0.9919(10) -0.8452(10) -1.4080(9)
O11 O 0.9574(17) -0.8263(15) -1.4635(11)
O12 O 0.9689(17) -0.7753(11) -1.4186(13)
N27 N 0.9562(9) -0.0418(10) -0.8297(11)
O13 O 0.9542(13) 0.0001(10) -0.8418(14)
O14 O 0.9192(9) -0.0590(10) -0.8203(10)
O15 O 0.9918(8) -0.0640(9) -0.8342(8)
O16 O 0.4350(6) -0.1421(6) -1.2241(6)
O17 O 0.7483(6) 0.4635(6) 0.0691(5)
O18 O 0.5929(5) -0.9353(5) -1.6953(4)
O19 O 1.0463(7) -0.7055(7) -1.3328(6)
O20 O 0.5032(5) -0.2041(5) -1.2035(5)
O21 O 0.6572(7) 0.3293(7) 0.0463(6)
O22 O 0.5594(8) -0.3367(8) -1.1763(7)
O23 O 0.6524(5) -0.1994(5) -0.7772(5)
O24 O 0.5601(6) -1.2087(6) -0.7930(5)
O25 O 1.0243(10) -0.7930(10) -1.3374(9)
O26 O 0.5922(7) 0.0600(7) -1.0151(6)
O27 O 1.1834(11) 0.0865(11) -0.9488(10)
O28 O 0.7796(11) -0.1011(11) -0.7382(10)
O29 O 0.6609(12) -1.2729(13) -0.7346(11)
O30 O 0.2299(8) -1.1618(9) -1.0359(8)
O31 O 0.2596(9) -1.1441(9) -1.0909(7)
O32 O 0.7394(11) 0.0210(11) -0.9670(10)
O33 O 0.6706(15) 0.0479(14) -0.9745(13)
O34 O 0.5166(15) -0.2787(15) -1.2613(13)
O35 O 0.5886(15) -0.3268(14) -1.2520(13)
O36 O 1.3564(12) -0.9402(14) -1.2560(11)
O39 O 1.3083(11) -1.0153(11) -1.3186(10)
O40 O 0.5874(13) -0.3909(13) -1.2046(12)
O42 O 0.5723(14) -0.4204(14) -1.1529(13)
O43 O 0.8122(17) -0.0775(17) -0.7931(15)
O44 O 0.7300(8) 0.4936(7) 0.1551(7)
O45 O 0.4217(10) -0.3203(11) -1.0306(11)
O47 O 1.0696(12) -0.8497(13) -1.2942(10)
Pd1 Pd 0.66885(4) -0.16740(3) -1.263470(19)
Pd2 Pd 0.54457(3) -0.04786(3) -0.893565(19)
Pd3 Pd 0.53131(3) -0.46869(3) -1.0000
Pd4 Pd 0.98326(5) -0.03967(6) -0.99282(6)
N1 N 0.5454(3) -0.0909(3) -0.9411(2)
C1 C 0.5386(3) -0.1344(4) -0.9336(3)
H1 H 0.5300 -0.1428 -0.9071
C2 C 0.5431(4) -0.1683(3) -0.9619(3)
H2 H 0.5379 -0.1991 -0.9551
C3 C 0.5559(3) -0.1556(3) -1.0014(3)
C4 C 0.5632(3) -0.1098(3) -1.0094(3)
H3 H 0.5719 -0.1002 -1.0356
C5 C 0.5577(3) -0.0787(3) -0.9790(3)
H4 H 0.5628 -0.0477 -0.9847
N2 N 0.6114(3) -0.0647(3) -0.8850(2)
C6 C 0.6197(4) -0.0995(4) -0.8594(3)
H5 H 0.5954 -0.1135 -0.8455
C7 C 0.6639(4) -0.1148(4) -0.8534(3)
H6 H 0.6701 -0.1391 -0.8355
C8 C 0.6988(3) -0.0931(3) -0.8745(3)
C9 C 0.6892(4) -0.0585(4) -0.9007(3)
H7 H 0.7126 -0.0438 -0.9152
C10 C 0.6435(4) -0.0453(4) -0.9054(3)
H8 H 0.6362 -0.0219 -0.9238
N3 N 0.6394(3) -0.1827(3) -1.2096(2)
C11 C 0.6341(4) -0.1489(4) -1.1821(2)
H9 H 0.6426 -0.1188 -1.1885
C12 C 0.6161(3) -0.1590(3) -1.1446(3)
H10 H 0.6119 -0.1355 -1.1255
C13 C 0.6042(3) -0.2021(4) -1.1347(2)
C14 C 0.6079(4) -0.2362(4) -1.1642(3)
H11 H 0.5973 -0.2660 -1.1591
C15 C 0.6274(4) -0.2251(4) -1.2005(3)
H12 H 0.6326 -0.2483 -1.2198
N4 N 0.5542(3) -0.2344(3) -1.0210(2)
N5 N 0.5766(2) -0.2570(3) -1.0869(2)
N6 N 0.5769(2) -0.1796(3) -1.0688(2)
C16 C 0.5626(3) -0.1922(3) -1.0325(2)
C17 C 0.5617(3) -0.2653(3) -1.0485(3)
C18 C 0.5843(3) -0.2139(3) -1.0947(3)
N7 N 0.7536(3) -0.1446(3) -0.8455(2)
C19 C 0.7474(4) -0.1097(4) -0.8702(3)
N8 N 0.7283(4) -0.1776(3) -1.2356(2)
C20 C 0.7473(5) -0.1445(4) -1.2143(4)
H13 H 0.7354 -0.1148 -1.2163
C21 C 0.7842(4) -0.1524(4) -1.1892(4)
H14 H 0.7976 -0.1279 -1.1751
C22 C 0.8013(4) -0.1950(3) -1.1844(4)
C23 C 0.7820(4) -0.2304(4) -1.2072(3)
H15 H 0.7932 -0.2604 -1.2056
C24 C 0.7464(4) -0.2196(4) -1.2316(3)
H16 H 0.7332 -0.2433 -1.2469
N9 N 0.8311(3) -0.1420(3) -0.8632(3)
N10 N 0.7788(3) -0.0898(3) -0.8920(3)
C25 C 0.7969(3) -0.1584(3) -0.8433(3)
C26 C 0.8209(4) -0.1059(4) -0.8880(4)
N11 N 0.9242(6) -0.0505(5) -0.9619(4)
C27 C 0.9332(6) -0.0842(4) -0.9364(4)
H17 H 0.9631 -0.0958 -0.9358
C28 C 0.9009(5) -0.1037(4) -0.9102(4)
H18 H 0.9084 -0.1275 -0.8922
C29 C 0.8573(5) -0.0859(3) -0.9124(3)
C30 C 0.8481(5) -0.0527(5) -0.9380(4)
H19 H 0.8185 -0.0404 -0.9395
C31 C 0.8820(5) -0.0363(6) -0.9622(4)
H20 H 0.8744 -0.0128 -0.9806
N12 N 0.5379(3) -0.4032(3) -1.0168(2)
C32 C 0.5498(3) -0.3927(4) -1.0546(3)
H21 H 0.5534 -0.4163 -1.0737
C33 C 0.5570(4) -0.3473(4) -1.0669(3)
H22 H 0.5653 -0.3402 -1.0938
C34 C 0.5514(3) -0.3136(3) -1.0379(3)
C35 C 0.5374(3) -0.3246(3) -0.9999(3)
H23 H 0.5313 -0.3016 -0.9806
C36 C 0.5321(3) -0.3697(3) -0.9898(3)
H24 H 0.5241 -0.3773 -0.9629
N15 N 0.6065(7) -0.1584(9) -1.2912(5)
C47 C 0.5668(7) -0.1635(14) -1.2733(6)
H33 H 0.5653 -0.1748 -1.2466
C48 C 0.5264(8) -0.1521(9) -1.2942(6)
H34 H 0.4978 -0.1551 -1.2815
C49 C 0.5301(8) -0.1364(8) -1.3341(6)
H35 H 0.5036 -0.1306 -1.3494
C50 C 0.5728(8) -0.1291(11) -1.3513(6)
H36 H 0.5758 -0.1152 -1.3770
C51 C 0.6106(7) -0.1427(10) -1.3296(5)
C52 C 0.6554(7) -0.1375(9) -1.3445(5)
C53 C 0.6656(9) -0.1232(8) -1.3833(5)
H37 H 0.6420 -0.1149 -1.4012
C54 C 0.7092(9) -0.1211(8) -1.3955(5)
H38 H 0.7163 -0.1107 -1.4218
C55 C 0.7437(8) -0.1341(8) -1.3695(5)
H39 H 0.7744 -0.1336 -1.3780
C56 C 0.7319(8) -0.1482(12) -1.3302(6)
H40 H 0.7550 -0.1558 -1.3116
N16 N 0.6882(7) -0.1509(9) -1.3189(5)
N18 N 0.4660(10) -0.4783(11) -1.0134(16)
C62 C 0.4365(9) -0.4475(10) -1.0276(10)
H45 H 0.4476 -0.4176 -1.0311
C63 C 0.3908(8) -0.4553(9) -1.0378(10)
H46 H 0.3719 -0.4328 -1.0493
C64 C 0.3757(8) -0.4999(10) -1.0291(11)
H47 H 0.3461 -0.5089 -1.0370
C65 C 0.4028(8) -0.5294(9) -1.0100(11)
H48 H 0.3911 -0.5583 -1.0032
C66 C 0.4493(8) -0.5190(9) -0.9994(10)
N19 N 1.0368(6) -0.0178(7) -1.0266(5)
C67 C 1.0459(9) -0.0325(9) -1.0639(6)
H49 H 1.0258 -0.0520 -1.0779
C68 C 1.0870(11) -0.0176(12) -1.0816(8)
H50 H 1.0948 -0.0259 -1.1083
C69 C 1.1162(12) 0.0102(17) -1.0584(9)
H51 H 1.1406 0.0251 -1.0713
C70 C 1.1099(7) 0.0162(12) -1.0167(8)
H52 H 1.1327 0.0283 -0.9997
C71 C 1.0673(7) 0.0030(11) -1.0021(6)
C72 C 1.0526(7) 0.0170(9) -0.9630(6)
C73 C 1.0810(8) 0.0381(11) -0.9350(7)
H53 H 1.1097 0.0494 -0.9431
C74 C 1.0672(10) 0.0425(13) -0.8959(7)
H54 H 1.0860 0.0574 -0.8769
C75 C 1.0256(10) 0.0252(12) -0.8839(7)
H55 H 1.0170 0.0252 -0.8564
C76 C 1.0077(9) -0.0033(11) -1.0862(7)
H56 H 1.0015 -0.0340 -1.0928
N20 N 1.0118(6) -0.0005(7) -0.9516(5)
N21 N 0.4785(3) -0.0312(3) -0.8970(2)
C77 C 0.4509(3) -0.0418(3) -0.9268(3)
H57 H 0.4620 -0.0587 -0.9490
C78 C 0.4056(3) -0.0285(4) -0.9263(3)
H58 H 0.3863 -0.0350 -0.9484
C79 C 0.3893(4) -0.0055(4) -0.8925(4)
H59 H 0.3583 0.0025 -0.8909
C80 C 0.4188(4) 0.0059(4) -0.8613(4)
H60 H 0.4081 0.0209 -0.8378
C81 C 0.4642(4) -0.0054(3) -0.8654(3)
C82 C 0.4974(4) 0.0053(4) -0.8356(3)
C83 C 0.4899(5) 0.0313(5) -0.8008(4)
H61 H 0.4605 0.0426 -0.7954
C84 C 0.5246(5) 0.0404(5) -0.7748(4)
H62 H 0.5187 0.0529 -0.7490
C85 C 0.5679(5) 0.0312(6) -0.7868(3)
H63 H 0.5930 0.0425 -0.7719
C86 C 0.5745(5) 0.0049(5) -0.8210(4)
H64 H 0.6042 -0.0049 -0.8274
N22 N 0.5405(3) -0.0071(3) -0.8452(2)
C22F C 0.8050(3) -0.1987(4) -0.8156(4)
C21F C 0.8476(4) -0.2158(4) -0.8108(4)
C20F C 0.8555(4) -0.2527(5) -0.7857(4)
N8F N 0.8224(3) -0.2717(4) -0.7644(2)
Pd1F Pd 0.83260(3) -0.33115(4) -0.736530(19)
N3F N 0.8173(3) -0.3606(3) -0.7904(2)
C11F C 0.8511(4) -0.3659(4) -0.8179(2)
H9F H 0.8812 -0.3574 -0.8115
C12F C 0.8410(3) -0.3839(3) -0.8554(3)
H10F H 0.8645 -0.3881 -0.8745
C13F C 0.7979(4) -0.3958(3) -0.8653(2)
C14F C 0.7638(4) -0.3921(4) -0.8358(3)
H11F H 0.7340 -0.4027 -0.8409
C15F C 0.7749(4) -0.3726(4) -0.7995(3)
H12F H 0.7517 -0.3674 -0.7802
C18F C 0.7861(3) -0.4157(3) -0.9053(3)
N5F N 0.7430(3) -0.4234(2) -0.9131(2)
C17F C 0.7347(3) -0.4383(3) -0.9515(3)
N4F N 0.7656(3) -0.4458(3) -0.9790(2)
C16F C 0.8078(3) -0.4374(3) -0.9675(2)
C3F C 0.8444(3) -0.4441(3) -0.9986(3)
C2F C 0.8317(3) -0.4569(4) -1.0381(3)
C1F C 0.8656(4) -0.4614(3) -1.0664(3)
N1F N 0.9091(3) -0.4546(3) -1.0589(2)
Pd2F Pd 0.95214(3) -0.45543(3) -1.106435(19)
N2F N 0.9353(3) -0.3886(3) -1.1150(2)
C6F C 0.9005(4) -0.3803(4) -1.1406(3)
H5F H 0.8865 -0.4046 -1.1545
C7F C 0.8852(4) -0.3361(4) -1.1466(3)
H6F H 0.8609 -0.3299 -1.1645
C8F C 0.9069(3) -0.3012(3) -1.1255(3)
C9F C 0.9415(4) -0.3108(4) -1.0993(3)
H7F H 0.9562 -0.2874 -1.0848
C10F C 0.9547(4) -0.3565(4) -1.0946(3)
H8F H 0.9781 -0.3638 -1.0762
C19F C 0.8903(4) -0.2526(4) -1.1298(3)
N7F N 0.8554(3) -0.2464(3) -1.1545(2)
C25F C 0.8416(3) -0.2031(3) -1.1567(3)
N9F N 0.8580(3) -0.1689(3) -1.1368(3)
C26F C 0.8941(4) -0.1791(4) -1.1120(4)
N10F N 0.9102(3) -0.2212(3) -1.1080(3)
C29F C 0.9141(3) -0.1427(5) -1.0876(3)
C28F C 0.8963(4) -0.0991(5) -1.0898(4)
C27F C 0.9158(4) -0.0668(6) -1.0636(4)
N11F N 0.9495(5) -0.0758(6) -1.0381(4)
Pd4F Pd 0.96033(6) -0.01674(5) -1.00718(6)
C31F C 0.9637(6) -0.1180(5) -1.0378(4)
C30F C 0.9473(5) -0.1519(5) -1.0620(4)
H19F H 0.9596 -0.1815 -1.0605
H20F H 0.9872 -0.1256 -1.0194
N19F N 0.9822(7) 0.0368(6) -0.9734(5)
N20F N 0.9995(7) 0.0118(6) -1.0484(5)
C76F C 0.9967(11) 0.0077(9) -0.9138(7)
C67F C 0.9675(9) 0.0459(9) -0.9361(6)
C71F C 1.0030(11) 0.0673(7) -0.9979(6)
C70F C 1.0162(12) 0.1099(7) -0.9833(8)
C69F C 1.0102(17) 0.1162(12) -0.9416(9)
C68F C 0.9824(12) 0.0870(11) -0.9184(8)
H49F H 0.9480 0.0258 -0.9221
H50F H 0.9741 0.0948 -0.8917
H51F H 1.0251 0.1406 -0.9287
H52F H 1.0283 0.1327 -1.0003
C72F C 1.0170(9) 0.0526(7) -1.0370(6)
C73F C 1.0381(11) 0.0810(8) -1.0650(7)
H53F H 1.0494 0.1097 -1.0569
C74F C 1.0425(13) 0.0672(10) -1.1041(7)
H54F H 1.0574 0.0860 -1.1231
C75F C 1.0252(12) 0.0256(10) -1.1161(7)
H55F H 1.0252 0.0170 -1.1436
H56F H 0.9660 0.0015 -0.9072
H17F H 0.9042 -0.0369 -1.0642
H18F H 0.8725 -0.0916 -1.1078
N21F N 0.9688(3) -0.5215(3) -1.1030(2)
C77F C 0.9582(3) -0.5491(3) -1.0732(3)
H57F H 0.9413 -0.5380 -1.0510
C78F C 0.9715(4) -0.5944(3) -1.0737(3)
H58F H 0.9650 -0.6137 -1.0516
C79F C 0.9945(4) -0.6107(4) -1.1075(4)
H59F H 1.0025 -0.6417 -1.1091
C80F C 1.0059(4) -0.5812(4) -1.1387(4)
H60F H 1.0209 -0.5919 -1.1622
C81F C 0.9946(3) -0.5358(4) -1.1346(3)
C82F C 1.0053(4) -0.5026(4) -1.1644(3)
C83F C 1.0313(5) -0.5101(5) -1.1992(4)
H61F H 1.0426 -0.5395 -1.2046
C84F C 1.0404(5) -0.4754(5) -1.2252(4)
H62F H 1.0529 -0.4813 -1.2510
C85F C 1.0312(6) -0.4321(5) -1.2132(3)
H63F H 1.0425 -0.4070 -1.2281
C86F C 1.0049(5) -0.4255(5) -1.1790(4)
H64F H 0.9951 -0.3958 -1.1726
N22F N 0.9929(3) -0.4595(3) -1.1548(2)
C5F C 0.9213(3) -0.4423(3) -1.0210(3)
C4F C 0.8902(3) -0.4368(3) -0.9906(3)
H3F H 0.8998 -0.4281 -0.9644
H4F H 0.9523 -0.4372 -1.0153
H1F H 0.8572 -0.4700 -1.0929
H2F H 0.8009 -0.4621 -1.0449
N6F N 0.8204(3) -0.4231(2) -0.9312(2)
C34F C 0.6864(3) -0.4486(3) -0.9621(3)
C33F C 0.6527(4) -0.4430(4) -0.9331(3)
C32F C 0.6073(4) -0.4502(3) -0.9454(3)
N12F N 0.5968(3) -0.4621(3) -0.9832(2)
C66F C 0.4810(9) -0.5507(8) -1.0006(10)
N18F N 0.5217(11) -0.5340(10) -0.9866(16)
C62F C 0.5525(10) -0.5635(9) -0.9724(10)
H45F H 0.5824 -0.5524 -0.9689
C63F C 0.5447(9) -0.6092(8) -0.9622(10)
H46F H 0.5672 -0.6281 -0.9507
C64F C 0.5001(10) -0.6243(8) -0.9709(11)
H47F H 0.4911 -0.6539 -0.9630
C65F C 0.4706(9) -0.5972(8) -0.9900(11)
H48F H 0.4417 -0.6089 -0.9968
C36F C 0.6303(3) -0.4679(3) -1.0102(3)
C35F C 0.6754(3) -0.4626(3) -1.0001(3)
H23F H 0.6984 -0.4687 -1.0194
H24F H 0.6227 -0.4759 -1.0371
H21F H 0.5837 -0.4466 -0.9263
H22F H 0.6598 -0.4347 -0.9062
N15F N 0.8416(9) -0.3935(7) -0.7088(5)
C47F C 0.8365(14) -0.4332(7) -0.7267(6)
H33F H 0.8252 -0.4347 -0.7534
C48F C 0.8479(9) -0.4736(8) -0.7058(6)
H34F H 0.8449 -0.5022 -0.7185
C49F C 0.8636(8) -0.4699(8) -0.6659(6)
H35F H 0.8694 -0.4964 -0.6506
C50F C 0.8709(11) -0.4272(8) -0.6487(6)
H36F H 0.8848 -0.4242 -0.6230
C51F C 0.8573(10) -0.3894(7) -0.6704(5)
C52F C 0.8625(9) -0.3446(7) -0.6555(5)
C53F C 0.8768(8) -0.3344(9) -0.6167(5)
H37F H 0.8851 -0.3580 -0.5988
C54F C 0.8789(8) -0.2908(9) -0.6045(5)
H38F H 0.8893 -0.2837 -0.5782
C55F C 0.8659(8) -0.2563(8) -0.6305(5)
H39F H 0.8664 -0.2256 -0.6220
C56F C 0.8518(12) -0.2681(8) -0.6698(6)
H40F H 0.8442 -0.2450 -0.6884
N16F N 0.8491(9) -0.3118(7) -0.6811(5)
C24F C 0.7804(4) -0.2536(4) -0.7684(3)
C23F C 0.7696(4) -0.2180(4) -0.7928(3)
H15F H 0.7396 -0.2068 -0.7944
H16F H 0.7567 -0.2668 -0.7531
H13F H 0.8852 -0.2646 -0.7837
H14F H 0.8721 -0.2024 -0.8249
N13? N 0.6170(8) -0.1527(12) -1.2958(6)
C37? C 0.5750(9) -0.1585(17) -1.2827(8)
H25? H 0.5693 -0.1732 -1.2578
C38? C 0.5387(9) -0.1423(10) -1.3067(7)
H26? H 0.5089 -0.1410 -1.2961
C39? C 0.5476(10) -0.1283(12) -1.3465(8)
H27? H 0.5235 -0.1193 -1.3635
C40? C 0.5918(10) -0.1276(14) -1.3606(7)
H28? H 0.5984 -0.1192 -1.3876
C41? C 0.6261(8) -0.1396(12) -1.3340(6)
C42? C 0.6723(8) -0.1366(13) -1.3451(6)
C43? C 0.6874(10) -0.1257(13) -1.3835(7)
H29? H 0.6665 -0.1181 -1.4042
C44? C 0.7327(10) -0.1264(11) -1.3909(7)
H30? H 0.7440 -0.1141 -1.4153
C45? C 0.7627(10) -0.1449(11) -1.3629(7)
H31? H 0.7932 -0.1510 -1.3697
C46? C 0.7457(9) -0.1541(16) -1.3239(7)
H32? H 0.7659 -0.1636 -1.3033
N14? N 0.7014(8) -0.1495(12) -1.3155(6)
N17? N 0.4676(12) -0.4728(14) -1.022(2)
C57? C 0.4421(12) -0.4415(12) -1.0403(13)
H41? H 0.4546 -0.4120 -1.0422
C58? C 0.3986(11) -0.4475(11) -1.0570(12)
H42? H 0.3835 -0.4248 -1.0720
C59? C 0.3798(10) -0.4908(12) -1.0494(14)
H43? H 0.3488 -0.4963 -1.0549
C60? C 0.4058(11) -0.5241(11) -1.0345(14)
H44? H 0.3940 -0.5539 -1.0340
C61? C 0.4513(10) -0.5166(12) -1.0189(12)
C87? C 0.6129(8) -0.7341(7) -1.3223(7)
H65? H 0.6087 -0.7134 -1.3458
C88? C 0.6033(11) -0.7813(10) -1.3364(10)
H66? H 0.6211 -0.7882 -1.3610
H67? H 0.5708 -0.7848 -1.3428
C89? C 0.5807(13) -0.7227(15) -1.2935(10)
H68? H 0.5500 -0.7283 -1.3043
H69? H 0.5832 -0.6903 -1.2867
C90? C 0.6577(13) -0.7277(12) -1.3077(11)
H70? H 0.6607 -0.6957 -1.2995
H71? H 0.6787 -0.7327 -1.3304
C91? C 0.6741(6) -0.7575(7) -1.2717(6)
H72? H 0.7060 -0.7524 -1.2628
C92? C 0.6648(12) -0.8041(13) -1.2947(10)
H73? H 0.6795 -0.8028 -1.3215
C93? C 0.6176(7) -0.8147(7) -1.3002(6)
H75? H 0.6149 -0.8466 -1.3098
C94? C 0.5826(14) -0.8070(12) -1.2653(12)
H76? H 0.5878 -0.8290 -1.2433
H77? H 0.5514 -0.8109 -1.2754
C95? C 0.5899(7) -0.7566(7) -1.2493(7)
H78? H 0.5692 -0.7486 -1.2266
C96? C 0.6374(12) -0.7486(13) -1.2398(11)
H79? H 0.6449 -0.7673 -1.2159
H80? H 0.6402 -0.7166 -1.2314
H81? H 0.6305 -0.8191 -1.2314
H84? H 0.6606 -0.8375 -1.2907
H92? H 0.6939 -0.7155 -1.2890
H93? H 0.6626 -0.6952 -1.3243
C107? C 0.7668(6) 0.1980(5) -0.1946(5)
H97? H 0.7610 0.2185 -0.2179
C108? C 0.7575(9) 0.1512(9) -0.2094(8)
H98? H 0.7780 0.1439 -0.2320
H99? H 0.7260 0.1491 -0.2192
C109? C 0.8131(12) 0.2070(10) -0.1815(10)
H100? H 0.8161 0.2387 -0.1723
H101? H 0.8345 0.2020 -0.2040
C110? C 0.7313(11) 0.2118(9) -0.1608(10)
H102? H 0.7000 0.2088 -0.1708
H103? H 0.7362 0.2434 -0.1519
C111? C 0.7409(7) 0.1764(6) -0.1239(6)
H104? H 0.7199 0.1827 -0.1009
C112? C 0.7340(9) 0.1296(8) -0.1391(8)
H105? H 0.7024 0.1267 -0.1487
H106? H 0.7379 0.1083 -0.1163
C113? C 0.7652(6) 0.1155(7) -0.1727(6)
H107? H 0.7603 0.0834 -0.1812
C114? C 0.8163(9) 0.1246(8) -0.1578(8)
H108? H 0.8236 0.1033 -0.1358
H109? H 0.8372 0.1183 -0.1804
C115? C 0.8241(6) 0.1711(5) -0.1435(5)
H110? H 0.8556 0.1750 -0.1331
C116? C 0.7883(12) 0.1849(10) -0.1115(9)
H111? H 0.7944 0.1680 -0.0863
H112? H 0.7919 0.2175 -0.1055
O37? O 1.3559(12) -0.8955(13) -1.2526(11)
O38? O 1.3056(12) -0.8687(12) -1.2393(11)
O41? O 0.9715(12) -0.9171(11) -1.3625(10)
O46? O 0.4236(15) -0.3365(16) -1.0604(16)
O48? O 1.0862(14) -0.8909(15) -1.2964(12)
O49? O 0.7753(6) 0.4854(6) 0.1219(6)
O50? O 0.6859(17) 0.4601(17) 0.1342(15)
loop_
_geom_bond_atom_site_label_1
_geom_bond_atom_site_label_2
_geom_bond_site_symmetry_1
_geom_bond_site_symmetry_2
Pd1 N3 1_555 1_555
Pd2 N1 1_555 1_555
Pd3 N12 1_555 1_555
Pd4 N11 1_555 1_555
N1 C1 1_555 1_555
C1 H1 1_555 1_555
C2 C1 1_555 1_555
H2 C2 1_555 1_555
C3 C2 1_555 1_555
C4 C3 1_555 1_555
H3 C4 1_555 1_555
C5 N1 1_555 1_555
H4 C5 1_555 1_555
N2 Pd2 1_555 1_555
C6 N2 1_555 1_555
H5 C6 1_555 1_555
C7 C6 1_555 1_555
H6 C7 1_555 1_555
C8 C7 1_555 1_555
C9 C8 1_555 1_555
H7 C9 1_555 1_555
C10 N2 1_555 1_555
H8 C10 1_555 1_555
N3 C11 1_555 1_555
C11 H9 1_555 1_555
C12 C11 1_555 1_555
H10 C12 1_555 1_555
C13 C12 1_555 1_555
C14 C13 1_555 1_555
H11 C14 1_555 1_555
C15 N3 1_555 1_555
H12 C15 1_555 1_555
N4 C16 1_555 1_555
N5 C17 1_555 1_555
N6 C16 1_555 1_555
C16 C3 1_555 1_555
C17 N4 1_555 1_555
C18 C13 1_555 1_555
N7 C19 1_555 1_555
C19 C8 1_555 1_555
N8 Pd1 1_555 1_555
C20 N8 1_555 1_555
H13 C20 1_555 1_555
C21 C20 1_555 1_555
H14 C21 1_555 1_555
C22 C21 1_555 1_555
C23 C22 1_555 1_555
H15 C23 1_555 1_555
C24 N8 1_555 1_555
H16 C24 1_555 1_555
N9 C25 1_555 1_555
N10 C19 1_555 1_555
C25 N7 1_555 1_555
C26 N9 1_555 1_555
N11 C27 1_555 1_555
C27 H17 1_555 1_555
C28 C27 1_555 1_555
H18 C28 1_555 1_555
C29 C26 1_555 1_555
C30 C29 1_555 1_555
H19 C30 1_555 1_555
C31 N11 1_555 1_555
H20 C31 1_555 1_555
N12 C32 1_555 1_555
C32 H21 1_555 1_555
C33 C32 1_555 1_555
H22 C33 1_555 1_555
C34 C17 1_555 1_555
C35 C34 1_555 1_555
H23 C35 1_555 1_555
C36 N12 1_555 1_555
H24 C36 1_555 1_555
N15 Pd1 1_555 1_555
C47 N15 1_555 1_555
H33 C47 1_555 1_555
C48 C47 1_555 1_555
H34 C48 1_555 1_555
C49 C48 1_555 1_555
H35 C49 1_555 1_555
C50 C49 1_555 1_555
H36 C50 1_555 1_555
C51 N15 1_555 1_555
C52 C51 1_555 1_555
C53 C52 1_555 1_555
H37 C53 1_555 1_555
C54 C53 1_555 1_555
H38 C54 1_555 1_555
C55 C54 1_555 1_555
H39 C55 1_555 1_555
C56 C55 1_555 1_555
H40 C56 1_555 1_555
N16 Pd1 1_555 1_555
N18 Pd3 1_555 1_555
C62 N18 1_555 1_555
H45 C62 1_555 1_555
C63 C62 1_555 1_555
H46 C63 1_555 1_555
C64 C63 1_555 1_555
H47 C64 1_555 1_555
C65 C64 1_555 1_555
H48 C65 1_555 1_555
C66 N18 1_555 1_555
N19 Pd4 1_555 1_555
C67 N19 1_555 1_555
H49 C67 1_555 1_555
C68 C67 1_555 1_555
H50 C68 1_555 1_555
C69 C68 1_555 1_555
H51 C69 1_555 1_555
C70 C69 1_555 1_555
H52 C70 1_555 1_555
C71 N19 1_555 1_555
C72 C71 1_555 1_555
C73 C72 1_555 1_555
H53 C73 1_555 1_555
C74 C73 1_555 1_555
H54 C74 1_555 1_555
C75 C74 1_555 1_555
H55 C75 1_555 1_555
C76 C67 1_555 1_555
H56 C76 1_555 1_555
N20 Pd4 1_555 1_555
N21 Pd2 1_555 1_555
C77 N21 1_555 1_555
H57 C77 1_555 1_555
C78 C77 1_555 1_555
H58 C78 1_555 1_555
C79 C78 1_555 1_555
H59 C79 1_555 1_555
C80 C79 1_555 1_555
H60 C80 1_555 1_555
C81 N21 1_555 1_555
C82 C81 1_555 1_555
C83 C82 1_555 1_555
H61 C83 1_555 1_555
C84 C83 1_555 1_555
H62 C84 1_555 1_555
C85 C84 1_555 1_555
H63 C85 1_555 1_555
C86 C85 1_555 1_555
H64 C86 1_555 1_555
N22 Pd2 1_555 1_555
H74 C99 1_555 1_555
C97 C98 1_555 1_555
C98 H82 1_555 1_555
H83 C98 1_555 1_555
C99 C97 1_555 1_555
H85 C99 1_555 1_555
C100 C97 1_555 1_555
H86 C100 1_555 1_555
H87 C100 1_555 1_555
C101 C100 1_555 1_555
H88 C101 1_555 1_555
C102 C101 1_555 1_555
H89 C102 1_555 1_555
H90 C102 1_555 1_555
C103 C98 1_555 1_555
H91 C103 1_555 1_555
C104 C103 1_555 1_555
C105 C99 1_555 1_555
H94 C105 1_555 1_555
C106 C101 1_555 1_555
H95 C106 1_555 1_555
H96 C106 1_555 1_555
C117 H113 1_555 1_555
C118 C117 1_555 1_555
H114 C118 1_555 1_555
H115 C118 1_555 1_555
C119 C117 1_555 1_555
H116 C119 1_555 1_555
H117 C119 1_555 1_555
C120 C117 1_555 1_555
H118 C120 1_555 1_555
H119 C120 1_555 1_555
C121 C120 1_555 1_555
H120 C121 1_555 1_555
C122 C121 1_555 1_555
H121 C122 1_555 1_555
H122 C122 1_555 1_555
C123 C118 1_555 1_555
H123 C123 1_555 1_555
C124 C123 1_555 1_555
H124 C124 1_555 1_555
H125 C124 1_555 1_555
C125 C119 1_555 1_555
H126 C125 1_555 1_555
C126 C121 1_555 1_555
H127 C126 1_555 1_555
H128 C126 1_555 1_555
N23 O1 1_555 1_555
O2 N23 1_555 1_555
O3 N23 1_555 1_555
N24 O4 1_555 1_555
O5 N24 1_555 1_555
O6 N24 1_555 1_555
N25 O7 1_555 1_555
O8 N25 1_555 1_555
O9 N25 1_555 1_555
N26 O10 1_555 1_555
O11 N26 1_555 1_555
O12 N26 1_555 1_555
N27 O13 1_555 1_555
O14 N27 1_555 1_555
O15 N27 1_555 1_555
C22F C25 1_555 1_555
C21F C22F 1_555 1_555
C20F C21F 1_555 1_555
N8F C20F 1_555 1_555
Pd1F N8F 1_555 1_555
N3F Pd1F 1_555 1_555
C11F N3F 1_555 1_555
H9F C11F 1_555 1_555
C12F C11F 1_555 1_555
H10F C12F 1_555 1_555
C13F C12F 1_555 1_555
C14F C13F 1_555 1_555
H11F C14F 1_555 1_555
C15F N3F 1_555 1_555
H12F C15F 1_555 1_555
C18F C13F 1_555 1_555
N5F C18F 1_555 1_555
C17F N5F 1_555 1_555
N4F C17F 1_555 1_555
C16F N4F 1_555 1_555
C3F C16F 1_555 1_555
C2F C3F 1_555 1_555
C1F C2F 1_555 1_555
N1F C1F 1_555 1_555
Pd2F N1F 1_555 1_555
N2F Pd2F 1_555 1_555
C6F N2F 1_555 1_555
H5F C6F 1_555 1_555
C7F C6F 1_555 1_555
H6F C7F 1_555 1_555
C8F C7F 1_555 1_555
C9F C8F 1_555 1_555
H7F C9F 1_555 1_555
C10F N2F 1_555 1_555
H8F C10F 1_555 1_555
C19F C8F 1_555 1_555
N7F C19F 1_555 1_555
C25F C22 1_555 1_555
N9F C25F 1_555 1_555
C26F N9F 1_555 1_555
N10F C19F 1_555 1_555
C29F C26F 1_555 1_555
C28F C29F 1_555 1_555
C27F C28F 1_555 1_555
N11F Pd4 1_555 1_555
Pd4F Pd4 1_555 1_555
C31F N11F 1_555 1_555
C30F C29F 1_555 1_555
H19F C30F 1_555 1_555
H20F C31F 1_555 1_555
N19F Pd4 1_555 1_555
N20F Pd4 1_555 1_555
C76F C75 1_555 1_555
C67F N19F 1_555 1_555
C71F N19F 1_555 1_555
C70F C71F 1_555 1_555
C69F C70F 1_555 1_555
C68F C67F 1_555 1_555
H49F C67F 1_555 1_555
H50F C68F 1_555 1_555
H51F C69F 1_555 1_555
H52F C70F 1_555 1_555
C72F N20F 1_555 1_555
C73F C72F 1_555 1_555
H53F C73F 1_555 1_555
C74F C73F 1_555 1_555
H54F C74F 1_555 1_555
C75F C76 1_555 1_555
H55F C75F 1_555 1_555
H56F C76F 1_555 1_555
H17F C27F 1_555 1_555
H18F C28F 1_555 1_555
N21F Pd2F 1_555 1_555
C77F N21F 1_555 1_555
H57F C77F 1_555 1_555
C78F C77F 1_555 1_555
H58F C78F 1_555 1_555
C79F C78F 1_555 1_555
H59F C79F 1_555 1_555
C80F C79F 1_555 1_555
H60F C80F 1_555 1_555
C81F N21F 1_555 1_555
C82F C81F 1_555 1_555
C83F C82F 1_555 1_555
H61F C83F 1_555 1_555
C84F C83F 1_555 1_555
H62F C84F 1_555 1_555
C85F C84F 1_555 1_555
H63F C85F 1_555 1_555
C86F C85F 1_555 1_555
H64F C86F 1_555 1_555
N22F Pd2F 1_555 1_555
C5F N1F 1_555 1_555
C4F C3F 1_555 1_555
H3F C4F 1_555 1_555
H4F C5F 1_555 1_555
H1F C1F 1_555 1_555
H2F C2F 1_555 1_555
N6F C18F 1_555 1_555
C34F C17F 1_555 1_555
C33F C34F 1_555 1_555
C32F C33F 1_555 1_555
N12F Pd3 1_555 1_555
C66F C66 1_555 1_555
N18F Pd3 1_555 1_555
C62F N18F 1_555 1_555
H45F C62F 1_555 1_555
C63F C62F 1_555 1_555
H46F C63F 1_555 1_555
C64F C63F 1_555 1_555
H47F C64F 1_555 1_555
C65F C66F 1_555 1_555
H48F C65F 1_555 1_555
C36F N12F 1_555 1_555
C35F C34F 1_555 1_555
H23F C35F 1_555 1_555
H24F C36F 1_555 1_555
H21F C32F 1_555 1_555
H22F C33F 1_555 1_555
N15F Pd1F 1_555 1_555
C47F N15F 1_555 1_555
H33F C47F 1_555 1_555
C48F C47F 1_555 1_555
H34F C48F 1_555 1_555
C49F C48F 1_555 1_555
H35F C49F 1_555 1_555
C50F C49F 1_555 1_555
H36F C50F 1_555 1_555
C51F N15F 1_555 1_555
C52F C51F 1_555 1_555
C53F C52F 1_555 1_555
H37F C53F 1_555 1_555
C54F C53F 1_555 1_555
H38F C54F 1_555 1_555
C55F C54F 1_555 1_555
H39F C55F 1_555 1_555
C56F C55F 1_555 1_555
H40F C56F 1_555 1_555
N16F Pd1F 1_555 1_555
C24F N8F 1_555 1_555
C23F C22F 1_555 1_555
H15F C23F 1_555 1_555
H16F C24F 1_555 1_555
H13F C20F 1_555 1_555
H14F C21F 1_555 1_555
C4 C5 1_555 1_555
C9 C10 1_555 1_555
C14 C15 1_555 1_555
N5 C18 1_555 1_555
N6 C18 1_555 1_555
C23 C24 1_555 1_555
N10 C26 1_555 1_555
N11 Pd4F 1_555 1_555
C28 C29 1_555 1_555
C30 C31 1_555 1_555
C33 C34 1_555 1_555
C35 C36 1_555 1_555
C50 C51 1_555 1_555
C52 N16 1_555 1_555
C56 N16 1_555 1_555
C65 C66 1_555 1_555
N19 Pd4F 1_555 1_555
N19 N20F 1_555 1_555
C70 C71 1_555 1_555
C72 N20 1_555 1_555
C76 N20F 1_555 1_555
N20 Pd4F 1_555 1_555
N20 N19F 1_555 1_555
N20 C76F 1_555 1_555
C80 C81 1_555 1_555
C82 N22 1_555 1_555
C86 N22 1_555 1_555
C102 C103 1_555 1_555
C104 C105 1_555 1_555
C105 C106 1_555 1_555
C122 C123 1_555 1_555
C124 C125 1_555 1_555
C125 C126 1_555 1_555
C14F C15F 1_555 1_555
C16F N6F 1_555 1_555
C9F C10F 1_555 1_555
N7F C25F 1_555 1_555
C26F N10F 1_555 1_555
C27F N11F 1_555 1_555
N11F Pd4F 1_555 1_555
Pd4F N19F 1_555 1_555
Pd4F N20F 1_555 1_555
C31F C30F 1_555 1_555
C76F C67F 1_555 1_555
C71F C72F 1_555 1_555
C69F C68F 1_555 1_555
C74F C75F 1_555 1_555
C80F C81F 1_555 1_555
C82F N22F 1_555 1_555
C86F N22F 1_555 1_555
C5F C4F 1_555 1_555
C32F N12F 1_555 1_555
C66F N18F 1_555 1_555
C64F C65F 1_555 1_555
C36F C35F 1_555 1_555
C50F C51F 1_555 1_555
C52F N16F 1_555 1_555
C56F N16F 1_555 1_555
C24F C23F 1_555 1_555

#END
