# generated using pymatgen
data_H256Pd7C252(N27O50)2
_symmetry_space_group_name_H-M   'P 1'
_cell_length_a   29.57900000
_cell_length_b   29.57900000
_cell_length_c   33.20200000
_cell_angle_alpha   90.00000000
_cell_angle_beta   90.00000000
_cell_angle_gamma   90.00000000
_symmetry_Int_Tables_number   1
_chemical_formula_structural   H256Pd7C252(N27O50)2
_chemical_formula_sum   'H1024 Pd28 C1008 N216 O400'
_cell_volume   29049.00223568
_cell_formula_units_Z   4
loop_
 _symmetry_equiv_pos_site_id
 _symmetry_equiv_pos_as_xyz
  1  'x, y, z'
loop_
 _atom_site_type_symbol
 _atom_site_label
 _atom_site_symmetry_multiplicity
 _atom_site_fract_x
 _atom_site_fract_y
 _atom_site_fract_z
 _atom_site_occupancy
  H  H1  1  0.679200  0.171000  0.720600  1
  H  H2  1  0.320800  0.829000  0.220600  1
  H  H3  1  0.329000  0.179200  0.470600  1
  H  H4  1  0.671000  0.820800  0.970600  1
  H  H5  1  0.820800  0.671000  0.029400  1
  H  H6  1  0.179200  0.329000  0.529400  1
  H  H7  1  0.171000  0.679200  0.279400  1
  H  H8  1  0.829000  0.320800  0.779400  1
  H  H9  1  0.665900  0.253700  0.772900  1
  H  H10  1  0.334100  0.746300  0.272900  1
  H  H11  1  0.246300  0.165900  0.522900  1
  H  H12  1  0.753700  0.834100  0.022900  1
  H  H13  1  0.834100  0.753700  0.977100  1
  H  H14  1  0.165900  0.246300  0.477100  1
  H  H15  1  0.253700  0.665900  0.227100  1
  H  H16  1  0.746300  0.334100  0.727100  1
  H  H17  1  0.613500  0.255000  0.785700  1
  H  H18  1  0.386500  0.745000  0.285700  1
  H  H19  1  0.245000  0.113500  0.535700  1
  H  H20  1  0.755000  0.886500  0.035700  1
  H  H21  1  0.886500  0.755000  0.964300  1
  H  H22  1  0.113500  0.245000  0.464300  1
  H  H23  1  0.255000  0.613500  0.214300  1
  H  H24  1  0.745000  0.386500  0.714300  1
  H  H25  1  0.692500  0.197300  0.733100  1
  H  H26  1  0.307500  0.802700  0.233100  1
  H  H27  1  0.302700  0.192500  0.483100  1
  H  H28  1  0.697300  0.807500  0.983100  1
  H  H29  1  0.807500  0.697300  0.016900  1
  H  H30  1  0.192500  0.302700  0.516900  1
  H  H31  1  0.197300  0.692500  0.266900  1
  H  H32  1  0.802700  0.307500  0.766900  1
  H  H33  1  0.561800  0.200700  0.748300  1
  H  H34  1  0.438200  0.799300  0.248300  1
  H  H35  1  0.299300  0.061800  0.498300  1
  H  H36  1  0.700700  0.938200  0.998300  1
  H  H37  1  0.938200  0.700700  0.001700  1
  H  H38  1  0.061800  0.299300  0.501700  1
  H  H39  1  0.200700  0.561800  0.251700  1
  H  H40  1  0.799300  0.438200  0.751700  1
  H  H41  1  0.583400  0.165800  0.717200  1
  H  H42  1  0.416600  0.834200  0.217200  1
  H  H43  1  0.334200  0.083400  0.467200  1
  H  H44  1  0.665800  0.916600  0.967200  1
  H  H45  1  0.916600  0.665800  0.032800  1
  H  H46  1  0.083400  0.334200  0.532800  1
  H  H47  1  0.165800  0.583400  0.282800  1
  H  H48  1  0.834200  0.416600  0.782800  1
  H  H49  1  0.542700  0.224000  0.679600  1
  H  H50  1  0.457300  0.776000  0.179600  1
  H  H51  1  0.276000  0.042700  0.429600  1
  H  H52  1  0.724000  0.957300  0.929600  1
  H  H53  1  0.957300  0.724000  0.070400  1
  H  H54  1  0.042700  0.276000  0.570400  1
  H  H55  1  0.224000  0.542700  0.320400  1
  H  H56  1  0.776000  0.457300  0.820400  1
  H  H57  1  0.564500  0.300400  0.702300  1
  H  H58  1  0.435500  0.699600  0.202300  1
  H  H59  1  0.199600  0.064500  0.452300  1
  H  H60  1  0.800400  0.935500  0.952300  1
  H  H61  1  0.935500  0.800400  0.047700  1
  H  H62  1  0.064500  0.199600  0.547700  1
  H  H63  1  0.300400  0.564500  0.297700  1
  H  H64  1  0.699600  0.435500  0.797700  1
  H  H65  1  0.560700  0.272000  0.743200  1
  H  H66  1  0.439300  0.728000  0.243200  1
  H  H67  1  0.228000  0.060700  0.493200  1
  H  H68  1  0.772000  0.939300  0.993200  1
  H  H69  1  0.939300  0.772000  0.006800  1
  H  H70  1  0.060700  0.228000  0.506800  1
  H  H71  1  0.272000  0.560700  0.256800  1
  H  H72  1  0.728000  0.439300  0.756800  1
  H  H73  1  0.625400  0.316700  0.738800  1
  H  H74  1  0.374600  0.683300  0.238800  1
  H  H75  1  0.183300  0.125400  0.488800  1
  H  H76  1  0.816700  0.874600  0.988800  1
  H  H77  1  0.874600  0.816700  0.011200  1
  H  H78  1  0.125400  0.183300  0.511200  1
  H  H79  1  0.316700  0.625400  0.261200  1
  H  H80  1  0.683300  0.374600  0.761200  1
  H  H81  1  0.683500  0.226100  0.656400  1
  H  H82  1  0.316500  0.773900  0.156400  1
  H  H83  1  0.273900  0.183500  0.406400  1
  H  H84  1  0.726100  0.816500  0.906400  1
  H  H85  1  0.816500  0.726100  0.093600  1
  H  H86  1  0.183500  0.273900  0.593600  1
  H  H87  1  0.226100  0.683500  0.343600  1
  H  H88  1  0.773900  0.316500  0.843600  1
  H  H89  1  0.612100  0.197500  0.649100  1
  H  H90  1  0.387900  0.802500  0.149100  1
  H  H91  1  0.302500  0.112100  0.399100  1
  H  H92  1  0.697500  0.887900  0.899100  1
  H  H93  1  0.887900  0.697500  0.100900  1
  H  H94  1  0.112100  0.302500  0.600900  1
  H  H95  1  0.197500  0.612100  0.350900  1
  H  H96  1  0.802500  0.387900  0.850900  1
  H  H97  1  0.608700  0.250600  0.642300  1
  H  H98  1  0.391300  0.749400  0.142300  1
  H  H99  1  0.249400  0.108700  0.392300  1
  H  H100  1  0.750600  0.891300  0.892300  1
  H  H101  1  0.891300  0.750600  0.107700  1
  H  H102  1  0.108700  0.249400  0.607700  1
  H  H103  1  0.250600  0.608700  0.357700  1
  H  H104  1  0.749400  0.391300  0.857700  1
  H  H105  1  0.787800  0.108200  0.905600  1
  H  H106  1  0.212200  0.891800  0.405600  1
  H  H107  1  0.391800  0.287800  0.655600  1
  H  H108  1  0.608200  0.712200  0.155600  1
  H  H109  1  0.712200  0.608200  0.844400  1
  H  H110  1  0.287800  0.391800  0.344400  1
  H  H111  1  0.108200  0.787800  0.094400  1
  H  H112  1  0.891800  0.212200  0.594400  1
  H  H113  1  0.821800  0.178400  0.904500  1
  H  H114  1  0.178200  0.821600  0.404500  1
  H  H115  1  0.321600  0.321800  0.654500  1
  H  H116  1  0.678400  0.678200  0.154500  1
  H  H117  1  0.678200  0.678400  0.845500  1
  H  H118  1  0.321800  0.321600  0.345500  1
  H  H119  1  0.178400  0.821800  0.095500  1
  H  H120  1  0.821600  0.178200  0.595500  1
  H  H121  1  0.770200  0.182200  0.918500  1
  H  H122  1  0.229800  0.817800  0.418500  1
  H  H123  1  0.317800  0.270200  0.668500  1
  H  H124  1  0.682200  0.729800  0.168500  1
  H  H125  1  0.729800  0.682200  0.831500  1
  H  H126  1  0.270200  0.317800  0.331500  1
  H  H127  1  0.182200  0.770200  0.081500  1
  H  H128  1  0.817800  0.229800  0.581500  1
  H  H129  1  0.714300  0.121400  0.889600  1
  H  H130  1  0.285700  0.878600  0.389600  1
  H  H131  1  0.378600  0.214300  0.639600  1
  H  H132  1  0.621400  0.785700  0.139600  1
  H  H133  1  0.785700  0.621400  0.860400  1
  H  H134  1  0.214300  0.378600  0.360400  1
  H  H135  1  0.121400  0.714300  0.110400  1
  H  H136  1  0.878600  0.285700  0.610400  1
  H  H137  1  0.735100  0.086200  0.857700  1
  H  H138  1  0.264900  0.913800  0.357700  1
  H  H139  1  0.413800  0.235100  0.607700  1
  H  H140  1  0.586200  0.764900  0.107700  1
  H  H141  1  0.764900  0.586200  0.892300  1
  H  H142  1  0.235100  0.413800  0.392300  1
  H  H143  1  0.086200  0.735100  0.142300  1
  H  H144  1  0.913800  0.264900  0.642300  1
  H  H145  1  0.818100  0.085500  0.840100  1
  H  H146  1  0.181900  0.914500  0.340100  1
  H  H147  1  0.414500  0.318100  0.590100  1
  H  H148  1  0.585500  0.681900  0.090100  1
  H  H149  1  0.681900  0.585500  0.909900  1
  H  H150  1  0.318100  0.414500  0.409900  1
  H  H151  1  0.085500  0.818100  0.159900  1
  H  H152  1  0.914500  0.181900  0.659900  1
  H  H153  1  0.850800  0.122500  0.860700  1
  H  H154  1  0.149200  0.877500  0.360700  1
  H  H155  1  0.377500  0.350800  0.610700  1
  H  H156  1  0.622500  0.649200  0.110700  1
  H  H157  1  0.649200  0.622500  0.889300  1
  H  H158  1  0.350800  0.377500  0.389300  1
  H  H159  1  0.122500  0.850800  0.139300  1
  H  H160  1  0.877500  0.149200  0.639300  1
  H  H161  1  0.831100  0.147100  0.790900  1
  H  H162  1  0.168900  0.852900  0.290900  1
  H  H163  1  0.352900  0.331100  0.540900  1
  H  H164  1  0.647100  0.668900  0.040900  1
  H  H165  1  0.668900  0.647100  0.959100  1
  H  H166  1  0.331100  0.352900  0.459100  1
  H  H167  1  0.147100  0.831100  0.209100  1
  H  H168  1  0.852900  0.168900  0.709100  1
  H  H169  1  0.807700  0.220100  0.803200  1
  H  H170  1  0.192300  0.779900  0.303200  1
  H  H171  1  0.279900  0.307700  0.553200  1
  H  H172  1  0.720100  0.692300  0.053200  1
  H  H173  1  0.692300  0.720100  0.946800  1
  H  H174  1  0.307700  0.279900  0.446800  1
  H  H175  1  0.220100  0.807700  0.196800  1
  H  H176  1  0.779900  0.192300  0.696800  1
  H  H177  1  0.844500  0.205400  0.836000  1
  H  H178  1  0.155500  0.794600  0.336000  1
  H  H179  1  0.294600  0.344500  0.586000  1
  H  H180  1  0.705400  0.655500  0.086000  1
  H  H181  1  0.655500  0.705400  0.914000  1
  H  H182  1  0.344500  0.294600  0.414000  1
  H  H183  1  0.205400  0.844500  0.164000  1
  H  H184  1  0.794600  0.155500  0.664000  1
  H  H185  1  0.784000  0.244000  0.869200  1
  H  H186  1  0.216000  0.756000  0.369200  1
  H  H187  1  0.256000  0.284000  0.619200  1
  H  H188  1  0.744000  0.716000  0.119200  1
  H  H189  1  0.716000  0.744000  0.880800  1
  H  H190  1  0.284000  0.256000  0.380800  1
  H  H191  1  0.244000  0.784000  0.130800  1
  H  H192  1  0.756000  0.216000  0.630800  1
  H  H193  1  0.708700  0.206100  0.866400  1
  H  H194  1  0.291300  0.793900  0.366400  1
  H  H195  1  0.293900  0.208700  0.616400  1
  H  H196  1  0.706100  0.791300  0.116400  1
  H  H197  1  0.791300  0.706100  0.883600  1
  H  H198  1  0.208700  0.293900  0.383600  1
  H  H199  1  0.206100  0.708700  0.133600  1
  H  H200  1  0.793900  0.291300  0.633600  1
  H  H201  1  0.722700  0.221700  0.822000  1
  H  H202  1  0.277300  0.778300  0.322000  1
  H  H203  1  0.278300  0.222700  0.572000  1
  H  H204  1  0.721700  0.777300  0.072000  1
  H  H205  1  0.777300  0.721700  0.928000  1
  H  H206  1  0.222700  0.278300  0.428000  1
  H  H207  1  0.221700  0.722700  0.178000  1
  H  H208  1  0.778300  0.277300  0.678000  1
  H  H209  1  0.694400  0.148800  0.818700  1
  H  H210  1  0.305600  0.851200  0.318700  1
  H  H211  1  0.351200  0.194400  0.568700  1
  H  H212  1  0.648800  0.805600  0.068700  1
  H  H213  1  0.805600  0.648800  0.931300  1
  H  H214  1  0.194400  0.351200  0.431300  1
  H  H215  1  0.148800  0.694400  0.181300  1
  H  H216  1  0.851200  0.305600  0.681300  1
  H  H217  1  0.761000  0.108500  0.792500  1
  H  H218  1  0.239000  0.891500  0.292500  1
  H  H219  1  0.391500  0.261000  0.542500  1
  H  H220  1  0.608500  0.739000  0.042500  1
  H  H221  1  0.739000  0.608500  0.957500  1
  H  H222  1  0.261000  0.391500  0.457500  1
  H  H223  1  0.108500  0.761000  0.207500  1
  H  H224  1  0.891500  0.239000  0.707500  1
  H  H225  1  0.757100  0.157800  0.773000  1
  H  H226  1  0.242900  0.842200  0.273000  1
  H  H227  1  0.342200  0.257100  0.523000  1
  H  H228  1  0.657800  0.742900  0.023000  1
  H  H229  1  0.742900  0.657800  0.977000  1
  H  H230  1  0.257100  0.342200  0.477000  1
  H  H231  1  0.157800  0.757100  0.227000  1
  H  H232  1  0.842200  0.242900  0.727000  1
  H  H233  1  0.569300  0.826800  0.742200  1
  H  H234  1  0.430700  0.173200  0.242200  1
  H  H235  1  0.673200  0.069300  0.492200  1
  H  H236  1  0.326800  0.930700  0.992200  1
  H  H237  1  0.930700  0.326800  0.007800  1
  H  H238  1  0.069300  0.673200  0.507800  1
  H  H239  1  0.826800  0.569300  0.257800  1
  H  H240  1  0.173200  0.430700  0.757800  1
  H  H241  1  0.508900  0.859000  0.703900  1
  H  H242  1  0.491100  0.141000  0.203900  1
  H  H243  1  0.641000  0.008900  0.453900  1
  H  H244  1  0.359000  0.991100  0.953900  1
  H  H245  1  0.991100  0.359000  0.046100  1
  H  H246  1  0.008900  0.641000  0.546100  1
  H  H247  1  0.859000  0.508900  0.296100  1
  H  H248  1  0.141000  0.491100  0.796100  1
  H  H249  1  0.523500  0.880700  0.636500  1
  H  H250  1  0.476500  0.119300  0.136500  1
  H  H251  1  0.619300  0.023500  0.386500  1
  H  H252  1  0.380700  0.976500  0.886500  1
  H  H253  1  0.976500  0.380700  0.113500  1
  H  H254  1  0.023500  0.619300  0.613500  1
  H  H255  1  0.880700  0.523500  0.363500  1
  H  H256  1  0.119300  0.476500  0.863500  1
  H  H257  1  0.598400  0.880800  0.612400  1
  H  H258  1  0.401600  0.119200  0.112400  1
  H  H259  1  0.619200  0.098400  0.362400  1
  H  H260  1  0.380800  0.901600  0.862400  1
  H  H261  1  0.901600  0.380800  0.137600  1
  H  H262  1  0.098400  0.619200  0.637600  1
  H  H263  1  0.880800  0.598400  0.387600  1
  H  H264  1  0.119200  0.401600  0.887600  1
  H  H265  1  0.666500  0.881900  0.595800  1
  H  H266  1  0.333500  0.118100  0.095800  1
  H  H267  1  0.618100  0.166500  0.345800  1
  H  H268  1  0.381900  0.833500  0.845800  1
  H  H269  1  0.833500  0.381900  0.154200  1
  H  H270  1  0.166500  0.618100  0.654200  1
  H  H271  1  0.881900  0.666500  0.404200  1
  H  H272  1  0.118100  0.333500  0.904200  1
  H  H273  1  0.744000  0.885900  0.584700  1
  H  H274  1  0.256000  0.114100  0.084700  1
  H  H275  1  0.614100  0.244000  0.334700  1
  H  H276  1  0.385900  0.756000  0.834700  1
  H  H277  1  0.756000  0.385900  0.165300  1
  H  H278  1  0.244000  0.614100  0.665300  1
  H  H279  1  0.885900  0.744000  0.415300  1
  H  H280  1  0.114100  0.256000  0.915300  1
  H  H281  1  0.793200  0.849000  0.630300  1
  H  H282  1  0.206800  0.151000  0.130300  1
  H  H283  1  0.651000  0.293200  0.380300  1
  H  H284  1  0.349000  0.706800  0.880300  1
  H  H285  1  0.706800  0.349000  0.119700  1
  H  H286  1  0.293200  0.651000  0.619700  1
  H  H287  1  0.849000  0.793200  0.369700  1
  H  H288  1  0.151000  0.206800  0.869700  1
  H  H289  1  0.765900  0.836400  0.696700  1
  H  H290  1  0.234100  0.163600  0.196700  1
  H  H291  1  0.663600  0.265900  0.446700  1
  H  H292  1  0.336400  0.734100  0.946700  1
  H  H293  1  0.734100  0.336400  0.053300  1
  H  H294  1  0.265900  0.663600  0.553300  1
  H  H295  1  0.836400  0.765900  0.303300  1
  H  H296  1  0.163600  0.234100  0.803300  1
  H  H297  1  0.454600  0.588000  0.957800  1
  H  H298  1  0.545400  0.412000  0.457800  1
  H  H299  1  0.912000  0.954600  0.707800  1
  H  H300  1  0.088000  0.045400  0.207800  1
  H  H301  1  0.045400  0.088000  0.792200  1
  H  H302  1  0.954600  0.912000  0.292200  1
  H  H303  1  0.588000  0.454600  0.042200  1
  H  H304  1  0.412000  0.545400  0.542200  1
  H  H305  1  0.383500  0.575200  0.928000  1
  H  H306  1  0.616500  0.424800  0.428000  1
  H  H307  1  0.924800  0.883500  0.678000  1
  H  H308  1  0.075200  0.116500  0.178000  1
  H  H309  1  0.116500  0.075200  0.822000  1
  H  H310  1  0.883500  0.924800  0.322000  1
  H  H311  1  0.575200  0.383500  0.072000  1
  H  H312  1  0.424800  0.616500  0.572000  1
  H  H313  1  0.348800  0.503700  0.945100  1
  H  H314  1  0.651200  0.496300  0.445100  1
  H  H315  1  0.996300  0.848800  0.695100  1
  H  H316  1  0.003700  0.151200  0.195100  1
  H  H317  1  0.151200  0.003700  0.804900  1
  H  H318  1  0.848800  0.996300  0.304900  1
  H  H319  1  0.503700  0.348800  0.054900  1
  H  H320  1  0.496300  0.651200  0.554900  1
  H  H321  1  0.394000  0.446100  0.966000  1
  H  H322  1  0.606000  0.553900  0.466000  1
  H  H323  1  0.053900  0.894000  0.716000  1
  H  H324  1  0.946100  0.106000  0.216000  1
  H  H325  1  0.106000  0.946100  0.784000  1
  H  H326  1  0.894000  0.053900  0.284000  1
  H  H327  1  0.446100  0.394000  0.034000  1
  H  H328  1  0.553900  0.606000  0.534000  1
  H  H329  1  0.608700  0.286600  0.654200  1
  H  H330  1  0.391300  0.713400  0.154200  1
  H  H331  1  0.213400  0.108700  0.404200  1
  H  H332  1  0.786600  0.891300  0.904200  1
  H  H333  1  0.891300  0.786600  0.095800  1
  H  H334  1  0.108700  0.213400  0.595800  1
  H  H335  1  0.286600  0.608700  0.345800  1
  H  H336  1  0.713400  0.391300  0.845800  1
  H  H337  1  0.621100  0.211800  0.639000  1
  H  H338  1  0.378900  0.788200  0.139000  1
  H  H339  1  0.288200  0.121100  0.389000  1
  H  H340  1  0.711800  0.878900  0.889000  1
  H  H341  1  0.878900  0.711800  0.111000  1
  H  H342  1  0.121100  0.288200  0.611000  1
  H  H343  1  0.211800  0.621100  0.361000  1
  H  H344  1  0.788200  0.378900  0.861000  1
  H  H345  1  0.570800  0.215200  0.657200  1
  H  H346  1  0.429200  0.784800  0.157200  1
  H  H347  1  0.284800  0.070800  0.407200  1
  H  H348  1  0.715200  0.929200  0.907200  1
  H  H349  1  0.929200  0.715200  0.092800  1
  H  H350  1  0.070800  0.284800  0.592800  1
  H  H351  1  0.215200  0.570800  0.342800  1
  H  H352  1  0.784800  0.429200  0.842800  1
  H  H353  1  0.550000  0.271700  0.695700  1
  H  H354  1  0.450000  0.728300  0.195700  1
  H  H355  1  0.228300  0.050000  0.445700  1
  H  H356  1  0.771700  0.950000  0.945700  1
  H  H357  1  0.950000  0.771700  0.054300  1
  H  H358  1  0.050000  0.228300  0.554300  1
  H  H359  1  0.271700  0.550000  0.304300  1
  H  H360  1  0.728300  0.450000  0.804300  1
  H  H361  1  0.583200  0.309700  0.713300  1
  H  H362  1  0.416800  0.690300  0.213300  1
  H  H363  1  0.190300  0.083200  0.463300  1
  H  H364  1  0.809700  0.916800  0.963300  1
  H  H365  1  0.916800  0.809700  0.036700  1
  H  H366  1  0.083200  0.190300  0.536700  1
  H  H367  1  0.309700  0.583200  0.286700  1
  H  H368  1  0.690300  0.416800  0.786700  1
  H  H369  1  0.660700  0.304300  0.700500  1
  H  H370  1  0.339300  0.695700  0.200500  1
  H  H371  1  0.195700  0.160700  0.450500  1
  H  H372  1  0.804300  0.839300  0.950500  1
  H  H373  1  0.839300  0.804300  0.049500  1
  H  H374  1  0.160700  0.195700  0.549500  1
  H  H375  1  0.304300  0.660700  0.299500  1
  H  H376  1  0.695700  0.339300  0.799500  1
  H  H377  1  0.678700  0.267300  0.669600  1
  H  H378  1  0.321300  0.732700  0.169600  1
  H  H379  1  0.232700  0.178700  0.419600  1
  H  H380  1  0.767300  0.821300  0.919600  1
  H  H381  1  0.821300  0.767300  0.080400  1
  H  H382  1  0.178700  0.232700  0.580400  1
  H  H383  1  0.267300  0.678700  0.330400  1
  H  H384  1  0.732700  0.321300  0.830400  1
  H  H385  1  0.706000  0.247600  0.737200  1
  H  H386  1  0.294000  0.752400  0.237200  1
  H  H387  1  0.252400  0.206000  0.487200  1
  H  H388  1  0.747600  0.794000  0.987200  1
  H  H389  1  0.794000  0.747600  0.012800  1
  H  H390  1  0.206000  0.252400  0.512800  1
  H  H391  1  0.247600  0.706000  0.262800  1
  H  H392  1  0.752400  0.294000  0.762800  1
  H  H393  1  0.679500  0.197200  0.678500  1
  H  H394  1  0.320500  0.802800  0.178500  1
  H  H395  1  0.302800  0.179500  0.428500  1
  H  H396  1  0.697200  0.820500  0.928500  1
  H  H397  1  0.820500  0.697200  0.071500  1
  H  H398  1  0.179500  0.302800  0.571500  1
  H  H399  1  0.197200  0.679500  0.321500  1
  H  H400  1  0.802800  0.320500  0.821500  1
  H  H401  1  0.614900  0.153400  0.690200  1
  H  H402  1  0.385100  0.846600  0.190200  1
  H  H403  1  0.346600  0.114900  0.440200  1
  H  H404  1  0.653400  0.885100  0.940200  1
  H  H405  1  0.885100  0.653400  0.059800  1
  H  H406  1  0.114900  0.346600  0.559800  1
  H  H407  1  0.153400  0.614900  0.309800  1
  H  H408  1  0.846600  0.385100  0.809800  1
  H  H409  1  0.587800  0.171000  0.756700  1
  H  H410  1  0.412200  0.829000  0.256700  1
  H  H411  1  0.329000  0.087800  0.506700  1
  H  H412  1  0.671000  0.912200  0.006700  1
  H  H413  1  0.912200  0.671000  0.993300  1
  H  H414  1  0.087800  0.329000  0.493300  1
  H  H415  1  0.171000  0.587800  0.243300  1
  H  H416  1  0.829000  0.412200  0.743300  1
  H  H417  1  0.551400  0.189100  0.724600  1
  H  H418  1  0.448600  0.810900  0.224600  1
  H  H419  1  0.310900  0.051400  0.474600  1
  H  H420  1  0.689100  0.948600  0.974600  1
  H  H421  1  0.948600  0.689100  0.025400  1
  H  H422  1  0.051400  0.310900  0.525400  1
  H  H423  1  0.189100  0.551400  0.275400  1
  H  H424  1  0.810900  0.448600  0.775400  1
  H  H425  1  0.569200  0.251400  0.773400  1
  H  H426  1  0.430800  0.748600  0.273400  1
  H  H427  1  0.248600  0.069200  0.523400  1
  H  H428  1  0.751400  0.930800  0.023400  1
  H  H429  1  0.930800  0.751400  0.976600  1
  H  H430  1  0.069200  0.248600  0.476600  1
  H  H431  1  0.251400  0.569200  0.226600  1
  H  H432  1  0.748600  0.430800  0.726600  1
  H  H433  1  0.644900  0.232700  0.784100  1
  H  H434  1  0.355100  0.767300  0.284100  1
  H  H435  1  0.267300  0.144900  0.534100  1
  H  H436  1  0.732700  0.855100  0.034100  1
  H  H437  1  0.855100  0.732700  0.965900  1
  H  H438  1  0.144900  0.267300  0.465900  1
  H  H439  1  0.232700  0.644900  0.215900  1
  H  H440  1  0.767300  0.355100  0.715900  1
  H  H441  1  0.640200  0.283400  0.768600  1
  H  H442  1  0.359800  0.716600  0.268600  1
  H  H443  1  0.216600  0.140200  0.518600  1
  H  H444  1  0.783400  0.859800  0.018600  1
  H  H445  1  0.859800  0.783400  0.981400  1
  H  H446  1  0.140200  0.216600  0.481400  1
  H  H447  1  0.283400  0.640200  0.231400  1
  H  H448  1  0.716600  0.359800  0.731400  1
  H  H449  1  0.630500  0.180900  0.768600  1
  H  H450  1  0.369500  0.819100  0.268600  1
  H  H451  1  0.319100  0.130500  0.518600  1
  H  H452  1  0.680900  0.869500  0.018600  1
  H  H453  1  0.869500  0.680900  0.981400  1
  H  H454  1  0.130500  0.319100  0.481400  1
  H  H455  1  0.180900  0.630500  0.231400  1
  H  H456  1  0.819100  0.369500  0.731400  1
  H  H457  1  0.660600  0.162500  0.709300  1
  H  H458  1  0.339400  0.837500  0.209300  1
  H  H459  1  0.337500  0.160600  0.459300  1
  H  H460  1  0.662500  0.839400  0.959300  1
  H  H461  1  0.839400  0.662500  0.040700  1
  H  H462  1  0.160600  0.337500  0.540700  1
  H  H463  1  0.162500  0.660600  0.290700  1
  H  H464  1  0.837500  0.339400  0.790700  1
  H  H465  1  0.693900  0.284500  0.711000  1
  H  H466  1  0.306100  0.715500  0.211000  1
  H  H467  1  0.215500  0.193900  0.461000  1
  H  H468  1  0.784500  0.806100  0.961000  1
  H  H469  1  0.806100  0.784500  0.039000  1
  H  H470  1  0.193900  0.215500  0.539000  1
  H  H471  1  0.284500  0.693900  0.289000  1
  H  H472  1  0.715500  0.306100  0.789000  1
  H  H473  1  0.662600  0.304800  0.675700  1
  H  H474  1  0.337400  0.695200  0.175700  1
  H  H475  1  0.195200  0.162600  0.425700  1
  H  H476  1  0.804800  0.837400  0.925700  1
  H  H477  1  0.837400  0.804800  0.074300  1
  H  H478  1  0.162600  0.195200  0.574300  1
  H  H479  1  0.304800  0.662600  0.324300  1
  H  H480  1  0.695200  0.337400  0.824300  1
  H  H481  1  0.761000  0.218500  0.782100  1
  H  H482  1  0.239000  0.781500  0.282100  1
  H  H483  1  0.281500  0.261000  0.532100  1
  H  H484  1  0.718500  0.739000  0.032100  1
  H  H485  1  0.739000  0.718500  0.967900  1
  H  H486  1  0.261000  0.281500  0.467900  1
  H  H487  1  0.218500  0.761000  0.217900  1
  H  H488  1  0.781500  0.239000  0.717900  1
  H  H489  1  0.778000  0.143900  0.768000  1
  H  H490  1  0.222000  0.856100  0.268000  1
  H  H491  1  0.356100  0.278000  0.518000  1
  H  H492  1  0.643900  0.722000  0.018000  1
  H  H493  1  0.722000  0.643900  0.982000  1
  H  H494  1  0.278000  0.356100  0.482000  1
  H  H495  1  0.143900  0.778000  0.232000  1
  H  H496  1  0.856100  0.222000  0.732000  1
  H  H497  1  0.726000  0.149100  0.780800  1
  H  H498  1  0.274000  0.850900  0.280800  1
  H  H499  1  0.350900  0.226000  0.530800  1
  H  H500  1  0.649100  0.774000  0.030800  1
  H  H501  1  0.774000  0.649100  0.969200  1
  H  H502  1  0.226000  0.350900  0.469200  1
  H  H503  1  0.149100  0.726000  0.219200  1
  H  H504  1  0.850900  0.274000  0.719200  1
  H  H505  1  0.816100  0.238700  0.827700  1
  H  H506  1  0.183900  0.761300  0.327700  1
  H  H507  1  0.261300  0.316100  0.577700  1
  H  H508  1  0.738700  0.683900  0.077700  1
  H  H509  1  0.683900  0.738700  0.922300  1
  H  H510  1  0.316100  0.261300  0.422300  1
  H  H511  1  0.238700  0.816100  0.172300  1
  H  H512  1  0.761300  0.183900  0.672300  1
  H  H513  1  0.834500  0.202000  0.796000  1
  H  H514  1  0.165500  0.798000  0.296000  1
  H  H515  1  0.298000  0.334500  0.546000  1
  H  H516  1  0.702000  0.665500  0.046000  1
  H  H517  1  0.665500  0.702000  0.954000  1
  H  H518  1  0.334500  0.298000  0.454000  1
  H  H519  1  0.202000  0.834500  0.204000  1
  H  H520  1  0.798000  0.165500  0.704000  1
  H  H521  1  0.700000  0.208800  0.829200  1
  H  H522  1  0.300000  0.791200  0.329200  1
  H  H523  1  0.291200  0.200000  0.579200  1
  H  H524  1  0.708800  0.800000  0.079200  1
  H  H525  1  0.800000  0.708800  0.920800  1
  H  H526  1  0.200000  0.291200  0.420800  1
  H  H527  1  0.208800  0.700000  0.170800  1
  H  H528  1  0.791200  0.300000  0.670800  1
  H  H529  1  0.736200  0.243400  0.848100  1
  H  H530  1  0.263800  0.756600  0.348100  1
  H  H531  1  0.256600  0.236200  0.598100  1
  H  H532  1  0.743400  0.763800  0.098100  1
  H  H533  1  0.763800  0.743400  0.901900  1
  H  H534  1  0.236200  0.256600  0.401900  1
  H  H535  1  0.243400  0.736200  0.151900  1
  H  H536  1  0.756600  0.263800  0.651900  1
  H  H537  1  0.719900  0.182700  0.899100  1
  H  H538  1  0.280100  0.817300  0.399100  1
  H  H539  1  0.317300  0.219900  0.649100  1
  H  H540  1  0.682700  0.780100  0.149100  1
  H  H541  1  0.780100  0.682700  0.850900  1
  H  H542  1  0.219900  0.317300  0.350900  1
  H  H543  1  0.182700  0.719900  0.100900  1
  H  H544  1  0.817300  0.280100  0.600900  1
  H  H545  1  0.702400  0.126700  0.851300  1
  H  H546  1  0.297600  0.873300  0.351300  1
  H  H547  1  0.373300  0.202400  0.601300  1
  H  H548  1  0.626700  0.797600  0.101300  1
  H  H549  1  0.797600  0.626700  0.898700  1
  H  H550  1  0.202400  0.373300  0.398700  1
  H  H551  1  0.126700  0.702400  0.148700  1
  H  H552  1  0.873300  0.297600  0.648700  1
  H  H553  1  0.737900  0.108300  0.883700  1
  H  H554  1  0.262100  0.891700  0.383700  1
  H  H555  1  0.391700  0.237900  0.633700  1
  H  H556  1  0.608300  0.762100  0.133700  1
  H  H557  1  0.762100  0.608300  0.866300  1
  H  H558  1  0.237900  0.391700  0.366300  1
  H  H559  1  0.108300  0.737900  0.116300  1
  H  H560  1  0.891700  0.262100  0.616300  1
  H  H561  1  0.760300  0.083400  0.818800  1
  H  H562  1  0.239700  0.916600  0.318800  1
  H  H563  1  0.416600  0.260300  0.568800  1
  H  H564  1  0.583400  0.739700  0.068800  1
  H  H565  1  0.739700  0.583400  0.931200  1
  H  H566  1  0.260300  0.416600  0.431200  1
  H  H567  1  0.083400  0.760300  0.181200  1
  H  H568  1  0.916600  0.239700  0.681200  1
  H  H569  1  0.823600  0.103300  0.864200  1
  H  H570  1  0.176400  0.896700  0.364200  1
  H  H571  1  0.396700  0.323600  0.614200  1
  H  H572  1  0.603300  0.676400  0.114200  1
  H  H573  1  0.676400  0.603300  0.885800  1
  H  H574  1  0.323600  0.396700  0.385800  1
  H  H575  1  0.103300  0.823600  0.135800  1
  H  H576  1  0.896700  0.176400  0.635800  1
  H  H577  1  0.837200  0.118300  0.819600  1
  H  H578  1  0.162800  0.881700  0.319600  1
  H  H579  1  0.381700  0.337200  0.569600  1
  H  H580  1  0.618300  0.662800  0.069600  1
  H  H581  1  0.662800  0.618300  0.930400  1
  H  H582  1  0.337200  0.381700  0.430400  1
  H  H583  1  0.118300  0.837200  0.180400  1
  H  H584  1  0.881700  0.162800  0.680400  1
  H  H585  1  0.855600  0.175000  0.866900  1
  H  H586  1  0.144400  0.825000  0.366900  1
  H  H587  1  0.325000  0.355600  0.616900  1
  H  H588  1  0.675000  0.644400  0.116900  1
  H  H589  1  0.644400  0.675000  0.883100  1
  H  H590  1  0.355600  0.325000  0.383100  1
  H  H591  1  0.175000  0.855600  0.133100  1
  H  H592  1  0.825000  0.144400  0.633100  1
  H  H593  1  0.794400  0.168000  0.913700  1
  H  H594  1  0.205600  0.832000  0.413700  1
  H  H595  1  0.332000  0.294400  0.663700  1
  H  H596  1  0.668000  0.705600  0.163700  1
  H  H597  1  0.705600  0.668000  0.836300  1
  H  H598  1  0.294400  0.332000  0.336300  1
  H  H599  1  0.168000  0.794400  0.086300  1
  H  H600  1  0.832000  0.205600  0.586300  1
  H  H601  1  0.791900  0.217500  0.894500  1
  H  H602  1  0.208100  0.782500  0.394500  1
  H  H603  1  0.282500  0.291900  0.644500  1
  H  H604  1  0.717500  0.708100  0.144500  1
  H  H605  1  0.708100  0.717500  0.855500  1
  H  H606  1  0.291900  0.282500  0.355500  1
  H  H607  1  0.217500  0.791900  0.105500  1
  H  H608  1  0.782500  0.208100  0.605500  1
  H  H609  1  0.530000  0.857200  0.092900  1.0
  H  H610  1  0.470000  0.142800  0.592900  1.0
  H  H611  1  0.642800  0.030000  0.842900  1.0
  H  H612  1  0.357200  0.970000  0.342900  1.0
  H  H613  1  0.970000  0.357200  0.657100  1.0
  H  H614  1  0.030000  0.642800  0.157100  1.0
  H  H615  1  0.857200  0.530000  0.907100  1.0
  H  H616  1  0.142800  0.470000  0.407100  1.0
  H  H617  1  0.537900  0.800900  0.044900  1.0
  H  H618  1  0.462100  0.199100  0.544900  1.0
  H  H619  1  0.699100  0.037900  0.794900  1.0
  H  H620  1  0.300900  0.962100  0.294900  1.0
  H  H621  1  0.962100  0.300900  0.705100  1.0
  H  H622  1  0.037900  0.699100  0.205100  1.0
  H  H623  1  0.800900  0.537900  0.955100  1.0
  H  H624  1  0.199100  0.462100  0.455100  1.0
  H  H625  1  0.571900  0.899800  0.964400  1.0
  H  H626  1  0.428100  0.100200  0.464400  1.0
  H  H627  1  0.600200  0.071900  0.714400  1.0
  H  H628  1  0.399800  0.928100  0.214400  1.0
  H  H629  1  0.928100  0.399800  0.785600  1.0
  H  H630  1  0.071900  0.600200  0.285600  1.0
  H  H631  1  0.899800  0.571900  0.035600  1.0
  H  H632  1  0.100200  0.428100  0.535600  1.0
  H  H633  1  0.562800  0.952300  0.015300  1.0
  H  H634  1  0.437200  0.047700  0.515300  1.0
  H  H635  1  0.547700  0.062800  0.765300  1.0
  H  H636  1  0.452300  0.937200  0.265300  1.0
  H  H637  1  0.937200  0.452300  0.734700  1.0
  H  H638  1  0.062800  0.547700  0.234700  1.0
  H  H639  1  0.952300  0.562800  0.984700  1.0
  H  H640  1  0.047700  0.437200  0.484700  1.0
  H  H641  1  0.595400  0.886500  0.154500  1.0
  H  H642  1  0.404600  0.113500  0.654500  1.0
  H  H643  1  0.613500  0.095400  0.904500  1.0
  H  H644  1  0.386500  0.904600  0.404500  1.0
  H  H645  1  0.904600  0.386500  0.595500  1.0
  H  H646  1  0.095400  0.613500  0.095500  1.0
  H  H647  1  0.886500  0.595400  0.845500  1.0
  H  H648  1  0.113500  0.404600  0.345500  1.0
  H  H649  1  0.670100  0.860900  0.164500  1.0
  H  H650  1  0.329900  0.139100  0.664500  1.0
  H  H651  1  0.639100  0.170100  0.914500  1.0
  H  H652  1  0.360900  0.829900  0.414500  1.0
  H  H653  1  0.829900  0.360900  0.585500  1.0
  H  H654  1  0.170100  0.639100  0.085500  1.0
  H  H655  1  0.860900  0.670100  0.835500  1.0
  H  H656  1  0.139100  0.329900  0.335500  1.0
  H  H657  1  0.712600  0.956200  0.084800  1.0
  H  H658  1  0.287400  0.043800  0.584800  1.0
  H  H659  1  0.543800  0.212600  0.834800  1.0
  H  H660  1  0.456200  0.787400  0.334800  1.0
  H  H661  1  0.787400  0.456200  0.665200  1.0
  H  H662  1  0.212600  0.543800  0.165200  1.0
  H  H663  1  0.956200  0.712600  0.915200  1.0
  H  H664  1  0.043800  0.287400  0.415200  1.0
  H  H665  1  0.636200  0.978100  0.076200  1.0
  H  H666  1  0.363800  0.021900  0.576200  1.0
  H  H667  1  0.521900  0.136200  0.826200  1.0
  H  H668  1  0.478100  0.863800  0.326200  1.0
  H  H669  1  0.863800  0.478100  0.673800  1.0
  H  H670  1  0.136200  0.521900  0.173800  1.0
  H  H671  1  0.978100  0.636200  0.923800  1.0
  H  H672  1  0.021900  0.363800  0.423800  1.0
  H  H673  1  0.642600  0.881200  0.811500  1.0
  H  H674  1  0.357400  0.118800  0.311500  1.0
  H  H675  1  0.618800  0.142600  0.561500  1.0
  H  H676  1  0.381200  0.857400  0.061500  1.0
  H  H677  1  0.857400  0.381200  0.938500  1.0
  H  H678  1  0.142600  0.618800  0.438500  1.0
  H  H679  1  0.881200  0.642600  0.188500  1.0
  H  H680  1  0.118800  0.357400  0.688500  1.0
  H  H681  1  0.611900  0.864500  0.874500  1.0
  H  H682  1  0.388100  0.135500  0.374500  1.0
  H  H683  1  0.635500  0.111900  0.624500  1.0
  H  H684  1  0.364500  0.888100  0.124500  1.0
  H  H685  1  0.888100  0.364500  0.875500  1.0
  H  H686  1  0.111900  0.635500  0.375500  1.0
  H  H687  1  0.864500  0.611900  0.125500  1.0
  H  H688  1  0.135500  0.388100  0.625500  1.0
  H  H689  1  0.597300  0.734000  0.840900  1.0
  H  H690  1  0.402700  0.266000  0.340900  1.0
  H  H691  1  0.766000  0.097300  0.590900  1.0
  H  H692  1  0.234000  0.902700  0.090900  1.0
  H  H693  1  0.902700  0.234000  0.909100  1.0
  H  H694  1  0.097300  0.766000  0.409100  1.0
  H  H695  1  0.734000  0.597300  0.159100  1.0
  H  H696  1  0.266000  0.402700  0.659100  1.0
  H  H697  1  0.632600  0.751700  0.780200  1.0
  H  H698  1  0.367400  0.248300  0.280200  1.0
  H  H699  1  0.748300  0.132600  0.530200  1.0
  H  H700  1  0.251700  0.867400  0.030200  1.0
  H  H701  1  0.867400  0.251700  0.969800  1.0
  H  H702  1  0.132600  0.748300  0.469800  1.0
  H  H703  1  0.751700  0.632600  0.219800  1.0
  H  H704  1  0.248300  0.367400  0.719800  1.0
  H  H705  1  0.735400  0.885200  0.783700  1.0
  H  H706  1  0.264600  0.114800  0.283700  1.0
  H  H707  1  0.614800  0.235400  0.533700  1.0
  H  H708  1  0.385200  0.764600  0.033700  1.0
  H  H709  1  0.764600  0.385200  0.966300  1.0
  H  H710  1  0.235400  0.614800  0.466300  1.0
  H  H711  1  0.885200  0.735400  0.216300  1.0
  H  H712  1  0.114800  0.264600  0.716300  1.0
  H  H713  1  0.797600  0.872100  0.824900  1.0
  H  H714  1  0.202400  0.127900  0.324900  1.0
  H  H715  1  0.627900  0.297600  0.574900  1.0
  H  H716  1  0.372100  0.702400  0.074900  1.0
  H  H717  1  0.702400  0.372100  0.925100  1.0
  H  H718  1  0.297600  0.627900  0.425100  1.0
  H  H719  1  0.872100  0.797600  0.175100  1.0
  H  H720  1  0.127900  0.202400  0.675100  1.0
  H  H721  1  0.793200  0.739600  0.794400  1.0
  H  H722  1  0.206800  0.260400  0.294400  1.0
  H  H723  1  0.760400  0.293200  0.544400  1.0
  H  H724  1  0.239600  0.706800  0.044400  1.0
  H  H725  1  0.706800  0.239600  0.955600  1.0
  H  H726  1  0.293200  0.760400  0.455600  1.0
  H  H727  1  0.739600  0.793200  0.205600  1.0
  H  H728  1  0.260400  0.206800  0.705600  1.0
  H  H729  1  0.733200  0.756700  0.753100  1.0
  H  H730  1  0.266800  0.243300  0.253100  1.0
  H  H731  1  0.743300  0.233200  0.503100  1.0
  H  H732  1  0.256700  0.766800  0.003100  1.0
  H  H733  1  0.766800  0.256700  0.996900  1.0
  H  H734  1  0.233200  0.743300  0.496900  1.0
  H  H735  1  0.756700  0.733200  0.246900  1.0
  H  H736  1  0.243300  0.266800  0.746900  1.0
  H  H737  1  0.963100  0.904200  0.064200  1.0
  H  H738  1  0.036900  0.095800  0.564200  1.0
  H  H739  1  0.595800  0.463100  0.814200  1.0
  H  H740  1  0.404200  0.536900  0.314200  1.0
  H  H741  1  0.536900  0.404200  0.685800  1.0
  H  H742  1  0.463100  0.595800  0.185800  1.0
  H  H743  1  0.904200  0.963100  0.935800  1.0
  H  H744  1  0.095800  0.036900  0.435800  1.0
  H  H745  1  0.908400  0.872500  0.107800  1.0
  H  H746  1  0.091600  0.127500  0.607800  1.0
  H  H747  1  0.627500  0.408400  0.857800  1.0
  H  H748  1  0.372500  0.591600  0.357800  1.0
  H  H749  1  0.591600  0.372500  0.642200  1.0
  H  H750  1  0.408400  0.627500  0.142200  1.0
  H  H751  1  0.872500  0.908400  0.892200  1.0
  H  H752  1  0.127500  0.091600  0.392200  1.0
  H  H753  1  0.818500  0.959600  0.060500  1.0
  H  H754  1  0.181500  0.040400  0.560500  1.0
  H  H755  1  0.540400  0.318500  0.810500  1.0
  H  H756  1  0.459600  0.681500  0.310500  1.0
  H  H757  1  0.681500  0.459600  0.689500  1.0
  H  H758  1  0.318500  0.540400  0.189500  1.0
  H  H759  1  0.959600  0.818500  0.939500  1.0
  H  H760  1  0.040400  0.181500  0.439500  1.0
  H  H761  1  0.874400  0.987200  0.019400  1.0
  H  H762  1  0.125600  0.012800  0.519400  1.0
  H  H763  1  0.512800  0.374400  0.769400  1.0
  H  H764  1  0.487200  0.625600  0.269400  1.0
  H  H765  1  0.625600  0.487200  0.730600  1.0
  H  H766  1  0.374400  0.512800  0.230600  1.0
  H  H767  1  0.987200  0.874400  0.980600  1.0
  H  H768  1  0.012800  0.125600  0.480600  1.0
  H  H769  1  0.553400  0.583700  0.926300  1.0
  H  H770  1  0.446600  0.416300  0.426300  1.0
  H  H771  1  0.916300  0.053400  0.676300  1.0
  H  H772  1  0.083700  0.946600  0.176300  1.0
  H  H773  1  0.946600  0.083700  0.823700  1.0
  H  H774  1  0.053400  0.916300  0.323700  1.0
  H  H775  1  0.583700  0.553400  0.073700  1.0
  H  H776  1  0.416300  0.446600  0.573700  1.0
  H  H777  1  0.565300  0.659800  0.906200  1.0
  H  H778  1  0.434700  0.340200  0.406200  1.0
  H  H779  1  0.840200  0.065300  0.656200  1.0
  H  H780  1  0.159800  0.934700  0.156200  1.0
  H  H781  1  0.934700  0.159800  0.843800  1.0
  H  H782  1  0.065300  0.840200  0.343800  1.0
  H  H783  1  0.659800  0.565300  0.093800  1.0
  H  H784  1  0.340200  0.434700  0.593800  1.0
  H  H785  1  0.531300  0.698400  0.019400  1.0
  H  H786  1  0.468700  0.301600  0.519400  1.0
  H  H787  1  0.801600  0.031300  0.769400  1.0
  H  H788  1  0.198400  0.968700  0.269400  1.0
  H  H789  1  0.968700  0.198400  0.730600  1.0
  H  H790  1  0.031300  0.801600  0.230600  1.0
  H  H791  1  0.698400  0.531300  0.980600  1.0
  H  H792  1  0.301600  0.468700  0.480600  1.0
  H  H793  1  0.524100  0.622700  0.037100  1.0
  H  H794  1  0.475900  0.377300  0.537100  1.0
  H  H795  1  0.877300  0.024100  0.787100  1.0
  H  H796  1  0.122700  0.975900  0.287100  1.0
  H  H797  1  0.975900  0.122700  0.712900  1.0
  H  H798  1  0.024100  0.877300  0.212900  1.0
  H  H799  1  0.622700  0.524100  0.962900  1.0
  H  H800  1  0.377300  0.475900  0.462900  1.0
  H  H801  1  0.565300  0.825200  0.753400  1.0
  H  H802  1  0.434700  0.174800  0.253400  1.0
  H  H803  1  0.674800  0.065300  0.503400  1.0
  H  H804  1  0.325200  0.934700  0.003400  1.0
  H  H805  1  0.934700  0.325200  0.996600  1.0
  H  H806  1  0.065300  0.674800  0.496600  1.0
  H  H807  1  0.825200  0.565300  0.246600  1.0
  H  H808  1  0.174800  0.434700  0.746600  1.0
  H  H809  1  0.497800  0.844900  0.718500  1.0
  H  H810  1  0.502200  0.155100  0.218500  1.0
  H  H811  1  0.655100  0.997800  0.468500  1.0
  H  H812  1  0.344900  0.002200  0.968500  1.0
  H  H813  1  0.002200  0.344900  0.031500  1.0
  H  H814  1  0.997800  0.655100  0.531500  1.0
  H  H815  1  0.844900  0.497800  0.281500  1.0
  H  H816  1  0.155100  0.502200  0.781500  1.0
  H  H817  1  0.503600  0.869400  0.650600  1.0
  H  H818  1  0.496400  0.130600  0.150600  1.0
  H  H819  1  0.630600  0.003600  0.400600  1.0
  H  H820  1  0.369400  0.996400  0.900600  1.0
  H  H821  1  0.996400  0.369400  0.099400  1.0
  H  H822  1  0.003600  0.630600  0.599400  1.0
  H  H823  1  0.869400  0.503600  0.349400  1.0
  H  H824  1  0.130600  0.496400  0.849400  1.0
  H  H825  1  0.575800  0.884800  0.623000  1.0
  H  H826  1  0.424200  0.115200  0.123000  1.0
  H  H827  1  0.615200  0.075800  0.373000  1.0
  H  H828  1  0.384800  0.924200  0.873000  1.0
  H  H829  1  0.924200  0.384800  0.127000  1.0
  H  H830  1  0.075800  0.615200  0.627000  1.0
  H  H831  1  0.884800  0.575800  0.377000  1.0
  H  H832  1  0.115200  0.424200  0.877000  1.0
  H  H833  1  0.642000  0.885100  0.598800  1.0
  H  H834  1  0.358000  0.114900  0.098800  1.0
  H  H835  1  0.614900  0.142000  0.348800  1.0
  H  H836  1  0.385100  0.858000  0.848800  1.0
  H  H837  1  0.858000  0.385100  0.151200  1.0
  H  H838  1  0.142000  0.614900  0.651200  1.0
  H  H839  1  0.885100  0.642000  0.401200  1.0
  H  H840  1  0.114900  0.358000  0.901200  1.0
  H  H841  1  0.716300  0.889300  0.578200  1.0
  H  H842  1  0.283700  0.110700  0.078200  1.0
  H  H843  1  0.610700  0.216300  0.328200  1.0
  H  H844  1  0.389300  0.783700  0.828200  1.0
  H  H845  1  0.783700  0.389300  0.171800  1.0
  H  H846  1  0.216300  0.610700  0.671800  1.0
  H  H847  1  0.889300  0.716300  0.421800  1.0
  H  H848  1  0.110700  0.283700  0.921800  1.0
  H  H849  1  0.774400  0.866400  0.622000  1.0
  H  H850  1  0.225600  0.133600  0.122000  1.0
  H  H851  1  0.633600  0.274400  0.372000  1.0
  H  H852  1  0.366400  0.725600  0.872000  1.0
  H  H853  1  0.725600  0.366400  0.128000  1.0
  H  H854  1  0.274400  0.633600  0.628000  1.0
  H  H855  1  0.866400  0.774400  0.378000  1.0
  H  H856  1  0.133600  0.225600  0.878000  1.0
  H  H857  1  0.755000  0.844200  0.688400  1.0
  H  H858  1  0.245000  0.155800  0.188400  1.0
  H  H859  1  0.655800  0.255000  0.438400  1.0
  H  H860  1  0.344200  0.745000  0.938400  1.0
  H  H861  1  0.745000  0.344200  0.061600  1.0
  H  H862  1  0.255000  0.655800  0.561600  1.0
  H  H863  1  0.844200  0.755000  0.311600  1.0
  H  H864  1  0.155800  0.245000  0.811600  1.0
  H  H865  1  0.447600  0.582400  0.968900  1.0
  H  H866  1  0.552400  0.417600  0.468900  1.0
  H  H867  1  0.917600  0.947600  0.718900  1.0
  H  H868  1  0.082400  0.052400  0.218900  1.0
  H  H869  1  0.052400  0.082400  0.781100  1.0
  H  H870  1  0.947600  0.917600  0.281100  1.0
  H  H871  1  0.582400  0.447600  0.031100  1.0
  H  H872  1  0.417600  0.552400  0.531100  1.0
  H  H873  1  0.371900  0.567200  0.950700  1.0
  H  H874  1  0.628100  0.432800  0.450700  1.0
  H  H875  1  0.932800  0.871900  0.700700  1.0
  H  H876  1  0.067200  0.128100  0.200700  1.0
  H  H877  1  0.128100  0.067200  0.799300  1.0
  H  H878  1  0.871900  0.932800  0.299300  1.0
  H  H879  1  0.567200  0.371900  0.049300  1.0
  H  H880  1  0.432800  0.628100  0.549300  1.0
  H  H881  1  0.346100  0.491100  0.963000  1.0
  H  H882  1  0.653900  0.508900  0.463000  1.0
  H  H883  1  0.008900  0.846100  0.713000  1.0
  H  H884  1  0.991100  0.153900  0.213000  1.0
  H  H885  1  0.153900  0.991100  0.787000  1.0
  H  H886  1  0.846100  0.008900  0.287000  1.0
  H  H887  1  0.491100  0.346100  0.037000  1.0
  H  H888  1  0.508900  0.653900  0.537000  1.0
  H  H889  1  0.391100  0.441700  0.996800  1.0
  H  H890  1  0.608900  0.558300  0.496800  1.0
  H  H891  1  0.058300  0.891100  0.746800  1.0
  H  H892  1  0.941700  0.108900  0.246800  1.0
  H  H893  1  0.108900  0.941700  0.753200  1.0
  H  H894  1  0.891100  0.058300  0.253200  1.0
  H  H895  1  0.441700  0.391100  0.003200  1.0
  H  H896  1  0.558300  0.608900  0.503200  1.0
  H  H897  1  0.025800  0.948000  0.922100  1.0
  H  H898  1  0.974200  0.052000  0.422100  1.0
  H  H899  1  0.552000  0.525800  0.672100  1.0
  H  H900  1  0.448000  0.474200  0.172100  1.0
  H  H901  1  0.474200  0.448000  0.827900  1.0
  H  H902  1  0.525800  0.552000  0.327900  1.0
  H  H903  1  0.948000  0.025800  0.077900  1.0
  H  H904  1  0.052000  0.974200  0.577900  1.0
  H  H905  1  0.094800  0.974100  0.891700  1.0
  H  H906  1  0.905200  0.025900  0.391700  1.0
  H  H907  1  0.525900  0.594800  0.641700  1.0
  H  H908  1  0.474100  0.405200  0.141700  1.0
  H  H909  1  0.405200  0.474100  0.858300  1.0
  H  H910  1  0.594800  0.525900  0.358300  1.0
  H  H911  1  0.974100  0.094800  0.108300  1.0
  H  H912  1  0.025900  0.905200  0.608300  1.0
  H  H913  1  0.140600  0.025100  0.928700  1.0
  H  H914  1  0.859400  0.974900  0.428700  1.0
  H  H915  1  0.474900  0.640600  0.678700  1.0
  H  H916  1  0.525100  0.359400  0.178700  1.0
  H  H917  1  0.359400  0.525100  0.821300  1.0
  H  H918  1  0.640600  0.474900  0.321300  1.0
  H  H919  1  0.025100  0.140600  0.071300  1.0
  H  H920  1  0.974900  0.859400  0.571300  1.0
  H  H921  1  0.132700  0.028300  0.000300  1.0
  H  H922  1  0.867300  0.971700  0.500300  1.0
  H  H923  1  0.471700  0.632700  0.750300  1.0
  H  H924  1  0.528300  0.367300  0.250300  1.0
  H  H925  1  0.367300  0.528300  0.749700  1.0
  H  H926  1  0.632700  0.471700  0.249700  1.0
  H  H927  1  0.028300  0.132700  0.999700  1.0
  H  H928  1  0.971700  0.867300  0.499700  1.0
  H  H929  1  0.109700  0.049400  0.056900  1.0
  H  H930  1  0.890300  0.950600  0.556900  1.0
  H  H931  1  0.450600  0.609700  0.806900  1.0
  H  H932  1  0.549400  0.390300  0.306900  1.0
  H  H933  1  0.390300  0.549400  0.693100  1.0
  H  H934  1  0.609700  0.450600  0.193100  1.0
  H  H935  1  0.049400  0.109700  0.943100  1.0
  H  H936  1  0.950600  0.890300  0.443100  1.0
  H  H937  1  0.086000  0.057400  0.123100  1.0
  H  H938  1  0.914000  0.942600  0.623100  1.0
  H  H939  1  0.442600  0.586000  0.873100  1.0
  H  H940  1  0.557400  0.414000  0.373100  1.0
  H  H941  1  0.414000  0.557400  0.626900  1.0
  H  H942  1  0.586000  0.442600  0.126900  1.0
  H  H943  1  0.057400  0.086000  0.876900  1.0
  H  H944  1  0.942600  0.914000  0.376900  1.0
  H  H945  1  0.017000  0.025200  0.143600  1.0
  H  H946  1  0.983000  0.974800  0.643600  1.0
  H  H947  1  0.474800  0.517000  0.893600  1.0
  H  H948  1  0.525200  0.483000  0.393600  1.0
  H  H949  1  0.483000  0.525200  0.606400  1.0
  H  H950  1  0.517000  0.474800  0.106400  1.0
  H  H951  1  0.025200  0.017000  0.856400  1.0
  H  H952  1  0.974800  0.983000  0.356400  1.0
  H  H953  1  0.001500  0.966000  0.907200  1.0
  H  H954  1  0.998500  0.034000  0.407200  1.0
  H  H955  1  0.534000  0.501500  0.657200  1.0
  H  H956  1  0.466000  0.498500  0.157200  1.0
  H  H957  1  0.498500  0.466000  0.842800  1.0
  H  H958  1  0.501500  0.534000  0.342800  1.0
  H  H959  1  0.966000  0.001500  0.092800  1.0
  H  H960  1  0.034000  0.998500  0.592800  1.0
  H  H961  1  0.462000  0.941300  0.051000  1.0
  H  H962  1  0.538000  0.058700  0.551000  1.0
  H  H963  1  0.558700  0.962000  0.801000  1.0
  H  H964  1  0.441300  0.038000  0.301000  1.0
  H  H965  1  0.038000  0.441300  0.699000  1.0
  H  H966  1  0.962000  0.558700  0.199000  1.0
  H  H967  1  0.941300  0.462000  0.949000  1.0
  H  H968  1  0.058700  0.538000  0.449000  1.0
  H  H969  1  0.386300  0.965000  0.051600  1.0
  H  H970  1  0.613700  0.035000  0.551600  1.0
  H  H971  1  0.535000  0.886300  0.801600  1.0
  H  H972  1  0.465000  0.113700  0.301600  1.0
  H  H973  1  0.113700  0.465000  0.698400  1.0
  H  H974  1  0.886300  0.535000  0.198400  1.0
  H  H975  1  0.965000  0.386300  0.948400  1.0
  H  H976  1  0.035000  0.613700  0.448400  1.0
  H  H977  1  0.358300  0.002500  0.109100  1.0
  H  H978  1  0.641700  0.997500  0.609100  1.0
  H  H979  1  0.497500  0.858300  0.859100  1.0
  H  H980  1  0.502500  0.141700  0.359100  1.0
  H  H981  1  0.141700  0.502500  0.640900  1.0
  H  H982  1  0.858300  0.497500  0.140900  1.0
  H  H983  1  0.002500  0.358300  0.890900  1.0
  H  H984  1  0.997500  0.641700  0.390900  1.0
  H  H985  1  0.408100  0.020900  0.162200  1.0
  H  H986  1  0.591900  0.979100  0.662200  1.0
  H  H987  1  0.479100  0.908100  0.912200  1.0
  H  H988  1  0.520900  0.091900  0.412200  1.0
  H  H989  1  0.091900  0.520900  0.587800  1.0
  H  H990  1  0.908100  0.479100  0.087800  1.0
  H  H991  1  0.020900  0.408100  0.837800  1.0
  H  H992  1  0.979100  0.591900  0.337800  1.0
  H  H993  1  0.460500  0.042600  0.204600  1.0
  H  H994  1  0.539500  0.957400  0.704600  1.0
  H  H995  1  0.457400  0.960500  0.954600  1.0
  H  H996  1  0.542600  0.039500  0.454600  1.0
  H  H997  1  0.039500  0.542600  0.545400  1.0
  H  H998  1  0.960500  0.457400  0.045400  1.0
  H  H999  1  0.042600  0.460500  0.795400  1.0
  H  H1000  1  0.957400  0.539500  0.295400  1.0
  H  H1001  1  0.518700  0.052900  0.251000  1.0
  H  H1002  1  0.481300  0.947100  0.751000  1.0
  H  H1003  1  0.447100  0.018700  0.001000  1.0
  H  H1004  1  0.552900  0.981300  0.501000  1.0
  H  H1005  1  0.981300  0.552900  0.499000  1.0
  H  H1006  1  0.018700  0.447100  0.999000  1.0
  H  H1007  1  0.052900  0.518700  0.749000  1.0
  H  H1008  1  0.947100  0.481300  0.249000  1.0
  H  H1009  1  0.593000  0.042500  0.228100  1.0
  H  H1010  1  0.407000  0.957500  0.728100  1.0
  H  H1011  1  0.457500  0.093000  0.978100  1.0
  H  H1012  1  0.542500  0.907000  0.478100  1.0
  H  H1013  1  0.907000  0.542500  0.521900  1.0
  H  H1014  1  0.093000  0.457500  0.021900  1.0
  H  H1015  1  0.042500  0.593000  0.771900  1.0
  H  H1016  1  0.957500  0.407000  0.271900  1.0
  H  H1017  1  0.604200  0.995100  0.172600  1.0
  H  H1018  1  0.395800  0.004900  0.672600  1.0
  H  H1019  1  0.504900  0.104200  0.922600  1.0
  H  H1020  1  0.495100  0.895800  0.422600  1.0
  H  H1021  1  0.895800  0.495100  0.577400  1.0
  H  H1022  1  0.104200  0.504900  0.077400  1.0
  H  H1023  1  0.995100  0.604200  0.827400  1.0
  H  H1024  1  0.004900  0.395800  0.327400  1.0
  Pd  Pd1025  1  0.531310  0.531310  0.000000  1
  Pd  Pd1026  1  0.468690  0.468690  0.500000  1
  Pd  Pd1027  1  0.968690  0.031310  0.750000  1
  Pd  Pd1028  1  0.031310  0.968690  0.250000  1
  Pd  Pd1029  1  0.668850  0.832600  0.736530  1.0
  Pd  Pd1030  1  0.331150  0.167400  0.236530  1.0
  Pd  Pd1031  1  0.667400  0.168850  0.486530  1.0
  Pd  Pd1032  1  0.332600  0.831150  0.986530  1.0
  Pd  Pd1033  1  0.831150  0.332600  0.013470  1.0
  Pd  Pd1034  1  0.168850  0.667400  0.513470  1.0
  Pd  Pd1035  1  0.832600  0.668850  0.263470  1.0
  Pd  Pd1036  1  0.167400  0.331150  0.763470  1.0
  Pd  Pd1037  1  0.544570  0.952140  0.106435  1.0
  Pd  Pd1038  1  0.455430  0.047860  0.606435  1.0
  Pd  Pd1039  1  0.547860  0.044570  0.856435  1.0
  Pd  Pd1040  1  0.452140  0.955430  0.356435  1.0
  Pd  Pd1041  1  0.955430  0.452140  0.643565  1.0
  Pd  Pd1042  1  0.044570  0.547860  0.143565  1.0
  Pd  Pd1043  1  0.952140  0.544570  0.893565  1.0
  Pd  Pd1044  1  0.047860  0.455430  0.393565  1.0
  Pd  Pd1045  1  0.983260  0.960330  0.007180  1.0
  Pd  Pd1046  1  0.016740  0.039670  0.507180  1.0
  Pd  Pd1047  1  0.539670  0.483260  0.757180  1.0
  Pd  Pd1048  1  0.460330  0.516740  0.257180  1.0
  Pd  Pd1049  1  0.516740  0.460330  0.742820  1.0
  Pd  Pd1050  1  0.483260  0.539670  0.242820  1.0
  Pd  Pd1051  1  0.960330  0.983260  0.992820  1.0
  Pd  Pd1052  1  0.039670  0.016740  0.492820  1.0
  C  C1053  1  0.628300  0.203000  0.745900  1
  C  C1054  1  0.371700  0.797000  0.245900  1
  C  C1055  1  0.297000  0.128300  0.495900  1
  C  C1056  1  0.703000  0.871700  0.995900  1
  C  C1057  1  0.871700  0.703000  0.004100  1
  C  C1058  1  0.128300  0.297000  0.504100  1
  C  C1059  1  0.203000  0.628300  0.254100  1
  C  C1060  1  0.797000  0.371700  0.754100  1
  C  C1061  1  0.634600  0.249900  0.763000  1
  C  C1062  1  0.365400  0.750100  0.263000  1
  C  C1063  1  0.250100  0.134600  0.513000  1
  C  C1064  1  0.749900  0.865400  0.013000  1
  C  C1065  1  0.865400  0.749900  0.987000  1
  C  C1066  1  0.134600  0.250100  0.487000  1
  C  C1067  1  0.249900  0.634600  0.237000  1
  C  C1068  1  0.750100  0.365400  0.737000  1
  C  C1069  1  0.663100  0.194000  0.719200  1
  C  C1070  1  0.336900  0.806000  0.219200  1
  C  C1071  1  0.306000  0.163100  0.469200  1
  C  C1072  1  0.694000  0.836900  0.969200  1
  C  C1073  1  0.836900  0.694000  0.030800  1
  C  C1074  1  0.163100  0.306000  0.530800  1
  C  C1075  1  0.194000  0.663100  0.280800  1
  C  C1076  1  0.806000  0.336900  0.780800  1
  C  C1077  1  0.585300  0.197300  0.727300  1
  C  C1078  1  0.414700  0.802700  0.227300  1
  C  C1079  1  0.302700  0.085300  0.477300  1
  C  C1080  1  0.697300  0.914700  0.977300  1
  C  C1081  1  0.914700  0.697300  0.022700  1
  C  C1082  1  0.085300  0.302700  0.522700  1
  C  C1083  1  0.197300  0.585300  0.272700  1
  C  C1084  1  0.802700  0.414700  0.772700  1
  C  C1085  1  0.573000  0.229200  0.692100  1
  C  C1086  1  0.427000  0.770800  0.192100  1
  C  C1087  1  0.270800  0.073000  0.442100  1
  C  C1088  1  0.729200  0.927000  0.942100  1
  C  C1089  1  0.927000  0.729200  0.057900  1
  C  C1090  1  0.073000  0.270800  0.557900  1
  C  C1091  1  0.229200  0.573000  0.307900  1
  C  C1092  1  0.770800  0.427000  0.807900  1
  C  C1093  1  0.577800  0.275100  0.717800  1
  C  C1094  1  0.422200  0.724900  0.217800  1
  C  C1095  1  0.224900  0.077800  0.467800  1
  C  C1096  1  0.775100  0.922200  0.967800  1
  C  C1097  1  0.922200  0.775100  0.032200  1
  C  C1098  1  0.077800  0.224900  0.532200  1
  C  C1099  1  0.275100  0.577800  0.282200  1
  C  C1100  1  0.724900  0.422200  0.782200  1
  C  C1101  1  0.624500  0.285600  0.727000  1
  C  C1102  1  0.375500  0.714400  0.227000  1
  C  C1103  1  0.214400  0.124500  0.477000  1
  C  C1104  1  0.785600  0.875500  0.977000  1
  C  C1105  1  0.875500  0.785600  0.023000  1
  C  C1106  1  0.124500  0.214400  0.523000  1
  C  C1107  1  0.285600  0.624500  0.273000  1
  C  C1108  1  0.714400  0.375500  0.773000  1
  C  C1109  1  0.664600  0.281200  0.696800  1
  C  C1110  1  0.335400  0.718800  0.196800  1
  C  C1111  1  0.218800  0.164600  0.446800  1
  C  C1112  1  0.781200  0.835400  0.946800  1
  C  C1113  1  0.835400  0.781200  0.053200  1
  C  C1114  1  0.164600  0.218800  0.553200  1
  C  C1115  1  0.281200  0.664600  0.303200  1
  C  C1116  1  0.718800  0.335400  0.803200  1
  C  C1117  1  0.660300  0.232300  0.677600  1
  C  C1118  1  0.339700  0.767700  0.177600  1
  C  C1119  1  0.267700  0.160300  0.427600  1
  C  C1120  1  0.732300  0.839700  0.927600  1
  C  C1121  1  0.839700  0.732300  0.072400  1
  C  C1122  1  0.160300  0.267700  0.572400  1
  C  C1123  1  0.232300  0.660300  0.322400  1
  C  C1124  1  0.767700  0.339700  0.822400  1
  C  C1125  1  0.613700  0.227100  0.663100  1
  C  C1126  1  0.386300  0.772900  0.163100  1
  C  C1127  1  0.272900  0.113700  0.413100  1
  C  C1128  1  0.727100  0.886300  0.913100  1
  C  C1129  1  0.886300  0.727100  0.086900  1
  C  C1130  1  0.113700  0.272900  0.586900  1
  C  C1131  1  0.227100  0.613700  0.336900  1
  C  C1132  1  0.772900  0.386300  0.836900  1
  C  C1133  1  0.782000  0.128100  0.881900  1
  C  C1134  1  0.218000  0.871900  0.381900  1
  C  C1135  1  0.371900  0.282000  0.631900  1
  C  C1136  1  0.628100  0.718000  0.131900  1
  C  C1137  1  0.718000  0.628100  0.868100  1
  C  C1138  1  0.282000  0.371900  0.368100  1
  C  C1139  1  0.128100  0.782000  0.118100  1
  C  C1140  1  0.871900  0.218000  0.618100  1
  C  C1141  1  0.790100  0.175500  0.895300  1
  C  C1142  1  0.209900  0.824500  0.395300  1
  C  C1143  1  0.324500  0.290100  0.645300  1
  C  C1144  1  0.675500  0.709900  0.145300  1
  C  C1145  1  0.709900  0.675500  0.854700  1
  C  C1146  1  0.290100  0.324500  0.354700  1
  C  C1147  1  0.175500  0.790100  0.104700  1
  C  C1148  1  0.824500  0.209900  0.604700  1
  C  C1149  1  0.736600  0.117700  0.867500  1
  C  C1150  1  0.263400  0.882300  0.367500  1
  C  C1151  1  0.382300  0.236600  0.617500  1
  C  C1152  1  0.617700  0.763400  0.117500  1
  C  C1153  1  0.763400  0.617700  0.882500  1
  C  C1154  1  0.236600  0.382300  0.382500  1
  C  C1155  1  0.117700  0.736600  0.132500  1
  C  C1156  1  0.882300  0.263400  0.632500  1
  C  C1157  1  0.820200  0.117100  0.849500  1
  C  C1158  1  0.179800  0.882900  0.349500  1
  C  C1159  1  0.382900  0.320200  0.599500  1
  C  C1160  1  0.617100  0.679800  0.099500  1
  C  C1161  1  0.679800  0.617100  0.900500  1
  C  C1162  1  0.320200  0.382900  0.400500  1
  C  C1163  1  0.117100  0.820200  0.150500  1
  C  C1164  1  0.882900  0.179800  0.650500  1
  C  C1165  1  0.809100  0.152400  0.813300  1
  C  C1166  1  0.190900  0.847600  0.313300  1
  C  C1167  1  0.347600  0.309100  0.563300  1
  C  C1168  1  0.652400  0.690900  0.063300  1
  C  C1169  1  0.690900  0.652400  0.936700  1
  C  C1170  1  0.309100  0.347600  0.436700  1
  C  C1171  1  0.152400  0.809100  0.186700  1
  C  C1172  1  0.847600  0.190900  0.686700  1
  C  C1173  1  0.813200  0.200000  0.826500  1
  C  C1174  1  0.186800  0.800000  0.326500  1
  C  C1175  1  0.300000  0.313200  0.576500  1
  C  C1176  1  0.700000  0.686800  0.076500  1
  C  C1177  1  0.686800  0.700000  0.923500  1
  C  C1178  1  0.313200  0.300000  0.423500  1
  C  C1179  1  0.200000  0.813200  0.173500  1
  C  C1180  1  0.800000  0.186800  0.673500  1
  C  C1181  1  0.780600  0.212100  0.859900  1
  C  C1182  1  0.219400  0.787900  0.359900  1
  C  C1183  1  0.287900  0.280600  0.609900  1
  C  C1184  1  0.712100  0.719400  0.109900  1
  C  C1185  1  0.719400  0.712100  0.890100  1
  C  C1186  1  0.280600  0.287900  0.390100  1
  C  C1187  1  0.212100  0.780600  0.140100  1
  C  C1188  1  0.787900  0.219400  0.640100  1
  C  C1189  1  0.730500  0.200700  0.844200  1
  C  C1190  1  0.269500  0.799300  0.344200  1
  C  C1191  1  0.299300  0.230500  0.594200  1
  C  C1192  1  0.700700  0.769500  0.094200  1
  C  C1193  1  0.769500  0.700700  0.905800  1
  C  C1194  1  0.230500  0.299300  0.405800  1
  C  C1195  1  0.200700  0.730500  0.155800  1
  C  C1196  1  0.799300  0.269500  0.655800  1
  C  C1197  1  0.725300  0.154000  0.829900  1
  C  C1198  1  0.274700  0.846000  0.329900  1
  C  C1199  1  0.346000  0.225300  0.579900  1
  C  C1200  1  0.654000  0.774700  0.079900  1
  C  C1201  1  0.774700  0.654000  0.920100  1
  C  C1202  1  0.225300  0.346000  0.420100  1
  C  C1203  1  0.154000  0.725300  0.170100  1
  C  C1204  1  0.846000  0.274700  0.670100  1
  C  C1205  1  0.762800  0.141300  0.798400  1
  C  C1206  1  0.237200  0.858700  0.298400  1
  C  C1207  1  0.358700  0.262800  0.548400  1
  C  C1208  1  0.641300  0.737200  0.048400  1
  C  C1209  1  0.737200  0.641300  0.951600  1
  C  C1210  1  0.262800  0.358700  0.451600  1
  C  C1211  1  0.141300  0.762800  0.201600  1
  C  C1212  1  0.858700  0.237200  0.701600  1
  C  C1213  1  0.575000  0.841500  0.717300  1
  C  C1214  1  0.425000  0.158500  0.217300  1
  C  C1215  1  0.658500  0.075000  0.467300  1
  C  C1216  1  0.341500  0.925000  0.967300  1
  C  C1217  1  0.925000  0.341500  0.032700  1
  C  C1218  1  0.075000  0.658500  0.532700  1
  C  C1219  1  0.841500  0.575000  0.282700  1
  C  C1220  1  0.158500  0.425000  0.782700  1
  C  C1221  1  0.538700  0.857700  0.693300  1
  C  C1222  1  0.461300  0.142300  0.193300  1
  C  C1223  1  0.642300  0.038700  0.443300  1
  C  C1224  1  0.357700  0.961300  0.943300  1
  C  C1225  1  0.961300  0.357700  0.056700  1
  C  C1226  1  0.038700  0.642300  0.556700  1
  C  C1227  1  0.857700  0.538700  0.306700  1
  C  C1228  1  0.142300  0.461300  0.806700  1
  C  C1229  1  0.547600  0.871700  0.653500  1
  C  C1230  1  0.452400  0.128300  0.153500  1
  C  C1231  1  0.628300  0.047600  0.403500  1
  C  C1232  1  0.371700  0.952400  0.903500  1
  C  C1233  1  0.952400  0.371700  0.096500  1
  C  C1234  1  0.047600  0.628300  0.596500  1
  C  C1235  1  0.871700  0.547600  0.346500  1
  C  C1236  1  0.128300  0.452400  0.846500  1
  C  C1237  1  0.591800  0.872400  0.639400  1
  C  C1238  1  0.408200  0.127600  0.139400  1
  C  C1239  1  0.627600  0.091800  0.389400  1
  C  C1240  1  0.372400  0.908200  0.889400  1
  C  C1241  1  0.908200  0.372400  0.110600  1
  C  C1242  1  0.091800  0.627600  0.610600  1
  C  C1243  1  0.872400  0.591800  0.360600  1
  C  C1244  1  0.127600  0.408200  0.860600  1
  C  C1245  1  0.626100  0.860400  0.666000  1
  C  C1246  1  0.373900  0.139600  0.166000  1
  C  C1247  1  0.639600  0.126100  0.416000  1
  C  C1248  1  0.360400  0.873900  0.916000  1
  C  C1249  1  0.873900  0.360400  0.084000  1
  C  C1250  1  0.126100  0.639600  0.584000  1
  C  C1251  1  0.860400  0.626100  0.334000  1
  C  C1252  1  0.139600  0.373900  0.834000  1
  C  C1253  1  0.672300  0.863400  0.654900  1
  C  C1254  1  0.327700  0.136600  0.154900  1
  C  C1255  1  0.636600  0.172300  0.404900  1
  C  C1256  1  0.363400  0.827700  0.904900  1
  C  C1257  1  0.827700  0.363400  0.095100  1
  C  C1258  1  0.172300  0.636600  0.595100  1
  C  C1259  1  0.863400  0.672300  0.345100  1
  C  C1260  1  0.136600  0.327700  0.845100  1
  C  C1261  1  0.687400  0.874300  0.616500  1
  C  C1262  1  0.312600  0.125700  0.116500  1
  C  C1263  1  0.625700  0.187400  0.366500  1
  C  C1264  1  0.374300  0.812600  0.866500  1
  C  C1265  1  0.812600  0.374300  0.133500  1
  C  C1266  1  0.187400  0.625700  0.633500  1
  C  C1267  1  0.874300  0.687400  0.383500  1
  C  C1268  1  0.125700  0.312600  0.883500  1
  C  C1269  1  0.732700  0.873600  0.609100  1
  C  C1270  1  0.267300  0.126400  0.109100  1
  C  C1271  1  0.626400  0.232700  0.359100  1
  C  C1272  1  0.373600  0.767300  0.859100  1
  C  C1273  1  0.767300  0.373600  0.140900  1
  C  C1274  1  0.232700  0.626400  0.640900  1
  C  C1275  1  0.873600  0.732700  0.390900  1
  C  C1276  1  0.126400  0.267300  0.890900  1
  C  C1277  1  0.762700  0.855100  0.637100  1
  C  C1278  1  0.237300  0.144900  0.137100  1
  C  C1279  1  0.644900  0.262700  0.387100  1
  C  C1280  1  0.355100  0.737300  0.887100  1
  C  C1281  1  0.737300  0.355100  0.112900  1
  C  C1282  1  0.262700  0.644900  0.612900  1
  C  C1283  1  0.855100  0.762700  0.362900  1
  C  C1284  1  0.144900  0.237300  0.862900  1
  C  C1285  1  0.745700  0.845900  0.676100  1
  C  C1286  1  0.254300  0.154100  0.176100  1
  C  C1287  1  0.654100  0.245700  0.426100  1
  C  C1288  1  0.345900  0.754300  0.926100  1
  C  C1289  1  0.754300  0.345900  0.073900  1
  C  C1290  1  0.245700  0.654100  0.573900  1
  C  C1291  1  0.845900  0.745700  0.323900  1
  C  C1292  1  0.154100  0.254300  0.823900  1
  C  C1293  1  0.442100  0.558500  0.959700  1
  C  C1294  1  0.557900  0.441500  0.459700  1
  C  C1295  1  0.941500  0.942100  0.709700  1
  C  C1296  1  0.058500  0.057900  0.209700  1
  C  C1297  1  0.057900  0.058500  0.790300  1
  C  C1298  1  0.942100  0.941500  0.290300  1
  C  C1299  1  0.558500  0.442100  0.040300  1
  C  C1300  1  0.441500  0.557900  0.540300  1
  C  C1301  1  0.398600  0.552500  0.943000  1
  C  C1302  1  0.601400  0.447500  0.443000  1
  C  C1303  1  0.947500  0.898600  0.693000  1
  C  C1304  1  0.052500  0.101400  0.193000  1
  C  C1305  1  0.101400  0.052500  0.807000  1
  C  C1306  1  0.898600  0.947500  0.307000  1
  C  C1307  1  0.552500  0.398600  0.057000  1
  C  C1308  1  0.447500  0.601400  0.557000  1
  C  C1309  1  0.379800  0.509200  0.950600  1
  C  C1310  1  0.620200  0.490800  0.450600  1
  C  C1311  1  0.990800  0.879800  0.700600  1
  C  C1312  1  0.009200  0.120200  0.200600  1
  C  C1313  1  0.120200  0.009200  0.799400  1
  C  C1314  1  0.879800  0.990800  0.299400  1
  C  C1315  1  0.509200  0.379800  0.049400  1
  C  C1316  1  0.490800  0.620200  0.549400  1
  C  C1317  1  0.405800  0.475900  0.965500  1
  C  C1318  1  0.594200  0.524100  0.465500  1
  C  C1319  1  0.024100  0.905800  0.715500  1
  C  C1320  1  0.975900  0.094200  0.215500  1
  C  C1321  1  0.094200  0.975900  0.784500  1
  C  C1322  1  0.905800  0.024100  0.284500  1
  C  C1323  1  0.475900  0.405800  0.034500  1
  C  C1324  1  0.524100  0.594200  0.534500  1
  C  C1325  1  0.451300  0.483400  0.981100  1
  C  C1326  1  0.548700  0.516600  0.481100  1
  C  C1327  1  0.016600  0.951300  0.731100  1
  C  C1328  1  0.983400  0.048700  0.231100  1
  C  C1329  1  0.048700  0.983400  0.768900  1
  C  C1330  1  0.951300  0.016600  0.268900  1
  C  C1331  1  0.483400  0.451300  0.018900  1
  C  C1332  1  0.516600  0.548700  0.518900  1
  C  C1333  1  0.612900  0.265900  0.677700  1
  C  C1334  1  0.387100  0.734100  0.177700  1
  C  C1335  1  0.234100  0.112900  0.427700  1
  C  C1336  1  0.765900  0.887100  0.927700  1
  C  C1337  1  0.887100  0.765900  0.072300  1
  C  C1338  1  0.112900  0.234100  0.572300  1
  C  C1339  1  0.265900  0.612900  0.322300  1
  C  C1340  1  0.734100  0.387100  0.822300  1
  C  C1341  1  0.603300  0.218700  0.663600  1
  C  C1342  1  0.396700  0.781300  0.163600  1
  C  C1343  1  0.281300  0.103300  0.413600  1
  C  C1344  1  0.718700  0.896700  0.913600  1
  C  C1345  1  0.896700  0.718700  0.086400  1
  C  C1346  1  0.103300  0.281300  0.586400  1
  C  C1347  1  0.218700  0.603300  0.336400  1
  C  C1348  1  0.781300  0.396700  0.836400  1
  C  C1349  1  0.580700  0.277300  0.706500  1
  C  C1350  1  0.419300  0.722700  0.206500  1
  C  C1351  1  0.222700  0.080700  0.456500  1
  C  C1352  1  0.777300  0.919300  0.956500  1
  C  C1353  1  0.919300  0.777300  0.043500  1
  C  C1354  1  0.080700  0.222700  0.543500  1
  C  C1355  1  0.277300  0.580700  0.293500  1
  C  C1356  1  0.722700  0.419300  0.793500  1
  C  C1357  1  0.657700  0.272300  0.692300  1
  C  C1358  1  0.342300  0.727700  0.192300  1
  C  C1359  1  0.227700  0.157700  0.442300  1
  C  C1360  1  0.772300  0.842300  0.942300  1
  C  C1361  1  0.842300  0.772300  0.057700  1
  C  C1362  1  0.157700  0.227700  0.557700  1
  C  C1363  1  0.272300  0.657700  0.307700  1
  C  C1364  1  0.727700  0.342300  0.807700  1
  C  C1365  1  0.674100  0.242500  0.728300  1
  C  C1366  1  0.325900  0.757500  0.228300  1
  C  C1367  1  0.257500  0.174100  0.478300  1
  C  C1368  1  0.742500  0.825900  0.978300  1
  C  C1369  1  0.825900  0.742500  0.021700  1
  C  C1370  1  0.174100  0.257500  0.521700  1
  C  C1371  1  0.242500  0.674100  0.271700  1
  C  C1372  1  0.757500  0.325900  0.771700  1
  C  C1373  1  0.664800  0.195900  0.705300  1
  C  C1374  1  0.335200  0.804100  0.205300  1
  C  C1375  1  0.304100  0.164800  0.455300  1
  C  C1376  1  0.695900  0.835200  0.955300  1
  C  C1377  1  0.835200  0.695900  0.044700  1
  C  C1378  1  0.164800  0.304100  0.544700  1
  C  C1379  1  0.195900  0.664800  0.294700  1
  C  C1380  1  0.804100  0.335200  0.794700  1
  C  C1381  1  0.617600  0.185300  0.699800  1
  C  C1382  1  0.382400  0.814700  0.199800  1
  C  C1383  1  0.314700  0.117600  0.449800  1
  C  C1384  1  0.685300  0.882400  0.949800  1
  C  C1385  1  0.882400  0.685300  0.050200  1
  C  C1386  1  0.117600  0.314700  0.550200  1
  C  C1387  1  0.185300  0.617600  0.300200  1
  C  C1388  1  0.814700  0.382400  0.800200  1
  C  C1389  1  0.582600  0.193000  0.734700  1
  C  C1390  1  0.417400  0.807000  0.234700  1
  C  C1391  1  0.307000  0.082600  0.484700  1
  C  C1392  1  0.693000  0.917400  0.984700  1
  C  C1393  1  0.917400  0.693000  0.015300  1
  C  C1394  1  0.082600  0.307000  0.515300  1
  C  C1395  1  0.193000  0.582600  0.265300  1
  C  C1396  1  0.807000  0.417400  0.765300  1
  C  C1397  1  0.589900  0.243400  0.750700  1
  C  C1398  1  0.410100  0.756600  0.250700  1
  C  C1399  1  0.256600  0.089900  0.500700  1
  C  C1400  1  0.743400  0.910100  0.000700  1
  C  C1401  1  0.910100  0.743400  0.999300  1
  C  C1402  1  0.089900  0.256600  0.499300  1
  C  C1403  1  0.243400  0.589900  0.249300  1
  C  C1404  1  0.756600  0.410100  0.749300  1
  C  C1405  1  0.637400  0.251400  0.760200  1
  C  C1406  1  0.362600  0.748600  0.260200  1
  C  C1407  1  0.248600  0.137400  0.510200  1
  C  C1408  1  0.751400  0.862600  0.010200  1
  C  C1409  1  0.862600  0.751400  0.989800  1
  C  C1410  1  0.137400  0.248600  0.489800  1
  C  C1411  1  0.251400  0.637400  0.239800  1
  C  C1412  1  0.748600  0.362600  0.739800  1
  C  C1413  1  0.766800  0.198000  0.805400  1
  C  C1414  1  0.233200  0.802000  0.305400  1
  C  C1415  1  0.302000  0.266800  0.555400  1
  C  C1416  1  0.698000  0.733200  0.055400  1
  C  C1417  1  0.733200  0.698000  0.944600  1
  C  C1418  1  0.266800  0.302000  0.444600  1
  C  C1419  1  0.198000  0.766800  0.194600  1
  C  C1420  1  0.802000  0.233200  0.694600  1
  C  C1421  1  0.757500  0.151200  0.790600  1
  C  C1422  1  0.242500  0.848800  0.290600  1
  C  C1423  1  0.348800  0.257500  0.540600  1
  C  C1424  1  0.651200  0.742500  0.040600  1
  C  C1425  1  0.742500  0.651200  0.959400  1
  C  C1426  1  0.257500  0.348800  0.459400  1
  C  C1427  1  0.151200  0.757500  0.209400  1
  C  C1428  1  0.848800  0.242500  0.709400  1
  C  C1429  1  0.813100  0.207000  0.818500  1
  C  C1430  1  0.186900  0.793000  0.318500  1
  C  C1431  1  0.293000  0.313100  0.568500  1
  C  C1432  1  0.707000  0.686900  0.068500  1
  C  C1433  1  0.686900  0.707000  0.931500  1
  C  C1434  1  0.313100  0.293000  0.431500  1
  C  C1435  1  0.207000  0.813100  0.181500  1
  C  C1436  1  0.793000  0.186900  0.681500  1
  C  C1437  1  0.731300  0.211800  0.839200  1
  C  C1438  1  0.268700  0.788200  0.339200  1
  C  C1439  1  0.288200  0.231300  0.589200  1
  C  C1440  1  0.711800  0.768700  0.089200  1
  C  C1441  1  0.768700  0.711800  0.910800  1
  C  C1442  1  0.231300  0.288200  0.410800  1
  C  C1443  1  0.211800  0.731300  0.160800  1
  C  C1444  1  0.788200  0.268700  0.660800  1
  C  C1445  1  0.740900  0.176400  0.876100  1
  C  C1446  1  0.259100  0.823600  0.376100  1
  C  C1447  1  0.323600  0.240900  0.626100  1
  C  C1448  1  0.676400  0.759100  0.126100  1
  C  C1449  1  0.759100  0.676400  0.873900  1
  C  C1450  1  0.240900  0.323600  0.373900  1
  C  C1451  1  0.176400  0.740900  0.123900  1
  C  C1452  1  0.823600  0.259100  0.623900  1
  C  C1453  1  0.734000  0.129600  0.860900  1
  C  C1454  1  0.266000  0.870400  0.360900  1
  C  C1455  1  0.370400  0.234000  0.610900  1
  C  C1456  1  0.629600  0.766000  0.110900  1
  C  C1457  1  0.766000  0.629600  0.889100  1
  C  C1458  1  0.234000  0.370400  0.389100  1
  C  C1459  1  0.129600  0.734000  0.139100  1
  C  C1460  1  0.870400  0.266000  0.639100  1
  C  C1461  1  0.765200  0.115500  0.827300  1
  C  C1462  1  0.234800  0.884500  0.327300  1
  C  C1463  1  0.384500  0.265200  0.577300  1
  C  C1464  1  0.615500  0.734800  0.077300  1
  C  C1465  1  0.734800  0.615500  0.922700  1
  C  C1466  1  0.265200  0.384500  0.422700  1
  C  C1467  1  0.115500  0.765200  0.172700  1
  C  C1468  1  0.884500  0.234800  0.672700  1
  C  C1469  1  0.816300  0.124600  0.842200  1
  C  C1470  1  0.183700  0.875400  0.342200  1
  C  C1471  1  0.375400  0.316300  0.592200  1
  C  C1472  1  0.624600  0.683700  0.092200  1
  C  C1473  1  0.683700  0.624600  0.907800  1
  C  C1474  1  0.316300  0.375400  0.407800  1
  C  C1475  1  0.124600  0.816300  0.157800  1
  C  C1476  1  0.875400  0.183700  0.657800  1
  C  C1477  1  0.824100  0.171100  0.856500  1
  C  C1478  1  0.175900  0.828900  0.356500  1
  C  C1479  1  0.328900  0.324100  0.606500  1
  C  C1480  1  0.671100  0.675900  0.106500  1
  C  C1481  1  0.675900  0.671100  0.893500  1
  C  C1482  1  0.324100  0.328900  0.393500  1
  C  C1483  1  0.171100  0.824100  0.143500  1
  C  C1484  1  0.828900  0.175900  0.643500  1
  C  C1485  1  0.788300  0.184900  0.888500  1
  C  C1486  1  0.211700  0.815100  0.388500  1
  C  C1487  1  0.315100  0.288300  0.638500  1
  C  C1488  1  0.684900  0.711700  0.138500  1
  C  C1489  1  0.711700  0.684900  0.861500  1
  C  C1490  1  0.288300  0.315100  0.361500  1
  C  C1491  1  0.184900  0.788300  0.111500  1
  C  C1492  1  0.815100  0.211700  0.611500  1
  C  C1493  1  0.538600  0.865600  0.066400  1.0
  C  C1494  1  0.461400  0.134400  0.566400  1.0
  C  C1495  1  0.634400  0.038600  0.816400  1.0
  C  C1496  1  0.365600  0.961400  0.316400  1.0
  C  C1497  1  0.961400  0.365600  0.683600  1.0
  C  C1498  1  0.038600  0.634400  0.183600  1.0
  C  C1499  1  0.865600  0.538600  0.933600  1.0
  C  C1500  1  0.134400  0.461400  0.433600  1.0
  C  C1501  1  0.543100  0.831700  0.038100  1.0
  C  C1502  1  0.456900  0.168300  0.538100  1.0
  C  C1503  1  0.668300  0.043100  0.788100  1.0
  C  C1504  1  0.331700  0.956900  0.288100  1.0
  C  C1505  1  0.956900  0.331700  0.711900  1.0
  C  C1506  1  0.043100  0.668300  0.211900  1.0
  C  C1507  1  0.831700  0.543100  0.961900  1.0
  C  C1508  1  0.168300  0.456900  0.461900  1.0
  C  C1509  1  0.555900  0.844400  0.998600  1.0
  C  C1510  1  0.444100  0.155600  0.498600  1.0
  C  C1511  1  0.655600  0.055900  0.748600  1.0
  C  C1512  1  0.344400  0.944100  0.248600  1.0
  C  C1513  1  0.944100  0.344400  0.751400  1.0
  C  C1514  1  0.055900  0.655600  0.251400  1.0
  C  C1515  1  0.844400  0.555900  0.001400  1.0
  C  C1516  1  0.155600  0.444100  0.501400  1.0
  C  C1517  1  0.563200  0.890200  0.990600  1.0
  C  C1518  1  0.436800  0.109800  0.490600  1.0
  C  C1519  1  0.609800  0.063200  0.740600  1.0
  C  C1520  1  0.390200  0.936800  0.240600  1.0
  C  C1521  1  0.936800  0.390200  0.759400  1.0
  C  C1522  1  0.063200  0.609800  0.259400  1.0
  C  C1523  1  0.890200  0.563200  0.009400  1.0
  C  C1524  1  0.109800  0.436800  0.509400  1.0
  C  C1525  1  0.557700  0.921300  0.021000  1.0
  C  C1526  1  0.442300  0.078700  0.521000  1.0
  C  C1527  1  0.578700  0.057700  0.771000  1.0
  C  C1528  1  0.421300  0.942300  0.271000  1.0
  C  C1529  1  0.942300  0.421300  0.729000  1.0
  C  C1530  1  0.057700  0.578700  0.229000  1.0
  C  C1531  1  0.921300  0.557700  0.979000  1.0
  C  C1532  1  0.078700  0.442300  0.479000  1.0
  C  C1533  1  0.619700  0.900500  0.140600  1.0
  C  C1534  1  0.380300  0.099500  0.640600  1.0
  C  C1535  1  0.599500  0.119700  0.890600  1.0
  C  C1536  1  0.400500  0.880300  0.390600  1.0
  C  C1537  1  0.880300  0.400500  0.609400  1.0
  C  C1538  1  0.119700  0.599500  0.109400  1.0
  C  C1539  1  0.900500  0.619700  0.859400  1.0
  C  C1540  1  0.099500  0.380300  0.359400  1.0
  C  C1541  1  0.663900  0.885200  0.146600  1.0
  C  C1542  1  0.336100  0.114800  0.646600  1.0
  C  C1543  1  0.614800  0.163900  0.896600  1.0
  C  C1544  1  0.385200  0.836100  0.396600  1.0
  C  C1545  1  0.836100  0.385200  0.603400  1.0
  C  C1546  1  0.163900  0.614800  0.103400  1.0
  C  C1547  1  0.885200  0.663900  0.853400  1.0
  C  C1548  1  0.114800  0.336100  0.353400  1.0
  C  C1549  1  0.698800  0.906900  0.125500  1.0
  C  C1550  1  0.301200  0.093100  0.625500  1.0
  C  C1551  1  0.593100  0.198800  0.875500  1.0
  C  C1552  1  0.406900  0.801200  0.375500  1.0
  C  C1553  1  0.801200  0.406900  0.624500  1.0
  C  C1554  1  0.198800  0.593100  0.124500  1.0
  C  C1555  1  0.906900  0.698800  0.874500  1.0
  C  C1556  1  0.093100  0.301200  0.374500  1.0
  C  C1557  1  0.689200  0.941500  0.099300  1.0
  C  C1558  1  0.310800  0.058500  0.599300  1.0
  C  C1559  1  0.558500  0.189200  0.849300  1.0
  C  C1560  1  0.441500  0.810800  0.349300  1.0
  C  C1561  1  0.810800  0.441500  0.650700  1.0
  C  C1562  1  0.189200  0.558500  0.150700  1.0
  C  C1563  1  0.941500  0.689200  0.900700  1.0
  C  C1564  1  0.058500  0.310800  0.400700  1.0
  C  C1565  1  0.643500  0.954700  0.094600  1.0
  C  C1566  1  0.356500  0.045300  0.594600  1.0
  C  C1567  1  0.545300  0.143500  0.844600  1.0
  C  C1568  1  0.454700  0.856500  0.344600  1.0
  C  C1569  1  0.856500  0.454700  0.655400  1.0
  C  C1570  1  0.143500  0.545300  0.155400  1.0
  C  C1571  1  0.954700  0.643500  0.905400  1.0
  C  C1572  1  0.045300  0.356500  0.405400  1.0
  C  C1573  1  0.634100  0.851100  0.817900  1.0
  C  C1574  1  0.365900  0.148900  0.317900  1.0
  C  C1575  1  0.648900  0.134100  0.567900  1.0
  C  C1576  1  0.351100  0.865900  0.067900  1.0
  C  C1577  1  0.865900  0.351100  0.932100  1.0
  C  C1578  1  0.134100  0.648900  0.432100  1.0
  C  C1579  1  0.851100  0.634100  0.182100  1.0
  C  C1580  1  0.148900  0.365900  0.682100  1.0
  C  C1581  1  0.616100  0.841000  0.855400  1.0
  C  C1582  1  0.383900  0.159000  0.355400  1.0
  C  C1583  1  0.659000  0.116100  0.605400  1.0
  C  C1584  1  0.341000  0.883900  0.105400  1.0
  C  C1585  1  0.883900  0.341000  0.894600  1.0
  C  C1586  1  0.116100  0.659000  0.394600  1.0
  C  C1587  1  0.841000  0.616100  0.144600  1.0
  C  C1588  1  0.159000  0.383900  0.644600  1.0
  C  C1589  1  0.604200  0.797900  0.865300  1.0
  C  C1590  1  0.395800  0.202100  0.365300  1.0
  C  C1591  1  0.702100  0.104200  0.615300  1.0
  C  C1592  1  0.297900  0.895800  0.115300  1.0
  C  C1593  1  0.895800  0.297900  0.884700  1.0
  C  C1594  1  0.104200  0.702100  0.384700  1.0
  C  C1595  1  0.797900  0.604200  0.134700  1.0
  C  C1596  1  0.202100  0.395800  0.634700  1.0
  C  C1597  1  0.607900  0.763800  0.835800  1.0
  C  C1598  1  0.392100  0.236200  0.335800  1.0
  C  C1599  1  0.736200  0.107900  0.585800  1.0
  C  C1600  1  0.263800  0.892100  0.085800  1.0
  C  C1601  1  0.892100  0.263800  0.914200  1.0
  C  C1602  1  0.107900  0.736200  0.414200  1.0
  C  C1603  1  0.763800  0.607900  0.164200  1.0
  C  C1604  1  0.236200  0.392100  0.664200  1.0
  C  C1605  1  0.627400  0.774900  0.799500  1.0
  C  C1606  1  0.372600  0.225100  0.299500  1.0
  C  C1607  1  0.725100  0.127400  0.549500  1.0
  C  C1608  1  0.274900  0.872600  0.049500  1.0
  C  C1609  1  0.872600  0.274900  0.950500  1.0
  C  C1610  1  0.127400  0.725100  0.450500  1.0
  C  C1611  1  0.774900  0.627400  0.200500  1.0
  C  C1612  1  0.225100  0.372600  0.700500  1.0
  C  C1613  1  0.562600  0.807800  0.967500  1.0
  C  C1614  1  0.437400  0.192200  0.467500  1.0
  C  C1615  1  0.692200  0.062600  0.717500  1.0
  C  C1616  1  0.307800  0.937400  0.217500  1.0
  C  C1617  1  0.937400  0.307800  0.782500  1.0
  C  C1618  1  0.062600  0.692200  0.282500  1.0
  C  C1619  1  0.807800  0.562600  0.032500  1.0
  C  C1620  1  0.192200  0.437400  0.532500  1.0
  C  C1621  1  0.561700  0.734700  0.951500  1.0
  C  C1622  1  0.438300  0.265300  0.451500  1.0
  C  C1623  1  0.765300  0.061700  0.701500  1.0
  C  C1624  1  0.234700  0.938300  0.201500  1.0
  C  C1625  1  0.938300  0.234700  0.798500  1.0
  C  C1626  1  0.061700  0.765300  0.298500  1.0
  C  C1627  1  0.734700  0.561700  0.048500  1.0
  C  C1628  1  0.265300  0.438300  0.548500  1.0
  C  C1629  1  0.584300  0.786100  0.905300  1.0
  C  C1630  1  0.415700  0.213900  0.405300  1.0
  C  C1631  1  0.713900  0.084300  0.655300  1.0
  C  C1632  1  0.286100  0.915700  0.155300  1.0
  C  C1633  1  0.915700  0.286100  0.844700  1.0
  C  C1634  1  0.084300  0.713900  0.344700  1.0
  C  C1635  1  0.786100  0.584300  0.094700  1.0
  C  C1636  1  0.213900  0.415700  0.594700  1.0
  C  C1637  1  0.747400  0.890300  0.129800  1.0
  C  C1638  1  0.252600  0.109700  0.629800  1.0
  C  C1639  1  0.609700  0.247400  0.879800  1.0
  C  C1640  1  0.390300  0.752600  0.379800  1.0
  C  C1641  1  0.752600  0.390300  0.620200  1.0
  C  C1642  1  0.247400  0.609700  0.120200  1.0
  C  C1643  1  0.890300  0.747400  0.870200  1.0
  C  C1644  1  0.109700  0.252600  0.370200  1.0
  C  C1645  1  0.747300  0.855500  0.785700  1.0
  C  C1646  1  0.252700  0.144500  0.285700  1.0
  C  C1647  1  0.644500  0.247300  0.535700  1.0
  C  C1648  1  0.355500  0.752700  0.035700  1.0
  C  C1649  1  0.752700  0.355500  0.964300  1.0
  C  C1650  1  0.247300  0.644500  0.464300  1.0
  C  C1651  1  0.855500  0.747300  0.214300  1.0
  C  C1652  1  0.144500  0.252700  0.714300  1.0
  C  C1653  1  0.784200  0.847600  0.810800  1.0
  C  C1654  1  0.215800  0.152400  0.310800  1.0
  C  C1655  1  0.652400  0.284200  0.560800  1.0
  C  C1656  1  0.347600  0.715800  0.060800  1.0
  C  C1657  1  0.715800  0.347600  0.939200  1.0
  C  C1658  1  0.284200  0.652400  0.439200  1.0
  C  C1659  1  0.847600  0.784200  0.189200  1.0
  C  C1660  1  0.152400  0.215800  0.689200  1.0
  C  C1661  1  0.801300  0.805000  0.815600  1.0
  C  C1662  1  0.198700  0.195000  0.315600  1.0
  C  C1663  1  0.695000  0.301300  0.565600  1.0
  C  C1664  1  0.305000  0.698700  0.065600  1.0
  C  C1665  1  0.698700  0.305000  0.934400  1.0
  C  C1666  1  0.301300  0.695000  0.434400  1.0
  C  C1667  1  0.805000  0.801300  0.184400  1.0
  C  C1668  1  0.195000  0.198700  0.684400  1.0
  C  C1669  1  0.782000  0.769600  0.792800  1.0
  C  C1670  1  0.218000  0.230400  0.292800  1.0
  C  C1671  1  0.730400  0.282000  0.542800  1.0
  C  C1672  1  0.269600  0.718000  0.042800  1.0
  C  C1673  1  0.718000  0.269600  0.957200  1.0
  C  C1674  1  0.282000  0.730400  0.457200  1.0
  C  C1675  1  0.769600  0.782000  0.207200  1.0
  C  C1676  1  0.230400  0.218000  0.707200  1.0
  C  C1677  1  0.746400  0.780400  0.768400  1.0
  C  C1678  1  0.253600  0.219600  0.268400  1.0
  C  C1679  1  0.719600  0.246400  0.518400  1.0
  C  C1680  1  0.280400  0.753600  0.018400  1.0
  C  C1681  1  0.753600  0.280400  0.981600  1.0
  C  C1682  1  0.246400  0.719600  0.481600  1.0
  C  C1683  1  0.780400  0.746400  0.231600  1.0
  C  C1684  1  0.219600  0.253600  0.731600  1.0
  C  C1685  1  0.796900  0.841600  0.156700  1.0
  C  C1686  1  0.203100  0.158400  0.656700  1.0
  C  C1687  1  0.658400  0.296900  0.906700  1.0
  C  C1688  1  0.341600  0.703100  0.406700  1.0
  C  C1689  1  0.703100  0.341600  0.593300  1.0
  C  C1690  1  0.296900  0.658400  0.093300  1.0
  C  C1691  1  0.841600  0.796900  0.843300  1.0
  C  C1692  1  0.158400  0.203100  0.343300  1.0
  C  C1693  1  0.820900  0.894100  0.112000  1.0
  C  C1694  1  0.179100  0.105900  0.612000  1.0
  C  C1695  1  0.605900  0.320900  0.862000  1.0
  C  C1696  1  0.394100  0.679100  0.362000  1.0
  C  C1697  1  0.679100  0.394100  0.638000  1.0
  C  C1698  1  0.320900  0.605900  0.138000  1.0
  C  C1699  1  0.894100  0.820900  0.888000  1.0
  C  C1700  1  0.105900  0.179100  0.388000  1.0
  C  C1701  1  0.933200  0.915800  0.063600  1.0
  C  C1702  1  0.066800  0.084200  0.563600  1.0
  C  C1703  1  0.584200  0.433200  0.813600  1.0
  C  C1704  1  0.415800  0.566800  0.313600  1.0
  C  C1705  1  0.566800  0.415800  0.686400  1.0
  C  C1706  1  0.433200  0.584200  0.186400  1.0
  C  C1707  1  0.915800  0.933200  0.936400  1.0
  C  C1708  1  0.084200  0.066800  0.436400  1.0
  C  C1709  1  0.900900  0.896300  0.089800  1.0
  C  C1710  1  0.099100  0.103700  0.589800  1.0
  C  C1711  1  0.603700  0.400900  0.839800  1.0
  C  C1712  1  0.396300  0.599100  0.339800  1.0
  C  C1713  1  0.599100  0.396300  0.660200  1.0
  C  C1714  1  0.400900  0.603700  0.160200  1.0
  C  C1715  1  0.896300  0.900900  0.910200  1.0
  C  C1716  1  0.103700  0.099100  0.410200  1.0
  C  C1717  1  0.857300  0.914100  0.087600  1.0
  C  C1718  1  0.142700  0.085900  0.587600  1.0
  C  C1719  1  0.585900  0.357300  0.837600  1.0
  C  C1720  1  0.414100  0.642700  0.337600  1.0
  C  C1721  1  0.642700  0.414100  0.662400  1.0
  C  C1722  1  0.357300  0.585900  0.162400  1.0
  C  C1723  1  0.914100  0.857300  0.912400  1.0
  C  C1724  1  0.085900  0.142700  0.412400  1.0
  C  C1725  1  0.848100  0.947300  0.062000  1.0
  C  C1726  1  0.151900  0.052700  0.562000  1.0
  C  C1727  1  0.552700  0.348100  0.812000  1.0
  C  C1728  1  0.447300  0.651900  0.312000  1.0
  C  C1729  1  0.651900  0.447300  0.688000  1.0
  C  C1730  1  0.348100  0.552700  0.188000  1.0
  C  C1731  1  0.947300  0.848100  0.938000  1.0
  C  C1732  1  0.052700  0.151900  0.438000  1.0
  C  C1733  1  0.882000  0.963700  0.037800  1.0
  C  C1734  1  0.118000  0.036300  0.537800  1.0
  C  C1735  1  0.536300  0.382000  0.787800  1.0
  C  C1736  1  0.463700  0.618000  0.287800  1.0
  C  C1737  1  0.618000  0.463700  0.712200  1.0
  C  C1738  1  0.382000  0.536300  0.212200  1.0
  C  C1739  1  0.963700  0.882000  0.962200  1.0
  C  C1740  1  0.036300  0.118000  0.462200  1.0
  C  C1741  1  0.549800  0.607300  0.945400  1.0
  C  C1742  1  0.450200  0.392700  0.445400  1.0
  C  C1743  1  0.892700  0.049800  0.695400  1.0
  C  C1744  1  0.107300  0.950200  0.195400  1.0
  C  C1745  1  0.950200  0.107300  0.804600  1.0
  C  C1746  1  0.049800  0.892700  0.304600  1.0
  C  C1747  1  0.607300  0.549800  0.054600  1.0
  C  C1748  1  0.392700  0.450200  0.554600  1.0
  C  C1749  1  0.557000  0.652700  0.933100  1.0
  C  C1750  1  0.443000  0.347300  0.433100  1.0
  C  C1751  1  0.847300  0.057000  0.683100  1.0
  C  C1752  1  0.152700  0.943000  0.183100  1.0
  C  C1753  1  0.943000  0.152700  0.816900  1.0
  C  C1754  1  0.057000  0.847300  0.316900  1.0
  C  C1755  1  0.652700  0.557000  0.066900  1.0
  C  C1756  1  0.347300  0.443000  0.566900  1.0
  C  C1757  1  0.551400  0.686400  0.962100  1.0
  C  C1758  1  0.448600  0.313600  0.462100  1.0
  C  C1759  1  0.813600  0.051400  0.712100  1.0
  C  C1760  1  0.186400  0.948600  0.212100  1.0
  C  C1761  1  0.948600  0.186400  0.787900  1.0
  C  C1762  1  0.051400  0.813600  0.287900  1.0
  C  C1763  1  0.686400  0.551400  0.037900  1.0
  C  C1764  1  0.313600  0.448600  0.537900  1.0
  C  C1765  1  0.537400  0.675400  0.000100  1.0
  C  C1766  1  0.462600  0.324600  0.500100  1.0
  C  C1767  1  0.824600  0.037400  0.750100  1.0
  C  C1768  1  0.175400  0.962600  0.250100  1.0
  C  C1769  1  0.962600  0.175400  0.749900  1.0
  C  C1770  1  0.037400  0.824600  0.249900  1.0
  C  C1771  1  0.675400  0.537400  0.999900  1.0
  C  C1772  1  0.324600  0.462600  0.499900  1.0
  C  C1773  1  0.532100  0.630300  0.010200  1.0
  C  C1774  1  0.467900  0.369700  0.510200  1.0
  C  C1775  1  0.869700  0.032100  0.760200  1.0
  C  C1776  1  0.130300  0.967900  0.260200  1.0
  C  C1777  1  0.967900  0.130300  0.739800  1.0
  C  C1778  1  0.032100  0.869700  0.239800  1.0
  C  C1779  1  0.630300  0.532100  0.989800  1.0
  C  C1780  1  0.369700  0.467900  0.489800  1.0
  C  C1781  1  0.566800  0.836500  0.726700  1.0
  C  C1782  1  0.433200  0.163500  0.226700  1.0
  C  C1783  1  0.663500  0.066800  0.476700  1.0
  C  C1784  1  0.336500  0.933200  0.976700  1.0
  C  C1785  1  0.933200  0.336500  0.023300  1.0
  C  C1786  1  0.066800  0.663500  0.523300  1.0
  C  C1787  1  0.836500  0.566800  0.273300  1.0
  C  C1788  1  0.163500  0.433200  0.773300  1.0
  C  C1789  1  0.526400  0.847900  0.705800  1.0
  C  C1790  1  0.473600  0.152100  0.205800  1.0
  C  C1791  1  0.652100  0.026400  0.455800  1.0
  C  C1792  1  0.347900  0.973600  0.955800  1.0
  C  C1793  1  0.973600  0.347900  0.044200  1.0
  C  C1794  1  0.026400  0.652100  0.544200  1.0
  C  C1795  1  0.847900  0.526400  0.294200  1.0
  C  C1796  1  0.152100  0.473600  0.794200  1.0
  C  C1797  1  0.530100  0.863600  0.665900  1.0
  C  C1798  1  0.469900  0.136400  0.165900  1.0
  C  C1799  1  0.636400  0.030100  0.415900  1.0
  C  C1800  1  0.363600  0.969900  0.915900  1.0
  C  C1801  1  0.969900  0.363600  0.084100  1.0
  C  C1802  1  0.030100  0.636400  0.584100  1.0
  C  C1803  1  0.863600  0.530100  0.334100  1.0
  C  C1804  1  0.136400  0.469900  0.834100  1.0
  C  C1805  1  0.572800  0.870900  0.648700  1.0
  C  C1806  1  0.427200  0.129100  0.148700  1.0
  C  C1807  1  0.629100  0.072800  0.398700  1.0
  C  C1808  1  0.370900  0.927200  0.898700  1.0
  C  C1809  1  0.927200  0.370900  0.101300  1.0
  C  C1810  1  0.072800  0.629100  0.601300  1.0
  C  C1811  1  0.870900  0.572800  0.351300  1.0
  C  C1812  1  0.129100  0.427200  0.851300  1.0
  C  C1813  1  0.610600  0.857300  0.670400  1.0
  C  C1814  1  0.389400  0.142700  0.170400  1.0
  C  C1815  1  0.642700  0.110600  0.420400  1.0
  C  C1816  1  0.357300  0.889400  0.920400  1.0
  C  C1817  1  0.889400  0.357300  0.079600  1.0
  C  C1818  1  0.110600  0.642700  0.579600  1.0
  C  C1819  1  0.857300  0.610600  0.329600  1.0
  C  C1820  1  0.142700  0.389400  0.829600  1.0
  C  C1821  1  0.655400  0.862500  0.655500  1.0
  C  C1822  1  0.344600  0.137500  0.155500  1.0
  C  C1823  1  0.637500  0.155400  0.405500  1.0
  C  C1824  1  0.362500  0.844600  0.905500  1.0
  C  C1825  1  0.844600  0.362500  0.094500  1.0
  C  C1826  1  0.155400  0.637500  0.594500  1.0
  C  C1827  1  0.862500  0.655400  0.344500  1.0
  C  C1828  1  0.137500  0.344600  0.844500  1.0
  C  C1829  1  0.665600  0.876800  0.616700  1.0
  C  C1830  1  0.334400  0.123200  0.116700  1.0
  C  C1831  1  0.623200  0.165600  0.366700  1.0
  C  C1832  1  0.376800  0.834400  0.866700  1.0
  C  C1833  1  0.834400  0.376800  0.133300  1.0
  C  C1834  1  0.165600  0.623200  0.633300  1.0
  C  C1835  1  0.876800  0.665600  0.383300  1.0
  C  C1836  1  0.123200  0.334400  0.883300  1.0
  C  C1837  1  0.709200  0.878900  0.604500  1.0
  C  C1838  1  0.290800  0.121100  0.104500  1.0
  C  C1839  1  0.621100  0.209200  0.354500  1.0
  C  C1840  1  0.378900  0.790800  0.854500  1.0
  C  C1841  1  0.790800  0.378900  0.145500  1.0
  C  C1842  1  0.209200  0.621100  0.645500  1.0
  C  C1843  1  0.878900  0.709200  0.395500  1.0
  C  C1844  1  0.121100  0.290800  0.895500  1.0
  C  C1845  1  0.743700  0.865900  0.630500  1.0
  C  C1846  1  0.256300  0.134100  0.130500  1.0
  C  C1847  1  0.634100  0.243700  0.380500  1.0
  C  C1848  1  0.365900  0.756300  0.880500  1.0
  C  C1849  1  0.756300  0.365900  0.119500  1.0
  C  C1850  1  0.243700  0.634100  0.619500  1.0
  C  C1851  1  0.865900  0.743700  0.369500  1.0
  C  C1852  1  0.134100  0.256300  0.869500  1.0
  C  C1853  1  0.731900  0.851800  0.669800  1.0
  C  C1854  1  0.268100  0.148200  0.169800  1.0
  C  C1855  1  0.648200  0.231900  0.419800  1.0
  C  C1856  1  0.351800  0.768100  0.919800  1.0
  C  C1857  1  0.768100  0.351800  0.080200  1.0
  C  C1858  1  0.231900  0.648200  0.580200  1.0
  C  C1859  1  0.851800  0.731900  0.330200  1.0
  C  C1860  1  0.148200  0.268100  0.830200  1.0
  C  C1861  1  0.436500  0.552500  0.972400  1.0
  C  C1862  1  0.563500  0.447500  0.472400  1.0
  C  C1863  1  0.947500  0.936500  0.722400  1.0
  C  C1864  1  0.052500  0.063500  0.222400  1.0
  C  C1865  1  0.063500  0.052500  0.777600  1.0
  C  C1866  1  0.936500  0.947500  0.277600  1.0
  C  C1867  1  0.552500  0.436500  0.027600  1.0
  C  C1868  1  0.447500  0.563500  0.527600  1.0
  C  C1869  1  0.390800  0.544700  0.962200  1.0
  C  C1870  1  0.609200  0.455300  0.462200  1.0
  C  C1871  1  0.955300  0.890800  0.712200  1.0
  C  C1872  1  0.044700  0.109200  0.212200  1.0
  C  C1873  1  0.109200  0.044700  0.787800  1.0
  C  C1874  1  0.890800  0.955300  0.287800  1.0
  C  C1875  1  0.544700  0.390800  0.037800  1.0
  C  C1876  1  0.455300  0.609200  0.537800  1.0
  C  C1877  1  0.375700  0.500100  0.970900  1.0
  C  C1878  1  0.624300  0.499900  0.470900  1.0
  C  C1879  1  0.999900  0.875700  0.720900  1.0
  C  C1880  1  0.000100  0.124300  0.220900  1.0
  C  C1881  1  0.124300  0.000100  0.779100  1.0
  C  C1882  1  0.875700  0.999900  0.279100  1.0
  C  C1883  1  0.500100  0.375700  0.029100  1.0
  C  C1884  1  0.499900  0.624300  0.529100  1.0
  C  C1885  1  0.402800  0.470600  0.990000  1.0
  C  C1886  1  0.597200  0.529400  0.490000  1.0
  C  C1887  1  0.029400  0.902800  0.740000  1.0
  C  C1888  1  0.970600  0.097200  0.240000  1.0
  C  C1889  1  0.097200  0.970600  0.760000  1.0
  C  C1890  1  0.902800  0.029400  0.260000  1.0
  C  C1891  1  0.470600  0.402800  0.010000  1.0
  C  C1892  1  0.529400  0.597200  0.510000  1.0
  C  C1893  1  0.449300  0.481000  0.000600  1.0
  C  C1894  1  0.550700  0.519000  0.500600  1.0
  C  C1895  1  0.019000  0.949300  0.750600  1.0
  C  C1896  1  0.981000  0.050700  0.250600  1.0
  C  C1897  1  0.050700  0.981000  0.749400  1.0
  C  C1898  1  0.949300  0.019000  0.249400  1.0
  C  C1899  1  0.481000  0.449300  0.999400  1.0
  C  C1900  1  0.519000  0.550700  0.499400  1.0
  C  C1901  1  0.045900  0.967500  0.936100  1.0
  C  C1902  1  0.954100  0.032500  0.436100  1.0
  C  C1903  1  0.532500  0.545900  0.686100  1.0
  C  C1904  1  0.467500  0.454100  0.186100  1.0
  C  C1905  1  0.454100  0.467500  0.813900  1.0
  C  C1906  1  0.545900  0.532500  0.313900  1.0
  C  C1907  1  0.967500  0.045900  0.063900  1.0
  C  C1908  1  0.032500  0.954100  0.563900  1.0
  C  C1909  1  0.087000  0.982400  0.918400  1.0
  C  C1910  1  0.913000  0.017600  0.418400  1.0
  C  C1911  1  0.517600  0.587000  0.668400  1.0
  C  C1912  1  0.482400  0.413000  0.168400  1.0
  C  C1913  1  0.413000  0.482400  0.831600  1.0
  C  C1914  1  0.587000  0.517600  0.331600  1.0
  C  C1915  1  0.982400  0.087000  0.081600  1.0
  C  C1916  1  0.017600  0.913000  0.581600  1.0
  C  C1917  1  0.116200  0.010200  0.941600  1.0
  C  C1918  1  0.883800  0.989800  0.441600  1.0
  C  C1919  1  0.489800  0.616200  0.691600  1.0
  C  C1920  1  0.510200  0.383800  0.191600  1.0
  C  C1921  1  0.383800  0.510200  0.808400  1.0
  C  C1922  1  0.616200  0.489800  0.308400  1.0
  C  C1923  1  0.010200  0.116200  0.058400  1.0
  C  C1924  1  0.989800  0.883800  0.558400  1.0
  C  C1925  1  0.109900  0.016200  0.983300  1.0
  C  C1926  1  0.890100  0.983800  0.483300  1.0
  C  C1927  1  0.483800  0.609900  0.733300  1.0
  C  C1928  1  0.516200  0.390100  0.233300  1.0
  C  C1929  1  0.390100  0.516200  0.766700  1.0
  C  C1930  1  0.609900  0.483800  0.266700  1.0
  C  C1931  1  0.016200  0.109900  0.016700  1.0
  C  C1932  1  0.983800  0.890100  0.516700  1.0
  C  C1933  1  0.067300  0.003000  0.997900  1.0
  C  C1934  1  0.932700  0.997000  0.497900  1.0
  C  C1935  1  0.497000  0.567300  0.747900  1.0
  C  C1936  1  0.503000  0.432700  0.247900  1.0
  C  C1937  1  0.432700  0.503000  0.752100  1.0
  C  C1938  1  0.567300  0.497000  0.252100  1.0
  C  C1939  1  0.003000  0.067300  0.002100  1.0
  C  C1940  1  0.997000  0.932700  0.502100  1.0
  C  C1941  1  0.052600  0.017000  0.037000  1.0
  C  C1942  1  0.947400  0.983000  0.537000  1.0
  C  C1943  1  0.483000  0.552600  0.787000  1.0
  C  C1944  1  0.517000  0.447400  0.287000  1.0
  C  C1945  1  0.447400  0.517000  0.713000  1.0
  C  C1946  1  0.552600  0.483000  0.213000  1.0
  C  C1947  1  0.017000  0.052600  0.963000  1.0
  C  C1948  1  0.983000  0.947400  0.463000  1.0
  C  C1949  1  0.081000  0.038100  0.065000  1.0
  C  C1950  1  0.919000  0.961900  0.565000  1.0
  C  C1951  1  0.461900  0.581000  0.815000  1.0
  C  C1952  1  0.538100  0.419000  0.315000  1.0
  C  C1953  1  0.419000  0.538100  0.685000  1.0
  C  C1954  1  0.581000  0.461900  0.185000  1.0
  C  C1955  1  0.038100  0.081000  0.935000  1.0
  C  C1956  1  0.961900  0.919000  0.435000  1.0
  C  C1957  1  0.067200  0.042500  0.104100  1.0
  C  C1958  1  0.932800  0.957500  0.604100  1.0
  C  C1959  1  0.457500  0.567200  0.854100  1.0
  C  C1960  1  0.542500  0.432800  0.354100  1.0
  C  C1961  1  0.432800  0.542500  0.645900  1.0
  C  C1962  1  0.567200  0.457500  0.145900  1.0
  C  C1963  1  0.042500  0.067200  0.895900  1.0
  C  C1964  1  0.957500  0.932800  0.395900  1.0
  C  C1965  1  0.025600  0.025200  0.116100  1.0
  C  C1966  1  0.974400  0.974800  0.616100  1.0
  C  C1967  1  0.474800  0.525600  0.866100  1.0
  C  C1968  1  0.525200  0.474400  0.366100  1.0
  C  C1969  1  0.474400  0.525200  0.633900  1.0
  C  C1970  1  0.525600  0.474800  0.133900  1.0
  C  C1971  1  0.025200  0.025600  0.883900  1.0
  C  C1972  1  0.974800  0.974400  0.383900  1.0
  C  C1973  1  0.007700  0.996700  0.913800  1.0
  C  C1974  1  0.992300  0.003300  0.413800  1.0
  C  C1975  1  0.503300  0.507700  0.663800  1.0
  C  C1976  1  0.496700  0.492300  0.163800  1.0
  C  C1977  1  0.492300  0.496700  0.836200  1.0
  C  C1978  1  0.507700  0.503300  0.336200  1.0
  C  C1979  1  0.996700  0.007700  0.086200  1.0
  C  C1980  1  0.003300  0.992300  0.586200  1.0
  C  C1981  1  0.450900  0.958200  0.073200  1.0
  C  C1982  1  0.549100  0.041800  0.573200  1.0
  C  C1983  1  0.541800  0.950900  0.823200  1.0
  C  C1984  1  0.458200  0.049100  0.323200  1.0
  C  C1985  1  0.049100  0.458200  0.676800  1.0
  C  C1986  1  0.950900  0.541800  0.176800  1.0
  C  C1987  1  0.958200  0.450900  0.926800  1.0
  C  C1988  1  0.041800  0.549100  0.426800  1.0
  C  C1989  1  0.405600  0.971500  0.073700  1.0
  C  C1990  1  0.594400  0.028500  0.573700  1.0
  C  C1991  1  0.528500  0.905600  0.823700  1.0
  C  C1992  1  0.471500  0.094400  0.323700  1.0
  C  C1993  1  0.094400  0.471500  0.676300  1.0
  C  C1994  1  0.905600  0.528500  0.176300  1.0
  C  C1995  1  0.971500  0.405600  0.926300  1.0
  C  C1996  1  0.028500  0.594400  0.426300  1.0
  C  C1997  1  0.389300  0.994500  0.107500  1.0
  C  C1998  1  0.610700  0.005500  0.607500  1.0
  C  C1999  1  0.505500  0.889300  0.857500  1.0
  C  C2000  1  0.494500  0.110700  0.357500  1.0
  C  C2001  1  0.110700  0.494500  0.642500  1.0
  C  C2002  1  0.889300  0.505500  0.142500  1.0
  C  C2003  1  0.994500  0.389300  0.892500  1.0
  C  C2004  1  0.005500  0.610700  0.392500  1.0
  C  C2005  1  0.418800  0.005900  0.138700  1.0
  C  C2006  1  0.581200  0.994100  0.638700  1.0
  C  C2007  1  0.494100  0.918800  0.888700  1.0
  C  C2008  1  0.505900  0.081200  0.388700  1.0
  C  C2009  1  0.081200  0.505900  0.611300  1.0
  C  C2010  1  0.918800  0.494100  0.111300  1.0
  C  C2011  1  0.005900  0.418800  0.861300  1.0
  C  C2012  1  0.994100  0.581200  0.361300  1.0
  C  C2013  1  0.464200  0.994600  0.134600  1.0
  C  C2014  1  0.535800  0.005400  0.634600  1.0
  C  C2015  1  0.505400  0.964200  0.884600  1.0
  C  C2016  1  0.494600  0.035800  0.384600  1.0
  C  C2017  1  0.035800  0.494600  0.615400  1.0
  C  C2018  1  0.964200  0.505400  0.115400  1.0
  C  C2019  1  0.994600  0.464200  0.865400  1.0
  C  C2020  1  0.005400  0.535800  0.365400  1.0
  C  C2021  1  0.497400  0.005300  0.164400  1.0
  C  C2022  1  0.502600  0.994700  0.664400  1.0
  C  C2023  1  0.494700  0.997400  0.914400  1.0
  C  C2024  1  0.505300  0.002600  0.414400  1.0
  C  C2025  1  0.002600  0.505300  0.585600  1.0
  C  C2026  1  0.997400  0.494700  0.085600  1.0
  C  C2027  1  0.005300  0.497400  0.835600  1.0
  C  C2028  1  0.994700  0.502600  0.335600  1.0
  C  C2029  1  0.489900  0.031300  0.199200  1.0
  C  C2030  1  0.510100  0.968700  0.699200  1.0
  C  C2031  1  0.468700  0.989900  0.949200  1.0
  C  C2032  1  0.531300  0.010100  0.449200  1.0
  C  C2033  1  0.010100  0.531300  0.550800  1.0
  C  C2034  1  0.989900  0.468700  0.050800  1.0
  C  C2035  1  0.031300  0.489900  0.800800  1.0
  C  C2036  1  0.968700  0.510100  0.300800  1.0
  C  C2037  1  0.524600  0.040400  0.225200  1.0
  C  C2038  1  0.475400  0.959600  0.725200  1.0
  C  C2039  1  0.459600  0.024600  0.975200  1.0
  C  C2040  1  0.540400  0.975400  0.475200  1.0
  C  C2041  1  0.975400  0.540400  0.524800  1.0
  C  C2042  1  0.024600  0.459600  0.024800  1.0
  C  C2043  1  0.040400  0.524600  0.774800  1.0
  C  C2044  1  0.959600  0.475400  0.274800  1.0
  C  C2045  1  0.567900  0.031200  0.213200  1.0
  C  C2046  1  0.432100  0.968800  0.713200  1.0
  C  C2047  1  0.468800  0.067900  0.963200  1.0
  C  C2048  1  0.531200  0.932100  0.463200  1.0
  C  C2049  1  0.932100  0.531200  0.536800  1.0
  C  C2050  1  0.067900  0.468800  0.036800  1.0
  C  C2051  1  0.031200  0.567900  0.786800  1.0
  C  C2052  1  0.968800  0.432100  0.286800  1.0
  C  C2053  1  0.574500  0.004900  0.179000  1.0
  C  C2054  1  0.425500  0.995100  0.679000  1.0
  C  C2055  1  0.495100  0.074500  0.929000  1.0
  C  C2056  1  0.504900  0.925500  0.429000  1.0
  C  C2057  1  0.925500  0.504900  0.571000  1.0
  C  C2058  1  0.074500  0.495100  0.071000  1.0
  C  C2059  1  0.004900  0.574500  0.821000  1.0
  C  C2060  1  0.995100  0.425500  0.321000  1.0
  N  N2061  1  0.852500  0.446400  0.015800  1
  N  N2062  1  0.147500  0.553600  0.515800  1
  N  N2063  1  0.053600  0.352500  0.765800  1
  N  N2064  1  0.946400  0.647500  0.265800  1
  N  N2065  1  0.647500  0.946400  0.734200  1
  N  N2066  1  0.352500  0.053600  0.234200  1
  N  N2067  1  0.446400  0.852500  0.984200  1
  N  N2068  1  0.553600  0.147500  0.484200  1
  N  N2069  1  0.481800  0.879900  0.164600  1
  N  N2070  1  0.518200  0.120100  0.664600  1
  N  N2071  1  0.620100  0.981800  0.914600  1
  N  N2072  1  0.379900  0.018200  0.414600  1
  N  N2073  1  0.018200  0.379900  0.585400  1
  N  N2074  1  0.981800  0.620100  0.085400  1
  N  N2075  1  0.879900  0.481800  0.835400  1
  N  N2076  1  0.120100  0.518200  0.335400  1
  N  N2077  1  0.545400  0.053700  0.071800  1
  N  N2078  1  0.454600  0.946300  0.571800  1
  N  N2079  1  0.446300  0.045400  0.821800  1
  N  N2080  1  0.553700  0.954600  0.321800  1
  N  N2081  1  0.954600  0.553700  0.678200  1
  N  N2082  1  0.045400  0.446300  0.178200  1
  N  N2083  1  0.053700  0.545400  0.928200  1
  N  N2084  1  0.946300  0.454600  0.428200  1
  N  N2085  1  0.975600  0.185700  0.567800  1
  N  N2086  1  0.024400  0.814300  0.067800  1
  N  N2087  1  0.314300  0.475600  0.317800  1
  N  N2088  1  0.685700  0.524400  0.817800  1
  N  N2089  1  0.524400  0.685700  0.182200  1
  N  N2090  1  0.475600  0.314300  0.682200  1
  N  N2091  1  0.185700  0.975600  0.432200  1
  N  N2092  1  0.814300  0.024400  0.932200  1
  N  N2093  1  0.956200  0.958200  0.170300  1
  N  N2094  1  0.043800  0.041800  0.670300  1
  N  N2095  1  0.541800  0.456200  0.920300  1
  N  N2096  1  0.458200  0.543800  0.420300  1
  N  N2097  1  0.543800  0.458200  0.579700  1
  N  N2098  1  0.456200  0.541800  0.079700  1
  N  N2099  1  0.958200  0.956200  0.829700  1
  N  N2100  1  0.041800  0.043800  0.329700  1
  N  N2101  1  0.617000  0.847300  0.704200  1
  N  N2102  1  0.383000  0.152700  0.204200  1
  N  N2103  1  0.652700  0.117000  0.454200  1
  N  N2104  1  0.347300  0.883000  0.954200  1
  N  N2105  1  0.883000  0.347300  0.045800  1
  N  N2106  1  0.117000  0.652700  0.545800  1
  N  N2107  1  0.847300  0.617000  0.295800  1
  N  N2108  1  0.152700  0.383000  0.795800  1
  N  N2109  1  0.701400  0.850500  0.684500  1
  N  N2110  1  0.298600  0.149500  0.184500  1
  N  N2111  1  0.649500  0.201400  0.434500  1
  N  N2112  1  0.350500  0.798600  0.934500  1
  N  N2113  1  0.798600  0.350500  0.065500  1
  N  N2114  1  0.201400  0.649500  0.565500  1
  N  N2115  1  0.850500  0.701400  0.315500  1
  N  N2116  1  0.149500  0.298600  0.815500  1
  N  N2117  1  0.467600  0.527200  0.978000  1
  N  N2118  1  0.532400  0.472800  0.478000  1
  N  N2119  1  0.972800  0.967600  0.728000  1
  N  N2120  1  0.027200  0.032400  0.228000  1
  N  N2121  1  0.032400  0.027200  0.772000  1
  N  N2122  1  0.967600  0.972800  0.272000  1
  N  N2123  1  0.527200  0.467600  0.022000  1
  N  N2124  1  0.472800  0.532400  0.522000  1
  N  N2125  1  0.545400  0.909100  0.058900  1.0
  N  N2126  1  0.454600  0.090900  0.558900  1.0
  N  N2127  1  0.590900  0.045400  0.808900  1.0
  N  N2128  1  0.409100  0.954600  0.308900  1.0
  N  N2129  1  0.954600  0.409100  0.691100  1.0
  N  N2130  1  0.045400  0.590900  0.191100  1.0
  N  N2131  1  0.909100  0.545400  0.941100  1.0
  N  N2132  1  0.090900  0.454600  0.441100  1.0
  N  N2133  1  0.611400  0.935300  0.115000  1.0
  N  N2134  1  0.388600  0.064700  0.615000  1.0
  N  N2135  1  0.564700  0.111400  0.865000  1.0
  N  N2136  1  0.435300  0.888600  0.365000  1.0
  N  N2137  1  0.888600  0.435300  0.635000  1.0
  N  N2138  1  0.111400  0.564700  0.135000  1.0
  N  N2139  1  0.935300  0.611400  0.885000  1.0
  N  N2140  1  0.064700  0.388600  0.385000  1.0
  N  N2141  1  0.639400  0.817300  0.790400  1.0
  N  N2142  1  0.360600  0.182700  0.290400  1.0
  N  N2143  1  0.682700  0.139400  0.540400  1.0
  N  N2144  1  0.317300  0.860600  0.040400  1.0
  N  N2145  1  0.860600  0.317300  0.959600  1.0
  N  N2146  1  0.139400  0.682700  0.459600  1.0
  N  N2147  1  0.817300  0.639400  0.209600  1.0
  N  N2148  1  0.182700  0.360600  0.709600  1.0
  N  N2149  1  0.554200  0.765600  0.979000  1.0
  N  N2150  1  0.445800  0.234400  0.479000  1.0
  N  N2151  1  0.734400  0.054200  0.729000  1.0
  N  N2152  1  0.265600  0.945800  0.229000  1.0
  N  N2153  1  0.945800  0.265600  0.771000  1.0
  N  N2154  1  0.054200  0.734400  0.271000  1.0
  N  N2155  1  0.765600  0.554200  0.021000  1.0
  N  N2156  1  0.234400  0.445800  0.521000  1.0
  N  N2157  1  0.576600  0.743000  0.913100  1.0
  N  N2158  1  0.423400  0.257000  0.413100  1.0
  N  N2159  1  0.757000  0.076600  0.663100  1.0
  N  N2160  1  0.243000  0.923400  0.163100  1.0
  N  N2161  1  0.923400  0.243000  0.836900  1.0
  N  N2162  1  0.076600  0.757000  0.336900  1.0
  N  N2163  1  0.743000  0.576600  0.086900  1.0
  N  N2164  1  0.257000  0.423400  0.586900  1.0
  N  N2165  1  0.576900  0.820400  0.931200  1.0
  N  N2166  1  0.423100  0.179600  0.431200  1.0
  N  N2167  1  0.679600  0.076900  0.681200  1.0
  N  N2168  1  0.320400  0.923100  0.181200  1.0
  N  N2169  1  0.923100  0.320400  0.818800  1.0
  N  N2170  1  0.076900  0.679600  0.318800  1.0
  N  N2171  1  0.820400  0.576900  0.068800  1.0
  N  N2172  1  0.179600  0.423100  0.568800  1.0
  N  N2173  1  0.753600  0.855400  0.154500  1.0
  N  N2174  1  0.246400  0.144600  0.654500  1.0
  N  N2175  1  0.644600  0.253600  0.904500  1.0
  N  N2176  1  0.355400  0.746400  0.404500  1.0
  N  N2177  1  0.746400  0.355400  0.595500  1.0
  N  N2178  1  0.253600  0.644600  0.095500  1.0
  N  N2179  1  0.855400  0.753600  0.845500  1.0
  N  N2180  1  0.144600  0.246400  0.345500  1.0
  N  N2181  1  0.728300  0.822400  0.764400  1.0
  N  N2182  1  0.271700  0.177600  0.264400  1.0
  N  N2183  1  0.677600  0.228300  0.514400  1.0
  N  N2184  1  0.322400  0.771700  0.014400  1.0
  N  N2185  1  0.771700  0.322400  0.985600  1.0
  N  N2186  1  0.228300  0.677600  0.485600  1.0
  N  N2187  1  0.822400  0.728300  0.235600  1.0
  N  N2188  1  0.177600  0.271700  0.735600  1.0
  N  N2189  1  0.831100  0.858000  0.136800  1.0
  N  N2190  1  0.168900  0.142000  0.636800  1.0
  N  N2191  1  0.642000  0.331100  0.886800  1.0
  N  N2192  1  0.358000  0.668900  0.386800  1.0
  N  N2193  1  0.668900  0.358000  0.613200  1.0
  N  N2194  1  0.331100  0.642000  0.113200  1.0
  N  N2195  1  0.858000  0.831100  0.863200  1.0
  N  N2196  1  0.142000  0.168900  0.363200  1.0
  N  N2197  1  0.778800  0.910200  0.108000  1.0
  N  N2198  1  0.221200  0.089800  0.608000  1.0
  N  N2199  1  0.589800  0.278800  0.858000  1.0
  N  N2200  1  0.410200  0.721200  0.358000  1.0
  N  N2201  1  0.721200  0.410200  0.642000  1.0
  N  N2202  1  0.278800  0.589800  0.142000  1.0
  N  N2203  1  0.910200  0.778800  0.892000  1.0
  N  N2204  1  0.089800  0.221200  0.392000  1.0
  N  N2205  1  0.924200  0.949500  0.038100  1.0
  N  N2206  1  0.075800  0.050500  0.538100  1.0
  N  N2207  1  0.550500  0.424200  0.788100  1.0
  N  N2208  1  0.449500  0.575800  0.288100  1.0
  N  N2209  1  0.575800  0.449500  0.711900  1.0
  N  N2210  1  0.424200  0.550500  0.211900  1.0
  N  N2211  1  0.949500  0.924200  0.961900  1.0
  N  N2212  1  0.050500  0.075800  0.461900  1.0
  N  N2213  1  0.537900  0.596800  0.983200  1.0
  N  N2214  1  0.462100  0.403200  0.483200  1.0
  N  N2215  1  0.903200  0.037900  0.733200  1.0
  N  N2216  1  0.096800  0.962100  0.233200  1.0
  N  N2217  1  0.962100  0.096800  0.766800  1.0
  N  N2218  1  0.037900  0.903200  0.266800  1.0
  N  N2219  1  0.596800  0.537900  0.016800  1.0
  N  N2220  1  0.403200  0.462100  0.516800  1.0
  N  N2221  1  0.606500  0.841600  0.708800  1.0
  N  N2222  1  0.393500  0.158400  0.208800  1.0
  N  N2223  1  0.658400  0.106500  0.458800  1.0
  N  N2224  1  0.341600  0.893500  0.958800  1.0
  N  N2225  1  0.893500  0.341600  0.041200  1.0
  N  N2226  1  0.106500  0.658400  0.541200  1.0
  N  N2227  1  0.841600  0.606500  0.291200  1.0
  N  N2228  1  0.158400  0.393500  0.791200  1.0
  N  N2229  1  0.688200  0.849100  0.681100  1.0
  N  N2230  1  0.311800  0.150900  0.181100  1.0
  N  N2231  1  0.650900  0.188200  0.431100  1.0
  N  N2232  1  0.349100  0.811800  0.931100  1.0
  N  N2233  1  0.811800  0.349100  0.068900  1.0
  N  N2234  1  0.188200  0.650900  0.568900  1.0
  N  N2235  1  0.849100  0.688200  0.318900  1.0
  N  N2236  1  0.150900  0.311800  0.818900  1.0
  N  N2237  1  0.466000  0.521700  0.986600  1.0
  N  N2238  1  0.534000  0.478300  0.486600  1.0
  N  N2239  1  0.978300  0.966000  0.736600  1.0
  N  N2240  1  0.021700  0.034000  0.236600  1.0
  N  N2241  1  0.034000  0.021700  0.763400  1.0
  N  N2242  1  0.966000  0.978300  0.263400  1.0
  N  N2243  1  0.521700  0.466000  0.013400  1.0
  N  N2244  1  0.478300  0.534000  0.513400  1.0
  N  N2245  1  0.036800  0.982200  0.973400  1.0
  N  N2246  1  0.963200  0.017800  0.473400  1.0
  N  N2247  1  0.517800  0.536800  0.723400  1.0
  N  N2248  1  0.482200  0.463200  0.223400  1.0
  N  N2249  1  0.463200  0.482200  0.776600  1.0
  N  N2250  1  0.536800  0.517800  0.276600  1.0
  N  N2251  1  0.982200  0.036800  0.026600  1.0
  N  N2252  1  0.017800  0.963200  0.526600  1.0
  N  N2253  1  0.011800  0.999500  0.048400  1.0
  N  N2254  1  0.988200  0.000500  0.548400  1.0
  N  N2255  1  0.500500  0.511800  0.798400  1.0
  N  N2256  1  0.499500  0.488200  0.298400  1.0
  N  N2257  1  0.488200  0.499500  0.701600  1.0
  N  N2258  1  0.511800  0.500500  0.201600  1.0
  N  N2259  1  0.999500  0.011800  0.951600  1.0
  N  N2260  1  0.000500  0.988200  0.451600  1.0
  N  N2261  1  0.478500  0.968800  0.103000  1.0
  N  N2262  1  0.521500  0.031200  0.603000  1.0
  N  N2263  1  0.531200  0.978500  0.853000  1.0
  N  N2264  1  0.468800  0.021500  0.353000  1.0
  N  N2265  1  0.021500  0.468800  0.647000  1.0
  N  N2266  1  0.978500  0.531200  0.147000  1.0
  N  N2267  1  0.968800  0.478500  0.897000  1.0
  N  N2268  1  0.031200  0.521500  0.397000  1.0
  N  N2269  1  0.540500  0.992900  0.154800  1.0
  N  N2270  1  0.459500  0.007100  0.654800  1.0
  N  N2271  1  0.507100  0.040500  0.904800  1.0
  N  N2272  1  0.492900  0.959500  0.404800  1.0
  N  N2273  1  0.959500  0.492900  0.595200  1.0
  N  N2274  1  0.040500  0.507100  0.095200  1.0
  N  N2275  1  0.992900  0.540500  0.845200  1.0
  N  N2276  1  0.007100  0.459500  0.345200  1.0
  O  O2277  1  0.819500  0.436900  0.992800  1
  O  O2278  1  0.180500  0.563100  0.492800  1
  O  O2279  1  0.063100  0.319500  0.742800  1
  O  O2280  1  0.936900  0.680500  0.242800  1
  O  O2281  1  0.680500  0.936900  0.757200  1
  O  O2282  1  0.319500  0.063100  0.257200  1
  O  O2283  1  0.436900  0.819500  0.007200  1
  O  O2284  1  0.563100  0.180500  0.507200  1
  O  O2285  1  0.891100  0.443200  0.003500  1
  O  O2286  1  0.108900  0.556800  0.503500  1
  O  O2287  1  0.056800  0.391100  0.753500  1
  O  O2288  1  0.943200  0.608900  0.253500  1
  O  O2289  1  0.608900  0.943200  0.746500  1
  O  O2290  1  0.391100  0.056800  0.246500  1
  O  O2291  1  0.443200  0.891100  0.996500  1
  O  O2292  1  0.556800  0.108900  0.496500  1
  O  O2293  1  0.843800  0.459500  0.050300  1
  O  O2294  1  0.156200  0.540500  0.550300  1
  O  O2295  1  0.040500  0.343800  0.800300  1
  O  O2296  1  0.959500  0.656200  0.300300  1
  O  O2297  1  0.656200  0.959500  0.699700  1
  O  O2298  1  0.343800  0.040500  0.199700  1
  O  O2299  1  0.459500  0.843800  0.949700  1
  O  O2300  1  0.540500  0.156200  0.449700  1
  O  O2301  1  0.449900  0.876400  0.139000  1
  O  O2302  1  0.550100  0.123600  0.639000  1
  O  O2303  1  0.623600  0.949900  0.889000  1
  O  O2304  1  0.376400  0.050100  0.389000  1
  O  O2305  1  0.050100  0.376400  0.611000  1
  O  O2306  1  0.949900  0.623600  0.111000  1
  O  O2307  1  0.876400  0.449900  0.861000  1
  O  O2308  1  0.123600  0.550100  0.361000  1
  O  O2309  1  0.515800  0.856400  0.161200  1
  O  O2310  1  0.484200  0.143600  0.661200  1
  O  O2311  1  0.643600  0.015800  0.911200  1
  O  O2312  1  0.356400  0.984200  0.411200  1
  O  O2313  1  0.984200  0.356400  0.588800  1
  O  O2314  1  0.015800  0.643600  0.088800  1
  O  O2315  1  0.856400  0.515800  0.838800  1
  O  O2316  1  0.143600  0.484200  0.338800  1
  O  O2317  1  0.478600  0.906800  0.193400  1
  O  O2318  1  0.521400  0.093200  0.693400  1
  O  O2319  1  0.593200  0.978600  0.943400  1
  O  O2320  1  0.406800  0.021400  0.443400  1
  O  O2321  1  0.021400  0.406800  0.556600  1
  O  O2322  1  0.978600  0.593200  0.056600  1
  O  O2323  1  0.906800  0.478600  0.806600  1
  O  O2324  1  0.093200  0.521400  0.306600  1
  O  O2325  1  0.524300  0.078500  0.098300  1
  O  O2326  1  0.475700  0.921500  0.598300  1
  O  O2327  1  0.421500  0.024300  0.848300  1
  O  O2328  1  0.578500  0.975700  0.348300  1
  O  O2329  1  0.975700  0.578500  0.651700  1
  O  O2330  1  0.024300  0.421500  0.151700  1
  O  O2331  1  0.078500  0.524300  0.901700  1
  O  O2332  1  0.921500  0.475700  0.401700  1
  O  O2333  1  0.524700  0.038400  0.043500  1
  O  O2334  1  0.475300  0.961600  0.543500  1
  O  O2335  1  0.461600  0.024700  0.793500  1
  O  O2336  1  0.538400  0.975300  0.293500  1
  O  O2337  1  0.975300  0.538400  0.706500  1
  O  O2338  1  0.024700  0.461600  0.206500  1
  O  O2339  1  0.038400  0.524700  0.956500  1
  O  O2340  1  0.961600  0.475300  0.456500  1
  O  O2341  1  0.586100  0.047400  0.075200  1
  O  O2342  1  0.413900  0.952600  0.575200  1
  O  O2343  1  0.452600  0.086100  0.825200  1
  O  O2344  1  0.547400  0.913900  0.325200  1
  O  O2345  1  0.913900  0.547400  0.674800  1
  O  O2346  1  0.086100  0.452600  0.174800  1
  O  O2347  1  0.047400  0.586100  0.924800  1
  O  O2348  1  0.952600  0.413900  0.424800  1
  O  O2349  1  0.991900  0.154800  0.592000  1
  O  O2350  1  0.008100  0.845200  0.092000  1
  O  O2351  1  0.345200  0.491900  0.342000  1
  O  O2352  1  0.654800  0.508100  0.842000  1
  O  O2353  1  0.508100  0.654800  0.158000  1
  O  O2354  1  0.491900  0.345200  0.658000  1
  O  O2355  1  0.154800  0.991900  0.408000  1
  O  O2356  1  0.845200  0.008100  0.908000  1
  O  O2357  1  0.957400  0.173700  0.536500  1
  O  O2358  1  0.042600  0.826300  0.036500  1
  O  O2359  1  0.326300  0.457400  0.286500  1
  O  O2360  1  0.673700  0.542600  0.786500  1
  O  O2361  1  0.542600  0.673700  0.213500  1
  O  O2362  1  0.457400  0.326300  0.713500  1
  O  O2363  1  0.173700  0.957400  0.463500  1
  O  O2364  1  0.826300  0.042600  0.963500  1
  O  O2365  1  0.968900  0.224700  0.581400  1
  O  O2366  1  0.031100  0.775300  0.081400  1
  O  O2367  1  0.275300  0.468900  0.331400  1
  O  O2368  1  0.724700  0.531100  0.831400  1
  O  O2369  1  0.531100  0.724700  0.168600  1
  O  O2370  1  0.468900  0.275300  0.668600  1
  O  O2371  1  0.224700  0.968900  0.418600  1
  O  O2372  1  0.775300  0.031100  0.918600  1
  O  O2373  1  0.954200  0.000100  0.158200  1
  O  O2374  1  0.045800  0.999900  0.658200  1
  O  O2375  1  0.499900  0.454200  0.908200  1
  O  O2376  1  0.500100  0.545800  0.408200  1
  O  O2377  1  0.545800  0.500100  0.591800  1
  O  O2378  1  0.454200  0.499900  0.091800  1
  O  O2379  1  0.000100  0.954200  0.841800  1
  O  O2380  1  0.999900  0.045800  0.341800  1
  O  O2381  1  0.919200  0.941000  0.179700  1
  O  O2382  1  0.080800  0.059000  0.679700  1
  O  O2383  1  0.559000  0.419200  0.929700  1
  O  O2384  1  0.441000  0.580800  0.429700  1
  O  O2385  1  0.580800  0.441000  0.570300  1
  O  O2386  1  0.419200  0.559000  0.070300  1
  O  O2387  1  0.941000  0.919200  0.820300  1
  O  O2388  1  0.059000  0.080800  0.320300  1
  O  O2389  1  0.991800  0.936000  0.165800  1
  O  O2390  1  0.008200  0.064000  0.665800  1
  O  O2391  1  0.564000  0.491800  0.915800  1
  O  O2392  1  0.436000  0.508200  0.415800  1
  O  O2393  1  0.508200  0.436000  0.584200  1
  O  O2394  1  0.491800  0.564000  0.084200  1
  O  O2395  1  0.936000  0.991800  0.834200  1
  O  O2396  1  0.064000  0.008200  0.334200  1
  O  O2397  1  0.435000  0.857900  0.775900  1
  O  O2398  1  0.565000  0.142100  0.275900  1
  O  O2399  1  0.642100  0.935000  0.525900  1
  O  O2400  1  0.357900  0.065000  0.025900  1
  O  O2401  1  0.065000  0.357900  0.974100  1
  O  O2402  1  0.935000  0.642100  0.474100  1
  O  O2403  1  0.857900  0.435000  0.224100  1
  O  O2404  1  0.142100  0.565000  0.724100  1
  O  O2405  1  0.748300  0.463500  0.069100  1
  O  O2406  1  0.251700  0.536500  0.569100  1
  O  O2407  1  0.036500  0.248300  0.819100  1
  O  O2408  1  0.963500  0.751700  0.319100  1
  O  O2409  1  0.751700  0.963500  0.680900  1
  O  O2410  1  0.248300  0.036500  0.180900  1
  O  O2411  1  0.463500  0.748300  0.930900  1
  O  O2412  1  0.536500  0.251700  0.430900  1
  O  O2413  1  0.592900  0.064700  0.304700  1
  O  O2414  1  0.407100  0.935300  0.804700  1
  O  O2415  1  0.435300  0.092900  0.054700  1
  O  O2416  1  0.564700  0.907100  0.554700  1
  O  O2417  1  0.907100  0.564700  0.445300  1
  O  O2418  1  0.092900  0.435300  0.945300  1
  O  O2419  1  0.064700  0.592900  0.695300  1
  O  O2420  1  0.935300  0.407100  0.195300  1
  O  O2421  1  0.046300  0.294500  0.667200  1
  O  O2422  1  0.953700  0.705500  0.167200  1
  O  O2423  1  0.205500  0.546300  0.417200  1
  O  O2424  1  0.794500  0.453700  0.917200  1
  O  O2425  1  0.453700  0.794500  0.082800  1
  O  O2426  1  0.546300  0.205500  0.582800  1
  O  O2427  1  0.294500  0.046300  0.332800  1
  O  O2428  1  0.705500  0.953700  0.832800  1
  O  O2429  1  0.503200  0.795900  0.796500  1
  O  O2430  1  0.496800  0.204100  0.296500  1
  O  O2431  1  0.704100  0.003200  0.546500  1
  O  O2432  1  0.295900  0.996800  0.046500  1
  O  O2433  1  0.996800  0.295900  0.953500  1
  O  O2434  1  0.003200  0.704100  0.453500  1
  O  O2435  1  0.795900  0.503200  0.203500  1
  O  O2436  1  0.204100  0.496800  0.703500  1
  O  O2437  1  0.657200  0.329300  0.046300  1
  O  O2438  1  0.342800  0.670700  0.546300  1
  O  O2439  1  0.170700  0.157200  0.796300  1
  O  O2440  1  0.829300  0.842800  0.296300  1
  O  O2441  1  0.842800  0.829300  0.703700  1
  O  O2442  1  0.157200  0.170700  0.203700  1
  O  O2443  1  0.329300  0.657200  0.953700  1
  O  O2444  1  0.670700  0.342800  0.453700  1
  O  O2445  1  0.559400  0.663300  0.823700  1
  O  O2446  1  0.440600  0.336700  0.323700  1
  O  O2447  1  0.836700  0.059400  0.573700  1
  O  O2448  1  0.163300  0.940600  0.073700  1
  O  O2449  1  0.940600  0.163300  0.926300  1
  O  O2450  1  0.059400  0.836700  0.426300  1
  O  O2451  1  0.663300  0.559400  0.176300  1
  O  O2452  1  0.336700  0.440600  0.676300  1
  O  O2453  1  0.652400  0.800600  0.222800  1
  O  O2454  1  0.347600  0.199400  0.722800  1
  O  O2455  1  0.699400  0.152400  0.972800  1
  O  O2456  1  0.300600  0.847600  0.472800  1
  O  O2457  1  0.847600  0.300600  0.527200  1
  O  O2458  1  0.152400  0.699400  0.027200  1
  O  O2459  1  0.800600  0.652400  0.777200  1
  O  O2460  1  0.199400  0.347600  0.277200  1
  O  O2461  1  0.560100  0.791300  0.207000  1
  O  O2462  1  0.439900  0.208700  0.707000  1
  O  O2463  1  0.708700  0.060100  0.957000  1
  O  O2464  1  0.291300  0.939900  0.457000  1
  O  O2465  1  0.939900  0.291300  0.543000  1
  O  O2466  1  0.060100  0.708700  0.043000  1
  O  O2467  1  0.791300  0.560100  0.793000  1
  O  O2468  1  0.208700  0.439900  0.293000  1
  O  O2469  1  0.024300  0.207000  0.662600  1
  O  O2470  1  0.975700  0.793000  0.162600  1
  O  O2471  1  0.293000  0.524300  0.412600  1
  O  O2472  1  0.707000  0.475700  0.912600  1
  O  O2473  1  0.475700  0.707000  0.087400  1
  O  O2474  1  0.524300  0.293000  0.587400  1
  O  O2475  1  0.207000  0.024300  0.337400  1
  O  O2476  1  0.793000  0.975700  0.837400  1
  O  O2477  1  0.592200  0.060000  0.984900  1
  O  O2478  1  0.407800  0.940000  0.484900  1
  O  O2479  1  0.440000  0.092200  0.734900  1
  O  O2480  1  0.560000  0.907800  0.234900  1
  O  O2481  1  0.907800  0.560000  0.765100  1
  O  O2482  1  0.092200  0.440000  0.265100  1
  O  O2483  1  0.060000  0.592200  0.015100  1
  O  O2484  1  0.940000  0.407800  0.515100  1
  O  O2485  1  0.183400  0.086500  0.051200  1
  O  O2486  1  0.816600  0.913500  0.551200  1
  O  O2487  1  0.413500  0.683400  0.801200  1
  O  O2488  1  0.586500  0.316600  0.301200  1
  O  O2489  1  0.316600  0.586500  0.698800  1
  O  O2490  1  0.683400  0.413500  0.198800  1
  O  O2491  1  0.086500  0.183400  0.948800  1
  O  O2492  1  0.913500  0.816600  0.448800  1
  O  O2493  1  0.779600  0.898900  0.261800  1
  O  O2494  1  0.220400  0.101100  0.761800  1
  O  O2495  1  0.601100  0.279600  0.011800  1
  O  O2496  1  0.398900  0.720400  0.511800  1
  O  O2497  1  0.720400  0.398900  0.488200  1
  O  O2498  1  0.279600  0.601100  0.988200  1
  O  O2499  1  0.898900  0.779600  0.738200  1
  O  O2500  1  0.101100  0.220400  0.238200  1
  O  O2501  1  0.660900  0.727100  0.265400  1
  O  O2502  1  0.339100  0.272900  0.765400  1
  O  O2503  1  0.772900  0.160900  0.015400  1
  O  O2504  1  0.227100  0.839100  0.515400  1
  O  O2505  1  0.839100  0.227100  0.484600  1
  O  O2506  1  0.160900  0.772900  0.984600  1
  O  O2507  1  0.727100  0.660900  0.734600  1
  O  O2508  1  0.272900  0.339100  0.234600  1
  O  O2509  1  0.229900  0.838200  0.964100  1
  O  O2510  1  0.770100  0.161800  0.464100  1
  O  O2511  1  0.661800  0.729900  0.714100  1
  O  O2512  1  0.338200  0.270100  0.214100  1
  O  O2513  1  0.270100  0.338200  0.785900  1
  O  O2514  1  0.729900  0.661800  0.285900  1
  O  O2515  1  0.838200  0.229900  0.035900  1
  O  O2516  1  0.161800  0.770100  0.535900  1
  O  O2517  1  0.259600  0.855900  0.909100  1
  O  O2518  1  0.740400  0.144100  0.409100  1
  O  O2519  1  0.644100  0.759600  0.659100  1
  O  O2520  1  0.355900  0.240400  0.159100  1
  O  O2521  1  0.240400  0.355900  0.840900  1
  O  O2522  1  0.759600  0.644100  0.340900  1
  O  O2523  1  0.855900  0.259600  0.090900  1
  O  O2524  1  0.144100  0.740400  0.590900  1
  O  O2525  1  0.739400  0.021000  0.033000  1
  O  O2526  1  0.260600  0.979000  0.533000  1
  O  O2527  1  0.479000  0.239400  0.783000  1
  O  O2528  1  0.521000  0.760600  0.283000  1
  O  O2529  1  0.760600  0.521000  0.717000  1
  O  O2530  1  0.239400  0.479000  0.217000  1
  O  O2531  1  0.021000  0.739400  0.967000  1
  O  O2532  1  0.979000  0.260600  0.467000  1
  O  O2533  1  0.670600  0.047900  0.025500  1
  O  O2534  1  0.329400  0.952100  0.525500  1
  O  O2535  1  0.452100  0.170600  0.775500  1
  O  O2536  1  0.547900  0.829400  0.275500  1
  O  O2537  1  0.829400  0.547900  0.724500  1
  O  O2538  1  0.170600  0.452100  0.224500  1
  O  O2539  1  0.047900  0.670600  0.974500  1
  O  O2540  1  0.952100  0.329400  0.474500  1
  O  O2541  1  0.516600  0.721300  0.738700  1
  O  O2542  1  0.483400  0.278700  0.238700  1
  O  O2543  1  0.778700  0.016600  0.488700  1
  O  O2544  1  0.221300  0.983400  0.988700  1
  O  O2545  1  0.983400  0.221300  0.011300  1
  O  O2546  1  0.016600  0.778700  0.511300  1
  O  O2547  1  0.721300  0.516600  0.261300  1
  O  O2548  1  0.278700  0.483400  0.761300  1
  O  O2549  1  0.588600  0.673200  0.748000  1
  O  O2550  1  0.411400  0.326800  0.248000  1
  O  O2551  1  0.826800  0.088600  0.498000  1
  O  O2552  1  0.173200  0.911400  0.998000  1
  O  O2553  1  0.911400  0.173200  0.002000  1
  O  O2554  1  0.088600  0.826800  0.502000  1
  O  O2555  1  0.673200  0.588600  0.252000  1
  O  O2556  1  0.326800  0.411400  0.752000  1
  O  O2557  1  0.356400  0.059800  0.744000  1
  O  O2558  1  0.643600  0.940200  0.244000  1
  O  O2559  1  0.440200  0.856400  0.494000  1
  O  O2560  1  0.559800  0.143600  0.994000  1
  O  O2561  1  0.143600  0.559800  0.006000  1
  O  O2562  1  0.856400  0.440200  0.506000  1
  O  O2563  1  0.059800  0.356400  0.256000  1
  O  O2564  1  0.940200  0.643600  0.756000  1
  O  O2565  1  0.308300  0.984700  0.681400  1
  O  O2566  1  0.691700  0.015300  0.181400  1
  O  O2567  1  0.515300  0.808300  0.431400  1
  O  O2568  1  0.484700  0.191700  0.931400  1
  O  O2569  1  0.191700  0.484700  0.068600  1
  O  O2570  1  0.808300  0.515300  0.568600  1
  O  O2571  1  0.984700  0.308300  0.318600  1
  O  O2572  1  0.015300  0.691700  0.818600  1
  O  O2573  1  0.587400  0.609100  0.795400  1
  O  O2574  1  0.412600  0.390900  0.295400  1
  O  O2575  1  0.890900  0.087400  0.545400  1
  O  O2576  1  0.109100  0.912600  0.045400  1
  O  O2577  1  0.912600  0.109100  0.954600  1
  O  O2578  1  0.087400  0.890900  0.454600  1
  O  O2579  1  0.609100  0.587400  0.204600  1
  O  O2580  1  0.390900  0.412600  0.704600  1
  O  O2581  1  0.572300  0.579600  0.847100  1
  O  O2582  1  0.427700  0.420400  0.347100  1
  O  O2583  1  0.920400  0.072300  0.597100  1
  O  O2584  1  0.079600  0.927700  0.097100  1
  O  O2585  1  0.927700  0.079600  0.902900  1
  O  O2586  1  0.072300  0.920400  0.402900  1
  O  O2587  1  0.579600  0.572300  0.152900  1
  O  O2588  1  0.420400  0.427700  0.652900  1
  O  O2589  1  0.812200  0.922500  0.206900  1
  O  O2590  1  0.187800  0.077500  0.706900  1
  O  O2591  1  0.577500  0.312200  0.956900  1
  O  O2592  1  0.422500  0.687800  0.456900  1
  O  O2593  1  0.687800  0.422500  0.543100  1
  O  O2594  1  0.312200  0.577500  0.043100  1
  O  O2595  1  0.922500  0.812200  0.793100  1
  O  O2596  1  0.077500  0.187800  0.293100  1
  O  O2597  1  0.730000  0.493600  0.155100  1
  O  O2598  1  0.270000  0.506400  0.655100  1
  O  O2599  1  0.006400  0.230000  0.905100  1
  O  O2600  1  0.993600  0.770000  0.405100  1
  O  O2601  1  0.770000  0.993600  0.594900  1
  O  O2602  1  0.230000  0.006400  0.094900  1
  O  O2603  1  0.493600  0.730000  0.844900  1
  O  O2604  1  0.506400  0.270000  0.344900  1
  O  O2605  1  0.421700  0.679700  0.969400  1
  O  O2606  1  0.578300  0.320300  0.469400  1
  O  O2607  1  0.820300  0.921700  0.719400  1
  O  O2608  1  0.179700  0.078300  0.219400  1
  O  O2609  1  0.078300  0.179700  0.780600  1
  O  O2610  1  0.921700  0.820300  0.280600  1
  O  O2611  1  0.679700  0.421700  0.030600  1
  O  O2612  1  0.320300  0.578300  0.530600  1
  O  O2613  1  0.069600  0.150300  0.705800  1
  O  O2614  1  0.930400  0.849700  0.205800  1
  O  O2615  1  0.349700  0.569600  0.455800  1
  O  O2616  1  0.650300  0.430400  0.955800  1
  O  O2617  1  0.430400  0.650300  0.044200  1
  O  O2618  1  0.569600  0.349700  0.544200  1
  O  O2619  1  0.150300  0.069600  0.294200  1
  O  O2620  1  0.849700  0.930400  0.794200  1
  O  O2621  1  0.355900  0.104500  0.747400  1
  O  O2622  1  0.644100  0.895500  0.247400  1
  O  O2623  1  0.395500  0.855900  0.497400  1
  O  O2624  1  0.604500  0.144100  0.997400  1
  O  O2625  1  0.144100  0.604500  0.002600  1
  O  O2626  1  0.855900  0.395500  0.502600  1
  O  O2627  1  0.104500  0.355900  0.252600  1
  O  O2628  1  0.895500  0.644100  0.752600  1
  O  O2629  1  0.305600  0.131300  0.760700  1
  O  O2630  1  0.694400  0.868700  0.260700  1
  O  O2631  1  0.368700  0.805600  0.510700  1
  O  O2632  1  0.631300  0.194400  0.010700  1
  O  O2633  1  0.194400  0.631300  0.989300  1
  O  O2634  1  0.805600  0.368700  0.489300  1
  O  O2635  1  0.131300  0.305600  0.239300  1
  O  O2636  1  0.868700  0.694400  0.739300  1
  O  O2637  1  0.971500  0.082900  0.637500  1
  O  O2638  1  0.028500  0.917100  0.137500  1
  O  O2639  1  0.417100  0.471500  0.387500  1
  O  O2640  1  0.582900  0.528500  0.887500  1
  O  O2641  1  0.528500  0.582900  0.112500  1
  O  O2642  1  0.471500  0.417100  0.612500  1
  O  O2643  1  0.082900  0.971500  0.362500  1
  O  O2644  1  0.917100  0.028500  0.862500  1
  O  O2645  1  0.423600  0.663500  0.939600  1
  O  O2646  1  0.576400  0.336500  0.439600  1
  O  O2647  1  0.836500  0.923600  0.689600  1
  O  O2648  1  0.163500  0.076400  0.189600  1
  O  O2649  1  0.076400  0.163500  0.810400  1
  O  O2650  1  0.923600  0.836500  0.310400  1
  O  O2651  1  0.663500  0.423600  0.060400  1
  O  O2652  1  0.336500  0.576400  0.560400  1
  O  O2653  1  0.086200  0.109100  0.703600  1
  O  O2654  1  0.913800  0.890900  0.203600  1
  O  O2655  1  0.390900  0.586200  0.453600  1
  O  O2656  1  0.609100  0.413800  0.953600  1
  O  O2657  1  0.413800  0.609100  0.046400  1
  O  O2658  1  0.586200  0.390900  0.546400  1
  O  O2659  1  0.109100  0.086200  0.296400  1
  O  O2660  1  0.890900  0.913800  0.796400  1
  O  O2661  1  0.775300  0.485400  0.121900  1
  O  O2662  1  0.224700  0.514600  0.621900  1
  O  O2663  1  0.014600  0.275300  0.871900  1
  O  O2664  1  0.985400  0.724700  0.371900  1
  O  O2665  1  0.724700  0.985400  0.628100  1
  O  O2666  1  0.275300  0.014600  0.128100  1
  O  O2667  1  0.485400  0.775300  0.878100  1
  O  O2668  1  0.514600  0.224700  0.378100  1
  O  O2669  1  0.685900  0.460100  0.134200  1
  O  O2670  1  0.314100  0.539900  0.634200  1
  O  O2671  1  0.039900  0.185900  0.884200  1
  O  O2672  1  0.960100  0.814100  0.384200  1
  O  O2673  1  0.814100  0.960100  0.615800  1
  O  O2674  1  0.185900  0.039900  0.115800  1
  O  O2675  1  0.460100  0.685900  0.865800  1
  O  O2676  1  0.539900  0.314100  0.365800  1
