
#######################################################################
#
#                 Cambridge Crystallographic Data Centre
#                                CCDC 
#
#######################################################################
#
# If this CIF has been generated from an entry in the Cambridge 
# Structural Database, then it will include bibliographic, chemical, 
# crystal, experimental, refinement or atomic coordinate data resulting 
# from the CCDC's data processing and validation procedures.
#
#######################################################################

data_NAPFOB
_chemical_formula_moiety         
'C72 H44 N8 Pt2 4+,4(C2 H6 O1 S1),4(F6 P1 1-),5(C6 H6)'
_chemical_name_systematic        
"bis(\m~2~-7-[3'-(pyridin-2-yl)biphenyl-3-yl]quinolino[8,7-b][1,10]phenanthroline)-di-platinum(ii) tetrakis(hexafluorophosphate) dimethyl sulfoxide benzene solvate"
_symmetry_cell_setting           triclinic
_symmetry_space_group_name_H-M   'P -1'
_symmetry_Int_Tables_number      2
_space_group_name_Hall           '-P 1'
loop_
_symmetry_equiv_pos_site_id
_symmetry_equiv_pos_as_xyz
1 x,y,z
2 -x,-y,-z
_cell_length_a                   13.3367(5)
_cell_length_b                   14.1431(4)
_cell_length_c                   15.6832(5)
_cell_angle_alpha                89.3924(9)
_cell_angle_beta                 73.2174(11)
_cell_angle_gamma                72.0142(11)
_cell_volume                     2683.76
_exptl_crystal_colour            yellow
_exptl_crystal_description       prismatic
_cell_formula_units_Z            1
_exptl_crystal_recrystallization_method 'dimethyl sulfoxide/benzene'
loop_
_atom_site_label
_atom_site_type_symbol
_atom_site_fract_x
_atom_site_fract_y
_atom_site_fract_z
Pt1 Pt 0.469469(10) 0.290179(8) 0.324737(8)
C1 C 0.4531(3) 0.4666(3) 0.2319(2)
N1 N 0.5208(3) 0.3678(2) 0.2198(2)
C2 C 0.6053(3) 0.3417(3) 0.1446(3)
H1 H 0.6548 0.2753 0.1345
C3 C 0.6236(4) 0.4089(3) 0.0799(3)
H2 H 0.6839 0.3870 0.0267
C4 C 0.5554(4) 0.5059(3) 0.0925(3)
H3 H 0.5681 0.5510 0.0484
C5 C 0.4662(3) 0.5380(3) 0.1716(2)
C6 C 0.3644(3) 0.4947(2) 0.3133(2)
N2 N 0.3621(2) 0.4209(2) 0.36610(19)
C7 C 0.2862(3) 0.4329(2) 0.4440(2)
C8 C 0.2031(3) 0.5249(2) 0.4766(2)
C9 C 0.2097(3) 0.6000(2) 0.4195(2)
C10 C 0.2873(3) 0.5909(3) 0.3374(2)
C11 C 0.2936(3) 0.3443(2) 0.4890(2)
N3 N 0.3777(2) 0.2595(2) 0.44488(19)
C12 C 0.3846(3) 0.1748(2) 0.4841(3)
H4 H 0.4421 0.1155 0.4559
C13 C 0.3081(3) 0.1715(3) 0.5669(3)
H5 H 0.3146 0.1097 0.5929
C14 C 0.2248(3) 0.2553(3) 0.6104(2)
H6 H 0.1742 0.2523 0.6664
C15 C 0.2154(3) 0.3467(2) 0.5704(2)
C16 C 0.3889(3) 0.6383(3) 0.1964(3)
H7 H 0.3974 0.6883 0.1566
C17 C 0.3045(3) 0.6637(3) 0.2744(3)
H8 H 0.2561 0.7306 0.2875
C18 C 0.1247(3) 0.5251(3) 0.5620(2)
H9 H 0.0675 0.5853 0.5883
C19 C 0.1309(3) 0.4412(3) 0.6055(2)
H10 H 0.0774 0.4447 0.6616
C20 C 0.1173(3) 0.7044(2) 0.4501(2)
C21 C 0.1049(3) 0.7578(2) 0.5286(2)
H11 H 0.1508 0.7296 0.5649
C22 C 0.0263(3) 0.8525(2) 0.5549(2)
C23 C -0.0426(3) 0.8920(2) 0.5020(2)
H12 H -0.0976 0.9555 0.5196
C24 C -0.0309(3) 0.8389(3) 0.4240(2)
H13 H -0.0783 0.8664 0.3887
C25 C 0.0490(3) 0.7462(2) 0.3969(2)
H14 H 0.0576 0.7112 0.3425
C26 C 0.0216(3) 0.9116(2) 0.6346(2)
C27 C 0.1193(3) 0.9056(2) 0.6523(2)
H15 H 0.1870 0.8626 0.6139
C28 C 0.1217(3) 0.9605(2) 0.7246(2)
C29 C 0.0211(3) 1.0244(2) 0.7805(2)
H16 H 0.0202 1.0622 0.8306
C30 C -0.0770(3) 1.0322(3) 0.7624(2)
H17 H -0.1446 1.0763 0.7998
C31 C -0.0777(3) 0.9766(3) 0.6908(2)
H18 H -0.1455 0.9825 0.6796
C32 C 0.2290(3) 0.9514(2) 0.7377(2)
C33 C 0.3124(3) 0.8597(2) 0.7153(2)
H19 H 0.2954 0.8039 0.6976
N4 N 0.5844(2) 0.1535(2) 0.2824(2)
C34 C 0.5599(3) 0.0749(3) 0.2559(3)
H20 H 0.4863 0.0834 0.2561
C35 C 0.6391(3) -0.0171(3) 0.2287(3)
H21 H 0.6209 -0.0707 0.2081
C36 C 0.2544(3) 1.0311(3) 0.7683(3)
H22 H 0.1992 1.0943 0.7869
Pt1A Pt 0.530531(10) 0.709821(8) 0.675263(8)
C1A C 0.5469(3) 0.5334(3) 0.7681(2)
N1A N 0.4792(3) 0.6322(2) 0.7802(2)
C2A C 0.3947(3) 0.6583(3) 0.8554(3)
H1A H 0.3452 0.7247 0.8655
C3A C 0.3764(4) 0.5911(3) 0.9201(3)
H2A H 0.3161 0.6130 0.9733
C4A C 0.4446(4) 0.4941(3) 0.9075(3)
H3A H 0.4319 0.4490 0.9516
C5A C 0.5338(3) 0.4620(3) 0.8284(2)
C6A C 0.6356(3) 0.5053(2) 0.6867(2)
N2A N 0.6379(2) 0.5791(2) 0.63390(19)
C7A C 0.7138(3) 0.5671(2) 0.5560(2)
C8A C 0.7969(3) 0.4751(2) 0.5234(2)
C9A C 0.7903(3) 0.4000(2) 0.5805(2)
C10A C 0.7127(3) 0.4091(3) 0.6626(2)
C11A C 0.7064(3) 0.6557(2) 0.5110(2)
N3A N 0.6223(2) 0.7405(2) 0.55512(19)
C12A C 0.6154(3) 0.8252(2) 0.5159(3)
H4A H 0.5579 0.8845 0.5441
C13A C 0.6919(3) 0.8285(3) 0.4331(3)
H5A H 0.6854 0.8903 0.4071
C14A C 0.7752(3) 0.7447(3) 0.3896(2)
H6A H 0.8258 0.7477 0.3336
C15A C 0.7846(3) 0.6533(2) 0.4296(2)
C16A C 0.6111(3) 0.3617(3) 0.8036(3)
H7A H 0.6026 0.3117 0.8434
C17A C 0.6955(3) 0.3363(3) 0.7256(3)
H8A H 0.7439 0.2694 0.7125
C18A C 0.8753(3) 0.4749(3) 0.4380(2)
H9A H 0.9325 0.4147 0.4117
C19A C 0.8691(3) 0.5588(3) 0.3945(2)
H10A H 0.9226 0.5553 0.3384
C20A C 0.8827(3) 0.2956(2) 0.5499(2)
C21A C 0.8951(3) 0.2422(2) 0.4714(2)
H11A H 0.8492 0.2704 0.4351
C22A C 0.9737(3) 0.1475(2) 0.4451(2)
C23A C 1.0426(3) 0.1080(2) 0.4980(2)
H12A H 1.0976 0.0445 0.4804
C24A C 1.0309(3) 0.1611(3) 0.5760(2)
H13A H 1.0783 0.1336 0.6113
C25A C 0.9510(3) 0.2538(2) 0.6031(2)
H14A H 0.9424 0.2888 0.6575
C26A C 0.9784(3) 0.0884(2) 0.3654(2)
C27A C 0.8807(3) 0.0944(2) 0.3477(2)
H15A H 0.8130 0.1374 0.3861
C28A C 0.8783(3) 0.0395(2) 0.2754(2)
C29A C 0.9789(3) -0.0244(2) 0.2195(2)
H16A H 0.9798 -0.0622 0.1694
C30A C 1.0770(3) -0.0322(3) 0.2376(2)
H17A H 1.1446 -0.0763 0.2002
C31A C 1.0777(3) 0.0234(3) 0.3092(2)
H18A H 1.1455 0.0175 0.3204
C32A C 0.7710(3) 0.0486(2) 0.2623(2)
C33A C 0.6876(3) 0.1403(2) 0.2847(2)
H19A H 0.7046 0.1961 0.3024
N4A N 0.4156(2) 0.8465(2) 0.7176(2)
C34A C 0.4401(3) 0.9251(3) 0.7441(3)
H20A H 0.5137 0.9166 0.7439
C35A C 0.3609(3) 1.0171(3) 0.7713(3)
H21A H 0.3791 1.0707 0.7919
C36A C 0.7456(3) -0.0311(3) 0.2317(3)
H22A H 0.8008 -0.0943 0.2131
P1 P 0.62049(9) 0.09810(8) 0.59410(8)
F1 F 0.5217(2) 0.05526(19) 0.5963(2)
F2 F 0.7211(3) 0.1373(2) 0.5888(2)
F3 F 0.5314(9) 0.2072(6) 0.6087(10)
F4 F 0.5923(9) 0.1015(12) 0.7017(5)
F5 F 0.6972(7) -0.0121(5) 0.5880(11)
F6 F 0.6389(8) 0.0967(14) 0.4927(5)
P2 P -0.0611(6) 0.3394(6) 0.8764(5)
F7 F -0.0931(7) 0.2613(4) 0.8283(5)
F8 F -0.0347(8) 0.4285(5) 0.9166(5)
F9 F -0.1857(5) 0.4113(5) 0.9011(5)
F10 F -0.0843(8) 0.2916(5) 0.9648(4)
F11 F 0.0650(5) 0.2724(5) 0.8449(5)
F12 F -0.0402(11) 0.3954(10) 0.7915(7)
S1 S 0.89805(9) 0.32281(8) 0.23470(7)
O1 O 0.7905(3) 0.3156(3) 0.2322(3)
C37 C 0.9168(5) 0.4261(3) 0.1737(4)
H23 H 0.9074 0.4183 0.1148
H24 H 0.9913 0.4289 0.1665
H25 H 0.8620 0.4879 0.2064
C38 C 1.0045(4) 0.2285(3) 0.1568(3)
H26 H 0.9999 0.1628 0.1741
H27 H 1.0766 0.2329 0.1563
H28 H 0.9958 0.2377 0.0970
S2 S 0.67398(12) 0.72972(9) 0.09284(9)
O2 O 0.5813(3) 0.7220(3) 0.0606(2)
C39 C 0.6614(6) 0.6768(5) 0.1975(4)
H29 H 0.5934 0.7175 0.2419
H30 H 0.7252 0.6749 0.2175
H31 H 0.6589 0.6088 0.1908
C40 C 0.7949(4) 0.6334(4) 0.0283(3)
H32 H 0.7788 0.5703 0.0286
H33 H 0.8552 0.6261 0.0542
H34 H 0.8168 0.6512 -0.0334
C41 C 0.1698(4) 0.3818(4) 0.2915(3)
H35 H 0.1242 0.4470 0.3172
C42 C 0.2385(5) 0.3687(4) 0.2062(4)
H36 H 0.2433 0.4242 0.1725
C43 C 0.3032(5) 0.2692(6) 0.1688(4)
H37 H 0.3525 0.2563 0.1096
C44 C 0.2909(5) 0.1910(4) 0.2230(5)
H38 H 0.3308 0.1240 0.1992
C45 C 0.2257(5) 0.2085(4) 0.3058(5)
H39 H 0.2210 0.1542 0.3412
C46 C 0.1661(4) 0.3009(4) 0.3408(4)
H40 H 0.1200 0.3116 0.4009
C47 C 0.3697(7) 0.9204(7) 0.0276(5)
H41 H 0.4392 0.8995 0.0388
C48 C 0.3204(7) 1.0200(6) 0.0160(5)
H42 H 0.3564 1.0672 0.0211
C49 C 0.2256(6) 1.0505(4) -0.0017(4)
H43 H 0.1948 1.1190 -0.0095
C50 C 0.1696(5) 0.9843(6) -0.0092(3)
H44 H 0.1013 1.0065 -0.0225
C51 C 0.2166(8) 0.8842(6) 0.0033(4)
H45 H 0.1818 0.8357 -0.0008
C52 C 0.3203(9) 0.8584(6) 0.0228(4)
H46 H 0.3534 0.7911 0.0327
C53 C 0.4160(4) 0.5377(4) 0.5781(4)
H47 H 0.3579 0.5639 0.6320
C54 C 0.4370(4) 0.5983(3) 0.5102(4)
H48 H 0.3930 0.6666 0.5176
C55 C 0.4806(5) 0.4381(4) 0.5668(4)
H49 H 0.4670 0.3956 0.6130
C53A C 0.5840(4) 0.4623(4) 0.4219(4)
H47A H 0.6421 0.4361 0.3680
C54A C 0.5630(4) 0.4017(3) 0.4898(4)
H48A H 0.6070 0.3334 0.4824
C55A C 0.5194(5) 0.5619(4) 0.4332(4)
H49A H 0.5330 0.6044 0.3870
F13? F 0.6126(13) 0.1556(17) 0.5031(13)
F14? F -0.0503(8) 0.4076(5) 0.9414(5)
F15? F -0.0010(7) 0.2402(4) 0.7902(4)
F16? F -0.1523(6) 0.3182(8) 0.9002(5)
F17? F 0.0106(8) 0.2484(5) 0.9281(5)
F18? F 0.0871(6) 0.3353(8) 0.8259(5)
F19? F -0.0682(12) 0.4009(9) 0.7871(8)
F20? F 0.5404(14) 0.1904(16) 0.6498(17)
F21? F 0.6373(15) 0.0369(19) 0.6716(15)
F22? F 0.7106(8) 0.0046(12) 0.5242(18)
P3? P -0.0355(6) 0.3291(6) 0.8643(5)
loop_
_geom_bond_atom_site_label_1
_geom_bond_atom_site_label_2
_geom_bond_site_symmetry_1
_geom_bond_site_symmetry_2
Pt1 N1 1_555 1_555
C1 N1 1_555 1_555
N1 C2 1_555 1_555
C2 H1 1_555 1_555
C3 C2 1_555 1_555
H2 C3 1_555 1_555
C4 C3 1_555 1_555
H3 C4 1_555 1_555
C5 C1 1_555 1_555
C6 C1 1_555 1_555
N2 Pt1 1_555 1_555
C7 N2 1_555 1_555
C8 C7 1_555 1_555
C9 C8 1_555 1_555
C10 C6 1_555 1_555
C11 C7 1_555 1_555
N3 Pt1 1_555 1_555
C12 N3 1_555 1_555
H4 C12 1_555 1_555
C13 C12 1_555 1_555
H5 C13 1_555 1_555
C14 C13 1_555 1_555
H6 C14 1_555 1_555
C15 C11 1_555 1_555
C16 C5 1_555 1_555
H7 C16 1_555 1_555
C17 C10 1_555 1_555
H8 C17 1_555 1_555
C18 C8 1_555 1_555
H9 C18 1_555 1_555
C19 C15 1_555 1_555
H10 C19 1_555 1_555
C20 C9 1_555 1_555
C21 C20 1_555 1_555
H11 C21 1_555 1_555
C22 C21 1_555 1_555
C23 C22 1_555 1_555
H12 C23 1_555 1_555
C24 C23 1_555 1_555
H13 C24 1_555 1_555
C25 C20 1_555 1_555
H14 C25 1_555 1_555
C26 C22 1_555 1_555
C27 C26 1_555 1_555
H15 C27 1_555 1_555
C28 C27 1_555 1_555
C29 C28 1_555 1_555
H16 C29 1_555 1_555
C30 C29 1_555 1_555
H17 C30 1_555 1_555
C31 C26 1_555 1_555
H18 C31 1_555 1_555
C32 C28 1_555 1_555
C33 C32 1_555 1_555
H19 C33 1_555 1_555
N4 Pt1 1_555 1_555
C34 N4 1_555 1_555
H20 C34 1_555 1_555
C35 C34 1_555 1_555
H21 C35 1_555 1_555
C36 C32 1_555 1_555
H22 C36 1_555 1_555
P1 F1 1_555 1_555
F2 P1 1_555 1_555
F3 P1 1_555 1_555
F4 P1 1_555 1_555
F5 P1 1_555 1_555
F6 P1 1_555 1_555
P2 F7 1_555 1_555
F8 P2 1_555 1_555
F9 P2 1_555 1_555
F10 P2 1_555 1_555
F11 P2 1_555 1_555
F12 P2 1_555 1_555
S1 O1 1_555 1_555
C37 S1 1_555 1_555
H23 C37 1_555 1_555
H24 C37 1_555 1_555
H25 C37 1_555 1_555
C38 S1 1_555 1_555
H26 C38 1_555 1_555
H27 C38 1_555 1_555
H28 C38 1_555 1_555
S2 O2 1_555 1_555
C39 S2 1_555 1_555
H29 C39 1_555 1_555
H30 C39 1_555 1_555
H31 C39 1_555 1_555
C40 S2 1_555 1_555
H32 C40 1_555 1_555
H33 C40 1_555 1_555
H34 C40 1_555 1_555
C41 H35 1_555 1_555
C42 C41 1_555 1_555
H36 C42 1_555 1_555
C43 C42 1_555 1_555
H37 C43 1_555 1_555
C44 C43 1_555 1_555
H38 C44 1_555 1_555
C45 C44 1_555 1_555
H39 C45 1_555 1_555
C46 C41 1_555 1_555
H40 C46 1_555 1_555
C47 H41 1_555 1_555
C48 C47 1_555 1_555
H42 C48 1_555 1_555
C49 C48 1_555 1_555
H43 C49 1_555 1_555
C50 C49 1_555 1_555
H44 C50 1_555 1_555
C51 C50 1_555 1_555
H45 C51 1_555 1_555
C52 C47 1_555 1_555
H46 C52 1_555 1_555
C53 H47 1_555 1_555
C54 C53 1_555 1_555
H48 C54 1_555 1_555
C55 C53 1_555 1_555
H49 C55 1_555 1_555
Pt1A N1A 1_555 1_555
C1A N1A 1_555 1_555
N1A C2A 1_555 1_555
C2A H1A 1_555 1_555
C3A C2A 1_555 1_555
H2A C3A 1_555 1_555
C4A C3A 1_555 1_555
H3A C4A 1_555 1_555
C5A C1A 1_555 1_555
C6A C1A 1_555 1_555
N2A Pt1A 1_555 1_555
C7A N2A 1_555 1_555
C8A C7A 1_555 1_555
C9A C8A 1_555 1_555
C10A C6A 1_555 1_555
C11A C7A 1_555 1_555
N3A Pt1A 1_555 1_555
C12A N3A 1_555 1_555
H4A C12A 1_555 1_555
C13A C12A 1_555 1_555
H5A C13A 1_555 1_555
C14A C13A 1_555 1_555
H6A C14A 1_555 1_555
C15A C11A 1_555 1_555
C16A C5A 1_555 1_555
H7A C16A 1_555 1_555
C17A C10A 1_555 1_555
H8A C17A 1_555 1_555
C18A C8A 1_555 1_555
H9A C18A 1_555 1_555
C19A C15A 1_555 1_555
H10A C19A 1_555 1_555
C20A C9A 1_555 1_555
C21A C20A 1_555 1_555
H11A C21A 1_555 1_555
C22A C21A 1_555 1_555
C23A C22A 1_555 1_555
H12A C23A 1_555 1_555
C24A C23A 1_555 1_555
H13A C24A 1_555 1_555
C25A C20A 1_555 1_555
H14A C25A 1_555 1_555
C26A C22A 1_555 1_555
C27A C26A 1_555 1_555
H15A C27A 1_555 1_555
C28A C27A 1_555 1_555
C29A C28A 1_555 1_555
H16A C29A 1_555 1_555
C30A C29A 1_555 1_555
H17A C30A 1_555 1_555
C31A C26A 1_555 1_555
H18A C31A 1_555 1_555
C32A C28A 1_555 1_555
C33A N4 1_555 1_555
H19A C33A 1_555 1_555
N4A C33 1_555 1_555
C34A N4A 1_555 1_555
H20A C34A 1_555 1_555
C35A C36 1_555 1_555
H21A C35A 1_555 1_555
C36A C35 1_555 1_555
H22A C36A 1_555 1_555
C53A H47A 1_555 1_555
C54A C55 1_555 1_555
H48A C54A 1_555 1_555
C55A C54 1_555 1_555
H49A C55A 1_555 1_555
C4 C5 1_555 1_555
C6 N2 1_555 1_555
C9 C10 1_555 1_555
C11 N3 1_555 1_555
C14 C15 1_555 1_555
C16 C17 1_555 1_555
C18 C19 1_555 1_555
C24 C25 1_555 1_555
C30 C31 1_555 1_555
C45 C46 1_555 1_555
C51 C52 1_555 1_555
Pt1A N4A 1_555 1_555
C4A C5A 1_555 1_555
C6A N2A 1_555 1_555
C9A C10A 1_555 1_555
C11A N3A 1_555 1_555
C14A C15A 1_555 1_555
C16A C17A 1_555 1_555
C18A C19A 1_555 1_555
C24A C25A 1_555 1_555
C30A C31A 1_555 1_555
C32A C33A 1_555 1_555
C32A C36A 1_555 1_555
C34A C35A 1_555 1_555
C53A C54A 1_555 1_555
C53A C55A 1_555 1_555

#END
