# generated using pymatgen
data_BPH90PtC56S10N4O9F10
_symmetry_space_group_name_H-M   'P 1'
_cell_length_a   15.55700000
_cell_length_b   25.79700000
_cell_length_c   31.98167120
_cell_angle_alpha   109.40057565
_cell_angle_beta   90.00000000
_cell_angle_gamma   90.00000000
_symmetry_Int_Tables_number   1
_chemical_formula_structural   BPH90PtC56S10N4O9F10
_chemical_formula_sum   'B8 P8 H720 Pt8 C448 S80 N32 O72 F80'
_cell_volume   12106.22935791
_cell_formula_units_Z   8
loop_
 _symmetry_equiv_pos_site_id
 _symmetry_equiv_pos_as_xyz
  1  'x, y, z'
loop_
 _atom_site_type_symbol
 _atom_site_label
 _atom_site_symmetry_multiplicity
 _atom_site_fract_x
 _atom_site_fract_y
 _atom_site_fract_z
 _atom_site_occupancy
  B  B1  1  0.147600  0.904800  0.507000  1
  B  B2  1  0.147600  0.595200  0.493000  1
  B  B3  1  0.647600  0.404800  0.007000  1
  B  B4  1  0.647600  0.095200  0.993000  1
  B  B5  1  0.852400  0.095200  0.493000  1
  B  B6  1  0.852400  0.404800  0.507000  1
  B  B7  1  0.352400  0.595200  0.993000  1
  B  B8  1  0.352400  0.904800  0.007000  1
  P  P9  1  0.077400  0.985370  0.248010  1
  P  P10  1  0.077400  0.514630  0.751990  1
  P  P11  1  0.577400  0.485370  0.748010  1
  P  P12  1  0.577400  0.014630  0.251990  1
  P  P13  1  0.922600  0.014630  0.751990  1
  P  P14  1  0.922600  0.485370  0.248010  1
  P  P15  1  0.422600  0.514630  0.251990  1
  P  P16  1  0.422600  0.985370  0.748010  1
  H  H17  1  0.327200  0.919100  0.145900  1
  H  H18  1  0.327200  0.580900  0.854100  1
  H  H19  1  0.827200  0.419100  0.645900  1
  H  H20  1  0.827200  0.080900  0.354100  1
  H  H21  1  0.672800  0.080900  0.854100  1
  H  H22  1  0.672800  0.419100  0.145900  1
  H  H23  1  0.172800  0.580900  0.354100  1
  H  H24  1  0.172800  0.919100  0.645900  1
  H  H25  1  0.383000  0.938500  0.190500  1
  H  H26  1  0.383000  0.561500  0.809500  1
  H  H27  1  0.883000  0.438500  0.690500  1
  H  H28  1  0.883000  0.061500  0.309500  1
  H  H29  1  0.617000  0.061500  0.809500  1
  H  H30  1  0.617000  0.438500  0.190500  1
  H  H31  1  0.117000  0.561500  0.309500  1
  H  H32  1  0.117000  0.938500  0.690500  1
  H  H33  1  0.280400  0.943200  0.192900  1
  H  H34  1  0.280400  0.556800  0.807100  1
  H  H35  1  0.780400  0.443200  0.692900  1
  H  H36  1  0.780400  0.056800  0.307100  1
  H  H37  1  0.719600  0.056800  0.807100  1
  H  H38  1  0.719600  0.443200  0.192900  1
  H  H39  1  0.219600  0.556800  0.307100  1
  H  H40  1  0.219600  0.943200  0.692900  1
  H  H41  1  0.325400  0.838200  0.242900  1
  H  H42  1  0.325400  0.661800  0.757100  1
  H  H43  1  0.825400  0.338200  0.742900  1
  H  H44  1  0.825400  0.161800  0.257100  1
  H  H45  1  0.674600  0.161800  0.757100  1
  H  H46  1  0.674600  0.338200  0.242900  1
  H  H47  1  0.174600  0.661800  0.257100  1
  H  H48  1  0.174600  0.838200  0.742900  1
  H  H49  1  0.280500  0.895700  0.247800  1
  H  H50  1  0.280500  0.604300  0.752200  1
  H  H51  1  0.780500  0.395700  0.747800  1
  H  H52  1  0.780500  0.104300  0.252200  1
  H  H53  1  0.719500  0.104300  0.752200  1
  H  H54  1  0.719500  0.395700  0.247800  1
  H  H55  1  0.219500  0.604300  0.252200  1
  H  H56  1  0.219500  0.895700  0.747800  1
  H  H57  1  0.382900  0.890100  0.244400  1
  H  H58  1  0.382900  0.609900  0.755600  1
  H  H59  1  0.882900  0.390100  0.744400  1
  H  H60  1  0.882900  0.109900  0.255600  1
  H  H61  1  0.617100  0.109900  0.755600  1
  H  H62  1  0.617100  0.390100  0.244400  1
  H  H63  1  0.117100  0.609900  0.255600  1
  H  H64  1  0.117100  0.890100  0.744400  1
  H  H65  1  0.558900  0.171800  0.685300  1
  H  H66  1  0.558900  0.328200  0.314700  1
  H  H67  1  0.058900  0.671800  0.185300  1
  H  H68  1  0.058900  0.828200  0.814700  1
  H  H69  1  0.441100  0.828200  0.314700  1
  H  H70  1  0.441100  0.671800  0.685300  1
  H  H71  1  0.941100  0.328200  0.814700  1
  H  H72  1  0.941100  0.171800  0.185300  1
  H  H73  1  0.640200  0.211200  0.689100  1
  H  H74  1  0.640200  0.288800  0.310900  1
  H  H75  1  0.140200  0.711200  0.189100  1
  H  H76  1  0.140200  0.788800  0.810900  1
  H  H77  1  0.359800  0.788800  0.310900  1
  H  H78  1  0.359800  0.711200  0.689100  1
  H  H79  1  0.859800  0.288800  0.810900  1
  H  H80  1  0.859800  0.211200  0.189100  1
  H  H81  1  0.647800  0.146900  0.662000  1
  H  H82  1  0.647800  0.353100  0.338000  1
  H  H83  1  0.147800  0.646900  0.162000  1
  H  H84  1  0.147800  0.853100  0.838000  1
  H  H85  1  0.352200  0.853100  0.338000  1
  H  H86  1  0.352200  0.646900  0.662000  1
  H  H87  1  0.852200  0.353100  0.838000  1
  H  H88  1  0.852200  0.146900  0.162000  1
  H  H89  1  0.669100  0.208400  0.572900  1
  H  H90  1  0.669100  0.291600  0.427100  1
  H  H91  1  0.169100  0.708400  0.072900  1
  H  H92  1  0.169100  0.791600  0.927100  1
  H  H93  1  0.330900  0.791600  0.427100  1
  H  H94  1  0.330900  0.708400  0.572900  1
  H  H95  1  0.830900  0.291600  0.927100  1
  H  H96  1  0.830900  0.208400  0.072900  1
  H  H97  1  0.712900  0.168300  0.595600  1
  H  H98  1  0.712900  0.331700  0.404400  1
  H  H99  1  0.212900  0.668300  0.095600  1
  H  H100  1  0.212900  0.831700  0.904400  1
  H  H101  1  0.287100  0.831700  0.404400  1
  H  H102  1  0.287100  0.668300  0.595600  1
  H  H103  1  0.787100  0.331700  0.904400  1
  H  H104  1  0.787100  0.168300  0.095600  1
  H  H105  1  0.706000  0.232800  0.622300  1
  H  H106  1  0.706000  0.267200  0.377700  1
  H  H107  1  0.206000  0.732800  0.122300  1
  H  H108  1  0.206000  0.767200  0.877700  1
  H  H109  1  0.294000  0.767200  0.377700  1
  H  H110  1  0.294000  0.732800  0.622300  1
  H  H111  1  0.794000  0.267200  0.877700  1
  H  H112  1  0.794000  0.232800  0.122300  1
  H  H113  1  0.166200  0.173400  0.644800  1
  H  H114  1  0.166200  0.326600  0.355200  1
  H  H115  1  0.666200  0.673400  0.144800  1
  H  H116  1  0.666200  0.826600  0.855200  1
  H  H117  1  0.833800  0.826600  0.355200  1
  H  H118  1  0.833800  0.673400  0.644800  1
  H  H119  1  0.333800  0.326600  0.855200  1
  H  H120  1  0.333800  0.173400  0.144800  1
  H  H121  1  0.192300  0.160000  0.593900  1
  H  H122  1  0.192300  0.340000  0.406100  1
  H  H123  1  0.692300  0.660000  0.093900  1
  H  H124  1  0.692300  0.840000  0.906100  1
  H  H125  1  0.807700  0.840000  0.406100  1
  H  H126  1  0.807700  0.660000  0.593900  1
  H  H127  1  0.307700  0.340000  0.906100  1
  H  H128  1  0.307700  0.160000  0.093900  1
  H  H129  1  0.095900  0.149500  0.606600  1
  H  H130  1  0.095900  0.350500  0.393400  1
  H  H131  1  0.595900  0.649500  0.106600  1
  H  H132  1  0.595900  0.850500  0.893400  1
  H  H133  1  0.904100  0.850500  0.393400  1
  H  H134  1  0.904100  0.649500  0.606600  1
  H  H135  1  0.404100  0.350500  0.893400  1
  H  H136  1  0.404100  0.149500  0.106600  1
  H  H137  1  0.062200  0.266600  0.561700  1
  H  H138  1  0.062200  0.233400  0.438300  1
  H  H139  1  0.562200  0.766600  0.061700  1
  H  H140  1  0.562200  0.733400  0.938300  1
  H  H141  1  0.937800  0.733400  0.438300  1
  H  H142  1  0.937800  0.766600  0.561700  1
  H  H143  1  0.437800  0.233400  0.938300  1
  H  H144  1  0.437800  0.266600  0.061700  1
  H  H145  1  0.028600  0.207100  0.559400  1
  H  H146  1  0.028600  0.292900  0.440600  1
  H  H147  1  0.528600  0.707100  0.059400  1
  H  H148  1  0.528600  0.792900  0.940600  1
  H  H149  1  0.971400  0.792900  0.440600  1
  H  H150  1  0.971400  0.707100  0.559400  1
  H  H151  1  0.471400  0.292900  0.940600  1
  H  H152  1  0.471400  0.207100  0.059400  1
  H  H153  1  0.123900  0.214200  0.543200  1
  H  H154  1  0.123900  0.285800  0.456800  1
  H  H155  1  0.623900  0.714200  0.043200  1
  H  H156  1  0.623900  0.785800  0.956800  1
  H  H157  1  0.876100  0.785800  0.456800  1
  H  H158  1  0.876100  0.714200  0.543200  1
  H  H159  1  0.376100  0.285800  0.956800  1
  H  H160  1  0.376100  0.214200  0.043200  1
  H  H161  1  0.362000  0.958700  0.448900  1
  H  H162  1  0.362000  0.541300  0.551100  1
  H  H163  1  0.862000  0.458700  0.948900  1
  H  H164  1  0.862000  0.041300  0.051100  1
  H  H165  1  0.638000  0.041300  0.551100  1
  H  H166  1  0.638000  0.458700  0.448900  1
  H  H167  1  0.138000  0.541300  0.051100  1
  H  H168  1  0.138000  0.958700  0.948900  1
  H  H169  1  0.485200  0.975500  0.415300  1
  H  H170  1  0.485200  0.524500  0.584700  1
  H  H171  1  0.985200  0.475500  0.915300  1
  H  H172  1  0.985200  0.024500  0.084700  1
  H  H173  1  0.514800  0.024500  0.584700  1
  H  H174  1  0.514800  0.475500  0.415300  1
  H  H175  1  0.014800  0.524500  0.084700  1
  H  H176  1  0.014800  0.975500  0.915300  1
  H  H177  1  0.481200  0.988000  0.349500  1
  H  H178  1  0.481200  0.512000  0.650500  1
  H  H179  1  0.981200  0.488000  0.849500  1
  H  H180  1  0.981200  0.012000  0.150500  1
  H  H181  1  0.518800  0.012000  0.650500  1
  H  H182  1  0.518800  0.488000  0.349500  1
  H  H183  1  0.018800  0.512000  0.150500  1
  H  H184  1  0.018800  0.988000  0.849500  1
  H  H185  1  0.353300  0.983800  0.312500  1
  H  H186  1  0.353300  0.516200  0.687500  1
  H  H187  1  0.853300  0.483800  0.812500  1
  H  H188  1  0.853300  0.016200  0.187500  1
  H  H189  1  0.646700  0.016200  0.687500  1
  H  H190  1  0.646700  0.483800  0.312500  1
  H  H191  1  0.146700  0.516200  0.187500  1
  H  H192  1  0.146700  0.983800  0.812500  1
  H  H193  1  0.221600  0.965000  0.343700  1
  H  H194  1  0.221600  0.535000  0.656300  1
  H  H195  1  0.721600  0.465000  0.843700  1
  H  H196  1  0.721600  0.035000  0.156300  1
  H  H197  1  0.778400  0.035000  0.656300  1
  H  H198  1  0.778400  0.465000  0.343700  1
  H  H199  1  0.278400  0.535000  0.156300  1
  H  H200  1  0.278400  0.965000  0.843700  1
  H  H201  1  0.227000  0.954900  0.414800  1
  H  H202  1  0.227000  0.545100  0.585200  1
  H  H203  1  0.727000  0.454900  0.914800  1
  H  H204  1  0.727000  0.045100  0.085200  1
  H  H205  1  0.773000  0.045100  0.585200  1
  H  H206  1  0.773000  0.454900  0.414800  1
  H  H207  1  0.273000  0.545100  0.085200  1
  H  H208  1  0.273000  0.954900  0.914800  1
  H  H209  1  0.536200  0.245100  0.533800  1
  H  H210  1  0.536200  0.254900  0.466200  1
  H  H211  1  0.036200  0.745100  0.033800  1
  H  H212  1  0.036200  0.754900  0.966200  1
  H  H213  1  0.463800  0.754900  0.466200  1
  H  H214  1  0.463800  0.745100  0.533800  1
  H  H215  1  0.963800  0.254900  0.966200  1
  H  H216  1  0.963800  0.245100  0.033800  1
  H  H217  1  0.409400  0.239000  0.569600  1
  H  H218  1  0.409400  0.261000  0.430400  1
  H  H219  1  0.909400  0.739000  0.069600  1
  H  H220  1  0.909400  0.761000  0.930400  1
  H  H221  1  0.590600  0.761000  0.430400  1
  H  H222  1  0.590600  0.739000  0.569600  1
  H  H223  1  0.090600  0.261000  0.930400  1
  H  H224  1  0.090600  0.239000  0.069600  1
  H  H225  1  0.339800  0.923300  0.147500  1
  H  H226  1  0.339800  0.576700  0.852500  1
  H  H227  1  0.839800  0.423300  0.647500  1
  H  H228  1  0.839800  0.076700  0.352500  1
  H  H229  1  0.660200  0.076700  0.852500  1
  H  H230  1  0.660200  0.423300  0.147500  1
  H  H231  1  0.160200  0.576700  0.352500  1
  H  H232  1  0.160200  0.923300  0.647500  1
  H  H233  1  0.362700  0.949500  0.199000  1
  H  H234  1  0.362700  0.550500  0.801000  1
  H  H235  1  0.862700  0.449500  0.699000  1
  H  H236  1  0.862700  0.050500  0.301000  1
  H  H237  1  0.637300  0.050500  0.801000  1
  H  H238  1  0.637300  0.449500  0.199000  1
  H  H239  1  0.137300  0.550500  0.301000  1
  H  H240  1  0.137300  0.949500  0.699000  1
  H  H241  1  0.267700  0.927200  0.184100  1
  H  H242  1  0.267700  0.572800  0.815900  1
  H  H243  1  0.767700  0.427200  0.684100  1
  H  H244  1  0.767700  0.072800  0.315900  1
  H  H245  1  0.732300  0.072800  0.815900  1
  H  H246  1  0.732300  0.427200  0.184100  1
  H  H247  1  0.232300  0.572800  0.315900  1
  H  H248  1  0.232300  0.927200  0.684100  1
  H  H249  1  0.339600  0.837500  0.241200  1
  H  H250  1  0.339600  0.662500  0.758800  1
  H  H251  1  0.839600  0.337500  0.741200  1
  H  H252  1  0.839600  0.162500  0.258800  1
  H  H253  1  0.660400  0.162500  0.758800  1
  H  H254  1  0.660400  0.337500  0.241200  1
  H  H255  1  0.160400  0.662500  0.258800  1
  H  H256  1  0.160400  0.837500  0.741200  1
  H  H257  1  0.267200  0.880500  0.238600  1
  H  H258  1  0.267200  0.619500  0.761400  1
  H  H259  1  0.767200  0.380500  0.738600  1
  H  H260  1  0.767200  0.119500  0.261400  1
  H  H261  1  0.732800  0.119500  0.761400  1
  H  H262  1  0.732800  0.380500  0.238600  1
  H  H263  1  0.232800  0.619500  0.261400  1
  H  H264  1  0.232800  0.880500  0.738600  1
  H  H265  1  0.362700  0.901300  0.253800  1
  H  H266  1  0.362700  0.598700  0.746200  1
  H  H267  1  0.862700  0.401300  0.753800  1
  H  H268  1  0.862700  0.098700  0.246200  1
  H  H269  1  0.637300  0.098700  0.746200  1
  H  H270  1  0.637300  0.401300  0.253800  1
  H  H271  1  0.137300  0.598700  0.246200  1
  H  H272  1  0.137300  0.901300  0.753800  1
  H  H273  1  0.633600  0.189300  0.141400  1
  H  H274  1  0.633600  0.310700  0.858600  1
  H  H275  1  0.133600  0.689300  0.641400  1
  H  H276  1  0.133600  0.810700  0.358600  1
  H  H277  1  0.366400  0.810700  0.858600  1
  H  H278  1  0.366400  0.689300  0.141400  1
  H  H279  1  0.866400  0.310700  0.358600  1
  H  H280  1  0.866400  0.189300  0.641400  1
  H  H281  1  0.548700  0.166600  0.157700  1
  H  H282  1  0.548700  0.333400  0.842300  1
  H  H283  1  0.048700  0.666600  0.657700  1
  H  H284  1  0.048700  0.833400  0.342300  1
  H  H285  1  0.451300  0.833400  0.842300  1
  H  H286  1  0.451300  0.666600  0.157700  1
  H  H287  1  0.951300  0.333400  0.342300  1
  H  H288  1  0.951300  0.166600  0.657700  1
  H  H289  1  0.639700  0.138400  0.159300  1
  H  H290  1  0.639700  0.361600  0.840700  1
  H  H291  1  0.139700  0.638400  0.659300  1
  H  H292  1  0.139700  0.861600  0.340700  1
  H  H293  1  0.360300  0.861600  0.840700  1
  H  H294  1  0.360300  0.638400  0.159300  1
  H  H295  1  0.860300  0.361600  0.340700  1
  H  H296  1  0.860300  0.138400  0.659300  1
  H  H297  1  0.589200  0.199200  0.280700  1
  H  H298  1  0.589200  0.300800  0.719300  1
  H  H299  1  0.089200  0.699200  0.780700  1
  H  H300  1  0.089200  0.800800  0.219300  1
  H  H301  1  0.410800  0.800800  0.719300  1
  H  H302  1  0.410800  0.699200  0.280700  1
  H  H303  1  0.910800  0.300800  0.219300  1
  H  H304  1  0.910800  0.199200  0.780700  1
  H  H305  1  0.612600  0.144000  0.241300  1
  H  H306  1  0.612600  0.356000  0.758700  1
  H  H307  1  0.112600  0.644000  0.741300  1
  H  H308  1  0.112600  0.856000  0.258700  1
  H  H309  1  0.387400  0.856000  0.758700  1
  H  H310  1  0.387400  0.644000  0.241300  1
  H  H311  1  0.887400  0.356000  0.258700  1
  H  H312  1  0.887400  0.144000  0.741300  1
  H  H313  1  0.521400  0.172800  0.241800  1
  H  H314  1  0.521400  0.327200  0.758200  1
  H  H315  1  0.021400  0.672800  0.741800  1
  H  H316  1  0.021400  0.827200  0.258200  1
  H  H317  1  0.478600  0.827200  0.758200  1
  H  H318  1  0.478600  0.672800  0.241800  1
  H  H319  1  0.978600  0.327200  0.258200  1
  H  H320  1  0.978600  0.172800  0.741800  1
  H  H321  1  0.651000  0.176600  0.140400  1
  H  H322  1  0.651000  0.323400  0.859600  1
  H  H323  1  0.151000  0.676600  0.640400  1
  H  H324  1  0.151000  0.823400  0.359600  1
  H  H325  1  0.349000  0.823400  0.859600  1
  H  H326  1  0.349000  0.676600  0.140400  1
  H  H327  1  0.849000  0.323400  0.359600  1
  H  H328  1  0.849000  0.176600  0.640400  1
  H  H329  1  0.565700  0.201300  0.167700  1
  H  H330  1  0.565700  0.298700  0.832300  1
  H  H331  1  0.065700  0.701300  0.667700  1
  H  H332  1  0.065700  0.798700  0.332300  1
  H  H333  1  0.434300  0.798700  0.832300  1
  H  H334  1  0.434300  0.701300  0.167700  1
  H  H335  1  0.934300  0.298700  0.332300  1
  H  H336  1  0.934300  0.201300  0.667700  1
  H  H337  1  0.584100  0.136600  0.152500  1
  H  H338  1  0.584100  0.363400  0.847500  1
  H  H339  1  0.084100  0.636600  0.652500  1
  H  H340  1  0.084100  0.863400  0.347500  1
  H  H341  1  0.415900  0.863400  0.847500  1
  H  H342  1  0.415900  0.636600  0.152500  1
  H  H343  1  0.915900  0.363400  0.347500  1
  H  H344  1  0.915900  0.136600  0.652500  1
  H  H345  1  0.601500  0.180200  0.278400  1
  H  H346  1  0.601500  0.319800  0.721600  1
  H  H347  1  0.101500  0.680200  0.778400  1
  H  H348  1  0.101500  0.819800  0.221600  1
  H  H349  1  0.398500  0.819800  0.721600  1
  H  H350  1  0.398500  0.680200  0.278400  1
  H  H351  1  0.898500  0.319800  0.221600  1
  H  H352  1  0.898500  0.180200  0.778400  1
  H  H353  1  0.551600  0.144900  0.234400  1
  H  H354  1  0.551600  0.355100  0.765600  1
  H  H355  1  0.051600  0.644900  0.734400  1
  H  H356  1  0.051600  0.855100  0.265600  1
  H  H357  1  0.448400  0.855100  0.765600  1
  H  H358  1  0.448400  0.644900  0.234400  1
  H  H359  1  0.948400  0.355100  0.265600  1
  H  H360  1  0.948400  0.144900  0.734400  1
  H  H361  1  0.544400  0.210500  0.251800  1
  H  H362  1  0.544400  0.289500  0.748200  1
  H  H363  1  0.044400  0.710500  0.751800  1
  H  H364  1  0.044400  0.789500  0.248200  1
  H  H365  1  0.455600  0.789500  0.748200  1
  H  H366  1  0.455600  0.710500  0.251800  1
  H  H367  1  0.955600  0.289500  0.248200  1
  H  H368  1  0.955600  0.210500  0.751800  1
  H  H369  1  0.580000  0.185900  0.698200  1
  H  H370  1  0.580000  0.314100  0.301800  1
  H  H371  1  0.080000  0.685900  0.198200  1
  H  H372  1  0.080000  0.814100  0.801800  1
  H  H373  1  0.420000  0.814100  0.301800  1
  H  H374  1  0.420000  0.685900  0.698200  1
  H  H375  1  0.920000  0.314100  0.801800  1
  H  H376  1  0.920000  0.185900  0.198200  1
  H  H377  1  0.667300  0.164600  0.671600  1
  H  H378  1  0.667300  0.335400  0.328400  1
  H  H379  1  0.167300  0.664600  0.171600  1
  H  H380  1  0.167300  0.835400  0.828400  1
  H  H381  1  0.332700  0.835400  0.328400  1
  H  H382  1  0.332700  0.664600  0.671600  1
  H  H383  1  0.832700  0.335400  0.828400  1
  H  H384  1  0.832700  0.164600  0.171600  1
  H  H385  1  0.577000  0.151900  0.646200  1
  H  H386  1  0.577000  0.348100  0.353800  1
  H  H387  1  0.077000  0.651900  0.146200  1
  H  H388  1  0.077000  0.848100  0.853800  1
  H  H389  1  0.423000  0.848100  0.353800  1
  H  H390  1  0.423000  0.651900  0.646200  1
  H  H391  1  0.923000  0.348100  0.853800  1
  H  H392  1  0.923000  0.151900  0.146200  1
  H  H393  1  0.691900  0.227000  0.585300  1
  H  H394  1  0.691900  0.273000  0.414700  1
  H  H395  1  0.191900  0.727000  0.085300  1
  H  H396  1  0.191900  0.773000  0.914700  1
  H  H397  1  0.308100  0.773000  0.414700  1
  H  H398  1  0.308100  0.727000  0.585300  1
  H  H399  1  0.808100  0.273000  0.914700  1
  H  H400  1  0.808100  0.227000  0.085300  1
  H  H401  1  0.639300  0.172500  0.582200  1
  H  H402  1  0.639300  0.327500  0.417800  1
  H  H403  1  0.139300  0.672500  0.082200  1
  H  H404  1  0.139300  0.827500  0.917800  1
  H  H405  1  0.360700  0.827500  0.417800  1
  H  H406  1  0.360700  0.672500  0.582200  1
  H  H407  1  0.860700  0.327500  0.917800  1
  H  H408  1  0.860700  0.172500  0.082200  1
  H  H409  1  0.730100  0.184400  0.607200  1
  H  H410  1  0.730100  0.315600  0.392800  1
  H  H411  1  0.230100  0.684400  0.107200  1
  H  H412  1  0.230100  0.815600  0.892800  1
  H  H413  1  0.269900  0.815600  0.392800  1
  H  H414  1  0.269900  0.684400  0.607200  1
  H  H415  1  0.769900  0.315600  0.892800  1
  H  H416  1  0.769900  0.184400  0.107200  1
  H  H417  1  0.206200  0.168400  0.623000  1
  H  H418  1  0.206200  0.331600  0.377000  1
  H  H419  1  0.706200  0.668400  0.123000  1
  H  H420  1  0.706200  0.831600  0.877000  1
  H  H421  1  0.793800  0.831600  0.377000  1
  H  H422  1  0.793800  0.668400  0.623000  1
  H  H423  1  0.293800  0.331600  0.877000  1
  H  H424  1  0.293800  0.168400  0.123000  1
  H  H425  1  0.120300  0.137600  0.600200  1
  H  H426  1  0.120300  0.362400  0.399800  1
  H  H427  1  0.620300  0.637600  0.100200  1
  H  H428  1  0.620300  0.862400  0.899800  1
  H  H429  1  0.879700  0.862400  0.399800  1
  H  H430  1  0.879700  0.637600  0.600200  1
  H  H431  1  0.379700  0.362400  0.899800  1
  H  H432  1  0.379700  0.137600  0.100200  1
  H  H433  1  0.114400  0.191700  0.643100  1
  H  H434  1  0.114400  0.308300  0.356900  1
  H  H435  1  0.614400  0.691700  0.143100  1
  H  H436  1  0.614400  0.808300  0.856900  1
  H  H437  1  0.885600  0.808300  0.356900  1
  H  H438  1  0.885600  0.691700  0.643100  1
  H  H439  1  0.385600  0.308300  0.856900  1
  H  H440  1  0.385600  0.191700  0.143100  1
  H  H441  1  0.106600  0.250500  0.546600  1
  H  H442  1  0.106600  0.249500  0.453400  1
  H  H443  1  0.606600  0.750500  0.046600  1
  H  H444  1  0.606600  0.749500  0.953400  1
  H  H445  1  0.893400  0.749500  0.453400  1
  H  H446  1  0.893400  0.750500  0.546600  1
  H  H447  1  0.393400  0.249500  0.953400  1
  H  H448  1  0.393400  0.250500  0.046600  1
  H  H449  1  0.043000  0.257400  0.587400  1
  H  H450  1  0.043000  0.242600  0.412600  1
  H  H451  1  0.543000  0.757400  0.087400  1
  H  H452  1  0.543000  0.742600  0.912600  1
  H  H453  1  0.957000  0.742600  0.412600  1
  H  H454  1  0.957000  0.757400  0.587400  1
  H  H455  1  0.457000  0.242600  0.912600  1
  H  H456  1  0.457000  0.257400  0.087400  1
  H  H457  1  0.042700  0.201600  0.546000  1
  H  H458  1  0.042700  0.298400  0.454000  1
  H  H459  1  0.542700  0.701600  0.046000  1
  H  H460  1  0.542700  0.798400  0.954000  1
  H  H461  1  0.957300  0.798400  0.454000  1
  H  H462  1  0.957300  0.701600  0.546000  1
  H  H463  1  0.457300  0.298400  0.954000  1
  H  H464  1  0.457300  0.201600  0.046000  1
  H  H465  1  0.137400  0.040100  0.652200  1
  H  H466  1  0.137400  0.459900  0.347800  1
  H  H467  1  0.637400  0.540100  0.152200  1
  H  H468  1  0.637400  0.959900  0.847800  1
  H  H469  1  0.862600  0.959900  0.347800  1
  H  H470  1  0.862600  0.540100  0.652200  1
  H  H471  1  0.362600  0.459900  0.847800  1
  H  H472  1  0.362600  0.040100  0.152200  1
  H  H473  1  0.076000  0.002600  0.613900  1
  H  H474  1  0.076000  0.497400  0.386100  1
  H  H475  1  0.576000  0.502600  0.113900  1
  H  H476  1  0.576000  0.997400  0.886100  1
  H  H477  1  0.924000  0.997400  0.386100  1
  H  H478  1  0.924000  0.502600  0.613900  1
  H  H479  1  0.424000  0.497400  0.886100  1
  H  H480  1  0.424000  0.002600  0.113900  1
  H  H481  1  0.035200  0.045400  0.657800  1
  H  H482  1  0.035200  0.454600  0.342200  1
  H  H483  1  0.535200  0.545400  0.157800  1
  H  H484  1  0.535200  0.954600  0.842200  1
  H  H485  1  0.964800  0.954600  0.342200  1
  H  H486  1  0.964800  0.545400  0.657800  1
  H  H487  1  0.464800  0.454600  0.842200  1
  H  H488  1  0.464800  0.045400  0.157800  1
  H  H489  1  0.966400  0.093600  0.578500  1
  H  H490  1  0.966400  0.406400  0.421500  1
  H  H491  1  0.466400  0.593600  0.078500  1
  H  H492  1  0.466400  0.906400  0.921500  1
  H  H493  1  0.033600  0.906400  0.421500  1
  H  H494  1  0.033600  0.593600  0.578500  1
  H  H495  1  0.533600  0.406400  0.921500  1
  H  H496  1  0.533600  0.093600  0.078500  1
  H  H497  1  0.943000  0.064500  0.614100  1
  H  H498  1  0.943000  0.435500  0.385900  1
  H  H499  1  0.443000  0.564500  0.114100  1
  H  H500  1  0.443000  0.935500  0.885900  1
  H  H501  1  0.057000  0.935500  0.385900  1
  H  H502  1  0.057000  0.564500  0.614100  1
  H  H503  1  0.557000  0.435500  0.885900  1
  H  H504  1  0.557000  0.064500  0.114100  1
  H  H505  1  0.987400  0.029700  0.568200  1
  H  H506  1  0.987400  0.470300  0.431800  1
  H  H507  1  0.487400  0.529700  0.068200  1
  H  H508  1  0.487400  0.970300  0.931800  1
  H  H509  1  0.012600  0.970300  0.431800  1
  H  H510  1  0.012600  0.529700  0.568200  1
  H  H511  1  0.512600  0.470300  0.931800  1
  H  H512  1  0.512600  0.029700  0.068200  1
  H  H513  1  0.885500  0.205000  0.455300  1
  H  H514  1  0.885500  0.295000  0.544700  1
  H  H515  1  0.385500  0.705000  0.955300  1
  H  H516  1  0.385500  0.795000  0.044700  1
  H  H517  1  0.114500  0.795000  0.544700  1
  H  H518  1  0.114500  0.705000  0.455300  1
  H  H519  1  0.614500  0.295000  0.044700  1
  H  H520  1  0.614500  0.205000  0.955300  1
  H  H521  1  0.857900  0.266300  0.459200  1
  H  H522  1  0.857900  0.233700  0.540800  1
  H  H523  1  0.357900  0.766300  0.959200  1
  H  H524  1  0.357900  0.733700  0.040800  1
  H  H525  1  0.142100  0.733700  0.540800  1
  H  H526  1  0.142100  0.766300  0.459200  1
  H  H527  1  0.642100  0.233700  0.040800  1
  H  H528  1  0.642100  0.266300  0.959200  1
  H  H529  1  0.807100  0.214800  0.426400  1
  H  H530  1  0.807100  0.285200  0.573600  1
  H  H531  1  0.307100  0.714800  0.926400  1
  H  H532  1  0.307100  0.785200  0.073600  1
  H  H533  1  0.192900  0.785200  0.573600  1
  H  H534  1  0.192900  0.714800  0.426400  1
  H  H535  1  0.692900  0.285200  0.073600  1
  H  H536  1  0.692900  0.214800  0.926400  1
  H  H537  1  0.593700  0.247600  0.518700  1.0
  H  H538  1  0.593700  0.252400  0.481300  1.0
  H  H539  1  0.093700  0.747600  0.018700  1.0
  H  H540  1  0.093700  0.752400  0.981300  1.0
  H  H541  1  0.406300  0.752400  0.481300  1.0
  H  H542  1  0.406300  0.747600  0.518700  1.0
  H  H543  1  0.906300  0.252400  0.981300  1.0
  H  H544  1  0.906300  0.247600  0.018700  1.0
  H  H545  1  0.461300  0.243200  0.590700  1.0
  H  H546  1  0.461300  0.256800  0.409300  1.0
  H  H547  1  0.961300  0.743200  0.090700  1.0
  H  H548  1  0.961300  0.756800  0.909300  1.0
  H  H549  1  0.538700  0.756800  0.409300  1.0
  H  H550  1  0.538700  0.743200  0.590700  1.0
  H  H551  1  0.038700  0.256800  0.909300  1.0
  H  H552  1  0.038700  0.243200  0.090700  1.0
  H  H553  1  0.278200  0.244400  0.534600  1.0
  H  H554  1  0.278200  0.255600  0.465400  1.0
  H  H555  1  0.778200  0.744400  0.034600  1.0
  H  H556  1  0.778200  0.755600  0.965400  1.0
  H  H557  1  0.721800  0.755600  0.465400  1.0
  H  H558  1  0.721800  0.744400  0.534600  1.0
  H  H559  1  0.221800  0.255600  0.965400  1.0
  H  H560  1  0.221800  0.244400  0.034600  1.0
  H  H561  1  0.149800  0.119700  0.332800  1.0
  H  H562  1  0.149800  0.380300  0.667200  1.0
  H  H563  1  0.649800  0.619700  0.832800  1.0
  H  H564  1  0.649800  0.880300  0.167200  1.0
  H  H565  1  0.850200  0.880300  0.667200  1.0
  H  H566  1  0.850200  0.619700  0.332800  1.0
  H  H567  1  0.350200  0.380300  0.167200  1.0
  H  H568  1  0.350200  0.119700  0.832800  1.0
  H  H569  1  0.010900  0.108500  0.353500  1.0
  H  H570  1  0.010900  0.391500  0.646500  1.0
  H  H571  1  0.510900  0.608500  0.853500  1.0
  H  H572  1  0.510900  0.891500  0.146500  1.0
  H  H573  1  0.989100  0.891500  0.646500  1.0
  H  H574  1  0.989100  0.608500  0.353500  1.0
  H  H575  1  0.489100  0.391500  0.146500  1.0
  H  H576  1  0.489100  0.108500  0.853500  1.0
  H  H577  1  0.982500  0.089300  0.418100  1.0
  H  H578  1  0.982500  0.410700  0.581900  1.0
  H  H579  1  0.482500  0.589300  0.918100  1.0
  H  H580  1  0.482500  0.910700  0.081900  1.0
  H  H581  1  0.017500  0.910700  0.581900  1.0
  H  H582  1  0.017500  0.589300  0.418100  1.0
  H  H583  1  0.517500  0.410700  0.081900  1.0
  H  H584  1  0.517500  0.089300  0.918100  1.0
  H  H585  1  0.525400  0.141400  0.340800  1.0
  H  H586  1  0.525400  0.358600  0.659200  1.0
  H  H587  1  0.025400  0.641400  0.840800  1.0
  H  H588  1  0.025400  0.858600  0.159200  1.0
  H  H589  1  0.474600  0.858600  0.659200  1.0
  H  H590  1  0.474600  0.641400  0.340800  1.0
  H  H591  1  0.974600  0.358600  0.159200  1.0
  H  H592  1  0.974600  0.141400  0.840800  1.0
  H  H593  1  0.661800  0.145500  0.368200  1.0
  H  H594  1  0.661800  0.354500  0.631800  1.0
  H  H595  1  0.161800  0.645500  0.868200  1.0
  H  H596  1  0.161800  0.854500  0.131800  1.0
  H  H597  1  0.338200  0.854500  0.631800  1.0
  H  H598  1  0.338200  0.645500  0.368200  1.0
  H  H599  1  0.838200  0.354500  0.131800  1.0
  H  H600  1  0.838200  0.145500  0.868200  1.0
  H  H601  1  0.691100  0.131900  0.435000  1.0
  H  H602  1  0.691100  0.368100  0.565000  1.0
  H  H603  1  0.191100  0.631900  0.935000  1.0
  H  H604  1  0.191100  0.868100  0.065000  1.0
  H  H605  1  0.308900  0.868100  0.565000  1.0
  H  H606  1  0.308900  0.631900  0.435000  1.0
  H  H607  1  0.808900  0.368100  0.065000  1.0
  H  H608  1  0.808900  0.131900  0.935000  1.0
  H  H609  1  0.049700  0.070000  0.487700  1.0
  H  H610  1  0.049700  0.430000  0.512300  1.0
  H  H611  1  0.549700  0.570000  0.987700  1.0
  H  H612  1  0.549700  0.930000  0.012300  1.0
  H  H613  1  0.950300  0.930000  0.512300  1.0
  H  H614  1  0.950300  0.570000  0.487700  1.0
  H  H615  1  0.450300  0.430000  0.012300  1.0
  H  H616  1  0.450300  0.070000  0.987700  1.0
  H  H617  1  0.166800  0.066000  0.528900  1.0
  H  H618  1  0.166800  0.434000  0.471100  1.0
  H  H619  1  0.666800  0.566000  0.028900  1.0
  H  H620  1  0.666800  0.934000  0.971100  1.0
  H  H621  1  0.833200  0.934000  0.471100  1.0
  H  H622  1  0.833200  0.566000  0.528900  1.0
  H  H623  1  0.333200  0.434000  0.971100  1.0
  H  H624  1  0.333200  0.066000  0.028900  1.0
  H  H625  1  0.508400  0.091500  0.539300  1.0
  H  H626  1  0.508400  0.408500  0.460700  1.0
  H  H627  1  0.008400  0.591500  0.039300  1.0
  H  H628  1  0.008400  0.908500  0.960700  1.0
  H  H629  1  0.491600  0.908500  0.460700  1.0
  H  H630  1  0.491600  0.591500  0.539300  1.0
  H  H631  1  0.991600  0.408500  0.960700  1.0
  H  H632  1  0.991600  0.091500  0.039300  1.0
  H  H633  1  0.625500  0.111100  0.504600  1.0
  H  H634  1  0.625500  0.388900  0.495400  1.0
  H  H635  1  0.125500  0.611100  0.004600  1.0
  H  H636  1  0.125500  0.888900  0.995400  1.0
  H  H637  1  0.374500  0.888900  0.495400  1.0
  H  H638  1  0.374500  0.611100  0.504600  1.0
  H  H639  1  0.874500  0.388900  0.995400  1.0
  H  H640  1  0.874500  0.111100  0.004600  1.0
  H  H641  1  0.379500  0.148600  0.594100  1.0
  H  H642  1  0.379500  0.351400  0.405900  1.0
  H  H643  1  0.879500  0.648600  0.094100  1.0
  H  H644  1  0.879500  0.851400  0.905900  1.0
  H  H645  1  0.620500  0.851400  0.405900  1.0
  H  H646  1  0.620500  0.648600  0.594100  1.0
  H  H647  1  0.120500  0.351400  0.905900  1.0
  H  H648  1  0.120500  0.148600  0.094100  1.0
  H  H649  1  0.335400  0.042400  0.661000  1.0
  H  H650  1  0.335400  0.457600  0.339000  1.0
  H  H651  1  0.835400  0.542400  0.161000  1.0
  H  H652  1  0.835400  0.957600  0.839000  1.0
  H  H653  1  0.664600  0.957600  0.339000  1.0
  H  H654  1  0.664600  0.542400  0.661000  1.0
  H  H655  1  0.164600  0.457600  0.839000  1.0
  H  H656  1  0.164600  0.042400  0.161000  1.0
  H  H657  1  0.294100  0.975600  0.595300  1.0
  H  H658  1  0.294100  0.524400  0.404700  1.0
  H  H659  1  0.794100  0.475600  0.095300  1.0
  H  H660  1  0.794100  0.024400  0.904700  1.0
  H  H661  1  0.705900  0.024400  0.404700  1.0
  H  H662  1  0.705900  0.475600  0.595300  1.0
  H  H663  1  0.205900  0.524400  0.904700  1.0
  H  H664  1  0.205900  0.975600  0.095300  1.0
  H  H665  1  0.292500  0.995400  0.528500  1.0
  H  H666  1  0.292500  0.504600  0.471500  1.0
  H  H667  1  0.792500  0.495400  0.028500  1.0
  H  H668  1  0.792500  0.004600  0.971500  1.0
  H  H669  1  0.707500  0.004600  0.471500  1.0
  H  H670  1  0.707500  0.495400  0.528500  1.0
  H  H671  1  0.207500  0.504600  0.971500  1.0
  H  H672  1  0.207500  0.995400  0.028500  1.0
  H  H673  1  0.329800  0.209100  0.656500  1.0
  H  H674  1  0.329800  0.290900  0.343500  1.0
  H  H675  1  0.829800  0.709100  0.156500  1.0
  H  H676  1  0.829800  0.790900  0.843500  1.0
  H  H677  1  0.670200  0.790900  0.343500  1.0
  H  H678  1  0.670200  0.709100  0.656500  1.0
  H  H679  1  0.170200  0.290900  0.843500  1.0
  H  H680  1  0.170200  0.209100  0.156500  1.0
  H  H681  1  0.415200  0.263500  0.783200  1.0
  H  H682  1  0.415200  0.236500  0.216800  1.0
  H  H683  1  0.915200  0.763500  0.283200  1.0
  H  H684  1  0.915200  0.736500  0.716800  1.0
  H  H685  1  0.584800  0.736500  0.216800  1.0
  H  H686  1  0.584800  0.763500  0.783200  1.0
  H  H687  1  0.084800  0.236500  0.716800  1.0
  H  H688  1  0.084800  0.263500  0.283200  1.0
  H  H689  1  0.443800  0.172500  0.778000  1.0
  H  H690  1  0.443800  0.327500  0.222000  1.0
  H  H691  1  0.943800  0.672500  0.278000  1.0
  H  H692  1  0.943800  0.827500  0.722000  1.0
  H  H693  1  0.556200  0.827500  0.222000  1.0
  H  H694  1  0.556200  0.672500  0.778000  1.0
  H  H695  1  0.056200  0.327500  0.722000  1.0
  H  H696  1  0.056200  0.172500  0.278000  1.0
  H  H697  1  0.425800  0.101800  0.713200  1.0
  H  H698  1  0.425800  0.398200  0.286800  1.0
  H  H699  1  0.925800  0.601800  0.213200  1.0
  H  H700  1  0.925800  0.898200  0.786800  1.0
  H  H701  1  0.574200  0.898200  0.286800  1.0
  H  H702  1  0.574200  0.601800  0.713200  1.0
  H  H703  1  0.074200  0.398200  0.786800  1.0
  H  H704  1  0.074200  0.101800  0.213200  1.0
  H  H705  1  0.375800  0.288900  0.657500  1.0
  H  H706  1  0.375800  0.211100  0.342500  1.0
  H  H707  1  0.875800  0.788900  0.157500  1.0
  H  H708  1  0.875800  0.711100  0.842500  1.0
  H  H709  1  0.624200  0.711100  0.342500  1.0
  H  H710  1  0.624200  0.788900  0.657500  1.0
  H  H711  1  0.124200  0.211100  0.842500  1.0
  H  H712  1  0.124200  0.288900  0.157500  1.0
  H  H713  1  0.294000  0.060400  0.282100  1.0
  H  H714  1  0.294000  0.439600  0.717900  1.0
  H  H715  1  0.794000  0.560400  0.782100  1.0
  H  H716  1  0.794000  0.939600  0.217900  1.0
  H  H717  1  0.706000  0.939600  0.717900  1.0
  H  H718  1  0.706000  0.560400  0.282100  1.0
  H  H719  1  0.206000  0.439600  0.217900  1.0
  H  H720  1  0.206000  0.060400  0.782100  1.0
  H  H721  1  0.281600  0.077600  0.216400  1.0
  H  H722  1  0.281600  0.422400  0.783600  1.0
  H  H723  1  0.781600  0.577600  0.716400  1.0
  H  H724  1  0.781600  0.922400  0.283600  1.0
  H  H725  1  0.718400  0.922400  0.783600  1.0
  H  H726  1  0.718400  0.577600  0.216400  1.0
  H  H727  1  0.218400  0.422400  0.283600  1.0
  H  H728  1  0.218400  0.077600  0.716400  1.0
  H  H729  1  0.317700  0.336100  0.787200  1.0
  H  H730  1  0.317700  0.163900  0.212800  1.0
  H  H731  1  0.817700  0.836100  0.287200  1.0
  H  H732  1  0.817700  0.663900  0.712800  1.0
  H  H733  1  0.682300  0.663900  0.212800  1.0
  H  H734  1  0.682300  0.836100  0.787200  1.0
  H  H735  1  0.182300  0.163900  0.712800  1.0
  H  H736  1  0.182300  0.336100  0.287200  1.0
  Pt  Pt737  1  0.336890  0.121295  0.377944  1.0
  Pt  Pt738  1  0.336890  0.378705  0.622056  1.0
  Pt  Pt739  1  0.836890  0.621295  0.877944  1.0
  Pt  Pt740  1  0.836890  0.878705  0.122056  1.0
  Pt  Pt741  1  0.663110  0.878705  0.622056  1.0
  Pt  Pt742  1  0.663110  0.621295  0.377944  1.0
  Pt  Pt743  1  0.163110  0.378705  0.122056  1.0
  Pt  Pt744  1  0.163110  0.121295  0.877944  1.0
  C  C745  1  0.329000  0.921100  0.177000  1
  C  C746  1  0.329000  0.578900  0.823000  1
  C  C747  1  0.829000  0.421100  0.677000  1
  C  C748  1  0.829000  0.078900  0.323000  1
  C  C749  1  0.671000  0.078900  0.823000  1
  C  C750  1  0.671000  0.421100  0.177000  1
  C  C751  1  0.171000  0.578900  0.323000  1
  C  C752  1  0.171000  0.921100  0.677000  1
  C  C753  1  0.328400  0.871200  0.234300  1
  C  C754  1  0.328400  0.628800  0.765700  1
  C  C755  1  0.828400  0.371200  0.734300  1
  C  C756  1  0.828400  0.128800  0.265700  1
  C  C757  1  0.671600  0.128800  0.765700  1
  C  C758  1  0.671600  0.371200  0.234300  1
  C  C759  1  0.171600  0.628800  0.265700  1
  C  C760  1  0.171600  0.871200  0.734300  1
  C  C761  1  0.609600  0.178900  0.669800  1
  C  C762  1  0.609600  0.321100  0.330200  1
  C  C763  1  0.109600  0.678900  0.169800  1
  C  C764  1  0.109600  0.821100  0.830200  1
  C  C765  1  0.390400  0.821100  0.330200  1
  C  C766  1  0.390400  0.678900  0.669800  1
  C  C767  1  0.890400  0.321100  0.830200  1
  C  C768  1  0.890400  0.178900  0.169800  1
  C  C769  1  0.677400  0.201300  0.600900  1
  C  C770  1  0.677400  0.298700  0.399100  1
  C  C771  1  0.177400  0.701300  0.100900  1
  C  C772  1  0.177400  0.798700  0.899100  1
  C  C773  1  0.322600  0.798700  0.399100  1
  C  C774  1  0.322600  0.701300  0.600900  1
  C  C775  1  0.822600  0.298700  0.899100  1
  C  C776  1  0.822600  0.201300  0.100900  1
  C  C777  1  0.146000  0.173700  0.615700  1
  C  C778  1  0.146000  0.326300  0.384300  1
  C  C779  1  0.646000  0.673700  0.115700  1
  C  C780  1  0.646000  0.826300  0.884300  1
  C  C781  1  0.854000  0.826300  0.384300  1
  C  C782  1  0.854000  0.673700  0.615700  1
  C  C783  1  0.354000  0.326300  0.884300  1
  C  C784  1  0.354000  0.173700  0.115700  1
  C  C785  1  0.079000  0.231400  0.564800  1
  C  C786  1  0.079000  0.268600  0.435200  1
  C  C787  1  0.579000  0.731400  0.064800  1
  C  C788  1  0.579000  0.768600  0.935200  1
  C  C789  1  0.921000  0.768600  0.435200  1
  C  C790  1  0.921000  0.731400  0.564800  1
  C  C791  1  0.421000  0.268600  0.935200  1
  C  C792  1  0.421000  0.231400  0.064800  1
  C  C793  1  0.358000  0.963800  0.420900  1
  C  C794  1  0.358000  0.536200  0.579100  1
  C  C795  1  0.858000  0.463800  0.920900  1
  C  C796  1  0.858000  0.036200  0.079100  1
  C  C797  1  0.642000  0.036200  0.579100  1
  C  C798  1  0.642000  0.463800  0.420900  1
  C  C799  1  0.142000  0.536200  0.079100  1
  C  C800  1  0.142000  0.963800  0.920900  1
  C  C801  1  0.431500  0.973700  0.400700  1
  C  C802  1  0.431500  0.526300  0.599300  1
  C  C803  1  0.931500  0.473700  0.900700  1
  C  C804  1  0.931500  0.026300  0.099300  1
  C  C805  1  0.568500  0.026300  0.599300  1
  C  C806  1  0.568500  0.473700  0.400700  1
  C  C807  1  0.068500  0.526300  0.099300  1
  C  C808  1  0.068500  0.973700  0.900700  1
  C  C809  1  0.429300  0.980900  0.362300  1
  C  C810  1  0.429300  0.519100  0.637700  1
  C  C811  1  0.929300  0.480900  0.862300  1
  C  C812  1  0.929300  0.019100  0.137700  1
  C  C813  1  0.570700  0.019100  0.637700  1
  C  C814  1  0.570700  0.480900  0.362300  1
  C  C815  1  0.070700  0.519100  0.137700  1
  C  C816  1  0.070700  0.980900  0.862300  1
  C  C817  1  0.353800  0.978300  0.340400  1
  C  C818  1  0.353800  0.521700  0.659600  1
  C  C819  1  0.853800  0.478300  0.840400  1
  C  C820  1  0.853800  0.021700  0.159600  1
  C  C821  1  0.646200  0.021700  0.659600  1
  C  C822  1  0.646200  0.478300  0.340400  1
  C  C823  1  0.146200  0.521700  0.159600  1
  C  C824  1  0.146200  0.978300  0.840400  1
  C  C825  1  0.274500  0.967600  0.359100  1
  C  C826  1  0.274500  0.532400  0.640900  1
  C  C827  1  0.774500  0.467600  0.859100  1
  C  C828  1  0.774500  0.032400  0.140900  1
  C  C829  1  0.725500  0.032400  0.640900  1
  C  C830  1  0.725500  0.467600  0.359100  1
  C  C831  1  0.225500  0.532400  0.140900  1
  C  C832  1  0.225500  0.967600  0.859100  1
  C  C833  1  0.277900  0.961100  0.400700  1
  C  C834  1  0.277900  0.538900  0.599300  1
  C  C835  1  0.777900  0.461100  0.900700  1
  C  C836  1  0.777900  0.038900  0.099300  1
  C  C837  1  0.722100  0.038900  0.599300  1
  C  C838  1  0.722100  0.461100  0.400700  1
  C  C839  1  0.222100  0.538900  0.099300  1
  C  C840  1  0.222100  0.961100  0.900700  1
  C  C841  1  0.083000  0.038900  0.636600  1
  C  C842  1  0.083000  0.461100  0.363400  1
  C  C843  1  0.583000  0.538900  0.136600  1
  C  C844  1  0.583000  0.961100  0.863400  1
  C  C845  1  0.917000  0.961100  0.363400  1
  C  C846  1  0.917000  0.538900  0.636600  1
  C  C847  1  0.417000  0.461100  0.863400  1
  C  C848  1  0.417000  0.038900  0.136600  1
  C  C849  1  0.985000  0.065800  0.591500  1
  C  C850  1  0.985000  0.434200  0.408500  1
  C  C851  1  0.485000  0.565800  0.091500  1
  C  C852  1  0.485000  0.934200  0.908500  1
  C  C853  1  0.015000  0.934200  0.408500  1
  C  C854  1  0.015000  0.565800  0.591500  1
  C  C855  1  0.515000  0.434200  0.908500  1
  C  C856  1  0.515000  0.065800  0.091500  1
  C  C857  1  0.836900  0.229100  0.455000  1
  C  C858  1  0.836900  0.270900  0.545000  1
  C  C859  1  0.336900  0.729100  0.955000  1
  C  C860  1  0.336900  0.770900  0.045000  1
  C  C861  1  0.163100  0.770900  0.545000  1
  C  C862  1  0.163100  0.729100  0.455000  1
  C  C863  1  0.663100  0.270900  0.045000  1
  C  C864  1  0.663100  0.229100  0.955000  1
  C  C865  1  0.482800  0.247100  0.520000  1.0
  C  C866  1  0.482800  0.252900  0.480000  1.0
  C  C867  1  0.982800  0.747100  0.020000  1.0
  C  C868  1  0.982800  0.752900  0.980000  1.0
  C  C869  1  0.517200  0.752900  0.480000  1.0
  C  C870  1  0.517200  0.747100  0.520000  1.0
  C  C871  1  0.017200  0.252900  0.980000  1.0
  C  C872  1  0.017200  0.247100  0.020000  1.0
  C  C873  1  0.408400  0.243500  0.541300  1.0
  C  C874  1  0.408400  0.256500  0.458700  1.0
  C  C875  1  0.908400  0.743500  0.041300  1.0
  C  C876  1  0.908400  0.756500  0.958700  1.0
  C  C877  1  0.591600  0.756500  0.458700  1.0
  C  C878  1  0.591600  0.743500  0.541300  1.0
  C  C879  1  0.091600  0.256500  0.958700  1.0
  C  C880  1  0.091600  0.243500  0.041300  1.0
  C  C881  1  0.331100  0.246700  0.520500  1.0
  C  C882  1  0.331100  0.253300  0.479500  1.0
  C  C883  1  0.831100  0.746700  0.020500  1.0
  C  C884  1  0.831100  0.753300  0.979500  1.0
  C  C885  1  0.668900  0.753300  0.479500  1.0
  C  C886  1  0.668900  0.746700  0.520500  1.0
  C  C887  1  0.168900  0.253300  0.979500  1.0
  C  C888  1  0.168900  0.246700  0.020500  1.0
  C  C889  1  0.192000  0.099500  0.423600  1.0
  C  C890  1  0.192000  0.400500  0.576400  1.0
  C  C891  1  0.692000  0.599500  0.923600  1.0
  C  C892  1  0.692000  0.900500  0.076400  1.0
  C  C893  1  0.808000  0.900500  0.576400  1.0
  C  C894  1  0.808000  0.599500  0.423600  1.0
  C  C895  1  0.308000  0.400500  0.076400  1.0
  C  C896  1  0.308000  0.099500  0.923600  1.0
  C  C897  1  0.140500  0.112900  0.359900  1.0
  C  C898  1  0.140500  0.387100  0.640100  1.0
  C  C899  1  0.640500  0.612900  0.859900  1.0
  C  C900  1  0.640500  0.887100  0.140100  1.0
  C  C901  1  0.859500  0.887100  0.640100  1.0
  C  C902  1  0.859500  0.612900  0.359900  1.0
  C  C903  1  0.359500  0.387100  0.140100  1.0
  C  C904  1  0.359500  0.112900  0.859900  1.0
  C  C905  1  0.057100  0.105500  0.372000  1.0
  C  C906  1  0.057100  0.394500  0.628000  1.0
  C  C907  1  0.557100  0.605500  0.872000  1.0
  C  C908  1  0.557100  0.894500  0.128000  1.0
  C  C909  1  0.942900  0.894500  0.628000  1.0
  C  C910  1  0.942900  0.605500  0.372000  1.0
  C  C911  1  0.442900  0.394500  0.128000  1.0
  C  C912  1  0.442900  0.105500  0.872000  1.0
  C  C913  1  0.039900  0.094200  0.409900  1.0
  C  C914  1  0.039900  0.405800  0.590100  1.0
  C  C915  1  0.539900  0.594200  0.909900  1.0
  C  C916  1  0.539900  0.905800  0.090100  1.0
  C  C917  1  0.960100  0.905800  0.590100  1.0
  C  C918  1  0.960100  0.594200  0.409900  1.0
  C  C919  1  0.460100  0.405800  0.090100  1.0
  C  C920  1  0.460100  0.094200  0.909900  1.0
  C  C921  1  0.110700  0.089800  0.437000  1.0
  C  C922  1  0.110700  0.410200  0.563000  1.0
  C  C923  1  0.610700  0.589800  0.937000  1.0
  C  C924  1  0.610700  0.910200  0.063000  1.0
  C  C925  1  0.889300  0.910200  0.563000  1.0
  C  C926  1  0.889300  0.589800  0.437000  1.0
  C  C927  1  0.389300  0.410200  0.063000  1.0
  C  C928  1  0.389300  0.089800  0.937000  1.0
  C  C929  1  0.262300  0.098500  0.450400  1.0
  C  C930  1  0.262300  0.401500  0.549600  1.0
  C  C931  1  0.762300  0.598500  0.950400  1.0
  C  C932  1  0.762300  0.901500  0.049600  1.0
  C  C933  1  0.737700  0.901500  0.549600  1.0
  C  C934  1  0.737700  0.598500  0.450400  1.0
  C  C935  1  0.237700  0.401500  0.049600  1.0
  C  C936  1  0.237700  0.098500  0.950400  1.0
  C  C937  1  0.411600  0.108900  0.454400  1.0
  C  C938  1  0.411600  0.391100  0.545600  1.0
  C  C939  1  0.911600  0.608900  0.954400  1.0
  C  C940  1  0.911600  0.891100  0.045600  1.0
  C  C941  1  0.588400  0.891100  0.545600  1.0
  C  C942  1  0.588400  0.608900  0.454400  1.0
  C  C943  1  0.088400  0.391100  0.045600  1.0
  C  C944  1  0.088400  0.108900  0.954400  1.0
  C  C945  1  0.416000  0.098600  0.494800  1.0
  C  C946  1  0.416000  0.401400  0.505200  1.0
  C  C947  1  0.916000  0.598600  0.994800  1.0
  C  C948  1  0.916000  0.901400  0.005200  1.0
  C  C949  1  0.584000  0.901400  0.505200  1.0
  C  C950  1  0.584000  0.598600  0.494800  1.0
  C  C951  1  0.084000  0.401400  0.005200  1.0
  C  C952  1  0.084000  0.098600  0.994800  1.0
  C  C953  1  0.336600  0.087800  0.512500  1.0
  C  C954  1  0.336600  0.412200  0.487500  1.0
  C  C955  1  0.836600  0.587800  0.012500  1.0
  C  C956  1  0.836600  0.912200  0.987500  1.0
  C  C957  1  0.663400  0.912200  0.487500  1.0
  C  C958  1  0.663400  0.587800  0.512500  1.0
  C  C959  1  0.163400  0.412200  0.987500  1.0
  C  C960  1  0.163400  0.087800  0.012500  1.0
  C  C961  1  0.258900  0.086700  0.490200  1.0
  C  C962  1  0.258900  0.413300  0.509800  1.0
  C  C963  1  0.758900  0.586700  0.990200  1.0
  C  C964  1  0.758900  0.913300  0.009800  1.0
  C  C965  1  0.741100  0.913300  0.509800  1.0
  C  C966  1  0.741100  0.586700  0.490200  1.0
  C  C967  1  0.241100  0.413300  0.009800  1.0
  C  C968  1  0.241100  0.086700  0.990200  1.0
  C  C969  1  0.483500  0.119400  0.431100  1.0
  C  C970  1  0.483500  0.380600  0.568900  1.0
  C  C971  1  0.983500  0.619400  0.931100  1.0
  C  C972  1  0.983500  0.880600  0.068900  1.0
  C  C973  1  0.516500  0.880600  0.568900  1.0
  C  C974  1  0.516500  0.619400  0.431100  1.0
  C  C975  1  0.016500  0.380600  0.068900  1.0
  C  C976  1  0.016500  0.119400  0.931100  1.0
  C  C977  1  0.534000  0.136200  0.368600  1.0
  C  C978  1  0.534000  0.363800  0.631400  1.0
  C  C979  1  0.034000  0.636200  0.868600  1.0
  C  C980  1  0.034000  0.863800  0.131400  1.0
  C  C981  1  0.466000  0.863800  0.631400  1.0
  C  C982  1  0.466000  0.636200  0.368600  1.0
  C  C983  1  0.966000  0.363800  0.131400  1.0
  C  C984  1  0.966000  0.136200  0.868600  1.0
  C  C985  1  0.615600  0.138300  0.384900  1.0
  C  C986  1  0.615600  0.361700  0.615100  1.0
  C  C987  1  0.115600  0.638300  0.884900  1.0
  C  C988  1  0.115600  0.861700  0.115100  1.0
  C  C989  1  0.384400  0.861700  0.615100  1.0
  C  C990  1  0.384400  0.638300  0.384900  1.0
  C  C991  1  0.884400  0.361700  0.115100  1.0
  C  C992  1  0.884400  0.138300  0.884900  1.0
  C  C993  1  0.633700  0.130300  0.424400  1.0
  C  C994  1  0.633700  0.369700  0.575600  1.0
  C  C995  1  0.133700  0.630300  0.924400  1.0
  C  C996  1  0.133700  0.869700  0.075600  1.0
  C  C997  1  0.366300  0.869700  0.575600  1.0
  C  C998  1  0.366300  0.630300  0.424400  1.0
  C  C999  1  0.866300  0.369700  0.075600  1.0
  C  C1000  1  0.866300  0.130300  0.924400  1.0
  C  C1001  1  0.564400  0.119700  0.448700  1.0
  C  C1002  1  0.564400  0.380300  0.551300  1.0
  C  C1003  1  0.064400  0.619700  0.948700  1.0
  C  C1004  1  0.064400  0.880300  0.051300  1.0
  C  C1005  1  0.435600  0.880300  0.551300  1.0
  C  C1006  1  0.435600  0.619700  0.448700  1.0
  C  C1007  1  0.935600  0.380300  0.051300  1.0
  C  C1008  1  0.935600  0.119700  0.948700  1.0
  C  C1009  1  0.104700  0.077200  0.478000  1.0
  C  C1010  1  0.104700  0.422800  0.522000  1.0
  C  C1011  1  0.604700  0.577200  0.978000  1.0
  C  C1012  1  0.604700  0.922800  0.022000  1.0
  C  C1013  1  0.895300  0.922800  0.522000  1.0
  C  C1014  1  0.895300  0.577200  0.478000  1.0
  C  C1015  1  0.395300  0.422800  0.022000  1.0
  C  C1016  1  0.395300  0.077200  0.978000  1.0
  C  C1017  1  0.174100  0.075200  0.502700  1.0
  C  C1018  1  0.174100  0.424800  0.497300  1.0
  C  C1019  1  0.674100  0.575200  0.002700  1.0
  C  C1020  1  0.674100  0.924800  0.997300  1.0
  C  C1021  1  0.825900  0.924800  0.497300  1.0
  C  C1022  1  0.825900  0.575200  0.502700  1.0
  C  C1023  1  0.325900  0.424800  0.997300  1.0
  C  C1024  1  0.325900  0.075200  0.002700  1.0
  C  C1025  1  0.500900  0.099000  0.512400  1.0
  C  C1026  1  0.500900  0.401000  0.487600  1.0
  C  C1027  1  0.000900  0.599000  0.012400  1.0
  C  C1028  1  0.000900  0.901000  0.987600  1.0
  C  C1029  1  0.499100  0.901000  0.487600  1.0
  C  C1030  1  0.499100  0.599000  0.512400  1.0
  C  C1031  1  0.999100  0.401000  0.987600  1.0
  C  C1032  1  0.999100  0.099000  0.012400  1.0
  C  C1033  1  0.570600  0.109800  0.491300  1.0
  C  C1034  1  0.570600  0.390200  0.508700  1.0
  C  C1035  1  0.070600  0.609800  0.991300  1.0
  C  C1036  1  0.070600  0.890200  0.008700  1.0
  C  C1037  1  0.429400  0.890200  0.508700  1.0
  C  C1038  1  0.429400  0.609800  0.491300  1.0
  C  C1039  1  0.929400  0.390200  0.008700  1.0
  C  C1040  1  0.929400  0.109800  0.991300  1.0
  C  C1041  1  0.336400  0.074200  0.555700  1.0
  C  C1042  1  0.336400  0.425800  0.444300  1.0
  C  C1043  1  0.836400  0.574200  0.055700  1.0
  C  C1044  1  0.836400  0.925800  0.944300  1.0
  C  C1045  1  0.663600  0.925800  0.444300  1.0
  C  C1046  1  0.663600  0.574200  0.555700  1.0
  C  C1047  1  0.163600  0.425800  0.944300  1.0
  C  C1048  1  0.163600  0.074200  0.055700  1.0
  C  C1049  1  0.360500  0.113800  0.594700  1.0
  C  C1050  1  0.360500  0.386200  0.405300  1.0
  C  C1051  1  0.860500  0.613800  0.094700  1.0
  C  C1052  1  0.860500  0.886200  0.905300  1.0
  C  C1053  1  0.639500  0.886200  0.405300  1.0
  C  C1054  1  0.639500  0.613800  0.594700  1.0
  C  C1055  1  0.139500  0.386200  0.905300  1.0
  C  C1056  1  0.139500  0.113800  0.094700  1.0
  C  C1057  1  0.357600  0.103800  0.635300  1.0
  C  C1058  1  0.357600  0.396200  0.364700  1.0
  C  C1059  1  0.857600  0.603800  0.135300  1.0
  C  C1060  1  0.857600  0.896200  0.864700  1.0
  C  C1061  1  0.642400  0.896200  0.364700  1.0
  C  C1062  1  0.642400  0.603800  0.635300  1.0
  C  C1063  1  0.142400  0.396200  0.864700  1.0
  C  C1064  1  0.142400  0.103800  0.135300  1.0
  C  C1065  1  0.334500  0.051000  0.634300  1.0
  C  C1066  1  0.334500  0.449000  0.365700  1.0
  C  C1067  1  0.834500  0.551000  0.134300  1.0
  C  C1068  1  0.834500  0.949000  0.865700  1.0
  C  C1069  1  0.665500  0.949000  0.365700  1.0
  C  C1070  1  0.665500  0.551000  0.634300  1.0
  C  C1071  1  0.165500  0.449000  0.865700  1.0
  C  C1072  1  0.165500  0.051000  0.134300  1.0
  C  C1073  1  0.310500  0.011100  0.595200  1.0
  C  C1074  1  0.310500  0.488900  0.404800  1.0
  C  C1075  1  0.810500  0.511100  0.095200  1.0
  C  C1076  1  0.810500  0.988900  0.904800  1.0
  C  C1077  1  0.689500  0.988900  0.404800  1.0
  C  C1078  1  0.689500  0.511100  0.595200  1.0
  C  C1079  1  0.189500  0.488900  0.904800  1.0
  C  C1080  1  0.189500  0.011100  0.095200  1.0
  C  C1081  1  0.310200  0.022400  0.555300  1.0
  C  C1082  1  0.310200  0.477600  0.444700  1.0
  C  C1083  1  0.810200  0.522400  0.055300  1.0
  C  C1084  1  0.810200  0.977600  0.944700  1.0
  C  C1085  1  0.689800  0.977600  0.444700  1.0
  C  C1086  1  0.689800  0.522400  0.555300  1.0
  C  C1087  1  0.189800  0.477600  0.944700  1.0
  C  C1088  1  0.189800  0.022400  0.055300  1.0
  C  C1089  1  0.375700  0.148400  0.677500  1.0
  C  C1090  1  0.375700  0.351600  0.322500  1.0
  C  C1091  1  0.875700  0.648400  0.177500  1.0
  C  C1092  1  0.875700  0.851600  0.822500  1.0
  C  C1093  1  0.624300  0.851600  0.322500  1.0
  C  C1094  1  0.624300  0.648400  0.677500  1.0
  C  C1095  1  0.124300  0.351600  0.822500  1.0
  C  C1096  1  0.124300  0.148400  0.177500  1.0
  C  C1097  1  0.354400  0.202000  0.681200  1.0
  C  C1098  1  0.354400  0.298000  0.318800  1.0
  C  C1099  1  0.854400  0.702000  0.181200  1.0
  C  C1100  1  0.854400  0.798000  0.818800  1.0
  C  C1101  1  0.645600  0.798000  0.318800  1.0
  C  C1102  1  0.645600  0.702000  0.681200  1.0
  C  C1103  1  0.145600  0.298000  0.818800  1.0
  C  C1104  1  0.145600  0.202000  0.181200  1.0
  C  C1105  1  0.367900  0.245700  0.720000  1.0
  C  C1106  1  0.367900  0.254300  0.280000  1.0
  C  C1107  1  0.867900  0.745700  0.220000  1.0
  C  C1108  1  0.867900  0.754300  0.780000  1.0
  C  C1109  1  0.632100  0.754300  0.280000  1.0
  C  C1110  1  0.632100  0.745700  0.720000  1.0
  C  C1111  1  0.132100  0.254300  0.780000  1.0
  C  C1112  1  0.132100  0.245700  0.220000  1.0
  C  C1113  1  0.403700  0.234400  0.756400  1.0
  C  C1114  1  0.403700  0.265600  0.243600  1.0
  C  C1115  1  0.903700  0.734400  0.256400  1.0
  C  C1116  1  0.903700  0.765600  0.743600  1.0
  C  C1117  1  0.596300  0.765600  0.243600  1.0
  C  C1118  1  0.596300  0.734400  0.756400  1.0
  C  C1119  1  0.096300  0.265600  0.743600  1.0
  C  C1120  1  0.096300  0.234400  0.256400  1.0
  C  C1121  1  0.422300  0.180000  0.752800  1.0
  C  C1122  1  0.422300  0.320000  0.247200  1.0
  C  C1123  1  0.922300  0.680000  0.252800  1.0
  C  C1124  1  0.922300  0.820000  0.747200  1.0
  C  C1125  1  0.577700  0.820000  0.247200  1.0
  C  C1126  1  0.577700  0.680000  0.752800  1.0
  C  C1127  1  0.077700  0.320000  0.747200  1.0
  C  C1128  1  0.077700  0.180000  0.252800  1.0
  C  C1129  1  0.410700  0.138100  0.714900  1.0
  C  C1130  1  0.410700  0.361900  0.285100  1.0
  C  C1131  1  0.910700  0.638100  0.214900  1.0
  C  C1132  1  0.910700  0.861900  0.785100  1.0
  C  C1133  1  0.589300  0.861900  0.285100  1.0
  C  C1134  1  0.589300  0.638100  0.714900  1.0
  C  C1135  1  0.089300  0.361900  0.785100  1.0
  C  C1136  1  0.089300  0.138100  0.214900  1.0
  C  C1137  1  0.349100  0.301900  0.721400  1.0
  C  C1138  1  0.349100  0.198100  0.278600  1.0
  C  C1139  1  0.849100  0.801900  0.221400  1.0
  C  C1140  1  0.849100  0.698100  0.778600  1.0
  C  C1141  1  0.650900  0.698100  0.278600  1.0
  C  C1142  1  0.650900  0.801900  0.721400  1.0
  C  C1143  1  0.150900  0.198100  0.778600  1.0
  C  C1144  1  0.150900  0.301900  0.221400  1.0
  C  C1145  1  0.355000  0.316000  0.683600  1.0
  C  C1146  1  0.355000  0.184000  0.316400  1.0
  C  C1147  1  0.855000  0.816000  0.183600  1.0
  C  C1148  1  0.855000  0.684000  0.816400  1.0
  C  C1149  1  0.645000  0.684000  0.316400  1.0
  C  C1150  1  0.645000  0.816000  0.683600  1.0
  C  C1151  1  0.145000  0.184000  0.816400  1.0
  C  C1152  1  0.145000  0.316000  0.183600  1.0
  C  C1153  1  0.307800  0.095900  0.281400  1.0
  C  C1154  1  0.307800  0.404100  0.718600  1.0
  C  C1155  1  0.807800  0.595900  0.781400  1.0
  C  C1156  1  0.807800  0.904100  0.218600  1.0
  C  C1157  1  0.692200  0.904100  0.718600  1.0
  C  C1158  1  0.692200  0.595900  0.281400  1.0
  C  C1159  1  0.192200  0.404100  0.218600  1.0
  C  C1160  1  0.192200  0.095900  0.781400  1.0
  C  C1161  1  0.300800  0.105800  0.242200  1.0
  C  C1162  1  0.300800  0.394200  0.757800  1.0
  C  C1163  1  0.800800  0.605800  0.742200  1.0
  C  C1164  1  0.800800  0.894200  0.257800  1.0
  C  C1165  1  0.699200  0.894200  0.757800  1.0
  C  C1166  1  0.699200  0.605800  0.242200  1.0
  C  C1167  1  0.199200  0.394200  0.257800  1.0
  C  C1168  1  0.199200  0.105800  0.742200  1.0
  C  C1169  1  0.321800  0.343100  0.759900  1.0
  C  C1170  1  0.321800  0.156900  0.240100  1.0
  C  C1171  1  0.821800  0.843100  0.259900  1.0
  C  C1172  1  0.821800  0.656900  0.740100  1.0
  C  C1173  1  0.678200  0.656900  0.240100  1.0
  C  C1174  1  0.678200  0.843100  0.759900  1.0
  C  C1175  1  0.178200  0.156900  0.740100  1.0
  C  C1176  1  0.178200  0.343100  0.259900  1.0
  C  C1177  1  0.611000  0.173000  0.163000  1.0
  C  C1178  1  0.611000  0.327000  0.837000  1.0
  C  C1179  1  0.111000  0.673000  0.663000  1.0
  C  C1180  1  0.111000  0.827000  0.337000  1.0
  C  C1181  1  0.389000  0.827000  0.837000  1.0
  C  C1182  1  0.389000  0.673000  0.163000  1.0
  C  C1183  1  0.889000  0.327000  0.337000  1.0
  C  C1184  1  0.889000  0.173000  0.663000  1.0
  C  C1185  1  0.583000  0.179200  0.248900  1.0
  C  C1186  1  0.583000  0.320800  0.751100  1.0
  C  C1187  1  0.083000  0.679200  0.748900  1.0
  C  C1188  1  0.083000  0.820800  0.251100  1.0
  C  C1189  1  0.417000  0.820800  0.751100  1.0
  C  C1190  1  0.417000  0.679200  0.248900  1.0
  C  C1191  1  0.917000  0.320800  0.251100  1.0
  C  C1192  1  0.917000  0.179200  0.748900  1.0
  S  S1193  1  0.322300  0.853700  0.180400  1
  S  S1194  1  0.322300  0.646300  0.819600  1
  S  S1195  1  0.822300  0.353700  0.680400  1
  S  S1196  1  0.822300  0.146300  0.319600  1
  S  S1197  1  0.677700  0.146300  0.819600  1
  S  S1198  1  0.677700  0.353700  0.180400  1
  S  S1199  1  0.177700  0.646300  0.319600  1
  S  S1200  1  0.177700  0.853700  0.680400  1
  S  S1201  1  0.577500  0.190890  0.621840  1
  S  S1202  1  0.577500  0.309110  0.378160  1
  S  S1203  1  0.077500  0.690890  0.121840  1
  S  S1204  1  0.077500  0.809110  0.878160  1
  S  S1205  1  0.422500  0.809110  0.378160  1
  S  S1206  1  0.422500  0.690890  0.621840  1
  S  S1207  1  0.922500  0.309110  0.878160  1
  S  S1208  1  0.922500  0.190890  0.121840  1
  S  S1209  1  0.117800  0.242600  0.619200  1
  S  S1210  1  0.117800  0.257400  0.380800  1
  S  S1211  1  0.617800  0.742600  0.119200  1
  S  S1212  1  0.617800  0.757400  0.880800  1
  S  S1213  1  0.882200  0.757400  0.380800  1
  S  S1214  1  0.882200  0.742600  0.619200  1
  S  S1215  1  0.382200  0.257400  0.880800  1
  S  S1216  1  0.382200  0.242600  0.119200  1
  S  S1217  1  0.356800  0.860500  0.178000  1
  S  S1218  1  0.356800  0.639500  0.822000  1
  S  S1219  1  0.856800  0.360500  0.678000  1
  S  S1220  1  0.856800  0.139500  0.322000  1
  S  S1221  1  0.643200  0.139500  0.822000  1
  S  S1222  1  0.643200  0.360500  0.178000  1
  S  S1223  1  0.143200  0.639500  0.322000  1
  S  S1224  1  0.143200  0.860500  0.678000  1
  S  S1225  1  0.627700  0.219400  0.217600  1
  S  S1226  1  0.627700  0.280600  0.782400  1
  S  S1227  1  0.127700  0.719400  0.717600  1
  S  S1228  1  0.127700  0.780600  0.282400  1
  S  S1229  1  0.372300  0.780600  0.782400  1
  S  S1230  1  0.372300  0.719400  0.217600  1
  S  S1231  1  0.872300  0.280600  0.282400  1
  S  S1232  1  0.872300  0.219400  0.717600  1
  S  S1233  1  0.670800  0.183100  0.217500  1
  S  S1234  1  0.670800  0.316900  0.782500  1
  S  S1235  1  0.170800  0.683100  0.717500  1
  S  S1236  1  0.170800  0.816900  0.282500  1
  S  S1237  1  0.329200  0.816900  0.782500  1
  S  S1238  1  0.329200  0.683100  0.217500  1
  S  S1239  1  0.829200  0.316900  0.282500  1
  S  S1240  1  0.829200  0.183100  0.717500  1
  S  S1241  1  0.618000  0.241500  0.657700  1
  S  S1242  1  0.618000  0.258500  0.342300  1
  S  S1243  1  0.118000  0.741500  0.157700  1
  S  S1244  1  0.118000  0.758500  0.842300  1
  S  S1245  1  0.382000  0.758500  0.342300  1
  S  S1246  1  0.382000  0.741500  0.657700  1
  S  S1247  1  0.882000  0.258500  0.842300  1
  S  S1248  1  0.882000  0.241500  0.157700  1
  S  S1249  1  0.143300  0.209000  0.586000  1
  S  S1250  1  0.143300  0.291000  0.414000  1
  S  S1251  1  0.643300  0.709000  0.086000  1
  S  S1252  1  0.643300  0.791000  0.914000  1
  S  S1253  1  0.856700  0.791000  0.414000  1
  S  S1254  1  0.856700  0.709000  0.586000  1
  S  S1255  1  0.356700  0.291000  0.914000  1
  S  S1256  1  0.356700  0.209000  0.086000  1
  S  S1257  1  0.082600  0.082500  0.614900  1
  S  S1258  1  0.082600  0.417500  0.385100  1
  S  S1259  1  0.582600  0.582500  0.114900  1
  S  S1260  1  0.582600  0.917500  0.885100  1
  S  S1261  1  0.917400  0.917500  0.385100  1
  S  S1262  1  0.917400  0.582500  0.614900  1
  S  S1263  1  0.417400  0.417500  0.885100  1
  S  S1264  1  0.417400  0.082500  0.114900  1
  S  S1265  1  0.765800  0.230900  0.497600  1
  S  S1266  1  0.765800  0.269100  0.502400  1
  S  S1267  1  0.265800  0.730900  0.997600  1
  S  S1268  1  0.265800  0.769100  0.002400  1
  S  S1269  1  0.234200  0.769100  0.502400  1
  S  S1270  1  0.234200  0.730900  0.497600  1
  S  S1271  1  0.734200  0.269100  0.002400  1
  S  S1272  1  0.734200  0.230900  0.997600  1
  N  N1273  1  0.207700  0.110700  0.384600  1.0
  N  N1274  1  0.207700  0.389300  0.615400  1.0
  N  N1275  1  0.707700  0.610700  0.884600  1.0
  N  N1276  1  0.707700  0.889300  0.115400  1.0
  N  N1277  1  0.792300  0.889300  0.615400  1.0
  N  N1278  1  0.792300  0.610700  0.384600  1.0
  N  N1279  1  0.292300  0.389300  0.115400  1.0
  N  N1280  1  0.292300  0.110700  0.884600  1.0
  N  N1281  1  0.337200  0.109000  0.433800  1.0
  N  N1282  1  0.337200  0.391000  0.566200  1.0
  N  N1283  1  0.837200  0.609000  0.933800  1.0
  N  N1284  1  0.837200  0.891000  0.066200  1.0
  N  N1285  1  0.662800  0.891000  0.566200  1.0
  N  N1286  1  0.662800  0.609000  0.433800  1.0
  N  N1287  1  0.162800  0.391000  0.066200  1.0
  N  N1288  1  0.162800  0.109000  0.933800  1.0
  N  N1289  1  0.465700  0.126900  0.390800  1.0
  N  N1290  1  0.465700  0.373100  0.609200  1.0
  N  N1291  1  0.965700  0.626900  0.890800  1.0
  N  N1292  1  0.965700  0.873100  0.109200  1.0
  N  N1293  1  0.534300  0.873100  0.609200  1.0
  N  N1294  1  0.534300  0.626900  0.390800  1.0
  N  N1295  1  0.034300  0.373100  0.109200  1.0
  N  N1296  1  0.034300  0.126900  0.890800  1.0
  N  N1297  1  0.333500  0.134600  0.319200  1.0
  N  N1298  1  0.333500  0.365400  0.680800  1.0
  N  N1299  1  0.833500  0.634600  0.819200  1.0
  N  N1300  1  0.833500  0.865400  0.180800  1.0
  N  N1301  1  0.666500  0.865400  0.680800  1.0
  N  N1302  1  0.666500  0.634600  0.319200  1.0
  N  N1303  1  0.166500  0.365400  0.180800  1.0
  N  N1304  1  0.166500  0.134600  0.819200  1.0
  O  O1305  1  0.399000  0.824000  0.156100  1
  O  O1306  1  0.399000  0.676000  0.843900  1
  O  O1307  1  0.899000  0.324000  0.656100  1
  O  O1308  1  0.899000  0.176000  0.343900  1
  O  O1309  1  0.601000  0.176000  0.843900  1
  O  O1310  1  0.601000  0.324000  0.156100  1
  O  O1311  1  0.101000  0.676000  0.343900  1
  O  O1312  1  0.101000  0.824000  0.656100  1
  O  O1313  1  0.531600  0.245000  0.634500  1
  O  O1314  1  0.531600  0.255000  0.365500  1
  O  O1315  1  0.031600  0.745000  0.134500  1
  O  O1316  1  0.031600  0.755000  0.865500  1
  O  O1317  1  0.468400  0.755000  0.365500  1
  O  O1318  1  0.468400  0.745000  0.634500  1
  O  O1319  1  0.968400  0.255000  0.865500  1
  O  O1320  1  0.968400  0.245000  0.134500  1
  O  O1321  1  0.196700  0.256900  0.614900  1
  O  O1322  1  0.196700  0.243100  0.385100  1
  O  O1323  1  0.696700  0.756900  0.114900  1
  O  O1324  1  0.696700  0.743100  0.885100  1
  O  O1325  1  0.803300  0.743100  0.385100  1
  O  O1326  1  0.803300  0.756900  0.614900  1
  O  O1327  1  0.303300  0.243100  0.885100  1
  O  O1328  1  0.303300  0.256900  0.114900  1
  O  O1329  1  0.291000  0.819700  0.152800  1
  O  O1330  1  0.291000  0.680300  0.847200  1
  O  O1331  1  0.791000  0.319700  0.652800  1
  O  O1332  1  0.791000  0.180300  0.347200  1
  O  O1333  1  0.709000  0.180300  0.847200  1
  O  O1334  1  0.709000  0.319700  0.152800  1
  O  O1335  1  0.209000  0.680300  0.347200  1
  O  O1336  1  0.209000  0.819700  0.652800  1
  O  O1337  1  0.064200  0.131400  0.653000  1
  O  O1338  1  0.064200  0.368600  0.347000  1
  O  O1339  1  0.564200  0.631400  0.153000  1
  O  O1340  1  0.564200  0.868600  0.847000  1
  O  O1341  1  0.935800  0.868600  0.347000  1
  O  O1342  1  0.935800  0.631400  0.653000  1
  O  O1343  1  0.435800  0.368600  0.847000  1
  O  O1344  1  0.435800  0.131400  0.153000  1
  O  O1345  1  0.692600  0.268800  0.497200  1
  O  O1346  1  0.692600  0.231200  0.502800  1
  O  O1347  1  0.192600  0.768800  0.997200  1
  O  O1348  1  0.192600  0.731200  0.002800  1
  O  O1349  1  0.307400  0.731200  0.502800  1
  O  O1350  1  0.307400  0.768800  0.497200  1
  O  O1351  1  0.807400  0.231200  0.002800  1
  O  O1352  1  0.807400  0.268800  0.997200  1
  O  O1353  1  0.555300  0.244100  0.536100  1.0
  O  O1354  1  0.555300  0.255900  0.463900  1.0
  O  O1355  1  0.055300  0.744100  0.036100  1.0
  O  O1356  1  0.055300  0.755900  0.963900  1.0
  O  O1357  1  0.444700  0.755900  0.463900  1.0
  O  O1358  1  0.444700  0.744100  0.536100  1.0
  O  O1359  1  0.944700  0.255900  0.963900  1.0
  O  O1360  1  0.944700  0.244100  0.036100  1.0
  O  O1361  1  0.411000  0.237400  0.580600  1.0
  O  O1362  1  0.411000  0.262600  0.419400  1.0
  O  O1363  1  0.911000  0.737400  0.080600  1.0
  O  O1364  1  0.911000  0.762600  0.919400  1.0
  O  O1365  1  0.589000  0.762600  0.419400  1.0
  O  O1366  1  0.589000  0.737400  0.580600  1.0
  O  O1367  1  0.089000  0.262600  0.919400  1.0
  O  O1368  1  0.089000  0.237400  0.080600  1.0
  O  O1369  1  0.721600  0.231900  0.239900  1.0
  O  O1370  1  0.721600  0.268100  0.760100  1.0
  O  O1371  1  0.221600  0.731900  0.739900  1.0
  O  O1372  1  0.221600  0.768100  0.260100  1.0
  O  O1373  1  0.278400  0.768100  0.760100  1.0
  O  O1374  1  0.278400  0.731900  0.239900  1.0
  O  O1375  1  0.778400  0.268100  0.260100  1.0
  O  O1376  1  0.778400  0.231900  0.739900  1.0
  F  F1377  1  0.049200  0.045400  0.263700  1
  F  F1378  1  0.049200  0.454600  0.736300  1
  F  F1379  1  0.549200  0.545400  0.763700  1
  F  F1380  1  0.549200  0.954600  0.236300  1
  F  F1381  1  0.950800  0.954600  0.736300  1
  F  F1382  1  0.950800  0.545400  0.263700  1
  F  F1383  1  0.450800  0.454600  0.236300  1
  F  F1384  1  0.450800  0.045400  0.763700  1
  F  F1385  1  0.106900  0.988100  0.204100  1
  F  F1386  1  0.106900  0.511900  0.795900  1
  F  F1387  1  0.606900  0.488100  0.704100  1
  F  F1388  1  0.606900  0.011900  0.295900  1
  F  F1389  1  0.893100  0.011900  0.795900  1
  F  F1390  1  0.893100  0.488100  0.204100  1
  F  F1391  1  0.393100  0.511900  0.295900  1
  F  F1392  1  0.393100  0.988100  0.704100  1
  F  F1393  1  0.111100  0.924400  0.230300  1
  F  F1394  1  0.111100  0.575600  0.769700  1
  F  F1395  1  0.611100  0.424400  0.730300  1
  F  F1396  1  0.611100  0.075600  0.269700  1
  F  F1397  1  0.888900  0.075600  0.769700  1
  F  F1398  1  0.888900  0.424400  0.230300  1
  F  F1399  1  0.388900  0.575600  0.269700  1
  F  F1400  1  0.388900  0.924400  0.730300  1
  F  F1401  1  0.162500  0.000800  0.267600  1
  F  F1402  1  0.162500  0.499200  0.732400  1
  F  F1403  1  0.662500  0.500800  0.767600  1
  F  F1404  1  0.662500  0.999200  0.232400  1
  F  F1405  1  0.837500  0.999200  0.732400  1
  F  F1406  1  0.837500  0.500800  0.267600  1
  F  F1407  1  0.337500  0.499200  0.232400  1
  F  F1408  1  0.337500  0.000800  0.767600  1
  F  F1409  1  0.051100  0.982100  0.292300  1
  F  F1410  1  0.051100  0.517900  0.707700  1
  F  F1411  1  0.551100  0.482100  0.792300  1
  F  F1412  1  0.551100  0.017900  0.207700  1
  F  F1413  1  0.948900  0.017900  0.707700  1
  F  F1414  1  0.948900  0.482100  0.292300  1
  F  F1415  1  0.448900  0.517900  0.207700  1
  F  F1416  1  0.448900  0.982100  0.792300  1
  F  F1417  1  0.996400  0.961500  0.230400  1
  F  F1418  1  0.996400  0.538500  0.769600  1
  F  F1419  1  0.496400  0.461500  0.730400  1
  F  F1420  1  0.496400  0.038500  0.269600  1
  F  F1421  1  0.003600  0.038500  0.769600  1
  F  F1422  1  0.003600  0.461500  0.230400  1
  F  F1423  1  0.503600  0.538500  0.269600  1
  F  F1424  1  0.503600  0.961500  0.730400  1
  F  F1425  1  0.169300  0.903900  0.552300  1
  F  F1426  1  0.169300  0.596100  0.447700  1
  F  F1427  1  0.669300  0.403900  0.052300  1
  F  F1428  1  0.669300  0.096100  0.947700  1
  F  F1429  1  0.830700  0.096100  0.447700  1
  F  F1430  1  0.830700  0.403900  0.552300  1
  F  F1431  1  0.330700  0.596100  0.947700  1
  F  F1432  1  0.330700  0.903900  0.052300  1
  F  F1433  1  0.221200  0.905700  0.487400  1
  F  F1434  1  0.221200  0.594300  0.512600  1
  F  F1435  1  0.721200  0.405700  0.987400  1
  F  F1436  1  0.721200  0.094300  0.012600  1
  F  F1437  1  0.778800  0.094300  0.512600  1
  F  F1438  1  0.778800  0.405700  0.487400  1
  F  F1439  1  0.278800  0.594300  0.012600  1
  F  F1440  1  0.278800  0.905700  0.987400  1
  F  F1441  1  0.105000  0.956400  0.518800  1
  F  F1442  1  0.105000  0.543600  0.481200  1
  F  F1443  1  0.605000  0.456400  0.018800  1
  F  F1444  1  0.605000  0.043600  0.981200  1
  F  F1445  1  0.895000  0.043600  0.481200  1
  F  F1446  1  0.895000  0.456400  0.518800  1
  F  F1447  1  0.395000  0.543600  0.981200  1
  F  F1448  1  0.395000  0.956400  0.018800  1
  F  F1449  1  0.091600  0.865100  0.491600  1
  F  F1450  1  0.091600  0.634900  0.508400  1
  F  F1451  1  0.591600  0.365100  0.991600  1
  F  F1452  1  0.591600  0.134900  0.008400  1
  F  F1453  1  0.908400  0.134900  0.508400  1
  F  F1454  1  0.908400  0.365100  0.491600  1
  F  F1455  1  0.408400  0.634900  0.008400  1
  F  F1456  1  0.408400  0.865100  0.991600  1
