
#######################################################################
#
#                 Cambridge Crystallographic Data Centre
#                                CCDC 
#
#######################################################################
#
# If this CIF has been generated from an entry in the Cambridge 
# Structural Database, then it will include bibliographic, chemical, 
# crystal, experimental, refinement or atomic coordinate data resulting 
# from the CCDC's data processing and validation procedures.
#
#######################################################################

data_NAPGES
_chemical_formula_moiety         
'C72 H44 N8 Pt2 4+,2(C2 H6 O1 S1),4(F6 P1 1-),0.33(C6 H6),2.33(C6 H4 I2 O1)'
_chemical_name_systematic        
"bis(\m~2~-7-[3'-(pyridin-2-yl)biphenyl-3-yl]quinolino[8,7-b][1,10]phenanthroline)-di-platinum(ii) tetrakis(hexafluorophosphate) dimethyl sulfoxide benzene 2,6-diiodophenol solvate"
_symmetry_cell_setting           monoclinic
_symmetry_space_group_name_H-M   'C 2/c'
_symmetry_Int_Tables_number      15
_space_group_name_Hall           '-C 2yn'
loop_
_symmetry_equiv_pos_site_id
_symmetry_equiv_pos_as_xyz
1 x,y,z
2 -x,y,1/2-z
3 1/2+x,1/2+y,z
4 1/2-x,1/2+y,1/2-z
5 -x,-y,-z
6 x,-y,1/2+z
7 1/2-x,1/2-y,-z
8 1/2+x,1/2-y,1/2+z
_cell_length_a                   65.719(5)
_cell_length_b                   14.7112(13)
_cell_length_c                   30.962(2)
_cell_angle_alpha                90
_cell_angle_beta                 96.7679(16)
_cell_angle_gamma                90
_cell_volume                     29725.6
_exptl_crystal_colour            orange
_exptl_crystal_description       prismatic
_cell_formula_units_Z            12
_exptl_crystal_recrystallization_method 'dimethyl sulfoxide/benzene'
loop_
_atom_site_label
_atom_site_type_symbol
_atom_site_fract_x
_atom_site_fract_y
_atom_site_fract_z
Pt1 Pt 0.047618(14) 0.89038(8) 0.04358(3)
Pt2 Pt 0.107558(14) 0.60202(8) 0.25807(3)
C1 C 0.0439(4) 0.712(2) 0.0109(7)
N1 N 0.0521(3) 0.7903(16) -0.0001(6)
C2 C 0.0621(4) 0.786(2) -0.0351(8)
H1 H 0.0689 0.8391 -0.0432
C3 C 0.0630(4) 0.710(2) -0.0599(8)
H2 H 0.0697 0.7109 -0.0855
C4 C 0.0545(4) 0.636(2) -0.0476(9)
H3 H 0.0557 0.5819 -0.0642
C5 C 0.0437(4) 0.631(2) -0.0118(8)
C6 C 0.0322(4) 0.717(2) 0.0487(8)
N2 N 0.0331(3) 0.7959(15) 0.0674(6)
C7 C 0.0232(4) 0.808(2) 0.1029(7)
C8 C 0.0120(3) 0.736(2) 0.1193(7)
C9 C 0.0126(3) 0.6575(17) 0.1001(6)
C10 C 0.0222(3) 0.638(2) 0.0641(8)
C11 C 0.0260(3) 0.899(2) 0.1166(9)
N3 N 0.0379(3) 0.9570(16) 0.0954(6)
C12 C 0.0404(3) 1.042(2) 0.1097(8)
H4 H 0.0484 1.0829 0.0952
C13 C 0.0315(5) 1.070(2) 0.1454(11)
H5 H 0.0338 1.1305 0.1554
C14 C 0.0195(4) 1.013(2) 0.1675(9)
H6 H 0.0135 1.0343 0.1921
C15 C 0.0164(4) 0.924(2) 0.1521(10)
C16 C 0.0333(4) 0.554(2) 0.0044(9)
H7 H 0.0344 0.4970 -0.0100
C17 C 0.0224(4) 0.556(2) 0.0379(8)
H8 H 0.0147 0.5039 0.0446
C18 C 0.0026(4) 0.769(3) 0.1574(9)
H9 H -0.0052 0.7276 0.1725
C19 C 0.0047(4) 0.854(3) 0.1709(11)
H10 H -0.0020 0.8704 0.1953
C20 C 0.0018(4) 0.5797(16) 0.1213(8)
C21 C 0.0126(4) 0.511(2) 0.1441(8)
H11 H 0.0271 0.5092 0.1441
C22 C 0.0035(4) 0.444(2) 0.1669(8)
C23 C -0.0170(4) 0.438(2) 0.1641(8)
H12 H -0.0232 0.3895 0.1782
C24 C -0.0286(4) 0.500(2) 0.1415(9)
H13 H -0.0431 0.4944 0.1399
C25 C -0.0202(4) 0.5735(19) 0.1195(8)
H14 H -0.0288 0.6175 0.1042
C26 C 0.0168(5) 0.378(3) 0.1936(9)
C27 C 0.0352(4) 0.409(2) 0.2184(7)
H15 H 0.0395 0.4701 0.2160
C28 C 0.0470(3) 0.348(2) 0.2466(7)
C29 C 0.0409(4) 0.262(2) 0.2504(8)
H16 H 0.0490 0.2225 0.2695
C30 C 0.0236(4) 0.230(2) 0.2284(9)
H17 H 0.0195 0.1688 0.2326
C31 C 0.0119(4) 0.285(2) 0.2000(8)
H18 H 0.0000 0.2599 0.1838
C32 C 0.0648(3) 0.3902(17) 0.2732(8)
C33 C 0.0760(4) 0.4585(18) 0.2589(8)
H19 H 0.0728 0.4764 0.2294
N4 N 0.0910(3) 0.5025(15) 0.2822(6)
C34 C 0.0955(4) 0.475(2) 0.3239(10)
H20 H 0.1062 0.5056 0.3414
C35 C 0.0857(4) 0.407(3) 0.3422(9)
H21 H 0.0894 0.3910 0.3718
C36 C 0.0704(4) 0.3613(19) 0.3174(7)
H22 H 0.0636 0.3115 0.3291
C37 C 0.1077(3) 0.794(2) 0.2780(7)
N5 N 0.0992(3) 0.7139(16) 0.2909(6)
C38 C 0.0866(4) 0.718(2) 0.3221(8)
H23 H 0.0806 0.6651 0.3327
C39 C 0.0825(4) 0.809(3) 0.3387(9)
H24 H 0.0737 0.8137 0.3608
C40 C 0.0906(4) 0.887(2) 0.3245(8)
H25 H 0.0873 0.9442 0.3358
C41 C 0.1041(4) 0.880(2) 0.2930(7)
C42 C 0.1205(3) 0.7813(19) 0.2457(7)
N6 N 0.1228(2) 0.6941(14) 0.2336(5)
C43 C 0.1343(4) 0.673(2) 0.2016(7)
C44 C 0.1446(3) 0.739(2) 0.1806(7)
C45 C 0.1430(3) 0.8283(19) 0.1951(8)
C46 C 0.1312(3) 0.855(2) 0.2256(8)
C47 C 0.1329(3) 0.5796(19) 0.1931(7)
N7 N 0.1212(3) 0.5231(15) 0.2145(6)
C48 C 0.1206(4) 0.434(2) 0.2030(8)
H26 H 0.1125 0.3930 0.2175
C49 C 0.1311(4) 0.403(2) 0.1720(8)
H27 H 0.1298 0.3398 0.1653
C50 C 0.1431(4) 0.452(2) 0.1495(9)
H28 H 0.1506 0.4251 0.1284
C51 C 0.1443(3) 0.547(2) 0.1585(7)
C52 C 0.1141(4) 0.9557(17) 0.2757(8)
H29 H 0.1120 1.0156 0.2857
C53 C 0.1268(4) 0.9400(18) 0.2442(8)
H30 H 0.1334 0.9918 0.2339
C54 C 0.1564(3) 0.702(2) 0.1477(7)
H31 H 0.1645 0.7422 0.1330
C55 C 0.1563(4) 0.611(2) 0.1369(8)
H32 H 0.1642 0.5911 0.1150
C56 C 0.1543(4) 0.9027(19) 0.1724(8)
C57 C 0.1426(4) 0.9730(19) 0.1496(8)
H33 H 0.1281 0.9740 0.1495
C58 C 0.1520(4) 1.040(2) 0.1277(8)
C59 C 0.1737(4) 1.038(2) 0.1296(8)
H34 H 0.1805 1.0848 0.1156
C60 C 0.1853(4) 0.968(2) 0.1517(8)
H35 H 0.1998 0.9682 0.1518
C61 C 0.1761(3) 0.8995(19) 0.1733(9)
H36 H 0.1840 0.8523 0.1880
C62 C 0.1389(4) 1.111(2) 0.1027(7)
C63 C 0.1217(3) 1.0753(19) 0.0777(7)
H37 H 0.1183 1.0127 0.0791
C64 C 0.1096(4) 1.136(2) 0.0504(8)
C65 C 0.1152(4) 1.2266(19) 0.0476(8)
H38 H 0.1071 1.2671 0.0289
C66 C 0.1328(4) 1.2575(19) 0.0724(8)
H39 H 0.1367 1.3195 0.0714
C67 C 0.1442(4) 1.1972(19) 0.0982(8)
H40 H 0.1567 1.2179 0.1139
C68 C 0.0905(4) 1.0965(18) 0.0235(7)
C69 C 0.0789(3) 1.0330(19) 0.0409(7)
H41 H 0.0824 1.0179 0.0707
N8 N 0.0629(3) 0.9900(16) 0.0190(6)
C70 C 0.0580(4) 1.021(2) -0.0236(9)
H42 H 0.0467 0.9936 -0.0405
C71 C 0.0680(5) 1.089(2) -0.0429(8)
H43 H 0.0638 1.1066 -0.0721
C72 C 0.0843(4) 1.1289(19) -0.0186(8)
H44 H 0.0913 1.1782 -0.0300
Pt3 Pt 0.280492(13) 0.59218(7) 0.60306(3)
C73 C 0.2770(3) 0.7819(18) 0.6199(7)
N9 N 0.2683(3) 0.6996(15) 0.6299(7)
C74 C 0.2540(4) 0.707(2) 0.6560(8)
H45 H 0.2473 0.6530 0.6640
C75 C 0.2478(5) 0.793(3) 0.6731(10)
H46 H 0.2375 0.7954 0.6922
C76 C 0.2569(5) 0.871(3) 0.6618(10)
H47 H 0.2530 0.9282 0.6728
C77 C 0.2725(4) 0.866(2) 0.6326(8)
C78 C 0.2923(3) 0.7697(18) 0.5899(7)
N10 N 0.2955(2) 0.6868(14) 0.5806(5)
C79 C 0.3088(4) 0.6680(19) 0.5537(7)
C80 C 0.3197(3) 0.7374(19) 0.5353(7)
C81 C 0.3166(3) 0.8248(17) 0.5463(7)
C82 C 0.3034(3) 0.8440(18) 0.5738(7)
C83 C 0.3098(4) 0.576(2) 0.5441(8)
N11 N 0.2983(3) 0.5151(15) 0.5670(7)
C84 C 0.2999(5) 0.430(2) 0.5588(9)
H48 H 0.2913 0.3892 0.5721
C85 C 0.3134(5) 0.393(2) 0.5318(12)
H49 H 0.3138 0.3292 0.5280
C86 C 0.3259(5) 0.447(3) 0.5109(12)
H50 H 0.3353 0.4216 0.4931
C87 C 0.3242(4) 0.543(2) 0.5168(9)
C88 C 0.2841(4) 0.937(2) 0.6196(9)
H51 H 0.2815 0.9956 0.6309
C89 C 0.2987(3) 0.9325(18) 0.5926(8)
H52 H 0.3058 0.9857 0.5857
C90 C 0.3338(4) 0.700(3) 0.5040(9)
H53 H 0.3416 0.7424 0.4896
C91 C 0.3360(5) 0.613(3) 0.4956(9)
H54 H 0.3452 0.5942 0.4758
C92 C 0.3281(4) 0.9026(19) 0.5264(7)
C93 C 0.3176(3) 0.9692(19) 0.5025(7)
H55 H 0.3031 0.9673 0.4998
C94 C 0.3267(3) 1.0395(16) 0.4819(7)
C95 C 0.3479(4) 1.0427(19) 0.4857(7)
H56 H 0.3546 1.0904 0.4724
C96 C 0.3594(3) 0.974(2) 0.5096(7)
H57 H 0.3739 0.9762 0.5124
C97 C 0.3501(4) 0.905(2) 0.5283(7)
H58 H 0.3581 0.8577 0.5428
C98 C 0.3140(3) 1.1112(17) 0.4550(7)
C99 C 0.2957(3) 1.0843(16) 0.4309(7)
H59 H 0.2915 1.0228 0.4327
C100 C 0.2837(3) 1.1420(18) 0.4050(7)
C101 C 0.2905(4) 1.2305(18) 0.4038(7)
H60 H 0.2826 1.2732 0.3858
C102 C 0.3082(4) 1.2584(19) 0.4278(8)
H61 H 0.3126 1.3195 0.4254
C103 C 0.3194(4) 1.201(2) 0.4545(7)
H62 H 0.3309 1.2231 0.4729
C104 C 0.2649(3) 1.1081(16) 0.3787(7)
C105 C 0.2533(3) 1.0421(16) 0.3940(7)
H63 H 0.2578 1.0180 0.4220
N12 N 0.2641(3) 0.4921(15) 0.6272(6)
C106 C 0.2707(3) 0.4558(18) 0.6672(8)
H64 H 0.2832 0.4764 0.6826
C107 C 0.2594(3) 0.3900(17) 0.6851(8)
H65 H 0.2637 0.3677 0.7136
C108 C 0.2579(3) 1.1432(19) 0.3381(7)
H66 H 0.2653 1.1909 0.3263
Pt3F Pt 0.219508(13) 0.90782(7) 0.39694(3)
C73F C 0.2230(3) 0.7181(18) 0.3801(7)
N9F N 0.2317(3) 0.8004(15) 0.3701(7)
C74F C 0.2460(4) 0.793(2) 0.3440(8)
H45F H 0.2527 0.8470 0.3360
C75F C 0.2522(5) 0.707(3) 0.3269(10)
H46F H 0.2625 0.7046 0.3078
C76F C 0.2431(5) 0.629(3) 0.3382(10)
H47F H 0.2470 0.5718 0.3272
C77F C 0.2275(4) 0.634(2) 0.3674(8)
C78F C 0.2077(3) 0.7303(18) 0.4101(7)
N10F N 0.2045(2) 0.8132(14) 0.4194(5)
C79F C 0.1912(4) 0.8320(19) 0.4463(7)
C80F C 0.1803(3) 0.7626(19) 0.4647(7)
C81F C 0.1834(3) 0.6752(17) 0.4537(7)
C82F C 0.1966(3) 0.6560(18) 0.4262(7)
C83F C 0.1902(4) 0.924(2) 0.4559(8)
N11F N 0.2017(3) 0.9849(15) 0.4330(7)
C84F C 0.2001(5) 1.070(2) 0.4412(9)
H48F H 0.2087 1.1108 0.4279
C85F C 0.1866(5) 1.107(2) 0.4682(12)
H49F H 0.1862 1.1708 0.4720
C86F C 0.1741(5) 1.053(3) 0.4891(12)
H50F H 0.1647 1.0784 0.5069
C87F C 0.1758(4) 0.957(2) 0.4832(9)
C88F C 0.2159(4) 0.563(2) 0.3804(9)
H51F H 0.2185 0.5044 0.3691
C89F C 0.2013(3) 0.5675(18) 0.4074(8)
H52F H 0.1942 0.5143 0.4143
C90F C 0.1662(4) 0.800(3) 0.4960(9)
H53F H 0.1584 0.7576 0.5104
C91F C 0.1640(5) 0.887(3) 0.5044(9)
H54F H 0.1548 0.9058 0.5242
C92F C 0.1719(4) 0.5974(19) 0.4736(7)
C93F C 0.1824(3) 0.5308(19) 0.4975(7)
H55F H 0.1969 0.5327 0.5002
C94F C 0.1733(3) 0.4605(16) 0.5181(7)
C95F C 0.1521(4) 0.4573(19) 0.5143(7)
H56F H 0.1454 0.4096 0.5276
C96F C 0.1406(3) 0.526(2) 0.4904(7)
H57F H 0.1261 0.5238 0.4876
C97F C 0.1499(4) 0.595(2) 0.4717(7)
H58F H 0.1419 0.6423 0.4572
C98F C 0.1860(3) 0.3888(17) 0.5450(7)
C99F C 0.2043(3) 0.4157(16) 0.5691(7)
H59F H 0.2085 0.4772 0.5673
C100F C 0.2163(3) 0.3580(18) 0.5950(7)
C101F C 0.2095(4) 0.2695(18) 0.5962(7)
H60F H 0.2174 0.2268 0.6142
C102F C 0.1918(4) 0.2416(19) 0.5722(8)
H61F H 0.1874 0.1805 0.5746
C103F C 0.1806(4) 0.299(2) 0.5455(7)
H62F H 0.1691 0.2769 0.5271
C104F C 0.2351(3) 0.3919(16) 0.6213(7)
C105F C 0.2467(3) 0.4579(16) 0.6060(7)
H63F H 0.2422 0.4820 0.5780
N12F N 0.2359(3) 1.0079(15) 0.3728(6)
C106F C 0.2293(3) 1.0442(18) 0.3328(8)
H64F H 0.2168 1.0236 0.3174
C107F C 0.2406(3) 1.1100(17) 0.3149(8)
H65F H 0.2363 1.1323 0.2864
C108F C 0.2421(3) 0.3568(19) 0.6619(7)
H66F H 0.2347 0.3091 0.6737
P1 P 0.11901(15) 0.8046(9) 0.0110(3)
F1 F 0.0998(3) 0.831(2) 0.0327(7)
F2 F 0.1093(4) 0.7127(19) -0.0059(8)
F3 F 0.1088(3) 0.8512(17) -0.0313(6)
F4 F 0.1295(4) 0.8946(19) 0.0256(9)
F5 F 0.1386(3) 0.7876(15) -0.0130(6)
F6 F 0.1284(3) 0.753(2) 0.0534(7)
P2 P 0.09027(12) 0.1752(6) 0.1818(3)
F7 F 0.1011(3) 0.2345(13) 0.1477(6)
F8 F 0.0684(3) 0.2118(18) 0.1613(9)
F9 F 0.0913(3) 0.2592(16) 0.2140(7)
F10 F 0.0787(3) 0.1252(14) 0.2158(6)
F11 F 0.0880(3) 0.0925(15) 0.1518(6)
F12 F 0.1105(3) 0.1391(18) 0.2040(9)
P3 P 0.08051(15) 0.3864(8) -0.0607(3)
F13 F 0.0889(3) 0.4878(16) -0.0529(8)
F14 F 0.0601(4) 0.4170(18) -0.0442(7)
F15 F 0.0721(3) 0.4225(15) -0.1055(6)
F16 F 0.1000(3) 0.3482(18) -0.0723(10)
F17 F 0.0875(6) 0.3665(18) -0.0147(7)
F18 F 0.0699(4) 0.2951(16) -0.0739(7)
P4 P 0.04159(14) 0.9348(7) -0.1528(3)
F19 F 0.0251(3) 0.9401(16) -0.1930(6)
F20 F 0.0258(3) 0.9410(16) -0.1203(7)
F21 F 0.0598(3) 0.9270(14) -0.1156(5)
F22 F 0.0577(3) 0.9300(13) -0.1870(5)
F23 F 0.0446(3) 1.0401(13) -0.1522(6)
F24 F 0.0395(3) 0.8281(14) -0.1534(6)
P5 P 0.24170(13) 0.8945(6) 0.2228(3)
F25 F 0.2274(5) 0.8525(19) 0.1865(10)
F26 F 0.2303(3) 0.9902(12) 0.2132(6)
F27 F 0.2579(5) 0.9193(19) 0.1933(9)
F28 F 0.2558(3) 0.9357(14) 0.2604(8)
F29 F 0.2535(3) 0.7995(13) 0.2305(6)
F30 F 0.2260(4) 0.871(2) 0.2525(12)
P6 P 0.30313(18) 0.8463(10) 0.3662(4)
F31 F 0.3194(3) 0.8606(18) 0.4078(7)
F32 F 0.2875(3) 0.8571(18) 0.3927(8)
F33 F 0.3216(3) 0.8200(15) 0.3383(6)
F34 F 0.2877(3) 0.844(2) 0.3227(8)
F35 F 0.3080(4) 0.9539(19) 0.3557(9)
F36 F 0.2997(3) 0.7477(19) 0.3775(8)
S1 S 0.07887(17) 0.5337(8) 0.0994(3)
O1 O 0.0844(4) 0.5525(18) 0.1430(9)
C109 C 0.0973(5) 0.554(3) 0.0659(12)
H67 H 0.1010 0.6190 0.0672
H68 H 0.0921 0.5383 0.0359
H69 H 0.1095 0.5178 0.0753
C110 C 0.0698(3) 0.4065(17) 0.0961(8)
H70 H 0.0592 0.3973 0.1155
H71 H 0.0814 0.3665 0.1049
H72 H 0.0641 0.3922 0.0661
S2 S 0.19038(14) 0.5612(8) 0.2711(3)
O2 O 0.1686(3) 0.5878(18) 0.2632(7)
C111 C 0.2016(5) 0.602(3) 0.2284(12)
H73 H 0.2038 0.6676 0.2318
H74 H 0.1927 0.5901 0.2013
H75 H 0.2148 0.5718 0.2274
C112 C 0.1914(8) 0.454(4) 0.2441(18)
H76 H 0.1854 0.4072 0.2609
H77 H 0.2057 0.4388 0.2415
H78 H 0.1837 0.4582 0.2150
S3 S 0.17361(15) 1.0993(8) 0.2464(3)
O3 O 0.1792(4) 1.104(3) 0.2958(9)
C113 C 0.1584(6) 1.195(3) 0.2370(13)
H79 H 0.1445 1.1820 0.2436
H80 H 0.1580 1.2132 0.2064
H81 H 0.1642 1.2451 0.2556
C114 C 0.1955(5) 1.155(2) 0.2298(11)
H82 H 0.2071 1.1129 0.2327
H83 H 0.1988 1.2083 0.2481
H84 H 0.1925 1.1739 0.1993
I1 I 0.08783(3) 0.79302(15) 0.12676(5)
O4 O 0.0606(2) 0.6563(15) 0.1843(5)
H85 H 0.0672 0.6506 0.1628
I2 I 0.03496(3) 0.66015(15) 0.26199(6)
C115 C 0.0712(4) 0.816(2) 0.1791(8)
C116 C 0.0611(3) 0.744(2) 0.1973(7)
C117 C 0.0499(4) 0.7634(17) 0.2318(8)
C118 C 0.0494(4) 0.8498(18) 0.2478(8)
H86 H 0.0421 0.8612 0.2718
C119 C 0.0597(4) 0.9235(19) 0.2295(8)
H87 H 0.0589 0.9836 0.2403
C120 C 0.0707(5) 0.905(3) 0.1958(9)
H88 H 0.0780 0.9516 0.1835
I3 I 0.18563(3) 0.85164(17) 0.29360(6)
O5 O 0.1621(3) 0.9926(16) 0.3523(6)
H89 H 0.1714 0.9940 0.3361
I4 I 0.12650(4) 0.99002(19) 0.41437(7)
C121 C 0.1630(4) 0.832(2) 0.3345(9)
C122 C 0.1552(5) 0.903(3) 0.3557(10)
C123 C 0.1393(4) 0.889(2) 0.3828(9)
C124 C 0.1339(4) 0.799(2) 0.3877(9)
H90 H 0.1242 0.7878 0.4075
C125 C 0.1414(4) 0.717(2) 0.3653(8)
H91 H 0.1366 0.6570 0.3686
C126 C 0.1564(4) 0.742(2) 0.3391(8)
H92 H 0.1625 0.6955 0.3236
C139 C -0.0087(4) 0.9379(12) 0.0152(8)
C140 C -0.0050(3) 0.8878(12) -0.0211(6)
C141 C -0.0117(4) 0.7982(12) -0.0256(8)
C142 C -0.0220(6) 0.7588(15) 0.0063(12)
C143 C -0.0257(7) 0.809(2) 0.0426(12)
C144 C -0.0191(6) 0.898(2) 0.0471(9)
I5? I 0.15301(9) 0.4779(5) 0.3143(2)
O6? O 0.1206(3) 0.3189(12) 0.2885(8)
H93? H 0.1121 0.2771 0.2817
I6? I 0.09568(11) 0.1634(5) 0.3321(2)
C127? C 0.1395(3) 0.3846(12) 0.3532(9)
C128? C 0.1257(3) 0.3202(11) 0.3343(7)
C129? C 0.1167(3) 0.2588(12) 0.3602(9)
C130? C 0.1213(6) 0.262(2) 0.4052(9)
H94? H 0.1151 0.2196 0.4229
C131? C 0.1351(7) 0.326(3) 0.4241(7)
H95? H 0.1383 0.3279 0.4549
C132? C 0.1442(6) 0.387(2) 0.3982(10)
H96? H 0.1536 0.4314 0.4112
C133? C 0.1455(7) 0.436(3) 0.3754(18)
H97? H 0.1498 0.4928 0.3879
C134? C 0.1444(7) 0.424(3) 0.3306(17)
H98? H 0.1479 0.4720 0.3126
C135? C 0.1380(7) 0.341(4) 0.3123(12)
H99? H 0.1373 0.3321 0.2818
C136? C 0.1329(7) 0.270(3) 0.3388(17)
H100? H 0.1286 0.2131 0.3263
C137? C 0.1340(7) 0.282(3) 0.3835(16)
H101? H 0.1305 0.2339 0.4016
C138? C 0.1404(7) 0.365(4) 0.4018(12)
H102? H 0.1411 0.3738 0.4324
I7? I 0.00145(9) 1.0745(5) 0.01977(18)
O7? O 0.0058(3) 0.9247(13) -0.0557(7)
H103? H 0.0160 0.8920 -0.0587
I8? I -0.00674(9) 0.7168(4) -0.07708(18)
H104? H -0.0266 0.6976 0.0033
H105? H -0.0328 0.7819 0.0644
H106? H -0.0216 0.9327 0.0719
I9? I 0.27591(19) 0.6485(12) 0.4480(4)
O8? O 0.2697(3) 0.8602(15) 0.4702(7)
H107? H 0.2232 0.6731 0.5442
I10? I 0.24316(19) 0.9912(10) 0.5254(4)
C145? C 0.2558(4) 0.7123(14) 0.4881(8)
C146? C 0.2566(3) 0.8066(14) 0.4912(6)
C147? C 0.2438(4) 0.8522(15) 0.5167(8)
C148? C 0.2303(5) 0.804(2) 0.5391(12)
H108? H 0.2784 0.6653 0.4435
C149? C 0.2295(7) 0.709(2) 0.5360(15)
H109? H 0.2798 0.8239 0.4487
C150? C 0.2422(6) 0.6637(15) 0.5105(14)
H110? H 0.2584 0.9006 0.4917
I11? I 0.2387(4) 0.3987(15) 0.4794(9)
O9? O 0.2397(9) 0.614(2) 0.503(2)
H111? H 0.2625 0.8300 0.4960
I12? I 0.2621(4) 0.8001(16) 0.4786(10)
C151? C 0.2554(9) 0.5075(18) 0.4577(19)
C152? C 0.2533(5) 0.5957(18) 0.4726(10)
C153? C 0.2647(9) 0.6658(19) 0.4573(19)
C154? C 0.2782(19) 0.648(3) 0.427(4)
H112? H 0.2859 0.6957 0.4165
C155? C 0.280(2) 0.560(4) 0.412(5)
H113? H 0.2895 0.5472 0.3914
C156? C 0.2689(19) 0.489(3) 0.427(4)
H114? H 0.2704 0.4291 0.4173
loop_
_geom_bond_atom_site_label_1
_geom_bond_atom_site_label_2
_geom_bond_site_symmetry_1
_geom_bond_site_symmetry_2
Pt1 N1 1_555 1_555
Pt2 N4 1_555 1_555
Pt3 N9 1_555 1_555
C1 N1 1_555 1_555
N1 C2 1_555 1_555
C2 H1 1_555 1_555
C3 C2 1_555 1_555
H2 C3 1_555 1_555
C4 C3 1_555 1_555
H3 C4 1_555 1_555
C5 C1 1_555 1_555
C6 C1 1_555 1_555
N2 Pt1 1_555 1_555
C7 N2 1_555 1_555
C8 C7 1_555 1_555
C9 C8 1_555 1_555
C10 C6 1_555 1_555
C11 C7 1_555 1_555
N3 Pt1 1_555 1_555
C12 N3 1_555 1_555
H4 C12 1_555 1_555
C13 C12 1_555 1_555
H5 C13 1_555 1_555
C14 C13 1_555 1_555
H6 C14 1_555 1_555
C15 C11 1_555 1_555
C16 C5 1_555 1_555
H7 C16 1_555 1_555
C17 C10 1_555 1_555
H8 C17 1_555 1_555
C18 C8 1_555 1_555
H9 C18 1_555 1_555
C19 C15 1_555 1_555
H10 C19 1_555 1_555
C20 C9 1_555 1_555
C21 C20 1_555 1_555
H11 C21 1_555 1_555
C22 C21 1_555 1_555
C23 C22 1_555 1_555
H12 C23 1_555 1_555
C24 C23 1_555 1_555
H13 C24 1_555 1_555
C25 C20 1_555 1_555
H14 C25 1_555 1_555
C26 C22 1_555 1_555
C27 C26 1_555 1_555
H15 C27 1_555 1_555
C28 C27 1_555 1_555
C29 C28 1_555 1_555
H16 C29 1_555 1_555
C30 C29 1_555 1_555
H17 C30 1_555 1_555
C31 C26 1_555 1_555
H18 C31 1_555 1_555
C32 C28 1_555 1_555
C33 C32 1_555 1_555
H19 C33 1_555 1_555
N4 C33 1_555 1_555
C34 N4 1_555 1_555
H20 C34 1_555 1_555
C35 C34 1_555 1_555
H21 C35 1_555 1_555
C36 C32 1_555 1_555
H22 C36 1_555 1_555
C37 N5 1_555 1_555
N5 Pt2 1_555 1_555
C38 N5 1_555 1_555
H23 C38 1_555 1_555
C39 C38 1_555 1_555
H24 C39 1_555 1_555
C40 C39 1_555 1_555
H25 C40 1_555 1_555
C41 C37 1_555 1_555
C42 C37 1_555 1_555
N6 Pt2 1_555 1_555
C43 N6 1_555 1_555
C44 C43 1_555 1_555
C45 C44 1_555 1_555
C46 C42 1_555 1_555
C47 C43 1_555 1_555
N7 Pt2 1_555 1_555
C48 N7 1_555 1_555
H26 C48 1_555 1_555
C49 C48 1_555 1_555
H27 C49 1_555 1_555
C50 C49 1_555 1_555
H28 C50 1_555 1_555
C51 C47 1_555 1_555
C52 C41 1_555 1_555
H29 C52 1_555 1_555
C53 C46 1_555 1_555
H30 C53 1_555 1_555
C54 C44 1_555 1_555
H31 C54 1_555 1_555
C55 C51 1_555 1_555
H32 C55 1_555 1_555
C56 C45 1_555 1_555
C57 C56 1_555 1_555
H33 C57 1_555 1_555
C58 C57 1_555 1_555
C59 C58 1_555 1_555
H34 C59 1_555 1_555
C60 C59 1_555 1_555
H35 C60 1_555 1_555
C61 C56 1_555 1_555
H36 C61 1_555 1_555
C62 C58 1_555 1_555
C63 C62 1_555 1_555
H37 C63 1_555 1_555
C64 C63 1_555 1_555
C65 C64 1_555 1_555
H38 C65 1_555 1_555
C66 C65 1_555 1_555
H39 C66 1_555 1_555
C67 C62 1_555 1_555
H40 C67 1_555 1_555
C68 C64 1_555 1_555
C69 C68 1_555 1_555
H41 C69 1_555 1_555
N8 Pt1 1_555 1_555
C70 N8 1_555 1_555
H42 C70 1_555 1_555
C71 C70 1_555 1_555
H43 C71 1_555 1_555
C72 C68 1_555 1_555
H44 C72 1_555 1_555
C73 N9 1_555 1_555
N9 C74 1_555 1_555
C74 H45 1_555 1_555
C75 C74 1_555 1_555
H46 C75 1_555 1_555
C76 C75 1_555 1_555
H47 C76 1_555 1_555
C77 C73 1_555 1_555
C78 C73 1_555 1_555
N10 Pt3 1_555 1_555
C79 N10 1_555 1_555
C80 C79 1_555 1_555
C81 C80 1_555 1_555
C82 C78 1_555 1_555
C83 C79 1_555 1_555
N11 Pt3 1_555 1_555
C84 N11 1_555 1_555
H48 C84 1_555 1_555
C85 C84 1_555 1_555
H49 C85 1_555 1_555
C86 C85 1_555 1_555
H50 C86 1_555 1_555
C87 C83 1_555 1_555
C88 C77 1_555 1_555
H51 C88 1_555 1_555
C89 C82 1_555 1_555
H52 C89 1_555 1_555
C90 C80 1_555 1_555
H53 C90 1_555 1_555
C91 C87 1_555 1_555
H54 C91 1_555 1_555
C92 C81 1_555 1_555
C93 C92 1_555 1_555
H55 C93 1_555 1_555
C94 C93 1_555 1_555
C95 C94 1_555 1_555
H56 C95 1_555 1_555
C96 C95 1_555 1_555
H57 C96 1_555 1_555
C97 C92 1_555 1_555
H58 C97 1_555 1_555
C98 C94 1_555 1_555
C99 C98 1_555 1_555
H59 C99 1_555 1_555
C100 C99 1_555 1_555
C101 C100 1_555 1_555
H60 C101 1_555 1_555
C102 C101 1_555 1_555
H61 C102 1_555 1_555
C103 C98 1_555 1_555
H62 C103 1_555 1_555
C104 C100 1_555 1_555
C105 C104 1_555 1_555
H63 C105 1_555 1_555
N12 Pt3 1_555 1_555
C106 N12 1_555 1_555
H64 C106 1_555 1_555
C107 C106 1_555 1_555
H65 C107 1_555 1_555
C108 C104 1_555 1_555
H66 C108 1_555 1_555
P1 F1 1_555 1_555
F2 P1 1_555 1_555
F3 P1 1_555 1_555
F4 P1 1_555 1_555
F5 P1 1_555 1_555
F6 P1 1_555 1_555
P2 F7 1_555 1_555
F8 P2 1_555 1_555
F9 P2 1_555 1_555
F10 P2 1_555 1_555
F11 P2 1_555 1_555
F12 P2 1_555 1_555
P3 F13 1_555 1_555
F14 P3 1_555 1_555
F15 P3 1_555 1_555
F16 P3 1_555 1_555
F17 P3 1_555 1_555
F18 P3 1_555 1_555
P4 F19 1_555 1_555
F20 P4 1_555 1_555
F21 P4 1_555 1_555
F22 P4 1_555 1_555
F23 P4 1_555 1_555
F24 P4 1_555 1_555
P5 F25 1_555 1_555
F26 P5 1_555 1_555
F27 P5 1_555 1_555
F28 P5 1_555 1_555
F29 P5 1_555 1_555
F30 P5 1_555 1_555
P6 F31 1_555 1_555
F32 P6 1_555 1_555
F33 P6 1_555 1_555
F34 P6 1_555 1_555
F35 P6 1_555 1_555
F36 P6 1_555 1_555
S1 O1 1_555 1_555
C109 S1 1_555 1_555
H67 C109 1_555 1_555
H68 C109 1_555 1_555
H69 C109 1_555 1_555
C110 S1 1_555 1_555
H70 C110 1_555 1_555
H71 C110 1_555 1_555
H72 C110 1_555 1_555
S2 O2 1_555 1_555
C111 S2 1_555 1_555
H73 C111 1_555 1_555
H74 C111 1_555 1_555
H75 C111 1_555 1_555
C112 S2 1_555 1_555
H76 C112 1_555 1_555
H77 C112 1_555 1_555
H78 C112 1_555 1_555
S3 O3 1_555 1_555
C113 S3 1_555 1_555
H79 C113 1_555 1_555
H80 C113 1_555 1_555
H81 C113 1_555 1_555
C114 S3 1_555 1_555
H82 C114 1_555 1_555
H83 C114 1_555 1_555
H84 C114 1_555 1_555
I1 C115 1_555 1_555
O4 H85 1_555 1_555
I2 C117 1_555 1_555
C115 C116 1_555 1_555
C116 O4 1_555 1_555
C117 C116 1_555 1_555
C118 C117 1_555 1_555
H86 C118 1_555 1_555
C119 C118 1_555 1_555
H87 C119 1_555 1_555
C120 C115 1_555 1_555
H88 C120 1_555 1_555
I3 C121 1_555 1_555
O5 H89 1_555 1_555
I4 C123 1_555 1_555
C121 C122 1_555 1_555
C122 O5 1_555 1_555
C123 C122 1_555 1_555
C124 C123 1_555 1_555
H90 C124 1_555 1_555
C125 C124 1_555 1_555
H91 C125 1_555 1_555
C126 C121 1_555 1_555
H92 C126 1_555 1_555
C139 C140 1_555 1_555
C140 C141 1_555 1_555
C141 C142 1_555 1_555
C142 C143 1_555 1_555
C143 C144 1_555 1_555
C144 C139 1_555 1_555
Pt3F N9F 1_555 1_555
C73F N9F 1_555 1_555
N9F C74F 1_555 1_555
C74F H45F 1_555 1_555
C75F C74F 1_555 1_555
H46F C75F 1_555 1_555
C76F C75F 1_555 1_555
H47F C76F 1_555 1_555
C77F C73F 1_555 1_555
C78F C73F 1_555 1_555
N10F Pt3F 1_555 1_555
C79F N10F 1_555 1_555
C80F C79F 1_555 1_555
C81F C80F 1_555 1_555
C82F C78F 1_555 1_555
C83F C79F 1_555 1_555
N11F Pt3F 1_555 1_555
C84F N11F 1_555 1_555
H48F C84F 1_555 1_555
C85F C84F 1_555 1_555
H49F C85F 1_555 1_555
C86F C85F 1_555 1_555
H50F C86F 1_555 1_555
C87F C83F 1_555 1_555
C88F C77F 1_555 1_555
H51F C88F 1_555 1_555
C89F C82F 1_555 1_555
H52F C89F 1_555 1_555
C90F C80F 1_555 1_555
H53F C90F 1_555 1_555
C91F C87F 1_555 1_555
H54F C91F 1_555 1_555
C92F C81F 1_555 1_555
C93F C92F 1_555 1_555
H55F C93F 1_555 1_555
C94F C93F 1_555 1_555
C95F C94F 1_555 1_555
H56F C95F 1_555 1_555
C96F C95F 1_555 1_555
H57F C96F 1_555 1_555
C97F C92F 1_555 1_555
H58F C97F 1_555 1_555
C98F C94F 1_555 1_555
C99F C98F 1_555 1_555
H59F C99F 1_555 1_555
C100F C99F 1_555 1_555
C101F C100F 1_555 1_555
H60F C101F 1_555 1_555
C102F C101F 1_555 1_555
H61F C102F 1_555 1_555
C103F C98F 1_555 1_555
H62F C103F 1_555 1_555
C104F C100F 1_555 1_555
C105F N12 1_555 1_555
H63F C105F 1_555 1_555
N12F C105 1_555 1_555
C106F N12F 1_555 1_555
H64F C106F 1_555 1_555
C107F C108 1_555 1_555
H65F C107F 1_555 1_555
C108F C107 1_555 1_555
H66F C108F 1_555 1_555
C4 C5 1_555 1_555
C6 N2 1_555 1_555
C9 C10 1_555 1_555
C11 N3 1_555 1_555
C14 C15 1_555 1_555
C16 C17 1_555 1_555
C18 C19 1_555 1_555
C24 C25 1_555 1_555
C30 C31 1_555 1_555
C35 C36 1_555 1_555
C40 C41 1_555 1_555
C42 N6 1_555 1_555
C45 C46 1_555 1_555
C47 N7 1_555 1_555
C50 C51 1_555 1_555
C52 C53 1_555 1_555
C54 C55 1_555 1_555
C60 C61 1_555 1_555
C66 C67 1_555 1_555
C69 N8 1_555 1_555
C71 C72 1_555 1_555
C76 C77 1_555 1_555
C78 N10 1_555 1_555
C81 C82 1_555 1_555
C83 N11 1_555 1_555
C86 C87 1_555 1_555
C88 C89 1_555 1_555
C90 C91 1_555 1_555
C96 C97 1_555 1_555
C102 C103 1_555 1_555
C119 C120 1_555 1_555
C125 C126 1_555 1_555
Pt3F N12F 1_555 1_555
C76F C77F 1_555 1_555
C78F N10F 1_555 1_555
C81F C82F 1_555 1_555
C83F N11F 1_555 1_555
C86F C87F 1_555 1_555
C88F C89F 1_555 1_555
C90F C91F 1_555 1_555
C96F C97F 1_555 1_555
C102F C103F 1_555 1_555
C104F C105F 1_555 1_555
C104F C108F 1_555 1_555
C106F C107F 1_555 1_555

#END
