
#######################################################################
#
#                 Cambridge Crystallographic Data Centre
#                                CCDC 
#
#######################################################################
#
# If this CIF has been generated from an entry in the Cambridge 
# Structural Database, then it will include bibliographic, chemical, 
# crystal, experimental, refinement or atomic coordinate data resulting 
# from the CCDC's data processing and validation procedures.
#
#######################################################################

data_NAPGAO
_chemical_formula_moiety         
'C72 H44 N8 Pt2 4+,1.4(C2 H6 O1 S1),4(F6 P1 1-),6.6(C6 H6),C6 H4 I2'
_chemical_name_systematic        
"bis(\m~2~-7-[3'-(pyridin-2-yl)biphenyl-3-yl]quinolino[8,7-b][1,10]phenanthroline)-di-platinum(ii) tetrakis(hexafluorophosphate) dimethyl sulfoxide benzene 1,2-diiodobenzene solvate"
_symmetry_cell_setting           triclinic
_symmetry_space_group_name_H-M   'P -1'
_symmetry_Int_Tables_number      2
_space_group_name_Hall           '-P 1'
loop_
_symmetry_equiv_pos_site_id
_symmetry_equiv_pos_as_xyz
1 x,y,z
2 -x,-y,-z
_cell_length_a                   13.9884(13)
_cell_length_b                   14.1274(14)
_cell_length_c                   29.345(2)
_cell_angle_alpha                90.088(2)
_cell_angle_beta                 92.782(2)
_cell_angle_gamma                105.682(3)
_cell_volume                     5576.06
_exptl_crystal_colour            yellow
_exptl_crystal_description       prismatic
_cell_formula_units_Z            2
_exptl_crystal_recrystallization_method 'dimethyl sulfoxide/benzene'
loop_
_atom_site_label
_atom_site_type_symbol
_atom_site_fract_x
_atom_site_fract_y
_atom_site_fract_z
Pt1 Pt 0.84815(4) 0.22325(4) 0.176456(15)
Pt2 Pt 0.70189(3) 0.62853(3) 0.349796(14)
C1 C 0.8894(14) 0.4074(11) 0.1311(5)
N1 N 0.8237(12) 0.3164(10) 0.1259(4)
C2 C 0.7518(16) 0.2995(15) 0.0915(5)
H1 H 0.7028 0.2382 0.0877
C3 C 0.755(2) 0.3792(17) 0.0618(6)
H2 H 0.7103 0.3668 0.0356
C4 C 0.818(2) 0.4748(16) 0.0676(6)
H3 H 0.8118 0.5267 0.0481
C5 C 0.8918(17) 0.4905(14) 0.1037(5)
C6 C 0.9607(12) 0.4227(11) 0.1694(4)
N2 N 0.9479(8) 0.3415(7) 0.1947(3)
C7 C 1.0035(9) 0.3446(9) 0.2332(4)
C8 C 1.0751(9) 0.4268(9) 0.2487(4)
C9 C 1.0919(10) 0.5109(10) 0.2211(4)
C10 C 1.0304(13) 0.5091(10) 0.1809(5)
C11 C 0.9763(8) 0.2519(9) 0.2565(4)
N3 N 0.9040(7) 0.1770(7) 0.2363(3)
C12 C 0.8768(9) 0.0929(9) 0.2585(4)
H4 H 0.8240 0.0408 0.2460
C13 C 0.9241(10) 0.0801(10) 0.2992(5)
H5 H 0.9050 0.0181 0.3136
C14 C 0.9968(10) 0.1531(10) 0.3193(5)
H6 H 1.0278 0.1427 0.3477
C15 C 1.0262(9) 0.2444(9) 0.2979(4)
C16 C 0.9642(16) 0.5771(13) 0.1148(6)
H7 H 0.9663 0.6323 0.0960
C17 C 1.0322(16) 0.5890(12) 0.1506(6)
H8 H 1.0808 0.6502 0.1555
C18 C 1.1283(9) 0.4152(9) 0.2908(5)
H9 H 1.1816 0.4682 0.3023
C19 C 1.1038(10) 0.3307(10) 0.3139(5)
H10 H 1.1388 0.3272 0.3421
C20 C 1.1683(11) 0.6047(9) 0.2356(5)
C21 C 1.1529(9) 0.6589(9) 0.2727(5)
H11 H 1.0955 0.6342 0.2897
C22 C 1.2197(9) 0.7490(10) 0.2859(6)
C23 C 1.3075(11) 0.7832(12) 0.2616(7)
H12 H 1.3549 0.8433 0.2702
C24 C 1.3232(13) 0.7277(13) 0.2252(8)
H13 H 1.3823 0.7506 0.2091
C25 C 1.2544(12) 0.6385(12) 0.2111(6)
H14 H 1.2661 0.6021 0.1857
C26 C 1.2001(10) 0.8091(9) 0.3237(5)
C27 C 1.1007(9) 0.8084(9) 0.3309(5)
H15 H 1.0487 0.7716 0.3107
C28 C 1.0785(10) 0.8598(9) 0.3662(4)
C29 C 1.1554(11) 0.9203(10) 0.3937(5)
H16 H 1.1406 0.9591 0.4174
C30 C 1.2516(13) 0.9237(11) 0.3864(7)
H17 H 1.3037 0.9643 0.4053
C31 C 1.2738(12) 0.8687(11) 0.3517(6)
H18 H 1.3414 0.8719 0.3470
C32 C 0.9751(10) 0.8535(8) 0.3756(4)
C33 C 0.9004(9) 0.7688(8) 0.3622(4)
H19 H 0.9193 0.7172 0.3475
N4 N 0.8028(8) 0.7563(7) 0.3691(3)
C34 C 0.7754(12) 0.8299(9) 0.3911(4)
H20 H 0.7073 0.8234 0.3959
C35 C 0.8457(12) 0.9123(10) 0.4062(4)
H21 H 0.8259 0.9613 0.4225
C36 C 0.9458(11) 0.9265(8) 0.3982(4)
H22 H 0.9934 0.9854 0.4080
C37 C 0.5904(9) 0.5833(9) 0.2656(3)
N5 N 0.6606(7) 0.6615(8) 0.2844(3)
C38 C 0.6913(10) 0.7432(10) 0.2605(4)
H23 H 0.7428 0.7968 0.2728
C39 C 0.6471(11) 0.7498(11) 0.2169(5)
H24 H 0.6694 0.8079 0.1998
C40 C 0.5728(13) 0.6739(11) 0.1991(4)
H25 H 0.5425 0.6808 0.1700
C41 C 0.5403(11) 0.5861(9) 0.2225(4)
C42 C 0.5604(9) 0.4975(9) 0.2921(4)
N6 N 0.6069(7) 0.5066(7) 0.3321(3)
C43 C 0.5871(9) 0.4331(8) 0.3622(4)
C44 C 0.5151(9) 0.3445(9) 0.3517(4)
C45 C 0.4671(9) 0.3334(9) 0.3085(4)
C46 C 0.4859(9) 0.4125(8) 0.2774(4)
C47 C 0.6419(9) 0.4585(10) 0.4042(4)
N7 N 0.7046(8) 0.5507(8) 0.4085(3)
C48 C 0.7543(10) 0.5753(11) 0.4486(4)
H26 H 0.7972 0.6398 0.4527
C49 C 0.7458(13) 0.5103(13) 0.4843(5)
H27 H 0.7836 0.5302 0.5122
C50 C 0.6819(12) 0.4160(13) 0.4797(4)
H28 H 0.6758 0.3712 0.5042
C51 C 0.6274(9) 0.3881(9) 0.4389(4)
C52 C 0.4659(11) 0.5013(10) 0.2075(5)
H29 H 0.4330 0.5019 0.1784
C53 C 0.4389(10) 0.4175(9) 0.2332(4)
H30 H 0.3885 0.3623 0.2215
C54 C 0.5033(10) 0.2740(9) 0.3883(4)
H31 H 0.4573 0.2111 0.3841
C55 C 0.5571(10) 0.2968(11) 0.4283(4)
H32 H 0.5469 0.2478 0.4511
C56 C 0.3899(9) 0.2376(8) 0.2956(4)
C57 C 0.3997(9) 0.1848(8) 0.2589(4)
H33 H 0.4534 0.2106 0.2398
C58 C 0.3345(10) 0.0942(9) 0.2479(5)
C59 C 0.2520(11) 0.0601(10) 0.2735(6)
H34 H 0.2045 -0.0003 0.2656
C60 C 0.2389(10) 0.1163(11) 0.3118(6)
H35 H 0.1832 0.0930 0.3301
C61 C 0.3069(10) 0.2037(10) 0.3222(5)
H36 H 0.2982 0.2419 0.3476
C62 C 0.3515(11) 0.0341(9) 0.2087(5)
C63 C 0.4492(11) 0.0392(9) 0.1979(4)
H37 H 0.5024 0.0805 0.2160
C64 C 0.4720(12) -0.0147(9) 0.1612(5)
C65 C 0.3912(14) -0.0766(10) 0.1358(6)
H38 H 0.4024 -0.1130 0.1103
C66 C 0.2938(13) -0.0841(11) 0.1485(6)
H39 H 0.2402 -0.1289 0.1322
C67 C 0.2733(12) -0.0311(10) 0.1825(6)
H40 H 0.2062 -0.0371 0.1892
C68 C 0.5766(12) -0.0027(9) 0.1504(4)
C69 C 0.6471(12) 0.0842(10) 0.1616(4)
H41 H 0.6256 0.1373 0.1734
N8 N 0.7444(10) 0.0972(8) 0.1568(3)
C70 C 0.7733(13) 0.0221(11) 0.1376(5)
H42 H 0.8421 0.0288 0.1342
C71 C 0.7060(14) -0.0618(11) 0.1232(5)
H43 H 0.7280 -0.1115 0.1085
C72 C 0.6081(14) -0.0764(11) 0.1293(5)
H44 H 0.5615 -0.1359 0.1193
I1 I 0.70241(6) 0.25900(6) 0.28470(3)
I2 I 0.89071(6) 0.47986(6) 0.32896(3)
C73 C 0.7390(10) 0.3912(9) 0.2502(4)
C74 C 0.8104(11) 0.4740(9) 0.2664(4)
C75 C 0.8382(13) 0.5652(11) 0.2402(5)
H45 H 0.8892 0.6215 0.2503
C76 C 0.7827(15) 0.5610(12) 0.1991(6)
H46 H 0.7965 0.6179 0.1807
C77 C 0.7083(13) 0.4789(12) 0.1832(5)
H47 H 0.6707 0.4840 0.1560
C78 C 0.6873(12) 0.3900(10) 0.2058(5)
H48 H 0.6421 0.3321 0.1932
P1 P 0.9568(3) 0.8623(3) 0.20428(17)
F1 F 0.8864(11) 0.7804(9) 0.1715(5)
F2 F 0.9266(10) 0.7943(9) 0.2455(5)
F3 F 0.8645(8) 0.9024(8) 0.2089(4)
F4 F 0.9847(13) 0.9262(12) 0.1610(5)
F5 F 1.0439(11) 0.8192(12) 0.1964(11)
F6 F 1.0287(8) 0.9455(8) 0.2346(4)
P2 P 0.6089(3) -0.0358(3) 0.30999(13)
F7 F 0.5132(8) -0.0009(8) 0.3071(4)
F8 F 0.6695(7) 0.0645(6) 0.3329(3)
F9 F 0.6362(7) 0.0068(7) 0.2612(3)
F10 F 0.5501(7) -0.1385(7) 0.2870(4)
F11 F 0.5841(9) -0.0811(8) 0.3585(3)
F12 F 0.7098(6) -0.0704(6) 0.3114(3)
P3 P 0.7817(4) 0.7919(3) 0.54233(13)
F13 F 0.8538(10) 0.7454(10) 0.5155(5)
F14 F 0.7547(18) 0.6991(9) 0.5681(6)
F15 F 0.8608(15) 0.8351(14) 0.5810(6)
F16 F 0.815(2) 0.8903(10) 0.5167(5)
F17 F 0.7045(12) 0.7537(15) 0.5035(6)
F18 F 0.7082(9) 0.8385(9) 0.5689(3)
P4 P 0.3478(6) 0.6219(4) 0.07532(17)
F19 F 0.4191(18) 0.586(2) 0.0523(12)
F20 F 0.328(2) 0.5514(13) 0.1113(6)
F21 F 0.4348(15) 0.6918(12) 0.1040(6)
F22 F 0.359(2) 0.6969(13) 0.0401(7)
F23 F 0.2574(15) 0.5511(12) 0.0479(6)
F24 F 0.2792(18) 0.682(2) 0.0937(12)
C79 C 1.0900(11) 0.2506(13) 0.1084(6)
H49 H 1.0579 0.2494 0.0791
C80 C 1.1525(11) 0.3360(11) 0.1256(6)
H50 H 1.1645 0.3946 0.1084
C81 C 1.1969(11) 0.3359(10) 0.1674(6)
H51 H 1.2397 0.3956 0.1796
C82 C 1.1823(11) 0.2519(10) 0.1929(5)
H52 H 1.2142 0.2533 0.2223
C83 C 1.1210(10) 0.1666(9) 0.1749(5)
H53 H 1.1115 0.1074 0.1915
C84 C 1.0736(11) 0.1658(11) 0.1337(5)
H54 H 1.0288 0.1067 0.1220
C85 C 0.3807(13) 0.5104(12) 0.3717(7)
H55 H 0.3424 0.4479 0.3605
C86 C 0.4219(12) 0.5173(12) 0.4155(7)
H56 H 0.4104 0.4614 0.4346
C87 C 0.4807(16) 0.608(2) 0.4309(7)
H57 H 0.5115 0.6159 0.4608
C88 C 0.4937(15) 0.6873(16) 0.4022(9)
H58 H 0.5322 0.7505 0.4126
C89 C 0.4526(16) 0.6759(15) 0.3600(11)
H59 H 0.4657 0.7306 0.3403
C90 C 0.3919(13) 0.5875(14) 0.3442(8)
H60 H 0.3590 0.5814 0.3149
C91 C 1.1775(14) 0.6195(16) 0.4122(6)
H61 H 1.2395 0.6569 0.4018
C92 C 1.1458(14) 0.5190(16) 0.4051(7)
H62 H 1.1864 0.4858 0.3902
C93 C 1.0571(13) 0.4689(13) 0.4196(6)
H63 H 1.0356 0.3998 0.4146
C94 C 0.9966(14) 0.5143(14) 0.4413(5)
H64 H 0.9345 0.4762 0.4513
C95 C 1.0245(15) 0.6135(14) 0.4487(7)
H65 H 0.9827 0.6466 0.4629
C96 C 1.1179(17) 0.6633(15) 0.4344(8)
H66 H 1.1411 0.7319 0.4405
C97 C 0.8642(12) 0.2366(13) 0.4109(5)
H67 H 0.8848 0.2794 0.3862
C98 C 0.9331(11) 0.2039(14) 0.4374(6)
H68 H 1.0015 0.2244 0.4308
C99 C 0.9028(13) 0.1414(13) 0.4732(5)
H69 H 0.9502 0.1190 0.4913
C100 C 0.8031(13) 0.1115(12) 0.4826(5)
H70 H 0.7820 0.0687 0.5073
C101 C 0.7348(11) 0.1441(13) 0.4561(6)
H71 H 0.6663 0.1231 0.4623
C102 C 0.7652(10) 0.2066(11) 0.4208(5)
H72 H 0.7177 0.2294 0.4030
C103 C 0.6676(12) 0.6243(11) 0.0202(5)
H73 H 0.6138 0.5810 0.0033
C104 C 0.6606(12) 0.6414(11) 0.0654(5)
H74 H 0.6019 0.6096 0.0803
C105 C 0.7382(13) 0.7042(11) 0.0892(5)
H75 H 0.7333 0.7160 0.1208
C106 C 0.8230(13) 0.7505(11) 0.0683(5)
H76 H 0.8768 0.7942 0.0851
C107 C 0.8295(13) 0.7330(11) 0.0223(5)
H77 H 0.8876 0.7653 0.0072
C108 C 0.7537(13) 0.6706(10) -0.0007(4)
H78 H 0.7591 0.6578 -0.0322
C109 C 0.5969(17) -0.006(3) 0.0100(10)
H79 H 0.6628 -0.0097 0.0168
C110 C 0.580(2) 0.084(2) -0.0036(9)
H80 H 0.6346 0.1402 -0.0060
C111 C 0.516(3) -0.0897(17) 0.0136(9)
H81 H 0.5278 -0.1503 0.0229
C109A C 0.4031(17) 0.006(3) -0.0100(10)
H79A H 0.3372 0.0097 -0.0168
C110A C 0.420(2) -0.084(2) 0.0036(9)
H80A H 0.3654 -0.1402 0.0060
C111A C 0.484(3) 0.0897(17) -0.0136(9)
H81A H 0.4722 0.1503 -0.0229
C112 C 0.4916(13) -0.0147(15) 0.4532(4)
H82 H 0.4859 -0.0249 0.4211
C113 C 0.5439(13) -0.0648(12) 0.4806(7)
H83 H 0.5743 -0.1098 0.4670
C114 C 0.4476(13) 0.0505(12) 0.4731(6)
H84 H 0.4114 0.0855 0.4546
C112A C 0.5084(13) 0.0147(15) 0.5468(4)
H82A H 0.5141 0.0249 0.5789
C113A C 0.4561(13) 0.0648(12) 0.5194(7)
H83A H 0.4257 0.1098 0.5330
C114A C 0.5524(13) -0.0505(12) 0.5269(6)
H84A H 0.5886 -0.0855 0.5454
S1 S 0.4410(5) 0.2689(5) 0.1302(2)
C115 C 0.454(3) 0.365(2) 0.0900(11)
H85 H 0.5009 0.4249 0.1027
H86 H 0.3893 0.3773 0.0832
H87 H 0.4794 0.3456 0.0619
C116 C 0.3607(15) 0.1768(14) 0.1002(6)
H88 H 0.3450 0.1174 0.1187
H89 H 0.3908 0.1638 0.0723
H90 H 0.2995 0.1956 0.0923
O1 O 0.5410(15) 0.2476(18) 0.1289(10)
loop_
_geom_bond_atom_site_label_1
_geom_bond_atom_site_label_2
_geom_bond_site_symmetry_1
_geom_bond_site_symmetry_2
Pt1 N1 1_555 1_555
Pt2 N4 1_555 1_555
C1 N1 1_555 1_555
N1 C2 1_555 1_555
C2 H1 1_555 1_555
C3 C2 1_555 1_555
H2 C3 1_555 1_555
C4 C3 1_555 1_555
H3 C4 1_555 1_555
C5 C1 1_555 1_555
C6 C1 1_555 1_555
N2 Pt1 1_555 1_555
C7 N2 1_555 1_555
C8 C7 1_555 1_555
C9 C8 1_555 1_555
C10 C6 1_555 1_555
C11 C7 1_555 1_555
N3 Pt1 1_555 1_555
C12 N3 1_555 1_555
H4 C12 1_555 1_555
C13 C12 1_555 1_555
H5 C13 1_555 1_555
C14 C13 1_555 1_555
H6 C14 1_555 1_555
C15 C11 1_555 1_555
C16 C5 1_555 1_555
H7 C16 1_555 1_555
C17 C10 1_555 1_555
H8 C17 1_555 1_555
C18 C8 1_555 1_555
H9 C18 1_555 1_555
C19 C15 1_555 1_555
H10 C19 1_555 1_555
C20 C9 1_555 1_555
C21 C20 1_555 1_555
H11 C21 1_555 1_555
C22 C21 1_555 1_555
C23 C22 1_555 1_555
H12 C23 1_555 1_555
C24 C23 1_555 1_555
H13 C24 1_555 1_555
C25 C20 1_555 1_555
H14 C25 1_555 1_555
C26 C22 1_555 1_555
C27 C26 1_555 1_555
H15 C27 1_555 1_555
C28 C27 1_555 1_555
C29 C28 1_555 1_555
H16 C29 1_555 1_555
C30 C29 1_555 1_555
H17 C30 1_555 1_555
C31 C26 1_555 1_555
H18 C31 1_555 1_555
C32 C28 1_555 1_555
C33 C32 1_555 1_555
H19 C33 1_555 1_555
N4 C33 1_555 1_555
C34 N4 1_555 1_555
H20 C34 1_555 1_555
C35 C34 1_555 1_555
H21 C35 1_555 1_555
C36 C32 1_555 1_555
H22 C36 1_555 1_555
C37 N5 1_555 1_555
N5 Pt2 1_555 1_555
C38 N5 1_555 1_555
H23 C38 1_555 1_555
C39 C38 1_555 1_555
H24 C39 1_555 1_555
C40 C39 1_555 1_555
H25 C40 1_555 1_555
C41 C37 1_555 1_555
C42 C37 1_555 1_555
N6 Pt2 1_555 1_555
C43 N6 1_555 1_555
C44 C43 1_555 1_555
C45 C44 1_555 1_555
C46 C42 1_555 1_555
C47 C43 1_555 1_555
N7 Pt2 1_555 1_555
C48 N7 1_555 1_555
H26 C48 1_555 1_555
C49 C48 1_555 1_555
H27 C49 1_555 1_555
C50 C49 1_555 1_555
H28 C50 1_555 1_555
C51 C47 1_555 1_555
C52 C41 1_555 1_555
H29 C52 1_555 1_555
C53 C46 1_555 1_555
H30 C53 1_555 1_555
C54 C44 1_555 1_555
H31 C54 1_555 1_555
C55 C51 1_555 1_555
H32 C55 1_555 1_555
C56 C45 1_555 1_555
C57 C56 1_555 1_555
H33 C57 1_555 1_555
C58 C57 1_555 1_555
C59 C58 1_555 1_555
H34 C59 1_555 1_555
C60 C59 1_555 1_555
H35 C60 1_555 1_555
C61 C56 1_555 1_555
H36 C61 1_555 1_555
C62 C58 1_555 1_555
C63 C62 1_555 1_555
H37 C63 1_555 1_555
C64 C63 1_555 1_555
C65 C64 1_555 1_555
H38 C65 1_555 1_555
C66 C65 1_555 1_555
H39 C66 1_555 1_555
C67 C62 1_555 1_555
H40 C67 1_555 1_555
C68 C64 1_555 1_555
C69 C68 1_555 1_555
H41 C69 1_555 1_555
N8 Pt1 1_555 1_555
C70 N8 1_555 1_555
H42 C70 1_555 1_555
C71 C70 1_555 1_555
H43 C71 1_555 1_555
C72 C68 1_555 1_555
H44 C72 1_555 1_555
I1 C73 1_555 1_555
I2 C74 1_555 1_555
C73 C74 1_555 1_555
C74 C75 1_555 1_555
C75 H45 1_555 1_555
C76 C75 1_555 1_555
H46 C76 1_555 1_555
C77 C76 1_555 1_555
H47 C77 1_555 1_555
C78 C73 1_555 1_555
H48 C78 1_555 1_555
P1 F1 1_555 1_555
F2 P1 1_555 1_555
F3 P1 1_555 1_555
F4 P1 1_555 1_555
F5 P1 1_555 1_555
F6 P1 1_555 1_555
P2 F7 1_555 1_555
F8 P2 1_555 1_555
F9 P2 1_555 1_555
F10 P2 1_555 1_555
F11 P2 1_555 1_555
F12 P2 1_555 1_555
P3 F13 1_555 1_555
F14 P3 1_555 1_555
F15 P3 1_555 1_555
F16 P3 1_555 1_555
F17 P3 1_555 1_555
F18 P3 1_555 1_555
P4 F19 1_555 1_555
F20 P4 1_555 1_555
F21 P4 1_555 1_555
F22 P4 1_555 1_555
F23 P4 1_555 1_555
F24 P4 1_555 1_555
C79 H49 1_555 1_555
C80 C79 1_555 1_555
H50 C80 1_555 1_555
C81 C80 1_555 1_555
H51 C81 1_555 1_555
C82 C81 1_555 1_555
H52 C82 1_555 1_555
C83 C82 1_555 1_555
H53 C83 1_555 1_555
C84 C79 1_555 1_555
H54 C84 1_555 1_555
C85 H55 1_555 1_555
C86 C85 1_555 1_555
H56 C86 1_555 1_555
C87 C86 1_555 1_555
H57 C87 1_555 1_555
C88 C87 1_555 1_555
H58 C88 1_555 1_555
C89 C88 1_555 1_555
H59 C89 1_555 1_555
C90 C85 1_555 1_555
H60 C90 1_555 1_555
C91 H61 1_555 1_555
C92 C91 1_555 1_555
H62 C92 1_555 1_555
C93 C92 1_555 1_555
H63 C93 1_555 1_555
C94 C93 1_555 1_555
H64 C94 1_555 1_555
C95 C94 1_555 1_555
H65 C95 1_555 1_555
C96 C91 1_555 1_555
H66 C96 1_555 1_555
C97 H67 1_555 1_555
C98 C97 1_555 1_555
H68 C98 1_555 1_555
C99 C98 1_555 1_555
H69 C99 1_555 1_555
C100 C99 1_555 1_555
H70 C100 1_555 1_555
C101 C100 1_555 1_555
H71 C101 1_555 1_555
C102 C97 1_555 1_555
H72 C102 1_555 1_555
C103 H73 1_555 1_555
C104 C103 1_555 1_555
H74 C104 1_555 1_555
C105 C104 1_555 1_555
H75 C105 1_555 1_555
C106 C105 1_555 1_555
H76 C106 1_555 1_555
C107 C106 1_555 1_555
H77 C107 1_555 1_555
C108 C103 1_555 1_555
H78 C108 1_555 1_555
C109 H79 1_555 1_555
C110 C109 1_555 1_555
H80 C110 1_555 1_555
C111 C109 1_555 1_555
H81 C111 1_555 1_555
C112 H82 1_555 1_555
C113 C112 1_555 1_555
H83 C113 1_555 1_555
C114 C112 1_555 1_555
H84 C114 1_555 1_555
S1 C115 1_555 1_555
C115 H85 1_555 1_555
H86 C115 1_555 1_555
H87 C115 1_555 1_555
C116 S1 1_555 1_555
H88 C116 1_555 1_555
H89 C116 1_555 1_555
H90 C116 1_555 1_555
O1 S1 1_555 1_555
C109A H79A 1_555 1_555
C110A C111 1_555 1_555
H80A C110A 1_555 1_555
C111A C110 1_555 1_555
H81A C111A 1_555 1_555
C112A H82A 1_555 1_555
C113A C114 1_555 1_555
H83A C113A 1_555 1_555
C114A C113 1_555 1_555
H84A C114A 1_555 1_555
C4 C5 1_555 1_555
C6 N2 1_555 1_555
C9 C10 1_555 1_555
C11 N3 1_555 1_555
C14 C15 1_555 1_555
C16 C17 1_555 1_555
C18 C19 1_555 1_555
C24 C25 1_555 1_555
C30 C31 1_555 1_555
C35 C36 1_555 1_555
C40 C41 1_555 1_555
C42 N6 1_555 1_555
C45 C46 1_555 1_555
C47 N7 1_555 1_555
C50 C51 1_555 1_555
C52 C53 1_555 1_555
C54 C55 1_555 1_555
C60 C61 1_555 1_555
C66 C67 1_555 1_555
C69 N8 1_555 1_555
C71 C72 1_555 1_555
C77 C78 1_555 1_555
C83 C84 1_555 1_555
C89 C90 1_555 1_555
C95 C96 1_555 1_555
C101 C102 1_555 1_555
C107 C108 1_555 1_555
C109A C110A 1_555 1_555
C109A C111A 1_555 1_555
C112A C113A 1_555 1_555
C112A C114A 1_555 1_555

#END
