# generated using pymatgen
data_P2H38PtC52SI4N4(OF4)3
_symmetry_space_group_name_H-M   'P 1'
_cell_length_a   14.71120000
_cell_length_b   30.96200000
_cell_length_c   65.71900000
_cell_angle_alpha   96.76790000
_cell_angle_beta   90.00000000
_cell_angle_gamma   90.00000000
_symmetry_Int_Tables_number   1
_chemical_formula_structural   P2H38PtC52SI4N4(OF4)3
_chemical_formula_sum   'P48 H912 Pt24 C1248 S24 I96 N96 O72 F288'
_cell_volume   29725.63630299
_cell_formula_units_Z   24
loop_
 _symmetry_equiv_pos_site_id
 _symmetry_equiv_pos_as_xyz
  1  'x, y, z'
loop_
 _atom_site_type_symbol
 _atom_site_label
 _atom_site_symmetry_multiplicity
 _atom_site_fract_x
 _atom_site_fract_y
 _atom_site_fract_z
 _atom_site_occupancy
  P  P1  1  0.804600  0.011000  0.119010  1
  P  P2  1  0.804600  0.489000  0.880990  1
  P  P3  1  0.304600  0.011000  0.619010  1
  P  P4  1  0.304600  0.489000  0.380990  1
  P  P5  1  0.195400  0.989000  0.880990  1
  P  P6  1  0.195400  0.511000  0.119010  1
  P  P7  1  0.695400  0.989000  0.380990  1
  P  P8  1  0.695400  0.511000  0.619010  1
  P  P9  1  0.175200  0.181800  0.090270  1
  P  P10  1  0.175200  0.318200  0.909730  1
  P  P11  1  0.675200  0.181800  0.590270  1
  P  P12  1  0.675200  0.318200  0.409730  1
  P  P13  1  0.824800  0.818200  0.909730  1
  P  P14  1  0.824800  0.681800  0.090270  1
  P  P15  1  0.324800  0.818200  0.409730  1
  P  P16  1  0.324800  0.681800  0.590270  1
  P  P17  1  0.386400  0.939300  0.080510  1
  P  P18  1  0.386400  0.560700  0.919490  1
  P  P19  1  0.886400  0.939300  0.580510  1
  P  P20  1  0.886400  0.560700  0.419490  1
  P  P21  1  0.613600  0.060700  0.919490  1
  P  P22  1  0.613600  0.439300  0.080510  1
  P  P23  1  0.113600  0.060700  0.419490  1
  P  P24  1  0.113600  0.439300  0.580510  1
  P  P25  1  0.934800  0.847200  0.041590  1
  P  P26  1  0.934800  0.652800  0.958410  1
  P  P27  1  0.434800  0.847200  0.541590  1
  P  P28  1  0.434800  0.652800  0.458410  1
  P  P29  1  0.065200  0.152800  0.958410  1
  P  P30  1  0.065200  0.347200  0.041590  1
  P  P31  1  0.565200  0.152800  0.458410  1
  P  P32  1  0.565200  0.347200  0.541590  1
  P  P33  1  0.894500  0.222800  0.241700  1
  P  P34  1  0.894500  0.277200  0.758300  1
  P  P35  1  0.394500  0.222800  0.741700  1
  P  P36  1  0.394500  0.277200  0.258300  1
  P  P37  1  0.105500  0.777200  0.758300  1
  P  P38  1  0.105500  0.722800  0.241700  1
  P  P39  1  0.605500  0.777200  0.258300  1
  P  P40  1  0.605500  0.722800  0.741700  1
  P  P41  1  0.846300  0.366200  0.303130  1
  P  P42  1  0.846300  0.133800  0.696870  1
  P  P43  1  0.346300  0.366200  0.803130  1
  P  P44  1  0.346300  0.133800  0.196870  1
  P  P45  1  0.153700  0.633800  0.696870  1
  P  P46  1  0.153700  0.866200  0.303130  1
  P  P47  1  0.653700  0.633800  0.196870  1
  P  P48  1  0.653700  0.866200  0.803130  1
  H  H49  1  0.839100  0.956800  0.068900  1
  H  H50  1  0.839100  0.543200  0.931100  1
  H  H51  1  0.339100  0.956800  0.568900  1
  H  H52  1  0.339100  0.543200  0.431100  1
  H  H53  1  0.160900  0.043200  0.931100  1
  H  H54  1  0.160900  0.456800  0.068900  1
  H  H55  1  0.660900  0.043200  0.431100  1
  H  H56  1  0.660900  0.456800  0.568900  1
  H  H57  1  0.710900  0.914500  0.069700  1
  H  H58  1  0.710900  0.585500  0.930300  1
  H  H59  1  0.210900  0.914500  0.569700  1
  H  H60  1  0.210900  0.585500  0.430300  1
  H  H61  1  0.289100  0.085500  0.930300  1
  H  H62  1  0.289100  0.414500  0.069700  1
  H  H63  1  0.789100  0.085500  0.430300  1
  H  H64  1  0.789100  0.414500  0.569700  1
  H  H65  1  0.581900  0.935800  0.055700  1
  H  H66  1  0.581900  0.564200  0.944300  1
  H  H67  1  0.081900  0.935800  0.555700  1
  H  H68  1  0.081900  0.564200  0.444300  1
  H  H69  1  0.418100  0.064200  0.944300  1
  H  H70  1  0.418100  0.435800  0.055700  1
  H  H71  1  0.918100  0.064200  0.444300  1
  H  H72  1  0.918100  0.435800  0.555700  1
  H  H73  1  0.082900  0.095200  0.048400  1
  H  H74  1  0.082900  0.404800  0.951600  1
  H  H75  1  0.582900  0.095200  0.548400  1
  H  H76  1  0.582900  0.404800  0.451600  1
  H  H77  1  0.917100  0.904800  0.951600  1
  H  H78  1  0.917100  0.595200  0.048400  1
  H  H79  1  0.417100  0.904800  0.451600  1
  H  H80  1  0.417100  0.595200  0.548400  1
  H  H81  1  0.130500  0.155400  0.033800  1
  H  H82  1  0.130500  0.344600  0.966200  1
  H  H83  1  0.630500  0.155400  0.533800  1
  H  H84  1  0.630500  0.344600  0.466200  1
  H  H85  1  0.869500  0.844600  0.966200  1
  H  H86  1  0.869500  0.655400  0.033800  1
  H  H87  1  0.369500  0.844600  0.466200  1
  H  H88  1  0.369500  0.655400  0.533800  1
  H  H89  1  0.034300  0.192100  0.013500  1
  H  H90  1  0.034300  0.307900  0.986500  1
  H  H91  1  0.534300  0.192100  0.513500  1
  H  H92  1  0.534300  0.307900  0.486500  1
  H  H93  1  0.965700  0.807900  0.986500  1
  H  H94  1  0.965700  0.692100  0.013500  1
  H  H95  1  0.465700  0.807900  0.486500  1
  H  H96  1  0.465700  0.692100  0.513500  1
  H  H97  1  0.497000  0.990000  0.034400  1
  H  H98  1  0.497000  0.510000  0.965600  1
  H  H99  1  0.997000  0.990000  0.534400  1
  H  H100  1  0.997000  0.510000  0.465600  1
  H  H101  1  0.503000  0.010000  0.965600  1
  H  H102  1  0.503000  0.490000  0.034400  1
  H  H103  1  0.003000  0.010000  0.465600  1
  H  H104  1  0.003000  0.490000  0.534400  1
  H  H105  1  0.503900  0.044600  0.014700  1
  H  H106  1  0.503900  0.455400  0.985300  1
  H  H107  1  0.003900  0.044600  0.514700  1
  H  H108  1  0.003900  0.455400  0.485300  1
  H  H109  1  0.496100  0.955400  0.985300  1
  H  H110  1  0.496100  0.544600  0.014700  1
  H  H111  1  0.996100  0.955400  0.485300  1
  H  H112  1  0.996100  0.544600  0.514700  1
  H  H113  1  0.727600  0.172500  0.994800  1
  H  H114  1  0.727600  0.327500  0.005200  1
  H  H115  1  0.227600  0.172500  0.494800  1
  H  H116  1  0.227600  0.327500  0.505200  1
  H  H117  1  0.272400  0.827500  0.005200  1
  H  H118  1  0.272400  0.672500  0.994800  1
  H  H119  1  0.772400  0.827500  0.505200  1
  H  H120  1  0.772400  0.672500  0.494800  1
  H  H121  1  0.870400  0.195300  0.998000  1
  H  H122  1  0.870400  0.304700  0.002000  1
  H  H123  1  0.370400  0.195300  0.498000  1
  H  H124  1  0.370400  0.304700  0.502000  1
  H  H125  1  0.129600  0.804700  0.002000  1
  H  H126  1  0.129600  0.695300  0.998000  1
  H  H127  1  0.629600  0.804700  0.502000  1
  H  H128  1  0.629600  0.695300  0.498000  1
  H  H129  1  0.509200  0.144100  0.027100  1
  H  H130  1  0.509200  0.355900  0.972900  1
  H  H131  1  0.009200  0.144100  0.527100  1
  H  H132  1  0.009200  0.355900  0.472900  1
  H  H133  1  0.490800  0.855900  0.972900  1
  H  H134  1  0.490800  0.644100  0.027100  1
  H  H135  1  0.990800  0.855900  0.472900  1
  H  H136  1  0.990800  0.644100  0.527100  1
  H  H137  1  0.389500  0.178200  0.976800  1
  H  H138  1  0.389500  0.321800  0.023200  1
  H  H139  1  0.889500  0.178200  0.476800  1
  H  H140  1  0.889500  0.321800  0.523200  1
  H  H141  1  0.610500  0.821800  0.023200  1
  H  H142  1  0.610500  0.678200  0.976800  1
  H  H143  1  0.110500  0.821800  0.523200  1
  H  H144  1  0.110500  0.678200  0.476800  1
  H  H145  1  0.494400  0.139900  0.956900  1
  H  H146  1  0.494400  0.360100  0.043100  1
  H  H147  1  0.994400  0.139900  0.456900  1
  H  H148  1  0.994400  0.360100  0.543100  1
  H  H149  1  0.505600  0.860100  0.043100  1
  H  H150  1  0.505600  0.639900  0.956900  1
  H  H151  1  0.005600  0.860100  0.543100  1
  H  H152  1  0.005600  0.639900  0.456900  1
  H  H153  1  0.617500  0.104200  0.971200  1
  H  H154  1  0.617500  0.395800  0.028800  1
  H  H155  1  0.117500  0.104200  0.471200  1
  H  H156  1  0.117500  0.395800  0.528800  1
  H  H157  1  0.382500  0.895800  0.028800  1
  H  H158  1  0.382500  0.604200  0.971200  1
  H  H159  1  0.882500  0.895800  0.528800  1
  H  H160  1  0.882500  0.604200  0.471200  1
  H  H161  1  0.470100  0.216000  0.039500  1
  H  H162  1  0.470100  0.284000  0.960500  1
  H  H163  1  0.970100  0.216000  0.539500  1
  H  H164  1  0.970100  0.284000  0.460500  1
  H  H165  1  0.529900  0.784000  0.960500  1
  H  H166  1  0.529900  0.716000  0.039500  1
  H  H167  1  0.029900  0.784000  0.460500  1
  H  H168  1  0.029900  0.716000  0.539500  1
  H  H169  1  0.222500  0.269500  0.049000  1
  H  H170  1  0.222500  0.230500  0.951000  1
  H  H171  1  0.722500  0.269500  0.549000  1
  H  H172  1  0.722500  0.230500  0.451000  1
  H  H173  1  0.777500  0.730500  0.951000  1
  H  H174  1  0.777500  0.769500  0.049000  1
  H  H175  1  0.277500  0.730500  0.451000  1
  H  H176  1  0.277500  0.769500  0.549000  1
  H  H177  1  0.168800  0.232600  0.019500  1
  H  H178  1  0.168800  0.267400  0.980500  1
  H  H179  1  0.668800  0.232600  0.519500  1
  H  H180  1  0.668800  0.267400  0.480500  1
  H  H181  1  0.831200  0.767400  0.980500  1
  H  H182  1  0.831200  0.732600  0.019500  1
  H  H183  1  0.331200  0.767400  0.480500  1
  H  H184  1  0.331200  0.732600  0.519500  1
  H  H185  1  0.259900  0.183800  0.000000  1
  H  H186  1  0.259900  0.316200  0.000000  1
  H  H187  1  0.759900  0.183800  0.500000  1
  H  H188  1  0.759900  0.316200  0.500000  1
  H  H189  1  0.740100  0.816200  0.000000  1
  H  H190  1  0.740100  0.683800  0.000000  1
  H  H191  1  0.240100  0.816200  0.500000  1
  H  H192  1  0.240100  0.683800  0.500000  1
  H  H193  1  0.476400  0.229400  0.072800  1
  H  H194  1  0.476400  0.270600  0.927200  1
  H  H195  1  0.976400  0.229400  0.572800  1
  H  H196  1  0.976400  0.270600  0.427200  1
  H  H197  1  0.523600  0.770600  0.927200  1
  H  H198  1  0.523600  0.729400  0.072800  1
  H  H199  1  0.023600  0.770600  0.427200  1
  H  H200  1  0.023600  0.729400  0.572800  1
  H  H201  1  0.505600  0.341400  0.106200  1
  H  H202  1  0.505600  0.158600  0.893800  1
  H  H203  1  0.005600  0.341400  0.606200  1
  H  H204  1  0.005600  0.158600  0.393800  1
  H  H205  1  0.494400  0.658600  0.893800  1
  H  H206  1  0.494400  0.841400  0.106200  1
  H  H207  1  0.994400  0.658600  0.393800  1
  H  H208  1  0.994400  0.841400  0.606200  1
  H  H209  1  0.391000  0.371800  0.089400  1
  H  H210  1  0.391000  0.128200  0.910600  1
  H  H211  1  0.891000  0.371800  0.589400  1
  H  H212  1  0.891000  0.128200  0.410600  1
  H  H213  1  0.609000  0.628200  0.910600  1
  H  H214  1  0.609000  0.871800  0.089400  1
  H  H215  1  0.109000  0.628200  0.410600  1
  H  H216  1  0.109000  0.871800  0.589400  1
  H  H217  1  0.311500  0.329100  0.063600  1
  H  H218  1  0.311500  0.170900  0.936400  1
  H  H219  1  0.811500  0.329100  0.563600  1
  H  H220  1  0.811500  0.170900  0.436400  1
  H  H221  1  0.688500  0.670900  0.936400  1
  H  H222  1  0.688500  0.829100  0.063600  1
  H  H223  1  0.188500  0.670900  0.436400  1
  H  H224  1  0.188500  0.829100  0.563600  1
  H  H225  1  0.665100  0.332700  0.080600  1
  H  H226  1  0.665100  0.167300  0.919400  1
  H  H227  1  0.165100  0.332700  0.580600  1
  H  H228  1  0.165100  0.167300  0.419400  1
  H  H229  1  0.334900  0.667300  0.919400  1
  H  H230  1  0.334900  0.832700  0.080600  1
  H  H231  1  0.834900  0.667300  0.419400  1
  H  H232  1  0.834900  0.832700  0.580600  1
  H  H233  1  0.813700  0.360800  0.073700  1
  H  H234  1  0.813700  0.139200  0.926300  1
  H  H235  1  0.313700  0.360800  0.573700  1
  H  H236  1  0.313700  0.139200  0.426300  1
  H  H237  1  0.186300  0.639200  0.926300  1
  H  H238  1  0.186300  0.860800  0.073700  1
  H  H239  1  0.686300  0.639200  0.426300  1
  H  H240  1  0.686300  0.860800  0.573700  1
  H  H241  1  0.944200  0.335800  0.087300  1
  H  H242  1  0.944200  0.164200  0.912700  1
  H  H243  1  0.444200  0.335800  0.587300  1
  H  H244  1  0.444200  0.164200  0.412700  1
  H  H245  1  0.055800  0.664200  0.912700  1
  H  H246  1  0.055800  0.835800  0.087300  1
  H  H247  1  0.555800  0.664200  0.412700  1
  H  H248  1  0.555800  0.835800  0.587300  1
  H  H249  1  0.393000  0.217500  0.112500  1
  H  H250  1  0.393000  0.282500  0.887500  1
  H  H251  1  0.893000  0.217500  0.612500  1
  H  H252  1  0.893000  0.282500  0.387500  1
  H  H253  1  0.607000  0.782500  0.887500  1
  H  H254  1  0.607000  0.717500  0.112500  1
  H  H255  1  0.107000  0.782500  0.387500  1
  H  H256  1  0.107000  0.717500  0.612500  1
  H  H257  1  0.339800  0.165300  0.129800  1
  H  H258  1  0.339800  0.334700  0.870200  1
  H  H259  1  0.839800  0.165300  0.629800  1
  H  H260  1  0.839800  0.334700  0.370200  1
  H  H261  1  0.660200  0.834700  0.870200  1
  H  H262  1  0.660200  0.665300  0.129800  1
  H  H263  1  0.160200  0.834700  0.370200  1
  H  H264  1  0.160200  0.665300  0.629800  1
  H  H265  1  0.425100  0.128400  0.150600  1
  H  H266  1  0.425100  0.371600  0.849400  1
  H  H267  1  0.925100  0.128400  0.650600  1
  H  H268  1  0.925100  0.371600  0.349400  1
  H  H269  1  0.574900  0.871600  0.849400  1
  H  H270  1  0.574900  0.628400  0.150600  1
  H  H271  1  0.074900  0.871600  0.349400  1
  H  H272  1  0.074900  0.628400  0.650600  1
  H  H273  1  0.015600  0.285700  0.112000  1
  H  H274  1  0.015600  0.214300  0.888000  1
  H  H275  1  0.515600  0.285700  0.612000  1
  H  H276  1  0.515600  0.214300  0.388000  1
  H  H277  1  0.984400  0.714300  0.888000  1
  H  H278  1  0.984400  0.785700  0.112000  1
  H  H279  1  0.484400  0.714300  0.388000  1
  H  H280  1  0.484400  0.785700  0.612000  1
  H  H281  1  0.991800  0.233900  0.133400  1
  H  H282  1  0.991800  0.266100  0.866600  1
  H  H283  1  0.491800  0.233900  0.633400  1
  H  H284  1  0.491800  0.266100  0.366600  1
  H  H285  1  0.008200  0.766100  0.866600  1
  H  H286  1  0.008200  0.733900  0.133400  1
  H  H287  1  0.508200  0.766100  0.366600  1
  H  H288  1  0.508200  0.733900  0.633400  1
  H  H289  1  0.742200  0.133000  0.164500  1
  H  H290  1  0.742200  0.367000  0.835500  1
  H  H291  1  0.242200  0.133000  0.664500  1
  H  H292  1  0.242200  0.367000  0.335500  1
  H  H293  1  0.257800  0.867000  0.835500  1
  H  H294  1  0.257800  0.633000  0.164500  1
  H  H295  1  0.757800  0.867000  0.335500  1
  H  H296  1  0.757800  0.633000  0.664500  1
  H  H297  1  0.591100  0.115000  0.164200  1
  H  H298  1  0.591100  0.385000  0.835800  1
  H  H299  1  0.091100  0.115000  0.664200  1
  H  H300  1  0.091100  0.385000  0.335800  1
  H  H301  1  0.408900  0.885000  0.835800  1
  H  H302  1  0.408900  0.615000  0.164200  1
  H  H303  1  0.908900  0.885000  0.335800  1
  H  H304  1  0.908900  0.615000  0.664200  1
  H  H305  1  0.974000  0.149500  0.128100  1
  H  H306  1  0.974000  0.350500  0.871900  1
  H  H307  1  0.474000  0.149500  0.628100  1
  H  H308  1  0.474000  0.350500  0.371900  1
  H  H309  1  0.026000  0.850500  0.871900  1
  H  H310  1  0.026000  0.649500  0.128100  1
  H  H311  1  0.526000  0.850500  0.371900  1
  H  H312  1  0.526000  0.649500  0.628100  1
  H  H313  1  0.084800  0.115600  0.180500  1
  H  H314  1  0.084800  0.384400  0.819500  1
  H  H315  1  0.584800  0.115600  0.680500  1
  H  H316  1  0.584800  0.384400  0.319500  1
  H  H317  1  0.915200  0.884400  0.819500  1
  H  H318  1  0.915200  0.615600  0.180500  1
  H  H319  1  0.415200  0.884400  0.319500  1
  H  H320  1  0.415200  0.615600  0.680500  1
  H  H321  1  0.968200  0.151800  0.199800  1
  H  H322  1  0.968200  0.348200  0.800200  1
  H  H323  1  0.468200  0.151800  0.699800  1
  H  H324  1  0.468200  0.348200  0.300200  1
  H  H325  1  0.031800  0.848200  0.800200  1
  H  H326  1  0.031800  0.651800  0.199800  1
  H  H327  1  0.531800  0.848200  0.300200  1
  H  H328  1  0.531800  0.651800  0.699800  1
  H  H329  1  0.852300  0.188000  0.184000  1
  H  H330  1  0.852300  0.312000  0.816000  1
  H  H331  1  0.352300  0.188000  0.684000  1
  H  H332  1  0.352300  0.312000  0.316000  1
  H  H333  1  0.147700  0.812000  0.816000  1
  H  H334  1  0.147700  0.688000  0.184000  1
  H  H335  1  0.647700  0.812000  0.316000  1
  H  H336  1  0.647700  0.688000  0.684000  1
  H  H337  1  0.012700  0.079100  0.118300  1
  H  H338  1  0.012700  0.420900  0.881700  1
  H  H339  1  0.512700  0.079100  0.618300  1
  H  H340  1  0.512700  0.420900  0.381700  1
  H  H341  1  0.987300  0.920900  0.881700  1
  H  H342  1  0.987300  0.579100  0.118300  1
  H  H343  1  0.487300  0.920900  0.381700  1
  H  H344  1  0.487300  0.579100  0.618300  1
  H  H345  1  0.267100  0.028900  0.107100  1
  H  H346  1  0.267100  0.471100  0.892900  1
  H  H347  1  0.767100  0.028900  0.607100  1
  H  H348  1  0.767100  0.471100  0.392900  1
  H  H349  1  0.732900  0.971100  0.892900  1
  H  H350  1  0.732900  0.528900  0.107100  1
  H  H351  1  0.232900  0.971100  0.392900  1
  H  H352  1  0.232900  0.528900  0.607100  1
  H  H353  1  0.319500  0.071400  0.136700  1
  H  H354  1  0.319500  0.428600  0.863300  1
  H  H355  1  0.819500  0.071400  0.636700  1
  H  H356  1  0.819500  0.428600  0.363300  1
  H  H357  1  0.680500  0.928600  0.863300  1
  H  H358  1  0.680500  0.571400  0.136700  1
  H  H359  1  0.180500  0.928600  0.363300  1
  H  H360  1  0.180500  0.571400  0.636700  1
  H  H361  1  0.217900  0.113900  0.156700  1
  H  H362  1  0.217900  0.386100  0.843300  1
  H  H363  1  0.717900  0.113900  0.656700  1
  H  H364  1  0.717900  0.386100  0.343300  1
  H  H365  1  0.782100  0.886100  0.843300  1
  H  H366  1  0.782100  0.613900  0.156700  1
  H  H367  1  0.282100  0.886100  0.343300  1
  H  H368  1  0.282100  0.613900  0.656700  1
  H  H369  1  0.017900  0.070700  0.082400  1
  H  H370  1  0.017900  0.429300  0.917600  1
  H  H371  1  0.517900  0.070700  0.582400  1
  H  H372  1  0.517900  0.429300  0.417600  1
  H  H373  1  0.982100  0.929300  0.917600  1
  H  H374  1  0.982100  0.570700  0.082400  1
  H  H375  1  0.482100  0.929300  0.417600  1
  H  H376  1  0.482100  0.570700  0.582400  1
  H  H377  1  0.993600  0.959500  0.046700  1
  H  H378  1  0.993600  0.540500  0.953300  1
  H  H379  1  0.493600  0.959500  0.546700  1
  H  H380  1  0.493600  0.540500  0.453300  1
  H  H381  1  0.006400  0.040500  0.953300  1
  H  H382  1  0.006400  0.459500  0.046700  1
  H  H383  1  0.506400  0.040500  0.453300  1
  H  H384  1  0.506400  0.459500  0.546700  1
  H  H385  1  0.106600  0.927900  0.063800  1
  H  H386  1  0.106600  0.572100  0.936200  1
  H  H387  1  0.606600  0.927900  0.563800  1
  H  H388  1  0.606600  0.572100  0.436200  1
  H  H389  1  0.893400  0.072100  0.936200  1
  H  H390  1  0.893400  0.427900  0.063800  1
  H  H391  1  0.393400  0.072100  0.436200  1
  H  H392  1  0.393400  0.427900  0.563800  1
  H  H393  1  0.178200  0.970000  0.091300  1
  H  H394  1  0.178200  0.530000  0.908700  1
  H  H395  1  0.678200  0.970000  0.591300  1
  H  H396  1  0.678200  0.530000  0.408700  1
  H  H397  1  0.821800  0.030000  0.908700  1
  H  H398  1  0.821800  0.470000  0.091300  1
  H  H399  1  0.321800  0.030000  0.408700  1
  H  H400  1  0.321800  0.470000  0.591300  1
  H  H401  1  0.619000  0.067200  0.101000  1
  H  H402  1  0.619000  0.432800  0.899000  1
  H  H403  1  0.119000  0.067200  0.601000  1
  H  H404  1  0.119000  0.432800  0.399000  1
  H  H405  1  0.381000  0.932800  0.899000  1
  H  H406  1  0.381000  0.567200  0.101000  1
  H  H407  1  0.881000  0.932800  0.399000  1
  H  H408  1  0.881000  0.567200  0.601000  1
  H  H409  1  0.538300  0.035900  0.092100  1
  H  H410  1  0.538300  0.464100  0.907900  1
  H  H411  1  0.038300  0.035900  0.592100  1
  H  H412  1  0.038300  0.464100  0.407900  1
  H  H413  1  0.461700  0.964100  0.907900  1
  H  H414  1  0.461700  0.535900  0.092100  1
  H  H415  1  0.961700  0.964100  0.407900  1
  H  H416  1  0.961700  0.535900  0.592100  1
  H  H417  1  0.517800  0.075300  0.109500  1
  H  H418  1  0.517800  0.424700  0.890500  1
  H  H419  1  0.017800  0.075300  0.609500  1
  H  H420  1  0.017800  0.424700  0.390500  1
  H  H421  1  0.482200  0.924700  0.890500  1
  H  H422  1  0.482200  0.575300  0.109500  1
  H  H423  1  0.982200  0.924700  0.390500  1
  H  H424  1  0.982200  0.575300  0.609500  1
  H  H425  1  0.397300  0.115500  0.059200  1
  H  H426  1  0.397300  0.384500  0.940800  1
  H  H427  1  0.897300  0.115500  0.559200  1
  H  H428  1  0.897300  0.384500  0.440800  1
  H  H429  1  0.602700  0.884500  0.940800  1
  H  H430  1  0.602700  0.615500  0.059200  1
  H  H431  1  0.102700  0.884500  0.440800  1
  H  H432  1  0.102700  0.615500  0.559200  1
  H  H433  1  0.366500  0.104900  0.081400  1
  H  H434  1  0.366500  0.395100  0.918600  1
  H  H435  1  0.866500  0.104900  0.581400  1
  H  H436  1  0.866500  0.395100  0.418600  1
  H  H437  1  0.633500  0.895100  0.918600  1
  H  H438  1  0.633500  0.604900  0.081400  1
  H  H439  1  0.133500  0.895100  0.418600  1
  H  H440  1  0.133500  0.604900  0.581400  1
  H  H441  1  0.392200  0.066100  0.064100  1
  H  H442  1  0.392200  0.433900  0.935900  1
  H  H443  1  0.892200  0.066100  0.564100  1
  H  H444  1  0.892200  0.433900  0.435900  1
  H  H445  1  0.607800  0.933900  0.935900  1
  H  H446  1  0.607800  0.566100  0.064100  1
  H  H447  1  0.107800  0.933900  0.435900  1
  H  H448  1  0.107800  0.566100  0.564100  1
  H  H449  1  0.667600  0.231800  0.203800  1
  H  H450  1  0.667600  0.268200  0.796200  1
  H  H451  1  0.167600  0.231800  0.703800  1
  H  H452  1  0.167600  0.268200  0.296200  1
  H  H453  1  0.332400  0.768200  0.796200  1
  H  H454  1  0.332400  0.731800  0.203800  1
  H  H455  1  0.832400  0.768200  0.296200  1
  H  H456  1  0.832400  0.731800  0.703800  1
  H  H457  1  0.590100  0.201300  0.192700  1
  H  H458  1  0.590100  0.298700  0.807300  1
  H  H459  1  0.090100  0.201300  0.692700  1
  H  H460  1  0.090100  0.298700  0.307300  1
  H  H461  1  0.409900  0.798700  0.807300  1
  H  H462  1  0.409900  0.701300  0.192700  1
  H  H463  1  0.909900  0.798700  0.307300  1
  H  H464  1  0.909900  0.701300  0.692700  1
  H  H465  1  0.571800  0.227400  0.214800  1
  H  H466  1  0.571800  0.272600  0.785200  1
  H  H467  1  0.071800  0.227400  0.714800  1
  H  H468  1  0.071800  0.272600  0.285200  1
  H  H469  1  0.428200  0.772600  0.785200  1
  H  H470  1  0.428200  0.727400  0.214800  1
  H  H471  1  0.928200  0.772600  0.285200  1
  H  H472  1  0.928200  0.727400  0.714800  1
  H  H473  1  0.407200  0.260900  0.185400  1
  H  H474  1  0.407200  0.239100  0.814600  1
  H  H475  1  0.907200  0.260900  0.685400  1
  H  H476  1  0.907200  0.239100  0.314600  1
  H  H477  1  0.592800  0.739100  0.814600  1
  H  H478  1  0.592800  0.760900  0.185400  1
  H  H479  1  0.092800  0.739100  0.314600  1
  H  H480  1  0.092800  0.760900  0.685400  1
  H  H481  1  0.438800  0.241500  0.205700  1
  H  H482  1  0.438800  0.258500  0.794300  1
  H  H483  1  0.938800  0.241500  0.705700  1
  H  H484  1  0.938800  0.258500  0.294300  1
  H  H485  1  0.561200  0.758500  0.794300  1
  H  H486  1  0.561200  0.741500  0.205700  1
  H  H487  1  0.061200  0.758500  0.294300  1
  H  H488  1  0.061200  0.741500  0.705700  1
  H  H489  1  0.458200  0.215000  0.183700  1
  H  H490  1  0.458200  0.285000  0.816300  1
  H  H491  1  0.958200  0.215000  0.683700  1
  H  H492  1  0.958200  0.285000  0.316300  1
  H  H493  1  0.541800  0.785000  0.816300  1
  H  H494  1  0.541800  0.715000  0.183700  1
  H  H495  1  0.041800  0.785000  0.316300  1
  H  H496  1  0.041800  0.715000  0.683700  1
  H  H497  1  0.182000  0.243600  0.144500  1
  H  H498  1  0.182000  0.256400  0.855500  1
  H  H499  1  0.682000  0.243600  0.644500  1
  H  H500  1  0.682000  0.256400  0.355500  1
  H  H501  1  0.818000  0.756400  0.855500  1
  H  H502  1  0.818000  0.743600  0.144500  1
  H  H503  1  0.318000  0.756400  0.355500  1
  H  H504  1  0.318000  0.743600  0.644500  1
  H  H505  1  0.213200  0.206400  0.158000  1
  H  H506  1  0.213200  0.293600  0.842000  1
  H  H507  1  0.713200  0.206400  0.658000  1
  H  H508  1  0.713200  0.293600  0.342000  1
  H  H509  1  0.786800  0.793600  0.842000  1
  H  H510  1  0.786800  0.706400  0.158000  1
  H  H511  1  0.286800  0.793600  0.342000  1
  H  H512  1  0.286800  0.706400  0.658000  1
  H  H513  1  0.245100  0.255600  0.164200  1
  H  H514  1  0.245100  0.244400  0.835800  1
  H  H515  1  0.745100  0.255600  0.664200  1
  H  H516  1  0.745100  0.244400  0.335800  1
  H  H517  1  0.754900  0.744400  0.835800  1
  H  H518  1  0.754900  0.755600  0.164200  1
  H  H519  1  0.254900  0.744400  0.335800  1
  H  H520  1  0.254900  0.755600  0.664200  1
  H  H521  1  0.112900  0.232700  0.207100  1
  H  H522  1  0.112900  0.267300  0.792900  1
  H  H523  1  0.612900  0.232700  0.707100  1
  H  H524  1  0.612900  0.267300  0.292900  1
  H  H525  1  0.887100  0.767300  0.792900  1
  H  H526  1  0.887100  0.732700  0.207100  1
  H  H527  1  0.387100  0.767300  0.292900  1
  H  H528  1  0.387100  0.732700  0.707100  1
  H  H529  1  0.208300  0.248100  0.198800  1
  H  H530  1  0.208300  0.251900  0.801200  1
  H  H531  1  0.708300  0.248100  0.698800  1
  H  H532  1  0.708300  0.251900  0.301200  1
  H  H533  1  0.791700  0.751900  0.801200  1
  H  H534  1  0.791700  0.748100  0.198800  1
  H  H535  1  0.291700  0.751900  0.301200  1
  H  H536  1  0.291700  0.748100  0.698800  1
  H  H537  1  0.173900  0.199300  0.192500  1
  H  H538  1  0.173900  0.300700  0.807500  1
  H  H539  1  0.673900  0.199300  0.692500  1
  H  H540  1  0.673900  0.300700  0.307500  1
  H  H541  1  0.826100  0.800700  0.807500  1
  H  H542  1  0.826100  0.699300  0.192500  1
  H  H543  1  0.326100  0.800700  0.307500  1
  H  H544  1  0.326100  0.699300  0.692500  1
  H  H545  1  0.650600  0.162800  0.067200  1
  H  H546  1  0.650600  0.337200  0.932800  1
  H  H547  1  0.150600  0.162800  0.567200  1
  H  H548  1  0.150600  0.337200  0.432800  1
  H  H549  1  0.349400  0.837200  0.932800  1
  H  H550  1  0.349400  0.662800  0.067200  1
  H  H551  1  0.849400  0.837200  0.432800  1
  H  H552  1  0.849400  0.662800  0.567200  1
  H  H553  1  0.861200  0.271800  0.042100  1
  H  H554  1  0.861200  0.228200  0.957900  1
  H  H555  1  0.361200  0.271800  0.542100  1
  H  H556  1  0.361200  0.228200  0.457900  1
  H  H557  1  0.138800  0.728200  0.957900  1
  H  H558  1  0.138800  0.771800  0.042100  1
  H  H559  1  0.638800  0.728200  0.457900  1
  H  H560  1  0.638800  0.771800  0.542100  1
  H  H561  1  0.983600  0.240300  0.058900  1
  H  H562  1  0.983600  0.259700  0.941100  1
  H  H563  1  0.483600  0.240300  0.558900  1
  H  H564  1  0.483600  0.259700  0.441100  1
  H  H565  1  0.016400  0.759700  0.941100  1
  H  H566  1  0.016400  0.740300  0.058900  1
  H  H567  1  0.516400  0.759700  0.441100  1
  H  H568  1  0.516400  0.740300  0.558900  1
  H  H569  1  0.951600  0.183500  0.078000  1
  H  H570  1  0.951600  0.316500  0.922000  1
  H  H571  1  0.451600  0.183500  0.578000  1
  H  H572  1  0.451600  0.316500  0.422000  1
  H  H573  1  0.048400  0.816500  0.922000  1
  H  H574  1  0.048400  0.683500  0.078000  1
  H  H575  1  0.548400  0.816500  0.422000  1
  H  H576  1  0.548400  0.683500  0.578000  1
  H  H577  1  0.994000  0.336100  0.171400  1
  H  H578  1  0.994000  0.163900  0.828600  1
  H  H579  1  0.494000  0.336100  0.671400  1
  H  H580  1  0.494000  0.163900  0.328600  1
  H  H581  1  0.006000  0.663900  0.828600  1
  H  H582  1  0.006000  0.836100  0.171400  1
  H  H583  1  0.506000  0.663900  0.328600  1
  H  H584  1  0.506000  0.836100  0.671400  1
  H  H585  1  0.787800  0.407500  0.124200  1
  H  H586  1  0.787800  0.092500  0.875800  1
  H  H587  1  0.287800  0.407500  0.624200  1
  H  H588  1  0.287800  0.092500  0.375800  1
  H  H589  1  0.212200  0.592500  0.875800  1
  H  H590  1  0.212200  0.907500  0.124200  1
  H  H591  1  0.712200  0.592500  0.375800  1
  H  H592  1  0.712200  0.907500  0.624200  1
  H  H593  1  0.657000  0.368600  0.136600  1
  H  H594  1  0.657000  0.131400  0.863400  1
  H  H595  1  0.157000  0.368600  0.636600  1
  H  H596  1  0.157000  0.131400  0.363400  1
  H  H597  1  0.343000  0.631400  0.863400  1
  H  H598  1  0.343000  0.868600  0.136600  1
  H  H599  1  0.843000  0.631400  0.363400  1
  H  H600  1  0.843000  0.868600  0.636600  1
  H  H601  1  0.695500  0.323600  0.162500  1
  H  H602  1  0.695500  0.176400  0.837500  1
  H  H603  1  0.195500  0.323600  0.662500  1
  H  H604  1  0.195500  0.176400  0.337500  1
  H  H605  1  0.304500  0.676400  0.837500  1
  H  H606  1  0.304500  0.823600  0.162500  1
  H  H607  1  0.804500  0.676400  0.337500  1
  H  H608  1  0.804500  0.823600  0.662500  1
  H  H609  1  0.277100  0.281700  0.112100  1
  H  H610  1  0.277100  0.218300  0.887900  1
  H  H611  1  0.777100  0.281700  0.612100  1
  H  H612  1  0.777100  0.218300  0.387900  1
  H  H613  1  0.722900  0.718300  0.887900  1
  H  H614  1  0.722900  0.781700  0.112100  1
  H  H615  1  0.222900  0.718300  0.387900  1
  H  H616  1  0.222900  0.781700  0.612100  1
  H  H617  1  0.219600  0.422900  0.115100  1
  H  H618  1  0.219600  0.077100  0.884900  1
  H  H619  1  0.719600  0.422900  0.615100  1
  H  H620  1  0.719600  0.077100  0.384900  1
  H  H621  1  0.780400  0.577100  0.884900  1
  H  H622  1  0.780400  0.922900  0.115100  1
  H  H623  1  0.280400  0.577100  0.384900  1
  H  H624  1  0.280400  0.922900  0.615100  1
  H  H625  1  0.327900  0.454900  0.138300  1
  H  H626  1  0.327900  0.045100  0.861700  1
  H  H627  1  0.827900  0.454900  0.638300  1
  H  H628  1  0.827900  0.045100  0.361700  1
  H  H629  1  0.672100  0.545100  0.861700  1
  H  H630  1  0.672100  0.954900  0.138300  1
  H  H631  1  0.172100  0.545100  0.361700  1
  H  H632  1  0.172100  0.954900  0.638300  1
  H  H633  1  0.431400  0.411200  0.153600  1
  H  H634  1  0.431400  0.088800  0.846400  1
  H  H635  1  0.931400  0.411200  0.653600  1
  H  H636  1  0.931400  0.088800  0.346400  1
  H  H637  1  0.568600  0.588800  0.846400  1
  H  H638  1  0.568600  0.911200  0.153600  1
  H  H639  1  0.068600  0.588800  0.346400  1
  H  H640  1  0.068600  0.911200  0.653600  1
  H  H641  1  0.492800  0.387900  0.149800  1
  H  H642  1  0.492800  0.112100  0.850200  1
  H  H643  1  0.992800  0.387900  0.649800  1
  H  H644  1  0.992800  0.112100  0.350200  1
  H  H645  1  0.507200  0.612100  0.850200  1
  H  H646  1  0.507200  0.887900  0.149800  1
  H  H647  1  0.007200  0.612100  0.350200  1
  H  H648  1  0.007200  0.887900  0.649800  1
  H  H649  1  0.472000  0.312600  0.147900  1
  H  H650  1  0.472000  0.187400  0.852100  1
  H  H651  1  0.972000  0.312600  0.647900  1
  H  H652  1  0.972000  0.187400  0.352100  1
  H  H653  1  0.528000  0.687400  0.852100  1
  H  H654  1  0.528000  0.812600  0.147900  1
  H  H655  1  0.028000  0.687400  0.352100  1
  H  H656  1  0.028000  0.812600  0.647900  1
  H  H657  1  0.332100  0.281800  0.137300  1
  H  H658  1  0.332100  0.218200  0.862700  1
  H  H659  1  0.832100  0.281800  0.637300  1
  H  H660  1  0.832100  0.218200  0.362700  1
  H  H661  1  0.667900  0.718200  0.862700  1
  H  H662  1  0.667900  0.781800  0.137300  1
  H  H663  1  0.167900  0.718200  0.362700  1
  H  H664  1  0.167900  0.781800  0.637300  1
  H  H665  1  0.213100  0.326300  0.128600  1
  H  H666  1  0.213100  0.173700  0.871400  1
  H  H667  1  0.713100  0.326300  0.628600  1
  H  H668  1  0.713100  0.173700  0.371400  1
  H  H669  1  0.786900  0.673700  0.871400  1
  H  H670  1  0.786900  0.826300  0.128600  1
  H  H671  1  0.286900  0.673700  0.371400  1
  H  H672  1  0.286900  0.826300  0.628600  1
  H  H673  1  0.233900  0.401600  0.130500  1
  H  H674  1  0.233900  0.098400  0.869500  1
  H  H675  1  0.733900  0.401600  0.630500  1
  H  H676  1  0.733900  0.098400  0.369500  1
  H  H677  1  0.766100  0.598400  0.869500  1
  H  H678  1  0.766100  0.901600  0.130500  1
  H  H679  1  0.266100  0.598400  0.369500  1
  H  H680  1  0.266100  0.901600  0.630500  1
  H  H681  1  0.373800  0.432400  0.141100  1
  H  H682  1  0.373800  0.067600  0.858900  1
  H  H683  1  0.873800  0.432400  0.641100  1
  H  H684  1  0.873800  0.067600  0.358900  1
  H  H685  1  0.626200  0.567600  0.858900  1
  H  H686  1  0.626200  0.932400  0.141100  1
  H  H687  1  0.126200  0.567600  0.358900  1
  H  H688  1  0.126200  0.932400  0.641100  1
  H  H689  1  0.892000  0.941300  0.016000  1
  H  H690  1  0.892000  0.558700  0.984000  1
  H  H691  1  0.392000  0.941300  0.516000  1
  H  H692  1  0.392000  0.558700  0.484000  1
  H  H693  1  0.108000  0.058700  0.984000  1
  H  H694  1  0.108000  0.441300  0.016000  1
  H  H695  1  0.608000  0.058700  0.484000  1
  H  H696  1  0.608000  0.441300  0.516000  1
  H  H697  1  0.697600  0.003300  0.973400  1
  H  H698  1  0.697600  0.496700  0.026600  1
  H  H699  1  0.197600  0.003300  0.473400  1
  H  H700  1  0.197600  0.496700  0.526600  1
  H  H701  1  0.302400  0.996700  0.026600  1
  H  H702  1  0.302400  0.503300  0.973400  1
  H  H703  1  0.802400  0.996700  0.526600  1
  H  H704  1  0.802400  0.503300  0.473400  1
  H  H705  1  0.781900  0.064400  0.967200  1
  H  H706  1  0.781900  0.435600  0.032800  1
  H  H707  1  0.281900  0.064400  0.467200  1
  H  H708  1  0.281900  0.435600  0.532800  1
  H  H709  1  0.218100  0.935600  0.032800  1
  H  H710  1  0.218100  0.564400  0.967200  1
  H  H711  1  0.718100  0.935600  0.532800  1
  H  H712  1  0.718100  0.564400  0.467200  1
  H  H713  1  0.932700  0.071900  0.978400  1
  H  H714  1  0.932700  0.428100  0.021600  1
  H  H715  1  0.432700  0.071900  0.478400  1
  H  H716  1  0.432700  0.428100  0.521600  1
  H  H717  1  0.067300  0.928100  0.021600  1
  H  H718  1  0.067300  0.571900  0.978400  1
  H  H719  1  0.567300  0.928100  0.521600  1
  H  H720  1  0.567300  0.571900  0.478400  1
  H  H721  1  0.673100  0.544200  0.223200  1
  H  H722  1  0.673100  0.955800  0.776800  1
  H  H723  1  0.173100  0.544200  0.723200  1
  H  H724  1  0.173100  0.955800  0.276800  1
  H  H725  1  0.326900  0.455800  0.776800  1
  H  H726  1  0.326900  0.044200  0.223200  1
  H  H727  1  0.826900  0.455800  0.276800  1
  H  H728  1  0.826900  0.044200  0.723200  1
  H  H729  1  0.665300  0.443500  0.278400  1
  H  H730  1  0.665300  0.056500  0.721600  1
  H  H731  1  0.165300  0.443500  0.778400  1
  H  H732  1  0.165300  0.056500  0.221600  1
  H  H733  1  0.334700  0.556500  0.721600  1
  H  H734  1  0.334700  0.943500  0.278400  1
  H  H735  1  0.834700  0.556500  0.221600  1
  H  H736  1  0.834700  0.943500  0.778400  1
  H  H737  1  0.823900  0.448700  0.279800  1
  H  H738  1  0.823900  0.051300  0.720200  1
  H  H739  1  0.323900  0.448700  0.779800  1
  H  H740  1  0.323900  0.051300  0.220200  1
  H  H741  1  0.176100  0.551300  0.720200  1
  H  H742  1  0.176100  0.948700  0.279800  1
  H  H743  1  0.676100  0.551300  0.220200  1
  H  H744  1  0.676100  0.948700  0.779800  1
  H  H745  1  0.900600  0.491700  0.258400  1
  H  H746  1  0.900600  0.008300  0.741600  1
  H  H747  1  0.400600  0.491700  0.758400  1
  H  H748  1  0.400600  0.008300  0.241600  1
  H  H749  1  0.099400  0.508300  0.741600  1
  H  H750  1  0.099400  0.991700  0.258400  1
  H  H751  1  0.599400  0.508300  0.241600  1
  H  H752  1  0.599400  0.991700  0.758400  1
  H  H753  1  0.830000  0.496000  0.262500  1
  H  H754  1  0.830000  0.004000  0.737500  1
  H  H755  1  0.330000  0.496000  0.762500  1
  H  H756  1  0.330000  0.004000  0.237500  1
  H  H757  1  0.170000  0.504000  0.737500  1
  H  H758  1  0.170000  0.996000  0.262500  1
  H  H759  1  0.670000  0.504000  0.237500  1
  H  H760  1  0.670000  0.996000  0.762500  1
  H  H761  1  0.695700  0.416500  0.285900  1
  H  H762  1  0.695700  0.083500  0.714100  1
  H  H763  1  0.195700  0.416500  0.785900  1
  H  H764  1  0.195700  0.083500  0.214100  1
  H  H765  1  0.304300  0.583500  0.714100  1
  H  H766  1  0.304300  0.916500  0.285900  1
  H  H767  1  0.804300  0.583500  0.214100  1
  H  H768  1  0.804300  0.916500  0.785900  1
  H  H769  1  0.547200  0.391400  0.289500  1
  H  H770  1  0.547200  0.108600  0.710500  1
  H  H771  1  0.047200  0.391400  0.789500  1
  H  H772  1  0.047200  0.108600  0.210500  1
  H  H773  1  0.452800  0.608600  0.710500  1
  H  H774  1  0.452800  0.891400  0.289500  1
  H  H775  1  0.952800  0.608600  0.210500  1
  H  H776  1  0.952800  0.891400  0.789500  1
  H  H777  1  0.429100  0.417300  0.270400  1
  H  H778  1  0.429100  0.082700  0.729600  1
  H  H779  1  0.929100  0.417300  0.770400  1
  H  H780  1  0.929100  0.082700  0.229600  1
  H  H781  1  0.570900  0.582700  0.729600  1
  H  H782  1  0.570900  0.917300  0.270400  1
  H  H783  1  0.070900  0.582700  0.229600  1
  H  H784  1  0.070900  0.917300  0.770400  1
  H  H785  1  0.653000  0.664000  0.247300  1.0
  H  H786  1  0.653000  0.836000  0.752700  1.0
  H  H787  1  0.153000  0.664000  0.747300  1.0
  H  H788  1  0.153000  0.836000  0.252700  1.0
  H  H789  1  0.347000  0.336000  0.752700  1.0
  H  H790  1  0.347000  0.164000  0.247300  1.0
  H  H791  1  0.847000  0.336000  0.252700  1.0
  H  H792  1  0.847000  0.164000  0.747300  1.0
  H  H793  1  0.795400  0.692200  0.237500  1.0
  H  H794  1  0.795400  0.807800  0.762500  1.0
  H  H795  1  0.295400  0.692200  0.737500  1.0
  H  H796  1  0.295400  0.807800  0.262500  1.0
  H  H797  1  0.204600  0.307800  0.762500  1.0
  H  H798  1  0.204600  0.192200  0.237500  1.0
  H  H799  1  0.704600  0.307800  0.262500  1.0
  H  H800  1  0.704600  0.192200  0.737500  1.0
  H  H801  1  0.928200  0.672800  0.253000  1.0
  H  H802  1  0.928200  0.827200  0.747000  1.0
  H  H803  1  0.428200  0.672800  0.753000  1.0
  H  H804  1  0.428200  0.827200  0.247000  1.0
  H  H805  1  0.071800  0.327200  0.747000  1.0
  H  H806  1  0.071800  0.172800  0.253000  1.0
  H  H807  1  0.571800  0.327200  0.247000  1.0
  H  H808  1  0.571800  0.172800  0.753000  1.0
  H  H809  1  0.389200  0.572100  0.291300  1.0
  H  H810  1  0.389200  0.927900  0.708700  1.0
  H  H811  1  0.889200  0.572100  0.791300  1.0
  H  H812  1  0.889200  0.927900  0.208700  1.0
  H  H813  1  0.610800  0.427900  0.708700  1.0
  H  H814  1  0.610800  0.072100  0.291300  1.0
  H  H815  1  0.110800  0.427900  0.208700  1.0
  H  H816  1  0.110800  0.072100  0.791300  1.0
  H  H817  1  0.329200  0.528000  0.313800  1.0
  H  H818  1  0.329200  0.972000  0.686200  1.0
  H  H819  1  0.829200  0.528000  0.813800  1.0
  H  H820  1  0.829200  0.972000  0.186200  1.0
  H  H821  1  0.670800  0.472000  0.686200  1.0
  H  H822  1  0.670800  0.028000  0.313800  1.0
  H  H823  1  0.170800  0.472000  0.186200  1.0
  H  H824  1  0.170800  0.028000  0.813800  1.0
  H  H825  1  0.421600  0.493100  0.335300  1.0
  H  H826  1  0.421600  0.006900  0.664700  1.0
  H  H827  1  0.921600  0.493100  0.835300  1.0
  H  H828  1  0.921600  0.006900  0.164700  1.0
  H  H829  1  0.578400  0.506900  0.664700  1.0
  H  H830  1  0.578400  0.993100  0.335300  1.0
  H  H831  1  0.078400  0.506900  0.164700  1.0
  H  H832  1  0.078400  0.993100  0.835300  1.0
  H  H833  1  0.995600  0.630900  0.281500  1.0
  H  H834  1  0.995600  0.869100  0.718500  1.0
  H  H835  1  0.495600  0.630900  0.781500  1.0
  H  H836  1  0.495600  0.869100  0.218500  1.0
  H  H837  1  0.004400  0.369100  0.718500  1.0
  H  H838  1  0.004400  0.130900  0.281500  1.0
  H  H839  1  0.504400  0.369100  0.218500  1.0
  H  H840  1  0.504400  0.130900  0.781500  1.0
  H  H841  1  0.985700  0.585700  0.305800  1.0
  H  H842  1  0.985700  0.914300  0.694200  1.0
  H  H843  1  0.485700  0.585700  0.805800  1.0
  H  H844  1  0.485700  0.914300  0.194200  1.0
  H  H845  1  0.014300  0.414300  0.694200  1.0
  H  H846  1  0.014300  0.085700  0.305800  1.0
  H  H847  1  0.514300  0.414300  0.194200  1.0
  H  H848  1  0.514300  0.085700  0.805800  1.0
  H  H849  1  0.742400  0.489600  0.341600  1.0
  H  H850  1  0.742400  0.010400  0.658400  1.0
  H  H851  1  0.242400  0.489600  0.841600  1.0
  H  H852  1  0.242400  0.010400  0.158400  1.0
  H  H853  1  0.257600  0.510400  0.658400  1.0
  H  H854  1  0.257600  0.989600  0.341600  1.0
  H  H855  1  0.757600  0.510400  0.158400  1.0
  H  H856  1  0.757600  0.989600  0.841600  1.0
  H  H857  1  0.594200  0.475800  0.345200  1.0
  H  H858  1  0.594200  0.024200  0.654800  1.0
  H  H859  1  0.094200  0.475800  0.845200  1.0
  H  H860  1  0.094200  0.024200  0.154800  1.0
  H  H861  1  0.405800  0.524200  0.654800  1.0
  H  H862  1  0.405800  0.975800  0.345200  1.0
  H  H863  1  0.905800  0.524200  0.154800  1.0
  H  H864  1  0.905800  0.975800  0.845200  1.0
  H  H865  1  0.967300  0.499800  0.303100  1.0
  H  H866  1  0.967300  0.000200  0.696900  1.0
  H  H867  1  0.467300  0.499800  0.803100  1.0
  H  H868  1  0.467300  0.000200  0.196900  1.0
  H  H869  1  0.032700  0.500200  0.696900  1.0
  H  H870  1  0.032700  0.999800  0.303100  1.0
  H  H871  1  0.532700  0.500200  0.196900  1.0
  H  H872  1  0.532700  0.999800  0.803100  1.0
  H  H873  1  0.090400  0.472400  0.354600  1.0
  H  H874  1  0.090400  0.027600  0.645400  1.0
  H  H875  1  0.590400  0.472400  0.854600  1.0
  H  H876  1  0.590400  0.027600  0.145400  1.0
  H  H877  1  0.909600  0.527600  0.645400  1.0
  H  H878  1  0.909600  0.972400  0.354600  1.0
  H  H879  1  0.409600  0.527600  0.145400  1.0
  H  H880  1  0.409600  0.972400  0.854600  1.0
  H  H881  1  0.976200  0.512400  0.373900  1.0
  H  H882  1  0.976200  0.987600  0.626100  1.0
  H  H883  1  0.476200  0.512400  0.873900  1.0
  H  H884  1  0.476200  0.987600  0.126100  1.0
  H  H885  1  0.023800  0.487600  0.626100  1.0
  H  H886  1  0.023800  0.012400  0.373900  1.0
  H  H887  1  0.523800  0.487600  0.126100  1.0
  H  H888  1  0.523800  0.012400  0.873900  1.0
  H  H889  1  0.857700  0.542800  0.358100  1.0
  H  H890  1  0.857700  0.957200  0.641900  1.0
  H  H891  1  0.357700  0.542800  0.858100  1.0
  H  H892  1  0.357700  0.957200  0.141900  1.0
  H  H893  1  0.142300  0.457200  0.641900  1.0
  H  H894  1  0.142300  0.042800  0.358100  1.0
  H  H895  1  0.642300  0.457200  0.141900  1.0
  H  H896  1  0.642300  0.042800  0.858100  1.0
  H  H897  1  0.022800  0.432700  0.291500  1.0
  H  H898  1  0.022800  0.067300  0.708500  1.0
  H  H899  1  0.522800  0.432700  0.791500  1.0
  H  H900  1  0.522800  0.067300  0.208500  1.0
  H  H901  1  0.977200  0.567300  0.708500  1.0
  H  H902  1  0.977200  0.932700  0.291500  1.0
  H  H903  1  0.477200  0.567300  0.208500  1.0
  H  H904  1  0.477200  0.932700  0.791500  1.0
  H  H905  1  0.273200  0.385800  0.282600  1.0
  H  H906  1  0.273200  0.114200  0.717400  1.0
  H  H907  1  0.773200  0.385800  0.782600  1.0
  H  H908  1  0.773200  0.114200  0.217400  1.0
  H  H909  1  0.726800  0.614200  0.717400  1.0
  H  H910  1  0.726800  0.885800  0.282600  1.0
  H  H911  1  0.226800  0.614200  0.217400  1.0
  H  H912  1  0.226800  0.885800  0.782600  1.0
  H  H913  1  0.319500  0.425400  0.312600  1.0
  H  H914  1  0.319500  0.074600  0.687400  1.0
  H  H915  1  0.819500  0.425400  0.812600  1.0
  H  H916  1  0.819500  0.074600  0.187400  1.0
  H  H917  1  0.680500  0.574600  0.687400  1.0
  H  H918  1  0.680500  0.925400  0.312600  1.0
  H  H919  1  0.180500  0.574600  0.187400  1.0
  H  H920  1  0.180500  0.925400  0.812600  1.0
  H  H921  1  0.223100  0.472900  0.330900  1.0
  H  H922  1  0.223100  0.027100  0.669100  1.0
  H  H923  1  0.723100  0.472900  0.830900  1.0
  H  H924  1  0.723100  0.027100  0.169100  1.0
  H  H925  1  0.776900  0.527100  0.669100  1.0
  H  H926  1  0.776900  0.972900  0.330900  1.0
  H  H927  1  0.276900  0.527100  0.169100  1.0
  H  H928  1  0.276900  0.972900  0.830900  1.0
  H  H929  1  0.018000  0.422000  0.257800  1.0
  H  H930  1  0.018000  0.078000  0.742200  1.0
  H  H931  1  0.518000  0.422000  0.757800  1.0
  H  H932  1  0.518000  0.078000  0.242200  1.0
  H  H933  1  0.982000  0.578000  0.742200  1.0
  H  H934  1  0.982000  0.922000  0.257800  1.0
  H  H935  1  0.482000  0.578000  0.242200  1.0
  H  H936  1  0.482000  0.922000  0.757800  1.0
  H  H937  1  0.476400  0.682600  0.283200  1.0
  H  H938  1  0.476400  0.817400  0.716800  1.0
  H  H939  1  0.976400  0.682600  0.783200  1.0
  H  H940  1  0.976400  0.817400  0.216800  1.0
  H  H941  1  0.523600  0.317400  0.716800  1.0
  H  H942  1  0.523600  0.182600  0.283200  1.0
  H  H943  1  0.023600  0.317400  0.216800  1.0
  H  H944  1  0.023600  0.182600  0.783200  1.0
  H  H945  1  0.367700  0.713600  0.263700  1.0
  H  H946  1  0.367700  0.786400  0.736300  1.0
  H  H947  1  0.867700  0.713600  0.763700  1.0
  H  H948  1  0.867700  0.786400  0.236300  1.0
  H  H949  1  0.632300  0.286400  0.736300  1.0
  H  H950  1  0.632300  0.213600  0.263700  1.0
  H  H951  1  0.132300  0.286400  0.236300  1.0
  H  H952  1  0.132300  0.213600  0.763700  1.0
  H  H953  1  0.190900  0.326300  0.265300  1.0
  H  H954  1  0.190900  0.173700  0.734700  1.0
  H  H955  1  0.690900  0.326300  0.765300  1.0
  H  H956  1  0.690900  0.173700  0.234700  1.0
  H  H957  1  0.809100  0.673700  0.734700  1.0
  H  H958  1  0.809100  0.826300  0.265300  1.0
  H  H959  1  0.309100  0.673700  0.234700  1.0
  H  H960  1  0.309100  0.826300  0.765300  1.0
  Pt  Pt961  1  0.890380  0.043580  0.047618  1
  Pt  Pt962  1  0.890380  0.456420  0.952382  1
  Pt  Pt963  1  0.390380  0.043580  0.547618  1
  Pt  Pt964  1  0.390380  0.456420  0.452382  1
  Pt  Pt965  1  0.109620  0.956420  0.952382  1
  Pt  Pt966  1  0.109620  0.543580  0.047618  1
  Pt  Pt967  1  0.609620  0.956420  0.452382  1
  Pt  Pt968  1  0.609620  0.543580  0.547618  1
  Pt  Pt969  1  0.602020  0.258070  0.107558  1
  Pt  Pt970  1  0.602020  0.241930  0.892442  1
  Pt  Pt971  1  0.102020  0.258070  0.607558  1
  Pt  Pt972  1  0.102020  0.241930  0.392442  1
  Pt  Pt973  1  0.397980  0.741930  0.892442  1
  Pt  Pt974  1  0.397980  0.758070  0.107558  1
  Pt  Pt975  1  0.897980  0.741930  0.392442  1
  Pt  Pt976  1  0.897980  0.758070  0.607558  1
  Pt  Pt977  1  0.592180  0.603060  0.280492  1.0
  Pt  Pt978  1  0.592180  0.896940  0.719508  1.0
  Pt  Pt979  1  0.092180  0.603060  0.780492  1.0
  Pt  Pt980  1  0.092180  0.896940  0.219508  1.0
  Pt  Pt981  1  0.407820  0.396940  0.719508  1.0
  Pt  Pt982  1  0.407820  0.103060  0.280492  1.0
  Pt  Pt983  1  0.907820  0.396940  0.219508  1.0
  Pt  Pt984  1  0.907820  0.103060  0.780492  1.0
  C  C985  1  0.712000  0.010900  0.043900  1
  C  C986  1  0.712000  0.489100  0.956100  1
  C  C987  1  0.212000  0.010900  0.543900  1
  C  C988  1  0.212000  0.489100  0.456100  1
  C  C989  1  0.288000  0.989100  0.956100  1
  C  C990  1  0.288000  0.510900  0.043900  1
  C  C991  1  0.788000  0.989100  0.456100  1
  C  C992  1  0.788000  0.510900  0.543900  1
  C  C993  1  0.786000  0.964900  0.062100  1
  C  C994  1  0.786000  0.535100  0.937900  1
  C  C995  1  0.286000  0.964900  0.562100  1
  C  C996  1  0.286000  0.535100  0.437900  1
  C  C997  1  0.214000  0.035100  0.937900  1
  C  C998  1  0.214000  0.464900  0.062100  1
  C  C999  1  0.714000  0.035100  0.437900  1
  C  C1000  1  0.714000  0.464900  0.562100  1
  C  C1001  1  0.710000  0.940100  0.063000  1
  C  C1002  1  0.710000  0.559900  0.937000  1
  C  C1003  1  0.210000  0.940100  0.563000  1
  C  C1004  1  0.210000  0.559900  0.437000  1
  C  C1005  1  0.290000  0.059900  0.937000  1
  C  C1006  1  0.290000  0.440100  0.063000  1
  C  C1007  1  0.790000  0.059900  0.437000  1
  C  C1008  1  0.790000  0.440100  0.563000  1
  C  C1009  1  0.636000  0.952400  0.054500  1
  C  C1010  1  0.636000  0.547600  0.945500  1
  C  C1011  1  0.136000  0.952400  0.554500  1
  C  C1012  1  0.136000  0.547600  0.445500  1
  C  C1013  1  0.364000  0.047600  0.945500  1
  C  C1014  1  0.364000  0.452400  0.054500  1
  C  C1015  1  0.864000  0.047600  0.445500  1
  C  C1016  1  0.864000  0.452400  0.554500  1
  C  C1017  1  0.631000  0.988200  0.043700  1
  C  C1018  1  0.631000  0.511800  0.956300  1
  C  C1019  1  0.131000  0.988200  0.543700  1
  C  C1020  1  0.131000  0.511800  0.456300  1
  C  C1021  1  0.369000  0.011800  0.956300  1
  C  C1022  1  0.369000  0.488200  0.043700  1
  C  C1023  1  0.869000  0.011800  0.456300  1
  C  C1024  1  0.869000  0.488200  0.543700  1
  C  C1025  1  0.717000  0.048700  0.032200  1
  C  C1026  1  0.717000  0.451300  0.967800  1
  C  C1027  1  0.217000  0.048700  0.532200  1
  C  C1028  1  0.217000  0.451300  0.467800  1
  C  C1029  1  0.283000  0.951300  0.967800  1
  C  C1030  1  0.283000  0.548700  0.032200  1
  C  C1031  1  0.783000  0.951300  0.467800  1
  C  C1032  1  0.783000  0.548700  0.532200  1
  C  C1033  1  0.808000  0.102900  0.023200  1
  C  C1034  1  0.808000  0.397100  0.976800  1
  C  C1035  1  0.308000  0.102900  0.523200  1
  C  C1036  1  0.308000  0.397100  0.476800  1
  C  C1037  1  0.192000  0.897100  0.976800  1
  C  C1038  1  0.192000  0.602900  0.023200  1
  C  C1039  1  0.692000  0.897100  0.476800  1
  C  C1040  1  0.692000  0.602900  0.523200  1
  C  C1041  1  0.736000  0.119300  0.012000  1
  C  C1042  1  0.736000  0.380700  0.988000  1
  C  C1043  1  0.236000  0.119300  0.512000  1
  C  C1044  1  0.236000  0.380700  0.488000  1
  C  C1045  1  0.264000  0.880700  0.988000  1
  C  C1046  1  0.264000  0.619300  0.012000  1
  C  C1047  1  0.764000  0.880700  0.488000  1
  C  C1048  1  0.764000  0.619300  0.512000  1
  C  C1049  1  0.657500  0.100100  0.012600  1
  C  C1050  1  0.657500  0.399900  0.987400  1
  C  C1051  1  0.157500  0.100100  0.512600  1
  C  C1052  1  0.157500  0.399900  0.487400  1
  C  C1053  1  0.342500  0.899900  0.987400  1
  C  C1054  1  0.342500  0.600100  0.012600  1
  C  C1055  1  0.842500  0.899900  0.487400  1
  C  C1056  1  0.842500  0.600100  0.512600  1
  C  C1057  1  0.638000  0.064100  0.022200  1
  C  C1058  1  0.638000  0.435900  0.977800  1
  C  C1059  1  0.138000  0.064100  0.522200  1
  C  C1060  1  0.138000  0.435900  0.477800  1
  C  C1061  1  0.362000  0.935900  0.977800  1
  C  C1062  1  0.362000  0.564100  0.022200  1
  C  C1063  1  0.862000  0.935900  0.477800  1
  C  C1064  1  0.862000  0.564100  0.522200  1
  C  C1065  1  0.899000  0.116600  0.026000  1
  C  C1066  1  0.899000  0.383400  0.974000  1
  C  C1067  1  0.399000  0.116600  0.526000  1
  C  C1068  1  0.399000  0.383400  0.474000  1
  C  C1069  1  0.101000  0.883400  0.974000  1
  C  C1070  1  0.101000  0.616600  0.026000  1
  C  C1071  1  0.601000  0.883400  0.474000  1
  C  C1072  1  0.601000  0.616600  0.526000  1
  C  C1073  1  0.042000  0.109700  0.040400  1
  C  C1074  1  0.042000  0.390300  0.959600  1
  C  C1075  1  0.542000  0.109700  0.540400  1
  C  C1076  1  0.542000  0.390300  0.459600  1
  C  C1077  1  0.958000  0.890300  0.959600  1
  C  C1078  1  0.958000  0.609700  0.040400  1
  C  C1079  1  0.458000  0.890300  0.459600  1
  C  C1080  1  0.458000  0.609700  0.540400  1
  C  C1081  1  0.070000  0.145400  0.031500  1
  C  C1082  1  0.070000  0.354600  0.968500  1
  C  C1083  1  0.570000  0.145400  0.531500  1
  C  C1084  1  0.570000  0.354600  0.468500  1
  C  C1085  1  0.930000  0.854600  0.968500  1
  C  C1086  1  0.930000  0.645400  0.031500  1
  C  C1087  1  0.430000  0.854600  0.468500  1
  C  C1088  1  0.430000  0.645400  0.531500  1
  C  C1089  1  0.013000  0.167500  0.019500  1
  C  C1090  1  0.013000  0.332500  0.980500  1
  C  C1091  1  0.513000  0.167500  0.519500  1
  C  C1092  1  0.513000  0.332500  0.480500  1
  C  C1093  1  0.987000  0.832500  0.980500  1
  C  C1094  1  0.987000  0.667500  0.019500  1
  C  C1095  1  0.487000  0.832500  0.480500  1
  C  C1096  1  0.487000  0.667500  0.519500  1
  C  C1097  1  0.924000  0.152100  0.016400  1
  C  C1098  1  0.924000  0.347900  0.983600  1
  C  C1099  1  0.424000  0.152100  0.516400  1
  C  C1100  1  0.424000  0.347900  0.483600  1
  C  C1101  1  0.076000  0.847900  0.983600  1
  C  C1102  1  0.076000  0.652100  0.016400  1
  C  C1103  1  0.576000  0.847900  0.483600  1
  C  C1104  1  0.576000  0.652100  0.516400  1
  C  C1105  1  0.554000  0.004400  0.033300  1
  C  C1106  1  0.554000  0.495600  0.966700  1
  C  C1107  1  0.054000  0.004400  0.533300  1
  C  C1108  1  0.054000  0.495600  0.466700  1
  C  C1109  1  0.446000  0.995600  0.966700  1
  C  C1110  1  0.446000  0.504400  0.033300  1
  C  C1111  1  0.946000  0.995600  0.466700  1
  C  C1112  1  0.946000  0.504400  0.533300  1
  C  C1113  1  0.556000  0.037900  0.022400  1
  C  C1114  1  0.556000  0.462100  0.977600  1
  C  C1115  1  0.056000  0.037900  0.522400  1
  C  C1116  1  0.056000  0.462100  0.477600  1
  C  C1117  1  0.444000  0.962100  0.977600  1
  C  C1118  1  0.444000  0.537900  0.022400  1
  C  C1119  1  0.944000  0.962100  0.477600  1
  C  C1120  1  0.944000  0.537900  0.522400  1
  C  C1121  1  0.769000  0.157400  0.002600  1
  C  C1122  1  0.769000  0.342600  0.997400  1
  C  C1123  1  0.269000  0.157400  0.502600  1
  C  C1124  1  0.269000  0.342600  0.497400  1
  C  C1125  1  0.231000  0.842600  0.997400  1
  C  C1126  1  0.231000  0.657400  0.002600  1
  C  C1127  1  0.731000  0.842600  0.497400  1
  C  C1128  1  0.731000  0.657400  0.502600  1
  C  C1129  1  0.854000  0.170900  0.004700  1
  C  C1130  1  0.854000  0.329100  0.995300  1
  C  C1131  1  0.354000  0.170900  0.504700  1
  C  C1132  1  0.354000  0.329100  0.495300  1
  C  C1133  1  0.146000  0.829100  0.995300  1
  C  C1134  1  0.146000  0.670900  0.004700  1
  C  C1135  1  0.646000  0.829100  0.495300  1
  C  C1136  1  0.646000  0.670900  0.504700  1
  C  C1137  1  0.579700  0.121300  0.001800  1
  C  C1138  1  0.579700  0.378700  0.998200  1
  C  C1139  1  0.079700  0.121300  0.501800  1
  C  C1140  1  0.079700  0.378700  0.498200  1
  C  C1141  1  0.420300  0.878700  0.998200  1
  C  C1142  1  0.420300  0.621300  0.001800  1
  C  C1143  1  0.920300  0.878700  0.498200  1
  C  C1144  1  0.920300  0.621300  0.501800  1
  C  C1145  1  0.511000  0.144100  0.012600  1
  C  C1146  1  0.511000  0.355900  0.987400  1
  C  C1147  1  0.011000  0.144100  0.512600  1
  C  C1148  1  0.011000  0.355900  0.487400  1
  C  C1149  1  0.489000  0.855900  0.987400  1
  C  C1150  1  0.489000  0.644100  0.012600  1
  C  C1151  1  0.989000  0.855900  0.487400  1
  C  C1152  1  0.989000  0.644100  0.512600  1
  C  C1153  1  0.444000  0.166900  0.003500  1
  C  C1154  1  0.444000  0.333100  0.996500  1
  C  C1155  1  0.944000  0.166900  0.503500  1
  C  C1156  1  0.944000  0.333100  0.496500  1
  C  C1157  1  0.556000  0.833100  0.996500  1
  C  C1158  1  0.556000  0.666900  0.003500  1
  C  C1159  1  0.056000  0.833100  0.496500  1
  C  C1160  1  0.056000  0.666900  0.503500  1
  C  C1161  1  0.438000  0.164100  0.983000  1
  C  C1162  1  0.438000  0.335900  0.017000  1
  C  C1163  1  0.938000  0.164100  0.483000  1
  C  C1164  1  0.938000  0.335900  0.517000  1
  C  C1165  1  0.562000  0.835900  0.017000  1
  C  C1166  1  0.562000  0.664100  0.983000  1
  C  C1167  1  0.062000  0.835900  0.517000  1
  C  C1168  1  0.062000  0.664100  0.483000  1
  C  C1169  1  0.500000  0.141500  0.971400  1
  C  C1170  1  0.500000  0.358500  0.028600  1
  C  C1171  1  0.000000  0.141500  0.471400  1
  C  C1172  1  0.000000  0.358500  0.528600  1
  C  C1173  1  0.500000  0.858500  0.028600  1
  C  C1174  1  0.500000  0.641500  0.971400  1
  C  C1175  1  0.000000  0.858500  0.528600  1
  C  C1176  1  0.000000  0.641500  0.471400  1
  C  C1177  1  0.573500  0.119500  0.979800  1
  C  C1178  1  0.573500  0.380500  0.020200  1
  C  C1179  1  0.073500  0.119500  0.479800  1
  C  C1180  1  0.073500  0.380500  0.520200  1
  C  C1181  1  0.426500  0.880500  0.020200  1
  C  C1182  1  0.426500  0.619500  0.979800  1
  C  C1183  1  0.926500  0.880500  0.520200  1
  C  C1184  1  0.926500  0.619500  0.479800  1
  C  C1185  1  0.378000  0.193600  0.016800  1
  C  C1186  1  0.378000  0.306400  0.983200  1
  C  C1187  1  0.878000  0.193600  0.516800  1
  C  C1188  1  0.878000  0.306400  0.483200  1
  C  C1189  1  0.622000  0.806400  0.983200  1
  C  C1190  1  0.622000  0.693600  0.016800  1
  C  C1191  1  0.122000  0.806400  0.483200  1
  C  C1192  1  0.122000  0.693600  0.516800  1
  C  C1193  1  0.409000  0.218400  0.035200  1
  C  C1194  1  0.409000  0.281600  0.964800  1
  C  C1195  1  0.909000  0.218400  0.535200  1
  C  C1196  1  0.909000  0.281600  0.464800  1
  C  C1197  1  0.591000  0.781600  0.964800  1
  C  C1198  1  0.591000  0.718400  0.035200  1
  C  C1199  1  0.091000  0.781600  0.464800  1
  C  C1200  1  0.091000  0.718400  0.535200  1
  C  C1201  1  0.348000  0.246600  0.047000  1
  C  C1202  1  0.348000  0.253400  0.953000  1
  C  C1203  1  0.848000  0.246600  0.547000  1
  C  C1204  1  0.848000  0.253400  0.453000  1
  C  C1205  1  0.652000  0.753400  0.953000  1
  C  C1206  1  0.652000  0.746600  0.047000  1
  C  C1207  1  0.152000  0.753400  0.453000  1
  C  C1208  1  0.152000  0.746600  0.547000  1
  C  C1209  1  0.262000  0.250400  0.040900  1
  C  C1210  1  0.262000  0.249600  0.959100  1
  C  C1211  1  0.762000  0.250400  0.540900  1
  C  C1212  1  0.762000  0.249600  0.459100  1
  C  C1213  1  0.738000  0.749600  0.959100  1
  C  C1214  1  0.738000  0.750400  0.040900  1
  C  C1215  1  0.238000  0.749600  0.459100  1
  C  C1216  1  0.238000  0.750400  0.540900  1
  C  C1217  1  0.230000  0.228400  0.023600  1
  C  C1218  1  0.230000  0.271600  0.976400  1
  C  C1219  1  0.730000  0.228400  0.523600  1
  C  C1220  1  0.730000  0.271600  0.476400  1
  C  C1221  1  0.770000  0.771600  0.976400  1
  C  C1222  1  0.770000  0.728400  0.023600  1
  C  C1223  1  0.270000  0.771600  0.476400  1
  C  C1224  1  0.270000  0.728400  0.523600  1
  C  C1225  1  0.285000  0.200000  0.011900  1
  C  C1226  1  0.285000  0.300000  0.988100  1
  C  C1227  1  0.785000  0.200000  0.511900  1
  C  C1228  1  0.785000  0.300000  0.488100  1
  C  C1229  1  0.715000  0.800000  0.988100  1
  C  C1230  1  0.715000  0.700000  0.011900  1
  C  C1231  1  0.215000  0.800000  0.488100  1
  C  C1232  1  0.215000  0.700000  0.511900  1
  C  C1233  1  0.390200  0.273200  0.064800  1
  C  C1234  1  0.390200  0.226800  0.935200  1
  C  C1235  1  0.890200  0.273200  0.564800  1
  C  C1236  1  0.890200  0.226800  0.435200  1
  C  C1237  1  0.609800  0.726800  0.935200  1
  C  C1238  1  0.609800  0.773200  0.064800  1
  C  C1239  1  0.109800  0.726800  0.435200  1
  C  C1240  1  0.109800  0.773200  0.564800  1
  C  C1241  1  0.458500  0.258900  0.076000  1
  C  C1242  1  0.458500  0.241100  0.924000  1
  C  C1243  1  0.958500  0.258900  0.576000  1
  C  C1244  1  0.958500  0.241100  0.424000  1
  C  C1245  1  0.541500  0.741100  0.924000  1
  C  C1246  1  0.541500  0.758900  0.076000  1
  C  C1247  1  0.041500  0.741100  0.424000  1
  C  C1248  1  0.041500  0.758900  0.576000  1
  C  C1249  1  0.475000  0.323900  0.095500  1
  C  C1250  1  0.475000  0.176100  0.904500  1
  C  C1251  1  0.975000  0.323900  0.595500  1
  C  C1252  1  0.975000  0.176100  0.404500  1
  C  C1253  1  0.525000  0.676100  0.904500  1
  C  C1254  1  0.525000  0.823900  0.095500  1
  C  C1255  1  0.025000  0.676100  0.404500  1
  C  C1256  1  0.025000  0.823900  0.595500  1
  C  C1257  1  0.407000  0.342200  0.085700  1
  C  C1258  1  0.407000  0.157800  0.914300  1
  C  C1259  1  0.907000  0.342200  0.585700  1
  C  C1260  1  0.907000  0.157800  0.414300  1
  C  C1261  1  0.593000  0.657800  0.914300  1
  C  C1262  1  0.593000  0.842200  0.085700  1
  C  C1263  1  0.093000  0.657800  0.414300  1
  C  C1264  1  0.093000  0.842200  0.585700  1
  C  C1265  1  0.361300  0.317400  0.070400  1
  C  C1266  1  0.361300  0.182600  0.929600  1
  C  C1267  1  0.861300  0.317400  0.570400  1
  C  C1268  1  0.861300  0.182600  0.429600  1
  C  C1269  1  0.638700  0.682600  0.929600  1
  C  C1270  1  0.638700  0.817400  0.070400  1
  C  C1271  1  0.138700  0.682600  0.429600  1
  C  C1272  1  0.138700  0.817400  0.570400  1
  C  C1273  1  0.794000  0.278000  0.107700  1
  C  C1274  1  0.794000  0.222000  0.892300  1
  C  C1275  1  0.294000  0.278000  0.607700  1
  C  C1276  1  0.294000  0.222000  0.392300  1
  C  C1277  1  0.206000  0.722000  0.892300  1
  C  C1278  1  0.206000  0.778000  0.107700  1
  C  C1279  1  0.706000  0.722000  0.392300  1
  C  C1280  1  0.706000  0.778000  0.607700  1
  C  C1281  1  0.718000  0.322100  0.086600  1
  C  C1282  1  0.718000  0.177900  0.913400  1
  C  C1283  1  0.218000  0.322100  0.586600  1
  C  C1284  1  0.218000  0.177900  0.413400  1
  C  C1285  1  0.282000  0.677900  0.913400  1
  C  C1286  1  0.282000  0.822100  0.086600  1
  C  C1287  1  0.782000  0.677900  0.413400  1
  C  C1288  1  0.782000  0.822100  0.586600  1
  C  C1289  1  0.809000  0.338700  0.082500  1
  C  C1290  1  0.809000  0.161300  0.917500  1
  C  C1291  1  0.309000  0.338700  0.582500  1
  C  C1292  1  0.309000  0.161300  0.417500  1
  C  C1293  1  0.191000  0.661300  0.917500  1
  C  C1294  1  0.191000  0.838700  0.082500  1
  C  C1295  1  0.691000  0.661300  0.417500  1
  C  C1296  1  0.691000  0.838700  0.582500  1
  C  C1297  1  0.887000  0.324500  0.090600  1
  C  C1298  1  0.887000  0.175500  0.909400  1
  C  C1299  1  0.387000  0.324500  0.590600  1
  C  C1300  1  0.387000  0.175500  0.409400  1
  C  C1301  1  0.113000  0.675500  0.909400  1
  C  C1302  1  0.113000  0.824500  0.090600  1
  C  C1303  1  0.613000  0.675500  0.409400  1
  C  C1304  1  0.613000  0.824500  0.590600  1
  C  C1305  1  0.880000  0.293000  0.104100  1
  C  C1306  1  0.880000  0.207000  0.895900  1
  C  C1307  1  0.380000  0.293000  0.604100  1
  C  C1308  1  0.380000  0.207000  0.395900  1
  C  C1309  1  0.120000  0.707000  0.895900  1
  C  C1310  1  0.120000  0.793000  0.104100  1
  C  C1311  1  0.620000  0.707000  0.395900  1
  C  C1312  1  0.620000  0.793000  0.604100  1
  C  C1313  1  0.781300  0.245700  0.120500  1
  C  C1314  1  0.781300  0.254300  0.879500  1
  C  C1315  1  0.281300  0.245700  0.620500  1
  C  C1316  1  0.281300  0.254300  0.379500  1
  C  C1317  1  0.218700  0.754300  0.879500  1
  C  C1318  1  0.218700  0.745700  0.120500  1
  C  C1319  1  0.718700  0.754300  0.379500  1
  C  C1320  1  0.718700  0.745700  0.620500  1
  C  C1321  1  0.673000  0.201600  0.134300  1
  C  C1322  1  0.673000  0.298400  0.865700  1
  C  C1323  1  0.173000  0.201600  0.634300  1
  C  C1324  1  0.173000  0.298400  0.365700  1
  C  C1325  1  0.327000  0.798400  0.865700  1
  C  C1326  1  0.327000  0.701600  0.134300  1
  C  C1327  1  0.827000  0.798400  0.365700  1
  C  C1328  1  0.827000  0.701600  0.634300  1
  C  C1329  1  0.739000  0.180600  0.144600  1
  C  C1330  1  0.739000  0.319400  0.855400  1
  C  C1331  1  0.239000  0.180600  0.644600  1
  C  C1332  1  0.239000  0.319400  0.355400  1
  C  C1333  1  0.261000  0.819400  0.855400  1
  C  C1334  1  0.261000  0.680600  0.144600  1
  C  C1335  1  0.761000  0.819400  0.355400  1
  C  C1336  1  0.761000  0.680600  0.644600  1
  C  C1337  1  0.828300  0.195100  0.143000  1
  C  C1338  1  0.828300  0.304900  0.857000  1
  C  C1339  1  0.328300  0.195100  0.643000  1
  C  C1340  1  0.328300  0.304900  0.357000  1
  C  C1341  1  0.171700  0.804900  0.857000  1
  C  C1342  1  0.171700  0.695100  0.143000  1
  C  C1343  1  0.671700  0.804900  0.357000  1
  C  C1344  1  0.671700  0.695100  0.643000  1
  C  C1345  1  0.855000  0.225600  0.131200  1
  C  C1346  1  0.855000  0.274400  0.868800  1
  C  C1347  1  0.355000  0.225600  0.631200  1
  C  C1348  1  0.355000  0.274400  0.368800  1
  C  C1349  1  0.145000  0.774400  0.868800  1
  C  C1350  1  0.145000  0.725600  0.131200  1
  C  C1351  1  0.645000  0.774400  0.368800  1
  C  C1352  1  0.645000  0.725600  0.631200  1
  C  C1353  1  0.579600  0.193100  0.132900  1
  C  C1354  1  0.579600  0.306900  0.867100  1
  C  C1355  1  0.079600  0.193100  0.632900  1
  C  C1356  1  0.079600  0.306900  0.367100  1
  C  C1357  1  0.420400  0.806900  0.867100  1
  C  C1358  1  0.420400  0.693100  0.132900  1
  C  C1359  1  0.920400  0.806900  0.367100  1
  C  C1360  1  0.920400  0.693100  0.632900  1
  C  C1361  1  0.434000  0.203000  0.120600  1
  C  C1362  1  0.434000  0.297000  0.879400  1
  C  C1363  1  0.934000  0.203000  0.620600  1
  C  C1364  1  0.934000  0.297000  0.379400  1
  C  C1365  1  0.566000  0.797000  0.879400  1
  C  C1366  1  0.566000  0.703000  0.120600  1
  C  C1367  1  0.066000  0.797000  0.379400  1
  C  C1368  1  0.066000  0.703000  0.620600  1
  C  C1369  1  0.403000  0.172000  0.131100  1
  C  C1370  1  0.403000  0.328000  0.868900  1
  C  C1371  1  0.903000  0.172000  0.631100  1
  C  C1372  1  0.903000  0.328000  0.368900  1
  C  C1373  1  0.597000  0.828000  0.868900  1
  C  C1374  1  0.597000  0.672000  0.131100  1
  C  C1375  1  0.097000  0.828000  0.368900  1
  C  C1376  1  0.097000  0.672000  0.631100  1
  C  C1377  1  0.452000  0.149500  0.143100  1
  C  C1378  1  0.452000  0.350500  0.856900  1
  C  C1379  1  0.952000  0.149500  0.643100  1
  C  C1380  1  0.952000  0.350500  0.356900  1
  C  C1381  1  0.548000  0.850500  0.856900  1
  C  C1382  1  0.548000  0.649500  0.143100  1
  C  C1383  1  0.048000  0.850500  0.356900  1
  C  C1384  1  0.048000  0.649500  0.643100  1
  C  C1385  1  0.547000  0.158500  0.144300  1
  C  C1386  1  0.547000  0.341500  0.855700  1
  C  C1387  1  0.047000  0.158500  0.644300  1
  C  C1388  1  0.047000  0.341500  0.355700  1
  C  C1389  1  0.453000  0.841500  0.855700  1
  C  C1390  1  0.453000  0.658500  0.144300  1
  C  C1391  1  0.953000  0.841500  0.355700  1
  C  C1392  1  0.953000  0.658500  0.644300  1
  C  C1393  1  0.955700  0.275700  0.114100  1
  C  C1394  1  0.955700  0.224300  0.885900  1
  C  C1395  1  0.455700  0.275700  0.614100  1
  C  C1396  1  0.455700  0.224300  0.385900  1
  C  C1397  1  0.044300  0.724300  0.885900  1
  C  C1398  1  0.044300  0.775700  0.114100  1
  C  C1399  1  0.544300  0.724300  0.385900  1
  C  C1400  1  0.544300  0.775700  0.614100  1
  C  C1401  1  0.940000  0.244200  0.126800  1
  C  C1402  1  0.940000  0.255800  0.873200  1
  C  C1403  1  0.440000  0.244200  0.626800  1
  C  C1404  1  0.440000  0.255800  0.373200  1
  C  C1405  1  0.060000  0.755800  0.873200  1
  C  C1406  1  0.060000  0.744200  0.126800  1
  C  C1407  1  0.560000  0.755800  0.373200  1
  C  C1408  1  0.560000  0.744200  0.626800  1
  C  C1409  1  0.702000  0.147700  0.156400  1
  C  C1410  1  0.702000  0.352300  0.843600  1
  C  C1411  1  0.202000  0.147700  0.656400  1
  C  C1412  1  0.202000  0.352300  0.343600  1
  C  C1413  1  0.298000  0.852300  0.843600  1
  C  C1414  1  0.298000  0.647700  0.156400  1
  C  C1415  1  0.798000  0.852300  0.343600  1
  C  C1416  1  0.798000  0.647700  0.656400  1
  C  C1417  1  0.611000  0.136900  0.156300  1
  C  C1418  1  0.611000  0.363100  0.843700  1
  C  C1419  1  0.111000  0.136900  0.656300  1
  C  C1420  1  0.111000  0.363100  0.343700  1
  C  C1421  1  0.389000  0.863100  0.843700  1
  C  C1422  1  0.389000  0.636900  0.156300  1
  C  C1423  1  0.889000  0.863100  0.343700  1
  C  C1424  1  0.889000  0.636900  0.656300  1
  C  C1425  1  0.902700  0.172400  0.154300  1
  C  C1426  1  0.902700  0.327600  0.845700  1
  C  C1427  1  0.402700  0.172400  0.654300  1
  C  C1428  1  0.402700  0.327600  0.345700  1
  C  C1429  1  0.097300  0.827600  0.845700  1
  C  C1430  1  0.097300  0.672400  0.154300  1
  C  C1431  1  0.597300  0.827600  0.345700  1
  C  C1432  1  0.597300  0.672400  0.654300  1
  C  C1433  1  0.973000  0.149600  0.142600  1
  C  C1434  1  0.973000  0.350400  0.857400  1
  C  C1435  1  0.473000  0.149600  0.642600  1
  C  C1436  1  0.473000  0.350400  0.357400  1
  C  C1437  1  0.027000  0.850400  0.857400  1
  C  C1438  1  0.027000  0.649600  0.142600  1
  C  C1439  1  0.527000  0.850400  0.357400  1
  C  C1440  1  0.527000  0.649600  0.642600  1
  C  C1441  1  0.040000  0.127700  0.152000  1
  C  C1442  1  0.040000  0.372300  0.848000  1
  C  C1443  1  0.540000  0.127700  0.652000  1
  C  C1444  1  0.540000  0.372300  0.348000  1
  C  C1445  1  0.960000  0.872300  0.848000  1
  C  C1446  1  0.960000  0.627700  0.152000  1
  C  C1447  1  0.460000  0.872300  0.348000  1
  C  C1448  1  0.460000  0.627700  0.652000  1
  C  C1449  1  0.038000  0.129600  0.173700  1
  C  C1450  1  0.038000  0.370400  0.826300  1
  C  C1451  1  0.538000  0.129600  0.673700  1
  C  C1452  1  0.538000  0.370400  0.326300  1
  C  C1453  1  0.962000  0.870400  0.826300  1
  C  C1454  1  0.962000  0.629600  0.173700  1
  C  C1455  1  0.462000  0.870400  0.326300  1
  C  C1456  1  0.462000  0.629600  0.673700  1
  C  C1457  1  0.968000  0.151700  0.185300  1
  C  C1458  1  0.968000  0.348300  0.814700  1
  C  C1459  1  0.468000  0.151700  0.685300  1
  C  C1460  1  0.468000  0.348300  0.314700  1
  C  C1461  1  0.032000  0.848300  0.814700  1
  C  C1462  1  0.032000  0.651700  0.185300  1
  C  C1463  1  0.532000  0.848300  0.314700  1
  C  C1464  1  0.532000  0.651700  0.685300  1
  C  C1465  1  0.899500  0.173300  0.176100  1
  C  C1466  1  0.899500  0.326700  0.823900  1
  C  C1467  1  0.399500  0.173300  0.676100  1
  C  C1468  1  0.399500  0.326700  0.323900  1
  C  C1469  1  0.100500  0.826700  0.823900  1
  C  C1470  1  0.100500  0.673300  0.176100  1
  C  C1471  1  0.600500  0.826700  0.323900  1
  C  C1472  1  0.600500  0.673300  0.676100  1
  C  C1473  1  0.111000  0.102700  0.138900  1
  C  C1474  1  0.111000  0.397300  0.861100  1
  C  C1475  1  0.611000  0.102700  0.638900  1
  C  C1476  1  0.611000  0.397300  0.361100  1
  C  C1477  1  0.889000  0.897300  0.861100  1
  C  C1478  1  0.889000  0.602700  0.138900  1
  C  C1479  1  0.389000  0.897300  0.361100  1
  C  C1480  1  0.389000  0.602700  0.638900  1
  C  C1481  1  0.075300  0.077700  0.121700  1
  C  C1482  1  0.075300  0.422300  0.878300  1
  C  C1483  1  0.575300  0.077700  0.621700  1
  C  C1484  1  0.575300  0.422300  0.378300  1
  C  C1485  1  0.924700  0.922300  0.878300  1
  C  C1486  1  0.924700  0.577700  0.121700  1
  C  C1487  1  0.424700  0.922300  0.378300  1
  C  C1488  1  0.424700  0.577700  0.621700  1
  C  C1489  1  0.136000  0.050400  0.109600  1
  C  C1490  1  0.136000  0.449600  0.890400  1
  C  C1491  1  0.636000  0.050400  0.609600  1
  C  C1492  1  0.636000  0.449600  0.390400  1
  C  C1493  1  0.864000  0.949600  0.890400  1
  C  C1494  1  0.864000  0.550400  0.109600  1
  C  C1495  1  0.364000  0.949600  0.390400  1
  C  C1496  1  0.364000  0.550400  0.609600  1
  C  C1497  1  0.226600  0.047600  0.115200  1
  C  C1498  1  0.226600  0.452400  0.884800  1
  C  C1499  1  0.726600  0.047600  0.615200  1
  C  C1500  1  0.726600  0.452400  0.384800  1
  C  C1501  1  0.773400  0.952400  0.884800  1
  C  C1502  1  0.773400  0.547600  0.115200  1
  C  C1503  1  0.273400  0.952400  0.384800  1
  C  C1504  1  0.273400  0.547600  0.615200  1
  C  C1505  1  0.257500  0.072400  0.132800  1
  C  C1506  1  0.257500  0.427600  0.867200  1
  C  C1507  1  0.757500  0.072400  0.632800  1
  C  C1508  1  0.757500  0.427600  0.367200  1
  C  C1509  1  0.742500  0.927600  0.867200  1
  C  C1510  1  0.742500  0.572400  0.132800  1
  C  C1511  1  0.242500  0.927600  0.367200  1
  C  C1512  1  0.242500  0.572400  0.632800  1
  C  C1513  1  0.197200  0.098200  0.144200  1
  C  C1514  1  0.197200  0.401800  0.855800  1
  C  C1515  1  0.697200  0.098200  0.644200  1
  C  C1516  1  0.697200  0.401800  0.355800  1
  C  C1517  1  0.802800  0.901800  0.855800  1
  C  C1518  1  0.802800  0.598200  0.144200  1
  C  C1519  1  0.302800  0.901800  0.355800  1
  C  C1520  1  0.302800  0.598200  0.644200  1
  C  C1521  1  0.096500  0.023500  0.090500  1
  C  C1522  1  0.096500  0.476500  0.909500  1
  C  C1523  1  0.596500  0.023500  0.590500  1
  C  C1524  1  0.596500  0.476500  0.409500  1
  C  C1525  1  0.903500  0.976500  0.909500  1
  C  C1526  1  0.903500  0.523500  0.090500  1
  C  C1527  1  0.403500  0.976500  0.409500  1
  C  C1528  1  0.403500  0.523500  0.590500  1
  C  C1529  1  0.033000  0.040900  0.078900  1
  C  C1530  1  0.033000  0.459100  0.921100  1
  C  C1531  1  0.533000  0.040900  0.578900  1
  C  C1532  1  0.533000  0.459100  0.421100  1
  C  C1533  1  0.967000  0.959100  0.921100  1
  C  C1534  1  0.967000  0.540900  0.078900  1
  C  C1535  1  0.467000  0.959100  0.421100  1
  C  C1536  1  0.467000  0.540900  0.578900  1
  C  C1537  1  0.021000  0.976400  0.058000  1
  C  C1538  1  0.021000  0.523600  0.942000  1
  C  C1539  1  0.521000  0.976400  0.558000  1
  C  C1540  1  0.521000  0.523600  0.442000  1
  C  C1541  1  0.979000  0.023600  0.942000  1
  C  C1542  1  0.979000  0.476400  0.058000  1
  C  C1543  1  0.479000  0.023600  0.442000  1
  C  C1544  1  0.479000  0.476400  0.558000  1
  C  C1545  1  0.089000  0.957100  0.068000  1
  C  C1546  1  0.089000  0.542900  0.932000  1
  C  C1547  1  0.589000  0.957100  0.568000  1
  C  C1548  1  0.589000  0.542900  0.432000  1
  C  C1549  1  0.911000  0.042900  0.932000  1
  C  C1550  1  0.911000  0.457100  0.068000  1
  C  C1551  1  0.411000  0.042900  0.432000  1
  C  C1552  1  0.411000  0.457100  0.568000  1
  C  C1553  1  0.128900  0.981400  0.084300  1
  C  C1554  1  0.128900  0.518600  0.915700  1
  C  C1555  1  0.628900  0.981400  0.584300  1
  C  C1556  1  0.628900  0.518600  0.415700  1
  C  C1557  1  0.871100  0.018600  0.915700  1
  C  C1558  1  0.871100  0.481400  0.084300  1
  C  C1559  1  0.371100  0.018600  0.415700  1
  C  C1560  1  0.371100  0.481400  0.584300  1
  C  C1561  1  0.554000  0.065900  0.097300  1
  C  C1562  1  0.554000  0.434100  0.902700  1
  C  C1563  1  0.054000  0.065900  0.597300  1
  C  C1564  1  0.054000  0.434100  0.402700  1
  C  C1565  1  0.446000  0.934100  0.902700  1
  C  C1566  1  0.446000  0.565900  0.097300  1
  C  C1567  1  0.946000  0.934100  0.402700  1
  C  C1568  1  0.946000  0.565900  0.597300  1
  C  C1569  1  0.406500  0.096100  0.069800  1
  C  C1570  1  0.406500  0.403900  0.930200  1
  C  C1571  1  0.906500  0.096100  0.569800  1
  C  C1572  1  0.906500  0.403900  0.430200  1
  C  C1573  1  0.593500  0.903900  0.930200  1
  C  C1574  1  0.593500  0.596100  0.069800  1
  C  C1575  1  0.093500  0.903900  0.430200  1
  C  C1576  1  0.093500  0.596100  0.569800  1
  C  C1577  1  0.602000  0.228400  0.201600  1
  C  C1578  1  0.602000  0.271600  0.798400  1
  C  C1579  1  0.102000  0.228400  0.701600  1
  C  C1580  1  0.102000  0.271600  0.298400  1
  C  C1581  1  0.398000  0.771600  0.798400  1
  C  C1582  1  0.398000  0.728400  0.201600  1
  C  C1583  1  0.898000  0.771600  0.298400  1
  C  C1584  1  0.898000  0.728400  0.701600  1
  C  C1585  1  0.454000  0.244100  0.191400  1
  C  C1586  1  0.454000  0.255900  0.808600  1
  C  C1587  1  0.954000  0.244100  0.691400  1
  C  C1588  1  0.954000  0.255900  0.308600  1
  C  C1589  1  0.546000  0.755900  0.808600  1
  C  C1590  1  0.546000  0.744100  0.191400  1
  C  C1591  1  0.046000  0.755900  0.308600  1
  C  C1592  1  0.046000  0.744100  0.691400  1
  C  C1593  1  0.195000  0.237000  0.158400  1
  C  C1594  1  0.195000  0.263000  0.841600  1
  C  C1595  1  0.695000  0.237000  0.658400  1
  C  C1596  1  0.695000  0.263000  0.341600  1
  C  C1597  1  0.805000  0.763000  0.841600  1
  C  C1598  1  0.805000  0.737000  0.158400  1
  C  C1599  1  0.305000  0.763000  0.341600  1
  C  C1600  1  0.305000  0.737000  0.658400  1
  C  C1601  1  0.155000  0.229800  0.195500  1
  C  C1602  1  0.155000  0.270200  0.804500  1
  C  C1603  1  0.655000  0.229800  0.695500  1
  C  C1604  1  0.655000  0.270200  0.304500  1
  C  C1605  1  0.845000  0.770200  0.804500  1
  C  C1606  1  0.845000  0.729800  0.195500  1
  C  C1607  1  0.345000  0.770200  0.304500  1
  C  C1608  1  0.345000  0.729800  0.695500  1
  C  C1609  1  0.816000  0.179100  0.071200  1
  C  C1610  1  0.816000  0.320900  0.928800  1
  C  C1611  1  0.316000  0.179100  0.571200  1
  C  C1612  1  0.316000  0.320900  0.428800  1
  C  C1613  1  0.184000  0.820900  0.928800  1
  C  C1614  1  0.184000  0.679100  0.071200  1
  C  C1615  1  0.684000  0.820900  0.428800  1
  C  C1616  1  0.684000  0.679100  0.571200  1
  C  C1617  1  0.744000  0.197300  0.061100  1
  C  C1618  1  0.744000  0.302700  0.938900  1
  C  C1619  1  0.244000  0.197300  0.561100  1
  C  C1620  1  0.244000  0.302700  0.438900  1
  C  C1621  1  0.256000  0.802700  0.938900  1
  C  C1622  1  0.256000  0.697300  0.061100  1
  C  C1623  1  0.756000  0.802700  0.438900  1
  C  C1624  1  0.756000  0.697300  0.561100  1
  C  C1625  1  0.763400  0.231800  0.049900  1
  C  C1626  1  0.763400  0.268200  0.950100  1
  C  C1627  1  0.263400  0.231800  0.549900  1
  C  C1628  1  0.263400  0.268200  0.450100  1
  C  C1629  1  0.236600  0.768200  0.950100  1
  C  C1630  1  0.236600  0.731800  0.049900  1
  C  C1631  1  0.736600  0.768200  0.450100  1
  C  C1632  1  0.736600  0.731800  0.549900  1
  C  C1633  1  0.849800  0.247800  0.049400  1
  C  C1634  1  0.849800  0.252200  0.950600  1
  C  C1635  1  0.349800  0.247800  0.549400  1
  C  C1636  1  0.349800  0.252200  0.450600  1
  C  C1637  1  0.150200  0.752200  0.950600  1
  C  C1638  1  0.150200  0.747800  0.049400  1
  C  C1639  1  0.650200  0.752200  0.450600  1
  C  C1640  1  0.650200  0.747800  0.549400  1
  C  C1641  1  0.923500  0.229500  0.059700  1
  C  C1642  1  0.923500  0.270500  0.940300  1
  C  C1643  1  0.423500  0.229500  0.559700  1
  C  C1644  1  0.423500  0.270500  0.440300  1
  C  C1645  1  0.076500  0.770500  0.940300  1
  C  C1646  1  0.076500  0.729500  0.059700  1
  C  C1647  1  0.576500  0.770500  0.440300  1
  C  C1648  1  0.576500  0.729500  0.559700  1
  C  C1649  1  0.905000  0.195800  0.070700  1
  C  C1650  1  0.905000  0.304200  0.929300  1
  C  C1651  1  0.405000  0.195800  0.570700  1
  C  C1652  1  0.405000  0.304200  0.429300  1
  C  C1653  1  0.095000  0.804200  0.929300  1
  C  C1654  1  0.095000  0.695800  0.070700  1
  C  C1655  1  0.595000  0.804200  0.429300  1
  C  C1656  1  0.595000  0.695800  0.570700  1
  C  C1657  1  0.832000  0.334500  0.163000  1
  C  C1658  1  0.832000  0.165500  0.837000  1
  C  C1659  1  0.332000  0.334500  0.663000  1
  C  C1660  1  0.332000  0.165500  0.337000  1
  C  C1661  1  0.168000  0.665500  0.837000  1
  C  C1662  1  0.168000  0.834500  0.163000  1
  C  C1663  1  0.668000  0.665500  0.337000  1
  C  C1664  1  0.668000  0.834500  0.663000  1
  C  C1665  1  0.903000  0.355700  0.155200  1
  C  C1666  1  0.903000  0.144300  0.844800  1
  C  C1667  1  0.403000  0.355700  0.655200  1
  C  C1668  1  0.403000  0.144300  0.344800  1
  C  C1669  1  0.097000  0.644300  0.844800  1
  C  C1670  1  0.097000  0.855700  0.155200  1
  C  C1671  1  0.597000  0.644300  0.344800  1
  C  C1672  1  0.597000  0.855700  0.655200  1
  C  C1673  1  0.889000  0.382800  0.139300  1
  C  C1674  1  0.889000  0.117200  0.860700  1
  C  C1675  1  0.389000  0.382800  0.639300  1
  C  C1676  1  0.389000  0.117200  0.360700  1
  C  C1677  1  0.111000  0.617200  0.860700  1
  C  C1678  1  0.111000  0.882800  0.139300  1
  C  C1679  1  0.611000  0.617200  0.360700  1
  C  C1680  1  0.611000  0.882800  0.639300  1
  C  C1681  1  0.799000  0.387700  0.133900  1
  C  C1682  1  0.799000  0.112300  0.866100  1
  C  C1683  1  0.299000  0.387700  0.633900  1
  C  C1684  1  0.299000  0.112300  0.366100  1
  C  C1685  1  0.201000  0.612300  0.866100  1
  C  C1686  1  0.201000  0.887700  0.133900  1
  C  C1687  1  0.701000  0.612300  0.366100  1
  C  C1688  1  0.701000  0.887700  0.633900  1
  C  C1689  1  0.717000  0.365300  0.141400  1
  C  C1690  1  0.717000  0.134700  0.858600  1
  C  C1691  1  0.217000  0.365300  0.641400  1
  C  C1692  1  0.217000  0.134700  0.358600  1
  C  C1693  1  0.283000  0.634700  0.858600  1
  C  C1694  1  0.283000  0.865300  0.141400  1
  C  C1695  1  0.783000  0.634700  0.358600  1
  C  C1696  1  0.783000  0.865300  0.641400  1
  C  C1697  1  0.742000  0.339100  0.156400  1
  C  C1698  1  0.742000  0.160900  0.843600  1
  C  C1699  1  0.242000  0.339100  0.656400  1
  C  C1700  1  0.242000  0.160900  0.343600  1
  C  C1701  1  0.258000  0.660900  0.843600  1
  C  C1702  1  0.258000  0.839100  0.156400  1
  C  C1703  1  0.758000  0.660900  0.343600  1
  C  C1704  1  0.758000  0.839100  0.656400  1
  C  C1705  1  0.937900  0.015200  0.991300  1
  C  C1706  1  0.937900  0.484800  0.008700  1
  C  C1707  1  0.437900  0.015200  0.491300  1
  C  C1708  1  0.437900  0.484800  0.508700  1
  C  C1709  1  0.062100  0.984800  0.008700  1
  C  C1710  1  0.062100  0.515200  0.991300  1
  C  C1711  1  0.562100  0.984800  0.508700  1
  C  C1712  1  0.562100  0.515200  0.491300  1
  C  C1713  1  0.887800  0.978900  0.995000  1
  C  C1714  1  0.887800  0.521100  0.005000  1
  C  C1715  1  0.387800  0.978900  0.495000  1
  C  C1716  1  0.387800  0.521100  0.505000  1
  C  C1717  1  0.112200  0.021100  0.005000  1
  C  C1718  1  0.112200  0.478900  0.995000  1
  C  C1719  1  0.612200  0.021100  0.505000  1
  C  C1720  1  0.612200  0.478900  0.495000  1
  C  C1721  1  0.798200  0.974400  0.988300  1
  C  C1722  1  0.798200  0.525600  0.011700  1
  C  C1723  1  0.298200  0.974400  0.488300  1
  C  C1724  1  0.298200  0.525600  0.511700  1
  C  C1725  1  0.201800  0.025600  0.011700  1
  C  C1726  1  0.201800  0.474400  0.988300  1
  C  C1727  1  0.701800  0.025600  0.511700  1
  C  C1728  1  0.701800  0.474400  0.488300  1
  C  C1729  1  0.758800  0.006300  0.978000  1
  C  C1730  1  0.758800  0.493700  0.022000  1
  C  C1731  1  0.258800  0.006300  0.478000  1
  C  C1732  1  0.258800  0.493700  0.522000  1
  C  C1733  1  0.241200  0.993700  0.022000  1
  C  C1734  1  0.241200  0.506300  0.978000  1
  C  C1735  1  0.741200  0.993700  0.522000  1
  C  C1736  1  0.741200  0.506300  0.478000  1
  C  C1737  1  0.809000  0.042600  0.974300  1
  C  C1738  1  0.809000  0.457400  0.025700  1
  C  C1739  1  0.309000  0.042600  0.474300  1
  C  C1740  1  0.309000  0.457400  0.525700  1
  C  C1741  1  0.191000  0.957400  0.025700  1
  C  C1742  1  0.191000  0.542600  0.974300  1
  C  C1743  1  0.691000  0.957400  0.525700  1
  C  C1744  1  0.691000  0.542600  0.474300  1
  C  C1745  1  0.898000  0.047100  0.980900  1
  C  C1746  1  0.898000  0.452900  0.019100  1
  C  C1747  1  0.398000  0.047100  0.480900  1
  C  C1748  1  0.398000  0.452900  0.519100  1
  C  C1749  1  0.102000  0.952900  0.019100  1
  C  C1750  1  0.102000  0.547100  0.980900  1
  C  C1751  1  0.602000  0.952900  0.519100  1
  C  C1752  1  0.602000  0.547100  0.480900  1
  C  C1753  1  0.384600  0.353200  0.139500  1
  C  C1754  1  0.384600  0.146800  0.860500  1
  C  C1755  1  0.884600  0.353200  0.639500  1
  C  C1756  1  0.884600  0.146800  0.360500  1
  C  C1757  1  0.615400  0.646800  0.860500  1
  C  C1758  1  0.615400  0.853200  0.139500  1
  C  C1759  1  0.115400  0.646800  0.360500  1
  C  C1760  1  0.115400  0.853200  0.639500  1
  C  C1761  1  0.320200  0.334300  0.125700  1
  C  C1762  1  0.320200  0.165700  0.874300  1
  C  C1763  1  0.820200  0.334300  0.625700  1
  C  C1764  1  0.820200  0.165700  0.374300  1
  C  C1765  1  0.679800  0.665700  0.874300  1
  C  C1766  1  0.679800  0.834300  0.125700  1
  C  C1767  1  0.179800  0.665700  0.374300  1
  C  C1768  1  0.179800  0.834300  0.625700  1
  C  C1769  1  0.258800  0.360200  0.116700  1
  C  C1770  1  0.258800  0.139800  0.883300  1
  C  C1771  1  0.758800  0.360200  0.616700  1
  C  C1772  1  0.758800  0.139800  0.383300  1
  C  C1773  1  0.741200  0.639800  0.883300  1
  C  C1774  1  0.741200  0.860200  0.116700  1
  C  C1775  1  0.241200  0.639800  0.383300  1
  C  C1776  1  0.241200  0.860200  0.616700  1
  C  C1777  1  0.262000  0.405200  0.121300  1
  C  C1778  1  0.262000  0.094800  0.878700  1
  C  C1779  1  0.762000  0.405200  0.621300  1
  C  C1780  1  0.762000  0.094800  0.378700  1
  C  C1781  1  0.738000  0.594800  0.878700  1
  C  C1782  1  0.738000  0.905200  0.121300  1
  C  C1783  1  0.238000  0.594800  0.378700  1
  C  C1784  1  0.238000  0.905200  0.621300  1
  C  C1785  1  0.326000  0.424100  0.135100  1
  C  C1786  1  0.326000  0.075900  0.864900  1
  C  C1787  1  0.826000  0.424100  0.635100  1
  C  C1788  1  0.826000  0.075900  0.364900  1
  C  C1789  1  0.674000  0.575900  0.864900  1
  C  C1790  1  0.674000  0.924100  0.135100  1
  C  C1791  1  0.174000  0.575900  0.364900  1
  C  C1792  1  0.174000  0.924100  0.635100  1
  C  C1793  1  0.387000  0.398200  0.144200  1
  C  C1794  1  0.387000  0.101800  0.855800  1
  C  C1795  1  0.887000  0.398200  0.644200  1
  C  C1796  1  0.887000  0.101800  0.355800  1
  C  C1797  1  0.613000  0.601800  0.855800  1
  C  C1798  1  0.613000  0.898200  0.144200  1
  C  C1799  1  0.113000  0.601800  0.355800  1
  C  C1800  1  0.113000  0.898200  0.644200  1
  C  C1801  1  0.436000  0.375400  0.145500  1
  C  C1802  1  0.436000  0.124600  0.854500  1
  C  C1803  1  0.936000  0.375400  0.645500  1
  C  C1804  1  0.936000  0.124600  0.354500  1
  C  C1805  1  0.564000  0.624600  0.854500  1
  C  C1806  1  0.564000  0.875400  0.145500  1
  C  C1807  1  0.064000  0.624600  0.354500  1
  C  C1808  1  0.064000  0.875400  0.645500  1
  C  C1809  1  0.424000  0.330600  0.144400  1
  C  C1810  1  0.424000  0.169400  0.855600  1
  C  C1811  1  0.924000  0.330600  0.644400  1
  C  C1812  1  0.924000  0.169400  0.355600  1
  C  C1813  1  0.576000  0.669400  0.855600  1
  C  C1814  1  0.576000  0.830600  0.144400  1
  C  C1815  1  0.076000  0.669400  0.355600  1
  C  C1816  1  0.076000  0.830600  0.644400  1
  C  C1817  1  0.341000  0.312300  0.138000  1
  C  C1818  1  0.341000  0.187700  0.862000  1
  C  C1819  1  0.841000  0.312300  0.638000  1
  C  C1820  1  0.841000  0.187700  0.362000  1
  C  C1821  1  0.659000  0.687700  0.862000  1
  C  C1822  1  0.659000  0.812300  0.138000  1
  C  C1823  1  0.159000  0.687700  0.362000  1
  C  C1824  1  0.159000  0.812300  0.638000  1
  C  C1825  1  0.270000  0.338800  0.132900  1
  C  C1826  1  0.270000  0.161200  0.867100  1
  C  C1827  1  0.770000  0.338800  0.632900  1
  C  C1828  1  0.770000  0.161200  0.367100  1
  C  C1829  1  0.730000  0.661200  0.867100  1
  C  C1830  1  0.730000  0.838800  0.132900  1
  C  C1831  1  0.230000  0.661200  0.367100  1
  C  C1832  1  0.230000  0.838800  0.632900  1
  C  C1833  1  0.282000  0.383500  0.134000  1
  C  C1834  1  0.282000  0.116500  0.866000  1
  C  C1835  1  0.782000  0.383500  0.634000  1
  C  C1836  1  0.782000  0.116500  0.366000  1
  C  C1837  1  0.718000  0.616500  0.866000  1
  C  C1838  1  0.718000  0.883500  0.134000  1
  C  C1839  1  0.218000  0.616500  0.366000  1
  C  C1840  1  0.218000  0.883500  0.634000  1
  C  C1841  1  0.365000  0.401800  0.140400  1
  C  C1842  1  0.365000  0.098200  0.859600  1
  C  C1843  1  0.865000  0.401800  0.640400  1
  C  C1844  1  0.865000  0.098200  0.359600  1
  C  C1845  1  0.635000  0.598200  0.859600  1
  C  C1846  1  0.635000  0.901800  0.140400  1
  C  C1847  1  0.135000  0.598200  0.359600  1
  C  C1848  1  0.135000  0.901800  0.640400  1
  C  C1849  1  0.712300  0.488100  0.255800  1
  C  C1850  1  0.712300  0.011900  0.744200  1
  C  C1851  1  0.212300  0.488100  0.755800  1
  C  C1852  1  0.212300  0.011900  0.244200  1
  C  C1853  1  0.287700  0.511900  0.744200  1
  C  C1854  1  0.287700  0.988100  0.255800  1
  C  C1855  1  0.787700  0.511900  0.244200  1
  C  C1856  1  0.787700  0.988100  0.755800  1
  C  C1857  1  0.806600  0.491200  0.256600  1
  C  C1858  1  0.806600  0.008800  0.743400  1
  C  C1859  1  0.306600  0.491200  0.756600  1
  C  C1860  1  0.306600  0.008800  0.243400  1
  C  C1861  1  0.193400  0.508800  0.743400  1
  C  C1862  1  0.193400  0.991200  0.256600  1
  C  C1863  1  0.693400  0.508800  0.243400  1
  C  C1864  1  0.693400  0.991200  0.756600  1
  C  C1865  1  0.852200  0.516700  0.243800  1
  C  C1866  1  0.852200  0.983300  0.756200  1
  C  C1867  1  0.352200  0.516700  0.743800  1
  C  C1868  1  0.352200  0.983300  0.256200  1
  C  C1869  1  0.147800  0.483300  0.756200  1
  C  C1870  1  0.147800  0.016700  0.243800  1
  C  C1871  1  0.647800  0.483300  0.256200  1
  C  C1872  1  0.647800  0.016700  0.743800  1
  C  C1873  1  0.804000  0.539100  0.230300  1
  C  C1874  1  0.804000  0.960900  0.769700  1
  C  C1875  1  0.304000  0.539100  0.730300  1
  C  C1876  1  0.304000  0.960900  0.269700  1
  C  C1877  1  0.196000  0.460900  0.769700  1
  C  C1878  1  0.196000  0.039100  0.230300  1
  C  C1879  1  0.696000  0.460900  0.269700  1
  C  C1880  1  0.696000  0.039100  0.730300  1
  C  C1881  1  0.709000  0.536000  0.229500  1
  C  C1882  1  0.709000  0.964000  0.770500  1
  C  C1883  1  0.209000  0.536000  0.729500  1
  C  C1884  1  0.209000  0.964000  0.270500  1
  C  C1885  1  0.291000  0.464000  0.770500  1
  C  C1886  1  0.291000  0.036000  0.229500  1
  C  C1887  1  0.791000  0.464000  0.270500  1
  C  C1888  1  0.791000  0.036000  0.729500  1
  C  C1889  1  0.663700  0.510500  0.242200  1
  C  C1890  1  0.663700  0.989500  0.757800  1
  C  C1891  1  0.163700  0.510500  0.742200  1
  C  C1892  1  0.163700  0.989500  0.257800  1
  C  C1893  1  0.336300  0.489500  0.757800  1
  C  C1894  1  0.336300  0.010500  0.242200  1
  C  C1895  1  0.836300  0.489500  0.257800  1
  C  C1896  1  0.836300  0.010500  0.742200  1
  C  C1897  1  0.507500  0.457700  0.255400  1
  C  C1898  1  0.507500  0.042300  0.744600  1
  C  C1899  1  0.007500  0.457700  0.755400  1
  C  C1900  1  0.007500  0.042300  0.244600  1
  C  C1901  1  0.492500  0.542300  0.744600  1
  C  C1902  1  0.492500  0.957700  0.255400  1
  C  C1903  1  0.992500  0.542300  0.244600  1
  C  C1904  1  0.992500  0.957700  0.755400  1
  C  C1905  1  0.595700  0.472600  0.253300  1
  C  C1906  1  0.595700  0.027400  0.746700  1
  C  C1907  1  0.095700  0.472600  0.753300  1
  C  C1908  1  0.095700  0.027400  0.246700  1
  C  C1909  1  0.404300  0.527400  0.746700  1
  C  C1910  1  0.404300  0.972600  0.253300  1
  C  C1911  1  0.904300  0.527400  0.246700  1
  C  C1912  1  0.904300  0.972600  0.753300  1
  C  C1913  1  0.665800  0.457300  0.264700  1
  C  C1914  1  0.665800  0.042700  0.735300  1
  C  C1915  1  0.165800  0.457300  0.764700  1
  C  C1916  1  0.165800  0.042700  0.235300  1
  C  C1917  1  0.334200  0.542700  0.735300  1
  C  C1918  1  0.334200  0.957300  0.264700  1
  C  C1919  1  0.834200  0.542700  0.235300  1
  C  C1920  1  0.834200  0.957300  0.764700  1
  C  C1921  1  0.648000  0.427000  0.278200  1
  C  C1922  1  0.648000  0.073000  0.721800  1
  C  C1923  1  0.148000  0.427000  0.778200  1
  C  C1924  1  0.148000  0.073000  0.221800  1
  C  C1925  1  0.352000  0.573000  0.721800  1
  C  C1926  1  0.352000  0.927000  0.278200  1
  C  C1927  1  0.852000  0.573000  0.221800  1
  C  C1928  1  0.852000  0.927000  0.778200  1
  C  C1929  1  0.560000  0.412000  0.280000  1
  C  C1930  1  0.560000  0.088000  0.720000  1
  C  C1931  1  0.060000  0.412000  0.780000  1
  C  C1932  1  0.060000  0.088000  0.220000  1
  C  C1933  1  0.440000  0.588000  0.720000  1
  C  C1934  1  0.440000  0.912000  0.280000  1
  C  C1935  1  0.940000  0.588000  0.220000  1
  C  C1936  1  0.940000  0.912000  0.780000  1
  C  C1937  1  0.489000  0.427000  0.268900  1
  C  C1938  1  0.489000  0.073000  0.731100  1
  C  C1939  1  0.989000  0.427000  0.768900  1
  C  C1940  1  0.989000  0.073000  0.231100  1
  C  C1941  1  0.511000  0.573000  0.731100  1
  C  C1942  1  0.511000  0.927000  0.268900  1
  C  C1943  1  0.011000  0.573000  0.231100  1
  C  C1944  1  0.011000  0.927000  0.768900  1
  C  C1945  1  0.781900  0.619900  0.277000  1.0
  C  C1946  1  0.781900  0.880100  0.723000  1.0
  C  C1947  1  0.281900  0.619900  0.777000  1.0
  C  C1948  1  0.281900  0.880100  0.223000  1.0
  C  C1949  1  0.218100  0.380100  0.723000  1.0
  C  C1950  1  0.218100  0.119900  0.277000  1.0
  C  C1951  1  0.718100  0.380100  0.223000  1.0
  C  C1952  1  0.718100  0.119900  0.777000  1.0
  C  C1953  1  0.707000  0.656000  0.254000  1.0
  C  C1954  1  0.707000  0.844000  0.746000  1.0
  C  C1955  1  0.207000  0.656000  0.754000  1.0
  C  C1956  1  0.207000  0.844000  0.246000  1.0
  C  C1957  1  0.293000  0.344000  0.746000  1.0
  C  C1958  1  0.293000  0.156000  0.254000  1.0
  C  C1959  1  0.793000  0.344000  0.246000  1.0
  C  C1960  1  0.793000  0.156000  0.754000  1.0
  C  C1961  1  0.793000  0.673100  0.247800  1.0
  C  C1962  1  0.793000  0.826900  0.752200  1.0
  C  C1963  1  0.293000  0.673100  0.747800  1.0
  C  C1964  1  0.293000  0.826900  0.252200  1.0
  C  C1965  1  0.207000  0.326900  0.752200  1.0
  C  C1966  1  0.207000  0.173100  0.247800  1.0
  C  C1967  1  0.707000  0.326900  0.252200  1.0
  C  C1968  1  0.707000  0.173100  0.747800  1.0
  C  C1969  1  0.871000  0.661800  0.256900  1.0
  C  C1970  1  0.871000  0.838200  0.743100  1.0
  C  C1971  1  0.371000  0.661800  0.756900  1.0
  C  C1972  1  0.371000  0.838200  0.243100  1.0
  C  C1973  1  0.129000  0.338200  0.743100  1.0
  C  C1974  1  0.129000  0.161800  0.256900  1.0
  C  C1975  1  0.629000  0.338200  0.243100  1.0
  C  C1976  1  0.629000  0.161800  0.756900  1.0
  C  C1977  1  0.866000  0.632600  0.272500  1.0
  C  C1978  1  0.866000  0.867400  0.727500  1.0
  C  C1979  1  0.366000  0.632600  0.772500  1.0
  C  C1980  1  0.366000  0.867400  0.227500  1.0
  C  C1981  1  0.134000  0.367400  0.727500  1.0
  C  C1982  1  0.134000  0.132600  0.272500  1.0
  C  C1983  1  0.634000  0.367400  0.227500  1.0
  C  C1984  1  0.634000  0.132600  0.772500  1.0
  C  C1985  1  0.769700  0.589900  0.292300  1.0
  C  C1986  1  0.769700  0.910100  0.707700  1.0
  C  C1987  1  0.269700  0.589900  0.792300  1.0
  C  C1988  1  0.269700  0.910100  0.207700  1.0
  C  C1989  1  0.230300  0.410100  0.707700  1.0
  C  C1990  1  0.230300  0.089900  0.292300  1.0
  C  C1991  1  0.730300  0.410100  0.207700  1.0
  C  C1992  1  0.730300  0.089900  0.792300  1.0
  C  C1993  1  0.668000  0.553700  0.308800  1.0
  C  C1994  1  0.668000  0.946300  0.691200  1.0
  C  C1995  1  0.168000  0.553700  0.808800  1.0
  C  C1996  1  0.168000  0.946300  0.191200  1.0
  C  C1997  1  0.332000  0.446300  0.691200  1.0
  C  C1998  1  0.332000  0.053700  0.308800  1.0
  C  C1999  1  0.832000  0.446300  0.191200  1.0
  C  C2000  1  0.832000  0.053700  0.808800  1.0
  C  C2001  1  0.737400  0.535300  0.319700  1.0
  C  C2002  1  0.737400  0.964700  0.680300  1.0
  C  C2003  1  0.237400  0.535300  0.819700  1.0
  C  C2004  1  0.237400  0.964700  0.180300  1.0
  C  C2005  1  0.262600  0.464700  0.680300  1.0
  C  C2006  1  0.262600  0.035300  0.319700  1.0
  C  C2007  1  0.762600  0.464700  0.180300  1.0
  C  C2008  1  0.762600  0.035300  0.819700  1.0
  C  C2009  1  0.824800  0.546300  0.316600  1.0
  C  C2010  1  0.824800  0.953700  0.683400  1.0
  C  C2011  1  0.324800  0.546300  0.816600  1.0
  C  C2012  1  0.324800  0.953700  0.183400  1.0
  C  C2013  1  0.175200  0.453700  0.683400  1.0
  C  C2014  1  0.175200  0.046300  0.316600  1.0
  C  C2015  1  0.675200  0.453700  0.183400  1.0
  C  C2016  1  0.675200  0.046300  0.816600  1.0
  C  C2017  1  0.844000  0.573800  0.303400  1.0
  C  C2018  1  0.844000  0.926200  0.696600  1.0
  C  C2019  1  0.344000  0.573800  0.803400  1.0
  C  C2020  1  0.344000  0.926200  0.196600  1.0
  C  C2021  1  0.156000  0.426200  0.696600  1.0
  C  C2022  1  0.156000  0.073800  0.303400  1.0
  C  C2023  1  0.656000  0.426200  0.196600  1.0
  C  C2024  1  0.656000  0.073800  0.803400  1.0
  C  C2025  1  0.576000  0.544100  0.309800  1.0
  C  C2026  1  0.576000  0.955900  0.690200  1.0
  C  C2027  1  0.076000  0.544100  0.809800  1.0
  C  C2028  1  0.076000  0.955900  0.190200  1.0
  C  C2029  1  0.424000  0.455900  0.690200  1.0
  C  C2030  1  0.424000  0.044100  0.309800  1.0
  C  C2031  1  0.924000  0.455900  0.190200  1.0
  C  C2032  1  0.924000  0.044100  0.809800  1.0
  C  C2033  1  0.430000  0.558800  0.299900  1.0
  C  C2034  1  0.430000  0.941200  0.700100  1.0
  C  C2035  1  0.930000  0.558800  0.799900  1.0
  C  C2036  1  0.930000  0.941200  0.200100  1.0
  C  C2037  1  0.570000  0.441200  0.700100  1.0
  C  C2038  1  0.570000  0.058800  0.299900  1.0
  C  C2039  1  0.070000  0.441200  0.200100  1.0
  C  C2040  1  0.070000  0.058800  0.799900  1.0
  C  C2041  1  0.393000  0.531800  0.313400  1.0
  C  C2042  1  0.393000  0.968200  0.686600  1.0
  C  C2043  1  0.893000  0.531800  0.813400  1.0
  C  C2044  1  0.893000  0.968200  0.186600  1.0
  C  C2045  1  0.607000  0.468200  0.686600  1.0
  C  C2046  1  0.607000  0.031800  0.313400  1.0
  C  C2047  1  0.107000  0.468200  0.186600  1.0
  C  C2048  1  0.107000  0.031800  0.813400  1.0
  C  C2049  1  0.447000  0.510900  0.325900  1.0
  C  C2050  1  0.447000  0.989100  0.674100  1.0
  C  C2051  1  0.947000  0.510900  0.825900  1.0
  C  C2052  1  0.947000  0.989100  0.174100  1.0
  C  C2053  1  0.553000  0.489100  0.674100  1.0
  C  C2054  1  0.553000  0.010900  0.325900  1.0
  C  C2055  1  0.053000  0.489100  0.174100  1.0
  C  C2056  1  0.053000  0.010900  0.825900  1.0
  C  C2057  1  0.543000  0.516800  0.324200  1.0
  C  C2058  1  0.543000  0.983200  0.675800  1.0
  C  C2059  1  0.043000  0.516800  0.824200  1.0
  C  C2060  1  0.043000  0.983200  0.175800  1.0
  C  C2061  1  0.457000  0.483200  0.675800  1.0
  C  C2062  1  0.457000  0.016800  0.324200  1.0
  C  C2063  1  0.957000  0.483200  0.175800  1.0
  C  C2064  1  0.957000  0.016800  0.824200  1.0
  C  C2065  1  0.937000  0.619600  0.284100  1.0
  C  C2066  1  0.937000  0.880400  0.715900  1.0
  C  C2067  1  0.437000  0.619600  0.784100  1.0
  C  C2068  1  0.437000  0.880400  0.215900  1.0
  C  C2069  1  0.063000  0.380400  0.715900  1.0
  C  C2070  1  0.063000  0.119600  0.284100  1.0
  C  C2071  1  0.563000  0.380400  0.215900  1.0
  C  C2072  1  0.563000  0.119600  0.784100  1.0
  C  C2073  1  0.932500  0.592600  0.298700  1.0
  C  C2074  1  0.932500  0.907400  0.701300  1.0
  C  C2075  1  0.432500  0.592600  0.798700  1.0
  C  C2076  1  0.432500  0.907400  0.201300  1.0
  C  C2077  1  0.067500  0.407400  0.701300  1.0
  C  C2078  1  0.067500  0.092600  0.298700  1.0
  C  C2079  1  0.567500  0.407400  0.201300  1.0
  C  C2080  1  0.567500  0.092600  0.798700  1.0
  C  C2081  1  0.700000  0.504000  0.333800  1.0
  C  C2082  1  0.700000  0.996000  0.666200  1.0
  C  C2083  1  0.200000  0.504000  0.833800  1.0
  C  C2084  1  0.200000  0.996000  0.166200  1.0
  C  C2085  1  0.300000  0.496000  0.666200  1.0
  C  C2086  1  0.300000  0.004000  0.333800  1.0
  C  C2087  1  0.800000  0.496000  0.166200  1.0
  C  C2088  1  0.800000  0.004000  0.833800  1.0
  C  C2089  1  0.613000  0.495600  0.336000  1.0
  C  C2090  1  0.613000  0.004400  0.664000  1.0
  C  C2091  1  0.113000  0.495600  0.836000  1.0
  C  C2092  1  0.113000  0.004400  0.164000  1.0
  C  C2093  1  0.387000  0.504400  0.664000  1.0
  C  C2094  1  0.387000  0.995600  0.336000  1.0
  C  C2095  1  0.887000  0.504400  0.164000  1.0
  C  C2096  1  0.887000  0.995600  0.836000  1.0
  C  C2097  1  0.902600  0.526400  0.328100  1.0
  C  C2098  1  0.902600  0.973600  0.671900  1.0
  C  C2099  1  0.402600  0.526400  0.828100  1.0
  C  C2100  1  0.402600  0.973600  0.171900  1.0
  C  C2101  1  0.097400  0.473600  0.671900  1.0
  C  C2102  1  0.097400  0.026400  0.328100  1.0
  C  C2103  1  0.597400  0.473600  0.171900  1.0
  C  C2104  1  0.597400  0.026400  0.828100  1.0
  C  C2105  1  0.969200  0.502500  0.317600  1.0
  C  C2106  1  0.969200  0.997500  0.682400  1.0
  C  C2107  1  0.469200  0.502500  0.817600  1.0
  C  C2108  1  0.469200  0.997500  0.182400  1.0
  C  C2109  1  0.030800  0.497500  0.682400  1.0
  C  C2110  1  0.030800  0.002500  0.317600  1.0
  C  C2111  1  0.530800  0.497500  0.182400  1.0
  C  C2112  1  0.530800  0.002500  0.817600  1.0
  C  C2113  1  0.039500  0.481900  0.326700  1.0
  C  C2114  1  0.039500  0.018100  0.673300  1.0
  C  C2115  1  0.539500  0.481900  0.826700  1.0
  C  C2116  1  0.539500  0.018100  0.173300  1.0
  C  C2117  1  0.960500  0.518100  0.673300  1.0
  C  C2118  1  0.960500  0.981900  0.326700  1.0
  C  C2119  1  0.460500  0.518100  0.173300  1.0
  C  C2120  1  0.460500  0.981900  0.826700  1.0
  C  C2121  1  0.042700  0.485700  0.347900  1.0
  C  C2122  1  0.042700  0.014300  0.652100  1.0
  C  C2123  1  0.542700  0.485700  0.847900  1.0
  C  C2124  1  0.542700  0.014300  0.152100  1.0
  C  C2125  1  0.957300  0.514300  0.652100  1.0
  C  C2126  1  0.957300  0.985700  0.347900  1.0
  C  C2127  1  0.457300  0.514300  0.152100  1.0
  C  C2128  1  0.457300  0.985700  0.847900  1.0
  C  C2129  1  0.974000  0.509600  0.359400  1.0
  C  C2130  1  0.974000  0.990400  0.640600  1.0
  C  C2131  1  0.474000  0.509600  0.859400  1.0
  C  C2132  1  0.474000  0.990400  0.140600  1.0
  C  C2133  1  0.026000  0.490400  0.640600  1.0
  C  C2134  1  0.026000  0.009600  0.359400  1.0
  C  C2135  1  0.526000  0.490400  0.140600  1.0
  C  C2136  1  0.526000  0.009600  0.859400  1.0
  C  C2137  1  0.905000  0.528300  0.350100  1.0
  C  C2138  1  0.905000  0.971700  0.649900  1.0
  C  C2139  1  0.405000  0.528300  0.850100  1.0
  C  C2140  1  0.405000  0.971700  0.149900  1.0
  C  C2141  1  0.095000  0.471700  0.649900  1.0
  C  C2142  1  0.095000  0.028300  0.350100  1.0
  C  C2143  1  0.595000  0.471700  0.149900  1.0
  C  C2144  1  0.595000  0.028300  0.850100  1.0
  C  C2145  1  0.111200  0.455000  0.314000  1.0
  C  C2146  1  0.111200  0.045000  0.686000  1.0
  C  C2147  1  0.611200  0.455000  0.814000  1.0
  C  C2148  1  0.611200  0.045000  0.186000  1.0
  C  C2149  1  0.888800  0.545000  0.686000  1.0
  C  C2150  1  0.888800  0.955000  0.314000  1.0
  C  C2151  1  0.388800  0.545000  0.186000  1.0
  C  C2152  1  0.388800  0.955000  0.814000  1.0
  C  C2153  1  0.084300  0.430900  0.295700  1.0
  C  C2154  1  0.084300  0.069100  0.704300  1.0
  C  C2155  1  0.584300  0.430900  0.795700  1.0
  C  C2156  1  0.584300  0.069100  0.204300  1.0
  C  C2157  1  0.915700  0.569100  0.704300  1.0
  C  C2158  1  0.915700  0.930900  0.295700  1.0
  C  C2159  1  0.415700  0.569100  0.204300  1.0
  C  C2160  1  0.415700  0.930900  0.795700  1.0
  C  C2161  1  0.142000  0.405000  0.283700  1.0
  C  C2162  1  0.142000  0.095000  0.716300  1.0
  C  C2163  1  0.642000  0.405000  0.783700  1.0
  C  C2164  1  0.642000  0.095000  0.216300  1.0
  C  C2165  1  0.858000  0.595000  0.716300  1.0
  C  C2166  1  0.858000  0.905000  0.283700  1.0
  C  C2167  1  0.358000  0.595000  0.216300  1.0
  C  C2168  1  0.358000  0.905000  0.783700  1.0
  C  C2169  1  0.230500  0.403800  0.290500  1.0
  C  C2170  1  0.230500  0.096200  0.709500  1.0
  C  C2171  1  0.730500  0.403800  0.790500  1.0
  C  C2172  1  0.730500  0.096200  0.209500  1.0
  C  C2173  1  0.769500  0.596200  0.709500  1.0
  C  C2174  1  0.769500  0.903800  0.290500  1.0
  C  C2175  1  0.269500  0.596200  0.209500  1.0
  C  C2176  1  0.269500  0.903800  0.790500  1.0
  C  C2177  1  0.258400  0.427800  0.308200  1.0
  C  C2178  1  0.258400  0.072200  0.691800  1.0
  C  C2179  1  0.758400  0.427800  0.808200  1.0
  C  C2180  1  0.758400  0.072200  0.191800  1.0
  C  C2181  1  0.741600  0.572200  0.691800  1.0
  C  C2182  1  0.741600  0.927800  0.308200  1.0
  C  C2183  1  0.241600  0.572200  0.191800  1.0
  C  C2184  1  0.241600  0.927800  0.808200  1.0
  C  C2185  1  0.201000  0.454500  0.319400  1.0
  C  C2186  1  0.201000  0.045500  0.680600  1.0
  C  C2187  1  0.701000  0.454500  0.819400  1.0
  C  C2188  1  0.701000  0.045500  0.180600  1.0
  C  C2189  1  0.799000  0.545500  0.680600  1.0
  C  C2190  1  0.799000  0.954500  0.319400  1.0
  C  C2191  1  0.299000  0.545500  0.180600  1.0
  C  C2192  1  0.299000  0.954500  0.819400  1.0
  C  C2193  1  0.108100  0.378700  0.264900  1.0
  C  C2194  1  0.108100  0.121300  0.735100  1.0
  C  C2195  1  0.608100  0.378700  0.764900  1.0
  C  C2196  1  0.608100  0.121300  0.235100  1.0
  C  C2197  1  0.891900  0.621300  0.735100  1.0
  C  C2198  1  0.891900  0.878700  0.264900  1.0
  C  C2199  1  0.391900  0.621300  0.235100  1.0
  C  C2200  1  0.391900  0.878700  0.764900  1.0
  C  C2201  1  0.042100  0.394000  0.253300  1.0
  C  C2202  1  0.042100  0.106000  0.746700  1.0
  C  C2203  1  0.542100  0.394000  0.753300  1.0
  C  C2204  1  0.542100  0.106000  0.246700  1.0
  C  C2205  1  0.957900  0.606000  0.746700  1.0
  C  C2206  1  0.957900  0.894000  0.253300  1.0
  C  C2207  1  0.457900  0.606000  0.246700  1.0
  C  C2208  1  0.457900  0.894000  0.753300  1.0
  C  C2209  1  0.455800  0.667200  0.270700  1.0
  C  C2210  1  0.455800  0.832800  0.729300  1.0
  C  C2211  1  0.955800  0.667200  0.770700  1.0
  C  C2212  1  0.955800  0.832800  0.229300  1.0
  C  C2213  1  0.544200  0.332800  0.729300  1.0
  C  C2214  1  0.544200  0.167200  0.270700  1.0
  C  C2215  1  0.044200  0.332800  0.229300  1.0
  C  C2216  1  0.044200  0.167200  0.770700  1.0
  C  C2217  1  0.390000  0.685100  0.259400  1.0
  C  C2218  1  0.390000  0.814900  0.740600  1.0
  C  C2219  1  0.890000  0.685100  0.759400  1.0
  C  C2220  1  0.890000  0.814900  0.240600  1.0
  C  C2221  1  0.610000  0.314900  0.740600  1.0
  C  C2222  1  0.610000  0.185100  0.259400  1.0
  C  C2223  1  0.110000  0.314900  0.240600  1.0
  C  C2224  1  0.110000  0.185100  0.759400  1.0
  C  C2225  1  0.143200  0.338100  0.257900  1.0
  C  C2226  1  0.143200  0.161900  0.742100  1.0
  C  C2227  1  0.643200  0.338100  0.757900  1.0
  C  C2228  1  0.643200  0.161900  0.242100  1.0
  C  C2229  1  0.856800  0.661900  0.742100  1.0
  C  C2230  1  0.856800  0.838100  0.257900  1.0
  C  C2231  1  0.356800  0.661900  0.242100  1.0
  C  C2232  1  0.356800  0.838100  0.757900  1.0
  S  S2233  1  0.533700  0.099400  0.078870  1
  S  S2234  1  0.533700  0.400600  0.921130  1
  S  S2235  1  0.033700  0.099400  0.578870  1
  S  S2236  1  0.033700  0.400600  0.421130  1
  S  S2237  1  0.466300  0.900600  0.921130  1
  S  S2238  1  0.466300  0.599400  0.078870  1
  S  S2239  1  0.966300  0.900600  0.421130  1
  S  S2240  1  0.966300  0.599400  0.578870  1
  S  S2241  1  0.561200  0.271100  0.190380  1
  S  S2242  1  0.561200  0.228900  0.809620  1
  S  S2243  1  0.061200  0.271100  0.690380  1
  S  S2244  1  0.061200  0.228900  0.309620  1
  S  S2245  1  0.438800  0.728900  0.809620  1
  S  S2246  1  0.438800  0.771100  0.190380  1
  S  S2247  1  0.938800  0.728900  0.309620  1
  S  S2248  1  0.938800  0.771100  0.690380  1
  S  S2249  1  0.099300  0.246400  0.173610  1
  S  S2250  1  0.099300  0.253600  0.826390  1
  S  S2251  1  0.599300  0.246400  0.673610  1
  S  S2252  1  0.599300  0.253600  0.326390  1
  S  S2253  1  0.900700  0.753600  0.826390  1
  S  S2254  1  0.900700  0.746400  0.173610  1
  S  S2255  1  0.400700  0.753600  0.326390  1
  S  S2256  1  0.400700  0.746400  0.673610  1
  I  I2257  1  0.793020  0.126760  0.087830  1
  I  I2258  1  0.793020  0.373240  0.912170  1
  I  I2259  1  0.293020  0.126760  0.587830  1
  I  I2260  1  0.293020  0.373240  0.412170  1
  I  I2261  1  0.206980  0.873240  0.912170  1
  I  I2262  1  0.206980  0.626760  0.087830  1
  I  I2263  1  0.706980  0.873240  0.412170  1
  I  I2264  1  0.706980  0.626760  0.587830  1
  I  I2265  1  0.660150  0.261990  0.034960  1
  I  I2266  1  0.660150  0.238010  0.965040  1
  I  I2267  1  0.160150  0.261990  0.534960  1
  I  I2268  1  0.160150  0.238010  0.465040  1
  I  I2269  1  0.339850  0.738010  0.965040  1
  I  I2270  1  0.339850  0.761990  0.034960  1
  I  I2271  1  0.839850  0.738010  0.465040  1
  I  I2272  1  0.839850  0.761990  0.534960  1
  I  I2273  1  0.851640  0.293600  0.185630  1
  I  I2274  1  0.851640  0.206400  0.814370  1
  I  I2275  1  0.351640  0.293600  0.685630  1
  I  I2276  1  0.351640  0.206400  0.314370  1
  I  I2277  1  0.148360  0.706400  0.814370  1
  I  I2278  1  0.148360  0.793600  0.185630  1
  I  I2279  1  0.648360  0.706400  0.314370  1
  I  I2280  1  0.648360  0.793600  0.685630  1
  I  I2281  1  0.990020  0.414370  0.126500  1
  I  I2282  1  0.990020  0.085630  0.873500  1
  I  I2283  1  0.490020  0.414370  0.626500  1
  I  I2284  1  0.490020  0.085630  0.373500  1
  I  I2285  1  0.009980  0.585630  0.873500  1
  I  I2286  1  0.009980  0.914370  0.126500  1
  I  I2287  1  0.509980  0.585630  0.373500  1
  I  I2288  1  0.509980  0.914370  0.626500  1
  I  I2289  1  0.477900  0.314300  0.153010  1
  I  I2290  1  0.477900  0.185700  0.846990  1
  I  I2291  1  0.977900  0.314300  0.653010  1
  I  I2292  1  0.977900  0.185700  0.346990  1
  I  I2293  1  0.522100  0.685700  0.846990  1
  I  I2294  1  0.522100  0.814300  0.153010  1
  I  I2295  1  0.022100  0.685700  0.346990  1
  I  I2296  1  0.022100  0.814300  0.653010  1
  I  I2297  1  0.163400  0.332100  0.095680  1
  I  I2298  1  0.163400  0.167900  0.904320  1
  I  I2299  1  0.663400  0.332100  0.595680  1
  I  I2300  1  0.663400  0.167900  0.404320  1
  I  I2301  1  0.836600  0.667900  0.904320  1
  I  I2302  1  0.836600  0.832100  0.095680  1
  I  I2303  1  0.336600  0.667900  0.404320  1
  I  I2304  1  0.336600  0.832100  0.595680  1
  I  I2305  1  0.074500  0.019770  0.001450  1
  I  I2306  1  0.074500  0.480230  0.998550  1
  I  I2307  1  0.574500  0.019770  0.501450  1
  I  I2308  1  0.574500  0.480230  0.498550  1
  I  I2309  1  0.925500  0.980230  0.998550  1
  I  I2310  1  0.925500  0.519770  0.001450  1
  I  I2311  1  0.425500  0.980230  0.498550  1
  I  I2312  1  0.425500  0.519770  0.501450  1
  I  I2313  1  0.716800  0.922920  0.993260  1
  I  I2314  1  0.716800  0.577080  0.006740  1
  I  I2315  1  0.216800  0.922920  0.493260  1
  I  I2316  1  0.216800  0.577080  0.506740  1
  I  I2317  1  0.283200  0.077080  0.006740  1
  I  I2318  1  0.283200  0.422920  0.993260  1
  I  I2319  1  0.783200  0.077080  0.506740  1
  I  I2320  1  0.783200  0.422920  0.493260  1
  I  I2321  1  0.648500  0.448000  0.275910  1
  I  I2322  1  0.648500  0.052000  0.724090  1
  I  I2323  1  0.148500  0.448000  0.775910  1
  I  I2324  1  0.148500  0.052000  0.224090  1
  I  I2325  1  0.351500  0.552000  0.724090  1
  I  I2326  1  0.351500  0.948000  0.275910  1
  I  I2327  1  0.851500  0.552000  0.224090  1
  I  I2328  1  0.851500  0.948000  0.775910  1
  I  I2329  1  0.991200  0.525400  0.243160  1
  I  I2330  1  0.991200  0.974600  0.756840  1
  I  I2331  1  0.491200  0.525400  0.743160  1
  I  I2332  1  0.491200  0.974600  0.256840  1
  I  I2333  1  0.008800  0.474600  0.756840  1
  I  I2334  1  0.008800  0.025400  0.243160  1
  I  I2335  1  0.508800  0.474600  0.256840  1
  I  I2336  1  0.508800  0.025400  0.743160  1
  I  I2337  1  0.398700  0.479400  0.238700  1
  I  I2338  1  0.398700  0.020600  0.761300  1
  I  I2339  1  0.898700  0.479400  0.738700  1
  I  I2340  1  0.898700  0.020600  0.261300  1
  I  I2341  1  0.601300  0.520600  0.761300  1
  I  I2342  1  0.601300  0.979400  0.238700  1
  I  I2343  1  0.101300  0.520600  0.261300  1
  I  I2344  1  0.101300  0.979400  0.738700  1
  I  I2345  1  0.800100  0.478600  0.262100  1
  I  I2346  1  0.800100  0.021400  0.737900  1
  I  I2347  1  0.300100  0.478600  0.762100  1
  I  I2348  1  0.300100  0.021400  0.237900  1
  I  I2349  1  0.199900  0.521400  0.737900  1
  I  I2350  1  0.199900  0.978600  0.262100  1
  I  I2351  1  0.699900  0.521400  0.237900  1
  I  I2352  1  0.699900  0.978600  0.762100  1
  N  N2353  1  0.790300  0.999900  0.052100  1
  N  N2354  1  0.790300  0.500100  0.947900  1
  N  N2355  1  0.290300  0.999900  0.552100  1
  N  N2356  1  0.290300  0.500100  0.447900  1
  N  N2357  1  0.209700  0.000100  0.947900  1
  N  N2358  1  0.209700  0.499900  0.052100  1
  N  N2359  1  0.709700  0.000100  0.447900  1
  N  N2360  1  0.709700  0.499900  0.552100  1
  N  N2361  1  0.795900  0.067400  0.033100  1
  N  N2362  1  0.795900  0.432600  0.966900  1
  N  N2363  1  0.295900  0.067400  0.533100  1
  N  N2364  1  0.295900  0.432600  0.466900  1
  N  N2365  1  0.204100  0.932600  0.966900  1
  N  N2366  1  0.204100  0.567400  0.033100  1
  N  N2367  1  0.704100  0.932600  0.466900  1
  N  N2368  1  0.704100  0.567400  0.533100  1
  N  N2369  1  0.957000  0.095400  0.037900  1
  N  N2370  1  0.957000  0.404600  0.962100  1
  N  N2371  1  0.457000  0.095400  0.537900  1
  N  N2372  1  0.457000  0.404600  0.462100  1
  N  N2373  1  0.043000  0.904600  0.962100  1
  N  N2374  1  0.043000  0.595400  0.037900  1
  N  N2375  1  0.543000  0.904600  0.462100  1
  N  N2376  1  0.543000  0.595400  0.537900  1
  N  N2377  1  0.502500  0.282200  0.091000  1
  N  N2378  1  0.502500  0.217800  0.909000  1
  N  N2379  1  0.002500  0.282200  0.591000  1
  N  N2380  1  0.002500  0.217800  0.409000  1
  N  N2381  1  0.497500  0.717800  0.909000  1
  N  N2382  1  0.497500  0.782200  0.091000  1
  N  N2383  1  0.997500  0.717800  0.409000  1
  N  N2384  1  0.997500  0.782200  0.591000  1
  N  N2385  1  0.713900  0.290900  0.099200  1
  N  N2386  1  0.713900  0.209100  0.900800  1
  N  N2387  1  0.213900  0.290900  0.599200  1
  N  N2388  1  0.213900  0.209100  0.400800  1
  N  N2389  1  0.286100  0.709100  0.900800  1
  N  N2390  1  0.286100  0.790900  0.099200  1
  N  N2391  1  0.786100  0.709100  0.400800  1
  N  N2392  1  0.786100  0.790900  0.599200  1
  N  N2393  1  0.694100  0.233600  0.122800  1
  N  N2394  1  0.694100  0.266400  0.877200  1
  N  N2395  1  0.194100  0.233600  0.622800  1
  N  N2396  1  0.194100  0.266400  0.377200  1
  N  N2397  1  0.305900  0.766400  0.877200  1
  N  N2398  1  0.305900  0.733600  0.122800  1
  N  N2399  1  0.805900  0.766400  0.377200  1
  N  N2400  1  0.805900  0.733600  0.622800  1
  N  N2401  1  0.523100  0.214500  0.121200  1
  N  N2402  1  0.523100  0.285500  0.878800  1
  N  N2403  1  0.023100  0.214500  0.621200  1
  N  N2404  1  0.023100  0.285500  0.378800  1
  N  N2405  1  0.476900  0.785500  0.878800  1
  N  N2406  1  0.476900  0.714500  0.121200  1
  N  N2407  1  0.976900  0.785500  0.378800  1
  N  N2408  1  0.976900  0.714500  0.621200  1
  N  N2409  1  0.990000  0.019000  0.062900  1
  N  N2410  1  0.990000  0.481000  0.937100  1
  N  N2411  1  0.490000  0.019000  0.562900  1
  N  N2412  1  0.490000  0.481000  0.437100  1
  N  N2413  1  0.010000  0.981000  0.937100  1
  N  N2414  1  0.010000  0.519000  0.062900  1
  N  N2415  1  0.510000  0.981000  0.437100  1
  N  N2416  1  0.510000  0.519000  0.562900  1
  N  N2417  1  0.699600  0.629900  0.268300  1.0
  N  N2418  1  0.699600  0.870100  0.731700  1.0
  N  N2419  1  0.199600  0.629900  0.768300  1.0
  N  N2420  1  0.199600  0.870100  0.231700  1.0
  N  N2421  1  0.300400  0.370100  0.731700  1.0
  N  N2422  1  0.300400  0.129900  0.268300  1.0
  N  N2423  1  0.800400  0.370100  0.231700  1.0
  N  N2424  1  0.800400  0.129900  0.768300  1.0
  N  N2425  1  0.686800  0.580600  0.295500  1.0
  N  N2426  1  0.686800  0.919400  0.704500  1.0
  N  N2427  1  0.186800  0.580600  0.795500  1.0
  N  N2428  1  0.186800  0.919400  0.204500  1.0
  N  N2429  1  0.313200  0.419400  0.704500  1.0
  N  N2430  1  0.313200  0.080600  0.295500  1.0
  N  N2431  1  0.813200  0.419400  0.204500  1.0
  N  N2432  1  0.813200  0.080600  0.795500  1.0
  N  N2433  1  0.515100  0.567000  0.298300  1.0
  N  N2434  1  0.515100  0.933000  0.701700  1.0
  N  N2435  1  0.015100  0.567000  0.798300  1.0
  N  N2436  1  0.015100  0.933000  0.201700  1.0
  N  N2437  1  0.484900  0.433000  0.701700  1.0
  N  N2438  1  0.484900  0.067000  0.298300  1.0
  N  N2439  1  0.984900  0.433000  0.201700  1.0
  N  N2440  1  0.984900  0.067000  0.798300  1.0
  N  N2441  1  0.492100  0.627200  0.264100  1.0
  N  N2442  1  0.492100  0.872800  0.735900  1.0
  N  N2443  1  0.992100  0.627200  0.764100  1.0
  N  N2444  1  0.992100  0.872800  0.235900  1.0
  N  N2445  1  0.507900  0.372800  0.735900  1.0
  N  N2446  1  0.507900  0.127200  0.264100  1.0
  N  N2447  1  0.007900  0.372800  0.235900  1.0
  N  N2448  1  0.007900  0.127200  0.764100  1.0
  O  O2449  1  0.552500  0.143000  0.084400  1
  O  O2450  1  0.552500  0.357000  0.915600  1
  O  O2451  1  0.052500  0.143000  0.584400  1
  O  O2452  1  0.052500  0.357000  0.415600  1
  O  O2453  1  0.447500  0.857000  0.915600  1
  O  O2454  1  0.447500  0.643000  0.084400  1
  O  O2455  1  0.947500  0.857000  0.415600  1
  O  O2456  1  0.947500  0.643000  0.584400  1
  O  O2457  1  0.587800  0.263200  0.168600  1
  O  O2458  1  0.587800  0.236800  0.831400  1
  O  O2459  1  0.087800  0.263200  0.668600  1
  O  O2460  1  0.087800  0.236800  0.331400  1
  O  O2461  1  0.412200  0.736800  0.831400  1
  O  O2462  1  0.412200  0.763200  0.168600  1
  O  O2463  1  0.912200  0.736800  0.331400  1
  O  O2464  1  0.912200  0.763200  0.668600  1
  O  O2465  1  0.104000  0.295800  0.179200  1
  O  O2466  1  0.104000  0.204200  0.820800  1
  O  O2467  1  0.604000  0.295800  0.679200  1
  O  O2468  1  0.604000  0.204200  0.320800  1
  O  O2469  1  0.896000  0.704200  0.820800  1
  O  O2470  1  0.896000  0.795800  0.179200  1
  O  O2471  1  0.396000  0.704200  0.320800  1
  O  O2472  1  0.396000  0.795800  0.679200  1
  O  O2473  1  0.656300  0.184300  0.060600  1
  O  O2474  1  0.656300  0.315700  0.939400  1
  O  O2475  1  0.156300  0.184300  0.560600  1
  O  O2476  1  0.156300  0.315700  0.439400  1
  O  O2477  1  0.343700  0.815700  0.939400  1
  O  O2478  1  0.343700  0.684300  0.060600  1
  O  O2479  1  0.843700  0.815700  0.439400  1
  O  O2480  1  0.843700  0.684300  0.560600  1
  O  O2481  1  0.992600  0.352300  0.162100  1
  O  O2482  1  0.992600  0.147700  0.837900  1
  O  O2483  1  0.492600  0.352300  0.662100  1
  O  O2484  1  0.492600  0.147700  0.337900  1
  O  O2485  1  0.007400  0.647700  0.837900  1
  O  O2486  1  0.007400  0.852300  0.162100  1
  O  O2487  1  0.507400  0.647700  0.337900  1
  O  O2488  1  0.507400  0.852300  0.662100  1
  O  O2489  1  0.318900  0.288500  0.120600  1
  O  O2490  1  0.318900  0.211500  0.879400  1
  O  O2491  1  0.818900  0.288500  0.620600  1
  O  O2492  1  0.818900  0.211500  0.379400  1
  O  O2493  1  0.681100  0.711500  0.879400  1
  O  O2494  1  0.681100  0.788500  0.120600  1
  O  O2495  1  0.181100  0.711500  0.379400  1
  O  O2496  1  0.181100  0.788500  0.620600  1
  O  O2497  1  0.924700  0.944300  0.005800  1
  O  O2498  1  0.924700  0.555700  0.994200  1
  O  O2499  1  0.424700  0.944300  0.505800  1
  O  O2500  1  0.424700  0.555700  0.494200  1
  O  O2501  1  0.075300  0.055700  0.994200  1
  O  O2502  1  0.075300  0.444300  0.005800  1
  O  O2503  1  0.575300  0.055700  0.494200  1
  O  O2504  1  0.575300  0.444300  0.505800  1
  O  O2505  1  0.860200  0.470200  0.269700  1
  O  O2506  1  0.860200  0.029800  0.730300  1
  O  O2507  1  0.360200  0.470200  0.769700  1
  O  O2508  1  0.360200  0.029800  0.230300  1
  O  O2509  1  0.139800  0.529800  0.730300  1
  O  O2510  1  0.139800  0.970200  0.269700  1
  O  O2511  1  0.639800  0.529800  0.230300  1
  O  O2512  1  0.639800  0.970200  0.769700  1
  O  O2513  1  0.614000  0.503000  0.239700  1
  O  O2514  1  0.614000  0.997000  0.760300  1
  O  O2515  1  0.114000  0.503000  0.739700  1
  O  O2516  1  0.114000  0.997000  0.260300  1
  O  O2517  1  0.386000  0.497000  0.760300  1
  O  O2518  1  0.386000  0.003000  0.239700  1
  O  O2519  1  0.886000  0.497000  0.260300  1
  O  O2520  1  0.886000  0.003000  0.739700  1
  F  F2521  1  0.831000  0.032700  0.099800  1
  F  F2522  1  0.831000  0.467300  0.900200  1
  F  F2523  1  0.331000  0.032700  0.599800  1
  F  F2524  1  0.331000  0.467300  0.400200  1
  F  F2525  1  0.169000  0.967300  0.900200  1
  F  F2526  1  0.169000  0.532700  0.099800  1
  F  F2527  1  0.669000  0.967300  0.400200  1
  F  F2528  1  0.669000  0.532700  0.599800  1
  F  F2529  1  0.712700  0.994100  0.109300  1
  F  F2530  1  0.712700  0.505900  0.890700  1
  F  F2531  1  0.212700  0.994100  0.609300  1
  F  F2532  1  0.212700  0.505900  0.390700  1
  F  F2533  1  0.287300  0.005900  0.890700  1
  F  F2534  1  0.287300  0.494100  0.109300  1
  F  F2535  1  0.787300  0.005900  0.390700  1
  F  F2536  1  0.787300  0.494100  0.609300  1
  F  F2537  1  0.851200  0.968700  0.108800  1
  F  F2538  1  0.851200  0.531300  0.891200  1
  F  F2539  1  0.351200  0.968700  0.608800  1
  F  F2540  1  0.351200  0.531300  0.391200  1
  F  F2541  1  0.148800  0.031300  0.891200  1
  F  F2542  1  0.148800  0.468700  0.108800  1
  F  F2543  1  0.648800  0.031300  0.391200  1
  F  F2544  1  0.648800  0.468700  0.608800  1
  F  F2545  1  0.894600  0.025600  0.129500  1
  F  F2546  1  0.894600  0.474400  0.870500  1
  F  F2547  1  0.394600  0.025600  0.629500  1
  F  F2548  1  0.394600  0.474400  0.370500  1
  F  F2549  1  0.105400  0.974400  0.870500  1
  F  F2550  1  0.105400  0.525600  0.129500  1
  F  F2551  1  0.605400  0.974400  0.370500  1
  F  F2552  1  0.605400  0.525600  0.629500  1
  F  F2553  1  0.787600  0.987000  0.138600  1
  F  F2554  1  0.787600  0.513000  0.861400  1
  F  F2555  1  0.287600  0.987000  0.638600  1
  F  F2556  1  0.287600  0.513000  0.361400  1
  F  F2557  1  0.212400  0.013000  0.861400  1
  F  F2558  1  0.212400  0.487000  0.138600  1
  F  F2559  1  0.712400  0.013000  0.361400  1
  F  F2560  1  0.712400  0.487000  0.638600  1
  F  F2561  1  0.753000  0.053400  0.128400  1
  F  F2562  1  0.753000  0.446600  0.871600  1
  F  F2563  1  0.253000  0.053400  0.628400  1
  F  F2564  1  0.253000  0.446600  0.371600  1
  F  F2565  1  0.247000  0.946600  0.871600  1
  F  F2566  1  0.247000  0.553400  0.128400  1
  F  F2567  1  0.747000  0.946600  0.371600  1
  F  F2568  1  0.747000  0.553400  0.628400  1
  F  F2569  1  0.234500  0.147700  0.101100  1
  F  F2570  1  0.234500  0.352300  0.898900  1
  F  F2571  1  0.734500  0.147700  0.601100  1
  F  F2572  1  0.734500  0.352300  0.398900  1
  F  F2573  1  0.765500  0.852300  0.898900  1
  F  F2574  1  0.765500  0.647700  0.101100  1
  F  F2575  1  0.265500  0.852300  0.398900  1
  F  F2576  1  0.265500  0.647700  0.601100  1
  F  F2577  1  0.211800  0.161300  0.068400  1
  F  F2578  1  0.211800  0.338700  0.931600  1
  F  F2579  1  0.711800  0.161300  0.568400  1
  F  F2580  1  0.711800  0.338700  0.431600  1
  F  F2581  1  0.788200  0.838700  0.931600  1
  F  F2582  1  0.788200  0.661300  0.068400  1
  F  F2583  1  0.288200  0.838700  0.431600  1
  F  F2584  1  0.288200  0.661300  0.568400  1
  F  F2585  1  0.259200  0.214000  0.091300  1
  F  F2586  1  0.259200  0.286000  0.908700  1
  F  F2587  1  0.759200  0.214000  0.591300  1
  F  F2588  1  0.759200  0.286000  0.408700  1
  F  F2589  1  0.740800  0.786000  0.908700  1
  F  F2590  1  0.740800  0.714000  0.091300  1
  F  F2591  1  0.240800  0.786000  0.408700  1
  F  F2592  1  0.240800  0.714000  0.591300  1
  F  F2593  1  0.125200  0.215800  0.078700  1
  F  F2594  1  0.125200  0.284200  0.921300  1
  F  F2595  1  0.625200  0.215800  0.578700  1
  F  F2596  1  0.625200  0.284200  0.421300  1
  F  F2597  1  0.874800  0.784200  0.921300  1
  F  F2598  1  0.874800  0.715800  0.078700  1
  F  F2599  1  0.374800  0.784200  0.421300  1
  F  F2600  1  0.374800  0.715800  0.578700  1
  F  F2601  1  0.092500  0.151800  0.088000  1
  F  F2602  1  0.092500  0.348200  0.912000  1
  F  F2603  1  0.592500  0.151800  0.588000  1
  F  F2604  1  0.592500  0.348200  0.412000  1
  F  F2605  1  0.907500  0.848200  0.912000  1
  F  F2606  1  0.907500  0.651800  0.088000  1
  F  F2607  1  0.407500  0.848200  0.412000  1
  F  F2608  1  0.407500  0.651800  0.588000  1
  F  F2609  1  0.139100  0.204000  0.110500  1
  F  F2610  1  0.139100  0.296000  0.889500  1
  F  F2611  1  0.639100  0.204000  0.610500  1
  F  F2612  1  0.639100  0.296000  0.389500  1
  F  F2613  1  0.860900  0.796000  0.889500  1
  F  F2614  1  0.860900  0.704000  0.110500  1
  F  F2615  1  0.360900  0.796000  0.389500  1
  F  F2616  1  0.360900  0.704000  0.610500  1
  F  F2617  1  0.487800  0.947100  0.088900  1
  F  F2618  1  0.487800  0.552900  0.911100  1
  F  F2619  1  0.987800  0.947100  0.588900  1
  F  F2620  1  0.987800  0.552900  0.411100  1
  F  F2621  1  0.512200  0.052900  0.911100  1
  F  F2622  1  0.512200  0.447100  0.088900  1
  F  F2623  1  0.012200  0.052900  0.411100  1
  F  F2624  1  0.012200  0.447100  0.588900  1
  F  F2625  1  0.417000  0.955800  0.060100  1
  F  F2626  1  0.417000  0.544200  0.939900  1
  F  F2627  1  0.917000  0.955800  0.560100  1
  F  F2628  1  0.917000  0.544200  0.439900  1
  F  F2629  1  0.583000  0.044200  0.939900  1
  F  F2630  1  0.583000  0.455800  0.060100  1
  F  F2631  1  0.083000  0.044200  0.439900  1
  F  F2632  1  0.083000  0.455800  0.560100  1
  F  F2633  1  0.422500  0.894500  0.072100  1
  F  F2634  1  0.422500  0.605500  0.927900  1
  F  F2635  1  0.922500  0.894500  0.572100  1
  F  F2636  1  0.922500  0.605500  0.427900  1
  F  F2637  1  0.577500  0.105500  0.927900  1
  F  F2638  1  0.577500  0.394500  0.072100  1
  F  F2639  1  0.077500  0.105500  0.427900  1
  F  F2640  1  0.077500  0.394500  0.572100  1
  F  F2641  1  0.348200  0.927700  0.100000  1
  F  F2642  1  0.348200  0.572300  0.900000  1
  F  F2643  1  0.848200  0.927700  0.600000  1
  F  F2644  1  0.848200  0.572300  0.400000  1
  F  F2645  1  0.651800  0.072300  0.900000  1
  F  F2646  1  0.651800  0.427700  0.100000  1
  F  F2647  1  0.151800  0.072300  0.400000  1
  F  F2648  1  0.151800  0.427700  0.600000  1
  F  F2649  1  0.366500  0.985300  0.087500  1
  F  F2650  1  0.366500  0.514700  0.912500  1
  F  F2651  1  0.866500  0.985300  0.587500  1
  F  F2652  1  0.866500  0.514700  0.412500  1
  F  F2653  1  0.633500  0.014700  0.912500  1
  F  F2654  1  0.633500  0.485300  0.087500  1
  F  F2655  1  0.133500  0.014700  0.412500  1
  F  F2656  1  0.133500  0.485300  0.587500  1
  F  F2657  1  0.295100  0.926100  0.069900  1
  F  F2658  1  0.295100  0.573900  0.930100  1
  F  F2659  1  0.795100  0.926100  0.569900  1
  F  F2660  1  0.795100  0.573900  0.430100  1
  F  F2661  1  0.704900  0.073900  0.930100  1
  F  F2662  1  0.704900  0.426100  0.069900  1
  F  F2663  1  0.204900  0.073900  0.430100  1
  F  F2664  1  0.204900  0.426100  0.569900  1
  F  F2665  1  0.940100  0.807000  0.025100  1
  F  F2666  1  0.940100  0.693000  0.974900  1
  F  F2667  1  0.440100  0.807000  0.525100  1
  F  F2668  1  0.440100  0.693000  0.474900  1
  F  F2669  1  0.059900  0.193000  0.974900  1
  F  F2670  1  0.059900  0.307000  0.025100  1
  F  F2671  1  0.559900  0.193000  0.474900  1
  F  F2672  1  0.559900  0.307000  0.525100  1
  F  F2673  1  0.941000  0.879700  0.025800  1
  F  F2674  1  0.941000  0.620300  0.974200  1
  F  F2675  1  0.441000  0.879700  0.525800  1
  F  F2676  1  0.441000  0.620300  0.474200  1
  F  F2677  1  0.059000  0.120300  0.974200  1
  F  F2678  1  0.059000  0.379700  0.025800  1
  F  F2679  1  0.559000  0.120300  0.474200  1
  F  F2680  1  0.559000  0.379700  0.525800  1
  F  F2681  1  0.927000  0.884400  0.059800  1
  F  F2682  1  0.927000  0.615600  0.940200  1
  F  F2683  1  0.427000  0.884400  0.559800  1
  F  F2684  1  0.427000  0.615600  0.440200  1
  F  F2685  1  0.073000  0.115600  0.940200  1
  F  F2686  1  0.073000  0.384400  0.059800  1
  F  F2687  1  0.573000  0.115600  0.440200  1
  F  F2688  1  0.573000  0.384400  0.559800  1
  F  F2689  1  0.930000  0.813000  0.057700  1
  F  F2690  1  0.930000  0.687000  0.942300  1
  F  F2691  1  0.430000  0.813000  0.557700  1
  F  F2692  1  0.430000  0.687000  0.442300  1
  F  F2693  1  0.070000  0.187000  0.942300  1
  F  F2694  1  0.070000  0.313000  0.057700  1
  F  F2695  1  0.570000  0.187000  0.442300  1
  F  F2696  1  0.570000  0.313000  0.557700  1
  F  F2697  1  0.040100  0.847800  0.044600  1
  F  F2698  1  0.040100  0.652200  0.955400  1
  F  F2699  1  0.540100  0.847800  0.544600  1
  F  F2700  1  0.540100  0.652200  0.455400  1
  F  F2701  1  0.959900  0.152200  0.955400  1
  F  F2702  1  0.959900  0.347800  0.044600  1
  F  F2703  1  0.459900  0.152200  0.455400  1
  F  F2704  1  0.459900  0.347800  0.544600  1
  F  F2705  1  0.828100  0.846600  0.039500  1
  F  F2706  1  0.828100  0.653400  0.960500  1
  F  F2707  1  0.328100  0.846600  0.539500  1
  F  F2708  1  0.328100  0.653400  0.460500  1
  F  F2709  1  0.171900  0.153400  0.960500  1
  F  F2710  1  0.171900  0.346600  0.039500  1
  F  F2711  1  0.671900  0.153400  0.460500  1
  F  F2712  1  0.671900  0.346600  0.539500  1
  F  F2713  1  0.852500  0.186500  0.227400  1
  F  F2714  1  0.852500  0.313500  0.772600  1
  F  F2715  1  0.352500  0.186500  0.727400  1
  F  F2716  1  0.352500  0.313500  0.272600  1
  F  F2717  1  0.147500  0.813500  0.772600  1
  F  F2718  1  0.147500  0.686500  0.227400  1
  F  F2719  1  0.647500  0.813500  0.272600  1
  F  F2720  1  0.647500  0.686500  0.727400  1
  F  F2721  1  0.990200  0.213200  0.230300  1
  F  F2722  1  0.990200  0.286800  0.769700  1
  F  F2723  1  0.490200  0.213200  0.730300  1
  F  F2724  1  0.490200  0.286800  0.269700  1
  F  F2725  1  0.009800  0.786800  0.769700  1
  F  F2726  1  0.009800  0.713200  0.230300  1
  F  F2727  1  0.509800  0.786800  0.269700  1
  F  F2728  1  0.509800  0.713200  0.730300  1
  F  F2729  1  0.919300  0.193300  0.257900  1
  F  F2730  1  0.919300  0.306700  0.742100  1
  F  F2731  1  0.419300  0.193300  0.757900  1
  F  F2732  1  0.419300  0.306700  0.242100  1
  F  F2733  1  0.080700  0.806700  0.742100  1
  F  F2734  1  0.080700  0.693300  0.257900  1
  F  F2735  1  0.580700  0.806700  0.242100  1
  F  F2736  1  0.580700  0.693300  0.757900  1
  F  F2737  1  0.935700  0.260400  0.255800  1
  F  F2738  1  0.935700  0.239600  0.744200  1
  F  F2739  1  0.435700  0.260400  0.755800  1
  F  F2740  1  0.435700  0.239600  0.244200  1
  F  F2741  1  0.064300  0.739600  0.744200  1
  F  F2742  1  0.064300  0.760400  0.255800  1
  F  F2743  1  0.564300  0.739600  0.244200  1
  F  F2744  1  0.564300  0.760400  0.755800  1
  F  F2745  1  0.799500  0.230500  0.253500  1
  F  F2746  1  0.799500  0.269500  0.746500  1
  F  F2747  1  0.299500  0.230500  0.753500  1
  F  F2748  1  0.299500  0.269500  0.246500  1
  F  F2749  1  0.200500  0.769500  0.746500  1
  F  F2750  1  0.200500  0.730500  0.253500  1
  F  F2751  1  0.700500  0.769500  0.246500  1
  F  F2752  1  0.700500  0.730500  0.753500  1
  F  F2753  1  0.871000  0.252500  0.226000  1
  F  F2754  1  0.871000  0.247500  0.774000  1
  F  F2755  1  0.371000  0.252500  0.726000  1
  F  F2756  1  0.371000  0.247500  0.274000  1
  F  F2757  1  0.129000  0.747500  0.774000  1
  F  F2758  1  0.129000  0.752500  0.226000  1
  F  F2759  1  0.629000  0.747500  0.274000  1
  F  F2760  1  0.629000  0.752500  0.726000  1
  F  F2761  1  0.860600  0.407800  0.319400  1
  F  F2762  1  0.860600  0.092200  0.680600  1
  F  F2763  1  0.360600  0.407800  0.819400  1
  F  F2764  1  0.360600  0.092200  0.180600  1
  F  F2765  1  0.139400  0.592200  0.680600  1
  F  F2766  1  0.139400  0.907800  0.319400  1
  F  F2767  1  0.639400  0.592200  0.180600  1
  F  F2768  1  0.639400  0.907800  0.819400  1
  F  F2769  1  0.857100  0.392700  0.287500  1
  F  F2770  1  0.857100  0.107300  0.712500  1
  F  F2771  1  0.357100  0.392700  0.787500  1
  F  F2772  1  0.357100  0.107300  0.212500  1
  F  F2773  1  0.142900  0.607300  0.712500  1
  F  F2774  1  0.142900  0.892700  0.287500  1
  F  F2775  1  0.642900  0.607300  0.212500  1
  F  F2776  1  0.642900  0.892700  0.787500  1
  F  F2777  1  0.820000  0.338300  0.321600  1
  F  F2778  1  0.820000  0.161700  0.678400  1
  F  F2779  1  0.320000  0.338300  0.821600  1
  F  F2780  1  0.320000  0.161700  0.178400  1
  F  F2781  1  0.180000  0.661700  0.678400  1
  F  F2782  1  0.180000  0.838300  0.321600  1
  F  F2783  1  0.680000  0.661700  0.178400  1
  F  F2784  1  0.680000  0.838300  0.821600  1
  F  F2785  1  0.844000  0.322700  0.287700  1
  F  F2786  1  0.844000  0.177300  0.712300  1
  F  F2787  1  0.344000  0.322700  0.787700  1
  F  F2788  1  0.344000  0.177300  0.212300  1
  F  F2789  1  0.156000  0.677300  0.712300  1
  F  F2790  1  0.156000  0.822700  0.287700  1
  F  F2791  1  0.656000  0.677300  0.212300  1
  F  F2792  1  0.656000  0.822700  0.787700  1
  F  F2793  1  0.953900  0.355700  0.308000  1
  F  F2794  1  0.953900  0.144300  0.692000  1
  F  F2795  1  0.453900  0.355700  0.808000  1
  F  F2796  1  0.453900  0.144300  0.192000  1
  F  F2797  1  0.046100  0.644300  0.692000  1
  F  F2798  1  0.046100  0.855700  0.308000  1
  F  F2799  1  0.546100  0.644300  0.192000  1
  F  F2800  1  0.546100  0.855700  0.808000  1
  F  F2801  1  0.747700  0.377500  0.299700  1
  F  F2802  1  0.747700  0.122500  0.700300  1
  F  F2803  1  0.247700  0.377500  0.799700  1
  F  F2804  1  0.247700  0.122500  0.200300  1
  F  F2805  1  0.252300  0.622500  0.700300  1
  F  F2806  1  0.252300  0.877500  0.299700  1
  F  F2807  1  0.752300  0.622500  0.200300  1
  F  F2808  1  0.752300  0.877500  0.799700  1
