
#######################################################################
#
#                 Cambridge Crystallographic Data Centre
#                                CCDC 
#
#######################################################################
#
# If this CIF has been generated from an entry in the Cambridge 
# Structural Database, then it will include bibliographic, chemical, 
# crystal, experimental, refinement or atomic coordinate data resulting 
# from the CCDC's data processing and validation procedures.
#
#######################################################################

data_NAPGIW
_chemical_formula_moiety         
'C72 H44 N8 Pt2 4+,4(C2 H6 O1 S1),4(F6 P1 1-),5(C6 H6),C6 H6 O2'
_chemical_name_systematic        
"bis(\m~2~-7-[3'-(pyridin-2-yl)biphenyl-3-yl]quinolino[8,7-b][1,10]phenanthroline)-di-platinum(ii) tetrakis(hexafluorophosphate) dimethyl sulfoxide benzene benzene-1,4-diol solvate"
_symmetry_cell_setting           triclinic
_symmetry_space_group_name_H-M   'P -1'
_symmetry_Int_Tables_number      2
_space_group_name_Hall           '-P 1'
loop_
_symmetry_equiv_pos_site_id
_symmetry_equiv_pos_as_xyz
1 x,y,z
2 -x,-y,-z
_cell_length_a                   11.8059(8)
_cell_length_b                   14.7076(9)
_cell_length_c                   16.8096(13)
_cell_angle_alpha                98.035(2)
_cell_angle_beta                 106.941(2)
_cell_angle_gamma                91.0846(18)
_cell_volume                     2759.2
_exptl_crystal_colour            brown
_exptl_crystal_description       prismatic
_cell_formula_units_Z            1
_exptl_crystal_recrystallization_method 'dimethyl sulfoxide/benzene'
loop_
_atom_site_label
_atom_site_type_symbol
_atom_site_fract_x
_atom_site_fract_y
_atom_site_fract_z
Pt1 Pt 0.62362(3) 0.65069(2) 0.35155(2)
C1 C 0.7024(8) 0.7955(5) 0.4904(6)
N1 N 0.7537(7) 0.7398(5) 0.4395(4)
C2 C 0.8700(7) 0.7475(6) 0.4534(6)
H1 H 0.9059 0.7067 0.4204
C3 C 0.9408(9) 0.8152(6) 0.5162(6)
H2 H 1.0238 0.8202 0.5241
C4 C 0.8928(8) 0.8745(6) 0.5669(6)
H3 H 0.9412 0.9211 0.6084
C5 C 0.7695(8) 0.8641(6) 0.5552(6)
C6 C 0.5812(8) 0.7789(6) 0.4786(6)
N2 N 0.5289(6) 0.7130(5) 0.4169(5)
C7 C 0.4158(8) 0.6859(6) 0.3974(6)
C8 C 0.3451(9) 0.7285(6) 0.4453(6)
C9 C 0.3996(8) 0.7983(6) 0.5067(6)
C10 C 0.5179(8) 0.8289(6) 0.5265(6)
C11 C 0.3756(9) 0.6150(6) 0.3288(5)
N3 N 0.4581(7) 0.5853(5) 0.2885(5)
C12 C 0.4229(8) 0.5235(6) 0.2204(6)
H4 H 0.4779 0.5027 0.1914
C13 C 0.3052(10) 0.4881(7) 0.1905(7)
H5 H 0.2813 0.4441 0.1408
C14 C 0.2225(9) 0.5152(7) 0.2310(6)
H6 H 0.1435 0.4887 0.2112
C15 C 0.2588(8) 0.5831(6) 0.3021(6)
C16 C 0.7031(8) 0.9175(6) 0.6039(6)
H7 H 0.7442 0.9661 0.6467
C17 C 0.5858(8) 0.9009(6) 0.5911(6)
H8 H 0.5472 0.9374 0.6252
C18 C 0.2224(9) 0.6898(6) 0.4182(6)
H9 H 0.1690 0.7127 0.4478
C19 C 0.1841(9) 0.6220(7) 0.3519(7)
H10 H 0.1040 0.5984 0.3369
C20 C 0.3253(8) 0.8464(6) 0.5620(6)
C21 C 0.3163(8) 0.8058(6) 0.6305(6)
H11 H 0.3532 0.7499 0.6405
C22 C 0.2541(8) 0.8454(6) 0.6851(6)
C23 C 0.2035(8) 0.9286(6) 0.6705(6)
H12 H 0.1639 0.9580 0.7078
C24 C 0.2103(9) 0.9687(7) 0.6022(7)
H13 H 0.1748 1.0252 0.5927
C25 C 0.2690(8) 0.9267(6) 0.5473(6)
H14 H 0.2704 0.9535 0.4993
C26 C 0.2462(8) 0.7979(6) 0.7547(6)
C27 C 0.2389(8) 0.7015(6) 0.7427(6)
H15 H 0.2362 0.6688 0.6892
C28 C 0.2356(7) 0.6525(6) 0.8066(6)
C29 C 0.2416(9) 0.7012(7) 0.8844(6)
H16 H 0.2418 0.6687 0.9295
C30 C 0.2472(9) 0.7957(7) 0.8978(7)
H17 H 0.2495 0.8276 0.9515
C31 C 0.2495(9) 0.8448(7) 0.8334(6)
H18 H 0.2532 0.9102 0.8430
C32 C 0.2252(8) 0.5506(7) 0.7900(6)
C33 C 0.2852(8) 0.5048(6) 0.7377(6)
H19 H 0.3320 0.5399 0.7141
N4 N 0.2788(6) 0.4131(5) 0.7196(5)
C34 C 0.2125(8) 0.3624(6) 0.7526(6)
H20 H 0.2090 0.2972 0.7401
C35 C 0.1500(9) 0.4030(7) 0.8038(6)
H21 H 0.1027 0.3663 0.8257
C36 C 0.1569(8) 0.4980(7) 0.8232(6)
H22 H 0.1149 0.5269 0.8592
Pt1A Pt 0.37638(3) 0.34931(2) 0.64845(2)
C1A C 0.2976(8) 0.2045(5) 0.5096(6)
N1A N 0.2463(7) 0.2602(5) 0.5605(4)
C2A C 0.1300(7) 0.2525(6) 0.5466(6)
H1A H 0.0941 0.2933 0.5796
C3A C 0.0592(9) 0.1848(6) 0.4838(6)
H2A H -0.0238 0.1798 0.4759
C4A C 0.1072(8) 0.1255(6) 0.4331(6)
H3A H 0.0588 0.0789 0.3916
C5A C 0.2305(8) 0.1359(6) 0.4448(6)
C6A C 0.4188(8) 0.2211(6) 0.5214(6)
N2A N 0.4711(6) 0.2870(5) 0.5831(5)
C7A C 0.5842(8) 0.3141(6) 0.6026(6)
C8A C 0.6549(9) 0.2715(6) 0.5547(6)
C9A C 0.6004(8) 0.2017(6) 0.4933(6)
C10A C 0.4821(8) 0.1711(6) 0.4735(6)
C11A C 0.6244(9) 0.3850(6) 0.6712(5)
N3A N 0.5419(7) 0.4147(5) 0.7115(5)
C12A C 0.5771(8) 0.4765(6) 0.7796(6)
H4A H 0.5221 0.4973 0.8086
C13A C 0.6948(10) 0.5119(7) 0.8095(7)
H5A H 0.7187 0.5559 0.8592
C14A C 0.7775(9) 0.4848(7) 0.7690(6)
H6A H 0.8565 0.5113 0.7888
C15A C 0.7412(8) 0.4169(6) 0.6979(6)
C16A C 0.2969(8) 0.0825(6) 0.3961(6)
H7A H 0.2558 0.0339 0.3533
C17A C 0.4142(8) 0.0991(6) 0.4089(6)
H8A H 0.4528 0.0626 0.3748
C18A C 0.7776(9) 0.3102(6) 0.5818(6)
H9A H 0.8310 0.2873 0.5522
C19A C 0.8159(9) 0.3780(7) 0.6481(7)
H10A H 0.8960 0.4016 0.6631
C20A C 0.6747(8) 0.1536(6) 0.4380(6)
C21A C 0.6837(8) 0.1942(6) 0.3695(6)
H11A H 0.6468 0.2501 0.3595
C22A C 0.7459(8) 0.1546(6) 0.3149(6)
C23A C 0.7965(8) 0.0714(6) 0.3295(6)
H12A H 0.8361 0.0420 0.2922
C24A C 0.7897(9) 0.0313(7) 0.3978(7)
H13A H 0.8252 -0.0252 0.4073
C25A C 0.7310(8) 0.0733(6) 0.4527(6)
H14A H 0.7296 0.0465 0.5007
C26A C 0.7538(8) 0.2021(6) 0.2453(6)
C27A C 0.7611(8) 0.2985(6) 0.2573(6)
H15A H 0.7638 0.3312 0.3108
C28A C 0.7644(7) 0.3475(6) 0.1934(6)
C29A C 0.7584(9) 0.2988(7) 0.1156(6)
H16A H 0.7582 0.3313 0.0705
C30A C 0.7528(9) 0.2043(7) 0.1022(7)
H17A H 0.7505 0.1724 0.0485
C31A C 0.7505(9) 0.1552(7) 0.1666(6)
H18A H 0.7468 0.0898 0.1570
C32A C 0.7748(8) 0.4494(7) 0.2100(6)
C33A C 0.7148(8) 0.4952(6) 0.2623(6)
H19A H 0.6680 0.4601 0.2859
N4A N 0.7212(6) 0.5869(5) 0.2804(5)
C34A C 0.7875(8) 0.6376(6) 0.2474(6)
H20A H 0.7910 0.7028 0.2599
C35A C 0.8500(9) 0.5970(7) 0.1962(6)
H21A H 0.8973 0.6337 0.1743
C36A C 0.8431(8) 0.5020(7) 0.1768(6)
H22A H 0.8851 0.4731 0.1408
O1 O 0.4916(6) 0.3673(5) 0.3637(5)
H23 H 0.4228 0.3422 0.3425
C37 C 0.4939(9) 0.4318(7) 0.4319(6)
C38 C 0.6002(9) 0.4812(7) 0.4743(6)
H24 H 0.6688 0.4690 0.4569
C39 C 0.6069(8) 0.5485(7) 0.5424(6)
H25 H 0.6805 0.5816 0.5719
O1A O 0.5084(6) 0.6327(5) 0.6363(5)
H23A H 0.5772 0.6578 0.6575
C37A C 0.5061(9) 0.5682(7) 0.5681(6)
C38A C 0.3998(9) 0.5188(7) 0.5257(6)
H24A H 0.3312 0.5310 0.5431
C39A C 0.3931(8) 0.4515(7) 0.4576(6)
H25A H 0.3195 0.4184 0.4281
P1 P 0.5000 0.5000 0.0000
F1 F 0.5116(7) 0.4303(5) 0.0658(4)
F2 F 0.3753(7) 0.5291(5) 0.0121(5)
F3 F 0.5656(6) 0.5780(4) 0.0760(4)
F1A F 0.4884(7) 0.5697(5) -0.0658(4)
F2A F 0.6247(7) 0.4709(5) -0.0121(5)
F3A F 0.4344(6) 0.4220(4) -0.0760(4)
P2 P 1.0000 0.5000 0.5000
F4 F 0.9195(6) 0.4076(5) 0.4624(4)
F5 F 0.9635(6) 0.5325(5) 0.4094(4)
F6 F 1.1099(6) 0.4510(5) 0.4802(5)
F4A F 1.0805(6) 0.5924(5) 0.5376(4)
F5A F 1.0365(6) 0.4675(5) 0.5906(4)
F6A F 0.8901(6) 0.5490(5) 0.5198(5)
P3 P 1.0179(3) 0.8636(2) 0.2843(2)
F7 F 1.0026(7) 0.7688(6) 0.3151(7)
F8 F 0.8823(7) 0.8607(6) 0.2372(8)
F9 F 1.0370(9) 0.8085(6) 0.2072(6)
F10 F 1.1567(7) 0.8685(6) 0.3314(6)
F11 F 0.9985(11) 0.9116(7) 0.3685(7)
F12 F 1.0314(8) 0.9606(5) 0.2608(5)
S1 S 0.1850(2) 0.27982(19) 0.24281(18)
O2 O 0.2854(6) 0.2659(5) 0.3189(5)
C40 C 0.0688(11) 0.3229(9) 0.2818(9)
H26 H 0.0496 0.2809 0.3171
H27 H -0.0015 0.3277 0.2345
H28 H 0.0943 0.3838 0.3154
C41 C 0.1170(11) 0.1694(9) 0.1947(8)
H29 H 0.1693 0.1354 0.1671
H30 H 0.0413 0.1760 0.1528
H31 H 0.1029 0.1357 0.2376
S2 S -0.0037(2) 0.31537(19) 0.01484(18)
O3 O 0.0252(6) 0.3898(5) 0.0903(5)
C42 C -0.0769(10) 0.3701(8) -0.0717(7)
H32 H -0.1543 0.3882 -0.0667
H33 H -0.0883 0.3274 -0.1241
H34 H -0.0288 0.4248 -0.0723
C43 C 0.1299(10) 0.2952(9) -0.0090(7)
H35 H 0.1677 0.3538 -0.0125
H36 H 0.1134 0.2547 -0.0631
H37 H 0.1831 0.2660 0.0353
C44 C 0.3490(11) 0.7972(8) 0.2101(9)
H38 H 0.2671 0.7811 0.1995
C45 C 0.4075(10) 0.8590(7) 0.2785(8)
H39 H 0.3662 0.8852 0.3160
C46 C 0.5250(11) 0.8842(7) 0.2942(7)
H40 H 0.5639 0.9285 0.3416
C47 C 0.5876(11) 0.8455(8) 0.2414(8)
H41 H 0.6695 0.8622 0.2527
C48 C 0.5293(14) 0.7824(9) 0.1725(9)
H42 H 0.5715 0.7556 0.1358
C49 C 0.4098(16) 0.7574(9) 0.1554(9)
H43 H 0.3700 0.7140 0.1075
C50 C 0.4411(11) 0.2319(11) 0.1450(10)
H44 H 0.4491 0.2933 0.1734
C51 C 0.4348(12) 0.2138(10) 0.0619(12)
H45 H 0.4405 0.2633 0.0323
C52 C 0.4207(17) 0.1278(14) 0.0218(11)
H46 H 0.4117 0.1168 -0.0369
C53 C 0.4190(19) 0.0527(12) 0.0652(14)
H47 H 0.4137 -0.0085 0.0370
C54 C 0.4250(15) 0.0689(13) 0.1473(12)
H48 H 0.4220 0.0192 0.1772
C55 C 0.4354(12) 0.1570(14) 0.1868(10)
H49 H 0.4390 0.1681 0.2445
C56 C 0.117(2) -0.0208(18) 0.026(2)
H50 H 0.1970 -0.0366 0.0443
C57 C 0.081(3) 0.0295(18) -0.0395(18)
H51 H 0.1356 0.0500 -0.0662
C58 C -0.035(3) 0.0485(12) -0.0639(14)
H52 H -0.0610 0.0824 -0.1094
C56A C -0.117(2) 0.0208(18) -0.026(2)
H50A H -0.1970 0.0366 -0.0443
C57A C -0.081(3) -0.0295(18) 0.0395(18)
H51A H -0.1356 -0.0500 0.0662
C58A C 0.035(3) -0.0485(12) 0.0639(14)
H52A H 0.0610 -0.0824 0.1094
loop_
_geom_bond_atom_site_label_1
_geom_bond_atom_site_label_2
_geom_bond_site_symmetry_1
_geom_bond_site_symmetry_2
Pt1 N1 1_555 1_555
C1 N1 1_555 1_555
N1 C2 1_555 1_555
C2 H1 1_555 1_555
C3 C2 1_555 1_555
H2 C3 1_555 1_555
C4 C3 1_555 1_555
H3 C4 1_555 1_555
C5 C1 1_555 1_555
C6 C1 1_555 1_555
N2 Pt1 1_555 1_555
C7 N2 1_555 1_555
C8 C7 1_555 1_555
C9 C8 1_555 1_555
C10 C6 1_555 1_555
C11 C7 1_555 1_555
N3 Pt1 1_555 1_555
C12 N3 1_555 1_555
H4 C12 1_555 1_555
C13 C12 1_555 1_555
H5 C13 1_555 1_555
C14 C13 1_555 1_555
H6 C14 1_555 1_555
C15 C11 1_555 1_555
C16 C5 1_555 1_555
H7 C16 1_555 1_555
C17 C10 1_555 1_555
H8 C17 1_555 1_555
C18 C8 1_555 1_555
H9 C18 1_555 1_555
C19 C15 1_555 1_555
H10 C19 1_555 1_555
C20 C9 1_555 1_555
C21 C20 1_555 1_555
H11 C21 1_555 1_555
C22 C21 1_555 1_555
C23 C22 1_555 1_555
H12 C23 1_555 1_555
C24 C23 1_555 1_555
H13 C24 1_555 1_555
C25 C20 1_555 1_555
H14 C25 1_555 1_555
C26 C22 1_555 1_555
C27 C26 1_555 1_555
H15 C27 1_555 1_555
C28 C27 1_555 1_555
C29 C28 1_555 1_555
H16 C29 1_555 1_555
C30 C29 1_555 1_555
H17 C30 1_555 1_555
C31 C26 1_555 1_555
H18 C31 1_555 1_555
C32 C28 1_555 1_555
C33 C32 1_555 1_555
H19 C33 1_555 1_555
N4 C33 1_555 1_555
C34 N4 1_555 1_555
H20 C34 1_555 1_555
C35 C34 1_555 1_555
H21 C35 1_555 1_555
C36 C32 1_555 1_555
H22 C36 1_555 1_555
O1 H23 1_555 1_555
C37 O1 1_555 1_555
C38 C37 1_555 1_555
H24 C38 1_555 1_555
C39 C38 1_555 1_555
H25 C39 1_555 1_555
P1 F1 1_555 1_555
F2 P1 1_555 1_555
F3 P1 1_555 1_555
P2 F4 1_555 1_555
F5 P2 1_555 1_555
F6 P2 1_555 1_555
P3 F7 1_555 1_555
F8 P3 1_555 1_555
F9 P3 1_555 1_555
F10 P3 1_555 1_555
F11 P3 1_555 1_555
F12 P3 1_555 1_555
S1 O2 1_555 1_555
C40 S1 1_555 1_555
H26 C40 1_555 1_555
H27 C40 1_555 1_555
H28 C40 1_555 1_555
C41 S1 1_555 1_555
H29 C41 1_555 1_555
H30 C41 1_555 1_555
H31 C41 1_555 1_555
S2 O3 1_555 1_555
C42 S2 1_555 1_555
H32 C42 1_555 1_555
H33 C42 1_555 1_555
H34 C42 1_555 1_555
C43 S2 1_555 1_555
H35 C43 1_555 1_555
H36 C43 1_555 1_555
H37 C43 1_555 1_555
C44 H38 1_555 1_555
C45 C44 1_555 1_555
H39 C45 1_555 1_555
C46 C45 1_555 1_555
H40 C46 1_555 1_555
C47 C46 1_555 1_555
H41 C47 1_555 1_555
C48 C47 1_555 1_555
H42 C48 1_555 1_555
C49 C44 1_555 1_555
H43 C49 1_555 1_555
C50 H44 1_555 1_555
C51 C50 1_555 1_555
H45 C51 1_555 1_555
C52 C51 1_555 1_555
H46 C52 1_555 1_555
C53 C52 1_555 1_555
H47 C53 1_555 1_555
C54 C53 1_555 1_555
H48 C54 1_555 1_555
C55 C50 1_555 1_555
H49 C55 1_555 1_555
C56 H50 1_555 1_555
C57 C56 1_555 1_555
H51 C57 1_555 1_555
C58 C57 1_555 1_555
H52 C58 1_555 1_555
Pt1A N4 1_555 1_555
C1A N1A 1_555 1_555
N1A Pt1A 1_555 1_555
C2A N1A 1_555 1_555
H1A C2A 1_555 1_555
C3A C2A 1_555 1_555
H2A C3A 1_555 1_555
C4A C3A 1_555 1_555
H3A C4A 1_555 1_555
C5A C1A 1_555 1_555
C6A C1A 1_555 1_555
N2A Pt1A 1_555 1_555
C7A N2A 1_555 1_555
C8A C7A 1_555 1_555
C9A C8A 1_555 1_555
C10A C6A 1_555 1_555
C11A C7A 1_555 1_555
N3A Pt1A 1_555 1_555
C12A N3A 1_555 1_555
H4A C12A 1_555 1_555
C13A C12A 1_555 1_555
H5A C13A 1_555 1_555
C14A C13A 1_555 1_555
H6A C14A 1_555 1_555
C15A C11A 1_555 1_555
C16A C5A 1_555 1_555
H7A C16A 1_555 1_555
C17A C10A 1_555 1_555
H8A C17A 1_555 1_555
C18A C8A 1_555 1_555
H9A C18A 1_555 1_555
C19A C15A 1_555 1_555
H10A C19A 1_555 1_555
C20A C9A 1_555 1_555
C21A C20A 1_555 1_555
H11A C21A 1_555 1_555
C22A C21A 1_555 1_555
C23A C22A 1_555 1_555
H12A C23A 1_555 1_555
C24A C23A 1_555 1_555
H13A C24A 1_555 1_555
C25A C20A 1_555 1_555
H14A C25A 1_555 1_555
C26A C22A 1_555 1_555
C27A C26A 1_555 1_555
H15A C27A 1_555 1_555
C28A C27A 1_555 1_555
C29A C28A 1_555 1_555
H16A C29A 1_555 1_555
C30A C29A 1_555 1_555
H17A C30A 1_555 1_555
C31A C26A 1_555 1_555
H18A C31A 1_555 1_555
C32A C28A 1_555 1_555
C33A C32A 1_555 1_555
H19A C33A 1_555 1_555
N4A Pt1 1_555 1_555
C34A N4A 1_555 1_555
H20A C34A 1_555 1_555
C35A C34A 1_555 1_555
H21A C35A 1_555 1_555
C36A C32A 1_555 1_555
H22A C36A 1_555 1_555
O1A H23A 1_555 1_555
C37A C39 1_555 1_555
C38A C37A 1_555 1_555
H24A C38A 1_555 1_555
C39A C37 1_555 1_555
H25A C39A 1_555 1_555
F1A P1 1_555 1_555
F2A P1 1_555 1_555
F3A P1 1_555 1_555
F4A P2 1_555 1_555
F5A P2 1_555 1_555
F6A P2 1_555 1_555
C56A C58 1_555 1_555
H50A C56A 1_555 1_555
C57A C56A 1_555 1_555
H51A C57A 1_555 1_555
C58A C56 1_555 1_555
H52A C58A 1_555 1_555
C4 C5 1_555 1_555
C6 N2 1_555 1_555
C9 C10 1_555 1_555
C11 N3 1_555 1_555
C14 C15 1_555 1_555
C16 C17 1_555 1_555
C18 C19 1_555 1_555
C24 C25 1_555 1_555
C30 C31 1_555 1_555
C35 C36 1_555 1_555
C48 C49 1_555 1_555
C54 C55 1_555 1_555
C4A C5A 1_555 1_555
C6A N2A 1_555 1_555
C9A C10A 1_555 1_555
C11A N3A 1_555 1_555
C14A C15A 1_555 1_555
C16A C17A 1_555 1_555
C18A C19A 1_555 1_555
C24A C25A 1_555 1_555
C30A C31A 1_555 1_555
C33A N4A 1_555 1_555
C35A C36A 1_555 1_555
O1A C37A 1_555 1_555
C38A C39A 1_555 1_555
C57A C58A 1_555 1_555

#END
