
#######################################################################
#
#                 Cambridge Crystallographic Data Centre
#                                CCDC 
#
#######################################################################
#
# If this CIF has been generated from an entry in the Cambridge 
# Structural Database, then it will include bibliographic, chemical, 
# crystal, experimental, refinement or atomic coordinate data resulting 
# from the CCDC's data processing and validation procedures.
#
#######################################################################

data_NAPGOC
_chemical_formula_moiety         
'C72 H44 N8 Pt2 4+,6(C2 H6 O1 S1),4(F6 P1 1-),3(C6 H6),C6 H6 O2'
_chemical_name_systematic        
"bis(\m~2~-7-[3'-(pyridin-2-yl)biphenyl-3-yl]quinolino[8,7-b][1,10]phenanthroline)-di-platinum(ii) tetrakis(hexafluorophosphate) dimethyl sulfoxide benzene benzene-1,3-diol solvate"
_symmetry_cell_setting           triclinic
_symmetry_space_group_name_H-M   'P -1'
_symmetry_Int_Tables_number      2
_space_group_name_Hall           '-P 1'
loop_
_symmetry_equiv_pos_site_id
_symmetry_equiv_pos_as_xyz
1 x,y,z
2 -x,-y,-z
_cell_length_a                   13.4345(9)
_cell_length_b                   14.1445(8)
_cell_length_c                   15.7840(8)
_cell_angle_alpha                92.7808(16)
_cell_angle_beta                 108.4957(17)
_cell_angle_gamma                104.8879(19)
_cell_volume                     2721.13
_exptl_crystal_colour            orange
_exptl_crystal_description       prismatic
_cell_formula_units_Z            1
_exptl_crystal_recrystallization_method 'dimethyl sulfoxide/benzene'
loop_
_atom_site_label
_atom_site_type_symbol
_atom_site_fract_x
_atom_site_fract_y
_atom_site_fract_z
P1 P 0.6213(2) -0.09473(18) 0.37656(19)
F1 F 0.5170(6) -0.1726(6) 0.3065(6)
F2 F 0.6260(6) -0.0233(6) 0.3015(5)
F3 F 0.5406(5) -0.0420(4) 0.4042(4)
F4 F 0.6157(6) -0.1640(5) 0.4512(6)
F5 F 0.6987(7) -0.1443(6) 0.3473(7)
F6 F 0.7240(5) -0.0155(6) 0.4463(5)
P2 P 0.0410(4) 0.3500(3) -0.1228(3)
F7 F -0.0711(8) 0.2765(7) -0.1714(7)
F8 F 0.1027(9) 0.2818(7) -0.1507(6)
F9 F 0.0328(10) 0.4089(7) -0.2007(6)
F10 F -0.0033(15) 0.4259(11) -0.0789(9)
F11 F 0.0626(9) 0.3233(12) -0.0339(6)
F12 F 0.1577(12) 0.4291(13) -0.0846(15)
S1 S 0.3254(4) 0.7126(3) 0.0798(3)
O3 O 0.3928(8) 0.6728(7) 0.0350(6)
C43 C 0.3151(14) 0.6474(11) 0.1711(10)
H29 H 0.3857 0.6679 0.2206
H30 H 0.2954 0.5763 0.1513
H31 H 0.2586 0.6621 0.1920
C44 C 0.1930(16) 0.661(3) 0.0066(12)
H32 H 0.1833 0.6889 -0.0499
H33 H 0.1413 0.6743 0.0341
H34 H 0.1791 0.5889 -0.0061
S2 S 0.4167(7) 0.0829(4) -0.0272(4)
O4 O 0.4163(15) 0.1041(13) 0.0618(9)
C45 C 0.3615(17) 0.1609(15) -0.0956(13)
H35 H 0.4120 0.2279 -0.0778
H36 H 0.2913 0.1612 -0.0894
H37 H 0.3499 0.1380 -0.1585
C46 C 0.3068(17) -0.0286(13) -0.0763(16)
H38 H 0.3249 -0.0835 -0.0452
H39 H 0.2962 -0.0430 -0.1404
H40 H 0.2392 -0.0200 -0.0700
S3 S 0.0885(3) 0.3270(3) 0.2497(2)
O5 O 0.1966(12) 0.3141(12) 0.2498(11)
C47 C 0.0686(18) 0.4107(13) 0.1761(11)
H41 H 0.1223 0.4750 0.2032
H42 H -0.0056 0.4170 0.1627
H43 H 0.0777 0.3881 0.1201
C48 C -0.0120(9) 0.2215(8) 0.1894(8)
H44 H -0.0092 0.1672 0.2255
H45 H -0.0001 0.2041 0.1333
H46 H -0.0839 0.2332 0.1752
C49 C 0.6962(11) 0.2106(8) 0.2414(10)
H47 H 0.6416 0.1490 0.2182
C50 C 0.6994(9) 0.2862(10) 0.1898(8)
H48 H 0.6471 0.2765 0.1308
C51 C 0.7781(9) 0.3757(8) 0.2233(7)
H49 H 0.7805 0.4280 0.1877
C52 C 0.8536(8) 0.3888(7) 0.3091(8)
H50 H 0.9082 0.4503 0.3327
C53 C 0.8503(9) 0.3136(8) 0.3605(8)
H51 H 0.9022 0.3228 0.4197
C54 C 0.7710(10) 0.2243(8) 0.3257(9)
H52 H 0.7687 0.1718 0.3610
C55 C -0.1130(13) -0.0221(16) -0.0313(9)
H53 H -0.1906 -0.0373 -0.0523
C56 C -0.0642(14) -0.0931(14) -0.0020(8)
H54 H -0.1086 -0.1579 -0.0039
C57 C -0.0491(14) 0.0733(13) -0.0305(9)
H55 H -0.0824 0.1233 -0.0518
C55A C 0.1130(13) 0.0221(16) 0.0313(9)
H53A H 0.1906 0.0373 0.0523
C56A C 0.0642(14) 0.0931(14) 0.0020(8)
H54A H 0.1086 0.1579 0.0039
C57A C 0.0491(14) -0.0733(13) 0.0305(9)
H55A H 0.0824 -0.1233 0.0518
Pt1 Pt 0.49939(2) 0.73280(2) 0.682842(18)
C1 C 0.3192(6) 0.6645(6) 0.5160(5)
N1 N 0.4049(6) 0.7502(5) 0.5559(5)
C2 C 0.4122(7) 0.8244(6) 0.5110(5)
H1 H 0.4713 0.8827 0.5367
C3 C 0.3355(8) 0.8215(7) 0.4256(7)
H2 H 0.3427 0.8778 0.3951
C4 C 0.2501(7) 0.7375(7) 0.3860(5)
H3 H 0.1985 0.7351 0.3280
C5 C 0.2404(7) 0.6553(6) 0.4327(5)
C6 C 0.3149(6) 0.5849(6) 0.5678(5)
N2 N 0.3933(5) 0.6054(5) 0.6488(4)
C7 C 0.3969(7) 0.5407(6) 0.7053(5)
C8 C 0.3209(7) 0.4465(6) 0.6859(6)
C9 C 0.2395(5) 0.4296(5) 0.6002(4)
C10 C 0.2325(6) 0.4936(6) 0.5395(5)
C11 C 0.4879(7) 0.5727(7) 0.7886(6)
N3 N 0.5536(6) 0.6668(5) 0.7969(4)
C12 C 0.6391(8) 0.7027(8) 0.8720(6)
H4 H 0.6856 0.7678 0.8787
C13 C 0.6614(9) 0.6450(9) 0.9417(7)
H5 H 0.7226 0.6716 0.9954
C14 C 0.5952(9) 0.5497(9) 0.9330(7)
H6 H 0.6107 0.5105 0.9800
C15 C 0.5051(8) 0.5121(7) 0.8539(6)
C16 C 0.1550(7) 0.5622(6) 0.4030(5)
H7 H 0.0991 0.5536 0.3460
C17 C 0.1508(7) 0.4870(6) 0.4523(6)
H8 H 0.0923 0.4279 0.4289
C18 C 0.3395(8) 0.3839(7) 0.7541(6)
H9 H 0.2908 0.3193 0.7444
C19 C 0.4268(8) 0.4158(8) 0.8338(6)
H10 H 0.4358 0.3720 0.8776
C20 C 0.1462(7) 0.3280(6) 0.5767(6)
C21 C 0.1279(6) 0.2621(6) 0.5018(5)
H11 H 0.1722 0.2779 0.4651
C22 C 0.0443(7) 0.1717(6) 0.4796(6)
C23 C -0.0216(7) 0.1505(6) 0.5325(7)
H12 H -0.0791 0.0904 0.5176
C24 C -0.0034(8) 0.2177(7) 0.6081(7)
H13 H -0.0495 0.2030 0.6435
C25 C 0.0815(7) 0.3058(7) 0.6319(6)
H14 H 0.0953 0.3499 0.6844
C26 C 0.0312(7) 0.0993(6) 0.4028(6)
C27 C 0.1226(7) 0.0968(6) 0.3801(5)
H15 H 0.1923 0.1397 0.4156
C28 C 0.1141(6) 0.0322(6) 0.3056(5)
C29 C 0.0104(7) -0.0331(6) 0.2559(5)
H16 H 0.0025 -0.0788 0.2064
C30 C -0.0797(7) -0.0306(7) 0.2791(6)
H17 H -0.1493 -0.0747 0.2449
C31 C -0.0706(7) 0.0349(6) 0.3512(7)
H18 H -0.1339 0.0360 0.3656
C32 C 0.2124(6) 0.0344(6) 0.2831(5)
C33 C 0.2935(6) 0.1228(6) 0.2999(5)
H19 H 0.2822 0.1802 0.3244
N4 N 0.6123(6) 0.8677(5) 0.7166(4)
C34 C 0.5975(7) 0.9473(6) 0.7548(6)
H20 H 0.5321 0.9409 0.7682
C35 C 0.6746(8) 1.0375(7) 0.7750(6)
H21 H 0.6624 1.0928 0.8024
C36 C 0.2288(7) -0.0487(6) 0.2444(6)
H22 H 0.1756 -0.1114 0.2317
Pt1A Pt 0.50061(2) 0.26720(2) 0.317158(18)
C1A C 0.6808(6) 0.3355(6) 0.4840(5)
N1A N 0.5951(6) 0.2498(5) 0.4441(5)
C2A C 0.5878(7) 0.1756(6) 0.4890(5)
H1A H 0.5287 0.1173 0.4633
C3A C 0.6645(8) 0.1785(7) 0.5744(7)
H2A H 0.6573 0.1222 0.6049
C4A C 0.7499(7) 0.2625(7) 0.6140(5)
H3A H 0.8015 0.2649 0.6720
C5A C 0.7596(7) 0.3447(6) 0.5673(5)
C6A C 0.6851(6) 0.4151(6) 0.4322(5)
N2A N 0.6067(5) 0.3946(5) 0.3512(4)
C7A C 0.6031(7) 0.4593(6) 0.2947(5)
C8A C 0.6791(7) 0.5535(6) 0.3141(6)
C9A C 0.7605(5) 0.5704(5) 0.3998(4)
C10A C 0.7675(6) 0.5064(6) 0.4605(5)
C11A C 0.5121(7) 0.4273(7) 0.2114(6)
N3A N 0.4464(6) 0.3332(5) 0.2031(4)
C12A C 0.3609(8) 0.2973(8) 0.1280(6)
H4A H 0.3144 0.2322 0.1213
C13A C 0.3386(9) 0.3550(9) 0.0583(7)
H5A H 0.2774 0.3284 0.0046
C14A C 0.4048(9) 0.4503(9) 0.0670(7)
H6A H 0.3893 0.4895 0.0200
C15A C 0.4949(8) 0.4879(7) 0.1461(6)
C16A C 0.8450(7) 0.4378(6) 0.5970(5)
H7A H 0.9009 0.4464 0.6540
C17A C 0.8492(7) 0.5130(6) 0.5477(6)
H8A H 0.9077 0.5721 0.5711
C18A C 0.6605(8) 0.6161(7) 0.2459(6)
H9A H 0.7092 0.6807 0.2556
C19A C 0.5732(8) 0.5842(8) 0.1662(6)
H10A H 0.5642 0.6280 0.1224
C20A C 0.8538(7) 0.6720(6) 0.4233(6)
C21A C 0.8721(6) 0.7379(6) 0.4982(5)
H11A H 0.8278 0.7221 0.5349
C22A C 0.9557(7) 0.8283(6) 0.5204(6)
C23A C 1.0216(7) 0.8495(6) 0.4675(7)
H12A H 1.0791 0.9096 0.4824
C24A C 1.0034(8) 0.7823(7) 0.3919(7)
H13A H 1.0495 0.7970 0.3565
C25A C 0.9185(7) 0.6942(7) 0.3681(6)
H14A H 0.9047 0.6501 0.3156
C26A C 0.9688(7) 0.9007(6) 0.5972(6)
C27A C 0.8774(7) 0.9032(6) 0.6199(5)
H15A H 0.8077 0.8603 0.5844
C28A C 0.8859(6) 0.9678(6) 0.6944(5)
C29A C 0.9896(7) 1.0331(6) 0.7441(5)
H16A H 0.9975 1.0788 0.7936
C30A C 1.0797(7) 1.0306(7) 0.7209(6)
H17A H 1.1493 1.0747 0.7551
C31A C 1.0706(7) 0.9651(6) 0.6488(7)
H18A H 1.1339 0.9640 0.6344
C32A C 0.7876(6) 0.9656(6) 0.7169(5)
C33A C 0.7065(6) 0.8772(6) 0.7001(5)
H19A H 0.7178 0.8198 0.6756
N4A N 0.3877(6) 0.1323(5) 0.2834(4)
C34A C 0.4025(7) 0.0527(6) 0.2452(6)
H20A H 0.4679 0.0591 0.2318
C35A C 0.3254(8) -0.0375(7) 0.2250(6)
H21A H 0.3376 -0.0928 0.1976
C36A C 0.7712(7) 1.0487(6) 0.7556(6)
H22A H 0.8244 1.1114 0.7683
O1? O 0.6323(12) 0.5218(11) 0.6591(11)
H23? H 0.6791 0.5775 0.6750
O2? O 0.3269(10) 0.3406(9) 0.4127(9)
H24? H 0.2877 0.3438 0.3602
C37? C 0.5651(13) 0.5167(14) 0.5746(12)
C38? C 0.4766(16) 0.4295(13) 0.5317(15)
H25? H 0.4663 0.3735 0.5623
C39? C 0.4072(15) 0.4274(15) 0.4465(12)
C40? C 0.416(2) 0.5069(16) 0.3939(18)
H26? H 0.3658 0.5033 0.3350
C41? C 0.5009(17) 0.5865(16) 0.4346(14)
H27? H 0.5131 0.6391 0.4005
C42? C 0.5754(15) 0.5993(14) 0.5257(14)
H28? H 0.6295 0.6605 0.5525
C58? C 0.448(4) 0.117(3) -0.108(4)
C59? C 0.106(7) 0.387(4) 0.149(4)
H56? H 0.1771 0.4295 0.1507
H57? H 0.0727 0.4251 0.1802
H58? H 0.0577 0.3650 0.0864
H59? H -0.0119 0.1615 0.2180
H60? H -0.0557 0.2034 0.1251
H61? H -0.0437 0.2630 0.2183
H62? H 0.4873 0.1880 -0.0935
H63? H 0.4007 0.1023 -0.1715
H64? H 0.5004 0.0787 -0.0968
H65? H 0.2582 -0.0678 -0.0478
H66? H 0.3680 -0.0561 -0.0710
H67? H 0.2657 -0.0302 -0.1402
H68? H 0.1906 0.0373 0.0523
H69? H 0.1086 0.1579 0.0039
H70? H -0.0824 0.1233 -0.0518
O6? O 0.388(6) 0.079(6) 0.069(4)
O7? O 0.197(2) 0.3152(18) 0.2977(17)
S4? S 0.3526(17) 0.0819(10) -0.0276(11)
S5? S 0.1240(10) 0.2876(8) 0.2019(8)
loop_
_geom_bond_atom_site_label_1
_geom_bond_atom_site_label_2
_geom_bond_site_symmetry_1
_geom_bond_site_symmetry_2
Pt1 N1 1_555 1_555
C1 N1 1_555 1_555
N1 C2 1_555 1_555
C2 H1 1_555 1_555
C3 C2 1_555 1_555
H2 C3 1_555 1_555
C4 C3 1_555 1_555
H3 C4 1_555 1_555
C5 C1 1_555 1_555
C6 C1 1_555 1_555
N2 Pt1 1_555 1_555
C7 N2 1_555 1_555
C8 C7 1_555 1_555
C9 C8 1_555 1_555
C10 C6 1_555 1_555
C11 C7 1_555 1_555
N3 Pt1 1_555 1_555
C12 N3 1_555 1_555
H4 C12 1_555 1_555
C13 C12 1_555 1_555
H5 C13 1_555 1_555
C14 C13 1_555 1_555
H6 C14 1_555 1_555
C15 C11 1_555 1_555
C16 C5 1_555 1_555
H7 C16 1_555 1_555
C17 C10 1_555 1_555
H8 C17 1_555 1_555
C18 C8 1_555 1_555
H9 C18 1_555 1_555
C19 C15 1_555 1_555
H10 C19 1_555 1_555
C20 C9 1_555 1_555
C21 C20 1_555 1_555
H11 C21 1_555 1_555
C22 C21 1_555 1_555
C23 C22 1_555 1_555
H12 C23 1_555 1_555
C24 C23 1_555 1_555
H13 C24 1_555 1_555
C25 C20 1_555 1_555
H14 C25 1_555 1_555
C26 C22 1_555 1_555
C27 C26 1_555 1_555
H15 C27 1_555 1_555
C28 C27 1_555 1_555
C29 C28 1_555 1_555
H16 C29 1_555 1_555
C30 C29 1_555 1_555
H17 C30 1_555 1_555
C31 C26 1_555 1_555
H18 C31 1_555 1_555
C32 C28 1_555 1_555
C33 C32 1_555 1_555
H19 C33 1_555 1_555
N4 Pt1 1_555 1_555
C34 N4 1_555 1_555
H20 C34 1_555 1_555
C35 C34 1_555 1_555
H21 C35 1_555 1_555
C36 C32 1_555 1_555
H22 C36 1_555 1_555
P1 F1 1_555 1_555
F2 P1 1_555 1_555
F3 P1 1_555 1_555
F4 P1 1_555 1_555
F5 P1 1_555 1_555
F6 P1 1_555 1_555
P2 F7 1_555 1_555
F8 P2 1_555 1_555
F9 P2 1_555 1_555
F10 P2 1_555 1_555
F11 P2 1_555 1_555
F12 P2 1_555 1_555
S1 O3 1_555 1_555
C43 S1 1_555 1_555
H29 C43 1_555 1_555
H30 C43 1_555 1_555
H31 C43 1_555 1_555
C44 S1 1_555 1_555
H32 C44 1_555 1_555
H33 C44 1_555 1_555
H34 C44 1_555 1_555
S2 O4 1_555 1_555
C45 S2 1_555 1_555
H35 C45 1_555 1_555
H36 C45 1_555 1_555
H37 C45 1_555 1_555
C46 S2 1_555 1_555
H38 C46 1_555 1_555
H39 C46 1_555 1_555
H40 C46 1_555 1_555
S3 O5 1_555 1_555
C47 S3 1_555 1_555
H41 C47 1_555 1_555
H42 C47 1_555 1_555
H43 C47 1_555 1_555
C48 S3 1_555 1_555
H44 C48 1_555 1_555
H45 C48 1_555 1_555
H46 C48 1_555 1_555
C49 H47 1_555 1_555
C50 C49 1_555 1_555
H48 C50 1_555 1_555
C51 C50 1_555 1_555
H49 C51 1_555 1_555
C52 C51 1_555 1_555
H50 C52 1_555 1_555
C53 C52 1_555 1_555
H51 C53 1_555 1_555
C54 C49 1_555 1_555
H52 C54 1_555 1_555
C55 H53 1_555 1_555
C56 C55 1_555 1_555
H54 C56 1_555 1_555
C57 C55 1_555 1_555
H55 C57 1_555 1_555
Pt1A N1A 1_555 1_555
C1A N1A 1_555 1_555
N1A C2A 1_555 1_555
C2A H1A 1_555 1_555
C3A C2A 1_555 1_555
H2A C3A 1_555 1_555
C4A C3A 1_555 1_555
H3A C4A 1_555 1_555
C5A C1A 1_555 1_555
C6A C1A 1_555 1_555
N2A Pt1A 1_555 1_555
C7A N2A 1_555 1_555
C8A C7A 1_555 1_555
C9A C8A 1_555 1_555
C10A C6A 1_555 1_555
C11A C7A 1_555 1_555
N3A Pt1A 1_555 1_555
C12A N3A 1_555 1_555
H4A C12A 1_555 1_555
C13A C12A 1_555 1_555
H5A C13A 1_555 1_555
C14A C13A 1_555 1_555
H6A C14A 1_555 1_555
C15A C11A 1_555 1_555
C16A C5A 1_555 1_555
H7A C16A 1_555 1_555
C17A C10A 1_555 1_555
H8A C17A 1_555 1_555
C18A C8A 1_555 1_555
H9A C18A 1_555 1_555
C19A C15A 1_555 1_555
H10A C19A 1_555 1_555
C20A C9A 1_555 1_555
C21A C20A 1_555 1_555
H11A C21A 1_555 1_555
C22A C21A 1_555 1_555
C23A C22A 1_555 1_555
H12A C23A 1_555 1_555
C24A C23A 1_555 1_555
H13A C24A 1_555 1_555
C25A C20A 1_555 1_555
H14A C25A 1_555 1_555
C26A C22A 1_555 1_555
C27A C26A 1_555 1_555
H15A C27A 1_555 1_555
C28A C27A 1_555 1_555
C29A C28A 1_555 1_555
H16A C29A 1_555 1_555
C30A C29A 1_555 1_555
H17A C30A 1_555 1_555
C31A C26A 1_555 1_555
H18A C31A 1_555 1_555
C32A C28A 1_555 1_555
C33A N4 1_555 1_555
H19A C33A 1_555 1_555
N4A C33 1_555 1_555
C34A N4A 1_555 1_555
H20A C34A 1_555 1_555
C35A C36 1_555 1_555
H21A C35A 1_555 1_555
C36A C35 1_555 1_555
H22A C36A 1_555 1_555
C55A H53A 1_555 1_555
C56A C57 1_555 1_555
H54A C56A 1_555 1_555
C57A C56 1_555 1_555
H55A C57A 1_555 1_555
C4 C5 1_555 1_555
C6 N2 1_555 1_555
C9 C10 1_555 1_555
C11 N3 1_555 1_555
C14 C15 1_555 1_555
C16 C17 1_555 1_555
C18 C19 1_555 1_555
C24 C25 1_555 1_555
C30 C31 1_555 1_555
C53 C54 1_555 1_555
Pt1A N4A 1_555 1_555
C4A C5A 1_555 1_555
C6A N2A 1_555 1_555
C9A C10A 1_555 1_555
C11A N3A 1_555 1_555
C14A C15A 1_555 1_555
C16A C17A 1_555 1_555
C18A C19A 1_555 1_555
C24A C25A 1_555 1_555
C30A C31A 1_555 1_555
C32A C33A 1_555 1_555
C32A C36A 1_555 1_555
C34A C35A 1_555 1_555
C55A C56A 1_555 1_555
C55A C57A 1_555 1_555

#END
