# generated using pymatgen
data_Zn2H108C273(N2O)4
_symmetry_space_group_name_H-M   'P 1'
_cell_length_a   14.44500000
_cell_length_b   21.37700000
_cell_length_c   44.11200000
_cell_angle_alpha   90.00000000
_cell_angle_beta   90.00000000
_cell_angle_gamma   95.64000000
_symmetry_Int_Tables_number   1
_chemical_formula_structural   Zn2H108C273(N2O)4
_chemical_formula_sum   'Zn8 H432 C1092 N32 O16'
_cell_volume   13555.43756604
_cell_formula_units_Z   4
loop_
 _symmetry_equiv_pos_site_id
 _symmetry_equiv_pos_as_xyz
  1  'x, y, z'
loop_
 _atom_site_type_symbol
 _atom_site_label
 _atom_site_symmetry_multiplicity
 _atom_site_fract_x
 _atom_site_fract_y
 _atom_site_fract_z
 _atom_site_occupancy
  Zn  Zn1  1  0.066070  0.488000  0.342622  1
  Zn  Zn2  1  0.433930  0.012000  0.842622  1
  Zn  Zn3  1  0.933930  0.512000  0.657378  1
  Zn  Zn4  1  0.566070  0.988000  0.157378  1
  Zn  Zn5  1  0.259370  0.022050  0.366921  1
  Zn  Zn6  1  0.240630  0.477950  0.866921  1
  Zn  Zn7  1  0.740630  0.977950  0.633079  1
  Zn  Zn8  1  0.759370  0.522050  0.133079  1
  H  H9  1  0.740500  0.387800  0.309900  1
  H  H10  1  0.759500  0.112200  0.809900  1
  H  H11  1  0.259500  0.612200  0.690100  1
  H  H12  1  0.240500  0.887800  0.190100  1
  H  H13  1  0.705400  0.474200  0.344200  1
  H  H14  1  0.794600  0.025800  0.844200  1
  H  H15  1  0.294600  0.525800  0.655800  1
  H  H16  1  0.205400  0.974200  0.155800  1
  H  H17  1  0.646400  0.682300  0.353600  1
  H  H18  1  0.853600  0.817700  0.853600  1
  H  H19  1  0.353600  0.317700  0.646400  1
  H  H20  1  0.146400  0.182300  0.146400  1
  H  H21  1  0.629900  0.590100  0.433300  1
  H  H22  1  0.870100  0.909900  0.933300  1
  H  H23  1  0.370100  0.409900  0.566700  1
  H  H24  1  0.129900  0.090100  0.066700  1
  H  H25  1  0.782900  0.598700  0.314700  1
  H  H26  1  0.717100  0.901300  0.814700  1
  H  H27  1  0.217100  0.401300  0.685300  1
  H  H28  1  0.282900  0.098700  0.185300  1
  H  H29  1  0.858300  0.647700  0.330700  1
  H  H30  1  0.641700  0.852300  0.830700  1
  H  H31  1  0.141700  0.352300  0.669300  1
  H  H32  1  0.358300  0.147700  0.169300  1
  H  H33  1  0.763500  0.670800  0.318100  1
  H  H34  1  0.736500  0.829200  0.818100  1
  H  H35  1  0.236500  0.329200  0.681900  1
  H  H36  1  0.263500  0.170800  0.181900  1
  H  H37  1  0.569200  0.720800  0.410900  1
  H  H38  1  0.930800  0.779200  0.910900  1
  H  H39  1  0.430800  0.279200  0.589100  1
  H  H40  1  0.069200  0.220800  0.089100  1
  H  H41  1  0.512100  0.656600  0.421600  1
  H  H42  1  0.987900  0.843400  0.921600  1
  H  H43  1  0.487900  0.343400  0.578400  1
  H  H44  1  0.012100  0.156600  0.078400  1
  H  H45  1  0.502200  0.681100  0.387600  1
  H  H46  1  0.997800  0.818900  0.887600  1
  H  H47  1  0.497800  0.318900  0.612400  1
  H  H48  1  0.002200  0.181100  0.112400  1
  H  H49  1  0.773800  0.478900  0.418700  1
  H  H50  1  0.726200  0.021100  0.918700  1
  H  H51  1  0.226200  0.521100  0.581300  1
  H  H52  1  0.273800  0.978900  0.081300  1
  H  H53  1  0.730400  0.515100  0.446300  1
  H  H54  1  0.769600  0.984900  0.946300  1
  H  H55  1  0.269600  0.484900  0.553700  1
  H  H56  1  0.230400  0.015100  0.053700  1
  H  H57  1  0.834700  0.535400  0.435300  1
  H  H58  1  0.665300  0.964600  0.935300  1
  H  H59  1  0.165300  0.464600  0.564700  1
  H  H60  1  0.334700  0.035400  0.064700  1
  H  H61  1  0.912400  0.644700  0.410300  1
  H  H62  1  0.587600  0.855300  0.910300  1
  H  H63  1  0.087600  0.355300  0.589700  1
  H  H64  1  0.412400  0.144700  0.089700  1
  H  H65  1  0.079800  0.665400  0.421700  1
  H  H66  1  0.420200  0.834600  0.921700  1
  H  H67  1  0.920200  0.334600  0.578300  1
  H  H68  1  0.579800  0.165400  0.078300  1
  H  H69  1  0.261200  0.706400  0.386300  1
  H  H70  1  0.238800  0.793600  0.886300  1
  H  H71  1  0.738800  0.293600  0.613700  1
  H  H72  1  0.761200  0.206400  0.113700  1
  H  H73  1  0.341000  0.774500  0.420900  1
  H  H74  1  0.159000  0.725500  0.920900  1
  H  H75  1  0.659000  0.225500  0.579100  1
  H  H76  1  0.841000  0.274500  0.079100  1
  H  H77  1  0.371400  0.740100  0.468600  1
  H  H78  1  0.128600  0.759900  0.968600  1
  H  H79  1  0.628600  0.259900  0.531400  1
  H  H80  1  0.871400  0.240100  0.031400  1
  H  H81  1  0.256400  0.564500  0.447800  1
  H  H82  1  0.243600  0.935500  0.947800  1
  H  H83  1  0.743600  0.435500  0.552200  1
  H  H84  1  0.756400  0.064500  0.052200  1
  H  H85  1  0.389800  0.565600  0.387000  1
  H  H86  1  0.110200  0.934400  0.887000  1
  H  H87  1  0.610200  0.434400  0.613000  1
  H  H88  1  0.889800  0.065600  0.113000  1
  H  H89  1  0.425900  0.492800  0.345300  1
  H  H90  1  0.074100  0.007200  0.845300  1
  H  H91  1  0.574100  0.507200  0.654700  1
  H  H92  1  0.925900  0.992800  0.154700  1
  H  H93  1  0.512600  0.315400  0.309800  1
  H  H94  1  0.987400  0.184600  0.809800  1
  H  H95  1  0.487400  0.684600  0.690200  1
  H  H96  1  0.012600  0.815400  0.190200  1
  H  H97  1  0.496600  0.437000  0.240800  1
  H  H98  1  0.003400  0.063000  0.740800  1
  H  H99  1  0.503400  0.563000  0.759200  1
  H  H100  1  0.996600  0.937000  0.259200  1
  H  H101  1  0.367700  0.370100  0.358600  1
  H  H102  1  0.132300  0.129900  0.858600  1
  H  H103  1  0.632300  0.629900  0.641400  1
  H  H104  1  0.867700  0.870100  0.141400  1
  H  H105  1  0.404000  0.304700  0.348800  1
  H  H106  1  0.096000  0.195300  0.848800  1
  H  H107  1  0.596000  0.695300  0.651200  1
  H  H108  1  0.904000  0.804700  0.151200  1
  H  H109  1  0.301100  0.319800  0.339900  1
  H  H110  1  0.198900  0.180200  0.839900  1
  H  H111  1  0.698900  0.680200  0.660100  1
  H  H112  1  0.801100  0.819800  0.160100  1
  H  H113  1  0.585200  0.336600  0.236500  1
  H  H114  1  0.914800  0.163400  0.736500  1
  H  H115  1  0.414800  0.663400  0.763500  1
  H  H116  1  0.085200  0.836600  0.263500  1
  H  H117  1  0.612100  0.306600  0.268100  1
  H  H118  1  0.887900  0.193400  0.768100  1
  H  H119  1  0.387900  0.693400  0.731900  1
  H  H120  1  0.112100  0.806600  0.231900  1
  H  H121  1  0.654500  0.376200  0.259300  1
  H  H122  1  0.845500  0.123800  0.759300  1
  H  H123  1  0.345500  0.623800  0.740700  1
  H  H124  1  0.154500  0.876200  0.240700  1
  H  H125  1  0.315100  0.477600  0.238300  1
  H  H126  1  0.184900  0.022400  0.738300  1
  H  H127  1  0.684900  0.522400  0.761700  1
  H  H128  1  0.815100  0.977600  0.261700  1
  H  H129  1  0.394500  0.528300  0.251100  1
  H  H130  1  0.105500  0.971700  0.751100  1
  H  H131  1  0.605500  0.471700  0.748900  1
  H  H132  1  0.894500  0.028300  0.248900  1
  H  H133  1  0.301900  0.510500  0.270400  1
  H  H134  1  0.198100  0.989500  0.770400  1
  H  H135  1  0.698100  0.489500  0.729600  1
  H  H136  1  0.801900  0.010500  0.229600  1
  H  H137  1  0.222000  0.349700  0.266100  1
  H  H138  1  0.278000  0.150300  0.766100  1
  H  H139  1  0.778000  0.650300  0.733900  1
  H  H140  1  0.722000  0.849700  0.233900  1
  H  H141  1  0.053600  0.319300  0.259100  1
  H  H142  1  0.446400  0.180700  0.759100  1
  H  H143  1  0.946400  0.680700  0.740900  1
  H  H144  1  0.553600  0.819300  0.240900  1
  H  H145  1  0.865700  0.273400  0.320200  1
  H  H146  1  0.634300  0.226600  0.820200  1
  H  H147  1  0.134300  0.726600  0.679800  1
  H  H148  1  0.365700  0.773400  0.179800  1
  H  H149  1  0.745100  0.184600  0.247300  1
  H  H150  1  0.754900  0.315400  0.747300  1
  H  H151  1  0.254900  0.815400  0.752700  1
  H  H152  1  0.245100  0.684600  0.252700  1
  H  H153  1  0.789100  0.274200  0.218200  1
  H  H154  1  0.710900  0.225800  0.718200  1
  H  H155  1  0.210900  0.725800  0.781800  1
  H  H156  1  0.289100  0.774200  0.281800  1
  H  H157  1  0.871300  0.362200  0.239200  1
  H  H158  1  0.628700  0.137800  0.739200  1
  H  H159  1  0.128700  0.637800  0.760800  1
  H  H160  1  0.371300  0.862200  0.260800  1
  H  H161  1  0.264500  0.553900  0.496800  1
  H  H162  1  0.235500  0.946100  0.996800  1
  H  H163  1  0.735500  0.446100  0.503200  1
  H  H164  1  0.764500  0.053900  0.003200  1
  H  H165  1  0.345600  0.564700  0.521400  1
  H  H166  1  0.154400  0.935300  0.021400  1
  H  H167  1  0.654400  0.435300  0.478600  1
  H  H168  1  0.845600  0.064700  0.978600  1
  H  H169  1  0.578300  0.411800  0.389200  1
  H  H170  1  0.921700  0.088200  0.889200  1
  H  H171  1  0.421700  0.588200  0.610800  1
  H  H172  1  0.078300  0.911800  0.110800  1
  H  H173  1  0.646700  0.398100  0.416600  1
  H  H174  1  0.853300  0.101900  0.916600  1
  H  H175  1  0.353300  0.601900  0.583400  1
  H  H176  1  0.146700  0.898100  0.083400  1
  H  H177  1  0.783900  0.095600  0.280100  1
  H  H178  1  0.716100  0.404400  0.780100  1
  H  H179  1  0.216100  0.904400  0.719900  1
  H  H180  1  0.283900  0.595600  0.219900  1
  H  H181  1  0.681800  0.116200  0.287000  1
  H  H182  1  0.818200  0.383800  0.787000  1
  H  H183  1  0.318200  0.883800  0.713000  1
  H  H184  1  0.181800  0.616200  0.213000  1
  H  H185  1  0.791100  0.960300  0.435700  1
  H  H186  1  0.708900  0.539700  0.935700  1
  H  H187  1  0.208900  0.039700  0.564300  1
  H  H188  1  0.291100  0.460300  0.064300  1
  H  H189  1  0.680100  0.948500  0.436800  1
  H  H190  1  0.819900  0.551500  0.936800  1
  H  H191  1  0.319900  0.051500  0.563200  1
  H  H192  1  0.180100  0.448500  0.063200  1
  H  H193  1  0.919600  0.952000  0.335800  1
  H  H194  1  0.580400  0.548000  0.835800  1
  H  H195  1  0.080400  0.048000  0.664200  1
  H  H196  1  0.419600  0.452000  0.164200  1
  H  H197  1  0.973400  0.031100  0.297200  1
  H  H198  1  0.526600  0.468900  0.797200  1
  H  H199  1  0.026600  0.968900  0.702800  1
  H  H200  1  0.473400  0.531100  0.202800  1
  H  H201  1  0.092800  0.064700  0.202000  1
  H  H202  1  0.407200  0.435300  0.702000  1
  H  H203  1  0.907200  0.935300  0.798000  1
  H  H204  1  0.592800  0.564700  0.298000  1
  H  H205  1  0.973500  0.197600  0.247600  1
  H  H206  1  0.526500  0.302400  0.747600  1
  H  H207  1  0.026500  0.802400  0.752400  1
  H  H208  1  0.473500  0.697600  0.252400  1
  H  H209  1  0.263200  0.039800  0.249900  1
  H  H210  1  0.236800  0.460200  0.749900  1
  H  H211  1  0.736800  0.960200  0.750100  1
  H  H212  1  0.763200  0.539800  0.250100  1
  H  H213  1  0.200200  0.003200  0.224400  1
  H  H214  1  0.299800  0.496800  0.724400  1
  H  H215  1  0.799800  0.996800  0.775600  1
  H  H216  1  0.700200  0.503200  0.275600  1
  H  H217  1  0.181200  0.987800  0.259500  1
  H  H218  1  0.318800  0.512200  0.759500  1
  H  H219  1  0.818800  0.012200  0.740500  1
  H  H220  1  0.681200  0.487800  0.240500  1
  H  H221  1  0.963500  0.191400  0.190800  1
  H  H222  1  0.536500  0.308600  0.690800  1
  H  H223  1  0.036500  0.808600  0.809200  1
  H  H224  1  0.463500  0.691400  0.309200  1
  H  H225  1  0.904400  0.124300  0.194000  1
  H  H226  1  0.595600  0.375700  0.694000  1
  H  H227  1  0.095600  0.875700  0.806000  1
  H  H228  1  0.404400  0.624300  0.306000  1
  H  H229  1  0.998400  0.130900  0.174600  1
  H  H230  1  0.501600  0.369100  0.674600  1
  H  H231  1  0.001600  0.869100  0.825400  1
  H  H232  1  0.498400  0.630900  0.325400  1
  H  H233  1  0.020600  0.227600  0.297200  1
  H  H234  1  0.479400  0.272400  0.797200  1
  H  H235  1  0.979400  0.772400  0.702800  1
  H  H236  1  0.520600  0.727600  0.202800  1
  H  H237  1  0.104600  0.196400  0.313000  1
  H  H238  1  0.395400  0.303600  0.813000  1
  H  H239  1  0.895400  0.803600  0.687000  1
  H  H240  1  0.604600  0.696400  0.187000  1
  H  H241  1  0.000900  0.162900  0.315400  1
  H  H242  1  0.499100  0.337100  0.815400  1
  H  H243  1  0.999100  0.837100  0.684600  1
  H  H244  1  0.500900  0.662900  0.184600  1
  H  H245  1  0.290500  0.177100  0.277100  1
  H  H246  1  0.209500  0.322900  0.777100  1
  H  H247  1  0.709500  0.822900  0.722900  1
  H  H248  1  0.790500  0.677100  0.222900  1
  H  H249  1  0.427000  0.210300  0.309400  1
  H  H250  1  0.073000  0.289700  0.809400  1
  H  H251  1  0.573000  0.789700  0.690600  1
  H  H252  1  0.927000  0.710300  0.190600  1
  H  H253  1  0.597700  0.173900  0.329200  1
  H  H254  1  0.902300  0.326100  0.829200  1
  H  H255  1  0.402300  0.826100  0.670800  1
  H  H256  1  0.097700  0.673900  0.170800  1
  H  H257  1  0.702000  0.266000  0.334700  1
  H  H258  1  0.798000  0.234000  0.834700  1
  H  H259  1  0.298000  0.734000  0.665300  1
  H  H260  1  0.202000  0.766000  0.165300  1
  H  H261  1  0.676700  0.340200  0.371500  1
  H  H262  1  0.823300  0.159800  0.871500  1
  H  H263  1  0.323300  0.659800  0.628500  1
  H  H264  1  0.176700  0.840200  0.128500  1
  H  H265  1  0.453100  0.229400  0.401100  1
  H  H266  1  0.046900  0.270600  0.901100  1
  H  H267  1  0.546900  0.770600  0.598900  1
  H  H268  1  0.953100  0.729400  0.098900  1
  H  H269  1  0.575100  0.118900  0.409500  1
  H  H270  1  0.924900  0.381100  0.909500  1
  H  H271  1  0.424900  0.881100  0.590500  1
  H  H272  1  0.075100  0.618900  0.090500  1
  H  H273  1  0.536500  0.024500  0.441300  1
  H  H274  1  0.963500  0.475500  0.941300  1
  H  H275  1  0.463500  0.975500  0.558700  1
  H  H276  1  0.036500  0.524500  0.058700  1
  H  H277  1  0.379100  0.896600  0.526300  1
  H  H278  1  0.120900  0.603400  0.026300  1
  H  H279  1  0.620900  0.103400  0.473700  1
  H  H280  1  0.879100  0.396600  0.973700  1
  H  H281  1  0.544700  0.813300  0.469100  1
  H  H282  1  0.955300  0.686700  0.969100  1
  H  H283  1  0.455300  0.186700  0.530900  1
  H  H284  1  0.044700  0.313300  0.030900  1
  H  H285  1  0.253200  0.973300  0.479400  1
  H  H286  1  0.246800  0.526700  0.979400  1
  H  H287  1  0.746800  0.026700  0.520600  1
  H  H288  1  0.753200  0.473300  0.020600  1
  H  H289  1  0.342100  0.023100  0.484300  1
  H  H290  1  0.157900  0.476900  0.984300  1
  H  H291  1  0.657900  0.976900  0.515700  1
  H  H292  1  0.842100  0.523100  0.015700  1
  H  H293  1  0.298300  0.983300  0.512400  1
  H  H294  1  0.201700  0.516700  0.012400  1
  H  H295  1  0.701700  0.016700  0.487600  1
  H  H296  1  0.798300  0.483300  0.987600  1
  H  H297  1  0.518500  0.767600  0.518300  1
  H  H298  1  0.981500  0.732400  0.018300  1
  H  H299  1  0.481500  0.232400  0.481700  1
  H  H300  1  0.018500  0.267600  0.981700  1
  H  H301  1  0.426600  0.783000  0.535900  1
  H  H302  1  0.073400  0.717000  0.035900  1
  H  H303  1  0.573400  0.217000  0.464100  1
  H  H304  1  0.926600  0.283000  0.964100  1
  H  H305  1  0.523300  0.824000  0.542300  1
  H  H306  1  0.976700  0.676000  0.042300  1
  H  H307  1  0.476700  0.176000  0.457700  1
  H  H308  1  0.023300  0.324000  0.957700  1
  H  H309  1  0.560000  0.842900  0.417600  1
  H  H310  1  0.940000  0.657100  0.917600  1
  H  H311  1  0.440000  0.157100  0.582400  1
  H  H312  1  0.060000  0.342900  0.082400  1
  H  H313  1  0.528000  0.909500  0.407700  1
  H  H314  1  0.972000  0.590500  0.907700  1
  H  H315  1  0.472000  0.090500  0.592300  1
  H  H316  1  0.028000  0.409500  0.092300  1
  H  H317  1  0.457200  0.847300  0.404700  1
  H  H318  1  0.042800  0.652700  0.904700  1
  H  H319  1  0.542800  0.152700  0.595300  1
  H  H320  1  0.957200  0.347300  0.095300  1
  H  H321  1  0.246100  0.849000  0.448300  1
  H  H322  1  0.253900  0.651000  0.948300  1
  H  H323  1  0.753900  0.151000  0.551700  1
  H  H324  1  0.746100  0.349000  0.051700  1
  H  H325  1  0.092200  0.832700  0.423100  1
  H  H326  1  0.407800  0.667300  0.923100  1
  H  H327  1  0.907800  0.167300  0.576900  1
  H  H328  1  0.592200  0.332700  0.076900  1
  H  H329  1  0.901100  0.942800  0.404400  1
  H  H330  1  0.598900  0.557200  0.904400  1
  H  H331  1  0.098900  0.057200  0.595600  1
  H  H332  1  0.401100  0.442800  0.095600  1
  H  H333  1  0.761700  0.769000  0.400600  1
  H  H334  1  0.738300  0.731000  0.900600  1
  H  H335  1  0.238300  0.231000  0.599400  1
  H  H336  1  0.261700  0.269000  0.099400  1
  H  H337  1  0.887200  0.732300  0.375000  1
  H  H338  1  0.612800  0.767700  0.875000  1
  H  H339  1  0.112800  0.267700  0.625000  1
  H  H340  1  0.387200  0.232300  0.125000  1
  H  H341  1  0.019200  0.800300  0.364800  1
  H  H342  1  0.480800  0.699700  0.864800  1
  H  H343  1  0.980800  0.199700  0.635200  1
  H  H344  1  0.519200  0.300300  0.135200  1
  H  H345  1  0.307500  0.371800  0.165400  1
  H  H346  1  0.192500  0.128200  0.665400  1
  H  H347  1  0.692500  0.628200  0.834600  1
  H  H348  1  0.807500  0.871800  0.334600  1
  H  H349  1  0.409400  0.343200  0.202300  1
  H  H350  1  0.090600  0.156800  0.702300  1
  H  H351  1  0.590600  0.656800  0.797700  1
  H  H352  1  0.909400  0.843200  0.297700  1
  H  H353  1  0.369400  0.267100  0.239500  1
  H  H354  1  0.130600  0.232900  0.739500  1
  H  H355  1  0.630600  0.732900  0.760500  1
  H  H356  1  0.869400  0.767100  0.260500  1
  H  H357  1  0.206000  0.226800  0.241600  1
  H  H358  1  0.294000  0.273200  0.741600  1
  H  H359  1  0.794000  0.773200  0.758400  1
  H  H360  1  0.706000  0.726800  0.258400  1
  H  H361  1  0.101700  0.257600  0.204700  1
  H  H362  1  0.398300  0.242400  0.704700  1
  H  H363  1  0.898300  0.742400  0.795300  1
  H  H364  1  0.601700  0.757600  0.295300  1
  H  H365  1  0.139800  0.378400  0.152500  1
  H  H366  1  0.360200  0.121600  0.652500  1
  H  H367  1  0.860200  0.621600  0.847500  1
  H  H368  1  0.639800  0.878400  0.347500  1
  H  H369  1  0.063900  0.324500  0.164500  1
  H  H370  1  0.436100  0.175500  0.664500  1
  H  H371  1  0.936100  0.675500  0.835500  1
  H  H372  1  0.563900  0.824500  0.335500  1
  H  H373  1  0.136000  0.308900  0.138600  1
  H  H374  1  0.364000  0.191100  0.638600  1
  H  H375  1  0.864000  0.691100  0.861400  1
  H  H376  1  0.636000  0.808900  0.361400  1
  H  H377  1  0.815400  0.480300  0.200300  1
  H  H378  1  0.684600  0.019700  0.700300  1
  H  H379  1  0.184600  0.519700  0.799700  1
  H  H380  1  0.315400  0.980300  0.299700  1
  H  H381  1  0.684100  0.413500  0.196200  1
  H  H382  1  0.815900  0.086500  0.696200  1
  H  H383  1  0.315900  0.586500  0.803800  1
  H  H384  1  0.184100  0.913500  0.303800  1
  H  H385  1  0.673900  0.325000  0.166900  1
  H  H386  1  0.826100  0.175000  0.666900  1
  H  H387  1  0.326100  0.675000  0.833100  1
  H  H388  1  0.173900  0.825000  0.333100  1
  H  H389  1  0.810800  0.294900  0.141900  1
  H  H390  1  0.689200  0.205100  0.641900  1
  H  H391  1  0.189200  0.705100  0.858100  1
  H  H392  1  0.310800  0.794900  0.358100  1
  H  H393  1  0.951800  0.366200  0.144400  1
  H  H394  1  0.548200  0.133800  0.644400  1
  H  H395  1  0.048200  0.633800  0.855600  1
  H  H396  1  0.451800  0.866200  0.355600  1
  H  H397  1  0.965000  0.518900  0.181200  1
  H  H398  1  0.535000  0.981100  0.681200  1
  H  H399  1  0.035000  0.481100  0.818800  1
  H  H400  1  0.465000  0.018900  0.318800  1
  H  H401  1  0.015700  0.478900  0.156700  1
  H  H402  1  0.484300  0.021100  0.656700  1
  H  H403  1  0.984300  0.521100  0.843300  1
  H  H404  1  0.515700  0.978900  0.343300  1
  H  H405  1  0.021900  0.462300  0.192000  1
  H  H406  1  0.478100  0.037700  0.692000  1
  H  H407  1  0.978100  0.537700  0.808000  1
  H  H408  1  0.521900  0.962300  0.308000  1
  H  H409  1  0.159600  0.546300  0.286200  1
  H  H410  1  0.340400  0.953700  0.786200  1
  H  H411  1  0.840400  0.453700  0.713800  1
  H  H412  1  0.659600  0.046300  0.213800  1
  H  H413  1  0.224900  0.622600  0.317600  1
  H  H414  1  0.275100  0.877400  0.817600  1
  H  H415  1  0.775100  0.377400  0.682400  1
  H  H416  1  0.724900  0.122600  0.182400  1
  H  H417  1  0.152800  0.708400  0.331600  1
  H  H418  1  0.347200  0.791600  0.831600  1
  H  H419  1  0.847200  0.291600  0.668400  1
  H  H420  1  0.652800  0.208400  0.168400  1
  H  H421  1  0.010900  0.728200  0.306400  1
  H  H422  1  0.489100  0.771800  0.806400  1
  H  H423  1  0.989100  0.271800  0.693600  1
  H  H424  1  0.510900  0.228200  0.193600  1
  H  H425  1  0.952000  0.657700  0.266400  1
  H  H426  1  0.548000  0.842300  0.766400  1
  H  H427  1  0.048000  0.342300  0.733600  1
  H  H428  1  0.452000  0.157700  0.233600  1
  H  H429  1  0.061400  0.520100  0.243800  1
  H  H430  1  0.438600  0.979900  0.743800  1
  H  H431  1  0.938600  0.479900  0.756200  1
  H  H432  1  0.561400  0.020100  0.256200  1
  H  H433  1  0.986900  0.566700  0.233500  1
  H  H434  1  0.513100  0.933300  0.733500  1
  H  H435  1  0.013100  0.433300  0.766500  1
  H  H436  1  0.486900  0.066700  0.266500  1
  H  H437  1  0.961700  0.516300  0.259800  1
  H  H438  1  0.538300  0.983700  0.759800  1
  H  H439  1  0.038300  0.483700  0.740200  1
  H  H440  1  0.461700  0.016300  0.240200  1
  C  C441  1  0.885700  0.419500  0.316850  1
  C  C442  1  0.614300  0.080500  0.816850  1
  C  C443  1  0.114300  0.580500  0.683150  1
  C  C444  1  0.385700  0.919500  0.183150  1
  C  C445  1  0.784700  0.417000  0.319590  1
  C  C446  1  0.715300  0.083000  0.819590  1
  C  C447  1  0.215300  0.583000  0.680410  1
  C  C448  1  0.284700  0.917000  0.180410  1
  C  C449  1  0.765600  0.464000  0.338560  1
  C  C450  1  0.734400  0.036000  0.838560  1
  C  C451  1  0.234400  0.536000  0.661440  1
  C  C452  1  0.265600  0.964000  0.161440  1
  C  C453  1  0.853400  0.495700  0.348760  1
  C  C454  1  0.646600  0.004300  0.848760  1
  C  C455  1  0.146600  0.504300  0.651240  1
  C  C456  1  0.353400  0.995700  0.151240  1
  C  C457  1  0.863900  0.546300  0.369120  1
  C  C458  1  0.636100  0.953700  0.869120  1
  C  C459  1  0.136100  0.453700  0.630880  1
  C  C460  1  0.363900  0.046300  0.130880  1
  C  C461  1  0.779300  0.577200  0.378370  1
  C  C462  1  0.720700  0.922800  0.878370  1
  C  C463  1  0.220700  0.422800  0.621630  1
  C  C464  1  0.279300  0.077200  0.121630  1
  C  C465  1  0.745500  0.621200  0.358160  1
  C  C466  1  0.754500  0.878800  0.858160  1
  C  C467  1  0.254500  0.378800  0.641840  1
  C  C468  1  0.245500  0.121200  0.141840  1
  C  C469  1  0.669000  0.652800  0.367100  1
  C  C470  1  0.831000  0.847200  0.867100  1
  C  C471  1  0.331000  0.347200  0.632900  1
  C  C472  1  0.169000  0.152800  0.132900  1
  C  C473  1  0.625000  0.642400  0.395000  1
  C  C474  1  0.875000  0.857600  0.895000  1
  C  C475  1  0.375000  0.357600  0.605000  1
  C  C476  1  0.125000  0.142400  0.105000  1
  C  C477  1  0.659400  0.598400  0.414300  1
  C  C478  1  0.840600  0.901600  0.914300  1
  C  C479  1  0.340600  0.401600  0.585700  1
  C  C480  1  0.159400  0.098400  0.085700  1
  C  C481  1  0.736200  0.566100  0.406500  1
  C  C482  1  0.763800  0.933900  0.906500  1
  C  C483  1  0.263800  0.433900  0.593500  1
  C  C484  1  0.236200  0.066100  0.093500  1
  C  C485  1  0.791600  0.635900  0.327700  1
  C  C486  1  0.708400  0.864100  0.827700  1
  C  C487  1  0.208400  0.364100  0.672300  1
  C  C488  1  0.291600  0.135900  0.172300  1
  C  C489  1  0.545100  0.678400  0.404600  1
  C  C490  1  0.954900  0.821600  0.904600  1
  C  C491  1  0.454900  0.321600  0.595400  1
  C  C492  1  0.045100  0.178400  0.095400  1
  C  C493  1  0.771900  0.519800  0.428680  1
  C  C494  1  0.728100  0.980200  0.928680  1
  C  C495  1  0.228100  0.480200  0.571320  1
  C  C496  1  0.271900  0.019800  0.071320  1
  C  C497  1  0.950300  0.572700  0.380560  1
  C  C498  1  0.549700  0.927300  0.880560  1
  C  C499  1  0.049700  0.427300  0.619440  1
  C  C500  1  0.450300  0.072700  0.119440  1
  C  C501  1  0.960900  0.623100  0.402050  1
  C  C502  1  0.539100  0.876900  0.902050  1
  C  C503  1  0.039100  0.376900  0.597950  1
  C  C504  1  0.460900  0.123100  0.097950  1
  C  C505  1  0.052300  0.634200  0.408300  1
  C  C506  1  0.447700  0.865800  0.908300  1
  C  C507  1  0.947700  0.365800  0.591700  1
  C  C508  1  0.552300  0.134200  0.091700  1
  C  C509  1  0.101400  0.590200  0.391050  1
  C  C510  1  0.398600  0.909800  0.891050  1
  C  C511  1  0.898600  0.409800  0.608950  1
  C  C512  1  0.601400  0.090200  0.108950  1
  C  C513  1  0.197600  0.585200  0.391420  1
  C  C514  1  0.302400  0.914800  0.891420  1
  C  C515  1  0.802400  0.414800  0.608580  1
  C  C516  1  0.697600  0.085200  0.108580  1
  C  C517  1  0.252200  0.629600  0.413300  1
  C  C518  1  0.247800  0.870400  0.913300  1
  C  C519  1  0.747800  0.370400  0.586700  1
  C  C520  1  0.752200  0.129600  0.086700  1
  C  C521  1  0.276400  0.691400  0.405800  1
  C  C522  1  0.223600  0.808600  0.905800  1
  C  C523  1  0.723600  0.308600  0.594200  1
  C  C524  1  0.776400  0.191400  0.094200  1
  C  C525  1  0.322800  0.732100  0.426400  1
  C  C526  1  0.177200  0.767900  0.926400  1
  C  C527  1  0.677200  0.267900  0.573600  1
  C  C528  1  0.822800  0.232100  0.073600  1
  C  C529  1  0.342000  0.711300  0.454300  1
  C  C530  1  0.158000  0.788700  0.954300  1
  C  C531  1  0.658000  0.288700  0.545700  1
  C  C532  1  0.842000  0.211300  0.045700  1
  C  C533  1  0.319900  0.649000  0.462900  1
  C  C534  1  0.180100  0.851000  0.962900  1
  C  C535  1  0.680100  0.351000  0.537100  1
  C  C536  1  0.819900  0.149000  0.037100  1
  C  C537  1  0.273400  0.607100  0.442400  1
  C  C538  1  0.226600  0.892900  0.942400  1
  C  C539  1  0.726600  0.392900  0.557600  1
  C  C540  1  0.773400  0.107100  0.057600  1
  C  C541  1  0.245900  0.544900  0.373700  1
  C  C542  1  0.254100  0.955100  0.873700  1
  C  C543  1  0.754100  0.455100  0.626300  1
  C  C544  1  0.745900  0.044900  0.126300  1
  C  C545  1  0.346400  0.543200  0.373810  1
  C  C546  1  0.153600  0.956800  0.873810  1
  C  C547  1  0.653600  0.456800  0.626190  1
  C  C548  1  0.846400  0.043200  0.126190  1
  C  C549  1  0.365900  0.503000  0.351130  1
  C  C550  1  0.134100  0.997000  0.851130  1
  C  C551  1  0.634100  0.497000  0.648870  1
  C  C552  1  0.865900  0.003000  0.148870  1
  C  C553  1  0.278600  0.478900  0.337620  1
  C  C554  1  0.221400  0.021100  0.837620  1
  C  C555  1  0.721400  0.521100  0.662380  1
  C  C556  1  0.778600  0.978900  0.162380  1
  C  C557  1  0.268600  0.436800  0.313090  1
  C  C558  1  0.231400  0.063200  0.813090  1
  C  C559  1  0.731400  0.563200  0.686910  1
  C  C560  1  0.768600  0.936800  0.186910  1
  C  C561  1  0.357000  0.415700  0.299190  1
  C  C562  1  0.143000  0.084300  0.799190  1
  C  C563  1  0.643000  0.584300  0.700810  1
  C  C564  1  0.857000  0.915700  0.200810  1
  C  C565  1  0.402200  0.367400  0.313260  1
  C  C566  1  0.097800  0.132600  0.813260  1
  C  C567  1  0.597800  0.632600  0.686740  1
  C  C568  1  0.902200  0.867400  0.186740  1
  C  C569  1  0.481800  0.347100  0.300040  1
  C  C570  1  0.018200  0.152900  0.800040  1
  C  C571  1  0.518200  0.652900  0.699960  1
  C  C572  1  0.981800  0.847100  0.199960  1
  C  C573  1  0.516900  0.372300  0.272930  1
  C  C574  1  0.983100  0.127700  0.772930  1
  C  C575  1  0.483100  0.627700  0.727070  1
  C  C576  1  0.016900  0.872300  0.227070  1
  C  C577  1  0.472800  0.419400  0.259300  1
  C  C578  1  0.027200  0.080600  0.759300  1
  C  C579  1  0.527200  0.580600  0.740700  1
  C  C580  1  0.972800  0.919400  0.240700  1
  C  C581  1  0.393200  0.442100  0.272230  1
  C  C582  1  0.106800  0.057900  0.772230  1
  C  C583  1  0.606800  0.557900  0.727770  1
  C  C584  1  0.893200  0.942100  0.227770  1
  C  C585  1  0.365500  0.337900  0.342800  1
  C  C586  1  0.134500  0.162100  0.842800  1
  C  C587  1  0.634500  0.662100  0.657200  1
  C  C588  1  0.865500  0.837900  0.157200  1
  C  C589  1  0.599500  0.345500  0.257800  1
  C  C590  1  0.900500  0.154500  0.757800  1
  C  C591  1  0.400500  0.654500  0.742200  1
  C  C592  1  0.099500  0.845500  0.242200  1
  C  C593  1  0.347100  0.494200  0.256600  1
  C  C594  1  0.152900  0.005800  0.756600  1
  C  C595  1  0.652900  0.505800  0.743400  1
  C  C596  1  0.847100  0.994200  0.243400  1
  C  C597  1  0.182200  0.411400  0.301190  1
  C  C598  1  0.317800  0.088600  0.801190  1
  C  C599  1  0.817800  0.588600  0.698810  1
  C  C600  1  0.682200  0.911400  0.198810  1
  C  C601  1  0.172800  0.365500  0.277090  1
  C  C602  1  0.327200  0.134500  0.777090  1
  C  C603  1  0.827200  0.634500  0.722910  1
  C  C604  1  0.672800  0.865500  0.222910  1
  C  C605  1  0.080800  0.349200  0.273190  1
  C  C606  1  0.419200  0.150800  0.773190  1
  C  C607  1  0.919200  0.650800  0.726810  1
  C  C608  1  0.580800  0.849200  0.226810  1
  C  C609  1  0.031100  0.385400  0.294390  1
  C  C610  1  0.468900  0.114600  0.794390  1
  C  C611  1  0.968900  0.614600  0.705610  1
  C  C612  1  0.531100  0.885400  0.205610  1
  C  C613  1  0.934500  0.380900  0.297930  1
  C  C614  1  0.565500  0.119100  0.797930  1
  C  C615  1  0.065500  0.619100  0.702070  1
  C  C616  1  0.434500  0.880900  0.202070  1
  C  C617  1  0.878700  0.327000  0.282070  1
  C  C618  1  0.621300  0.173000  0.782070  1
  C  C619  1  0.121300  0.673000  0.717930  1
  C  C620  1  0.378700  0.827000  0.217930  1
  C  C621  1  0.851300  0.273400  0.299220  1
  C  C622  1  0.648700  0.226600  0.799220  1
  C  C623  1  0.148700  0.726600  0.700780  1
  C  C624  1  0.351300  0.773400  0.200780  1
  C  C625  1  0.803700  0.219900  0.286540  1
  C  C626  1  0.696300  0.280100  0.786540  1
  C  C627  1  0.196300  0.780100  0.713460  1
  C  C628  1  0.303700  0.719900  0.213460  1
  C  C629  1  0.779100  0.220200  0.256300  1
  C  C630  1  0.720900  0.279800  0.756300  1
  C  C631  1  0.220900  0.779800  0.743700  1
  C  C632  1  0.279100  0.720200  0.243700  1
  C  C633  1  0.805400  0.273800  0.239100  1
  C  C634  1  0.694600  0.226200  0.739100  1
  C  C635  1  0.194600  0.726200  0.760900  1
  C  C636  1  0.305400  0.773800  0.260900  1
  C  C637  1  0.854300  0.326400  0.251490  1
  C  C638  1  0.645700  0.173600  0.751490  1
  C  C639  1  0.145700  0.673600  0.748510  1
  C  C640  1  0.354300  0.826400  0.248510  1
  C  C641  1  0.330900  0.569100  0.499700  1
  C  C642  1  0.169100  0.930900  0.999700  1
  C  C643  1  0.669100  0.430900  0.500300  1
  C  C644  1  0.830900  0.069100  0.000300  1
  C  C645  1  0.387100  0.529300  0.482300  1
  C  C646  1  0.112900  0.970700  0.982300  1
  C  C647  1  0.612900  0.470700  0.517700  1
  C  C648  1  0.887100  0.029300  0.017700  1
  C  C649  1  0.434400  0.499100  0.466600  1
  C  C650  1  0.065600  0.000900  0.966600  1
  C  C651  1  0.565600  0.500900  0.533400  1
  C  C652  1  0.934400  0.999100  0.033400  1
  C  C653  1  0.485300  0.464100  0.447400  1
  C  C654  1  0.014700  0.035900  0.947400  1
  C  C655  1  0.514700  0.535900  0.552600  1
  C  C656  1  0.985300  0.964100  0.052600  1
  C  C657  1  0.529100  0.434300  0.430400  1
  C  C658  1  0.970900  0.065700  0.930400  1
  C  C659  1  0.470900  0.565700  0.569600  1
  C  C660  1  0.029100  0.934300  0.069600  1
  C  C661  1  0.580700  0.396100  0.410200  1
  C  C662  1  0.919300  0.103900  0.910200  1
  C  C663  1  0.419300  0.603900  0.589800  1
  C  C664  1  0.080700  0.896100  0.089800  1
  C  C665  1  0.743800  0.112000  0.295900  1
  C  C666  1  0.756200  0.388000  0.795900  1
  C  C667  1  0.256200  0.888000  0.704100  1
  C  C668  1  0.243800  0.612000  0.204100  1
  C  C669  1  0.735600  0.069500  0.322000  1
  C  C670  1  0.764400  0.430500  0.822000  1
  C  C671  1  0.264400  0.930500  0.678000  1
  C  C672  1  0.235600  0.569500  0.178000  1
  C  C673  1  0.731200  0.039100  0.345200  1
  C  C674  1  0.768800  0.460900  0.845200  1
  C  C675  1  0.268800  0.960900  0.654800  1
  C  C676  1  0.231200  0.539100  0.154800  1
  C  C677  1  0.728700  0.005700  0.372400  1
  C  C678  1  0.771300  0.494300  0.872400  1
  C  C679  1  0.271300  0.994300  0.627600  1
  C  C680  1  0.228700  0.505700  0.127600  1
  C  C681  1  0.729700  0.977600  0.396100  1
  C  C682  1  0.770300  0.522400  0.896100  1
  C  C683  1  0.270300  0.022400  0.603900  1
  C  C684  1  0.229700  0.477600  0.103900  1
  C  C685  1  0.735500  0.942700  0.424300  1
  C  C686  1  0.764500  0.557300  0.924300  1
  C  C687  1  0.264500  0.057300  0.575700  1
  C  C688  1  0.235500  0.442700  0.075700  1
  C  C689  1  0.057400  0.967100  0.354620  1
  C  C690  1  0.442600  0.532900  0.854620  1
  C  C691  1  0.942600  0.032900  0.645380  1
  C  C692  1  0.557400  0.467100  0.145380  1
  C  C693  1  0.979900  0.973900  0.334460  1
  C  C694  1  0.520100  0.526100  0.834460  1
  C  C695  1  0.020100  0.026100  0.665540  1
  C  C696  1  0.479900  0.473900  0.165540  1
  C  C697  1  0.009400  0.017100  0.313470  1
  C  C698  1  0.490600  0.482900  0.813470  1
  C  C699  1  0.990600  0.982900  0.686530  1
  C  C700  1  0.509400  0.517100  0.186530  1
  C  C701  1  0.105500  0.038600  0.319950  1
  C  C702  1  0.394500  0.461400  0.819950  1
  C  C703  1  0.894500  0.961400  0.680050  1
  C  C704  1  0.605500  0.538600  0.180050  1
  C  C705  1  0.162200  0.082700  0.302790  1
  C  C706  1  0.337800  0.417300  0.802790  1
  C  C707  1  0.837800  0.917300  0.697210  1
  C  C708  1  0.662200  0.582700  0.197210  1
  C  C709  1  0.120400  0.102900  0.273280  1
  C  C710  1  0.379600  0.397100  0.773280  1
  C  C711  1  0.879600  0.897100  0.726720  1
  C  C712  1  0.620400  0.602900  0.226720  1
  C  C713  1  0.133900  0.070700  0.246170  1
  C  C714  1  0.366100  0.429300  0.746170  1
  C  C715  1  0.866100  0.929300  0.753830  1
  C  C716  1  0.633900  0.570700  0.253830  1
  C  C717  1  0.084000  0.086400  0.220380  1
  C  C718  1  0.416000  0.413600  0.720380  1
  C  C719  1  0.916000  0.913600  0.779620  1
  C  C720  1  0.584000  0.586400  0.279620  1
  C  C721  1  0.022300  0.132500  0.220700  1
  C  C722  1  0.477700  0.367500  0.720700  1
  C  C723  1  0.977700  0.867500  0.779300  1
  C  C724  1  0.522300  0.632500  0.279300  1
  C  C725  1  0.013400  0.164800  0.247260  1
  C  C726  1  0.486600  0.335200  0.747260  1
  C  C727  1  0.986600  0.835200  0.752740  1
  C  C728  1  0.513400  0.664800  0.252740  1
  C  C729  1  0.060100  0.151600  0.273510  1
  C  C730  1  0.439900  0.348400  0.773510  1
  C  C731  1  0.939900  0.848400  0.726490  1
  C  C732  1  0.560100  0.651600  0.226490  1
  C  C733  1  0.200400  0.021100  0.244900  1
  C  C734  1  0.299600  0.478900  0.744900  1
  C  C735  1  0.799600  0.978900  0.755100  1
  C  C736  1  0.700400  0.521100  0.255100  1
  C  C737  1  0.967300  0.146000  0.192530  1
  C  C738  1  0.532700  0.354000  0.692530  1
  C  C739  1  0.032700  0.854000  0.807470  1
  C  C740  1  0.467300  0.646000  0.307470  1
  C  C741  1  0.045200  0.187800  0.302310  1
  C  C742  1  0.454800  0.312200  0.802310  1
  C  C743  1  0.954800  0.812200  0.697690  1
  C  C744  1  0.545200  0.687800  0.197690  1
  C  C745  1  0.251300  0.108200  0.311360  1
  C  C746  1  0.248700  0.391800  0.811360  1
  C  C747  1  0.748700  0.891800  0.688640  1
  C  C748  1  0.751300  0.608200  0.188640  1
  C  C749  1  0.305200  0.159100  0.295980  1
  C  C750  1  0.194800  0.340900  0.795980  1
  C  C751  1  0.694800  0.840900  0.704020  1
  C  C752  1  0.805200  0.659100  0.204020  1
  C  C753  1  0.380700  0.176600  0.313370  1
  C  C754  1  0.119300  0.323400  0.813370  1
  C  C755  1  0.619300  0.823400  0.686630  1
  C  C756  1  0.880700  0.676600  0.186630  1
  C  C757  1  0.377600  0.134300  0.339080  1
  C  C758  1  0.122400  0.365700  0.839080  1
  C  C759  1  0.622400  0.865700  0.660920  1
  C  C760  1  0.877600  0.634300  0.160920  1
  C  C761  1  0.444400  0.135800  0.362610  1
  C  C762  1  0.055600  0.364200  0.862610  1
  C  C763  1  0.555600  0.864200  0.637390  1
  C  C764  1  0.944400  0.635800  0.137390  1
  C  C765  1  0.515400  0.192900  0.364870  1
  C  C766  1  0.984600  0.307100  0.864870  1
  C  C767  1  0.484600  0.807100  0.635130  1
  C  C768  1  0.015400  0.692900  0.135130  1
  C  C769  1  0.588700  0.203300  0.344800  1
  C  C770  1  0.911300  0.296700  0.844800  1
  C  C771  1  0.411300  0.796700  0.655200  1
  C  C772  1  0.088700  0.703300  0.155200  1
  C  C773  1  0.650100  0.258900  0.347900  1
  C  C774  1  0.849900  0.241100  0.847900  1
  C  C775  1  0.349900  0.741100  0.652100  1
  C  C776  1  0.150100  0.758900  0.152100  1
  C  C777  1  0.635700  0.302800  0.369900  1
  C  C778  1  0.864300  0.197200  0.869900  1
  C  C779  1  0.364300  0.697200  0.630100  1
  C  C780  1  0.135700  0.802800  0.130100  1
  C  C781  1  0.562400  0.292500  0.389500  1
  C  C782  1  0.937600  0.207500  0.889500  1
  C  C783  1  0.437600  0.707500  0.610500  1
  C  C784  1  0.062400  0.792500  0.110500  1
  C  C785  1  0.502900  0.237000  0.387170  1
  C  C786  1  0.997100  0.263000  0.887170  1
  C  C787  1  0.497100  0.763000  0.612830  1
  C  C788  1  0.002900  0.737000  0.112830  1
  C  C789  1  0.446900  0.091100  0.385860  1
  C  C790  1  0.053100  0.408900  0.885860  1
  C  C791  1  0.553100  0.908900  0.614140  1
  C  C792  1  0.946900  0.591100  0.114140  1
  C  C793  1  0.521500  0.089500  0.407800  1
  C  C794  1  0.978500  0.410500  0.907800  1
  C  C795  1  0.478500  0.910500  0.592200  1
  C  C796  1  0.021500  0.589500  0.092200  1
  C  C797  1  0.500100  0.038400  0.425200  1
  C  C798  1  0.999900  0.461600  0.925200  1
  C  C799  1  0.499900  0.961600  0.574800  1
  C  C800  1  0.000100  0.538400  0.074800  1
  C  C801  1  0.410700  0.008500  0.414680  1
  C  C802  1  0.089300  0.491500  0.914680  1
  C  C803  1  0.589300  0.991500  0.585320  1
  C  C804  1  0.910700  0.508500  0.085320  1
  C  C805  1  0.364300  0.954700  0.428130  1
  C  C806  1  0.135700  0.545300  0.928130  1
  C  C807  1  0.635700  0.045300  0.571870  1
  C  C808  1  0.864300  0.454700  0.071870  1
  C  C809  1  0.407000  0.922400  0.454150  1
  C  C810  1  0.093000  0.577600  0.954150  1
  C  C811  1  0.593000  0.077600  0.545850  1
  C  C812  1  0.907000  0.422400  0.045850  1
  C  C813  1  0.375900  0.930700  0.484100  1
  C  C814  1  0.124100  0.569300  0.984100  1
  C  C815  1  0.624100  0.069300  0.515900  1
  C  C816  1  0.875900  0.430700  0.015900  1
  C  C817  1  0.403000  0.892000  0.506500  1
  C  C818  1  0.097000  0.608000  0.006500  1
  C  C819  1  0.597000  0.108000  0.493500  1
  C  C820  1  0.903000  0.392000  0.993500  1
  C  C821  1  0.463700  0.846300  0.501600  1
  C  C822  1  0.036300  0.653700  0.001600  1
  C  C823  1  0.536300  0.153700  0.498400  1
  C  C824  1  0.963700  0.346300  0.998400  1
  C  C825  1  0.499900  0.842200  0.472700  1
  C  C826  1  0.000100  0.657800  0.972700  1
  C  C827  1  0.500100  0.157800  0.527300  1
  C  C828  1  0.999900  0.342200  0.027300  1
  C  C829  1  0.473000  0.878700  0.448810  1
  C  C830  1  0.027000  0.621300  0.948810  1
  C  C831  1  0.527000  0.121300  0.551190  1
  C  C832  1  0.973000  0.378700  0.051190  1
  C  C833  1  0.311500  0.982300  0.490600  1
  C  C834  1  0.188500  0.517700  0.990600  1
  C  C835  1  0.688500  0.017700  0.509400  1
  C  C836  1  0.811500  0.482300  0.009400  1
  C  C837  1  0.484900  0.801200  0.526700  1
  C  C838  1  0.015100  0.698800  0.026700  1
  C  C839  1  0.515100  0.198800  0.473300  1
  C  C840  1  0.984900  0.301200  0.973300  1
  C  C841  1  0.507600  0.868700  0.416900  1
  C  C842  1  0.992400  0.631300  0.916900  1
  C  C843  1  0.492400  0.131300  0.583100  1
  C  C844  1  0.007600  0.368700  0.083100  1
  C  C845  1  0.275100  0.928600  0.418860  1
  C  C846  1  0.224900  0.571400  0.918860  1
  C  C847  1  0.724900  0.071400  0.581140  1
  C  C848  1  0.775100  0.428600  0.081140  1
  C  C849  1  0.224400  0.874000  0.432500  1
  C  C850  1  0.275600  0.626000  0.932500  1
  C  C851  1  0.775600  0.126000  0.567500  1
  C  C852  1  0.724400  0.374000  0.067500  1
  C  C853  1  0.140300  0.865000  0.418670  1
  C  C854  1  0.359700  0.635000  0.918670  1
  C  C855  1  0.859700  0.135000  0.581330  1
  C  C856  1  0.640300  0.365000  0.081330  1
  C  C857  1  0.137500  0.913100  0.396180  1
  C  C858  1  0.362500  0.586900  0.896180  1
  C  C859  1  0.862500  0.086900  0.603820  1
  C  C860  1  0.637500  0.413100  0.103820  1
  C  C861  1  0.060400  0.922000  0.377580  1
  C  C862  1  0.439600  0.578000  0.877580  1
  C  C863  1  0.939600  0.078000  0.622420  1
  C  C864  1  0.560400  0.422000  0.122420  1
  C  C865  1  0.973800  0.878100  0.383340  1
  C  C866  1  0.526200  0.621900  0.883340  1
  C  C867  1  0.026200  0.121900  0.616660  1
  C  C868  1  0.473800  0.378100  0.116660  1
  C  C869  1  0.898300  0.900000  0.398350  1
  C  C870  1  0.601700  0.600000  0.898350  1
  C  C871  1  0.101700  0.100000  0.601650  1
  C  C872  1  0.398300  0.400000  0.101650  1
  C  C873  1  0.818900  0.859400  0.404520  1
  C  C874  1  0.681100  0.640600  0.904520  1
  C  C875  1  0.181100  0.140600  0.595480  1
  C  C876  1  0.318900  0.359400  0.095480  1
  C  C877  1  0.815200  0.796900  0.396120  1
  C  C878  1  0.684800  0.703100  0.896120  1
  C  C879  1  0.184800  0.203100  0.603880  1
  C  C880  1  0.315200  0.296900  0.103880  1
  C  C881  1  0.889800  0.775100  0.381100  1
  C  C882  1  0.610200  0.724900  0.881100  1
  C  C883  1  0.110200  0.224900  0.618900  1
  C  C884  1  0.389800  0.275100  0.118900  1
  C  C885  1  0.968200  0.815720  0.375000  1
  C  C886  1  0.531800  0.684280  0.875000  1
  C  C887  1  0.031800  0.184280  0.625000  1
  C  C888  1  0.468200  0.315720  0.125000  1
  C  C889  1  0.196300  0.315460  0.181530  1
  C  C890  1  0.303700  0.184540  0.681530  1
  C  C891  1  0.803700  0.684540  0.818470  1
  C  C892  1  0.696300  0.815460  0.318470  1
  C  C893  1  0.287000  0.342120  0.180570  1
  C  C894  1  0.213000  0.157880  0.680570  1
  C  C895  1  0.713000  0.657880  0.819430  1
  C  C896  1  0.787000  0.842120  0.319430  1
  C  C897  1  0.347300  0.323940  0.202730  1
  C  C898  1  0.152700  0.176060  0.702730  1
  C  C899  1  0.652700  0.676060  0.797270  1
  C  C900  1  0.847300  0.823940  0.297270  1
  C  C901  1  0.324900  0.279910  0.225580  1
  C  C902  1  0.175100  0.220090  0.725580  1
  C  C903  1  0.675100  0.720090  0.774420  1
  C  C904  1  0.824900  0.779910  0.274420  1
  C  C905  1  0.227800  0.255510  0.226160  1
  C  C906  1  0.272200  0.244490  0.726160  1
  C  C907  1  0.772200  0.744490  0.773840  1
  C  C908  1  0.727800  0.755510  0.273840  1
  C  C909  1  0.165200  0.273910  0.204020  1
  C  C910  1  0.334800  0.226090  0.704020  1
  C  C911  1  0.834800  0.726090  0.795980  1
  C  C912  1  0.665200  0.773910  0.295980  1
  C  C913  1  0.127800  0.333460  0.157050  1
  C  C914  1  0.372200  0.166540  0.657050  1
  C  C915  1  0.872200  0.666540  0.842950  1
  C  C916  1  0.627800  0.833460  0.342950  1
  C  C917  1  0.891500  0.430050  0.173080  1
  C  C918  1  0.608500  0.069950  0.673080  1
  C  C919  1  0.108500  0.569950  0.826920  1
  C  C920  1  0.391500  0.930050  0.326920  1
  C  C921  1  0.814800  0.443600  0.188140  1
  C  C922  1  0.685200  0.056400  0.688140  1
  C  C923  1  0.185200  0.556400  0.811860  1
  C  C924  1  0.314800  0.943600  0.311860  1
  C  C925  1  0.737900  0.403800  0.185480  1
  C  C926  1  0.762100  0.096200  0.685480  1
  C  C927  1  0.262100  0.596200  0.814520  1
  C  C928  1  0.237900  0.903800  0.314520  1
  C  C929  1  0.731400  0.350460  0.168510  1
  C  C930  1  0.768600  0.149540  0.668510  1
  C  C931  1  0.268600  0.649540  0.831490  1
  C  C932  1  0.231400  0.850460  0.331490  1
  C  C933  1  0.812800  0.333150  0.153030  1
  C  C934  1  0.687200  0.166850  0.653030  1
  C  C935  1  0.187200  0.666850  0.846970  1
  C  C936  1  0.312800  0.833150  0.346970  1
  C  C937  1  0.896500  0.374590  0.154670  1
  C  C938  1  0.603500  0.125410  0.654670  1
  C  C939  1  0.103500  0.625410  0.845330  1
  C  C940  1  0.396500  0.874590  0.345330  1
  C  C941  1  0.982000  0.476930  0.176020  1
  C  C942  1  0.518000  0.023070  0.676020  1
  C  C943  1  0.018000  0.523070  0.823980  1
  C  C944  1  0.482000  0.976930  0.323980  1
  C  C945  1  0.051200  0.593600  0.275000  1
  C  C946  1  0.448800  0.906400  0.775000  1
  C  C947  1  0.948800  0.406400  0.725000  1
  C  C948  1  0.551200  0.093600  0.225000  1
  C  C949  1  0.130300  0.583600  0.289500  1
  C  C950  1  0.369700  0.916400  0.789500  1
  C  C951  1  0.869700  0.416400  0.710500  1
  C  C952  1  0.630300  0.083600  0.210500  1
  C  C953  1  0.166400  0.628100  0.308700  1
  C  C954  1  0.333600  0.871900  0.808700  1
  C  C955  1  0.833600  0.371900  0.691300  1
  C  C956  1  0.666400  0.128100  0.191300  1
  C  C957  1  0.126000  0.680500  0.316500  1
  C  C958  1  0.374000  0.819500  0.816500  1
  C  C959  1  0.874000  0.319500  0.683500  1
  C  C960  1  0.626000  0.180500  0.183500  1
  C  C961  1  0.041600  0.692300  0.301300  1
  C  C962  1  0.458400  0.807700  0.801300  1
  C  C963  1  0.958400  0.307700  0.698700  1
  C  C964  1  0.541600  0.192300  0.198700  1
  C  C965  1  0.004100  0.649700  0.278500  1
  C  C966  1  0.495900  0.850300  0.778500  1
  C  C967  1  0.995900  0.350300  0.721500  1
  C  C968  1  0.504100  0.149700  0.221500  1
  C  C969  1  0.011600  0.544600  0.250800  1
  C  C970  1  0.488400  0.955400  0.750800  1
  C  C971  1  0.988400  0.455400  0.749200  1
  C  C972  1  0.511600  0.044600  0.249200  1
  C  C973  1  0.741130  0.734100  0.103670  1
  C  C974  1  0.758870  0.765900  0.603670  1
  C  C975  1  0.258870  0.265900  0.896330  1
  C  C976  1  0.241130  0.234100  0.396330  1
  C  C977  1  0.768010  0.792010  0.088040  1
  C  C978  1  0.731990  0.707990  0.588040  1
  C  C979  1  0.231990  0.207990  0.911960  1
  C  C980  1  0.268010  0.292010  0.411960  1
  C  C981  1  0.723260  0.843940  0.098220  1
  C  C982  1  0.776740  0.656060  0.598220  1
  C  C983  1  0.276740  0.156060  0.901780  1
  C  C984  1  0.223260  0.343940  0.401780  1
  C  C985  1  0.645100  0.837500  0.117460  1
  C  C986  1  0.854900  0.662500  0.617460  1
  C  C987  1  0.354900  0.162500  0.882540  1
  C  C988  1  0.145100  0.337500  0.382540  1
  C  C989  1  0.606700  0.777380  0.127690  1
  C  C990  1  0.893300  0.722620  0.627690  1
  C  C991  1  0.393300  0.222620  0.872310  1
  C  C992  1  0.106700  0.277380  0.372310  1
  C  C993  1  0.662700  0.727240  0.122790  1
  C  C994  1  0.837300  0.772760  0.622790  1
  C  C995  1  0.337300  0.272760  0.877210  1
  C  C996  1  0.162700  0.227240  0.377210  1
  C  C997  1  0.622000  0.662030  0.120710  1
  C  C998  1  0.878000  0.837970  0.620710  1
  C  C999  1  0.378000  0.337970  0.879290  1
  C  C1000  1  0.122000  0.162030  0.379290  1
  C  C1001  1  0.678500  0.630260  0.100110  1
  C  C1002  1  0.821500  0.869740  0.600110  1
  C  C1003  1  0.321500  0.369740  0.899890  1
  C  C1004  1  0.178500  0.130260  0.399890  1
  C  C1005  1  0.751390  0.674710  0.089250  1
  C  C1006  1  0.748610  0.825290  0.589250  1
  C  C1007  1  0.248610  0.325290  0.910750  1
  C  C1008  1  0.251390  0.174710  0.410750  1
  C  C1009  1  0.779660  0.672000  0.059670  1
  C  C1010  1  0.720340  0.828000  0.559670  1
  C  C1011  1  0.220340  0.328000  0.940330  1
  C  C1012  1  0.279660  0.172000  0.440330  1
  C  C1013  1  0.800710  0.730270  0.042180  1
  C  C1014  1  0.699290  0.769730  0.542180  1
  C  C1015  1  0.199290  0.269730  0.957820  1
  C  C1016  1  0.300710  0.230270  0.457820  1
  C  C1017  1  0.797130  0.788980  0.056600  1
  C  C1018  1  0.702870  0.711020  0.556600  1
  C  C1019  1  0.202870  0.211020  0.943400  1
  C  C1020  1  0.297130  0.288980  0.443400  1
  C  C1021  1  0.781670  0.840170  0.037160  1
  C  C1022  1  0.718330  0.659830  0.537160  1
  C  C1023  1  0.218330  0.159830  0.962840  1
  C  C1024  1  0.281670  0.340170  0.462840  1
  C  C1025  1  0.742740  0.894490  0.048430  1
  C  C1026  1  0.757260  0.605510  0.548430  1
  C  C1027  1  0.257260  0.105510  0.951570  1
  C  C1028  1  0.242740  0.394490  0.451570  1
  C  C1029  1  0.714200  0.896920  0.078000  1
  C  C1030  1  0.785800  0.603080  0.578000  1
  C  C1031  1  0.285800  0.103080  0.922000  1
  C  C1032  1  0.214200  0.396920  0.422000  1
  C  C1033  1  0.628200  0.922930  0.085880  1
  C  C1034  1  0.871800  0.577070  0.585880  1
  C  C1035  1  0.371800  0.077070  0.914120  1
  C  C1036  1  0.128200  0.422930  0.414120  1
  C  C1037  1  0.583900  0.885150  0.110060  1
  C  C1038  1  0.916100  0.614850  0.610060  1
  C  C1039  1  0.416100  0.114850  0.889940  1
  C  C1040  1  0.083900  0.385150  0.389940  1
  C  C1041  1  0.489400  0.872690  0.110670  1
  C  C1042  1  0.010600  0.627310  0.610670  1
  C  C1043  1  0.510600  0.127310  0.889330  1
  C  C1044  1  0.989400  0.372690  0.389330  1
  C  C1045  1  0.448800  0.810550  0.119270  1
  C  C1046  1  0.051200  0.689450  0.619270  1
  C  C1047  1  0.551200  0.189450  0.880730  1
  C  C1048  1  0.948800  0.310550  0.380730  1
  C  C1049  1  0.504100  0.763070  0.128620  1
  C  C1050  1  0.995900  0.736930  0.628620  1
  C  C1051  1  0.495900  0.236930  0.871380  1
  C  C1052  1  0.004100  0.263070  0.371380  1
  C  C1053  1  0.465800  0.700890  0.124420  1
  C  C1054  1  0.034200  0.799110  0.624420  1
  C  C1055  1  0.534200  0.299110  0.875580  1
  C  C1056  1  0.965800  0.200890  0.375580  1
  C  C1057  1  0.526200  0.649640  0.121620  1
  C  C1058  1  0.973800  0.850360  0.621620  1
  C  C1059  1  0.473800  0.350360  0.878380  1
  C  C1060  1  0.026200  0.149640  0.378380  1
  C  C1061  1  0.482400  0.602770  0.101730  1
  C  C1062  1  0.017600  0.897230  0.601730  1
  C  C1063  1  0.517600  0.397230  0.898270  1
  C  C1064  1  0.982400  0.102770  0.398270  1
  C  C1065  1  0.534600  0.570550  0.081840  1
  C  C1066  1  0.965400  0.929450  0.581840  1
  C  C1067  1  0.465400  0.429450  0.918160  1
  C  C1068  1  0.034600  0.070550  0.418160  1
  C  C1069  1  0.635500  0.584330  0.080860  1
  C  C1070  1  0.864500  0.915670  0.580860  1
  C  C1071  1  0.364500  0.415670  0.919140  1
  C  C1072  1  0.135500  0.084330  0.419140  1
  C  C1073  1  0.665100  0.581820  0.049800  1
  C  C1074  1  0.834900  0.918180  0.549800  1
  C  C1075  1  0.334900  0.418180  0.950200  1
  C  C1076  1  0.165100  0.081820  0.450200  1
  C  C1077  1  0.735700  0.624800  0.039720  1
  C  C1078  1  0.764300  0.875200  0.539720  1
  C  C1079  1  0.264300  0.375200  0.960280  1
  C  C1080  1  0.235700  0.124800  0.460280  1
  C  C1081  1  0.728600  0.654890  0.009610  1
  C  C1082  1  0.771400  0.845110  0.509610  1
  C  C1083  1  0.271400  0.345110  0.990390  1
  C  C1084  1  0.228600  0.154890  0.490390  1
  C  C1085  1  0.768760  0.718460  0.012710  1
  C  C1086  1  0.731240  0.781540  0.512710  1
  C  C1087  1  0.231240  0.281540  0.987290  1
  C  C1088  1  0.268760  0.218460  0.487290  1
  C  C1089  1  0.733980  0.766970  0.995220  1
  C  C1090  1  0.766020  0.733030  0.495220  1
  C  C1091  1  0.266020  0.233030  0.004780  1
  C  C1092  1  0.233980  0.266970  0.504780  1
  C  C1093  1  0.749980  0.829260  0.006730  1
  C  C1094  1  0.750020  0.670740  0.506730  1
  C  C1095  1  0.250020  0.170740  0.993270  1
  C  C1096  1  0.249980  0.329260  0.493270  1
  C  C1097  1  0.691500  0.876950  0.998810  1
  C  C1098  1  0.808500  0.623050  0.498810  1
  C  C1099  1  0.308500  0.123050  0.001190  1
  C  C1100  1  0.191500  0.376950  0.501190  1
  C  C1101  1  0.686900  0.918660  0.024320  1
  C  C1102  1  0.813100  0.581340  0.524320  1
  C  C1103  1  0.313100  0.081340  0.975680  1
  C  C1104  1  0.186900  0.418660  0.475680  1
  C  C1105  1  0.603700  0.943470  0.031620  1
  C  C1106  1  0.896300  0.556530  0.531620  1
  C  C1107  1  0.396300  0.056530  0.968380  1
  C  C1108  1  0.103700  0.443470  0.468380  1
  C  C1109  1  0.574900  0.946360  0.062650  1
  C  C1110  1  0.925100  0.553640  0.562650  1
  C  C1111  1  0.425100  0.053640  0.937350  1
  C  C1112  1  0.074900  0.446360  0.437350  1
  C  C1113  1  0.474900  0.932820  0.063720  1
  C  C1114  1  0.025100  0.567180  0.563720  1
  C  C1115  1  0.525100  0.067180  0.936280  1
  C  C1116  1  0.974900  0.432820  0.436280  1
  C  C1117  1  0.431700  0.895630  0.087330  1
  C  C1118  1  0.068300  0.604370  0.587330  1
  C  C1119  1  0.568300  0.104370  0.912670  1
  C  C1120  1  0.931700  0.395630  0.412670  1
  C  C1121  1  0.357790  0.847990  0.080920  1
  C  C1122  1  0.142210  0.652010  0.580920  1
  C  C1123  1  0.642210  0.152010  0.919080  1
  C  C1124  1  0.857790  0.347990  0.419080  1
  C  C1125  1  0.367240  0.795480  0.100550  1
  C  C1126  1  0.132760  0.704520  0.600550  1
  C  C1127  1  0.632760  0.204520  0.899450  1
  C  C1128  1  0.867240  0.295480  0.399450  1
  C  C1129  1  0.341760  0.732520  0.091080  1
  C  C1130  1  0.158240  0.767480  0.591080  1
  C  C1131  1  0.658240  0.267480  0.908920  1
  C  C1132  1  0.841760  0.232520  0.408920  1
  C  C1133  1  0.386900  0.684330  0.106040  1
  C  C1134  1  0.113100  0.815670  0.606040  1
  C  C1135  1  0.613100  0.315670  0.893960  1
  C  C1136  1  0.886900  0.184330  0.393960  1
  C  C1137  1  0.395600  0.625250  0.092070  1
  C  C1138  1  0.104400  0.874750  0.592070  1
  C  C1139  1  0.604400  0.374750  0.907930  1
  C  C1140  1  0.895600  0.125250  0.407930  1
  C  C1141  1  0.365950  0.614810  0.062470  1
  C  C1142  1  0.134050  0.885190  0.562470  1
  C  C1143  1  0.634050  0.385190  0.937530  1
  C  C1144  1  0.865950  0.114810  0.437530  1
  C  C1145  1  0.418800  0.580810  0.041580  1
  C  C1146  1  0.081200  0.919190  0.541580  1
  C  C1147  1  0.581200  0.419190  0.958420  1
  C  C1148  1  0.918800  0.080810  0.458420  1
  C  C1149  1  0.503400  0.559200  0.050810  1
  C  C1150  1  0.996600  0.940800  0.550810  1
  C  C1151  1  0.496600  0.440800  0.949190  1
  C  C1152  1  0.003400  0.059200  0.449190  1
  C  C1153  1  0.582900  0.566550  0.031080  1
  C  C1154  1  0.917100  0.933450  0.531080  1
  C  C1155  1  0.417100  0.433450  0.968920  1
  C  C1156  1  0.082900  0.066550  0.468920  1
  C  C1157  1  0.576400  0.595340  0.002920  1
  C  C1158  1  0.923600  0.904660  0.502920  1
  C  C1159  1  0.423600  0.404660  0.997080  1
  C  C1160  1  0.076400  0.095340  0.497080  1
  C  C1161  1  0.650200  0.639960  0.992100  1
  C  C1162  1  0.849800  0.860040  0.492100  1
  C  C1163  1  0.349800  0.360040  0.007900  1
  C  C1164  1  0.150200  0.139960  0.507900  1
  C  C1165  1  0.609900  0.689190  0.975730  1
  C  C1166  1  0.890100  0.810810  0.475730  1
  C  C1167  1  0.390100  0.310810  0.024270  1
  C  C1168  1  0.109900  0.189190  0.524270  1
  C  C1169  1  0.650700  0.751360  0.976010  1
  C  C1170  1  0.849300  0.748640  0.476010  1
  C  C1171  1  0.349300  0.248640  0.023990  1
  C  C1172  1  0.150700  0.251360  0.523990  1
  C  C1173  1  0.589700  0.799090  0.970320  1
  C  C1174  1  0.910300  0.700910  0.470320  1
  C  C1175  1  0.410300  0.200910  0.029680  1
  C  C1176  1  0.089700  0.299090  0.529680  1
  C  C1177  1  0.613300  0.862990  0.981430  1
  C  C1178  1  0.886700  0.637010  0.481430  1
  C  C1179  1  0.386700  0.137010  0.018570  1
  C  C1180  1  0.113300  0.362990  0.518570  1
  C  C1181  1  0.527500  0.888940  0.988420  1
  C  C1182  1  0.972500  0.611060  0.488420  1
  C  C1183  1  0.472500  0.111060  0.011580  1
  C  C1184  1  0.027500  0.388940  0.511580  1
  C  C1185  1  0.521800  0.928060  0.012890  1
  C  C1186  1  0.978200  0.571940  0.512890  1
  C  C1187  1  0.478200  0.071940  0.987110  1
  C  C1188  1  0.021800  0.428060  0.487110  1
  C  C1189  1  0.442100  0.921240  0.033050  1
  C  C1190  1  0.057900  0.578760  0.533050  1
  C  C1191  1  0.557900  0.078760  0.966950  1
  C  C1192  1  0.942100  0.421240  0.466950  1
  C  C1193  1  0.370450  0.874570  0.027360  1
  C  C1194  1  0.129550  0.625430  0.527360  1
  C  C1195  1  0.629550  0.125430  0.972640  1
  C  C1196  1  0.870450  0.374570  0.472640  1
  C  C1197  1  0.328750  0.838140  0.051620  1
  C  C1198  1  0.171250  0.661860  0.551620  1
  C  C1199  1  0.671250  0.161860  0.948380  1
  C  C1200  1  0.828750  0.338140  0.448380  1
  C  C1201  1  0.307050  0.773610  0.040540  1
  C  C1202  1  0.192950  0.726390  0.540540  1
  C  C1203  1  0.692950  0.226390  0.959460  1
  C  C1204  1  0.807050  0.273610  0.459460  1
  C  C1205  1  0.309080  0.721550  0.060080  1
  C  C1206  1  0.190920  0.778450  0.560080  1
  C  C1207  1  0.690920  0.278450  0.939920  1
  C  C1208  1  0.809080  0.221550  0.439920  1
  C  C1209  1  0.325000  0.663870  0.046020  1
  C  C1210  1  0.175000  0.836130  0.546020  1
  C  C1211  1  0.675000  0.336130  0.953980  1
  C  C1212  1  0.825000  0.163870  0.453980  1
  C  C1213  1  0.354540  0.661160  0.015450  1
  C  C1214  1  0.145460  0.838840  0.515450  1
  C  C1215  1  0.645460  0.338840  0.984550  1
  C  C1216  1  0.854540  0.161160  0.484550  1
  C  C1217  1  0.413100  0.610530  0.012360  1
  C  C1218  1  0.086900  0.889470  0.512360  1
  C  C1219  1  0.586900  0.389470  0.987640  1
  C  C1220  1  0.913100  0.110530  0.487640  1
  C  C1221  1  0.489900  0.617390  0.993160  1
  C  C1222  1  0.010100  0.882610  0.493160  1
  C  C1223  1  0.510100  0.382610  0.006840  1
  C  C1224  1  0.989900  0.117390  0.506840  1
  C  C1225  1  0.510400  0.675260  0.976530  1
  C  C1226  1  0.989600  0.824740  0.476530  1
  C  C1227  1  0.489600  0.324740  0.023470  1
  C  C1228  1  0.010400  0.175260  0.523470  1
  C  C1229  1  0.451100  0.723570  0.977530  1
  C  C1230  1  0.048900  0.776430  0.477530  1
  C  C1231  1  0.548900  0.276430  0.022470  1
  C  C1232  1  0.951100  0.223570  0.522470  1
  C  C1233  1  0.492500  0.785180  0.971190  1
  C  C1234  1  0.007500  0.714820  0.471190  1
  C  C1235  1  0.507500  0.214820  0.028810  1
  C  C1236  1  0.992500  0.285180  0.528810  1
  C  C1237  1  0.452200  0.840080  0.982400  1
  C  C1238  1  0.047800  0.659920  0.482400  1
  C  C1239  1  0.547800  0.159920  0.017600  1
  C  C1240  1  0.952200  0.340080  0.517600  1
  C  C1241  1  0.376600  0.833430  0.001170  1
  C  C1242  1  0.123400  0.666570  0.501170  1
  C  C1243  1  0.623400  0.166570  0.998830  1
  C  C1244  1  0.876600  0.333430  0.498830  1
  C  C1245  1  0.336390  0.771260  0.010150  1
  C  C1246  1  0.163610  0.728740  0.510150  1
  C  C1247  1  0.663610  0.228740  0.989850  1
  C  C1248  1  0.836390  0.271260  0.489850  1
  C  C1249  1  0.370070  0.716080  0.997710  1
  C  C1250  1  0.129930  0.783920  0.497710  1
  C  C1251  1  0.629930  0.283920  0.002290  1
  C  C1252  1  0.870070  0.216080  0.502290  1
  C  C1253  1  0.303900  0.777100  0.074160  1
  C  C1254  1  0.196100  0.722900  0.574160  1
  C  C1255  1  0.696100  0.222900  0.925840  1
  C  C1256  1  0.803900  0.277100  0.425840  1
  C  C1257  1  0.344900  0.855800  0.034670  1
  C  C1258  1  0.155100  0.644200  0.534670  1
  C  C1259  1  0.655100  0.144200  0.965330  1
  C  C1260  1  0.844900  0.355800  0.465330  1
  C  C1261  1  0.340600  0.805100  0.011910  1
  C  C1262  1  0.159400  0.694900  0.511910  1
  C  C1263  1  0.659400  0.194900  0.988090  1
  C  C1264  1  0.840600  0.305100  0.488090  1
  C  C1265  1  0.312100  0.742500  0.020710  1
  C  C1266  1  0.187900  0.757500  0.520710  1
  C  C1267  1  0.687900  0.257500  0.979290  1
  C  C1268  1  0.812100  0.242500  0.479290  1
  C  C1269  1  0.344300  0.694500  0.002100  1
  C  C1270  1  0.155700  0.805500  0.502100  1
  C  C1271  1  0.655700  0.305500  0.997900  1
  C  C1272  1  0.844300  0.194500  0.497900  1
  C  C1273  1  0.353000  0.632400  0.013180  1
  C  C1274  1  0.147000  0.867600  0.513180  1
  C  C1275  1  0.647000  0.367600  0.986820  1
  C  C1276  1  0.853000  0.132400  0.486820  1
  C  C1277  1  0.335800  0.618600  0.043100  1
  C  C1278  1  0.164200  0.881400  0.543100  1
  C  C1279  1  0.664200  0.381400  0.956900  1
  C  C1280  1  0.835800  0.118600  0.456900  1
  C  C1281  1  0.395000  0.580000  0.059930  1
  C  C1282  1  0.105000  0.920000  0.559930  1
  C  C1283  1  0.605000  0.420000  0.940070  1
  C  C1284  1  0.895000  0.080000  0.440070  1
  C  C1285  1  0.405000  0.605000  0.090420  1
  C  C1286  1  0.095000  0.895000  0.590420  1
  C  C1287  1  0.595000  0.395000  0.909580  1
  C  C1288  1  0.905000  0.105000  0.409580  1
  C  C1289  1  0.488500  0.605100  0.105100  1
  C  C1290  1  0.011500  0.894900  0.605100  1
  C  C1291  1  0.511500  0.394900  0.894900  1
  C  C1292  1  0.988500  0.105100  0.394900  1
  C  C1293  1  0.523100  0.659800  0.122700  1
  C  C1294  1  0.976900  0.840200  0.622700  1
  C  C1295  1  0.476900  0.340200  0.877300  1
  C  C1296  1  0.023100  0.159800  0.377300  1
  C  C1297  1  0.292600  0.727000  0.052320  1
  C  C1298  1  0.207400  0.773000  0.552320  1
  C  C1299  1  0.707400  0.273000  0.947680  1
  C  C1300  1  0.792600  0.227000  0.447680  1
  C  C1301  1  0.470500  0.711600  0.126700  1
  C  C1302  1  0.029500  0.788400  0.626700  1
  C  C1303  1  0.529500  0.288400  0.873300  1
  C  C1304  1  0.970500  0.211600  0.373300  1
  C  C1305  1  0.521000  0.769600  0.132900  1
  C  C1306  1  0.979000  0.730400  0.632900  1
  C  C1307  1  0.479000  0.230400  0.867100  1
  C  C1308  1  0.021000  0.269600  0.367100  1
  C  C1309  1  0.481300  0.828700  0.125800  1
  C  C1310  1  0.018700  0.671300  0.625800  1
  C  C1311  1  0.518700  0.171300  0.874200  1
  C  C1312  1  0.981300  0.328700  0.374200  1
  C  C1313  1  0.555900  0.874900  0.118000  1
  C  C1314  1  0.944100  0.625100  0.618000  1
  C  C1315  1  0.444100  0.125100  0.882000  1
  C  C1316  1  0.055900  0.374900  0.382000  1
  C  C1317  1  0.545100  0.919200  0.095800  1
  C  C1318  1  0.954900  0.580800  0.595800  1
  C  C1319  1  0.454900  0.080800  0.904200  1
  C  C1320  1  0.045100  0.419200  0.404200  1
  C  C1321  1  0.456300  0.918000  0.079870  1
  C  C1322  1  0.043700  0.582000  0.579870  1
  C  C1323  1  0.543700  0.082000  0.920130  1
  C  C1324  1  0.956300  0.418000  0.420130  1
  C  C1325  1  0.475500  0.932800  0.048560  1
  C  C1326  1  0.024500  0.567200  0.548560  1
  C  C1327  1  0.524500  0.067200  0.951440  1
  C  C1328  1  0.975500  0.432800  0.451440  1
  C  C1329  1  0.419800  0.902400  0.026570  1
  C  C1330  1  0.080200  0.597600  0.526570  1
  C  C1331  1  0.580200  0.097600  0.973430  1
  C  C1332  1  0.919800  0.402400  0.473430  1
  C  C1333  1  0.463700  0.879300  0.998800  1
  C  C1334  1  0.036300  0.620700  0.498800  1
  C  C1335  1  0.536300  0.120700  0.001200  1
  C  C1336  1  0.963700  0.379300  0.501200  1
  C  C1337  1  0.412100  0.820700  0.991200  1
  C  C1338  1  0.087900  0.679300  0.491200  1
  C  C1339  1  0.587900  0.179300  0.008800  1
  C  C1340  1  0.912100  0.320700  0.508800  1
  C  C1341  1  0.308300  0.667100  0.063620  1
  C  C1342  1  0.191700  0.832900  0.563620  1
  C  C1343  1  0.691700  0.332900  0.936380  1
  C  C1344  1  0.808300  0.167100  0.436380  1
  C  C1345  1  0.458200  0.772600  0.976900  1
  C  C1346  1  0.041800  0.727400  0.476900  1
  C  C1347  1  0.541800  0.227400  0.023100  1
  C  C1348  1  0.958200  0.272600  0.523100  1
  C  C1349  1  0.417400  0.709800  0.980800  1
  C  C1350  1  0.082600  0.790200  0.480800  1
  C  C1351  1  0.582600  0.290200  0.019200  1
  C  C1352  1  0.917400  0.209800  0.519200  1
  C  C1353  1  0.471400  0.657400  0.978400  1
  C  C1354  1  0.028600  0.842600  0.478400  1
  C  C1355  1  0.528600  0.342600  0.021600  1
  C  C1356  1  0.971400  0.157400  0.521600  1
  C  C1357  1  0.432400  0.608200  0.998200  1
  C  C1358  1  0.067600  0.891800  0.498200  1
  C  C1359  1  0.567600  0.391800  0.001800  1
  C  C1360  1  0.932400  0.108200  0.501800  1
  C  C1361  1  0.490100  0.570900  0.013990  1
  C  C1362  1  0.009900  0.929100  0.513990  1
  C  C1363  1  0.509900  0.429100  0.986010  1
  C  C1364  1  0.990100  0.070900  0.486010  1
  C  C1365  1  0.470100  0.556100  0.045160  1
  C  C1366  1  0.029900  0.943900  0.545160  1
  C  C1367  1  0.529900  0.443900  0.954840  1
  C  C1368  1  0.970100  0.056100  0.454840  1
  C  C1369  1  0.557600  0.556200  0.061070  1
  C  C1370  1  0.942400  0.943800  0.561070  1
  C  C1371  1  0.442400  0.443800  0.938930  1
  C  C1372  1  0.057600  0.056200  0.438930  1
  C  C1373  1  0.567700  0.581000  0.090810  1
  C  C1374  1  0.932300  0.919000  0.590810  1
  C  C1375  1  0.432300  0.419000  0.909190  1
  C  C1376  1  0.067700  0.081000  0.409190  1
  C  C1377  1  0.649700  0.620600  0.098900  1
  C  C1378  1  0.850300  0.879400  0.598900  1
  C  C1379  1  0.350300  0.379400  0.901100  1
  C  C1380  1  0.149700  0.120600  0.401100  1
  C  C1381  1  0.622900  0.669100  0.118800  1
  C  C1382  1  0.877100  0.830900  0.618800  1
  C  C1383  1  0.377100  0.330900  0.881200  1
  C  C1384  1  0.122900  0.169100  0.381200  1
  C  C1385  1  0.349500  0.658000  0.092090  1
  C  C1386  1  0.150500  0.842000  0.592090  1
  C  C1387  1  0.650500  0.342000  0.907910  1
  C  C1388  1  0.849500  0.158000  0.407910  1
  C  C1389  1  0.670500  0.730700  0.118900  1
  C  C1390  1  0.829500  0.769300  0.618900  1
  C  C1391  1  0.329500  0.269300  0.881100  1
  C  C1392  1  0.170500  0.230700  0.381100  1
  C  C1393  1  0.618400  0.780600  0.128900  1
  C  C1394  1  0.881600  0.719400  0.628900  1
  C  C1395  1  0.381600  0.219400  0.871100  1
  C  C1396  1  0.118400  0.280600  0.371100  1
  C  C1397  1  0.641000  0.844100  0.119900  1
  C  C1398  1  0.859000  0.655900  0.619900  1
  C  C1399  1  0.359000  0.155900  0.880100  1
  C  C1400  1  0.141000  0.344100  0.380100  1
  C  C1401  1  0.711000  0.858500  0.098810  1
  C  C1402  1  0.789000  0.641500  0.598810  1
  C  C1403  1  0.289000  0.141500  0.901190  1
  C  C1404  1  0.211000  0.358500  0.401190  1
  C  C1405  1  0.701100  0.904600  0.075560  1
  C  C1406  1  0.798900  0.595400  0.575560  1
  C  C1407  1  0.298900  0.095400  0.924440  1
  C  C1408  1  0.201100  0.404600  0.424440  1
  C  C1409  1  0.618700  0.934700  0.073670  1
  C  C1410  1  0.881300  0.565300  0.573670  1
  C  C1411  1  0.381300  0.065300  0.926330  1
  C  C1412  1  0.118700  0.434700  0.426330  1
  C  C1413  1  0.576000  0.942900  0.044610  1
  C  C1414  1  0.924000  0.557100  0.544610  1
  C  C1415  1  0.424000  0.057100  0.955390  1
  C  C1416  1  0.076000  0.442900  0.455390  1
  C  C1417  1  0.616600  0.920800  0.018430  1
  C  C1418  1  0.883400  0.579200  0.518430  1
  C  C1419  1  0.383400  0.079200  0.981570  1
  C  C1420  1  0.116600  0.420800  0.481570  1
  C  C1421  1  0.559300  0.888600  0.995400  1
  C  C1422  1  0.940700  0.611400  0.495400  1
  C  C1423  1  0.440700  0.111400  0.004600  1
  C  C1424  1  0.059300  0.388600  0.504600  1
  C  C1425  1  0.608500  0.838800  0.982800  1
  C  C1426  1  0.891500  0.661200  0.482800  1
  C  C1427  1  0.391500  0.161200  0.017200  1
  C  C1428  1  0.108500  0.338800  0.517200  1
  C  C1429  1  0.379700  0.710400  0.110800  1
  C  C1430  1  0.120300  0.789600  0.610800  1
  C  C1431  1  0.620300  0.289600  0.889200  1
  C  C1432  1  0.879700  0.210400  0.389200  1
  C  C1433  1  0.560600  0.782400  0.972600  1
  C  C1434  1  0.939400  0.717600  0.472600  1
  C  C1435  1  0.439400  0.217600  0.027400  1
  C  C1436  1  0.060600  0.282400  0.527400  1
  C  C1437  1  0.613700  0.729000  0.972900  1
  C  C1438  1  0.886300  0.771000  0.472900  1
  C  C1439  1  0.386300  0.271000  0.027100  1
  C  C1440  1  0.113700  0.229000  0.527100  1
  C  C1441  1  0.566200  0.665700  0.974800  1
  C  C1442  1  0.933800  0.834300  0.474800  1
  C  C1443  1  0.433800  0.334300  0.025200  1
  C  C1444  1  0.066200  0.165700  0.525200  1
  C  C1445  1  0.626500  0.626500  0.990600  1
  C  C1446  1  0.873500  0.873500  0.490600  1
  C  C1447  1  0.373500  0.373500  0.009400  1
  C  C1448  1  0.126500  0.126500  0.509400  1
  C  C1449  1  0.590500  0.580000  0.009930  1
  C  C1450  1  0.909500  0.920000  0.509930  1
  C  C1451  1  0.409500  0.420000  0.990070  1
  C  C1452  1  0.090500  0.080000  0.490070  1
  C  C1453  1  0.632000  0.571200  0.039470  1
  C  C1454  1  0.868000  0.928800  0.539470  1
  C  C1455  1  0.368000  0.428800  0.960530  1
  C  C1456  1  0.132000  0.071200  0.460530  1
  C  C1457  1  0.710600  0.610100  0.047830  1
  C  C1458  1  0.789400  0.889900  0.547830  1
  C  C1459  1  0.289400  0.389900  0.952170  1
  C  C1460  1  0.210600  0.110100  0.452170  1
  C  C1461  1  0.718300  0.634600  0.077860  1
  C  C1462  1  0.781700  0.865400  0.577860  1
  C  C1463  1  0.281700  0.365400  0.922140  1
  C  C1464  1  0.218300  0.134600  0.422140  1
  C  C1465  1  0.764800  0.698800  0.075970  1
  C  C1466  1  0.735200  0.801200  0.575970  1
  C  C1467  1  0.235200  0.301200  0.924030  1
  C  C1468  1  0.264800  0.198800  0.424030  1
  C  C1469  1  0.744700  0.745700  0.096800  1
  C  C1470  1  0.755300  0.754300  0.596800  1
  C  C1471  1  0.255300  0.254300  0.903200  1
  C  C1472  1  0.244700  0.245700  0.403200  1
  C  C1473  1  0.346000  0.768400  0.102500  1
  C  C1474  1  0.154000  0.731600  0.602500  1
  C  C1475  1  0.654000  0.231600  0.897500  1
  C  C1476  1  0.846000  0.268400  0.397500  1
  C  C1477  1  0.761100  0.808800  0.086430  1
  C  C1478  1  0.738900  0.691200  0.586430  1
  C  C1479  1  0.238900  0.191200  0.913570  1
  C  C1480  1  0.261100  0.308800  0.413570  1
  C  C1481  1  0.779900  0.823600  0.055560  1
  C  C1482  1  0.720100  0.676400  0.555560  1
  C  C1483  1  0.220100  0.176400  0.944440  1
  C  C1484  1  0.279900  0.323600  0.444440  1
  C  C1485  1  0.742500  0.882100  0.048340  1
  C  C1486  1  0.757500  0.617900  0.548340  1
  C  C1487  1  0.257500  0.117900  0.951660  1
  C  C1488  1  0.242500  0.382100  0.451660  1
  C  C1489  1  0.701200  0.890100  0.020210  1
  C  C1490  1  0.798800  0.609900  0.520210  1
  C  C1491  1  0.298800  0.109900  0.979790  1
  C  C1492  1  0.201200  0.390100  0.479790  1
  C  C1493  1  0.696600  0.839800  0.998100  1
  C  C1494  1  0.803400  0.660200  0.498100  1
  C  C1495  1  0.303400  0.160200  0.001900  1
  C  C1496  1  0.196600  0.339800  0.501900  1
  C  C1497  1  0.739300  0.784400  0.003700  1
  C  C1498  1  0.760700  0.715600  0.503700  1
  C  C1499  1  0.260700  0.215600  0.996300  1
  C  C1500  1  0.239300  0.284400  0.496300  1
  C  C1501  1  0.699700  0.730000  0.988000  1
  C  C1502  1  0.800300  0.770000  0.488000  1
  C  C1503  1  0.300300  0.270000  0.012000  1
  C  C1504  1  0.199700  0.230000  0.512000  1
  C  C1505  1  0.709000  0.667300  0.999400  1
  C  C1506  1  0.791000  0.832700  0.499400  1
  C  C1507  1  0.291000  0.332700  0.000600  1
  C  C1508  1  0.209000  0.167300  0.500600  1
  C  C1509  1  0.749700  0.658900  0.026950  1
  C  C1510  1  0.750300  0.841100  0.526950  1
  C  C1511  1  0.250300  0.341100  0.973050  1
  C  C1512  1  0.249700  0.158900  0.473050  1
  C  C1513  1  0.782700  0.713300  0.045180  1
  C  C1514  1  0.717300  0.786700  0.545180  1
  C  C1515  1  0.217300  0.286700  0.954820  1
  C  C1516  1  0.282700  0.213300  0.454820  1
  C  C1517  1  0.396600  0.828500  0.111100  1
  C  C1518  1  0.103400  0.671500  0.611100  1
  C  C1519  1  0.603400  0.171500  0.888900  1
  C  C1520  1  0.896600  0.328500  0.388900  1
  C  C1521  1  0.781400  0.775700  0.033560  1
  C  C1522  1  0.718600  0.724300  0.533560  1
  C  C1523  1  0.218600  0.224300  0.966440  1
  C  C1524  1  0.281400  0.275700  0.466440  1
  C  C1525  1  0.382900  0.873100  0.087520  1
  C  C1526  1  0.117100  0.626900  0.587520  1
  C  C1527  1  0.617100  0.126900  0.912480  1
  C  C1528  1  0.882900  0.373100  0.412480  1
  C  C1529  1  0.326500  0.841300  0.064510  1
  C  C1530  1  0.173500  0.658700  0.564510  1
  C  C1531  1  0.673500  0.158700  0.935490  1
  C  C1532  1  0.826500  0.341300  0.435490  1
  N  N1533  1  0.925200  0.467100  0.335180  1
  N  N1534  1  0.574800  0.032900  0.835180  1
  N  N1535  1  0.074800  0.532900  0.664820  1
  N  N1536  1  0.425200  0.967100  0.164820  1
  N  N1537  1  0.036800  0.553100  0.373820  1
  N  N1538  1  0.463200  0.946900  0.873820  1
  N  N1539  1  0.963200  0.446900  0.626180  1
  N  N1540  1  0.536800  0.053100  0.126180  1
  N  N1541  1  0.206400  0.505000  0.352110  1
  N  N1542  1  0.293600  0.995000  0.852110  1
  N  N1543  1  0.793600  0.495000  0.647890  1
  N  N1544  1  0.706400  0.005000  0.147890  1
  N  N1545  1  0.095100  0.424800  0.310640  1
  N  N1546  1  0.404900  0.075200  0.810640  1
  N  N1547  1  0.904900  0.575200  0.689360  1
  N  N1548  1  0.595100  0.924800  0.189360  1
  N  N1549  1  0.132700  0.008600  0.345800  1
  N  N1550  1  0.367300  0.491400  0.845800  1
  N  N1551  1  0.867300  0.991400  0.654200  1
  N  N1552  1  0.632700  0.508600  0.154200  1
  N  N1553  1  0.298400  0.092600  0.337190  1
  N  N1554  1  0.201600  0.407400  0.837190  1
  N  N1555  1  0.701600  0.907400  0.662810  1
  N  N1556  1  0.798400  0.592600  0.162810  1
  N  N1557  1  0.380900  0.041400  0.390460  1
  N  N1558  1  0.119100  0.458600  0.890460  1
  N  N1559  1  0.619100  0.958600  0.609540  1
  N  N1560  1  0.880900  0.541400  0.109540  1
  N  N1561  1  0.221100  0.951000  0.396000  1
  N  N1562  1  0.278900  0.549000  0.896000  1
  N  N1563  1  0.778900  0.049000  0.604000  1
  N  N1564  1  0.721100  0.451000  0.104000  1
  O  O1565  1  0.343700  0.633300  0.491910  1
  O  O1566  1  0.156300  0.866700  0.991910  1
  O  O1567  1  0.656300  0.366700  0.508090  1
  O  O1568  1  0.843700  0.133300  0.008090  1
  O  O1569  1  0.784400  0.171500  0.306840  1
  O  O1570  1  0.715600  0.328500  0.806840  1
  O  O1571  1  0.215600  0.828500  0.693160  1
  O  O1572  1  0.284400  0.671500  0.193160  1
  O  O1573  1  0.538600  0.333000  0.411940  1
  O  O1574  1  0.961400  0.167000  0.911940  1
  O  O1575  1  0.461400  0.667000  0.588060  1
  O  O1576  1  0.038600  0.833000  0.088060  1
  O  O1577  1  0.741000  0.876300  0.419680  1
  O  O1578  1  0.759000  0.623700  0.919680  1
  O  O1579  1  0.259000  0.123700  0.580320  1
  O  O1580  1  0.241000  0.376300  0.080320  1
