
#######################################################################
#
#                 Cambridge Crystallographic Data Centre
#                                CCDC 
#
#######################################################################
#
# If this CIF has been generated from an entry in the Cambridge 
# Structural Database, then it will include bibliographic, chemical, 
# crystal, experimental, refinement or atomic coordinate data resulting 
# from the CCDC's data processing and validation procedures.
#
#######################################################################

data_NAPJIZ
_chemical_formula_moiety         '4(C8 H10),C112 H100 N8 O4 Zn2,C70'
_chemical_name_systematic        
"(\m~2~-5,5':15,15'-bis(3,3'-[hexane-1,6-diylbis(oxy)]dibenzen-1,1'-diyl)-10,10',20,20'-tetrakis(2,4,6-trimethylphenyl)bis(porphyrinato))-di-zinc(ii) C70fullerene p-xylene solvate"
_symmetry_cell_setting           monoclinic
_symmetry_space_group_name_H-M   'P 21/n'
_symmetry_Int_Tables_number      14
_space_group_name_Hall           '-P 2yn'
loop_
_symmetry_equiv_pos_site_id
_symmetry_equiv_pos_as_xyz
1 x,y,z
2 1/2-x,1/2+y,1/2-z
3 -x,-y,-z
4 1/2+x,1/2-y,1/2+z
_cell_length_a                   14.9095(7)
_cell_length_b                   39.921(2)
_cell_length_c                   25.5657(15)
_cell_angle_alpha                90
_cell_angle_beta                 106.833(3)
_cell_angle_gamma                90
_cell_volume                     14564.8
_exptl_crystal_colour            red
_exptl_crystal_description       plate
_cell_formula_units_Z            4
loop_
_atom_site_label
_atom_site_type_symbol
_atom_site_fract_x
_atom_site_fract_y
_atom_site_fract_z
C1 C -0.06357(15) 0.19347(6) 0.30602(11)
C2 C -0.10754(16) 0.17801(6) 0.34294(11)
H1 H -0.1722 0.1728 0.3354
C3 C -0.03964(16) 0.17218(6) 0.39085(12)
H2 H -0.0481 0.1629 0.4233
C4 C 0.04808(16) 0.18288(6) 0.38241(11)
C5 C 0.13662(16) 0.17967(6) 0.42115(12)
C6 C 0.13994(16) 0.16762(6) 0.47765(12)
C7 C 0.15938(17) 0.19073(7) 0.52100(12)
C8 C 0.16213(18) 0.17944(7) 0.57318(12)
H3 H 0.1781 0.1949 0.6027
C9 C 0.14251(16) 0.14654(6) 0.58369(12)
C10 C 0.12314(15) 0.12419(6) 0.53995(11)
H4 H 0.1097 0.1015 0.5460
C11 C 0.12290(16) 0.13406(6) 0.48740(12)
C12 C 0.1791(2) 0.22723(7) 0.51306(14)
H5 H 0.1784 0.2399 0.5457
H6 H 0.1310 0.2361 0.4813
H7 H 0.2408 0.2294 0.5070
C13 C 0.14340(19) 0.13556(7) 0.64018(12)
H8 H 0.1599 0.1546 0.6653
H9 H 0.1897 0.1177 0.6526
H10 H 0.0812 0.1272 0.6394
C14 C 0.10611(18) 0.10853(7) 0.44219(12)
H11 H 0.1056 0.0860 0.4575
H12 H 0.1562 0.1100 0.4245
H13 H 0.0456 0.1129 0.4152
C15 C 0.22202(16) 0.18686(7) 0.41094(12)
C16 C 0.31340(17) 0.18007(7) 0.44873(13)
H14 H 0.3257 0.1712 0.4846
C17 C 0.37769(17) 0.18876(7) 0.42337(12)
H15 H 0.4437 0.1870 0.4383
C18 C 0.32866(16) 0.20121(6) 0.36948(12)
C19 C 0.36966(15) 0.21266(6) 0.33092(11)
C20 C 0.47684(16) 0.21155(6) 0.34669(12)
C21 C 0.52811(17) 0.23920(7) 0.37206(12)
H16 H 0.4971 0.2590 0.3780
C22 C 0.62664(17) 0.23741(7) 0.38882(12)
H17 H 0.6621 0.2561 0.4064
C23 C 0.67207(16) 0.20905(6) 0.38010(12)
H18 H 0.7386 0.2082 0.3918
C24 C 0.62068(16) 0.18145(6) 0.35397(12)
C25 C 0.52204(16) 0.18298(6) 0.33761(11)
H19 H 0.4865 0.1642 0.3202
C26 C 0.32377(16) 0.22631(6) 0.27942(12)
C27 C 0.36601(16) 0.23964(6) 0.24030(12)
H20 H 0.4311 0.2397 0.2435
C28 C 0.29672(16) 0.25213(6) 0.19774(13)
H21 H 0.3043 0.2628 0.1661
C29 C 0.21006(16) 0.24613(6) 0.20977(11)
C30 C 0.12053(16) 0.25625(6) 0.17658(11)
C31 C 0.11965(16) 0.27845(6) 0.12838(12)
C32 C 0.09333(16) 0.26590(6) 0.07464(12)
C33 C 0.09943(16) 0.28675(6) 0.03207(12)
H22 H 0.0831 0.2780 -0.0040
C34 C 0.12859(16) 0.31985(6) 0.04067(12)
C35 C 0.15122(16) 0.33206(6) 0.09437(12)
H23 H 0.1692 0.3549 0.1010
C36 C 0.14817(16) 0.31197(6) 0.13798(12)
C37 C 0.0584(2) 0.23036(7) 0.06220(13)
H24 H -0.0045 0.2284 0.0666
H25 H 0.1010 0.2149 0.0874
H26 H 0.0561 0.2247 0.0245
C38 C 0.13935(18) 0.34163(7) -0.00547(13)
H27 H 0.1977 0.3358 -0.0137
H28 H 0.1412 0.3652 0.0054
H29 H 0.0861 0.3380 -0.0380
C39 C 0.17822(18) 0.32643(7) 0.19529(12)
H30 H 0.2439 0.3207 0.2130
H31 H 0.1389 0.3171 0.2165
H32 H 0.1713 0.3508 0.1934
C40 C 0.03545(15) 0.24785(6) 0.18584(11)
C41 C -0.05687(16) 0.25667(6) 0.15016(11)
H33 H -0.0698 0.2705 0.1187
C42 C -0.12049(16) 0.24140(6) 0.17034(11)
H34 H -0.1866 0.2421 0.1549
C43 C -0.06998(16) 0.22367(6) 0.22003(11)
C44 C -0.11067(15) 0.20596(6) 0.25367(11)
C45 C -0.21553(16) 0.20043(6) 0.23486(11)
C46 C -0.27402(16) 0.21916(6) 0.25647(12)
H35 H -0.2486 0.2360 0.2828
C47 C -0.37084(16) 0.21332(7) 0.23962(12)
H36 H -0.4111 0.2264 0.2543
C48 C -0.40771(16) 0.18865(6) 0.20182(12)
H37 H -0.4734 0.1849 0.1904
C49 C -0.34983(17) 0.16937(6) 0.18040(12)
C50 C -0.25268(16) 0.17542(6) 0.19649(12)
H38 H -0.2126 0.1626 0.1814
C51 C 0.62446(16) 0.12849(6) 0.30970(12)
H39 H 0.5863 0.1382 0.2747
H40 H 0.5823 0.1160 0.3264
C52 C 0.69742(16) 0.10517(6) 0.29968(13)
H41 H 0.7361 0.0959 0.3349
H42 H 0.7391 0.1178 0.2829
C53 C 0.65088(17) 0.07641(6) 0.26185(13)
H43 H 0.6050 0.0653 0.2774
H44 H 0.6159 0.0859 0.2259
C54 C 0.71925(16) 0.05008(6) 0.25303(13)
H45 H 0.7558 0.0412 0.2891
H46 H 0.7638 0.0611 0.2363
C55 C 0.67319(17) 0.02075(7) 0.21691(13)
H47 H 0.6327 0.0297 0.1819
H48 H 0.7228 0.0072 0.2085
C56 C 0.61514(17) -0.00185(6) 0.24123(12)
H49 H 0.5692 0.0116 0.2535
H50 H 0.5804 -0.0181 0.2135
C57 C -0.33598(17) 0.12150(6) 0.12598(13)
H51 H -0.2874 0.1115 0.1570
H52 H -0.3045 0.1333 0.1021
C58 C -0.40009(16) 0.09467(6) 0.09436(12)
H53 H -0.4493 0.1053 0.0643
H54 H -0.4314 0.0835 0.1189
C59 C -0.34957(17) 0.06857(6) 0.07048(13)
H55 H -0.2981 0.0588 0.1002
H56 H -0.3214 0.0795 0.0443
C60 C -0.41494(17) 0.04050(6) 0.04126(12)
H57 H -0.4465 0.0307 0.0668
H58 H -0.4639 0.0501 0.0100
C61 C -0.36369(17) 0.01282(7) 0.02038(12)
H59 H -0.4106 -0.0016 -0.0051
H60 H -0.3243 0.0232 -0.0005
C62 C -0.30236(17) -0.00884(6) 0.06497(12)
H61 H -0.2631 -0.0237 0.0496
H62 H -0.2604 0.0054 0.0934
C63 C -0.02898(16) -0.09400(6) 0.18046(11)
C64 C -0.06913(16) -0.10684(7) 0.12573(12)
H63 H -0.1336 -0.1067 0.1056
C65 C 0.00190(16) -0.11905(7) 0.10845(12)
H64 H -0.0037 -0.1297 0.0744
C66 C 0.08841(16) -0.11297(6) 0.15144(11)
C67 C 0.17807(16) -0.12063(6) 0.14743(11)
C68 C 0.18706(15) -0.13877(6) 0.09810(11)
C69 C 0.20006(15) -0.12094(6) 0.05352(11)
C70 C 0.20767(15) -0.13873(6) 0.00774(11)
H65 H 0.2174 -0.1267 -0.0222
C71 C 0.20149(16) -0.17302(6) 0.00469(12)
C72 C 0.19055(17) -0.19046(7) 0.04987(12)
H66 H 0.1873 -0.2142 0.0486
C73 C 0.18431(17) -0.17394(6) 0.09695(12)
C74 C 0.20747(18) -0.08318(6) 0.05551(12)
H67 H 0.1508 -0.0737 0.0618
H68 H 0.2140 -0.0749 0.0207
H69 H 0.2624 -0.0765 0.0853
C75 C 0.2077(2) -0.19141(7) -0.04603(12)
H70 H 0.1728 -0.1790 -0.0786
H71 H 0.1808 -0.2139 -0.0468
H72 H 0.2735 -0.1933 -0.0455
C76 C 0.1755(2) -0.19352(7) 0.14580(14)
H73 H 0.1826 -0.2175 0.1397
H74 H 0.1138 -0.1894 0.1509
H75 H 0.2245 -0.1864 0.1785
C77 C 0.26230(16) -0.11132(6) 0.18707(11)
C78 C 0.35432(16) -0.11590(6) 0.18077(12)
H76 H 0.3695 -0.1263 0.1510
C79 C 0.41552(16) -0.10226(6) 0.22620(12)
H77 H 0.4816 -0.1010 0.2334
C80 C 0.36307(15) -0.09017(6) 0.26096(11)
C81 C 0.40121(16) -0.07800(6) 0.31446(11)
C82 C 0.50488(16) -0.07123(6) 0.33041(12)
C83 C 0.53996(15) -0.04786(6) 0.30140(12)
H78 H 0.4980 -0.0358 0.2725
C84 C 0.63668(16) -0.04177(6) 0.31413(12)
C85 C 0.69774(16) -0.05945(7) 0.35699(12)
H79 H 0.7632 -0.0552 0.3665
C86 C 0.66375(17) -0.08292(7) 0.38543(12)
H80 H 0.7062 -0.0951 0.4140
C87 C 0.56657(16) -0.08932(7) 0.37299(12)
H81 H 0.5435 -0.1055 0.3930
C88 C 0.35160(15) -0.07233(6) 0.35236(11)
C89 C 0.39081(17) -0.06336(6) 0.40944(12)
H82 H 0.4553 -0.0597 0.4276
C90 C 0.32009(16) -0.06112(6) 0.43218(12)
H83 H 0.3256 -0.0564 0.4694
C91 C 0.23404(16) -0.06724(6) 0.38925(11)
C92 C 0.14393(16) -0.06327(6) 0.39552(11)
C93 C 0.13450(16) -0.05635(6) 0.45107(12)
C94 C 0.11948(16) -0.08305(7) 0.48331(12)
C95 C 0.10670(17) -0.07648(7) 0.53432(12)
H84 H 0.0985 -0.0947 0.5563
C96 C 0.10565(17) -0.04410(8) 0.55383(13)
C97 C 0.12163(18) -0.01827(7) 0.52207(13)
H85 H 0.1217 0.0040 0.5350
C98 C 0.13788(17) -0.02352(7) 0.47132(12)
C99 C 0.11791(18) -0.11858(7) 0.46322(13)
H86 H 0.1193 -0.1341 0.4932
H87 H 0.1728 -0.1225 0.4503
H88 H 0.0607 -0.1223 0.4332
C100 C 0.0900(2) -0.03750(9) 0.60863(14)
H89 H 0.1358 -0.0210 0.6288
H90 H 0.0974 -0.0584 0.6295
H91 H 0.0265 -0.0288 0.6032
C101 C 0.1598(2) 0.00530(7) 0.43937(13)
H92 H 0.2257 0.0042 0.4399
H93 H 0.1482 0.0264 0.4558
H94 H 0.1198 0.0041 0.4015
C102 C 0.06033(16) -0.06467(6) 0.35151(11)
C103 C -0.02985(16) -0.05370(6) 0.35480(12)
H95 H -0.0440 -0.0455 0.3864
C104 C -0.09051(16) -0.05724(6) 0.30426(11)
H96 H -0.1549 -0.0512 0.2936
C105 C -0.04048(15) -0.07181(6) 0.26961(12)
C106 C -0.07880(15) -0.08087(6) 0.21416(12)
C107 C -0.18405(15) -0.07757(6) 0.19094(12)
C108 C -0.22080(16) -0.05429(6) 0.14937(12)
H97 H -0.1804 -0.0409 0.1353
C109 C -0.31904(16) -0.05099(6) 0.12863(12)
C110 C -0.37718(16) -0.07092(7) 0.14863(13)
H98 H -0.4432 -0.0686 0.1345
C111 C -0.34036(17) -0.09426(7) 0.18896(13)
H99 H -0.3810 -0.1081 0.2020
C112 C -0.24313(17) -0.09752(7) 0.21074(12)
H100 H -0.2178 -0.1133 0.2389
N1 N 0.03267(13) 0.19610(5) 0.33049(9)
N2 N 0.23321(13) 0.20007(5) 0.36336(9)
N3 N 0.22606(13) 0.22998(5) 0.25957(9)
N4 N 0.02526(13) 0.22851(5) 0.22809(10)
N5 N 0.05371(13) -0.07536(5) 0.29935(9)
N6 N 0.06729(13) -0.09790(5) 0.19482(9)
N7 N 0.26748(13) -0.09581(5) 0.23619(9)
N8 N 0.25485(13) -0.07460(5) 0.34127(9)
O1 O 0.67204(11) 0.15479(4) 0.34603(8)
O2 O 0.67680(11) -0.01942(4) 0.28708(8)
O3 O -0.39238(11) 0.14440(4) 0.14562(9)
O4 O -0.36128(11) -0.02849(4) 0.08834(8)
Zn1 Zn 0.128954(18) 0.213528(7) 0.295096(13)
Zn2 Zn 0.160948(18) -0.085441(7) 0.267698(13)
C113 C 0.25481(19) -0.00479(7) 0.25972(13)
C114 C 0.33042(18) 0.00932(7) 0.24433(13)
C115 C 0.33412(19) 0.00258(7) 0.19090(14)
C116 C 0.25477(19) -0.01166(7) 0.15013(13)
C117 C 0.1709(2) -0.01927(6) 0.16304(13)
C118 C 0.1748(2) -0.01880(6) 0.21872(13)
C119 C 0.0928(2) -0.01274(6) 0.23730(13)
C120 C 0.12001(19) 0.00462(6) 0.28887(12)
C121 C 0.22077(19) 0.00948(7) 0.30262(12)
C122 C 0.25938(18) 0.03895(7) 0.32753(12)
C123 C 0.33349(17) 0.05529(7) 0.31027(12)
C124 C 0.37186(17) 0.04041(7) 0.27131(13)
C125 C 0.41234(16) 0.06258(8) 0.24124(13)
C126 C 0.42006(17) 0.05436(8) 0.18765(15)
C127 C 0.38256(19) 0.02463(8) 0.16304(14)
C128 C 0.33347(19) 0.02414(8) 0.10459(14)
C129 C 0.2548(2) 0.00193(7) 0.09745(13)
C130 C 0.1688(2) 0.00977(7) 0.05906(12)
C131 C 0.0820(2) 0.00411(7) 0.07275(12)
C132 C 0.0799(2) -0.01099(6) 0.12221(13)
C133 C 0.00264(19) -0.00307(7) 0.14130(13)
C134 C 0.00724(19) -0.00505(7) 0.19853(13)
C135 C -0.05279(18) 0.02023(7) 0.21130(13)
C136 C -0.02604(18) 0.03733(7) 0.26125(13)
C137 C 0.06280(18) 0.02896(7) 0.30091(12)
C138 C 0.10371(19) 0.05986(7) 0.32683(12)
C139 C 0.20121(18) 0.06440(6) 0.34037(12)
C140 C 0.23826(18) 0.09650(7) 0.32985(11)
C141 C 0.32032(17) 0.09059(7) 0.31158(12)
C142 C 0.34496(17) 0.11205(7) 0.27444(13)
C143 C 0.39893(17) 0.09816(7) 0.24285(13)
C144 C 0.39912(17) 0.11148(8) 0.19027(14)
C145 C 0.41280(18) 0.08436(8) 0.15604(14)
C146 C 0.36570(18) 0.08440(8) 0.10005(14)
C147 C 0.3249(2) 0.05330(8) 0.07389(14)
C148 C 0.2365(2) 0.06150(8) 0.03418(13)
C149 C 0.1602(2) 0.03992(7) 0.02703(13)
C150 C 0.0682(2) 0.05330(7) 0.02161(12)
C151 C 0.01950(18) 0.03130(7) 0.04922(12)
C152 C -0.04580(17) 0.04363(7) 0.07545(13)
C153 C -0.05958(18) 0.02389(7) 0.11814(13)
C154 C -0.09288(17) 0.03838(7) 0.16097(13)
C155 C -0.10596(17) 0.07273(8) 0.16265(14)
C156 C -0.07924(16) 0.09044(7) 0.21437(14)
C157 C -0.03925(17) 0.07277(7) 0.26238(14)
C158 C 0.04125(19) 0.08720(7) 0.30332(12)
C159 C 0.07680(19) 0.11750(7) 0.29392(13)
C160 C 0.17772(19) 0.12232(6) 0.30724(12)
C161 C 0.1970(2) 0.14362(6) 0.26588(13)
C162 C 0.28025(18) 0.14012(6) 0.25001(12)
C163 C 0.27758(18) 0.15103(7) 0.19762(13)
C164 C 0.33817(18) 0.13773(7) 0.16772(14)
C165 C 0.29097(19) 0.13756(7) 0.10896(14)
C166 C 0.30381(19) 0.11155(8) 0.07643(13)
C167 C 0.22350(19) 0.09736(7) 0.03552(13)
C168 C 0.13473(19) 0.11009(7) 0.03023(12)
C169 C 0.05562(19) 0.08770(7) 0.02309(13)
C170 C -0.00595(18) 0.10095(7) 0.05226(12)
C171 C -0.05882(17) 0.07999(7) 0.07672(12)
C172 C -0.08627(17) 0.09382(7) 0.12078(14)
C173 C -0.04584(18) 0.12423(7) 0.14695(13)
C174 C -0.04090(18) 0.12223(7) 0.20424(14)
C175 C 0.03557(19) 0.13538(7) 0.24359(13)
C176 C 0.10946(19) 0.15152(6) 0.22609(13)
C177 C 0.1036(2) 0.15622(6) 0.17033(13)
C178 C 0.1896(2) 0.15925(6) 0.15766(13)
C179 C 0.1975(2) 0.15055(7) 0.10355(13)
C180 C 0.12127(19) 0.13715(7) 0.06462(13)
C181 C 0.03446(19) 0.13185(7) 0.07826(13)
C182 C 0.02224(19) 0.14191(7) 0.12841(13)
C183 C 0.4124(2) 0.18143(7) 0.75793(14)
C184 C 0.4981(2) 0.19389(8) 0.78984(15)
H101 H 0.5526 0.1906 0.7784
C185 C 0.5052(2) 0.21099(8) 0.83791(14)
H102 H 0.5646 0.2192 0.8587
C186 C 0.4270(2) 0.21643(7) 0.85655(14)
C187 C 0.3420(2) 0.20337(8) 0.82516(15)
H103 H 0.2876 0.2060 0.8370
C188 C 0.3358(2) 0.18665(8) 0.77721(14)
H104 H 0.2765 0.1783 0.7564
C189 C 0.4042(2) 0.16350(8) 0.70491(14)
H105 H 0.3827 0.1405 0.7073
H106 H 0.4655 0.1631 0.6980
H107 H 0.3590 0.1752 0.6750
C190 C 0.4339(3) 0.23570(9) 0.90855(16)
H108 H 0.4838 0.2261 0.9386
H109 H 0.3741 0.2342 0.9172
H110 H 0.4481 0.2592 0.9035
C191 C 0.3302(3) 0.19096(9) 0.00983(18)
C192 C 0.4262(3) 0.18974(9) 0.03806(18)
H111 H 0.4493 0.2017 0.0714
C193 C 0.4877(3) 0.17123(8) 0.01780(16)
H112 H 0.5521 0.1704 0.0380
C194 C 0.4573(2) 0.15387(9) -0.03136(16)
C195 C 0.3602(2) 0.15359(9) -0.05712(18)
H113 H 0.3364 0.1406 -0.0893
C196 C 0.2983(3) 0.17178(9) -0.03696(18)
H114 H 0.2332 0.1711 -0.0555
C197 C 0.2638(3) 0.21260(11) 0.0302(2)
H115 H 0.2593 0.2348 0.0134
H116 H 0.2874 0.2148 0.0700
H117 H 0.2016 0.2022 0.0204
C198 C 0.5236(3) 0.13558(11) -0.0565(2)
H118 H 0.5883 0.1420 -0.0375
H119 H 0.5093 0.1415 -0.0952
H120 H 0.5163 0.1114 -0.0530
C199 C 0.5698(2) 0.04458(8) 0.41282(14)
C200 C 0.5539(2) 0.07789(8) 0.42184(14)
H121 H 0.5935 0.0946 0.4139
C201 C 0.4805(2) 0.08744(9) 0.44237(15)
H122 H 0.4705 0.1105 0.4476
C202 C 0.4219(2) 0.06376(9) 0.45528(14)
C203 C 0.4392(2) 0.03034(9) 0.44596(15)
H123 H 0.4003 0.0135 0.4542
C204 C 0.5102(2) 0.02109(8) 0.42538(15)
H124 H 0.5193 -0.0020 0.4195
C205 C 0.6473(2) 0.03376(9) 0.39064(17)
H125 H 0.6937 0.0518 0.3956
H126 H 0.6219 0.0287 0.3516
H127 H 0.6773 0.0137 0.4101
C206 C 0.3440(2) 0.07420(11) 0.47901(17)
H128 H 0.3525 0.0977 0.4903
H129 H 0.3458 0.0602 0.5107
H130 H 0.2834 0.0715 0.4513
C207 C 0.5249(4) 0.31397(15) 0.2286(3)
C208 C 0.4424(4) 0.32897(16) 0.1970(3)
H131 H 0.4106 0.3445 0.2135
C209 C 0.4061(4) 0.32166(15) 0.1418(3)
H132 H 0.3500 0.3322 0.1210
C210 C 0.4514(4) 0.29887(15) 0.1166(3)
C211 C 0.5299(4) 0.28236(16) 0.1483(3)
H133 H 0.5592 0.2657 0.1324
C212 C 0.5660(4) 0.29011(16) 0.2034(3)
H134 H 0.6205 0.2787 0.2244
C213 C 0.5617(5) 0.32172(17) 0.2889(3)
H135 H 0.6236 0.3322 0.2965
H136 H 0.5670 0.3009 0.3099
H137 H 0.5185 0.3370 0.2994
C214 C 0.4167(5) 0.29168(19) 0.0560(3)
H138 H 0.4441 0.3079 0.0363
H139 H 0.3483 0.2935 0.0436
H140 H 0.4353 0.2690 0.0490
loop_
_geom_bond_atom_site_label_1
_geom_bond_atom_site_label_2
_geom_bond_site_symmetry_1
_geom_bond_site_symmetry_2
C1 C2 1_555 1_555
C2 H1 1_555 1_555
C3 C2 1_555 1_555
H2 C3 1_555 1_555
C4 C3 1_555 1_555
C5 C4 1_555 1_555
C6 C5 1_555 1_555
C7 C6 1_555 1_555
C8 C7 1_555 1_555
H3 C8 1_555 1_555
C9 C8 1_555 1_555
C10 C9 1_555 1_555
H4 C10 1_555 1_555
C11 C6 1_555 1_555
C12 C7 1_555 1_555
H5 C12 1_555 1_555
H6 C12 1_555 1_555
H7 C12 1_555 1_555
C13 C9 1_555 1_555
H8 C13 1_555 1_555
H9 C13 1_555 1_555
H10 C13 1_555 1_555
C14 C11 1_555 1_555
H11 C14 1_555 1_555
H12 C14 1_555 1_555
H13 C14 1_555 1_555
C15 C5 1_555 1_555
C16 C15 1_555 1_555
H14 C16 1_555 1_555
C17 C16 1_555 1_555
H15 C17 1_555 1_555
C18 C17 1_555 1_555
C19 C18 1_555 1_555
C20 C19 1_555 1_555
C21 C20 1_555 1_555
H16 C21 1_555 1_555
C22 C21 1_555 1_555
H17 C22 1_555 1_555
C23 C22 1_555 1_555
H18 C23 1_555 1_555
C24 C23 1_555 1_555
C25 C20 1_555 1_555
H19 C25 1_555 1_555
C26 C19 1_555 1_555
C27 C26 1_555 1_555
H20 C27 1_555 1_555
C28 C27 1_555 1_555
H21 C28 1_555 1_555
C29 C28 1_555 1_555
C30 C29 1_555 1_555
C31 C30 1_555 1_555
C32 C31 1_555 1_555
C33 C32 1_555 1_555
H22 C33 1_555 1_555
C34 C33 1_555 1_555
C35 C34 1_555 1_555
H23 C35 1_555 1_555
C36 C31 1_555 1_555
C37 C32 1_555 1_555
H24 C37 1_555 1_555
H25 C37 1_555 1_555
H26 C37 1_555 1_555
C38 C34 1_555 1_555
H27 C38 1_555 1_555
H28 C38 1_555 1_555
H29 C38 1_555 1_555
C39 C36 1_555 1_555
H30 C39 1_555 1_555
H31 C39 1_555 1_555
H32 C39 1_555 1_555
C40 C30 1_555 1_555
C41 C40 1_555 1_555
H33 C41 1_555 1_555
C42 C41 1_555 1_555
H34 C42 1_555 1_555
C43 C42 1_555 1_555
C44 C1 1_555 1_555
C45 C44 1_555 1_555
C46 C45 1_555 1_555
H35 C46 1_555 1_555
C47 C46 1_555 1_555
H36 C47 1_555 1_555
C48 C47 1_555 1_555
H37 C48 1_555 1_555
C49 C48 1_555 1_555
C50 C45 1_555 1_555
H38 C50 1_555 1_555
C51 H39 1_555 1_555
H40 C51 1_555 1_555
C52 C51 1_555 1_555
H41 C52 1_555 1_555
H42 C52 1_555 1_555
C53 C52 1_555 1_555
H43 C53 1_555 1_555
H44 C53 1_555 1_555
C54 C53 1_555 1_555
H45 C54 1_555 1_555
H46 C54 1_555 1_555
C55 C54 1_555 1_555
H47 C55 1_555 1_555
H48 C55 1_555 1_555
C56 C55 1_555 1_555
H49 C56 1_555 1_555
H50 C56 1_555 1_555
C57 H51 1_555 1_555
H52 C57 1_555 1_555
C58 C57 1_555 1_555
H53 C58 1_555 1_555
H54 C58 1_555 1_555
C59 C58 1_555 1_555
H55 C59 1_555 1_555
H56 C59 1_555 1_555
C60 C59 1_555 1_555
H57 C60 1_555 1_555
H58 C60 1_555 1_555
C61 C60 1_555 1_555
H59 C61 1_555 1_555
H60 C61 1_555 1_555
C62 C61 1_555 1_555
H61 C62 1_555 1_555
H62 C62 1_555 1_555
C63 C64 1_555 1_555
C64 H63 1_555 1_555
C65 C64 1_555 1_555
H64 C65 1_555 1_555
C66 C65 1_555 1_555
C67 C66 1_555 1_555
C68 C67 1_555 1_555
C69 C68 1_555 1_555
C70 C69 1_555 1_555
H65 C70 1_555 1_555
C71 C70 1_555 1_555
C72 C71 1_555 1_555
H66 C72 1_555 1_555
C73 C68 1_555 1_555
C74 C69 1_555 1_555
H67 C74 1_555 1_555
H68 C74 1_555 1_555
H69 C74 1_555 1_555
C75 C71 1_555 1_555
H70 C75 1_555 1_555
H71 C75 1_555 1_555
H72 C75 1_555 1_555
C76 C73 1_555 1_555
H73 C76 1_555 1_555
H74 C76 1_555 1_555
H75 C76 1_555 1_555
C77 C67 1_555 1_555
C78 C77 1_555 1_555
H76 C78 1_555 1_555
C79 C78 1_555 1_555
H77 C79 1_555 1_555
C80 C79 1_555 1_555
C81 C80 1_555 1_555
C82 C81 1_555 1_555
C83 C82 1_555 1_555
H78 C83 1_555 1_555
C84 C83 1_555 1_555
C85 C84 1_555 1_555
H79 C85 1_555 1_555
C86 C85 1_555 1_555
H80 C86 1_555 1_555
C87 C82 1_555 1_555
H81 C87 1_555 1_555
C88 C81 1_555 1_555
C89 C88 1_555 1_555
H82 C89 1_555 1_555
C90 C89 1_555 1_555
H83 C90 1_555 1_555
C91 C90 1_555 1_555
C92 C91 1_555 1_555
C93 C92 1_555 1_555
C94 C93 1_555 1_555
C95 C94 1_555 1_555
H84 C95 1_555 1_555
C96 C95 1_555 1_555
C97 C96 1_555 1_555
H85 C97 1_555 1_555
C98 C93 1_555 1_555
C99 C94 1_555 1_555
H86 C99 1_555 1_555
H87 C99 1_555 1_555
H88 C99 1_555 1_555
C100 C96 1_555 1_555
H89 C100 1_555 1_555
H90 C100 1_555 1_555
H91 C100 1_555 1_555
C101 C98 1_555 1_555
H92 C101 1_555 1_555
H93 C101 1_555 1_555
H94 C101 1_555 1_555
C102 C92 1_555 1_555
C103 C102 1_555 1_555
H95 C103 1_555 1_555
C104 C103 1_555 1_555
H96 C104 1_555 1_555
C105 C104 1_555 1_555
C106 C63 1_555 1_555
C107 C106 1_555 1_555
C108 C107 1_555 1_555
H97 C108 1_555 1_555
C109 C108 1_555 1_555
C110 C109 1_555 1_555
H98 C110 1_555 1_555
C111 C110 1_555 1_555
H99 C111 1_555 1_555
C112 C107 1_555 1_555
H100 C112 1_555 1_555
N1 C1 1_555 1_555
N2 C15 1_555 1_555
N3 C26 1_555 1_555
N4 C40 1_555 1_555
N5 C102 1_555 1_555
N6 C63 1_555 1_555
N7 C77 1_555 1_555
N8 C88 1_555 1_555
O1 C24 1_555 1_555
O2 C56 1_555 1_555
O3 C49 1_555 1_555
O4 C62 1_555 1_555
Zn1 N1 1_555 1_555
Zn2 N5 1_555 1_555
C113 C114 1_555 1_555
C114 C115 1_555 1_555
C115 C116 1_555 1_555
C116 C117 1_555 1_555
C117 C118 1_555 1_555
C118 C113 1_555 1_555
C119 C118 1_555 1_555
C120 C119 1_555 1_555
C121 C113 1_555 1_555
C122 C121 1_555 1_555
C123 C122 1_555 1_555
C124 C114 1_555 1_555
C125 C124 1_555 1_555
C126 C125 1_555 1_555
C127 C115 1_555 1_555
C128 C127 1_555 1_555
C129 C116 1_555 1_555
C130 C129 1_555 1_555
C131 C130 1_555 1_555
C132 C117 1_555 1_555
C133 C132 1_555 1_555
C134 C119 1_555 1_555
C135 C134 1_555 1_555
C136 C135 1_555 1_555
C137 C120 1_555 1_555
C138 C137 1_555 1_555
C139 C122 1_555 1_555
C140 C139 1_555 1_555
C141 C123 1_555 1_555
C142 C141 1_555 1_555
C143 C125 1_555 1_555
C144 C143 1_555 1_555
C145 C126 1_555 1_555
C146 C145 1_555 1_555
C147 C128 1_555 1_555
C148 C147 1_555 1_555
C149 C130 1_555 1_555
C150 C149 1_555 1_555
C151 C131 1_555 1_555
C152 C151 1_555 1_555
C153 C133 1_555 1_555
C154 C135 1_555 1_555
C155 C154 1_555 1_555
C156 C155 1_555 1_555
C157 C136 1_555 1_555
C158 C138 1_555 1_555
C159 C158 1_555 1_555
C160 C140 1_555 1_555
C161 C160 1_555 1_555
C162 C142 1_555 1_555
C163 C162 1_555 1_555
C164 C144 1_555 1_555
C165 C164 1_555 1_555
C166 C146 1_555 1_555
C167 C148 1_555 1_555
C168 C167 1_555 1_555
C169 C150 1_555 1_555
C170 C169 1_555 1_555
C171 C152 1_555 1_555
C172 C155 1_555 1_555
C173 C172 1_555 1_555
C174 C156 1_555 1_555
C175 C159 1_555 1_555
C176 C161 1_555 1_555
C177 C176 1_555 1_555
C178 C163 1_555 1_555
C179 C165 1_555 1_555
C180 C168 1_555 1_555
C181 C170 1_555 1_555
C182 C173 1_555 1_555
C183 C184 1_555 1_555
C184 H101 1_555 1_555
C185 C184 1_555 1_555
H102 C185 1_555 1_555
C186 C185 1_555 1_555
C187 C186 1_555 1_555
H103 C187 1_555 1_555
C188 C183 1_555 1_555
H104 C188 1_555 1_555
C189 C183 1_555 1_555
H105 C189 1_555 1_555
H106 C189 1_555 1_555
H107 C189 1_555 1_555
C190 C186 1_555 1_555
H108 C190 1_555 1_555
H109 C190 1_555 1_555
H110 C190 1_555 1_555
C191 C192 1_555 1_555
C192 H111 1_555 1_555
C193 C192 1_555 1_555
H112 C193 1_555 1_555
C194 C193 1_555 1_555
C195 C194 1_555 1_555
H113 C195 1_555 1_555
C196 C191 1_555 1_555
H114 C196 1_555 1_555
C197 C191 1_555 1_555
H115 C197 1_555 1_555
H116 C197 1_555 1_555
H117 C197 1_555 1_555
C198 C194 1_555 1_555
H118 C198 1_555 1_555
H119 C198 1_555 1_555
H120 C198 1_555 1_555
C199 C200 1_555 1_555
C200 H121 1_555 1_555
C201 C200 1_555 1_555
H122 C201 1_555 1_555
C202 C201 1_555 1_555
C203 C202 1_555 1_555
H123 C203 1_555 1_555
C204 C199 1_555 1_555
H124 C204 1_555 1_555
C205 C199 1_555 1_555
H125 C205 1_555 1_555
H126 C205 1_555 1_555
H127 C205 1_555 1_555
C206 C202 1_555 1_555
H128 C206 1_555 1_555
H129 C206 1_555 1_555
H130 C206 1_555 1_555
C207 C208 1_555 1_555
C208 H131 1_555 1_555
C209 C208 1_555 1_555
H132 C209 1_555 1_555
C210 C209 1_555 1_555
C211 C210 1_555 1_555
H133 C211 1_555 1_555
C212 C207 1_555 1_555
H134 C212 1_555 1_555
C213 C207 1_555 1_555
H135 C213 1_555 1_555
H136 C213 1_555 1_555
H137 C213 1_555 1_555
C214 C210 1_555 1_555
H138 C214 1_555 1_555
H139 C214 1_555 1_555
H140 C214 1_555 1_555
C4 N1 1_555 1_555
C10 C11 1_555 1_555
C18 N2 1_555 1_555
C24 C25 1_555 1_555
C29 N3 1_555 1_555
C35 C36 1_555 1_555
C43 C44 1_555 1_555
C43 N4 1_555 1_555
C49 C50 1_555 1_555
C51 O1 1_555 1_555
C57 O3 1_555 1_555
C66 N6 1_555 1_555
C72 C73 1_555 1_555
C80 N7 1_555 1_555
C84 O2 1_555 1_555
C86 C87 1_555 1_555
C91 N8 1_555 1_555
C97 C98 1_555 1_555
C105 C106 1_555 1_555
C105 N5 1_555 1_555
C109 O4 1_555 1_555
C111 C112 1_555 1_555
N2 Zn1 1_555 1_555
N3 Zn1 1_555 1_555
N4 Zn1 1_555 1_555
N6 Zn2 1_555 1_555
N7 Zn2 1_555 1_555
N8 Zn2 1_555 1_555
C120 C121 1_555 1_555
C123 C124 1_555 1_555
C126 C127 1_555 1_555
C128 C129 1_555 1_555
C131 C132 1_555 1_555
C133 C134 1_555 1_555
C136 C137 1_555 1_555
C138 C139 1_555 1_555
C140 C141 1_555 1_555
C142 C143 1_555 1_555
C144 C145 1_555 1_555
C146 C147 1_555 1_555
C148 C149 1_555 1_555
C150 C151 1_555 1_555
C152 C153 1_555 1_555
C153 C154 1_555 1_555
C156 C157 1_555 1_555
C157 C158 1_555 1_555
C159 C160 1_555 1_555
C161 C162 1_555 1_555
C163 C164 1_555 1_555
C165 C166 1_555 1_555
C166 C167 1_555 1_555
C168 C169 1_555 1_555
C170 C171 1_555 1_555
C171 C172 1_555 1_555
C173 C174 1_555 1_555
C174 C175 1_555 1_555
C175 C176 1_555 1_555
C177 C178 1_555 1_555
C177 C182 1_555 1_555
C178 C179 1_555 1_555
C179 C180 1_555 1_555
C180 C181 1_555 1_555
C181 C182 1_555 1_555
C187 C188 1_555 1_555
C195 C196 1_555 1_555
C203 C204 1_555 1_555
C211 C212 1_555 1_555

#END
