
#######################################################################
#
#                 Cambridge Crystallographic Data Centre
#                                CCDC 
#
#######################################################################
#
# If this CIF has been generated from an entry in the Cambridge 
# Structural Database, then it will include bibliographic, chemical, 
# crystal, experimental, refinement or atomic coordinate data resulting 
# from the CCDC's data processing and validation procedures.
#
#######################################################################

data_NAPJOF
_chemical_formula_moiety         'C112 H84 N8 O4 Zn2,C70,3(C7 H8)'
_chemical_name_systematic        
"(\m~2~-5,5':15,15'-bis(3,3'-[hexa-2,4-diyne-1,6-diylbis(oxy)]dibenzen-1,1'-diyl)-10,10',20,20'-tetrakis(2,4,6-trimethylphenyl)bis(porphyrinato))-di-zinc(ii) C70fullerene toluene solvate"
_symmetry_cell_setting           monoclinic
_symmetry_space_group_name_H-M   'P 21/n'
_symmetry_Int_Tables_number      14
_space_group_name_Hall           '-P 2yn'
loop_
_symmetry_equiv_pos_site_id
_symmetry_equiv_pos_as_xyz
1 x,y,z
2 1/2-x,1/2+y,1/2-z
3 -x,-y,-z
4 1/2+x,1/2-y,1/2+z
_cell_length_a                   14.445(3)
_cell_length_b                   44.112(9)
_cell_length_c                   21.377(4)
_cell_angle_alpha                90
_cell_angle_beta                 95.64(3)
_cell_angle_gamma                90
_cell_volume                     13555.4
_exptl_crystal_colour            brown
_exptl_crystal_description       block
_cell_formula_units_Z            4
loop_
_atom_site_label
_atom_site_type_symbol
_atom_site_fract_x
_atom_site_fract_y
_atom_site_fract_z
C1 C 1.1143(5) 0.68315(15) 0.5805(3)
C2 C 1.2153(5) 0.68041(16) 0.5830(3)
H1 H 1.2595 0.6901 0.6122
C3 C 1.2344(5) 0.66144(17) 0.5360(3)
H2 H 1.2946 0.6558 0.5258
C4 C 1.1466(5) 0.65124(16) 0.5043(3)
C5 C 1.1361(5) 0.63088(17) 0.4537(3)
C6 C 1.2207(5) 0.62163(18) 0.4228(3)
C7 C 1.2545(5) 0.64184(19) 0.3788(4)
C8 C 1.3310(5) 0.6329(2) 0.3472(4)
H3 H 1.3536 0.6464 0.3177
C9 C 1.3750(5) 0.6050(2) 0.3576(4)
C10 C 1.3406(5) 0.5857(2) 0.4016(4)
H4 H 1.3701 0.5667 0.4099
C11 C 1.2638(5) 0.59350(19) 0.4339(4)
C12 C 1.2084(6) 0.6723(2) 0.3641(4)
H5 H 1.2171 0.6853 0.4013
H6 H 1.1417 0.6693 0.3523
H7 H 1.2365 0.6819 0.3292
C13 C 1.4549(6) 0.5954(3) 0.3216(4)
H8 H 1.4308 0.5891 0.2792
H9 H 1.4879 0.5784 0.3434
H10 H 1.4978 0.6124 0.3189
C14 C 1.2281(6) 0.57132(19) 0.4802(4)
H11 H 1.2262 0.5813 0.5211
H12 H 1.2696 0.5537 0.4849
H13 H 1.1653 0.5647 0.4646
C15 C 1.0497(5) 0.61944(16) 0.4273(3)
C16 C 1.0391(6) 0.59795(18) 0.3769(4)
H14 H 1.0876 0.5897 0.3553
C17 C 0.9477(5) 0.59170(19) 0.3658(4)
H15 H 0.9202 0.5783 0.3346
C18 C 0.8986(5) 0.60895(18) 0.4098(3)
C19 C 0.8024(5) 0.60858(17) 0.4148(3)
C20 C 0.7478(5) 0.5867(2) 0.3704(4)
C21 C 0.7236(5) 0.5942(2) 0.3086(4)
H16 H 0.7388 0.6137 0.2936
C22 C 0.6772(6) 0.5736(3) 0.2679(4)
H17 H 0.6590 0.5791 0.2255
C23 C 0.6580(6) 0.5457(2) 0.2887(4)
H18 H 0.6286 0.5314 0.2599
C24 C 0.6801(6) 0.5371(2) 0.3510(4)
C25 C 0.7266(5) 0.5576(2) 0.3929(4)
H19 H 0.7436 0.5522 0.4355
C26 C 0.7541(5) 0.62630(18) 0.4551(3)
C27 C 0.6536(5) 0.62619(19) 0.4568(4)
H20 H 0.6102 0.6130 0.4344
C28 C 0.6341(5) 0.64887(18) 0.4970(4)
H21 H 0.5741 0.6547 0.5072
C29 C 0.7214(5) 0.66238(18) 0.5211(4)
C30 C 0.7314(5) 0.68691(16) 0.5632(3)
C31 C 0.6430(5) 0.70081(17) 0.5843(3)
C32 C 0.5978(5) 0.68674(18) 0.6326(4)
C33 C 0.5182(5) 0.69996(18) 0.6529(4)
H22 H 0.4874 0.6902 0.6846
C34 C 0.4831(5) 0.72707(19) 0.6277(4)
C35 C 0.5272(6) 0.7407(2) 0.5806(4)
H23 H 0.5034 0.7592 0.5630
C36 C 0.6068(5) 0.72777(19) 0.5579(4)
C37 C 0.6345(6) 0.6572(2) 0.6621(4)
H24 H 0.6323 0.6414 0.6299
H25 H 0.5960 0.6512 0.6953
H26 H 0.6989 0.6601 0.6802
C38 C 0.4005(6) 0.7422(2) 0.6545(4)
H27 H 0.4148 0.7635 0.6634
H28 H 0.3879 0.7319 0.6934
H29 H 0.3455 0.7407 0.6238
C39 C 0.6529(6) 0.7434(2) 0.5058(4)
H30 H 0.6849 0.7617 0.5224
H31 H 0.6055 0.7489 0.4717
H32 H 0.6981 0.7296 0.4895
C40 C 0.8178(5) 0.69881(16) 0.5886(3)
C41 C 0.8272(6) 0.72291(17) 0.6345(4)
H33 H 0.7780 0.7339 0.6503
C42 C 0.9192(5) 0.72681(18) 0.6508(4)
H34 H 0.9464 0.7409 0.6807
C43 C 0.9689(5) 0.70561(17) 0.6146(3)
C44 C 1.0655(5) 0.70207(16) 0.6191(3)
C45 C 1.1213(5) 0.71793(16) 0.6730(4)
C46 C 1.1487(5) 0.70078(18) 0.7266(4)
H35 H 1.1343 0.6798 0.7266
C47 C 1.1963(5) 0.71346(19) 0.7801(4)
C48 C 1.2209(6) 0.7437(2) 0.7798(4)
H36 H 1.2549 0.7527 0.8154
C49 C 1.1946(6) 0.7609(2) 0.7262(4)
H37 H 1.2109 0.7818 0.7258
C50 C 1.1457(5) 0.74851(18) 0.6736(4)
H38 H 1.1287 0.7608 0.6378
C51 C 0.6691(7) 0.5003(2) 0.4309(5)
H39 H 0.7355 0.5032 0.4461
H40 H 0.6544 0.4786 0.4353
C52 C 0.6129(6) 0.5177(2) 0.4707(5)
C53 C 0.5656(7) 0.5334(2) 0.5009(4)
C54 C 0.5147(6) 0.5526(2) 0.5359(4)
C55 C 0.4709(6) 0.5696(2) 0.5657(4)
C56 C 0.4193(6) 0.5898(2) 0.6039(4)
H41 H 0.4217 0.6108 0.5882
H42 H 0.3533 0.5834 0.6019
C57 C 1.2562(6) 0.7041(2) 0.8880(4)
H43 H 1.2161 0.7199 0.9044
H44 H 1.3182 0.7130 0.8838
C58 C 1.2644(6) 0.6780(3) 0.9305(4)
C59 C 1.2688(6) 0.6548(3) 0.9609(4)
C60 C 1.2713(6) 0.6276(3) 0.9943(4)
C61 C 1.2703(6) 0.6039(3) 1.0224(4)
C62 C 1.2645(6) 0.5757(2) 1.0573(4)
H45 H 1.2089 0.5643 1.0397
H46 H 1.3199 0.5632 1.0515
C63 C 0.9426(5) 0.64538(16) 1.0329(3)
C64 C 1.0201(5) 0.66554(17) 1.0261(4)
H47 H 1.0804 0.6642 1.0480
C65 C 0.9906(5) 0.68653(18) 0.9829(4)
H48 H 1.0266 0.7028 0.9689
C66 C 0.8945(5) 0.68005(16) 0.9614(3)
C67 C 0.8378(5) 0.69721(16) 0.9173(3)
C68 C 0.8796(5) 0.72672(17) 0.8971(3)
C69 C 0.8661(6) 0.75383(19) 0.9293(4)
C70 C 0.9160(6) 0.77962(17) 0.9136(4)
H49 H 0.9072 0.7980 0.9353
C71 C 0.9777(6) 0.77930(18) 0.8675(4)
C72 C 0.9866(5) 0.75274(17) 0.8352(4)
H50 H 1.0265 0.7524 0.8024
C73 C 0.9399(5) 0.72649(17) 0.8484(4)
C74 C 0.7996(7) 0.7551(2) 0.9789(4)
H51 H 0.7368 0.7501 0.9602
H52 H 0.7998 0.7756 0.9968
H53 H 0.8188 0.7405 1.0122
C75 C 1.0327(7) 0.80747(19) 0.8540(5)
H54 H 1.0365 0.8092 0.8086
H55 H 1.0956 0.8060 0.8757
H56 H 1.0016 0.8254 0.8691
C76 C 0.9548(6) 0.69769(18) 0.8122(4)
H57 H 0.9794 0.7028 0.7724
H58 H 0.8954 0.6870 0.8036
H59 H 0.9991 0.6846 0.8371
C77 C 0.7487(5) 0.68864(17) 0.8918(3)
C78 C 0.6948(6) 0.70402(19) 0.8409(4)
H60 H 0.7095 0.7229 0.8229
C79 C 0.6193(5) 0.68663(19) 0.8234(4)
H61 H 0.5730 0.6906 0.7897
C80 C 0.6224(5) 0.66092(18) 0.8657(4)
C81 C 0.5556(5) 0.63739(18) 0.8642(4)
C82 C 0.4846(5) 0.63513(18) 0.8071(4)
C83 C 0.4113(6) 0.6552(2) 0.7967(4)
H62 H 0.4023 0.6708 0.8261
C84 C 0.3499(6) 0.6521(2) 0.7411(4)
H63 H 0.2980 0.6653 0.7340
C85 C 0.3643(6) 0.6301(2) 0.6972(4)
H64 H 0.3233 0.6285 0.6598
C86 C 0.4376(5) 0.6105(2) 0.7075(4)
C87 C 0.4971(5) 0.61283(19) 0.7630(4)
H65 H 0.5469 0.5989 0.7706
C88 C 0.5531(5) 0.61414(18) 0.9089(4)
C89 C 0.4785(5) 0.5922(2) 0.9105(4)
H66 H 0.4249 0.5905 0.8811
C90 C 0.4999(5) 0.5748(2) 0.9616(4)
H67 H 0.4635 0.5587 0.9755
C91 C 0.5893(5) 0.58532(18) 0.9915(4)
C92 C 0.6357(5) 0.57187(18) 1.0453(4)
C93 C 0.5930(5) 0.54585(18) 1.0776(3)
C94 C 0.6241(6) 0.5159(2) 1.0693(4)
C95 C 0.5970(6) 0.4935(2) 1.1080(4)
H68 H 0.6209 0.4737 1.1034
C96 C 0.5363(6) 0.4984(2) 1.1537(4)
C97 C 0.5001(6) 0.5273(2) 1.1578(4)
H69 H 0.4553 0.5309 1.1867
C98 C 0.5270(5) 0.55119(19) 1.1213(4)
C99 C 0.6885(6) 0.5094(2) 1.0177(4)
H70 H 0.7468 0.5206 1.0267
H71 H 0.6579 0.5157 0.9769
H72 H 0.7017 0.4876 1.0167
C100 C 0.5151(7) 0.4733(2) 1.1988(5)
H73 H 0.4815 0.4817 1.2324
H74 H 0.5734 0.4641 1.2170
H75 H 0.4767 0.4577 1.1760
C101 C 0.4924(5) 0.5831(2) 1.1313(4)
H76 H 0.4400 0.5824 1.1571
H77 H 0.4720 0.5923 1.0905
H78 H 0.5428 0.5953 1.1527
C102 C 0.7249(5) 0.58114(17) 1.0714(3)
C103 C 0.7756(5) 0.56750(17) 1.1260(4)
H79 H 0.7539 0.5517 1.1510
C104 C 0.8597(5) 0.58133(17) 1.1350(4)
H80 H 0.9078 0.5769 1.1673
C105 C 0.8625(5) 0.60382(17) 1.0869(3)
C106 C 0.9396(5) 0.62242(16) 1.0780(3)
C107 C 1.0262(5) 0.61666(17) 1.1219(3)
C108 C 1.1017(5) 0.60165(17) 1.1000(4)
H81 H 1.0989 0.5956 1.0572
C109 C 1.1811(5) 0.59548(17) 1.1406(4)
C110 C 1.1848(6) 0.60388(19) 1.2031(4)
H82 H 1.2383 0.5994 1.2310
C111 C 1.1102(6) 0.6189(2) 1.2249(4)
H83 H 1.1128 0.6250 1.2677
C112 C 1.0318(2) 0.62500(7) 1.18428(15)
H84 H 0.9808 0.6352 1.1997
N1 N 1.0748(4) 0.66482(13) 0.5329(3)
N2 N 0.9632(4) 0.62618(13) 0.4469(3)
N3 N 0.7936(4) 0.64789(14) 0.4950(3)
N4 N 0.9049(4) 0.68936(13) 0.5752(3)
N5 N 0.8673(4) 0.65420(14) 0.9914(3)
N6 N 0.7016(4) 0.66281(14) 0.9074(3)
N7 N 0.6191(4) 0.60954(14) 0.9586(3)
N8 N 0.7789(4) 0.60400(14) 1.0490(3)
O1 O 0.6563(4) 0.50809(15) 0.3667(3)
O2 O 1.2156(4) 0.69316(14) 0.8285(3)
O3 O 0.4614(4) 0.58806(14) 0.6670(3)
O4 O 1.2590(4) 0.58032(13) 1.1237(3)
Zn1 Zn 0.93393(6) 0.657378(19) 0.51200(4)
Zn2 Zn 0.74063(6) 0.633079(19) 0.97795(4)
C113 C 0.8037(2) 0.81847(7) 0.68454(15)
C114 C 0.7130(2) 0.81943(7) 0.65788(15)
H85 H 0.6925 0.8346 0.6282
C115 C 0.6527(2) 0.79727(7) 0.67606(15)
H86 H 0.5906 0.7977 0.6568
C116 C 0.6751(2) 0.77442(7) 0.72009(15)
H87 H 0.6306 0.7605 0.7329
C117 C 0.7722(2) 0.77384(7) 0.74449(15)
H88 H 0.7940 0.7584 0.7732
C118 C 0.8348(2) 0.79598(7) 0.72609(15)
H89 H 0.8983 0.7953 0.7424
C119 C 0.8722(2) 0.84295(7) 0.66654(15)
H90 H 0.8602 0.8475 0.6216
H91 H 0.9361 0.8355 0.6755
H92 H 0.8640 0.8614 0.6911
C120 C 0.1085(2) 0.82692(7) 0.56995(15)
C121 C 0.1852(2) 0.81186(7) 0.55640(15)
H93 H 0.1846 0.7997 0.5197
C122 C 0.2621(2) 0.81452(7) 0.59620(15)
H94 H 0.3159 0.8038 0.5865
C123 C 0.2686(2) 0.83149(7) 0.64954(15)
H95 H 0.3261 0.8331 0.6750
C124 C 0.1872(2) 0.84697(7) 0.66685(15)
H96 H 0.1892 0.8581 0.7051
C125 C 0.1035(2) 0.84533(7) 0.62541(15)
H97 H 0.0482 0.8556 0.6338
C126 C 0.0180(2) 0.82398(7) 0.52307(15)
H98 H 0.0350 0.8188 0.4811
H99 H -0.0157 0.8433 0.5211
H100 H -0.0219 0.8080 0.5377
C127 C 0.9488(8) 0.7250(3) 0.4064(5)
C128 C 0.8697(7) 0.7105(3) 0.4164(5)
H101 H 0.8404 0.7138 0.4537
C129 C 0.8336(7) 0.6913(3) 0.3719(6)
H102 H 0.7751 0.6824 0.3774
C130 C 0.8740(9) 0.6835(3) 0.3195(5)
H103 H 0.8472 0.6684 0.2916
C131 C 0.9584(9) 0.6987(3) 0.3077(5)
H104 H 0.9891 0.6936 0.2718
C132 C 0.9959(7) 0.7215(3) 0.3503(5)
H105 H 1.0480 0.7336 0.3423
C133 C 0.9884(10) 0.7492(3) 0.4554(6)
H106 H 0.9386 0.7562 0.4799
H107 H 1.0131 0.7665 0.4333
H108 H 1.0383 0.7402 0.4837
C134 C 0.25887(19) 0.89633(6) 0.26590(15)
C135 C 0.23199(17) 0.91196(7) 0.20799(14)
C136 C 0.27674(19) 0.90178(7) 0.15606(13)
C137 C 0.3549(2) 0.88254(6) 0.16250(14)
C138 C 0.3933(2) 0.87231(5) 0.22262(14)
C139 C 0.3373(2) 0.87721(5) 0.27276(15)
C140 C 0.3780(2) 0.87929(6) 0.33797(14)
C141 C 0.3215(2) 0.89989(7) 0.36974(13)
C142 C 0.24861(19) 0.91075(7) 0.32529(14)
C143 C 0.22034(17) 0.94033(8) 0.32800(14)
C144 C 0.19929(15) 0.95782(7) 0.26973(14)
C145 C 0.20287(14) 0.94340(7) 0.21102(14)
C146 C 0.21833(16) 0.96284(7) 0.15983(13)
C147 C 0.25726(19) 0.95157(8) 0.10551(12)
C148 C 0.2858(2) 0.92200(7) 0.10308(12)
C149 C 0.3718(2) 0.91412(7) 0.07707(11)
C150 C 0.4161(2) 0.88994(6) 0.11485(13)
C151 C 0.5106(2) 0.88933(6) 0.12731(13)
C152 C 0.5512(2) 0.88073(5) 0.18945(14)
C153 C 0.4959(2) 0.87138(5) 0.23693(15)
C154 C 0.5342(2) 0.87558(5) 0.29911(14)
C155 C 0.4738(2) 0.87838(6) 0.35036(14)
C156 C 0.5176(2) 0.89827(7) 0.39723(12)
C157 C 0.4654(2) 0.91816(8) 0.42945(11)
C158 C 0.3645(2) 0.91914(8) 0.41567(11)
C159 C 0.3349(2) 0.95020(8) 0.41818(11)
C160 C 0.2643(2) 0.96028(8) 0.37520(13)
C161 C 0.2714(2) 0.99039(7) 0.34511(14)
C162 C 0.23124(17) 0.98729(7) 0.28154(14)
C163 C 0.26602(18) 1.00478(6) 0.23303(14)
C164 C 0.25002(18) 0.99327(7) 0.17074(14)
C165 C 0.3085(2) 1.00119(7) 0.12305(13)
C166 C 0.3131(2) 0.97568(7) 0.08134(11)
C167 C 0.3963(2) 0.96838(8) 0.05653(10)
C168 C 0.4251(2) 0.93735(8) 0.05364(10)
C169 C 0.5251(2) 0.93628(7) 0.06718(11)
C170 C 0.5683(2) 0.91267(7) 0.10437(12)
C171 C 0.64221(19) 0.91908(7) 0.15201(14)
C172 C 0.63276(19) 0.89945(6) 0.20452(14)
C173 C 0.65824(17) 0.90892(7) 0.26748(14)
C174 C 0.6131(2) 0.89396(6) 0.31567(14)
C175 C 0.6044(2) 0.90793(7) 0.37475(13)
C176 C 0.63405(19) 0.93753(8) 0.38519(12)
C177 C 0.5812(2) 0.95842(8) 0.41919(11)
C178 C 0.4966(2) 0.94919(8) 0.44080(10)
C179 C 0.4171(2) 0.96892(8) 0.43345(10)
C180 C 0.4236(2) 0.99708(7) 0.40466(12)
C181 C 0.3498(2) 1.00790(6) 0.36004(13)
C182 C 0.3901(2) 1.02427(5) 0.31081(14)
C183 C 0.3493(2) 1.02399(5) 0.24864(14)
C184 C 0.4103(2) 1.02968(5) 0.20091(14)
C185 C 0.3867(2) 1.01857(6) 0.13701(13)
C186 C 0.4725(2) 1.01158(6) 0.11106(13)
C187 C 0.4782(2) 0.98711(7) 0.07194(11)
C188 C 0.5579(2) 0.96695(7) 0.07876(11)
C189 C 0.62955(19) 0.97264(7) 0.12543(13)
C190 C 0.67125(17) 0.94838(7) 0.16186(14)
C191 C 0.69295(15) 0.95946(7) 0.22639(14)
C192 C 0.69092(15) 0.93992(7) 0.27845(14)
C193 C 0.67500(16) 0.95398(7) 0.33613(13)
C194 C 0.64546(18) 0.98455(7) 0.33884(13)
C195 C 0.5869(2) 0.98764(7) 0.38947(12)
C196 C 0.5101(2) 1.00684(7) 0.38261(12)
C197 C 0.4896(2) 1.02347(5) 0.32474(14)
C198 C 0.5489(2) 1.02247(5) 0.27643(14)
C199 C 0.5075(2) 1.02881(5) 0.21482(15)
C200 C 0.5478(2) 1.01760(6) 0.15992(14)
C201 C 0.6234(2) 0.99883(7) 0.16657(14)
C202 C 0.66361(17) 0.98985(7) 0.22874(14)
C203 C 0.62993(18) 1.00229(6) 0.28392(14)
loop_
_geom_bond_atom_site_label_1
_geom_bond_atom_site_label_2
_geom_bond_site_symmetry_1
_geom_bond_site_symmetry_2
C1 C2 1_555 1_555
C2 H1 1_555 1_555
C3 C2 1_555 1_555
H2 C3 1_555 1_555
C4 C3 1_555 1_555
C5 C4 1_555 1_555
C6 C5 1_555 1_555
C7 C6 1_555 1_555
C8 C7 1_555 1_555
H3 C8 1_555 1_555
C9 C8 1_555 1_555
C10 C9 1_555 1_555
H4 C10 1_555 1_555
C11 C6 1_555 1_555
C12 C7 1_555 1_555
H5 C12 1_555 1_555
H6 C12 1_555 1_555
H7 C12 1_555 1_555
C13 C9 1_555 1_555
H8 C13 1_555 1_555
H9 C13 1_555 1_555
H10 C13 1_555 1_555
C14 C11 1_555 1_555
H11 C14 1_555 1_555
H12 C14 1_555 1_555
H13 C14 1_555 1_555
C15 C5 1_555 1_555
C16 C15 1_555 1_555
H14 C16 1_555 1_555
C17 C16 1_555 1_555
H15 C17 1_555 1_555
C18 C17 1_555 1_555
C19 C18 1_555 1_555
C20 C19 1_555 1_555
C21 C20 1_555 1_555
H16 C21 1_555 1_555
C22 C21 1_555 1_555
H17 C22 1_555 1_555
C23 C22 1_555 1_555
H18 C23 1_555 1_555
C24 C23 1_555 1_555
C25 C20 1_555 1_555
H19 C25 1_555 1_555
C26 C19 1_555 1_555
C27 C26 1_555 1_555
H20 C27 1_555 1_555
C28 C27 1_555 1_555
H21 C28 1_555 1_555
C29 C28 1_555 1_555
C30 C29 1_555 1_555
C31 C30 1_555 1_555
C32 C31 1_555 1_555
C33 C32 1_555 1_555
H22 C33 1_555 1_555
C34 C33 1_555 1_555
C35 C34 1_555 1_555
H23 C35 1_555 1_555
C36 C31 1_555 1_555
C37 C32 1_555 1_555
H24 C37 1_555 1_555
H25 C37 1_555 1_555
H26 C37 1_555 1_555
C38 C34 1_555 1_555
H27 C38 1_555 1_555
H28 C38 1_555 1_555
H29 C38 1_555 1_555
C39 C36 1_555 1_555
H30 C39 1_555 1_555
H31 C39 1_555 1_555
H32 C39 1_555 1_555
C40 C30 1_555 1_555
C41 C40 1_555 1_555
H33 C41 1_555 1_555
C42 C41 1_555 1_555
H34 C42 1_555 1_555
C43 C42 1_555 1_555
C44 C1 1_555 1_555
C45 C44 1_555 1_555
C46 C45 1_555 1_555
H35 C46 1_555 1_555
C47 C46 1_555 1_555
C48 C47 1_555 1_555
H36 C48 1_555 1_555
C49 C48 1_555 1_555
H37 C49 1_555 1_555
C50 C45 1_555 1_555
H38 C50 1_555 1_555
C51 H39 1_555 1_555
H40 C51 1_555 1_555
C52 C51 1_555 1_555
C53 C52 1_555 1_555
C54 C53 1_555 1_555
C55 C54 1_555 1_555
C56 C55 1_555 1_555
H41 C56 1_555 1_555
H42 C56 1_555 1_555
C57 H43 1_555 1_555
H44 C57 1_555 1_555
C58 C57 1_555 1_555
C59 C58 1_555 1_555
C60 C59 1_555 1_555
C61 C60 1_555 1_555
C62 C61 1_555 1_555
H45 C62 1_555 1_555
H46 C62 1_555 1_555
C63 C64 1_555 1_555
C64 H47 1_555 1_555
C65 C64 1_555 1_555
H48 C65 1_555 1_555
C66 C65 1_555 1_555
C67 C66 1_555 1_555
C68 C67 1_555 1_555
C69 C68 1_555 1_555
C70 C69 1_555 1_555
H49 C70 1_555 1_555
C71 C70 1_555 1_555
C72 C71 1_555 1_555
H50 C72 1_555 1_555
C73 C68 1_555 1_555
C74 C69 1_555 1_555
H51 C74 1_555 1_555
H52 C74 1_555 1_555
H53 C74 1_555 1_555
C75 C71 1_555 1_555
H54 C75 1_555 1_555
H55 C75 1_555 1_555
H56 C75 1_555 1_555
C76 C73 1_555 1_555
H57 C76 1_555 1_555
H58 C76 1_555 1_555
H59 C76 1_555 1_555
C77 C67 1_555 1_555
C78 C77 1_555 1_555
H60 C78 1_555 1_555
C79 C78 1_555 1_555
H61 C79 1_555 1_555
C80 C79 1_555 1_555
C81 C80 1_555 1_555
C82 C81 1_555 1_555
C83 C82 1_555 1_555
H62 C83 1_555 1_555
C84 C83 1_555 1_555
H63 C84 1_555 1_555
C85 C84 1_555 1_555
H64 C85 1_555 1_555
C86 C85 1_555 1_555
C87 C82 1_555 1_555
H65 C87 1_555 1_555
C88 C81 1_555 1_555
C89 C88 1_555 1_555
H66 C89 1_555 1_555
C90 C89 1_555 1_555
H67 C90 1_555 1_555
C91 C90 1_555 1_555
C92 C91 1_555 1_555
C93 C92 1_555 1_555
C94 C93 1_555 1_555
C95 C94 1_555 1_555
H68 C95 1_555 1_555
C96 C95 1_555 1_555
C97 C96 1_555 1_555
H69 C97 1_555 1_555
C98 C93 1_555 1_555
C99 C94 1_555 1_555
H70 C99 1_555 1_555
H71 C99 1_555 1_555
H72 C99 1_555 1_555
C100 C96 1_555 1_555
H73 C100 1_555 1_555
H74 C100 1_555 1_555
H75 C100 1_555 1_555
C101 C98 1_555 1_555
H76 C101 1_555 1_555
H77 C101 1_555 1_555
H78 C101 1_555 1_555
C102 C92 1_555 1_555
C103 C102 1_555 1_555
H79 C103 1_555 1_555
C104 C103 1_555 1_555
H80 C104 1_555 1_555
C105 C104 1_555 1_555
C106 C63 1_555 1_555
C107 C106 1_555 1_555
C108 C107 1_555 1_555
H81 C108 1_555 1_555
C109 C108 1_555 1_555
C110 C109 1_555 1_555
H82 C110 1_555 1_555
C111 C110 1_555 1_555
H83 C111 1_555 1_555
C112 C107 1_555 1_555
H84 C112 1_555 1_555
N1 C1 1_555 1_555
N2 C15 1_555 1_555
N3 C26 1_555 1_555
N4 C40 1_555 1_555
N5 C63 1_555 1_555
N6 C77 1_555 1_555
N7 C88 1_555 1_555
N8 C102 1_555 1_555
O1 C24 1_555 1_555
O2 C47 1_555 1_555
O3 C56 1_555 1_555
O4 C62 1_555 1_555
Zn1 N1 1_555 1_555
Zn2 N5 1_555 1_555
C113 C114 1_555 1_555
C114 H85 1_555 1_555
C115 C114 1_555 1_555
H86 C115 1_555 1_555
C116 C115 1_555 1_555
H87 C116 1_555 1_555
C117 C116 1_555 1_555
H88 C117 1_555 1_555
C118 C113 1_555 1_555
H89 C118 1_555 1_555
C119 C113 1_555 1_555
H90 C119 1_555 1_555
H91 C119 1_555 1_555
H92 C119 1_555 1_555
C120 C121 1_555 1_555
C121 H93 1_555 1_555
C122 C121 1_555 1_555
H94 C122 1_555 1_555
C123 C122 1_555 1_555
H95 C123 1_555 1_555
C124 C123 1_555 1_555
H96 C124 1_555 1_555
C125 C120 1_555 1_555
H97 C125 1_555 1_555
C126 C120 1_555 1_555
H98 C126 1_555 1_555
H99 C126 1_555 1_555
H100 C126 1_555 1_555
C127 C128 1_555 1_555
C128 H101 1_555 1_555
C129 C128 1_555 1_555
H102 C129 1_555 1_555
C130 C129 1_555 1_555
H103 C130 1_555 1_555
C131 C130 1_555 1_555
H104 C131 1_555 1_555
C132 C127 1_555 1_555
H105 C132 1_555 1_555
C133 C127 1_555 1_555
H106 C133 1_555 1_555
H107 C133 1_555 1_555
H108 C133 1_555 1_555
C134 C135 1_555 1_555
C135 C136 1_555 1_555
C136 C137 1_555 1_555
C137 C138 1_555 1_555
C138 C139 1_555 1_555
C139 C134 1_555 1_555
C140 C139 1_555 1_555
C141 C140 1_555 1_555
C142 C134 1_555 1_555
C143 C142 1_555 1_555
C144 C143 1_555 1_555
C145 C135 1_555 1_555
C146 C145 1_555 1_555
C147 C146 1_555 1_555
C148 C136 1_555 1_555
C149 C148 1_555 1_555
C150 C137 1_555 1_555
C151 C150 1_555 1_555
C152 C151 1_555 1_555
C153 C138 1_555 1_555
C154 C153 1_555 1_555
C155 C140 1_555 1_555
C156 C155 1_555 1_555
C157 C156 1_555 1_555
C158 C141 1_555 1_555
C159 C158 1_555 1_555
C160 C143 1_555 1_555
C161 C160 1_555 1_555
C162 C144 1_555 1_555
C163 C162 1_555 1_555
C164 C146 1_555 1_555
C165 C164 1_555 1_555
C166 C147 1_555 1_555
C167 C166 1_555 1_555
C168 C149 1_555 1_555
C169 C168 1_555 1_555
C170 C151 1_555 1_555
C171 C170 1_555 1_555
C172 C152 1_555 1_555
C173 C172 1_555 1_555
C174 C154 1_555 1_555
C175 C156 1_555 1_555
C176 C175 1_555 1_555
C177 C176 1_555 1_555
C178 C157 1_555 1_555
C179 C159 1_555 1_555
C180 C179 1_555 1_555
C181 C161 1_555 1_555
C182 C181 1_555 1_555
C183 C163 1_555 1_555
C184 C183 1_555 1_555
C185 C165 1_555 1_555
C186 C185 1_555 1_555
C187 C167 1_555 1_555
C188 C169 1_555 1_555
C189 C188 1_555 1_555
C190 C171 1_555 1_555
C191 C190 1_555 1_555
C192 C173 1_555 1_555
C193 C176 1_555 1_555
C194 C193 1_555 1_555
C195 C177 1_555 1_555
C196 C180 1_555 1_555
C197 C182 1_555 1_555
C198 C197 1_555 1_555
C199 C184 1_555 1_555
C200 C186 1_555 1_555
C201 C189 1_555 1_555
C202 C191 1_555 1_555
C203 C194 1_555 1_555
C4 N1 1_555 1_555
C10 C11 1_555 1_555
C18 N2 1_555 1_555
C24 C25 1_555 1_555
C29 N3 1_555 1_555
C35 C36 1_555 1_555
C43 C44 1_555 1_555
C43 N4 1_555 1_555
C49 C50 1_555 1_555
C51 O1 1_555 1_555
C57 O2 1_555 1_555
C66 N5 1_555 1_555
C72 C73 1_555 1_555
C80 N6 1_555 1_555
C86 C87 1_555 1_555
C86 O3 1_555 1_555
C91 N7 1_555 1_555
C97 C98 1_555 1_555
C105 C106 1_555 1_555
C105 N8 1_555 1_555
C109 O4 1_555 1_555
C111 C112 1_555 1_555
N2 Zn1 1_555 1_555
N3 Zn1 1_555 1_555
N4 Zn1 1_555 1_555
N6 Zn2 1_555 1_555
N7 Zn2 1_555 1_555
N8 Zn2 1_555 1_555
C117 C118 1_555 1_555
C124 C125 1_555 1_555
C131 C132 1_555 1_555
C141 C142 1_555 1_555
C144 C145 1_555 1_555
C147 C148 1_555 1_555
C149 C150 1_555 1_555
C152 C153 1_555 1_555
C154 C155 1_555 1_555
C157 C158 1_555 1_555
C159 C160 1_555 1_555
C161 C162 1_555 1_555
C163 C164 1_555 1_555
C165 C166 1_555 1_555
C167 C168 1_555 1_555
C169 C170 1_555 1_555
C171 C172 1_555 1_555
C173 C174 1_555 1_555
C174 C175 1_555 1_555
C177 C178 1_555 1_555
C178 C179 1_555 1_555
C180 C181 1_555 1_555
C182 C183 1_555 1_555
C184 C185 1_555 1_555
C186 C187 1_555 1_555
C187 C188 1_555 1_555
C189 C190 1_555 1_555
C191 C192 1_555 1_555
C192 C193 1_555 1_555
C194 C195 1_555 1_555
C195 C196 1_555 1_555
C196 C197 1_555 1_555
C198 C199 1_555 1_555
C198 C203 1_555 1_555
C199 C200 1_555 1_555
C200 C201 1_555 1_555
C201 C202 1_555 1_555
C202 C203 1_555 1_555

#END
