# generated using pymatgen
data_ZnH90C123(N2O)2
_symmetry_space_group_name_H-M   'P 1'
_cell_length_a   14.90950000
_cell_length_b   25.56570000
_cell_length_c   39.92100000
_cell_angle_alpha   90.00000000
_cell_angle_beta   90.00000000
_cell_angle_gamma   106.83300000
_symmetry_Int_Tables_number   1
_chemical_formula_structural   ZnH90C123(N2O)2
_chemical_formula_sum   'Zn8 H720 C984 N32 O16'
_cell_volume   14564.76509252
_cell_formula_units_Z   8
loop_
 _symmetry_equiv_pos_site_id
 _symmetry_equiv_pos_as_xyz
  1  'x, y, z'
loop_
 _atom_site_type_symbol
 _atom_site_label
 _atom_site_symmetry_multiplicity
 _atom_site_fract_x
 _atom_site_fract_y
 _atom_site_fract_z
 _atom_site_occupancy
  Zn  Zn1  1  0.871046  0.704904  0.786472  1
  Zn  Zn2  1  0.628954  0.795096  0.286472  1
  Zn  Zn3  1  0.128954  0.295096  0.213528  1
  Zn  Zn4  1  0.371046  0.204904  0.713528  1
  Zn  Zn5  1  0.839052  0.732302  0.085441  1
  Zn  Zn6  1  0.660948  0.767698  0.585441  1
  Zn  Zn7  1  0.160948  0.267698  0.914559  1
  Zn  Zn8  1  0.339052  0.232302  0.414559  1
  H  H9  1  0.172200  0.664600  0.827200  1
  H  H10  1  0.327800  0.835400  0.327200  1
  H  H11  1  0.827800  0.335400  0.172800  1
  H  H12  1  0.672200  0.164600  0.672800  1
  H  H13  1  0.048100  0.576700  0.837100  1
  H  H14  1  0.451900  0.923300  0.337100  1
  H  H15  1  0.951900  0.423300  0.162900  1
  H  H16  1  0.548100  0.076700  0.662900  1
  H  H17  1  0.821900  0.397300  0.805100  1
  H  H18  1  0.678100  0.102700  0.305100  1
  H  H19  1  0.178100  0.602700  0.194900  1
  H  H20  1  0.321900  0.897300  0.694900  1
  H  H21  1  0.890300  0.454000  0.898500  1
  H  H22  1  0.609700  0.046000  0.398500  1
  H  H23  1  0.109700  0.546000  0.101500  1
  H  H24  1  0.390300  0.954000  0.601500  1
  H  H25  1  0.821600  0.454300  0.760100  1
  H  H26  1  0.678400  0.045700  0.260100  1
  H  H27  1  0.178400  0.545700  0.239900  1
  H  H28  1  0.321600  0.954300  0.739900  1
  H  H29  1  0.869000  0.518700  0.763900  1
  H  H30  1  0.631000  0.981300  0.263900  1
  H  H31  1  0.131000  0.481300  0.236100  1
  H  H32  1  0.369000  0.018700  0.736100  1
  H  H33  1  0.759200  0.493000  0.770600  1
  H  H34  1  0.740800  0.007000  0.270600  1
  H  H35  1  0.240800  0.507000  0.229400  1
  H  H36  1  0.259200  0.993000  0.729400  1
  H  H37  1  0.840100  0.334700  0.845400  1
  H  H38  1  0.659900  0.165300  0.345400  1
  H  H39  1  0.159900  0.665300  0.154600  1
  H  H40  1  0.340100  0.834700  0.654600  1
  H  H41  1  0.810300  0.347400  0.882300  1
  H  H42  1  0.689700  0.152600  0.382300  1
  H  H43  1  0.189700  0.652600  0.117700  1
  H  H44  1  0.310300  0.847400  0.617700  1
  H  H45  1  0.918800  0.360600  0.872800  1
  H  H46  1  0.581200  0.139400  0.372800  1
  H  H47  1  0.081200  0.639400  0.127200  1
  H  H48  1  0.418800  0.860600  0.627200  1
  H  H49  1  0.894400  0.542500  0.914000  1
  H  H50  1  0.605600  0.957500  0.414000  1
  H  H51  1  0.105600  0.457500  0.086000  1
  H  H52  1  0.394400  0.042500  0.586000  1
  H  H53  1  0.843800  0.575500  0.890000  1
  H  H54  1  0.656200  0.924500  0.390000  1
  H  H55  1  0.156200  0.424500  0.110000  1
  H  H56  1  0.343800  0.075500  0.610000  1
  H  H57  1  0.954400  0.584800  0.887100  1
  H  H58  1  0.545600  0.915200  0.387100  1
  H  H59  1  0.045600  0.415200  0.112900  1
  H  H60  1  0.454400  0.084800  0.612900  1
  H  H61  1  0.674300  0.515400  0.828800  1
  H  H62  1  0.825700  0.984600  0.328800  1
  H  H63  1  0.325700  0.484600  0.171200  1
  H  H64  1  0.174300  0.015400  0.671200  1
  H  H65  1  0.556300  0.561700  0.813000  1
  H  H66  1  0.943700  0.938300  0.313000  1
  H  H67  1  0.443700  0.438300  0.187000  1
  H  H68  1  0.056300  0.061700  0.687000  1
  H  H69  1  0.502900  0.622000  0.741000  1
  H  H70  1  0.997100  0.878000  0.241000  1
  H  H71  1  0.497100  0.378000  0.259000  1
  H  H72  1  0.002900  0.122000  0.759000  1
  H  H73  1  0.337900  0.593600  0.743900  1
  H  H74  1  0.162100  0.906400  0.243900  1
  H  H75  1  0.662100  0.406400  0.256100  1
  H  H76  1  0.837900  0.093600  0.756100  1
  H  H77  1  0.261400  0.608200  0.791800  1
  H  H78  1  0.238600  0.891800  0.291800  1
  H  H79  1  0.738600  0.391800  0.208200  1
  H  H80  1  0.761400  0.108200  0.708200  1
  H  H81  1  0.513500  0.679800  0.835800  1
  H  H82  1  0.986500  0.820200  0.335800  1
  H  H83  1  0.486500  0.320200  0.164200  1
  H  H84  1  0.013500  0.179800  0.664200  1
  H  H85  1  0.568900  0.756500  0.760300  1
  H  H86  1  0.931100  0.743500  0.260300  1
  H  H87  1  0.431100  0.243500  0.239700  1
  H  H88  1  0.068900  0.256500  0.739700  1
  H  H89  1  0.695700  0.833900  0.737200  1
  H  H90  1  0.804300  0.666100  0.237200  1
  H  H91  1  0.304300  0.166100  0.262800  1
  H  H92  1  0.195700  0.333900  0.762800  1
  H  H93  1  0.916900  0.004000  0.722000  1
  H  H94  1  0.583100  0.496000  0.222000  1
  H  H95  1  0.083100  0.996000  0.278000  1
  H  H96  1  0.416900  0.504000  0.778000  1
  H  H97  1  0.830800  0.899000  0.645100  1
  H  H98  1  0.669200  0.601000  0.145100  1
  H  H99  1  0.169200  0.101000  0.354900  1
  H  H100  1  0.330800  0.399000  0.854900  1
  H  H101  1  0.004500  0.933400  0.771600  1
  H  H102  1  0.495500  0.566600  0.271600  1
  H  H103  1  0.995500  0.066600  0.228400  1
  H  H104  1  0.504500  0.433400  0.728400  1
  H  H105  1  0.899000  0.912600  0.785100  1
  H  H106  1  0.601000  0.587400  0.285100  1
  H  H107  1  0.101000  0.087400  0.214900  1
  H  H108  1  0.399000  0.412600  0.714900  1
  H  H109  1  0.943900  0.975500  0.775300  1
  H  H110  1  0.556100  0.524500  0.275300  1
  H  H111  1  0.056100  0.024500  0.224700  1
  H  H112  1  0.443900  0.475500  0.724700  1
  H  H113  1  0.802300  0.013700  0.664200  1
  H  H114  1  0.697700  0.486300  0.164200  1
  H  H115  1  0.197700  0.986300  0.335800  1
  H  H116  1  0.302300  0.513700  0.835800  1
  H  H117  1  0.858800  0.994600  0.634800  1
  H  H118  1  0.641200  0.505400  0.134800  1
  H  H119  1  0.141200  0.005400  0.365200  1
  H  H120  1  0.358800  0.494600  0.865200  1
  H  H121  1  0.913900  0.038000  0.662000  1
  H  H122  1  0.586100  0.462000  0.162000  1
  H  H123  1  0.086100  0.962000  0.338000  1
  H  H124  1  0.413900  0.538000  0.838000  1
  H  H125  1  0.756100  0.787000  0.679300  1
  H  H126  1  0.743900  0.713000  0.179300  1
  H  H127  1  0.243900  0.213000  0.320700  1
  H  H128  1  0.256100  0.287000  0.820700  1
  H  H129  1  0.861100  0.783500  0.682900  1
  H  H130  1  0.638900  0.716500  0.182900  1
  H  H131  1  0.138900  0.216500  0.317100  1
  H  H132  1  0.361100  0.283500  0.817100  1
  H  H133  1  0.828700  0.806600  0.649200  1
  H  H134  1  0.671300  0.693400  0.149200  1
  H  H135  1  0.171300  0.193400  0.350800  1
  H  H136  1  0.328700  0.306600  0.850800  1
  H  H137  1  0.069800  0.881300  0.729500  1
  H  H138  1  0.430200  0.618700  0.229500  1
  H  H139  1  0.930200  0.118700  0.270500  1
  H  H140  1  0.569800  0.381300  0.770500  1
  H  H141  1  0.186600  0.845100  0.757900  1
  H  H142  1  0.313400  0.654900  0.257900  1
  H  H143  1  0.813400  0.154900  0.242100  1
  H  H144  1  0.686600  0.345100  0.742100  1
  H  H145  1  0.248600  0.717200  0.764000  1
  H  H146  1  0.251400  0.782800  0.264000  1
  H  H147  1  0.751400  0.282800  0.236000  1
  H  H148  1  0.748600  0.217200  0.736000  1
  H  H149  1  0.411100  0.745700  0.773600  1
  H  H150  1  0.088900  0.754300  0.273600  1
  H  H151  1  0.588900  0.254300  0.226400  1
  H  H152  1  0.911100  0.245700  0.726400  1
  H  H153  1  0.473400  0.809600  0.815100  1
  H  H154  1  0.026600  0.690400  0.315100  1
  H  H155  1  0.526600  0.190400  0.184900  1
  H  H156  1  0.973400  0.309600  0.684900  1
  H  H157  1  0.212600  0.818600  0.837400  1
  H  H158  1  0.287400  0.681400  0.337400  1
  H  H159  1  0.787400  0.181400  0.162600  1
  H  H160  1  0.712600  0.318600  0.662600  1
  H  H161  1  0.413700  0.725300  0.861800  1
  H  H162  1  0.086300  0.774700  0.361800  1
  H  H163  1  0.586300  0.274700  0.138200  1
  H  H164  1  0.913700  0.225300  0.638200  1
  H  H165  1  0.417700  0.673600  0.884000  1
  H  H166  1  0.082300  0.826400  0.384000  1
  H  H167  1  0.582300  0.326400  0.116000  1
  H  H168  1  0.917700  0.173600  0.616000  1
  H  H169  1  0.263900  0.665100  0.904100  1
  H  H170  1  0.236100  0.834900  0.404100  1
  H  H171  1  0.736100  0.334900  0.095900  1
  H  H172  1  0.763900  0.165100  0.595900  1
  H  H173  1  0.260900  0.717100  0.882200  1
  H  H174  1  0.239100  0.782900  0.382200  1
  H  H175  1  0.739100  0.282900  0.117800  1
  H  H176  1  0.760900  0.217100  0.617800  1
  H  H177  1  0.395000  0.722600  0.934700  1
  H  H178  1  0.105000  0.777400  0.434700  1
  H  H179  1  0.605000  0.277400  0.065300  1
  H  H180  1  0.895000  0.222600  0.565300  1
  H  H181  1  0.384100  0.774100  0.914100  1
  H  H182  1  0.115900  0.725900  0.414100  1
  H  H183  1  0.615900  0.225900  0.085900  1
  H  H184  1  0.884100  0.274100  0.585900  1
  H  H185  1  0.244200  0.710900  0.958800  1
  H  H186  1  0.255800  0.789100  0.458800  1
  H  H187  1  0.755800  0.289100  0.041200  1
  H  H188  1  0.744200  0.210900  0.541200  1
  H  H189  1  0.236200  0.763700  0.938900  1
  H  H190  1  0.263800  0.736300  0.438900  1
  H  H191  1  0.763800  0.236300  0.061100  1
  H  H192  1  0.736200  0.263700  0.561100  1
  H  H193  1  0.367300  0.818100  0.970300  1
  H  H194  1  0.132700  0.681900  0.470300  1
  H  H195  1  0.632700  0.181900  0.029700  1
  H  H196  1  0.867300  0.318100  0.529700  1
  H  H197  1  0.277200  0.791500  0.992800  1
  H  H198  1  0.222800  0.708500  0.492800  1
  H  H199  1  0.722800  0.208500  0.007200  1
  H  H200  1  0.777200  0.291500  0.507200  1
  H  H201  1  0.430800  0.746500  0.988400  1
  H  H202  1  0.069200  0.753500  0.488400  1
  H  H203  1  0.569200  0.253500  0.011600  1
  H  H204  1  0.930800  0.246500  0.511600  1
  H  H205  1  0.419600  0.786500  0.018100  1
  H  H206  1  0.080400  0.713500  0.518100  1
  H  H207  1  0.580400  0.213500  0.981900  1
  H  H208  1  0.919600  0.286500  0.481900  1
  H  H209  1  0.287400  0.843000  0.888500  1
  H  H210  1  0.212600  0.657000  0.388500  1
  H  H211  1  0.712600  0.157000  0.111500  1
  H  H212  1  0.787400  0.343000  0.611500  1
  H  H213  1  0.304500  0.897900  0.866700  1
  H  H214  1  0.195500  0.602100  0.366700  1
  H  H215  1  0.695500  0.102100  0.133300  1
  H  H216  1  0.804500  0.397900  0.633300  1
  H  H217  1  0.449300  0.935700  0.894700  1
  H  H218  1  0.050700  0.564300  0.394700  1
  H  H219  1  0.550700  0.064300  0.105300  1
  H  H220  1  0.949300  0.435700  0.605300  1
  H  H221  1  0.431400  0.881100  0.916500  1
  H  H222  1  0.068600  0.618900  0.416500  1
  H  H223  1  0.568600  0.118900  0.083500  1
  H  H224  1  0.931400  0.381100  0.583500  1
  H  H225  1  0.298100  0.899800  0.941200  1
  H  H226  1  0.201900  0.600200  0.441200  1
  H  H227  1  0.701900  0.100200  0.058800  1
  H  H228  1  0.798100  0.399800  0.558800  1
  H  H229  1  0.321400  0.955700  0.920500  1
  H  H230  1  0.178600  0.544300  0.420500  1
  H  H231  1  0.678600  0.044300  0.079500  1
  H  H232  1  0.821400  0.455700  0.579500  1
  H  H233  1  0.446500  0.933200  0.969300  1
  H  H234  1  0.053500  0.566800  0.469300  1
  H  H235  1  0.553500  0.066800  0.030700  1
  H  H236  1  0.946500  0.433200  0.530700  1
  H  H237  1  0.463900  0.990000  0.949900  1
  H  H238  1  0.036100  0.510000  0.449900  1
  H  H239  1  0.536100  0.010000  0.050100  1
  H  H240  1  0.963900  0.490000  0.550100  1
  H  H241  1  0.410600  0.005100  0.001600  1
  H  H242  1  0.089400  0.494900  0.501600  1
  H  H243  1  0.589400  0.994900  0.998400  1
  H  H244  1  0.910600  0.505100  0.498400  1
  H  H245  1  0.324300  0.000500  0.976800  1
  H  H246  1  0.175700  0.499500  0.476800  1
  H  H247  1  0.675700  0.999500  0.023200  1
  H  H248  1  0.824300  0.500500  0.523200  1
  H  H249  1  0.263100  0.950400  0.023700  1
  H  H250  1  0.236900  0.549600  0.523700  1
  H  H251  1  0.736900  0.049600  0.976300  1
  H  H252  1  0.763100  0.450400  0.476300  1
  H  H253  1  0.260400  0.906600  0.994600  1
  H  H254  1  0.239600  0.593400  0.494600  1
  H  H255  1  0.739600  0.093400  0.005400  1
  H  H256  1  0.760400  0.406600  0.505400  1
  H  H257  1  0.133600  0.894400  0.106700  1
  H  H258  1  0.366400  0.605600  0.606700  1
  H  H259  1  0.866400  0.105600  0.893300  1
  H  H260  1  0.633600  0.394400  0.393300  1
  H  H261  1  0.003700  0.925600  0.129700  1
  H  H262  1  0.496300  0.574400  0.629700  1
  H  H263  1  0.996300  0.074400  0.870300  1
  H  H264  1  0.503700  0.425600  0.370300  1
  H  H265  1  0.782600  0.022200  0.126700  1
  H  H266  1  0.717400  0.477800  0.626700  1
  H  H267  1  0.217400  0.977800  0.873300  1
  H  H268  1  0.282600  0.522200  0.373300  1
  H  H269  1  0.812700  0.951400  0.214200  1
  H  H270  1  0.687300  0.548600  0.714200  1
  H  H271  1  0.187300  0.048600  0.785800  1
  H  H272  1  0.312700  0.451400  0.285800  1
  H  H273  1  0.849200  0.938200  0.073700  1
  H  H274  1  0.650800  0.561800  0.573700  1
  H  H275  1  0.150800  0.061800  0.926300  1
  H  H276  1  0.349200  0.438200  0.426300  1
  H  H277  1  0.786000  0.979300  0.074900  1
  H  H278  1  0.714000  0.520700  0.574900  1
  H  H279  1  0.214000  0.020700  0.925100  1
  H  H280  1  0.286000  0.479300  0.425100  1
  H  H281  1  0.737600  0.914700  0.076500  1
  H  H282  1  0.762400  0.585300  0.576500  1
  H  H283  1  0.262400  0.085300  0.923500  1
  H  H284  1  0.237600  0.414700  0.423500  1
  H  H285  1  0.827200  0.078600  0.179000  1
  H  H286  1  0.672800  0.421400  0.679000  1
  H  H287  1  0.172800  0.921400  0.821000  1
  H  H288  1  0.327200  0.578600  0.321000  1
  H  H289  1  0.819200  0.046800  0.213900  1
  H  H290  1  0.680800  0.453200  0.713900  1
  H  H291  1  0.180800  0.953200  0.786100  1
  H  H292  1  0.319200  0.546800  0.286100  1
  H  H293  1  0.726500  0.045500  0.193300  1
  H  H294  1  0.773500  0.454500  0.693300  1
  H  H295  1  0.273500  0.954500  0.806700  1
  H  H296  1  0.226500  0.545500  0.306700  1
  H  H297  1  0.817400  0.860300  0.217500  1
  H  H298  1  0.682600  0.639700  0.717500  1
  H  H299  1  0.182600  0.139700  0.782500  1
  H  H300  1  0.317400  0.360300  0.282500  1
  H  H301  1  0.886200  0.849100  0.189400  1
  H  H302  1  0.613800  0.650900  0.689400  1
  H  H303  1  0.113800  0.150900  0.810600  1
  H  H304  1  0.386200  0.349100  0.310600  1
  H  H305  1  0.775500  0.821500  0.186400  1
  H  H306  1  0.724500  0.678500  0.686400  1
  H  H307  1  0.224500  0.178500  0.813600  1
  H  H308  1  0.275500  0.321500  0.313600  1
  H  H309  1  0.630500  0.849000  0.126300  1
  H  H310  1  0.869500  0.651000  0.626300  1
  H  H311  1  0.369500  0.151000  0.873700  1
  H  H312  1  0.130500  0.349000  0.373700  1
  H  H313  1  0.518400  0.766600  0.101000  1
  H  H314  1  0.981600  0.733400  0.601000  1
  H  H315  1  0.481600  0.233400  0.899000  1
  H  H316  1  0.018400  0.266600  0.399000  1
  H  H317  1  0.502000  0.727500  0.035800  1
  H  H318  1  0.998000  0.772500  0.535800  1
  H  H319  1  0.498000  0.272500  0.964200  1
  H  H320  1  0.002000  0.227500  0.464200  1
  H  H321  1  0.236800  0.633500  0.055200  1
  H  H322  1  0.263200  0.866500  0.555200  1
  H  H323  1  0.763200  0.366500  0.944800  1
  H  H324  1  0.736800  0.133500  0.444800  1
  H  H325  1  0.293800  0.586000  0.095100  1
  H  H326  1  0.206200  0.914000  0.595100  1
  H  H327  1  0.706200  0.414000  0.904900  1
  H  H328  1  0.793800  0.086000  0.404900  1
  H  H329  1  0.456500  0.607000  0.105500  1
  H  H330  1  0.043500  0.893000  0.605500  1
  H  H331  1  0.543500  0.393000  0.894500  1
  H  H332  1  0.956500  0.107000  0.394500  1
  H  H333  1  0.544700  0.572400  0.059700  1
  H  H334  1  0.955300  0.927600  0.559700  1
  H  H335  1  0.455300  0.427600  0.940300  1
  H  H336  1  0.044700  0.072400  0.440300  1
  H  H337  1  0.674400  0.530600  0.056400  1
  H  H338  1  0.825600  0.969400  0.556400  1
  H  H339  1  0.325600  0.469400  0.943600  1
  H  H340  1  0.174400  0.030600  0.443600  1
  H  H341  1  0.901500  0.443700  0.094700  1
  H  H342  1  0.598500  0.056300  0.594700  1
  H  H343  1  0.098500  0.556300  0.905300  1
  H  H344  1  0.401500  0.943700  0.405300  1
  H  H345  1  0.878300  0.465000  0.996000  1
  H  H346  1  0.621700  0.035000  0.496000  1
  H  H347  1  0.121700  0.535000  0.004000  1
  H  H348  1  0.378300  0.965000  0.504000  1
  H  H349  1  0.880700  0.506800  0.134100  1
  H  H350  1  0.619300  0.993200  0.634100  1
  H  H351  1  0.119300  0.493200  0.865900  1
  H  H352  1  0.380700  0.006800  0.365900  1
  H  H353  1  0.827200  0.549700  0.122500  1
  H  H354  1  0.672800  0.950300  0.622500  1
  H  H355  1  0.172800  0.450300  0.877500  1
  H  H356  1  0.327200  0.049700  0.377500  1
  H  H357  1  0.939300  0.566800  0.122300  1
  H  H358  1  0.560700  0.933200  0.622300  1
  H  H359  1  0.060700  0.433200  0.877700  1
  H  H360  1  0.439300  0.066800  0.377700  1
  H  H361  1  0.864200  0.371200  0.021000  1
  H  H362  1  0.635800  0.128800  0.521000  1
  H  H363  1  0.135800  0.628800  0.979000  1
  H  H364  1  0.364200  0.871200  0.479000  1
  H  H365  1  0.902600  0.370500  0.058400  1
  H  H366  1  0.597400  0.129500  0.558400  1
  H  H367  1  0.097400  0.629500  0.941600  1
  H  H368  1  0.402600  0.870500  0.441600  1
  H  H369  1  0.973500  0.396800  0.028800  1
  H  H370  1  0.526500  0.103200  0.528800  1
  H  H371  1  0.026500  0.603200  0.971200  1
  H  H372  1  0.473500  0.896800  0.471200  1
  H  H373  1  0.774300  0.560100  0.995800  1
  H  H374  1  0.725700  0.939900  0.495800  1
  H  H375  1  0.225700  0.439900  0.004200  1
  H  H376  1  0.274300  0.060100  0.504200  1
  H  H377  1  0.851800  0.544200  0.973600  1
  H  H378  1  0.648200  0.955800  0.473600  1
  H  H379  1  0.148200  0.455800  0.026400  1
  H  H380  1  0.351800  0.044200  0.526400  1
  H  H381  1  0.880200  0.598500  0.995900  1
  H  H382  1  0.619800  0.901500  0.495900  1
  H  H383  1  0.119800  0.401500  0.004100  1
  H  H384  1  0.380200  0.098500  0.504100  1
  H  H385  1  0.044000  0.613600  0.045500  1
  H  H386  1  0.456000  0.886400  0.545500  1
  H  H387  1  0.956000  0.386400  0.954500  1
  H  H388  1  0.544000  0.113600  0.454500  1
  H  H389  1  0.154900  0.706400  0.051200  1
  H  H390  1  0.345100  0.793600  0.551200  1
  H  H391  1  0.845100  0.293600  0.948800  1
  H  H392  1  0.654900  0.206400  0.448800  1
  H  H393  1  0.180400  0.864700  0.040900  1
  H  H394  1  0.319600  0.635300  0.540900  1
  H  H395  1  0.819600  0.135300  0.959100  1
  H  H396  1  0.680400  0.364700  0.459100  1
  H  H397  1  0.443200  0.865500  0.068600  1
  H  H398  1  0.056800  0.634500  0.568600  1
  H  H399  1  0.556800  0.134500  0.931400  1
  H  H400  1  0.943200  0.365500  0.431400  1
  H  H401  1  0.381000  0.798000  0.108100  1
  H  H402  1  0.119000  0.702000  0.608100  1
  H  H403  1  0.619000  0.202000  0.891900  1
  H  H404  1  0.881000  0.298000  0.391900  1
  H  H405  1  0.217800  0.761100  0.113300  1
  H  H406  1  0.282200  0.738900  0.613300  1
  H  H407  1  0.782200  0.238900  0.886700  1
  H  H408  1  0.717800  0.261100  0.386700  1
  H  H409  1  0.447400  0.221600  0.809400  1
  H  H410  1  0.052600  0.278400  0.309400  1
  H  H411  1  0.552600  0.778400  0.190600  1
  H  H412  1  0.947400  0.721600  0.690600  1
  H  H413  1  0.435400  0.141300  0.780800  1
  H  H414  1  0.064600  0.358700  0.280800  1
  H  H415  1  0.564600  0.858700  0.219200  1
  H  H416  1  0.935400  0.641300  0.719200  1
  H  H417  1  0.712400  0.163000  0.794000  1
  H  H418  1  0.787600  0.337000  0.294000  1
  H  H419  1  0.287600  0.837000  0.206000  1
  H  H420  1  0.212400  0.663000  0.706000  1
  H  H421  1  0.723500  0.243600  0.821700  1
  H  H422  1  0.776500  0.256400  0.321700  1
  H  H423  1  0.276500  0.756400  0.178300  1
  H  H424  1  0.223500  0.743600  0.678300  1
  H  H425  1  0.617300  0.292700  0.859500  1
  H  H426  1  0.882700  0.207300  0.359500  1
  H  H427  1  0.382700  0.707300  0.140500  1
  H  H428  1  0.117300  0.792700  0.640500  1
  H  H429  1  0.534500  0.302000  0.836900  1
  H  H430  1  0.965500  0.198000  0.336900  1
  H  H431  1  0.465500  0.698000  0.163100  1
  H  H432  1  0.034500  0.802000  0.663100  1
  H  H433  1  0.641000  0.325000  0.824800  1
  H  H434  1  0.859000  0.175000  0.324800  1
  H  H435  1  0.359000  0.675000  0.175200  1
  H  H436  1  0.141000  0.825000  0.675200  1
  H  H437  1  0.516200  0.061400  0.773900  1
  H  H438  1  0.983800  0.438600  0.273900  1
  H  H439  1  0.483800  0.938600  0.226100  1
  H  H440  1  0.016200  0.561400  0.726100  1
  H  H441  1  0.625900  0.082800  0.765800  1
  H  H442  1  0.874100  0.417200  0.265800  1
  H  H443  1  0.374100  0.917200  0.234200  1
  H  H444  1  0.125900  0.582800  0.734200  1
  H  H445  1  0.551900  0.096500  0.740800  1
  H  H446  1  0.948100  0.403500  0.240800  1
  H  H447  1  0.448100  0.903500  0.259200  1
  H  H448  1  0.051900  0.596500  0.759200  1
  H  H449  1  0.550700  0.928600  0.798300  1
  H  H450  1  0.949300  0.571400  0.298300  1
  H  H451  1  0.449300  0.071400  0.201700  1
  H  H452  1  0.050700  0.428600  0.701700  1
  H  H453  1  0.447900  0.962000  0.829600  1
  H  H454  1  0.052100  0.538000  0.329600  1
  H  H455  1  0.552100  0.038000  0.170400  1
  H  H456  1  0.947900  0.462000  0.670400  1
  H  H457  1  0.663600  0.089300  0.859400  1
  H  H458  1  0.836400  0.410700  0.359400  1
  H  H459  1  0.336400  0.910700  0.140600  1
  H  H460  1  0.163600  0.589300  0.640600  1
  H  H461  1  0.766800  0.055500  0.828900  1
  H  H462  1  0.733200  0.444500  0.328900  1
  H  H463  1  0.233200  0.944500  0.171100  1
  H  H464  1  0.266800  0.555500  0.671100  1
  H  H465  1  0.740700  0.986600  0.765200  1
  H  H466  1  0.759300  0.513400  0.265200  1
  H  H467  1  0.259300  0.013400  0.234800  1
  H  H468  1  0.240700  0.486600  0.734800  1
  H  H469  1  0.712600  0.930000  0.785200  1
  H  H470  1  0.787400  0.570000  0.285200  1
  H  H471  1  0.287400  0.070000  0.214800  1
  H  H472  1  0.212600  0.430000  0.714800  1
  H  H473  1  0.798400  0.979600  0.797800  1
  H  H474  1  0.701600  0.520400  0.297800  1
  H  H475  1  0.201600  0.020400  0.202200  1
  H  H476  1  0.298400  0.479600  0.702200  1
  H  H477  1  0.411700  0.037500  0.858000  1
  H  H478  1  0.088300  0.462500  0.358000  1
  H  H479  1  0.588300  0.962500  0.142000  1
  H  H480  1  0.911700  0.537500  0.642000  1
  H  H481  1  0.490700  0.095200  0.858500  1
  H  H482  1  0.009300  0.404800  0.358500  1
  H  H483  1  0.509300  0.904800  0.141500  1
  H  H484  1  0.990700  0.595200  0.641500  1
  H  H485  1  0.483700  0.053000  0.888600  1
  H  H486  1  0.016300  0.447000  0.388600  1
  H  H487  1  0.516300  0.947000  0.111400  1
  H  H488  1  0.983700  0.553000  0.611400  1
  H  H489  1  0.406500  0.586100  0.905400  1
  H  H490  1  0.093500  0.913900  0.405400  1
  H  H491  1  0.593500  0.413900  0.094600  1
  H  H492  1  0.906500  0.086100  0.594600  1
  H  H493  1  0.529500  0.552400  0.889500  1
  H  H494  1  0.970500  0.947600  0.389500  1
  H  H495  1  0.470500  0.447600  0.110500  1
  H  H496  1  0.029500  0.052400  0.610500  1
  H  H497  1  0.599700  0.545800  0.986500  1
  H  H498  1  0.900300  0.954200  0.486500  1
  H  H499  1  0.400300  0.454200  0.013500  1
  H  H500  1  0.099700  0.045800  0.513500  1
  H  H501  1  0.480700  0.580500  0.002000  1
  H  H502  1  0.019300  0.919500  0.502000  1
  H  H503  1  0.519300  0.419500  0.998000  1
  H  H504  1  0.980700  0.080500  0.498000  1
  H  H505  1  0.306300  0.604400  0.948200  1
  H  H506  1  0.193700  0.895600  0.448200  1
  H  H507  1  0.693700  0.395600  0.051800  1
  H  H508  1  0.806300  0.104400  0.551800  1
  H  H509  1  0.378100  0.648400  0.971300  1
  H  H510  1  0.121900  0.851600  0.471300  1
  H  H511  1  0.621900  0.351600  0.028700  1
  H  H512  1  0.878100  0.148400  0.528700  1
  H  H513  1  0.322700  0.589900  0.986300  1
  H  H514  1  0.177300  0.910100  0.486300  1
  H  H515  1  0.677300  0.410100  0.013700  1
  H  H516  1  0.822700  0.089900  0.513700  1
  H  H517  1  0.647500  0.509700  0.902300  1
  H  H518  1  0.852500  0.990300  0.402300  1
  H  H519  1  0.352500  0.490300  0.097700  1
  H  H520  1  0.147500  0.009700  0.597700  1
  H  H521  1  0.654200  0.489300  0.939800  1
  H  H522  1  0.845800  0.010700  0.439800  1
  H  H523  1  0.345800  0.510700  0.060200  1
  H  H524  1  0.154200  0.989300  0.560200  1
  H  H525  1  0.716600  0.548700  0.928500  1
  H  H526  1  0.783400  0.951300  0.428500  1
  H  H527  1  0.283400  0.451300  0.071500  1
  H  H528  1  0.216600  0.048700  0.571500  1
  H  H529  1  0.589400  0.786500  0.655500  1
  H  H530  1  0.910600  0.713500  0.155500  1
  H  H531  1  0.410600  0.213500  0.344500  1
  H  H532  1  0.089400  0.286500  0.844500  1
  H  H533  1  0.650000  0.879000  0.667800  1
  H  H534  1  0.850000  0.621000  0.167800  1
  H  H535  1  0.350000  0.121000  0.332200  1
  H  H536  1  0.150000  0.379000  0.832200  1
  H  H537  1  0.440800  0.867600  0.734300  1
  H  H538  1  0.059200  0.632400  0.234300  1
  H  H539  1  0.559200  0.132400  0.265700  1
  H  H540  1  0.940800  0.367600  0.765700  1
  H  H541  1  0.379500  0.775600  0.721300  1
  H  H542  1  0.120500  0.724400  0.221300  1
  H  H543  1  0.620500  0.224400  0.278700  1
  H  H544  1  0.879500  0.275600  0.778700  1
  H  H545  1  0.376400  0.703500  0.667800  1
  H  H546  1  0.123600  0.796500  0.167800  1
  H  H547  1  0.623600  0.296500  0.332200  1
  H  H548  1  0.876400  0.203500  0.832200  1
  H  H549  1  0.433000  0.690100  0.699100  1
  H  H550  1  0.067000  0.809900  0.199100  1
  H  H551  1  0.567000  0.309900  0.300900  1
  H  H552  1  0.933000  0.190100  0.800900  1
  H  H553  1  0.481500  0.700600  0.663000  1
  H  H554  1  0.018500  0.799400  0.163000  1
  H  H555  1  0.518500  0.299400  0.337000  1
  H  H556  1  0.981500  0.200600  0.837000  1
  H  H557  1  0.555900  0.963700  0.692100  1
  H  H558  1  0.944100  0.536300  0.192100  1
  H  H559  1  0.444100  0.036300  0.307900  1
  H  H560  1  0.055900  0.463700  0.807900  1
  H  H561  1  0.651700  0.956400  0.706500  1
  H  H562  1  0.848300  0.543600  0.206500  1
  H  H563  1  0.348300  0.043600  0.293500  1
  H  H564  1  0.151700  0.456400  0.793500  1
  H  H565  1  0.564700  0.951000  0.731000  1
  H  H566  1  0.935300  0.549000  0.231000  1
  H  H567  1  0.435300  0.049000  0.269000  1
  H  H568  1  0.064700  0.451000  0.769000  1
  H  H569  1  0.501600  0.921400  0.791200  1
  H  H570  1  0.998400  0.578600  0.291200  1
  H  H571  1  0.498400  0.078600  0.208800  1
  H  H572  1  0.001600  0.421400  0.708800  1
  H  H573  1  0.435300  0.984800  0.815900  1
  H  H574  1  0.064700  0.515200  0.315900  1
  H  H575  1  0.564700  0.015200  0.184100  1
  H  H576  1  0.935300  0.484800  0.684100  1
  H  H577  1  0.685000  0.063300  0.856700  1
  H  H578  1  0.815000  0.436700  0.356700  1
  H  H579  1  0.315000  0.936700  0.143300  1
  H  H580  1  0.185000  0.563300  0.643300  1
  H  H581  1  0.755700  0.017700  0.818900  1
  H  H582  1  0.744300  0.482300  0.318900  1
  H  H583  1  0.244300  0.982300  0.181100  1
  H  H584  1  0.255700  0.517700  0.681100  1
  H  H585  1  0.638000  0.892900  0.776500  1
  H  H586  1  0.862000  0.607100  0.276500  1
  H  H587  1  0.362000  0.107100  0.223500  1
  H  H588  1  0.138000  0.392900  0.723500  1
  H  H589  1  0.736700  0.922000  0.793800  1
  H  H590  1  0.763300  0.578000  0.293800  1
  H  H591  1  0.263300  0.078000  0.206200  1
  H  H592  1  0.236700  0.422000  0.706200  1
  H  H593  1  0.704700  0.948400  0.761200  1
  H  H594  1  0.795300  0.551600  0.261200  1
  H  H595  1  0.295300  0.051600  0.238800  1
  H  H596  1  0.204700  0.448400  0.738800  1
  H  H597  1  0.547500  0.085100  0.875700  1
  H  H598  1  0.952500  0.414900  0.375700  1
  H  H599  1  0.452500  0.914900  0.124300  1
  H  H600  1  0.047500  0.585100  0.624300  1
  H  H601  1  0.469200  0.029700  0.885400  1
  H  H602  1  0.030800  0.470300  0.385400  1
  H  H603  1  0.530800  0.970300  0.114600  1
  H  H604  1  0.969200  0.529700  0.614600  1
  H  H605  1  0.455100  0.063800  0.853300  1
  H  H606  1  0.044900  0.436200  0.353300  1
  H  H607  1  0.544900  0.936200  0.146700  1
  H  H608  1  0.955100  0.563800  0.646700  1
  H  H609  1  0.384900  0.595200  0.922900  1
  H  H610  1  0.115100  0.904800  0.422900  1
  H  H611  1  0.615100  0.404800  0.077100  1
  H  H612  1  0.884900  0.095200  0.577100  1
  H  H613  1  0.499300  0.581800  0.886900  1
  H  H614  1  0.000700  0.918200  0.386900  1
  H  H615  1  0.500700  0.418200  0.113100  1
  H  H616  1  0.999300  0.081800  0.613100  1
  H  H617  1  0.620500  0.526700  0.963900  1
  H  H618  1  0.879500  0.973300  0.463900  1
  H  H619  1  0.379500  0.473300  0.036100  1
  H  H620  1  0.120500  0.026700  0.536100  1
  H  H621  1  0.505800  0.540000  0.999600  1
  H  H622  1  0.994200  0.960000  0.499600  1
  H  H623  1  0.494200  0.460000  0.000400  1
  H  H624  1  0.005800  0.040000  0.500400  1
  H  H625  1  0.354700  0.621700  0.981500  1
  H  H626  1  0.145300  0.878300  0.481500  1
  H  H627  1  0.645300  0.378300  0.018500  1
  H  H628  1  0.854700  0.121700  0.518500  1
  H  H629  1  0.410400  0.604300  0.011800  1
  H  H630  1  0.089600  0.895700  0.511800  1
  H  H631  1  0.589600  0.395700  0.988200  1
  H  H632  1  0.910400  0.104300  0.488200  1
  H  H633  1  0.323500  0.560100  0.995000  1
  H  H634  1  0.176500  0.939900  0.495000  1
  H  H635  1  0.676500  0.439900  0.005000  1
  H  H636  1  0.823500  0.060100  0.505000  1
  H  H637  1  0.685300  0.565700  0.893200  1
  H  H638  1  0.814700  0.934300  0.393200  1
  H  H639  1  0.314700  0.434300  0.106800  1
  H  H640  1  0.185300  0.065700  0.606800  1
  H  H641  1  0.603600  0.518500  0.876000  1
  H  H642  1  0.896400  0.981500  0.376000  1
  H  H643  1  0.396400  0.481500  0.124000  1
  H  H644  1  0.103600  0.018500  0.624000  1
  H  H645  1  0.659300  0.504600  0.907500  1
  H  H646  1  0.840700  0.995400  0.407500  1
  H  H647  1  0.340700  0.495400  0.092500  1
  H  H648  1  0.159300  0.004600  0.592500  1
  H  H649  1  0.629700  0.823400  0.662400  1
  H  H650  1  0.870300  0.676600  0.162400  1
  H  H651  1  0.370300  0.176600  0.337600  1
  H  H652  1  0.129700  0.323400  0.837600  1
  H  H653  1  0.667600  0.913000  0.680300  1
  H  H654  1  0.832400  0.587000  0.180300  1
  H  H655  1  0.332400  0.087000  0.319700  1
  H  H656  1  0.167600  0.413000  0.819700  1
  H  H657  1  0.437700  0.877100  0.738100  1
  H  H658  1  0.062300  0.622900  0.238100  1
  H  H659  1  0.562300  0.122900  0.261900  1
  H  H660  1  0.937700  0.377100  0.761900  1
  H  H661  1  0.395000  0.788100  0.718100  1
  H  H662  1  0.105000  0.711900  0.218100  1
  H  H663  1  0.605000  0.211900  0.281900  1
  H  H664  1  0.895000  0.288100  0.781900  1
  H  H665  1  0.538500  0.726800  0.670100  1
  H  H666  1  0.961500  0.773200  0.170100  1
  H  H667  1  0.461500  0.273200  0.329900  1
  H  H668  1  0.038500  0.226800  0.829900  1
  H  H669  1  0.435900  0.729400  0.660000  1
  H  H670  1  0.064100  0.770600  0.160000  1
  H  H671  1  0.564100  0.270600  0.340000  1
  H  H672  1  0.935900  0.229400  0.840000  1
  H  H673  1  0.456000  0.712600  0.697300  1
  H  H674  1  0.044000  0.787400  0.197300  1
  H  H675  1  0.544000  0.287400  0.302700  1
  H  H676  1  0.956000  0.212600  0.802700  1
  H  H677  1  0.572000  0.969200  0.741600  1
  H  H678  1  0.928000  0.530800  0.241600  1
  H  H679  1  0.428000  0.030800  0.258400  1
  H  H680  1  0.072000  0.469200  0.758400  1
  H  H681  1  0.520300  0.981300  0.708600  1
  H  H682  1  0.979700  0.518700  0.208600  1
  H  H683  1  0.479700  0.018700  0.291400  1
  H  H684  1  0.020300  0.481300  0.791400  1
  H  H685  1  0.630100  0.987200  0.707700  1
  H  H686  1  0.869900  0.512800  0.207700  1
  H  H687  1  0.369900  0.012800  0.292300  1
  H  H688  1  0.130100  0.487200  0.792300  1
  H  H689  1  0.366300  0.768300  0.719900  1
  H  H690  1  0.133700  0.731700  0.219900  1
  H  H691  1  0.633700  0.231700  0.280100  1
  H  H692  1  0.866300  0.268300  0.780100  1
  H  H693  1  0.440400  0.861000  0.728000  1
  H  H694  1  0.059600  0.639000  0.228000  1
  H  H695  1  0.559600  0.139000  0.272000  1
  H  H696  1  0.940400  0.361000  0.772000  1
  H  H697  1  0.632000  0.854100  0.658700  1
  H  H698  1  0.868000  0.645900  0.158700  1
  H  H699  1  0.368000  0.145900  0.341300  1
  H  H700  1  0.132000  0.354100  0.841300  1
  H  H701  1  0.563800  0.760100  0.652400  1
  H  H702  1  0.936200  0.739900  0.152400  1
  H  H703  1  0.436200  0.239900  0.347600  1
  H  H704  1  0.063800  0.260100  0.847600  1
  H  H705  1  0.373300  0.678100  0.699200  1
  H  H706  1  0.126700  0.821900  0.199200  1
  H  H707  1  0.626700  0.321900  0.300800  1
  H  H708  1  0.873300  0.178100  0.800800  1
  H  H709  1  0.452200  0.675400  0.672700  1
  H  H710  1  0.047800  0.824600  0.172700  1
  H  H711  1  0.547800  0.324600  0.327300  1
  H  H712  1  0.952200  0.175400  0.827300  1
  H  H713  1  0.362100  0.692500  0.660700  1
  H  H714  1  0.137900  0.807500  0.160700  1
  H  H715  1  0.637900  0.307500  0.339300  1
  H  H716  1  0.862100  0.192500  0.839300  1
  H  H717  1  0.668900  0.932500  0.697400  1
  H  H718  1  0.831100  0.567500  0.197400  1
  H  H719  1  0.331100  0.067500  0.302600  1
  H  H720  1  0.168900  0.432500  0.802600  1
  H  H721  1  0.604500  0.930900  0.729700  1
  H  H722  1  0.895500  0.569100  0.229700  1
  H  H723  1  0.395500  0.069100  0.270300  1
  H  H724  1  0.104500  0.430900  0.770300  1
  H  H725  1  0.570900  0.945900  0.693800  1
  H  H726  1  0.929100  0.554100  0.193800  1
  H  H727  1  0.429100  0.054100  0.306200  1
  H  H728  1  0.070900  0.445900  0.806200  1
  C  C729  1  0.063570  0.693980  0.806530  1
  C  C730  1  0.436430  0.806020  0.306530  1
  C  C731  1  0.936430  0.306020  0.193470  1
  C  C732  1  0.563570  0.193980  0.693470  1
  C  C733  1  0.107540  0.657060  0.821990  1
  C  C734  1  0.392460  0.842940  0.321990  1
  C  C735  1  0.892460  0.342940  0.178010  1
  C  C736  1  0.607540  0.157060  0.678010  1
  C  C737  1  0.039640  0.609150  0.827820  1
  C  C738  1  0.460360  0.890850  0.327820  1
  C  C739  1  0.960360  0.390850  0.172180  1
  C  C740  1  0.539640  0.109150  0.672180  1
  C  C741  1  0.951920  0.617590  0.817120  1
  C  C742  1  0.548080  0.882410  0.317120  1
  C  C743  1  0.048080  0.382410  0.182880  1
  C  C744  1  0.451920  0.117590  0.682880  1
  C  C745  1  0.863380  0.578850  0.820330  1
  C  C746  1  0.636620  0.921150  0.320330  1
  C  C747  1  0.136620  0.421150  0.179670  1
  C  C748  1  0.363380  0.078850  0.679670  1
  C  C749  1  0.860060  0.522350  0.832380  1
  C  C750  1  0.639940  0.977650  0.332380  1
  C  C751  1  0.139940  0.477650  0.167620  1
  C  C752  1  0.360060  0.022350  0.667620  1
  C  C753  1  0.840620  0.479000  0.809270  1
  C  C754  1  0.659380  0.021000  0.309270  1
  C  C755  1  0.159380  0.521000  0.190730  1
  C  C756  1  0.340620  0.979000  0.690730  1
  C  C757  1  0.837870  0.426820  0.820560  1
  C  C758  1  0.662130  0.073180  0.320560  1
  C  C759  1  0.162130  0.573180  0.179440  1
  C  C760  1  0.337870  0.926820  0.679440  1
  C  C761  1  0.857490  0.416310  0.853460  1
  C  C762  1  0.642510  0.083690  0.353460  1
  C  C763  1  0.142510  0.583690  0.146540  1
  C  C764  1  0.357490  0.916310  0.646540  1
  C  C765  1  0.876860  0.460050  0.875810  1
  C  C766  1  0.623140  0.039950  0.375810  1
  C  C767  1  0.123140  0.539950  0.124190  1
  C  C768  1  0.376860  0.960050  0.624190  1
  C  C769  1  0.877100  0.512600  0.865940  1
  C  C770  1  0.622900  0.987400  0.365940  1
  C  C771  1  0.122900  0.487400  0.134060  1
  C  C772  1  0.377100  0.012600  0.634060  1
  C  C773  1  0.820900  0.486940  0.772770  1
  C  C774  1  0.679100  0.013060  0.272770  1
  C  C775  1  0.179100  0.513060  0.227230  1
  C  C776  1  0.320900  0.986940  0.727230  1
  C  C777  1  0.856600  0.359820  0.864440  1
  C  C778  1  0.643400  0.140180  0.364440  1
  C  C779  1  0.143400  0.640180  0.135560  1
  C  C780  1  0.356600  0.859820  0.635560  1
  C  C781  1  0.893890  0.557810  0.891470  1
  C  C782  1  0.606110  0.942190  0.391470  1
  C  C783  1  0.106110  0.442190  0.108530  1
  C  C784  1  0.393890  0.057810  0.608530  1
  C  C785  1  0.777980  0.589060  0.813140  1
  C  C786  1  0.722020  0.910940  0.313140  1
  C  C787  1  0.222020  0.410940  0.186860  1
  C  C788  1  0.277980  0.089060  0.686860  1
  C  C789  1  0.686600  0.551270  0.819930  1
  C  C790  1  0.813400  0.948730  0.319930  1
  C  C791  1  0.313400  0.448730  0.180070  1
  C  C792  1  0.186600  0.051270  0.680070  1
  C  C793  1  0.622310  0.576630  0.811240  1
  C  C794  1  0.877690  0.923370  0.311240  1
  C  C795  1  0.377690  0.423370  0.188760  1
  C  C796  1  0.122310  0.076630  0.688760  1
  C  C797  1  0.671340  0.630520  0.798790  1
  C  C798  1  0.828660  0.869480  0.298790  1
  C  C799  1  0.328660  0.369480  0.201210  1
  C  C800  1  0.171340  0.130520  0.701210  1
  C  C801  1  0.630340  0.669080  0.787340  1
  C  C802  1  0.869660  0.830920  0.287340  1
  C  C803  1  0.369660  0.330920  0.212660  1
  C  C804  1  0.130340  0.169080  0.712660  1
  C  C805  1  0.523160  0.653310  0.788450  1
  C  C806  1  0.976840  0.846690  0.288450  1
  C  C807  1  0.476840  0.346690  0.211550  1
  C  C808  1  0.023160  0.153310  0.711550  1
  C  C809  1  0.471890  0.627940  0.760800  1
  C  C810  1  0.028110  0.872060  0.260800  1
  C  C811  1  0.528110  0.372060  0.239200  1
  C  C812  1  0.971890  0.127940  0.739200  1
  C  C813  1  0.373360  0.611180  0.762590  1
  C  C814  1  0.126640  0.888820  0.262590  1
  C  C815  1  0.626640  0.388820  0.237410  1
  C  C816  1  0.873360  0.111180  0.737410  1
  C  C817  1  0.327930  0.619900  0.790950  1
  C  C818  1  0.172070  0.880100  0.290950  1
  C  C819  1  0.672070  0.380100  0.209050  1
  C  C820  1  0.827930  0.119900  0.709050  1
  C  C821  1  0.379320  0.646030  0.818550  1
  C  C822  1  0.120680  0.853970  0.318550  1
  C  C823  1  0.620680  0.353970  0.181450  1
  C  C824  1  0.879320  0.146030  0.681450  1
  C  C825  1  0.477960  0.662390  0.817020  1
  C  C826  1  0.022040  0.837610  0.317020  1
  C  C827  1  0.522040  0.337610  0.182980  1
  C  C828  1  0.977960  0.162390  0.682980  1
  C  C829  1  0.676230  0.720580  0.773690  1
  C  C830  1  0.823770  0.779420  0.273690  1
  C  C831  1  0.323770  0.279420  0.226310  1
  C  C832  1  0.176230  0.220580  0.726310  1
  C  C833  1  0.633990  0.759700  0.760360  1
  C  C834  1  0.866010  0.740300  0.260360  1
  C  C835  1  0.366010  0.240300  0.239640  1
  C  C836  1  0.133990  0.259700  0.739640  1
  C  C837  1  0.703280  0.802260  0.747870  1
  C  C838  1  0.796720  0.697740  0.247870  1
  C  C839  1  0.296720  0.197740  0.252130  1
  C  C840  1  0.203280  0.302260  0.752130  1
  C  C841  1  0.789940  0.790230  0.753870  1
  C  C842  1  0.710060  0.709770  0.253870  1
  C  C843  1  0.210060  0.209770  0.246130  1
  C  C844  1  0.289940  0.290230  0.746130  1
  C  C845  1  0.879470  0.823420  0.743750  1
  C  C846  1  0.620530  0.676580  0.243750  1
  C  C847  1  0.120530  0.176580  0.256250  1
  C  C848  1  0.379470  0.323420  0.756250  1
  C  C849  1  0.880350  0.871620  0.721550  1
  C  C850  1  0.619650  0.628380  0.221550  1
  C  C851  1  0.119650  0.128380  0.278450  1
  C  C852  1  0.380350  0.371620  0.778450  1
  C  C853  1  0.906670  0.925360  0.734100  1
  C  C854  1  0.593330  0.574640  0.234100  1
  C  C855  1  0.093330  0.074640  0.265900  1
  C  C856  1  0.406670  0.425360  0.765900  1
  C  C857  1  0.900570  0.967930  0.713250  1
  C  C858  1  0.599430  0.532070  0.213250  1
  C  C859  1  0.099430  0.032070  0.286750  1
  C  C860  1  0.400570  0.467930  0.786750  1
  C  C861  1  0.871410  0.959330  0.680150  1
  C  C862  1  0.628590  0.540670  0.180150  1
  C  C863  1  0.128590  0.040670  0.319850  1
  C  C864  1  0.371410  0.459330  0.819850  1
  C  C865  1  0.848780  0.905630  0.667940  1
  C  C866  1  0.651220  0.594370  0.167940  1
  C  C867  1  0.151220  0.094370  0.332060  1
  C  C868  1  0.348780  0.405630  0.832060  1
  C  C869  1  0.851830  0.862020  0.688030  1
  C  C870  1  0.648170  0.637980  0.188030  1
  C  C871  1  0.148170  0.137980  0.311970  1
  C  C872  1  0.351830  0.362020  0.811970  1
  C  C873  1  0.941600  0.937800  0.769640  1
  C  C874  1  0.558400  0.562200  0.269640  1
  C  C875  1  0.058400  0.062200  0.230360  1
  C  C876  1  0.441600  0.437800  0.730360  1
  C  C877  1  0.860650  0.005470  0.658370  1
  C  C878  1  0.639350  0.494530  0.158370  1
  C  C879  1  0.139350  0.994530  0.341630  1
  C  C880  1  0.360650  0.505470  0.841630  1
  C  C881  1  0.821780  0.804710  0.673570  1
  C  C882  1  0.678220  0.695290  0.173570  1
  C  C883  1  0.178220  0.195290  0.326430  1
  C  C884  1  0.321780  0.304710  0.826430  1
  C  C885  1  0.964550  0.814160  0.752150  1
  C  C886  1  0.535450  0.685840  0.252150  1
  C  C887  1  0.035450  0.185840  0.247850  1
  C  C888  1  0.464550  0.314160  0.747850  1
  C  C889  1  0.056870  0.849840  0.743330  1
  C  C890  1  0.443130  0.650160  0.243330  1
  C  C891  1  0.943130  0.150160  0.256670  1
  C  C892  1  0.556870  0.349840  0.756670  1
  C  C893  1  0.120490  0.829660  0.758600  1
  C  C894  1  0.379510  0.670340  0.258600  1
  C  C895  1  0.879510  0.170340  0.241400  1
  C  C896  1  0.620490  0.329660  0.741400  1
  C  C897  1  0.069980  0.779970  0.776330  1
  C  C898  1  0.430020  0.720030  0.276330  1
  C  C899  1  0.930020  0.220030  0.223670  1
  C  C900  1  0.569980  0.279970  0.723670  1
  C  C901  1  0.110670  0.746330  0.794040  1
  C  C902  1  0.389330  0.753670  0.294040  1
  C  C903  1  0.889330  0.253670  0.205960  1
  C  C904  1  0.610670  0.246330  0.705960  1
  C  C905  1  0.215530  0.765140  0.799570  1
  C  C906  1  0.284470  0.734860  0.299570  1
  C  C907  1  0.784470  0.234860  0.200430  1
  C  C908  1  0.715530  0.265140  0.700430  1
  C  C909  1  0.274020  0.743530  0.780840  1
  C  C910  1  0.225980  0.756470  0.280840  1
  C  C911  1  0.725980  0.256470  0.219160  1
  C  C912  1  0.774020  0.243530  0.719160  1
  C  C913  1  0.370840  0.760380  0.786680  1
  C  C914  1  0.129160  0.739620  0.286680  1
  C  C915  1  0.629160  0.239620  0.213320  1
  C  C916  1  0.870840  0.260380  0.713320  1
  C  C917  1  0.407710  0.798180  0.811350  1
  C  C918  1  0.092290  0.701820  0.311350  1
  C  C919  1  0.592290  0.201820  0.188650  1
  C  C920  1  0.907710  0.298180  0.688650  1
  C  C921  1  0.349830  0.819600  0.830630  1
  C  C922  1  0.150170  0.680400  0.330630  1
  C  C923  1  0.650170  0.180400  0.169370  1
  C  C924  1  0.849830  0.319600  0.669370  1
  C  C925  1  0.252680  0.803510  0.824580  1
  C  C926  1  0.247320  0.696490  0.324580  1
  C  C927  1  0.747320  0.196490  0.175420  1
  C  C928  1  0.752680  0.303510  0.675420  1
  C  C929  1  0.375540  0.690300  0.871510  1
  C  C930  1  0.124460  0.809700  0.371510  1
  C  C931  1  0.624460  0.309700  0.128490  1
  C  C932  1  0.875540  0.190300  0.628490  1
  C  C933  1  0.302580  0.700320  0.894830  1
  C  C934  1  0.197420  0.799680  0.394830  1
  C  C935  1  0.697420  0.299680  0.105170  1
  C  C936  1  0.802580  0.200320  0.605170  1
  C  C937  1  0.349120  0.738150  0.923590  1
  C  C938  1  0.150880  0.761850  0.423590  1
  C  C939  1  0.650880  0.261850  0.076410  1
  C  C940  1  0.849120  0.238150  0.576410  1
  C  C941  1  0.280750  0.746970  0.949920  1
  C  C942  1  0.219250  0.753030  0.449920  1
  C  C943  1  0.719250  0.253030  0.050080  1
  C  C944  1  0.780750  0.246970  0.550080  1
  C  C945  1  0.326810  0.783090  0.979250  1
  C  C946  1  0.173190  0.716910  0.479250  1
  C  C947  1  0.673190  0.216910  0.020750  1
  C  C948  1  0.826810  0.283090  0.520750  1
  C  C949  1  0.384860  0.758770  0.001850  1
  C  C950  1  0.115140  0.741230  0.501850  1
  C  C951  1  0.615140  0.241230  0.998150  1
  C  C952  1  0.884860  0.258770  0.498150  1
  C  C953  1  0.335980  0.874020  0.878500  1
  C  C954  1  0.164020  0.625980  0.378500  1
  C  C955  1  0.664020  0.125980  0.121500  1
  C  C956  1  0.835980  0.374020  0.621500  1
  C  C957  1  0.400090  0.905640  0.905330  1
  C  C958  1  0.099910  0.594360  0.405330  1
  C  C959  1  0.599910  0.094360  0.094670  1
  C  C960  1  0.900090  0.405640  0.594670  1
  C  C961  1  0.349570  0.929520  0.931430  1
  C  C962  1  0.150430  0.570480  0.431430  1
  C  C963  1  0.650430  0.070480  0.068570  1
  C  C964  1  0.849570  0.429520  0.568570  1
  C  C965  1  0.414940  0.958740  0.959500  1
  C  C966  1  0.085060  0.541260  0.459500  1
  C  C967  1  0.585060  0.041260  0.040500  1
  C  C968  1  0.914940  0.458740  0.540500  1
  C  C969  1  0.363690  0.979620  0.987180  1
  C  C970  1  0.136310  0.520380  0.487180  1
  C  C971  1  0.636310  0.020380  0.012820  1
  C  C972  1  0.863690  0.479620  0.512820  1
  C  C973  1  0.302360  0.935030  0.008840  1
  C  C974  1  0.197640  0.564970  0.508840  1
  C  C975  1  0.697640  0.064970  0.991160  1
  C  C976  1  0.802360  0.435030  0.491160  1
  C  C977  1  0.028980  0.819540  0.094000  1
  C  C978  1  0.471020  0.680460  0.594000  1
  C  C979  1  0.971020  0.180460  0.906000  1
  C  C980  1  0.528980  0.319540  0.406000  1
  C  C981  1  0.069130  0.874270  0.106840  1
  C  C982  1  0.430870  0.625730  0.606840  1
  C  C983  1  0.930870  0.125730  0.893160  1
  C  C984  1  0.569130  0.374270  0.393160  1
  C  C985  1  0.998100  0.891550  0.119050  1
  C  C986  1  0.501900  0.608450  0.619050  1
  C  C987  1  0.001900  0.108450  0.880950  1
  C  C988  1  0.498100  0.391550  0.380950  1
  C  C989  1  0.911590  0.848560  0.112970  1
  C  C990  1  0.588410  0.651440  0.612970  1
  C  C991  1  0.088410  0.151440  0.887030  1
  C  C992  1  0.411590  0.348560  0.387030  1
  C  C993  1  0.821930  0.852570  0.120630  1
  C  C994  1  0.678070  0.647430  0.620630  1
  C  C995  1  0.178070  0.147430  0.879370  1
  C  C996  1  0.321930  0.352570  0.379370  1
  C  C997  1  0.812940  0.901900  0.138770  1
  C  C998  1  0.687060  0.598100  0.638770  1
  C  C999  1  0.187060  0.098100  0.861230  1
  C  C1000  1  0.312940  0.401900  0.361230  1
  C  C1001  1  0.799940  0.946480  0.120940  1
  C  C1002  1  0.700060  0.553520  0.620940  1
  C  C1003  1  0.200060  0.053520  0.879060  1
  C  C1004  1  0.299940  0.446480  0.379060  1
  C  C1005  1  0.792330  0.992260  0.138730  1
  C  C1006  1  0.707670  0.507740  0.638730  1
  C  C1007  1  0.207670  0.007740  0.861270  1
  C  C1008  1  0.292330  0.492260  0.361270  1
  C  C1009  1  0.798510  0.995310  0.173020  1
  C  C1010  1  0.701490  0.504690  0.673020  1
  C  C1011  1  0.201490  0.004690  0.826980  1
  C  C1012  1  0.298510  0.495310  0.326980  1
  C  C1013  1  0.809450  0.950130  0.190460  1
  C  C1014  1  0.690550  0.549870  0.690460  1
  C  C1015  1  0.190550  0.049870  0.809540  1
  C  C1016  1  0.309450  0.450130  0.309540  1
  C  C1017  1  0.815690  0.903050  0.173940  1
  C  C1018  1  0.684310  0.596950  0.673940  1
  C  C1019  1  0.184310  0.096950  0.826060  1
  C  C1020  1  0.315690  0.403050  0.326060  1
  C  C1021  1  0.792530  0.944490  0.083180  1
  C  C1022  1  0.707470  0.555510  0.583180  1
  C  C1023  1  0.207470  0.055510  0.916820  1
  C  C1024  1  0.292530  0.444490  0.416820  1
  C  C1025  1  0.792300  0.046030  0.191410  1
  C  C1026  1  0.707700  0.453970  0.691410  1
  C  C1027  1  0.207700  0.953970  0.808590  1
  C  C1028  1  0.292300  0.546030  0.308590  1
  C  C1029  1  0.824500  0.854200  0.193520  1
  C  C1030  1  0.675500  0.645800  0.693520  1
  C  C1031  1  0.175500  0.145800  0.806480  1
  C  C1032  1  0.324500  0.354200  0.306480  1
  C  C1033  1  0.737700  0.812930  0.111320  1
  C  C1034  1  0.762300  0.687070  0.611320  1
  C  C1035  1  0.262300  0.187070  0.888680  1
  C  C1036  1  0.237700  0.312930  0.388680  1
  C  C1037  1  0.645680  0.819230  0.115900  1
  C  C1038  1  0.854320  0.680770  0.615900  1
  C  C1039  1  0.354320  0.180770  0.884100  1
  C  C1040  1  0.145680  0.319230  0.384100  1
  C  C1041  1  0.584480  0.773800  0.102260  1
  C  C1042  1  0.915520  0.726200  0.602260  1
  C  C1043  1  0.415520  0.226200  0.897740  1
  C  C1044  1  0.084480  0.273800  0.397740  1
  C  C1045  1  0.636930  0.739040  0.090170  1
  C  C1046  1  0.863070  0.760960  0.590170  1
  C  C1047  1  0.363070  0.260960  0.909830  1
  C  C1048  1  0.136930  0.239040  0.409830  1
  C  C1049  1  0.598790  0.685540  0.078000  1
  C  C1050  1  0.901210  0.814460  0.578000  1
  C  C1051  1  0.401210  0.314460  0.922000  1
  C  C1052  1  0.098790  0.185540  0.422000  1
  C  C1053  1  0.495120  0.669590  0.071230  1
  C  C1054  1  0.004880  0.830410  0.571230  1
  C  C1055  1  0.504880  0.330410  0.928770  1
  C  C1056  1  0.995120  0.169590  0.428770  1
  C  C1057  1  0.460040  0.698600  0.047860  1
  C  C1058  1  0.039960  0.801400  0.547860  1
  C  C1059  1  0.539960  0.301400  0.952140  1
  C  C1060  1  0.960040  0.198600  0.452140  1
  C  C1061  1  0.363320  0.685870  0.041770  1
  C  C1062  1  0.136680  0.814130  0.541770  1
  C  C1063  1  0.636680  0.314130  0.958230  1
  C  C1064  1  0.863320  0.185870  0.458230  1
  C  C1065  1  0.302260  0.643010  0.059450  1
  C  C1066  1  0.197740  0.856990  0.559450  1
  C  C1067  1  0.697740  0.356990  0.940550  1
  C  C1068  1  0.802260  0.143010  0.440550  1
  C  C1069  1  0.336250  0.614570  0.082920  1
  C  C1070  1  0.163750  0.885430  0.582920  1
  C  C1071  1  0.663750  0.385430  0.917080  1
  C  C1072  1  0.836250  0.114570  0.417080  1
  C  C1073  1  0.433430  0.627010  0.089320  1
  C  C1074  1  0.066570  0.872990  0.589320  1
  C  C1075  1  0.566570  0.372990  0.910680  1
  C  C1076  1  0.933430  0.127010  0.410680  1
  C  C1077  1  0.648400  0.647640  0.072330  1
  C  C1078  1  0.851600  0.852360  0.572330  1
  C  C1079  1  0.351600  0.352360  0.927670  1
  C  C1080  1  0.148400  0.147640  0.427670  1
  C  C1081  1  0.609190  0.590560  0.063360  1
  C  C1082  1  0.890810  0.909440  0.563360  1
  C  C1083  1  0.390810  0.409440  0.936640  1
  C  C1084  1  0.109190  0.090560  0.436640  1
  C  C1085  1  0.679910  0.567820  0.061120  1
  C  C1086  1  0.820090  0.932180  0.561120  1
  C  C1087  1  0.320090  0.432180  0.938880  1
  C  C1088  1  0.179910  0.067820  0.438880  1
  C  C1089  1  0.765960  0.610750  0.067240  1
  C  C1090  1  0.734040  0.889250  0.567240  1
  C  C1091  1  0.234040  0.389250  0.932760  1
  C  C1092  1  0.265960  0.110750  0.432760  1
  C  C1093  1  0.856070  0.604480  0.063270  1
  C  C1094  1  0.643930  0.895520  0.563270  1
  C  C1095  1  0.143930  0.395520  0.936730  1
  C  C1096  1  0.356070  0.104480  0.436730  1
  C  C1097  1  0.865500  0.548930  0.056350  1
  C  C1098  1  0.634500  0.951070  0.556350  1
  C  C1099  1  0.134500  0.451070  0.943650  1
  C  C1100  1  0.365500  0.048930  0.443650  1
  C  C1101  1  0.880520  0.516690  0.083050  1
  C  C1102  1  0.619480  0.983310  0.583050  1
  C  C1103  1  0.119480  0.483310  0.916950  1
  C  C1104  1  0.380520  0.016690  0.416950  1
  C  C1105  1  0.893300  0.465680  0.076480  1
  C  C1106  1  0.606700  0.034320  0.576480  1
  C  C1107  1  0.106700  0.534320  0.923520  1
  C  C1108  1  0.393300  0.965680  0.423520  1
  C  C1109  1  0.894350  0.446170  0.044100  1
  C  C1110  1  0.605650  0.053830  0.544100  1
  C  C1111  1  0.105650  0.553830  0.955900  1
  C  C1112  1  0.394350  0.946170  0.455900  1
  C  C1113  1  0.878370  0.477930  0.018270  1
  C  C1114  1  0.621630  0.022070  0.518270  1
  C  C1115  1  0.121630  0.522070  0.981730  1
  C  C1116  1  0.378370  0.977930  0.481730  1
  C  C1117  1  0.862120  0.528680  0.023520  1
  C  C1118  1  0.637880  0.971320  0.523520  1
  C  C1119  1  0.137880  0.471320  0.976480  1
  C  C1120  1  0.362120  0.028680  0.476480  1
  C  C1121  1  0.882090  0.536780  0.118580  1
  C  C1122  1  0.617910  0.963220  0.618580  1
  C  C1123  1  0.117910  0.463220  0.881420  1
  C  C1124  1  0.382090  0.036780  0.381420  1
  C  C1125  1  0.910000  0.391370  0.037500  1
  C  C1126  1  0.590000  0.108630  0.537500  1
  C  C1127  1  0.090000  0.608630  0.962500  1
  C  C1128  1  0.410000  0.891370  0.462500  1
  C  C1129  1  0.840200  0.560630  0.994700  1
  C  C1130  1  0.659800  0.939370  0.494700  1
  C  C1131  1  0.159800  0.439370  0.005300  1
  C  C1132  1  0.340200  0.060630  0.505300  1
  C  C1133  1  0.939670  0.648490  0.064670  1
  C  C1134  1  0.560330  0.851510  0.564670  1
  C  C1135  1  0.060330  0.351510  0.935330  1
  C  C1136  1  0.439670  0.148490  0.435330  1
  C  C1137  1  0.029850  0.645200  0.053700  1
  C  C1138  1  0.470150  0.854800  0.553700  1
  C  C1139  1  0.970150  0.354800  0.946300  1
  C  C1140  1  0.529850  0.145200  0.446300  1
  C  C1141  1  0.090510  0.695740  0.057240  1
  C  C1142  1  0.409490  0.804260  0.557240  1
  C  C1143  1  0.909490  0.304260  0.942760  1
  C  C1144  1  0.590510  0.195740  0.442760  1
  C  C1145  1  0.040480  0.730390  0.071810  1
  C  C1146  1  0.459520  0.769610  0.571810  1
  C  C1147  1  0.959520  0.269610  0.928190  1
  C  C1148  1  0.540480  0.230390  0.428190  1
  C  C1149  1  0.078800  0.785840  0.080870  1
  C  C1150  1  0.421200  0.714160  0.580870  1
  C  C1151  1  0.921200  0.214160  0.919130  1
  C  C1152  1  0.578800  0.285840  0.419130  1
  C  C1153  1  0.184050  0.809060  0.077570  1
  C  C1154  1  0.315950  0.690940  0.577570  1
  C  C1155  1  0.815950  0.190940  0.922430  1
  C  C1156  1  0.684050  0.309060  0.422430  1
  C  C1157  1  0.220800  0.850630  0.054290  1
  C  C1158  1  0.279200  0.649370  0.554290  1
  C  C1159  1  0.779200  0.149370  0.945710  1
  C  C1160  1  0.720800  0.350630  0.445710  1
  C  C1161  1  0.319040  0.871370  0.050990  1
  C  C1162  1  0.180960  0.628630  0.550990  1
  C  C1163  1  0.680960  0.128630  0.949010  1
  C  C1164  1  0.819040  0.371370  0.449010  1
  C  C1165  1  0.377180  0.851370  0.070920  1
  C  C1166  1  0.122820  0.648630  0.570920  1
  C  C1167  1  0.622820  0.148630  0.929080  1
  C  C1168  1  0.877180  0.351370  0.429080  1
  C  C1169  1  0.340360  0.811040  0.094260  1
  C  C1170  1  0.159640  0.688960  0.594260  1
  C  C1171  1  0.659640  0.188960  0.905740  1
  C  C1172  1  0.840360  0.311040  0.405740  1
  C  C1173  1  0.243130  0.789260  0.097520  1
  C  C1174  1  0.256870  0.710740  0.597520  1
  C  C1175  1  0.756870  0.210740  0.902480  1
  C  C1176  1  0.743130  0.289260  0.402480  1
  C  C1177  1  0.745190  0.740280  0.004790  1
  C  C1178  1  0.754810  0.759720  0.504790  1
  C  C1179  1  0.254810  0.259720  0.995210  1
  C  C1180  1  0.245190  0.240280  0.495210  1
  C  C1181  1  0.669580  0.755670  0.990680  1
  C  C1182  1  0.830420  0.744330  0.490680  1
  C  C1183  1  0.330420  0.244330  0.009320  1
  C  C1184  1  0.169580  0.255670  0.509320  1
  C  C1185  1  0.665880  0.809100  0.997420  1
  C  C1186  1  0.834120  0.690900  0.497420  1
  C  C1187  1  0.334120  0.190900  0.002580  1
  C  C1188  1  0.165880  0.309100  0.502580  1
  C  C1189  1  0.745230  0.849870  0.011660  1
  C  C1190  1  0.754770  0.650130  0.511660  1
  C  C1191  1  0.254770  0.150130  0.988340  1
  C  C1192  1  0.245230  0.349870  0.488340  1
  C  C1193  1  0.829100  0.836960  0.019270  1
  C  C1194  1  0.670900  0.663040  0.519270  1
  C  C1195  1  0.170900  0.163040  0.980730  1
  C  C1196  1  0.329100  0.336960  0.480730  1
  C  C1197  1  0.825200  0.781280  0.018800  1
  C  C1198  1  0.674800  0.718720  0.518800  1
  C  C1199  1  0.174800  0.218720  0.981200  1
  C  C1200  1  0.325200  0.281280  0.481200  1
  C  C1201  1  0.907200  0.762700  0.012740  1
  C  C1202  1  0.592800  0.737300  0.512740  1
  C  C1203  1  0.092800  0.237300  0.987260  1
  C  C1204  1  0.407200  0.262700  0.487260  1
  C  C1205  1  0.879990  0.711130  0.995380  1
  C  C1206  1  0.620010  0.788870  0.495380  1
  C  C1207  1  0.120010  0.288870  0.004620  1
  C  C1208  1  0.379990  0.211130  0.504620  1
  C  C1209  1  0.779230  0.697380  0.990520  1
  C  C1210  1  0.720770  0.802620  0.490520  1
  C  C1211  1  0.220770  0.302620  0.009480  1
  C  C1212  1  0.279230  0.197380  0.509480  1
  C  C1213  1  0.740620  0.672470  0.961050  1
  C  C1214  1  0.759380  0.827530  0.461050  1
  C  C1215  1  0.259380  0.327530  0.038950  1
  C  C1216  1  0.240620  0.172470  0.538950  1
  C  C1217  1  0.666510  0.689730  0.944710  1
  C  C1218  1  0.833490  0.810270  0.444710  1
  C  C1219  1  0.333490  0.310270  0.055290  1
  C  C1220  1  0.166510  0.189730  0.555290  1
  C  C1221  1  0.628140  0.728690  0.959590  1
  C  C1222  1  0.871860  0.771310  0.459590  1
  C  C1223  1  0.371860  0.271310  0.040410  1
  C  C1224  1  0.128140  0.228690  0.540410  1
  C  C1225  1  0.587660  0.758760  0.937420  1
  C  C1226  1  0.912340  0.741240  0.437420  1
  C  C1227  1  0.412340  0.241240  0.062580  1
  C  C1228  1  0.087660  0.258760  0.562580  1
  C  C1229  1  0.579940  0.812350  0.945640  1
  C  C1230  1  0.920060  0.687650  0.445640  1
  C  C1231  1  0.420060  0.187650  0.054360  1
  C  C1232  1  0.079940  0.312350  0.554360  1
  C  C1233  1  0.617440  0.836960  0.975370  1
  C  C1234  1  0.882560  0.663040  0.475370  1
  C  C1235  1  0.382560  0.163040  0.024630  1
  C  C1236  1  0.117440  0.336960  0.524630  1
  C  C1237  1  0.666530  0.895410  0.975860  1
  C  C1238  1  0.833470  0.604590  0.475860  1
  C  C1239  1  0.333470  0.104590  0.024140  1
  C  C1240  1  0.166530  0.395410  0.524140  1
  C  C1241  1  0.745200  0.902550  0.998070  1
  C  C1242  1  0.754800  0.597450  0.498070  1
  C  C1243  1  0.254800  0.097450  0.001930  1
  C  C1244  1  0.245200  0.402550  0.501930  1
  C  C1245  1  0.831200  0.940940  0.990230  1
  C  C1246  1  0.668800  0.559060  0.490230  1
  C  C1247  1  0.168800  0.059060  0.009770  1
  C  C1248  1  0.331200  0.440940  0.509770  1
  C  C1249  1  0.918000  0.927250  0.995890  1
  C  C1250  1  0.582000  0.572750  0.495890  1
  C  C1251  1  0.082000  0.072750  0.004110  1
  C  C1252  1  0.418000  0.427250  0.504110  1
  C  C1253  1  0.920100  0.877790  0.010990  1
  C  C1254  1  0.579900  0.622210  0.510990  1
  C  C1255  1  0.079900  0.122210  0.989010  1
  C  C1256  1  0.420100  0.377790  0.489010  1
  C  C1257  1  0.997360  0.858700  0.003070  1
  C  C1258  1  0.502640  0.641300  0.503070  1
  C  C1259  1  0.002640  0.141300  0.996930  1
  C  C1260  1  0.497360  0.358700  0.496930  1
  C  C1261  1  0.992760  0.801470  0.005050  1
  C  C1262  1  0.507240  0.698530  0.505050  1
  C  C1263  1  0.007240  0.198530  0.994950  1
  C  C1264  1  0.492760  0.301470  0.494950  1
  C  C1265  1  0.052790  0.788700  0.979770  1
  C  C1266  1  0.447210  0.711300  0.479770  1
  C  C1267  1  0.947210  0.211300  0.020230  1
  C  C1268  1  0.552790  0.288700  0.520230  1
  C  C1269  1  0.026040  0.738750  0.962670  1
  C  C1270  1  0.473960  0.761250  0.462670  1
  C  C1271  1  0.973960  0.261250  0.037330  1
  C  C1272  1  0.526040  0.238750  0.537330  1
  C  C1273  1  0.937200  0.699090  0.971040  1
  C  C1274  1  0.562800  0.800910  0.471040  1
  C  C1275  1  0.062800  0.300910  0.028960  1
  C  C1276  1  0.437200  0.199090  0.528960  1
  C  C1277  1  0.896290  0.673170  0.940140  1
  C  C1278  1  0.603710  0.826830  0.440140  1
  C  C1279  1  0.103710  0.326830  0.059860  1
  C  C1280  1  0.396290  0.173170  0.559860  1
  C  C1281  1  0.798790  0.659630  0.935600  1
  C  C1282  1  0.701210  0.840370  0.435600  1
  C  C1283  1  0.201210  0.340370  0.064400  1
  C  C1284  1  0.298790  0.159630  0.564400  1
  C  C1285  1  0.761740  0.670150  0.903500  1
  C  C1286  1  0.738260  0.829850  0.403500  1
  C  C1287  1  0.238260  0.329850  0.096500  1
  C  C1288  1  0.261740  0.170150  0.596500  1
  C  C1289  1  0.679680  0.688420  0.909410  1
  C  C1290  1  0.820320  0.811580  0.409410  1
  C  C1291  1  0.320320  0.311580  0.090590  1
  C  C1292  1  0.179680  0.188420  0.590590  1
  C  C1293  1  0.655040  0.725560  0.887950  1
  C  C1294  1  0.844960  0.774440  0.387950  1
  C  C1295  1  0.344960  0.274440  0.112050  1
  C  C1296  1  0.155040  0.225560  0.612050  1
  C  C1297  1  0.601070  0.757150  0.901840  1
  C  C1298  1  0.898930  0.742850  0.401840  1
  C  C1299  1  0.398930  0.242850  0.098160  1
  C  C1300  1  0.101070  0.257150  0.598160  1
  C  C1301  1  0.600880  0.809730  0.888520  1
  C  C1302  1  0.899120  0.690270  0.388520  1
  C  C1303  1  0.399120  0.190270  0.111480  1
  C  C1304  1  0.100880  0.309730  0.611480  1
  C  C1305  1  0.587200  0.843960  0.915640  1
  C  C1306  1  0.912800  0.656040  0.415640  1
  C  C1307  1  0.412800  0.156040  0.084360  1
  C  C1308  1  0.087200  0.343960  0.584360  1
  C  C1309  1  0.634300  0.899950  0.915600  1
  C  C1310  1  0.865700  0.600050  0.415600  1
  C  C1311  1  0.365700  0.100050  0.084400  1
  C  C1312  1  0.134300  0.399950  0.584400  1
  C  C1313  1  0.675100  0.926110  0.946700  1
  C  C1314  1  0.824900  0.573890  0.446700  1
  C  C1315  1  0.324900  0.073890  0.053300  1
  C  C1316  1  0.175100  0.426110  0.553300  1
  C  C1317  1  0.763500  0.965820  0.938500  1
  C  C1318  1  0.736500  0.534180  0.438500  1
  C  C1319  1  0.236500  0.034180  0.061500  1
  C  C1320  1  0.263500  0.465820  0.561500  1
  C  C1321  1  0.839800  0.972970  0.960080  1
  C  C1322  1  0.660200  0.527030  0.460080  1
  C  C1323  1  0.160200  0.027030  0.039920  1
  C  C1324  1  0.339800  0.472970  0.539920  1
  C  C1325  1  0.931800  0.978390  0.946700  1
  C  C1326  1  0.568200  0.521610  0.446700  1
  C  C1327  1  0.068200  0.021610  0.053300  1
  C  C1328  1  0.431800  0.478390  0.553300  1
  C  C1329  1  0.980500  0.950780  0.968700  1
  C  C1330  1  0.519500  0.549220  0.468700  1
  C  C1331  1  0.019500  0.049220  0.031300  1
  C  C1332  1  0.480500  0.450780  0.531300  1
  C  C1333  1  0.045800  0.924550  0.956370  1
  C  C1334  1  0.454200  0.575450  0.456370  1
  C  C1335  1  0.954200  0.075450  0.043630  1
  C  C1336  1  0.545800  0.424550  0.543630  1
  C  C1337  1  0.059580  0.881860  0.976110  1
  C  C1338  1  0.440420  0.618140  0.476110  1
  C  C1339  1  0.940420  0.118140  0.023890  1
  C  C1340  1  0.559580  0.381860  0.523890  1
  C  C1341  1  0.092880  0.839030  0.961620  1
  C  C1342  1  0.407120  0.660970  0.461620  1
  C  C1343  1  0.907120  0.160970  0.038380  1
  C  C1344  1  0.592880  0.339030  0.538380  1
  C  C1345  1  0.105960  0.837350  0.927270  1
  C  C1346  1  0.394040  0.662650  0.427270  1
  C  C1347  1  0.894040  0.162650  0.072730  1
  C  C1348  1  0.605960  0.337350  0.572730  1
  C  C1349  1  0.079240  0.785630  0.909560  1
  C  C1350  1  0.420760  0.714370  0.409560  1
  C  C1351  1  0.920760  0.214370  0.090440  1
  C  C1352  1  0.579240  0.285630  0.590440  1
  C  C1353  1  0.039250  0.737620  0.927230  1
  C  C1354  1  0.460750  0.762380  0.427230  1
  C  C1355  1  0.960750  0.262380  0.072770  1
  C  C1356  1  0.539250  0.237620  0.572770  1
  C  C1357  1  0.958750  0.696680  0.912800  1
  C  C1358  1  0.541250  0.803320  0.412800  1
  C  C1359  1  0.041250  0.303320  0.087200  1
  C  C1360  1  0.458750  0.196680  0.587200  1
  C  C1361  1  0.923200  0.706080  0.882500  1
  C  C1362  1  0.576800  0.793920  0.382500  1
  C  C1363  1  0.076800  0.293920  0.117500  1
  C  C1364  1  0.423200  0.206080  0.617500  1
  C  C1365  1  0.822280  0.692760  0.877680  1
  C  C1366  1  0.677720  0.807240  0.377680  1
  C  C1367  1  0.177720  0.307240  0.122320  1
  C  C1368  1  0.322280  0.192760  0.622320  1
  C  C1369  1  0.803000  0.734120  0.856380  1
  C  C1370  1  0.697000  0.765880  0.356380  1
  C  C1371  1  0.197000  0.265880  0.143620  1
  C  C1372  1  0.303000  0.234120  0.643620  1
  C  C1373  1  0.719750  0.749990  0.859880  1
  C  C1374  1  0.780250  0.750010  0.359880  1
  C  C1375  1  0.280250  0.250010  0.140120  1
  C  C1376  1  0.219750  0.249990  0.640120  1
  C  C1377  1  0.722420  0.802380  0.848970  1
  C  C1378  1  0.777580  0.697620  0.348970  1
  C  C1379  1  0.277580  0.197620  0.151030  1
  C  C1380  1  0.222420  0.302380  0.651030  1
  C  C1381  1  0.661830  0.832280  0.862270  1
  C  C1382  1  0.838170  0.667720  0.362270  1
  C  C1383  1  0.338170  0.167720  0.137730  1
  C  C1384  1  0.161830  0.332280  0.637730  1
  C  C1385  1  0.709030  0.891040  0.862440  1
  C  C1386  1  0.790970  0.608960  0.362440  1
  C  C1387  1  0.290970  0.108960  0.137560  1
  C  C1388  1  0.209030  0.391040  0.637560  1
  C  C1389  1  0.696190  0.923570  0.888450  1
  C  C1390  1  0.803810  0.576430  0.388450  1
  C  C1391  1  0.303810  0.076430  0.111550  1
  C  C1392  1  0.196190  0.423570  0.611550  1
  C  C1393  1  0.776500  0.964480  0.902640  1
  C  C1394  1  0.723500  0.535520  0.402640  1
  C  C1395  1  0.223500  0.035520  0.097360  1
  C  C1396  1  0.276500  0.464480  0.597360  1
  C  C1397  1  0.865270  0.969770  0.889910  1
  C  C1398  1  0.634730  0.530230  0.389910  1
  C  C1399  1  0.134730  0.030230  0.110090  1
  C  C1400  1  0.365270  0.469770  0.610090  1
  C  C1401  1  0.944380  0.976910  0.912300  1
  C  C1402  1  0.555620  0.523090  0.412300  1
  C  C1403  1  0.055620  0.023090  0.087700  1
  C  C1404  1  0.444380  0.476910  0.587700  1
  C  C1405  1  0.005950  0.947740  0.899050  1
  C  C1406  1  0.494050  0.552260  0.399050  1
  C  C1407  1  0.994050  0.052260  0.100950  1
  C  C1408  1  0.505950  0.447740  0.600950  1
  C  C1409  1  0.058820  0.923280  0.920010  1
  C  C1410  1  0.441180  0.576720  0.420010  1
  C  C1411  1  0.941180  0.076720  0.079990  1
  C  C1412  1  0.558820  0.423280  0.579990  1
  C  C1413  1  0.086270  0.879220  0.906180  1
  C  C1414  1  0.413730  0.620780  0.406180  1
  C  C1415  1  0.913730  0.120780  0.093820  1
  C  C1416  1  0.586270  0.379220  0.593820  1
  C  C1417  1  0.045840  0.853050  0.875770  1
  C  C1418  1  0.454160  0.646950  0.375770  1
  C  C1419  1  0.954160  0.146950  0.124230  1
  C  C1420  1  0.545840  0.353050  0.624230  1
  C  C1421  1  0.040900  0.795760  0.877770  1
  C  C1422  1  0.459100  0.704240  0.377770  1
  C  C1423  1  0.959100  0.204240  0.122230  1
  C  C1424  1  0.540900  0.295760  0.622230  1
  C  C1425  1  0.964430  0.756410  0.864620  1
  C  C1426  1  0.535570  0.743590  0.364620  1
  C  C1427  1  0.035570  0.243590  0.135380  1
  C  C1428  1  0.464430  0.256410  0.635380  1
  C  C1429  1  0.890540  0.773910  0.848480  1
  C  C1430  1  0.609460  0.726090  0.348480  1
  C  C1431  1  0.109460  0.226090  0.151520  1
  C  C1432  1  0.390540  0.273910  0.651520  1
  C  C1433  1  0.896400  0.829670  0.843780  1
  C  C1434  1  0.603600  0.670330  0.343780  1
  C  C1435  1  0.103600  0.170330  0.156220  1
  C  C1436  1  0.396400  0.329670  0.656220  1
  C  C1437  1  0.810400  0.842340  0.840750  1
  C  C1438  1  0.689600  0.657660  0.340750  1
  C  C1439  1  0.189600  0.157660  0.159250  1
  C  C1440  1  0.310400  0.342340  0.659250  1
  C  C1441  1  0.802500  0.896450  0.849450  1
  C  C1442  1  0.697500  0.603550  0.349450  1
  C  C1443  1  0.197500  0.103550  0.150550  1
  C  C1444  1  0.302500  0.396450  0.650550  1
  C  C1445  1  0.878730  0.935380  0.862850  1
  C  C1446  1  0.621270  0.564620  0.362850  1
  C  C1447  1  0.121270  0.064620  0.137150  1
  C  C1448  1  0.378730  0.435380  0.637150  1
  C  C1449  1  0.965540  0.921740  0.868150  1
  C  C1450  1  0.534460  0.578260  0.368150  1
  C  C1451  1  0.034460  0.078260  0.131850  1
  C  C1452  1  0.465540  0.421740  0.631850  1
  C  C1453  1  0.977760  0.871590  0.858090  1
  C  C1454  1  0.522240  0.628410  0.358090  1
  C  C1455  1  0.022240  0.128410  0.141910  1
  C  C1456  1  0.477760  0.371590  0.641910  1
  C  C1457  1  0.587600  0.242070  0.818570  1
  C  C1458  1  0.912400  0.257930  0.318570  1
  C  C1459  1  0.412400  0.757930  0.181430  1
  C  C1460  1  0.087600  0.742070  0.681430  1
  C  C1461  1  0.501900  0.210160  0.806110  1
  C  C1462  1  0.998100  0.289840  0.306110  1
  C  C1463  1  0.498100  0.789840  0.193890  1
  C  C1464  1  0.001900  0.710160  0.693890  1
  C  C1465  1  0.494800  0.162090  0.789010  1
  C  C1466  1  0.005200  0.337910  0.289010  1
  C  C1467  1  0.505200  0.837910  0.210990  1
  C  C1468  1  0.994800  0.662090  0.710990  1
  C  C1469  1  0.573000  0.143450  0.783570  1
  C  C1470  1  0.927000  0.356550  0.283570  1
  C  C1471  1  0.427000  0.856550  0.216430  1
  C  C1472  1  0.073000  0.643450  0.716430  1
  C  C1473  1  0.658000  0.174840  0.796630  1
  C  C1474  1  0.842000  0.325160  0.296630  1
  C  C1475  1  0.342000  0.825160  0.203370  1
  C  C1476  1  0.158000  0.674840  0.703370  1
  C  C1477  1  0.664200  0.222790  0.813350  1
  C  C1478  1  0.835800  0.277210  0.313350  1
  C  C1479  1  0.335800  0.777210  0.186650  1
  C  C1480  1  0.164200  0.722790  0.686650  1
  C  C1481  1  0.595800  0.295090  0.836500  1
  C  C1482  1  0.904200  0.204910  0.336500  1
  C  C1483  1  0.404200  0.704910  0.163500  1
  C  C1484  1  0.095800  0.795090  0.663500  1
  C  C1485  1  0.566100  0.091450  0.764300  1
  C  C1486  1  0.933900  0.408550  0.264300  1
  C  C1487  1  0.433900  0.908550  0.235700  1
  C  C1488  1  0.066100  0.591450  0.735700  1
  C  C1489  1  0.669800  0.990170  0.809040  1
  C  C1490  1  0.830200  0.509830  0.309040  1
  C  C1491  1  0.330200  0.009830  0.190960  1
  C  C1492  1  0.169800  0.490170  0.690960  1
  C  C1493  1  0.573800  0.961940  0.810260  1
  C  C1494  1  0.926200  0.538060  0.310260  1
  C  C1495  1  0.426200  0.038060  0.189740  1
  C  C1496  1  0.073800  0.461940  0.689740  1
  C  C1497  1  0.512300  0.982200  0.828770  1
  C  C1498  1  0.987700  0.517800  0.328770  1
  C  C1499  1  0.487700  0.017800  0.171230  1
  C  C1500  1  0.012300  0.482200  0.671230  1
  C  C1501  1  0.542700  0.031360  0.846130  1
  C  C1502  1  0.957300  0.468640  0.346130  1
  C  C1503  1  0.457300  0.968640  0.153870  1
  C  C1504  1  0.042700  0.531360  0.653870  1
  C  C1505  1  0.639800  0.057120  0.846410  1
  C  C1506  1  0.860200  0.442880  0.346410  1
  C  C1507  1  0.360200  0.942880  0.153590  1
  C  C1508  1  0.139800  0.557120  0.653590  1
  C  C1509  1  0.701700  0.036960  0.828220  1
  C  C1510  1  0.798300  0.463040  0.328220  1
  C  C1511  1  0.298300  0.963040  0.171780  1
  C  C1512  1  0.201700  0.536960  0.671780  1
  C  C1513  1  0.736200  0.969800  0.787400  1
  C  C1514  1  0.763800  0.530200  0.287400  1
  C  C1515  1  0.263800  0.030200  0.212600  1
  C  C1516  1  0.236200  0.469800  0.712600  1
  C  C1517  1  0.476400  0.056500  0.864420  1
  C  C1518  1  0.023600  0.443500  0.364420  1
  C  C1519  1  0.523600  0.943500  0.135580  1
  C  C1520  1  0.976400  0.556500  0.635580  1
  C  C1521  1  0.430200  0.587180  0.955420  1
  C  C1522  1  0.069800  0.912820  0.455420  1
  C  C1523  1  0.569800  0.412820  0.044580  1
  C  C1524  1  0.930200  0.087180  0.544580  1
  C  C1525  1  0.446100  0.578160  0.922110  1
  C  C1526  1  0.053900  0.921840  0.422110  1
  C  C1527  1  0.553900  0.421840  0.077890  1
  C  C1528  1  0.946100  0.078160  0.577890  1
  C  C1529  1  0.519500  0.557630  0.912560  1
  C  C1530  1  0.980500  0.942370  0.412560  1
  C  C1531  1  0.480500  0.442370  0.087440  1
  C  C1532  1  0.019500  0.057630  0.587440  1
  C  C1533  1  0.578100  0.544720  0.936240  1
  C  C1534  1  0.921900  0.955280  0.436240  1
  C  C1535  1  0.421900  0.455280  0.063760  1
  C  C1536  1  0.078100  0.044720  0.563760  1
  C  C1537  1  0.560800  0.554040  0.969660  1
  C  C1538  1  0.939200  0.945960  0.469660  1
  C  C1539  1  0.439200  0.445960  0.030340  1
  C  C1540  1  0.060800  0.054040  0.530340  1
  C  C1541  1  0.489800  0.574620  0.978910  1
  C  C1542  1  0.010200  0.925380  0.478910  1
  C  C1543  1  0.510200  0.425380  0.021090  1
  C  C1544  1  0.989800  0.074620  0.521090  1
  C  C1545  1  0.352700  0.609360  0.966240  1
  C  C1546  1  0.147300  0.890640  0.466240  1
  C  C1547  1  0.647300  0.390640  0.033760  1
  C  C1548  1  0.852700  0.109360  0.533760  1
  C  C1549  1  0.656000  0.520990  0.925800  1
  C  C1550  1  0.844000  0.979010  0.425800  1
  C  C1551  1  0.344000  0.479010  0.074200  1
  C  C1552  1  0.156000  0.020990  0.574200  1
  C  C1553  1  0.475100  0.771400  0.686030  1
  C  C1554  1  0.024900  0.728600  0.186030  1
  C  C1555  1  0.524900  0.228600  0.313970  1
  C  C1556  1  0.975100  0.271400  0.813970  1
  C  C1557  1  0.557600  0.803000  0.671030  1
  C  C1558  1  0.942400  0.697000  0.171030  1
  C  C1559  1  0.442400  0.197000  0.328970  1
  C  C1560  1  0.057600  0.303000  0.828970  1
  C  C1561  1  0.593900  0.858200  0.678340  1
  C  C1562  1  0.906100  0.641800  0.178340  1
  C  C1563  1  0.406100  0.141800  0.321660  1
  C  C1564  1  0.093900  0.358200  0.821660  1
  C  C1565  1  0.548600  0.883400  0.701130  1
  C  C1566  1  0.951400  0.616600  0.201130  1
  C  C1567  1  0.451400  0.116600  0.298870  1
  C  C1568  1  0.048600  0.383400  0.798870  1
  C  C1569  1  0.470100  0.851700  0.717640  1
  C  C1570  1  0.029900  0.648300  0.217640  1
  C  C1571  1  0.529900  0.148300  0.282360  1
  C  C1572  1  0.970100  0.351700  0.782360  1
  C  C1573  1  0.434000  0.796600  0.709890  1
  C  C1574  1  0.066000  0.703400  0.209890  1
  C  C1575  1  0.566000  0.203400  0.290110  1
  C  C1576  1  0.934000  0.296600  0.790110  1
  C  C1577  1  0.438300  0.711100  0.678280  1
  C  C1578  1  0.061700  0.788900  0.178280  1
  C  C1579  1  0.561700  0.288900  0.321720  1
  C  C1580  1  0.938300  0.211100  0.821720  1
  C  C1581  1  0.583300  0.944000  0.708320  1
  C  C1582  1  0.916700  0.556000  0.208320  1
  C  C1583  1  0.416700  0.056000  0.291680  1
  C  C1584  1  0.083300  0.444000  0.791680  1
  C  C1585  1  0.636700  0.960700  0.803900  1
  C  C1586  1  0.863300  0.539300  0.303900  1
  C  C1587  1  0.363300  0.039300  0.196100  1
  C  C1588  1  0.136700  0.460700  0.696100  1
  C  C1589  1  0.539700  0.951500  0.803500  1
  C  C1590  1  0.960300  0.548500  0.303500  1
  C  C1591  1  0.460300  0.048500  0.196500  1
  C  C1592  1  0.039700  0.451500  0.696500  1
  C  C1593  1  0.498000  0.985300  0.820700  1
  C  C1594  1  0.002000  0.514700  0.320700  1
  C  C1595  1  0.502000  0.014700  0.179300  1
  C  C1596  1  0.998000  0.485300  0.679300  1
  C  C1597  1  0.550000  0.020500  0.845300  1
  C  C1598  1  0.950000  0.479500  0.345300  1
  C  C1599  1  0.450000  0.979500  0.154700  1
  C  C1600  1  0.050000  0.520500  0.654700  1
  C  C1601  1  0.647500  0.034500  0.843300  1
  C  C1602  1  0.852500  0.465500  0.343300  1
  C  C1603  1  0.352500  0.965500  0.156700  1
  C  C1604  1  0.147500  0.534500  0.656700  1
  C  C1605  1  0.689600  0.006000  0.821600  1
  C  C1606  1  0.810400  0.494000  0.321600  1
  C  C1607  1  0.310400  0.994000  0.178400  1
  C  C1608  1  0.189600  0.506000  0.678400  1
  C  C1609  1  0.683100  0.928200  0.781900  1
  C  C1610  1  0.816900  0.571800  0.281900  1
  C  C1611  1  0.316900  0.071800  0.218100  1
  C  C1612  1  0.183100  0.428200  0.718100  1
  C  C1613  1  0.501100  0.052600  0.866800  1
  C  C1614  1  0.998900  0.447400  0.366800  1
  C  C1615  1  0.498900  0.947400  0.133200  1
  C  C1616  1  0.001100  0.552600  0.633200  1
  C  C1617  1  0.442600  0.577500  0.966100  1
  C  C1618  1  0.057400  0.922500  0.466100  1
  C  C1619  1  0.557400  0.422500  0.033900  1
  C  C1620  1  0.942600  0.077500  0.533900  1
  C  C1621  1  0.434800  0.583200  0.931600  1
  C  C1622  1  0.065200  0.916800  0.431600  1
  C  C1623  1  0.565200  0.416800  0.068400  1
  C  C1624  1  0.934800  0.083200  0.568400  1
  C  C1625  1  0.499100  0.571500  0.909700  1
  C  C1626  1  0.000900  0.928500  0.409700  1
  C  C1627  1  0.500900  0.428500  0.090300  1
  C  C1628  1  0.999100  0.071500  0.590300  1
  C  C1629  1  0.563300  0.544900  0.920800  1
  C  C1630  1  0.936700  0.955100  0.420800  1
  C  C1631  1  0.436700  0.455100  0.079200  1
  C  C1632  1  0.063300  0.044900  0.579200  1
  C  C1633  1  0.570800  0.538900  0.955200  1
  C  C1634  1  0.929200  0.961100  0.455200  1
  C  C1635  1  0.429200  0.461100  0.044800  1
  C  C1636  1  0.070800  0.038900  0.544800  1
  C  C1637  1  0.506400  0.550700  0.976800  1
  C  C1638  1  0.993600  0.949300  0.476800  1
  C  C1639  1  0.493600  0.449300  0.023200  1
  C  C1640  1  0.006400  0.050700  0.523200  1
  C  C1641  1  0.377100  0.592200  0.990800  1
  C  C1642  1  0.122900  0.907800  0.490800  1
  C  C1643  1  0.622900  0.407800  0.009200  1
  C  C1644  1  0.877100  0.092200  0.509200  1
  C  C1645  1  0.634100  0.532300  0.897300  1
  C  C1646  1  0.865900  0.967700  0.397300  1
  C  C1647  1  0.365900  0.467700  0.102700  1
  C  C1648  1  0.134100  0.032300  0.602700  1
  C  C1649  1  0.508500  0.794800  0.688400  1
  C  C1650  1  0.991500  0.705200  0.188400  1
  C  C1651  1  0.491500  0.205200  0.311600  1
  C  C1652  1  0.008500  0.294800  0.811600  1
  C  C1653  1  0.588400  0.834100  0.677300  1
  C  C1654  1  0.911600  0.665900  0.177300  1
  C  C1655  1  0.411600  0.165900  0.322700  1
  C  C1656  1  0.088400  0.334100  0.822700  1
  C  C1657  1  0.609900  0.888200  0.687100  1
  C  C1658  1  0.890100  0.611800  0.187100  1
  C  C1659  1  0.390100  0.111800  0.312900  1
  C  C1660  1  0.109900  0.388200  0.812900  1
  C  C1661  1  0.548300  0.906900  0.706900  1
  C  C1662  1  0.951700  0.593100  0.206900  1
  C  C1663  1  0.451700  0.093100  0.293100  1
  C  C1664  1  0.048300  0.406900  0.793100  1
  C  C1665  1  0.473800  0.867200  0.721000  1
  C  C1666  1  0.026200  0.632800  0.221000  1
  C  C1667  1  0.526200  0.132800  0.279000  1
  C  C1668  1  0.973800  0.367200  0.779000  1
  C  C1669  1  0.451200  0.813300  0.710300  1
  C  C1670  1  0.048800  0.686700  0.210300  1
  C  C1671  1  0.548800  0.186700  0.289700  1
  C  C1672  1  0.951200  0.313300  0.789700  1
  C  C1673  1  0.482400  0.735800  0.678100  1
  C  C1674  1  0.017600  0.764200  0.178100  1
  C  C1675  1  0.517600  0.264200  0.321900  1
  C  C1676  1  0.982400  0.235800  0.821900  1
  C  C1677  1  0.569600  0.966400  0.717100  1
  C  C1678  1  0.930400  0.533600  0.217100  1
  C  C1679  1  0.430400  0.033600  0.282900  1
  C  C1680  1  0.069600  0.466400  0.782900  1
  C  C1681  1  0.457800  0.753800  0.685900  1
  C  C1682  1  0.042200  0.746200  0.185900  1
  C  C1683  1  0.542200  0.246200  0.314100  1
  C  C1684  1  0.957800  0.253800  0.814100  1
  C  C1685  1  0.422900  0.785100  0.708300  1
  C  C1686  1  0.077100  0.714900  0.208300  1
  C  C1687  1  0.577100  0.214900  0.291700  1
  C  C1688  1  0.922900  0.285100  0.791700  1
  C  C1689  1  0.468200  0.839900  0.714100  1
  C  C1690  1  0.031800  0.660100  0.214100  1
  C  C1691  1  0.531800  0.160100  0.285900  1
  C  C1692  1  0.968200  0.339900  0.785900  1
  C  C1693  1  0.555400  0.863600  0.699200  1
  C  C1694  1  0.944600  0.636400  0.199200  1
  C  C1695  1  0.444600  0.136400  0.300800  1
  C  C1696  1  0.055400  0.363600  0.800800  1
  C  C1697  1  0.582600  0.835300  0.673200  1
  C  C1698  1  0.917400  0.664700  0.173200  1
  C  C1699  1  0.417400  0.164700  0.326800  1
  C  C1700  1  0.082600  0.335300  0.826800  1
  C  C1701  1  0.538600  0.780100  0.668100  1
  C  C1702  1  0.961400  0.719900  0.168100  1
  C  C1703  1  0.461400  0.219900  0.331900  1
  C  C1704  1  0.038600  0.280100  0.831900  1
  C  C1705  1  0.406900  0.694800  0.679000  1
  C  C1706  1  0.093100  0.805200  0.179000  1
  C  C1707  1  0.593100  0.305200  0.321000  1
  C  C1708  1  0.906900  0.194800  0.821000  1
  C  C1709  1  0.604200  0.923500  0.705600  1
  C  C1710  1  0.895800  0.576500  0.205600  1
  C  C1711  1  0.395800  0.076500  0.294400  1
  C  C1712  1  0.104200  0.423500  0.794400  1
  N  N1713  1  0.967330  0.669510  0.803900  1
  N  N1714  1  0.532670  0.830490  0.303900  1
  N  N1715  1  0.032670  0.330490  0.196100  1
  N  N1716  1  0.467330  0.169510  0.696100  1
  N  N1717  1  0.766790  0.636640  0.799930  1
  N  N1718  1  0.733210  0.863360  0.299930  1
  N  N1719  1  0.233210  0.363360  0.200070  1
  N  N1720  1  0.266790  0.136640  0.700070  1
  N  N1721  1  0.773940  0.740430  0.770020  1
  N  N1722  1  0.726060  0.759570  0.270020  1
  N  N1723  1  0.226060  0.259570  0.229980  1
  N  N1724  1  0.273940  0.240430  0.729980  1
  N  N1725  1  0.974740  0.771910  0.771490  1
  N  N1726  1  0.525260  0.728090  0.271490  1
  N  N1727  1  0.025260  0.228090  0.228510  1
  N  N1728  1  0.474740  0.271910  0.728510  1
  N  N1729  1  0.946290  0.700650  0.075360  1
  N  N1730  1  0.553710  0.799350  0.575360  1
  N  N1731  1  0.053710  0.299350  0.924640  1
  N  N1732  1  0.446290  0.200650  0.424640  1
  N  N1733  1  0.932710  0.805180  0.097900  1
  N  N1734  1  0.567290  0.694820  0.597900  1
  N  N1735  1  0.067290  0.194820  0.902100  1
  N  N1736  1  0.432710  0.305180  0.402100  1
  N  N1737  1  0.732520  0.763810  0.095810  1
  N  N1738  1  0.767480  0.736190  0.595810  1
  N  N1739  1  0.267480  0.236190  0.904190  1
  N  N1740  1  0.232520  0.263810  0.404190  1
  N  N1741  1  0.745150  0.658730  0.074600  1
  N  N1742  1  0.754850  0.841270  0.574600  1
  N  N1743  1  0.254850  0.341270  0.925400  1
  N  N1744  1  0.245150  0.158730  0.425400  1
  O  O1745  1  0.327960  0.653970  0.845210  1
  O  O1746  1  0.172040  0.846030  0.345210  1
  O  O1747  1  0.672040  0.346030  0.154790  1
  O  O1748  1  0.827960  0.153970  0.654790  1
  O  O1749  1  0.323200  0.712920  0.019420  1
  O  O1750  1  0.176800  0.787080  0.519420  1
  O  O1751  1  0.676800  0.287080  0.980580  1
  O  O1752  1  0.823200  0.212920  0.480580  1
  O  O1753  1  0.392380  0.854380  0.855600  1
  O  O1754  1  0.107620  0.645620  0.355600  1
  O  O1755  1  0.607620  0.145620  0.144400  1
  O  O1756  1  0.892380  0.354380  0.644400  1
  O  O1757  1  0.361280  0.911660  0.028490  1
  O  O1758  1  0.138720  0.588340  0.528490  1
  O  O1759  1  0.638720  0.088340  0.971510  1
  O  O1760  1  0.861280  0.411660  0.471510  1
