
#######################################################################
#
#                 Cambridge Crystallographic Data Centre
#                                CCDC 
#
#######################################################################
#
# If this CIF has been generated from an entry in the Cambridge 
# Structural Database, then it will include bibliographic, chemical, 
# crystal, experimental, refinement or atomic coordinate data resulting 
# from the CCDC's data processing and validation procedures.
#
#######################################################################

data_NATLUQ
_chemical_formula_moiety         
'C132 H96 N36 Pt6 12+,2(C15 H22 N3 O2),12(N1 O3 1-),33.5(H2 O1)'
_chemical_name_systematic        
"tetrakis(\m~3~-2,4,6-tris(4-Pyridyl)-1,3,5-triazine)-hexakis(2,2'-bipyridine)-hexa-platinum bis(2-(4-dimethylaminophenyl)nitronyl nitroxide) clathrate dodecakis(nitrate) hydrate"
_symmetry_cell_setting           tetragonal
_symmetry_space_group_name_H-M   'P 41 21 2'
_symmetry_Int_Tables_number      92
_space_group_name_Hall           'P 4abw 2nw'
loop_
_symmetry_equiv_pos_site_id
_symmetry_equiv_pos_as_xyz
1 x,y,z
2 -x,-y,1/2+z
3 1/2-y,1/2+x,1/4+z
4 1/2+y,1/2-x,3/4+z
5 1/2-x,1/2+y,1/4-z
6 1/2+x,1/2-y,3/4-z
7 y,x,-z
8 -y,-x,1/2-z
_cell_length_a                   29.0831(9)
_cell_length_b                   29.0831(9)
_cell_length_c                   30.7730(19)
_cell_angle_alpha                90
_cell_angle_beta                 90
_cell_angle_gamma                90
_cell_volume                     26028.6
_exptl_crystal_colour            green
_exptl_crystal_description       block
_cell_formula_units_Z            4
loop_
_atom_site_label
_atom_site_type_symbol
_atom_site_fract_x
_atom_site_fract_y
_atom_site_fract_z
Pt1 Pt 0.989888(18) 0.989888(18) 0.5000
Pt2 Pt 0.822652(19) 0.698328(18) 0.789766(15)
Pt3 Pt 0.552589(19) 0.978530(18) 0.582423(18)
Pt4 Pt 0.536793(18) 0.536793(18) 0.5000
C1 C 0.9712(8) 0.9181(6) 0.5639(8)
H1 H 0.9682 0.9443 0.5821
C2 C 0.9633(6) 0.8734(5) 0.5826(6)
H2 H 0.9570 0.8687 0.6126
C3 C 0.9658(5) 0.8374(5) 0.5521(5)
C4 C 0.9823(6) 0.8456(5) 0.5079(5)
H3 H 0.9873 0.8210 0.4882
C5 C 0.9899(5) 0.8892(5) 0.4965(5)
H4 H 1.0013 0.8951 0.4681
C6 C 0.8618(6) 0.6818(5) 0.7046(4)
H5 H 0.8495 0.6522 0.7106
C7 C 0.8822(5) 0.6891(5) 0.6658(5)
H6 H 0.8836 0.6649 0.6451
C8 C 0.9011(6) 0.7310(5) 0.6559(4)
C9 C 0.8983(6) 0.7648(5) 0.6893(5)
H7 H 0.9123 0.7940 0.6853
C10 C 0.8758(5) 0.7553(5) 0.7266(4)
H8 H 0.8723 0.7788 0.7477
C11 C 0.9559(5) 0.7879(5) 0.5659(5)
C12 C 0.9246(5) 0.7403(5) 0.6154(4)
C13 C 0.9545(5) 0.7136(5) 0.5522(4)
C14 C 0.7500(5) 0.7509(5) 0.7452(4)
H9 H 0.7649 0.7761 0.7589
C15 C 0.7141(5) 0.7588(5) 0.7176(4)
H10 H 0.7034 0.7891 0.7125
C16 C 0.6935(4) 0.7214(4) 0.6971(4)
C17 C 0.7093(5) 0.6791(4) 0.7049(5)
H11 H 0.6968 0.6537 0.6896
C18 C 0.7439(5) 0.6721(5) 0.7355(5)
H12 H 0.7527 0.6418 0.7436
C19 C 0.5508(5) 0.8783(5) 0.5760(5)
H13 H 0.5276 0.8839 0.5550
C20 C 0.5647(5) 0.8334(4) 0.5854(5)
H14 H 0.5520 0.8088 0.5690
C21 C 0.5961(4) 0.8232(4) 0.6175(4)
C22 C 0.6133(6) 0.8615(5) 0.6389(5)
H15 H 0.6343 0.8572 0.6622
C23 C 0.6009(5) 0.9047(5) 0.6275(5)
H16 H 0.6147 0.9298 0.6423
C24 C 0.5910(6) 0.5830(6) 0.5689(5)
H17 H 0.6038 0.5531 0.5722
C25 C 0.6072(6) 0.6181(5) 0.5931(5)
H18 H 0.6302 0.6124 0.6143
C26 C 0.5907(5) 0.6622(4) 0.5875(4)
C27 C 0.5546(6) 0.6686(6) 0.5595(6)
H19 H 0.5401 0.6977 0.5574
C28 C 0.5400(5) 0.6333(6) 0.5351(6)
H20 H 0.5172 0.6383 0.5135
C29 C 0.6581(5) 0.7283(5) 0.6618(5)
C30 C 0.6111(5) 0.7774(5) 0.6263(4)
C31 C 0.6086(4) 0.7004(5) 0.6124(5)
C32 C 0.9863(5) 0.6464(4) 0.4524(5)
H21 H 0.9993 0.6522 0.4247
C33 C 0.9787(5) 0.6812(5) 0.4791(4)
H22 H 0.9844 0.7118 0.4696
C34 C 0.9628(5) 0.6734(5) 0.5207(4)
C35 C 0.9545(5) 0.6288(5) 0.5325(4)
H23 H 0.9438 0.6220 0.5610
C36 C 0.9613(5) 0.5947(5) 0.5041(4)
H24 H 0.9555 0.5640 0.5129
N1 N 0.9825(4) 0.9246(4) 0.5224(4)
N2 N 0.8584(4) 0.7142(3) 0.7344(3)
N3 N 0.9646(4) 0.7548(4) 0.5384(4)
N4 N 0.9337(4) 0.7834(4) 0.6055(4)
N5 N 0.9345(4) 0.7032(3) 0.5906(3)
N6 N 0.7643(4) 0.7084(3) 0.7531(4)
N7 N 0.5708(4) 0.9133(4) 0.5972(4)
N8 N 0.5580(5) 0.5898(4) 0.5412(5)
N9 N 0.6429(4) 0.7722(3) 0.6568(4)
N10 N 0.5931(4) 0.7421(4) 0.6031(4)
N11 N 0.6419(4) 0.6927(3) 0.6410(4)
N12 N 0.9758(3) 0.6026(3) 0.4638(3)
N13 N 1.0545(4) 0.9988(4) 0.5199(4)
C37 C 1.0826(5) 0.9661(5) 0.5397(4)
H25 H 1.0712 0.9359 0.5447
C38 C 1.1268(6) 0.9774(7) 0.5522(6)
H26 H 1.1465 0.9550 0.5647
C39 C 1.1415(7) 1.0213(10) 0.5460(9)
H27 H 1.1702 1.0309 0.5576
C40 C 1.1161(6) 1.0504(7) 0.5241(9)
H28 H 1.1282 1.0798 0.5172
C41 C 1.0731(6) 1.0397(5) 0.5111(6)
N14 N 0.4838(5) 0.5170(5) 0.5354(5)
C42 C 0.4735(9) 0.5321(10) 0.5729(9)
H29 H 0.4922 0.5556 0.5851
C43 C 0.4358(10) 0.5160(12) 0.5977(9)
H30 H 0.4276 0.5282 0.6252
C44 C 0.4125(10) 0.4811(12) 0.5778(13)
H31 H 0.3882 0.4674 0.5938
C45 C 0.4201(10) 0.4656(11) 0.5409(9)
H32 H 0.4002 0.4439 0.5276
C46 C 0.4594(6) 0.4821(7) 0.5201(5)
N15 N 0.7907(4) 0.6781(4) 0.8450(3)
C47 C 0.7437(5) 0.6800(6) 0.8519(5)
H33 H 0.7234 0.6923 0.8308
C48 C 0.7280(7) 0.6632(9) 0.8909(7)
H34 H 0.6959 0.6622 0.8964
C49 C 0.7578(12) 0.6478(15) 0.9217(9)
H35 H 0.7460 0.6372 0.9488
C50 C 0.8036(8) 0.6472(8) 0.9149(6)
H36 H 0.8244 0.6364 0.9364
C51 C 0.8187(6) 0.6629(5) 0.8759(4)
N16 N 0.8776(4) 0.6851(4) 0.8280(4)
C52 C 0.8668(6) 0.6669(6) 0.8661(4)
C53 C 0.9029(8) 0.6517(7) 0.8922(6)
H37 H 0.8961 0.6366 0.9188
C54 C 0.9478(8) 0.6580(9) 0.8807(7)
H38 H 0.9723 0.6481 0.8989
C55 C 0.9563(7) 0.6796(8) 0.8407(7)
H39 H 0.9867 0.6870 0.8319
C56 C 0.9205(5) 0.6896(5) 0.8154(6)
H40 H 0.9263 0.7005 0.7869
N17 N 0.5332(4) 1.0446(4) 0.5738(4)
C57 C 0.5494(6) 1.0713(5) 0.5440(6)
H41 H 0.5708 1.0600 0.5232
C58 C 0.5348(7) 1.1181(6) 0.5429(9)
H42 H 0.5461 1.1383 0.5211
C59 C 0.5065(8) 1.1323(6) 0.5712(9)
H43 H 0.4963 1.1633 0.5697
C60 C 0.4882(7) 1.1016(7) 0.6075(8)
H44 H 0.4678 1.1125 0.6293
C61 C 0.5030(5) 1.0586(6) 0.6061(7)
N18 N 0.5025(4) 0.9829(4) 0.6280(4)
C62 C 0.4868(6) 1.0255(6) 0.6340(6)
C63 C 0.4531(7) 1.0340(10) 0.6664(7)
H45 H 0.4447 1.0644 0.6745
C64 C 0.4336(9) 0.9966(10) 0.6851(8)
H46 H 0.4071 1.0007 0.7028
C65 C 0.4513(8) 0.9515(10) 0.6792(8)
H47 H 0.4399 0.9258 0.6948
C66 C 0.4851(7) 0.9478(8) 0.6500(7)
H48 H 0.4975 0.9181 0.6447
Pt2F Pt 0.698328(18) 0.822652(19) 0.210234(15)
Pt3F Pt 0.978530(18) 0.552589(19) 0.417577(18)
C1F C 0.9181(6) 0.9712(8) 0.4361(8)
H1F H 0.9443 0.9682 0.4179
C2F C 0.8734(5) 0.9633(6) 0.4174(6)
H2F H 0.8687 0.9570 0.3874
C3F C 0.8374(5) 0.9658(5) 0.4479(5)
C4F C 0.8456(5) 0.9823(6) 0.4921(5)
H3F H 0.8210 0.9873 0.5118
C5F C 0.8892(5) 0.9899(5) 0.5035(5)
H4F H 0.8951 1.0013 0.5319
C6F C 0.6818(5) 0.8618(6) 0.2954(4)
H5F H 0.6522 0.8495 0.2894
C7F C 0.6891(5) 0.8822(5) 0.3342(5)
H6F H 0.6649 0.8836 0.3549
C8F C 0.7310(5) 0.9011(6) 0.3441(4)
C9F C 0.7648(5) 0.8983(6) 0.3107(5)
H7F H 0.7940 0.9123 0.3147
C10F C 0.7553(5) 0.8758(5) 0.2734(4)
H8F H 0.7788 0.8723 0.2523
C11F C 0.7879(5) 0.9559(5) 0.4341(5)
C12F C 0.7403(5) 0.9246(5) 0.3846(4)
C13F C 0.7136(5) 0.9545(5) 0.4478(4)
C14F C 0.7509(5) 0.7500(5) 0.2548(4)
H9F H 0.7761 0.7649 0.2411
C15F C 0.7588(5) 0.7141(5) 0.2824(4)
H10F H 0.7891 0.7034 0.2875
C16F C 0.7214(4) 0.6935(4) 0.3029(4)
C17F C 0.6791(4) 0.7093(5) 0.2951(5)
H11F H 0.6537 0.6968 0.3104
C18F C 0.6721(5) 0.7439(5) 0.2645(5)
H12F H 0.6418 0.7527 0.2564
C19F C 0.8783(5) 0.5508(5) 0.4240(5)
H13F H 0.8839 0.5276 0.4450
C20F C 0.8334(4) 0.5647(5) 0.4146(5)
H14F H 0.8088 0.5520 0.4310
C21F C 0.8232(4) 0.5961(4) 0.3825(4)
C22F C 0.8615(5) 0.6133(6) 0.3611(5)
H15F H 0.8572 0.6343 0.3378
C23F C 0.9047(5) 0.6009(5) 0.3725(5)
H16F H 0.9298 0.6147 0.3577
C24F C 0.5830(6) 0.5910(6) 0.4311(5)
H17F H 0.5531 0.6038 0.4278
C25F C 0.6181(5) 0.6072(6) 0.4069(5)
H18F H 0.6124 0.6302 0.3857
C26F C 0.6622(4) 0.5907(5) 0.4125(4)
C27F C 0.6686(6) 0.5546(6) 0.4405(6)
H19F H 0.6977 0.5401 0.4426
C28F C 0.6333(6) 0.5400(5) 0.4649(6)
H20F H 0.6383 0.5172 0.4865
C29F C 0.7283(5) 0.6581(5) 0.3382(5)
C30F C 0.7774(5) 0.6111(5) 0.3737(4)
C31F C 0.7004(5) 0.6086(4) 0.3876(5)
C32F C 0.6464(4) 0.9863(5) 0.5476(5)
H21F H 0.6522 0.9993 0.5753
C33F C 0.6812(5) 0.9787(5) 0.5209(4)
H22F H 0.7118 0.9844 0.5304
C34F C 0.6734(5) 0.9628(5) 0.4793(4)
C35F C 0.6288(5) 0.9545(5) 0.4675(4)
H23F H 0.6220 0.9438 0.4390
C36F C 0.5947(5) 0.9613(5) 0.4959(4)
H24F H 0.5640 0.9555 0.4871
N1F N 0.9246(4) 0.9825(4) 0.4776(4)
N2F N 0.7142(3) 0.8584(4) 0.2656(3)
N3F N 0.7548(4) 0.9646(4) 0.4616(4)
N4F N 0.7834(4) 0.9337(4) 0.3945(4)
N5F N 0.7032(3) 0.9345(4) 0.4094(3)
N6F N 0.7084(3) 0.7643(4) 0.2469(4)
N7F N 0.9133(4) 0.5708(4) 0.4028(4)
N8F N 0.5898(4) 0.5580(5) 0.4588(5)
N9F N 0.7722(3) 0.6429(4) 0.3432(4)
N10F N 0.7421(4) 0.5931(4) 0.3969(4)
N11F N 0.6927(3) 0.6419(4) 0.3590(4)
N12F N 0.6026(3) 0.9758(3) 0.5362(3)
N13F N 0.9988(4) 1.0545(4) 0.4801(4)
C37F C 0.9661(5) 1.0826(5) 0.4603(4)
H25F H 0.9359 1.0712 0.4553
C38F C 0.9774(7) 1.1268(6) 0.4478(6)
H26F H 0.9550 1.1465 0.4353
C39F C 1.0213(10) 1.1415(7) 0.4540(9)
H27F H 1.0309 1.1702 0.4424
C40F C 1.0504(7) 1.1161(6) 0.4759(9)
H28F H 1.0798 1.1282 0.4828
C41F C 1.0397(5) 1.0731(6) 0.4889(6)
N14F N 0.5170(5) 0.4838(5) 0.4646(5)
C42F C 0.5321(10) 0.4735(9) 0.4271(9)
H29F H 0.5556 0.4922 0.4149
C43F C 0.5160(12) 0.4358(10) 0.4023(9)
H30F H 0.5282 0.4276 0.3748
C44F C 0.4811(12) 0.4125(10) 0.4222(13)
H31F H 0.4674 0.3882 0.4062
C45F C 0.4656(11) 0.4201(10) 0.4591(9)
H32F H 0.4439 0.4002 0.4724
C46F C 0.4821(7) 0.4594(6) 0.4799(5)
N15F N 0.6781(4) 0.7907(4) 0.1550(3)
C47F C 0.6800(6) 0.7437(5) 0.1481(5)
H33F H 0.6923 0.7234 0.1692
C48F C 0.6632(9) 0.7280(7) 0.1091(7)
H34F H 0.6622 0.6959 0.1036
C49F C 0.6478(15) 0.7578(12) 0.0783(9)
H35F H 0.6372 0.7460 0.0512
C50F C 0.6472(8) 0.8036(8) 0.0851(6)
H36F H 0.6364 0.8244 0.0636
C51F C 0.6629(5) 0.8187(6) 0.1241(4)
N16F N 0.6851(4) 0.8776(4) 0.1720(4)
C52F C 0.6669(6) 0.8668(6) 0.1339(4)
C53F C 0.6517(7) 0.9029(8) 0.1078(6)
H37F H 0.6366 0.8961 0.0812
C54F C 0.6580(9) 0.9478(8) 0.1193(7)
H38F H 0.6481 0.9723 0.1011
C55F C 0.6796(8) 0.9563(7) 0.1593(7)
H39F H 0.6870 0.9867 0.1681
C56F C 0.6896(5) 0.9205(5) 0.1846(6)
H40F H 0.7005 0.9263 0.2131
N17F N 1.0446(4) 0.5332(4) 0.4262(4)
C57F C 1.0713(5) 0.5494(6) 0.4560(6)
H41F H 1.0600 0.5708 0.4768
C58F C 1.1181(6) 0.5348(7) 0.4571(9)
H42F H 1.1383 0.5461 0.4789
C59F C 1.1323(6) 0.5065(8) 0.4288(9)
H43F H 1.1633 0.4963 0.4303
C60F C 1.1016(7) 0.4882(7) 0.3925(8)
H44F H 1.1125 0.4678 0.3707
C61F C 1.0586(6) 0.5030(5) 0.3939(7)
N18F N 0.9829(4) 0.5025(4) 0.3720(4)
C62F C 1.0255(6) 0.4868(6) 0.3660(6)
C63F C 1.0340(10) 0.4531(7) 0.3336(7)
H45F H 1.0644 0.4447 0.3255
C64F C 0.9966(10) 0.4336(9) 0.3149(8)
H46F H 1.0007 0.4071 0.2972
C65F C 0.9515(10) 0.4513(8) 0.3208(8)
H47F H 0.9258 0.4399 0.3052
C66F C 0.9478(8) 0.4851(7) 0.3500(7)
H48F H 0.9181 0.4975 0.3553
N19 N 0.8773(5) 0.5474(6) 0.6018(5)
O1 O 0.8772(5) 0.5792(4) 0.6265(5)
O2 O 0.8477(4) 0.5153(4) 0.6018(4)
O3 O 0.9126(5) 0.5395(5) 0.5749(5)
N20 N 0.5797(6) 0.8380(7) 0.2115(6)
O4 O 0.5849(5) 0.8758(6) 0.2267(6)
O5 O 0.5842(4) 0.8062(5) 0.2348(4)
O6 O 0.5696(5) 0.8378(7) 0.1749(6)
N21 N 0.9625(11) 0.4474(10) 0.4667(10)
O7 O 0.9224(10) 0.4542(10) 0.4580(12)
O8 O 0.9948(11) 0.4248(9) 0.4500(10)
O9 O 0.9798(15) 0.4725(12) 0.5002(11)
N22 N 1.0768(10) 0.9614(10) 0.4184(9)
O10 O 1.1035(9) 0.9394(10) 0.4405(6)
O11 O 1.0810(9) 1.0033(8) 0.4084(7)
O12 O 1.0341(7) 0.9446(7) 0.4078(6)
N23 N 0.9390(18) 0.9110(15) 0.3004(13)
O13 O 0.9417(12) 0.9399(14) 0.3283(10)
O14 O 0.9126(13) 0.9079(16) 0.2680(12)
O15 O 0.9685(16) 0.8752(19) 0.3003(12)
O16 O 0.867(3) 0.884(3) 0.2346(19)
O17 O 0.9201(12) 0.853(2) 0.2138(16)
O18 O 0.973(2) 0.7486(18) 0.200(2)
O19 O 0.8416(16) 1.0437(15) 0.3355(17)
O20 O 0.6775(8) 0.8767(6) 0.7286(6)
O21 O 0.5815(5) 0.7953(6) 0.3231(4)
O22 O 0.6990(11) 0.6466(8) 0.1962(9)
O23 O 0.5970(13) 0.8335(9) 0.7543(10)
O24 O 0.8204(10) 0.8194(11) 0.1960(11)
O25 O 1.0833(8) 0.8535(10) 0.4621(10)
O26 O 0.7534(9) 1.0278(8) 0.3424(13)
O27 O 0.8577(10) 0.4676(6) 0.5204(7)
O28 O 1.0094(12) 0.7311(14) 0.2510(12)
O29 O 0.7328(15) 0.5873(11) 0.2440(13)
O30 O 0.7226(7) 0.9994(9) 0.2572(8)
O31 O 0.7413(17) 1.214(2) 0.2406(16)
O32 O 0.8271(18) 1.1041(14) 0.4661(15)
O33 O 0.630(3) 1.2623(16) 0.3445(19)
O34 O 0.566(3) 1.294(3) 0.370(2)
O35 O 0.799(2) 1.008(3) 0.1425(17)
O36 O 0.7459(16) 1.0275(17) 0.0873(16)
O37 O 0.7695(10) 1.0469(12) 0.4078(10)
O38 O 0.8303(16) 1.1005(14) 0.1334(13)
O39 O 0.577(2) 1.372(3) 0.125(3)
O40 O 0.8457(11) 0.5102(14) 0.3118(11)
O41 O 0.920(3) 1.321(3) 0.362(3)
O42 O 0.6562(14) 1.3438(14) 0.2500
O43 O 0.6997(16) 0.5401(12) 0.3095(13)
O44 O 0.8829(8) 1.0823(11) 0.3813(14)
O45 O 0.8065(12) 0.9927(18) 0.2233(14)
O46 O 0.8476(15) 0.979(2) 0.2795(19)
O47 O 1.079(3) 0.402(2) 0.4802(13)
N24 N 0.7640(6) 0.8171(7) 0.6168(8)
N25 N 0.8244(6) 0.8282(8) 0.5751(7)
O48 O 0.7296(7) 0.7988(8) 0.6368(9)
O49 O 0.8598(7) 0.8210(9) 0.5509(9)
C67 C 0.7953(5) 0.7469(7) 0.5803(6)
C68 C 0.7737(7) 0.7143(7) 0.6076(7)
H49 H 0.7596 0.7242 0.6339
C69 C 0.7728(8) 0.6683(7) 0.5966(8)
H50 H 0.7585 0.6471 0.6158
C70 C 0.7926(7) 0.6520(7) 0.5576(8)
C71 C 0.8138(7) 0.6852(8) 0.5301(7)
H51 H 0.8270 0.6757 0.5034
C72 C 0.8153(6) 0.7307(8) 0.5416(6)
H52 H 0.8303 0.7519 0.5229
C73 C 0.7950(5) 0.7952(7) 0.5908(6)
C74 C 0.7764(7) 0.8663(7) 0.6241(8)
C75 C 0.8028(10) 0.8680(8) 0.6669(8)
H53 H 0.7817 0.8616 0.6910
H54 H 0.8163 0.8986 0.6707
H55 H 0.8273 0.8449 0.6666
C76 C 0.7330(8) 0.8958(8) 0.6269(11)
H56 H 0.7158 0.8877 0.6531
H57 H 0.7138 0.8903 0.6012
C77 C 0.8068(7) 0.8761(7) 0.5836(8)
C78 C 0.7793(10) 0.8898(8) 0.5431(9)
H58 H 0.8004 0.8954 0.5189
H59 H 0.7617 0.9178 0.5491
H60 H 0.7581 0.8649 0.5353
C79 C 0.8462(8) 0.9090(8) 0.5910(10)
H61 H 0.8633 0.9130 0.5638
H62 H 0.8667 0.8965 0.6133
H63 H 0.8341 0.9387 0.6006
N26 N 0.7907(9) 0.6062(8) 0.5464(9)
C80 C 0.7830(11) 0.5723(7) 0.5807(11)
H64 H 0.7647 0.5862 0.6040
H65 H 0.8126 0.5621 0.5924
H66 H 0.7664 0.5458 0.5688
C81 C 0.8177(10) 0.5901(9) 0.5092(10)
H67 H 0.8210 0.6151 0.4881
H68 H 0.8020 0.5641 0.4955
H69 H 0.8482 0.5804 0.5191
H70 H 0.7146 0.9328 0.6190
loop_
_geom_bond_atom_site_label_1
_geom_bond_atom_site_label_2
_geom_bond_site_symmetry_1
_geom_bond_site_symmetry_2
Pt1 N1 1_555 1_555
Pt2 N2 1_555 1_555
Pt3 N7 1_555 1_555
Pt4 N8 1_555 1_555
C1 H1 1_555 1_555
C2 C1 1_555 1_555
H2 C2 1_555 1_555
C3 C2 1_555 1_555
C4 C3 1_555 1_555
H3 C4 1_555 1_555
C5 C4 1_555 1_555
H4 C5 1_555 1_555
C6 H5 1_555 1_555
C7 C6 1_555 1_555
H6 C7 1_555 1_555
C8 C7 1_555 1_555
C9 C8 1_555 1_555
H7 C9 1_555 1_555
C10 C9 1_555 1_555
H8 C10 1_555 1_555
C11 C3 1_555 1_555
C12 C8 1_555 1_555
C13 C34 1_555 1_555
C14 H9 1_555 1_555
C15 C14 1_555 1_555
H10 C15 1_555 1_555
C16 C15 1_555 1_555
C17 C16 1_555 1_555
H11 C17 1_555 1_555
C18 C17 1_555 1_555
H12 C18 1_555 1_555
C19 H13 1_555 1_555
C20 C19 1_555 1_555
H14 C20 1_555 1_555
C21 C20 1_555 1_555
C22 C21 1_555 1_555
H15 C22 1_555 1_555
C23 C22 1_555 1_555
H16 C23 1_555 1_555
C24 H17 1_555 1_555
C25 C24 1_555 1_555
H18 C25 1_555 1_555
C26 C25 1_555 1_555
C27 C26 1_555 1_555
H19 C27 1_555 1_555
C28 C27 1_555 1_555
H20 C28 1_555 1_555
C29 C16 1_555 1_555
C30 C21 1_555 1_555
C31 C26 1_555 1_555
C32 H21 1_555 1_555
C33 C32 1_555 1_555
H22 C33 1_555 1_555
C34 C33 1_555 1_555
C35 C34 1_555 1_555
H23 C35 1_555 1_555
C36 C35 1_555 1_555
H24 C36 1_555 1_555
N1 C1 1_555 1_555
N2 C6 1_555 1_555
N3 C11 1_555 1_555
N4 C11 1_555 1_555
N5 C12 1_555 1_555
N6 Pt2 1_555 1_555
N7 C19 1_555 1_555
N8 C24 1_555 1_555
N9 C29 1_555 1_555
N10 C30 1_555 1_555
N11 C29 1_555 1_555
N12 C32 1_555 1_555
N13 Pt1 1_555 1_555
C37 N13 1_555 1_555
H25 C37 1_555 1_555
C38 C37 1_555 1_555
H26 C38 1_555 1_555
C39 C38 1_555 1_555
H27 C39 1_555 1_555
C40 C39 1_555 1_555
H28 C40 1_555 1_555
C41 N13 1_555 1_555
N14 Pt4 1_555 1_555
C42 N14 1_555 1_555
H29 C42 1_555 1_555
C43 C42 1_555 1_555
H30 C43 1_555 1_555
C44 C43 1_555 1_555
H31 C44 1_555 1_555
C45 C44 1_555 1_555
H32 C45 1_555 1_555
C46 N14 1_555 1_555
N15 Pt2 1_555 1_555
C47 N15 1_555 1_555
H33 C47 1_555 1_555
C48 C47 1_555 1_555
H34 C48 1_555 1_555
C49 C48 1_555 1_555
H35 C49 1_555 1_555
C50 C49 1_555 1_555
H36 C50 1_555 1_555
C51 N15 1_555 1_555
N16 Pt2 1_555 1_555
C52 C51 1_555 1_555
C53 C52 1_555 1_555
H37 C53 1_555 1_555
C54 C53 1_555 1_555
H38 C54 1_555 1_555
C55 C54 1_555 1_555
H39 C55 1_555 1_555
C56 N16 1_555 1_555
H40 C56 1_555 1_555
N17 Pt3 1_555 1_555
C57 N17 1_555 1_555
H41 C57 1_555 1_555
C58 C57 1_555 1_555
H42 C58 1_555 1_555
C59 C58 1_555 1_555
H43 C59 1_555 1_555
C60 C59 1_555 1_555
H44 C60 1_555 1_555
C61 N17 1_555 1_555
N18 Pt3 1_555 1_555
C62 C61 1_555 1_555
C63 C62 1_555 1_555
H45 C63 1_555 1_555
C64 C63 1_555 1_555
H46 C64 1_555 1_555
C65 C64 1_555 1_555
H47 C65 1_555 1_555
C66 N18 1_555 1_555
H48 C66 1_555 1_555
N19 O1 1_555 1_555
O2 N19 1_555 1_555
O3 N19 1_555 1_555
N20 O4 1_555 1_555
O5 N20 1_555 1_555
O6 N20 1_555 1_555
N21 O7 1_555 1_555
O8 N21 1_555 1_555
O9 N21 1_555 1_555
N22 O10 1_555 1_555
O11 N22 1_555 1_555
O12 N22 1_555 1_555
N23 O13 1_555 1_555
O14 N23 1_555 1_555
O15 N23 1_555 1_555
N24 O48 1_555 1_555
N25 O49 1_555 1_555
C67 C68 1_555 1_555
C68 H49 1_555 1_555
C69 C68 1_555 1_555
H50 C69 1_555 1_555
C70 C69 1_555 1_555
C71 C70 1_555 1_555
H51 C71 1_555 1_555
C72 C67 1_555 1_555
H52 C72 1_555 1_555
C73 N24 1_555 1_555
C74 N24 1_555 1_555
C75 C74 1_555 1_555
H53 C75 1_555 1_555
H54 C75 1_555 1_555
H55 C75 1_555 1_555
C76 C74 1_555 1_555
H56 C76 1_555 1_555
H57 C76 1_555 1_555
C77 N25 1_555 1_555
C78 C77 1_555 1_555
H58 C78 1_555 1_555
H59 C78 1_555 1_555
H60 C78 1_555 1_555
C79 C77 1_555 1_555
H61 C79 1_555 1_555
H62 C79 1_555 1_555
H63 C79 1_555 1_555
N26 C70 1_555 1_555
C80 N26 1_555 1_555
H64 C80 1_555 1_555
H65 C80 1_555 1_555
H66 C80 1_555 1_555
C81 N26 1_555 1_555
H67 C81 1_555 1_555
H68 C81 1_555 1_555
H69 C81 1_555 1_555
H70 C76 1_555 1_555
Pt2F N2F 1_555 1_555
Pt3F N12 1_555 1_555
C1F H1F 1_555 1_555
C2F C1F 1_555 1_555
H2F C2F 1_555 1_555
C3F C2F 1_555 1_555
C4F C3F 1_555 1_555
H3F C4F 1_555 1_555
C5F C4F 1_555 1_555
H4F C5F 1_555 1_555
C6F H5F 1_555 1_555
C7F C6F 1_555 1_555
H6F C7F 1_555 1_555
C8F C7F 1_555 1_555
C9F C8F 1_555 1_555
H7F C9F 1_555 1_555
C10F C9F 1_555 1_555
H8F C10F 1_555 1_555
C11F C3F 1_555 1_555
C12F C8F 1_555 1_555
C13F C34F 1_555 1_555
C14F H9F 1_555 1_555
C15F C14F 1_555 1_555
H10F C15F 1_555 1_555
C16F C15F 1_555 1_555
C17F C16F 1_555 1_555
H11F C17F 1_555 1_555
C18F C17F 1_555 1_555
H12F C18F 1_555 1_555
C19F H13F 1_555 1_555
C20F C19F 1_555 1_555
H14F C20F 1_555 1_555
C21F C20F 1_555 1_555
C22F C21F 1_555 1_555
H15F C22F 1_555 1_555
C23F C22F 1_555 1_555
H16F C23F 1_555 1_555
C24F H17F 1_555 1_555
C25F C24F 1_555 1_555
H18F C25F 1_555 1_555
C26F C25F 1_555 1_555
C27F C26F 1_555 1_555
H19F C27F 1_555 1_555
C28F C27F 1_555 1_555
H20F C28F 1_555 1_555
C29F C16F 1_555 1_555
C30F C21F 1_555 1_555
C31F C26F 1_555 1_555
C32F H21F 1_555 1_555
C33F C32F 1_555 1_555
H22F C33F 1_555 1_555
C34F C33F 1_555 1_555
C35F C34F 1_555 1_555
H23F C35F 1_555 1_555
C36F C35F 1_555 1_555
H24F C36F 1_555 1_555
N1F Pt1 1_555 1_555
N2F C6F 1_555 1_555
N3F C11F 1_555 1_555
N4F C11F 1_555 1_555
N5F C12F 1_555 1_555
N6F Pt2F 1_555 1_555
N7F Pt3F 1_555 1_555
N8F Pt4 1_555 1_555
N9F C29F 1_555 1_555
N10F C30F 1_555 1_555
N11F C29F 1_555 1_555
N12F Pt3 1_555 1_555
N13F Pt1 1_555 1_555
C37F N13F 1_555 1_555
H25F C37F 1_555 1_555
C38F C37F 1_555 1_555
H26F C38F 1_555 1_555
C39F C38F 1_555 1_555
H27F C39F 1_555 1_555
C40F C39F 1_555 1_555
H28F C40F 1_555 1_555
C41F C41 1_555 1_555
N14F Pt4 1_555 1_555
C42F N14F 1_555 1_555
H29F C42F 1_555 1_555
C43F C42F 1_555 1_555
H30F C43F 1_555 1_555
C44F C43F 1_555 1_555
H31F C44F 1_555 1_555
C45F C44F 1_555 1_555
H32F C45F 1_555 1_555
C46F C46 1_555 1_555
N15F Pt2F 1_555 1_555
C47F N15F 1_555 1_555
H33F C47F 1_555 1_555
C48F C47F 1_555 1_555
H34F C48F 1_555 1_555
C49F C48F 1_555 1_555
H35F C49F 1_555 1_555
C50F C49F 1_555 1_555
H36F C50F 1_555 1_555
C51F N15F 1_555 1_555
N16F Pt2F 1_555 1_555
C52F C51F 1_555 1_555
C53F C52F 1_555 1_555
H37F C53F 1_555 1_555
C54F C53F 1_555 1_555
H38F C54F 1_555 1_555
C55F C54F 1_555 1_555
H39F C55F 1_555 1_555
C56F N16F 1_555 1_555
H40F C56F 1_555 1_555
N17F Pt3F 1_555 1_555
C57F N17F 1_555 1_555
H41F C57F 1_555 1_555
C58F C57F 1_555 1_555
H42F C58F 1_555 1_555
C59F C58F 1_555 1_555
H43F C59F 1_555 1_555
C60F C59F 1_555 1_555
H44F C60F 1_555 1_555
C61F N17F 1_555 1_555
N18F Pt3F 1_555 1_555
C62F C61F 1_555 1_555
C63F C62F 1_555 1_555
H45F C63F 1_555 1_555
C64F C63F 1_555 1_555
H46F C64F 1_555 1_555
C65F C64F 1_555 1_555
H47F C65F 1_555 1_555
C66F N18F 1_555 1_555
H48F C66F 1_555 1_555
C5 N1 1_555 1_555
C10 N2 1_555 1_555
C12 N4 1_555 1_555
C13 N3 1_555 1_555
C13 N5 1_555 1_555
C14 N6 1_555 1_555
C18 N6 1_555 1_555
C23 N7 1_555 1_555
C28 N8 1_555 1_555
C30 N9 1_555 1_555
C31 N10 1_555 1_555
C31 N11 1_555 1_555
C36 N12 1_555 1_555
C40 C41 1_555 1_555
C45 C46 1_555 1_555
C50 C51 1_555 1_555
N16 C52 1_555 1_555
C55 C56 1_555 1_555
C60 C61 1_555 1_555
N18 C62 1_555 1_555
C65 C66 1_555 1_555
N25 C73 1_555 1_555
C67 C73 1_555 1_555
C71 C72 1_555 1_555
C74 C77 1_555 1_555
C1F N1F 1_555 1_555
C5F N1F 1_555 1_555
C10F N2F 1_555 1_555
C12F N4F 1_555 1_555
C13F N3F 1_555 1_555
C13F N5F 1_555 1_555
C14F N6F 1_555 1_555
C18F N6F 1_555 1_555
C19F N7F 1_555 1_555
C23F N7F 1_555 1_555
C24F N8F 1_555 1_555
C28F N8F 1_555 1_555
C30F N9F 1_555 1_555
C31F N10F 1_555 1_555
C31F N11F 1_555 1_555
C32F N12F 1_555 1_555
C36F N12F 1_555 1_555
N13F C41F 1_555 1_555
C40F C41F 1_555 1_555
N14F C46F 1_555 1_555
C45F C46F 1_555 1_555
C50F C51F 1_555 1_555
N16F C52F 1_555 1_555
C55F C56F 1_555 1_555
C60F C61F 1_555 1_555
N18F C62F 1_555 1_555
C65F C66F 1_555 1_555

#END
