# generated using pymatgen
data_H184Pt6C192N58O105
_symmetry_space_group_name_H-M   'P 1'
_cell_length_a   29.08310000
_cell_length_b   29.08310000
_cell_length_c   30.77300000
_cell_angle_alpha   90.00000000
_cell_angle_beta   90.00000000
_cell_angle_gamma   90.00000000
_symmetry_Int_Tables_number   1
_chemical_formula_structural   H184Pt6C192N58O105
_chemical_formula_sum   'H736 Pt24 C768 N232 O420'
_cell_volume   26028.62521174
_cell_formula_units_Z   4
loop_
 _symmetry_equiv_pos_site_id
 _symmetry_equiv_pos_as_xyz
  1  'x, y, z'
loop_
 _atom_site_type_symbol
 _atom_site_label
 _atom_site_symmetry_multiplicity
 _atom_site_fract_x
 _atom_site_fract_y
 _atom_site_fract_z
 _atom_site_occupancy
  H  H1  1  0.759600  0.724200  0.633900  1
  H  H2  1  0.240400  0.275800  0.133900  1
  H  H3  1  0.775800  0.259600  0.883900  1
  H  H4  1  0.224200  0.740400  0.383900  1
  H  H5  1  0.740400  0.224200  0.616100  1
  H  H6  1  0.259600  0.775800  0.116100  1
  H  H7  1  0.724200  0.759600  0.366100  1
  H  H8  1  0.275800  0.240400  0.866100  1
  H  H9  1  0.758500  0.647100  0.615800  1
  H  H10  1  0.241500  0.352900  0.115800  1
  H  H11  1  0.852900  0.258500  0.865800  1
  H  H12  1  0.147100  0.741500  0.365800  1
  H  H13  1  0.741500  0.147100  0.634200  1
  H  H14  1  0.258500  0.852900  0.134200  1
  H  H15  1  0.647100  0.758500  0.384200  1
  H  H16  1  0.352900  0.241500  0.884200  1
  H  H17  1  0.827000  0.675700  0.503400  1
  H  H18  1  0.173000  0.324300  0.003400  1
  H  H19  1  0.824300  0.327000  0.753400  1
  H  H20  1  0.175700  0.673000  0.253400  1
  H  H21  1  0.673000  0.175700  0.746600  1
  H  H22  1  0.327000  0.824300  0.246600  1
  H  H23  1  0.675700  0.827000  0.496600  1
  H  H24  1  0.324300  0.173000  0.996600  1
  H  H25  1  0.830300  0.751900  0.522900  1
  H  H26  1  0.169700  0.248100  0.022900  1
  H  H27  1  0.748100  0.330300  0.772900  1
  H  H28  1  0.251900  0.669700  0.272900  1
  H  H29  1  0.669700  0.251900  0.727100  1
  H  H30  1  0.330300  0.748100  0.227100  1
  H  H31  1  0.751900  0.830300  0.477100  1
  H  H32  1  0.248100  0.169700  0.977100  1
  H  H33  1  0.781700  0.861600  0.691000  1
  H  H34  1  0.218300  0.138400  0.191000  1
  H  H35  1  0.638400  0.281700  0.941000  1
  H  H36  1  0.361600  0.718300  0.441000  1
  H  H37  1  0.718300  0.361600  0.559000  1
  H  H38  1  0.281700  0.638400  0.059000  1
  H  H39  1  0.861600  0.781700  0.309000  1
  H  H40  1  0.138400  0.218300  0.809000  1
  H  H41  1  0.816300  0.898600  0.670700  1
  H  H42  1  0.183700  0.101400  0.170700  1
  H  H43  1  0.601400  0.316300  0.920700  1
  H  H44  1  0.398600  0.683700  0.420700  1
  H  H45  1  0.683700  0.398600  0.579300  1
  H  H46  1  0.316300  0.601400  0.079300  1
  H  H47  1  0.898600  0.816300  0.329300  1
  H  H48  1  0.101400  0.183700  0.829300  1
  H  H49  1  0.827300  0.844900  0.666667  1
  H  H50  1  0.172700  0.155100  0.166667  1
  H  H51  1  0.655100  0.327300  0.916667  1
  H  H52  1  0.344900  0.672700  0.416667  1
  H  H53  1  0.672700  0.344900  0.583333  1
  H  H54  1  0.327300  0.655100  0.083333  1
  H  H55  1  0.844900  0.827300  0.333333  1
  H  H56  1  0.155100  0.172700  0.833333  1
  H  H57  1  0.715800  0.887700  0.653100  1
  H  H58  1  0.284200  0.112300  0.153100  1
  H  H59  1  0.612300  0.215800  0.903100  1
  H  H60  1  0.387700  0.784200  0.403100  1
  H  H61  1  0.784200  0.387700  0.596900  1
  H  H62  1  0.215800  0.612300  0.096900  1
  H  H63  1  0.887700  0.715800  0.346900  1
  H  H64  1  0.112300  0.284200  0.846900  1
  H  H65  1  0.713800  0.890300  0.601200  1
  H  H66  1  0.286200  0.109700  0.101200  1
  H  H67  1  0.609700  0.213800  0.851200  1
  H  H68  1  0.390300  0.786200  0.351200  1
  H  H69  1  0.786200  0.390300  0.648800  1
  H  H70  1  0.213800  0.609700  0.148800  1
  H  H71  1  0.890300  0.713800  0.398800  1
  H  H72  1  0.109700  0.286200  0.898800  1
  H  H73  1  0.800400  0.895400  0.518900  1
  H  H74  1  0.199600  0.104600  0.018900  1
  H  H75  1  0.604600  0.300400  0.768900  1
  H  H76  1  0.395400  0.699600  0.268900  1
  H  H77  1  0.699600  0.395400  0.731100  1
  H  H78  1  0.300400  0.604600  0.231100  1
  H  H79  1  0.895400  0.800400  0.481100  1
  H  H80  1  0.104600  0.199600  0.981100  1
  H  H81  1  0.761700  0.917800  0.549100  1
  H  H82  1  0.238300  0.082200  0.049100  1
  H  H83  1  0.582200  0.261700  0.799100  1
  H  H84  1  0.417800  0.738300  0.299100  1
  H  H85  1  0.738300  0.417800  0.700900  1
  H  H86  1  0.261700  0.582200  0.200900  1
  H  H87  1  0.917800  0.761700  0.450900  1
  H  H88  1  0.082200  0.238300  0.950900  1
  H  H89  1  0.758100  0.864900  0.535300  1
  H  H90  1  0.241900  0.135100  0.035300  1
  H  H91  1  0.635100  0.258100  0.785300  1
  H  H92  1  0.364900  0.741900  0.285300  1
  H  H93  1  0.741900  0.364900  0.714700  1
  H  H94  1  0.258100  0.635100  0.214700  1
  H  H95  1  0.864900  0.758100  0.464700  1
  H  H96  1  0.135100  0.241900  0.964700  1
  H  H97  1  0.863300  0.913000  0.563800  1
  H  H98  1  0.136700  0.087000  0.063800  1
  H  H99  1  0.587000  0.363300  0.813800  1
  H  H100  1  0.413000  0.636700  0.313800  1
  H  H101  1  0.636700  0.413000  0.686200  1
  H  H102  1  0.363300  0.587000  0.186200  1
  H  H103  1  0.913000  0.863300  0.436200  1
  H  H104  1  0.087000  0.136700  0.936200  1
  H  H105  1  0.866700  0.896500  0.613300  1
  H  H106  1  0.133300  0.103500  0.113300  1
  H  H107  1  0.603500  0.366700  0.863300  1
  H  H108  1  0.396500  0.633300  0.363300  1
  H  H109  1  0.633300  0.396500  0.636700  1
  H  H110  1  0.366700  0.603500  0.136700  1
  H  H111  1  0.896500  0.866700  0.386700  1
  H  H112  1  0.103500  0.133300  0.886700  1
  H  H113  1  0.834100  0.938700  0.600600  1
  H  H114  1  0.165900  0.061300  0.100600  1
  H  H115  1  0.561300  0.334100  0.850600  1
  H  H116  1  0.438700  0.665900  0.350600  1
  H  H117  1  0.665900  0.438700  0.649400  1
  H  H118  1  0.334100  0.561300  0.149400  1
  H  H119  1  0.938700  0.834100  0.399400  1
  H  H120  1  0.061300  0.165900  0.899400  1
  H  H121  1  0.764700  0.586200  0.604000  1
  H  H122  1  0.235300  0.413800  0.104000  1
  H  H123  1  0.913800  0.264700  0.854000  1
  H  H124  1  0.086200  0.735300  0.354000  1
  H  H125  1  0.735300  0.086200  0.646000  1
  H  H126  1  0.264700  0.913800  0.146000  1
  H  H127  1  0.586200  0.764700  0.396000  1
  H  H128  1  0.413800  0.235300  0.896000  1
  H  H129  1  0.812600  0.562100  0.592400  1
  H  H130  1  0.187400  0.437900  0.092400  1
  H  H131  1  0.937900  0.312600  0.842400  1
  H  H132  1  0.062100  0.687400  0.342400  1
  H  H133  1  0.687400  0.062100  0.657600  1
  H  H134  1  0.312600  0.937900  0.157600  1
  H  H135  1  0.562100  0.812600  0.407600  1
  H  H136  1  0.437900  0.187400  0.907600  1
  H  H137  1  0.766400  0.545800  0.568800  1
  H  H138  1  0.233600  0.454200  0.068800  1
  H  H139  1  0.954200  0.266400  0.818800  1
  H  H140  1  0.045800  0.733600  0.318800  1
  H  H141  1  0.733600  0.045800  0.681200  1
  H  H142  1  0.266400  0.954200  0.181200  1
  H  H143  1  0.545800  0.766400  0.431200  1
  H  H144  1  0.454200  0.233600  0.931200  1
  H  H145  1  0.821000  0.615100  0.488100  1
  H  H146  1  0.179000  0.384900  0.988100  1
  H  H147  1  0.884900  0.321000  0.738100  1
  H  H148  1  0.115100  0.679000  0.238100  1
  H  H149  1  0.679000  0.115100  0.761900  1
  H  H150  1  0.321000  0.884900  0.261900  1
  H  H151  1  0.615100  0.821000  0.511900  1
  H  H152  1  0.384900  0.179000  0.011900  1
  H  H153  1  0.802000  0.564100  0.495500  1
  H  H154  1  0.198000  0.435900  0.995500  1
  H  H155  1  0.935900  0.302000  0.745500  1
  H  H156  1  0.064100  0.698000  0.245500  1
  H  H157  1  0.698000  0.064100  0.754500  1
  H  H158  1  0.302000  0.935900  0.254500  1
  H  H159  1  0.564100  0.802000  0.504500  1
  H  H160  1  0.435900  0.198000  0.004500  1
  H  H161  1  0.848200  0.580400  0.519100  1
  H  H162  1  0.151800  0.419600  0.019100  1
  H  H163  1  0.919600  0.348200  0.769100  1
  H  H164  1  0.080400  0.651800  0.269100  1
  H  H165  1  0.651800  0.080400  0.730900  1
  H  H166  1  0.348200  0.919600  0.230900  1
  H  H167  1  0.580400  0.848200  0.480900  1
  H  H168  1  0.419600  0.151800  0.980900  1
  H  H169  1  0.714600  0.932800  0.619000  1
  H  H170  1  0.285400  0.067200  0.119000  1
  H  H171  1  0.567200  0.214600  0.869000  1
  H  H172  1  0.432800  0.785400  0.369000  1
  H  H173  1  0.785400  0.432800  0.631000  1
  H  H174  1  0.214600  0.567200  0.131000  1
  H  H175  1  0.932800  0.714600  0.381000  1
  H  H176  1  0.067200  0.285400  0.881000  1
  H  H177  1  0.741700  0.928400  0.628000  1
  H  H178  1  0.258300  0.071600  0.128000  1
  H  H179  1  0.571600  0.241700  0.878000  1
  H  H180  1  0.428400  0.758300  0.378000  1
  H  H181  1  0.758300  0.428400  0.622000  1
  H  H182  1  0.241700  0.571600  0.122000  1
  H  H183  1  0.928400  0.741700  0.372000  1
  H  H184  1  0.071600  0.258300  0.872000  1
  H  H185  1  0.817300  0.763200  0.630200  1
  H  H186  1  0.182700  0.236800  0.130200  1
  H  H187  1  0.736800  0.317300  0.880200  1
  H  H188  1  0.263200  0.682700  0.380200  1
  H  H189  1  0.682700  0.263200  0.619800  1
  H  H190  1  0.317300  0.736800  0.119800  1
  H  H191  1  0.763200  0.817300  0.369800  1
  H  H192  1  0.236800  0.182700  0.869800  1
  H  H193  1  0.817400  0.832500  0.666900  1
  H  H194  1  0.182600  0.167500  0.166900  1
  H  H195  1  0.667500  0.317400  0.916900  1
  H  H196  1  0.332500  0.682600  0.416900  1
  H  H197  1  0.682600  0.332500  0.583100  1
  H  H198  1  0.317400  0.667500  0.083100  1
  H  H199  1  0.832500  0.817400  0.333100  1
  H  H200  1  0.167500  0.182600  0.833100  1
  H  H201  1  0.710100  0.876600  0.592400  1
  H  H202  1  0.289900  0.123400  0.092400  1
  H  H203  1  0.623400  0.210100  0.842400  1
  H  H204  1  0.376600  0.789900  0.342400  1
  H  H205  1  0.789900  0.376600  0.657600  1
  H  H206  1  0.210100  0.623400  0.157600  1
  H  H207  1  0.876600  0.710100  0.407600  1
  H  H208  1  0.123400  0.289900  0.907600  1
  H  H209  1  0.708600  0.806600  0.557800  1
  H  H210  1  0.291400  0.193400  0.057800  1
  H  H211  1  0.693400  0.208600  0.807800  1
  H  H212  1  0.306600  0.791400  0.307800  1
  H  H213  1  0.791400  0.306600  0.692200  1
  H  H214  1  0.208600  0.693400  0.192200  1
  H  H215  1  0.806600  0.708600  0.442200  1
  H  H216  1  0.193400  0.291400  0.942200  1
  H  H217  1  0.807500  0.618700  0.587500  1
  H  H218  1  0.192500  0.381300  0.087500  1
  H  H219  1  0.881300  0.307500  0.837500  1
  H  H220  1  0.118700  0.692500  0.337500  1
  H  H221  1  0.692500  0.118700  0.662500  1
  H  H222  1  0.307500  0.881300  0.162500  1
  H  H223  1  0.618700  0.807500  0.412500  1
  H  H224  1  0.381300  0.192500  0.912500  1
  H  H225  1  0.765100  0.599200  0.560000  1
  H  H226  1  0.234900  0.400800  0.060000  1
  H  H227  1  0.900800  0.265100  0.810000  1
  H  H228  1  0.099200  0.734900  0.310000  1
  H  H229  1  0.734900  0.099200  0.690000  1
  H  H230  1  0.265100  0.900800  0.190000  1
  H  H231  1  0.599200  0.765100  0.440000  1
  H  H232  1  0.400800  0.234900  0.940000  1
  H  H233  1  0.757100  0.639500  0.594600  1
  H  H234  1  0.242900  0.360500  0.094600  1
  H  H235  1  0.860500  0.257100  0.844600  1
  H  H236  1  0.139500  0.742900  0.344600  1
  H  H237  1  0.742900  0.139500  0.655400  1
  H  H238  1  0.257100  0.860500  0.155400  1
  H  H239  1  0.639500  0.757100  0.405400  1
  H  H240  1  0.360500  0.242900  0.905400  1
  H  H241  1  0.853400  0.637800  0.526500  1
  H  H242  1  0.146600  0.362200  0.026500  1
  H  H243  1  0.862200  0.353400  0.776500  1
  H  H244  1  0.137800  0.646600  0.276500  1
  H  H245  1  0.646600  0.137800  0.723500  1
  H  H246  1  0.353400  0.862200  0.223500  1
  H  H247  1  0.637800  0.853400  0.473500  1
  H  H248  1  0.362200  0.146600  0.973500  1
  H  H249  1  0.836100  0.672100  0.489300  1
  H  H250  1  0.163900  0.327900  0.989300  1
  H  H251  1  0.827900  0.336100  0.739300  1
  H  H252  1  0.172100  0.663900  0.239300  1
  H  H253  1  0.663900  0.172100  0.760700  1
  H  H254  1  0.336100  0.827900  0.260700  1
  H  H255  1  0.672100  0.836100  0.510700  1
  H  H256  1  0.327900  0.163900  0.010700  1
  H  H257  1  0.817100  0.620500  0.491000  1
  H  H258  1  0.182900  0.379500  0.991000  1
  H  H259  1  0.879500  0.317100  0.741000  1
  H  H260  1  0.120500  0.682900  0.241000  1
  H  H261  1  0.682900  0.120500  0.759000  1
  H  H262  1  0.317100  0.879500  0.259000  1
  H  H263  1  0.620500  0.817100  0.509000  1
  H  H264  1  0.379500  0.182900  0.009000  1
  H  H265  1  0.777400  0.724300  0.472800  1
  H  H266  1  0.222600  0.275700  0.972800  1
  H  H267  1  0.775700  0.277400  0.722800  1
  H  H268  1  0.224300  0.722600  0.222800  1
  H  H269  1  0.722600  0.224300  0.777200  1
  H  H270  1  0.277400  0.775700  0.277200  1
  H  H271  1  0.724300  0.777400  0.527200  1
  H  H272  1  0.275700  0.222600  0.027200  1
  H  H273  1  0.725500  0.715000  0.458000  1
  H  H274  1  0.274500  0.285000  0.958000  1
  H  H275  1  0.785000  0.225500  0.708000  1
  H  H276  1  0.215000  0.774500  0.208000  1
  H  H277  1  0.774500  0.215000  0.792000  1
  H  H278  1  0.225500  0.785000  0.292000  1
  H  H279  1  0.715000  0.725500  0.542000  1
  H  H280  1  0.285000  0.274500  0.042000  1
  H  H281  1  0.764400  0.677500  0.448300  1
  H  H282  1  0.235600  0.322500  0.948300  1
  H  H283  1  0.822500  0.264400  0.698300  1
  H  H284  1  0.177500  0.735600  0.198300  1
  H  H285  1  0.735600  0.177500  0.801700  1
  H  H286  1  0.264400  0.822500  0.301700  1
  H  H287  1  0.677500  0.764400  0.551700  1
  H  H288  1  0.322500  0.235600  0.051700  1
  H  H289  1  0.680900  0.653800  0.492200  1
  H  H290  1  0.319100  0.346200  0.992200  1
  H  H291  1  0.846200  0.180900  0.742200  1
  H  H292  1  0.153800  0.819100  0.242200  1
  H  H293  1  0.819100  0.153800  0.757800  1
  H  H294  1  0.180900  0.846200  0.257800  1
  H  H295  1  0.653800  0.680900  0.507800  1
  H  H296  1  0.346200  0.319100  0.007800  1
  H  H297  1  0.697000  0.631200  0.537000  1
  H  H298  1  0.303000  0.368800  0.037000  1
  H  H299  1  0.868800  0.197000  0.787000  1
  H  H300  1  0.131200  0.803000  0.287000  1
  H  H301  1  0.803000  0.131200  0.713000  1
  H  H302  1  0.197000  0.868800  0.213000  1
  H  H303  1  0.631200  0.697000  0.463000  1
  H  H304  1  0.368800  0.303000  0.963000  1
  H  H305  1  0.719800  0.614900  0.492300  1
  H  H306  1  0.280200  0.385100  0.992300  1
  H  H307  1  0.885100  0.219800  0.742300  1
  H  H308  1  0.114900  0.780200  0.242300  1
  H  H309  1  0.780200  0.114900  0.757700  1
  H  H310  1  0.219800  0.885100  0.257700  1
  H  H311  1  0.614900  0.719800  0.507700  1
  H  H312  1  0.385100  0.280200  0.007700  1
  H  H313  1  0.811700  0.884300  0.699500  1
  H  H314  1  0.188300  0.115700  0.199500  1
  H  H315  1  0.615700  0.311700  0.949500  1
  H  H316  1  0.384300  0.688300  0.449500  1
  H  H317  1  0.688300  0.384300  0.550500  1
  H  H318  1  0.311700  0.615700  0.050500  1
  H  H319  1  0.884300  0.811700  0.300500  1
  H  H320  1  0.115700  0.188300  0.800500  1
  H  H321  1  0.764400  0.901200  0.720700  1
  H  H322  1  0.235600  0.098800  0.220700  1
  H  H323  1  0.598800  0.264400  0.970700  1
  H  H324  1  0.401200  0.735600  0.470700  1
  H  H325  1  0.735600  0.401200  0.529300  1
  H  H326  1  0.264400  0.598800  0.029300  1
  H  H327  1  0.901200  0.764400  0.279300  1
  H  H328  1  0.098800  0.235600  0.779300  1
  H  H329  1  0.800200  0.938000  0.702000  1
  H  H330  1  0.199800  0.062000  0.202000  1
  H  H331  1  0.562000  0.300200  0.952000  1
  H  H332  1  0.438000  0.699800  0.452000  1
  H  H333  1  0.699800  0.438000  0.548000  1
  H  H334  1  0.300200  0.562000  0.048000  1
  H  H335  1  0.938000  0.800200  0.298000  1
  H  H336  1  0.062000  0.199800  0.798000  1
  H  H337  1  0.738800  0.968700  0.651100  1
  H  H338  1  0.261200  0.031300  0.151100  1
  H  H339  1  0.531300  0.238800  0.901100  1
  H  H340  1  0.468700  0.761200  0.401100  1
  H  H341  1  0.761200  0.468700  0.598900  1
  H  H342  1  0.238800  0.531300  0.098900  1
  H  H343  1  0.968700  0.738800  0.348900  1
  H  H344  1  0.031300  0.261200  0.848900  1
  H  H345  1  0.703000  0.931900  0.669800  1
  H  H346  1  0.297000  0.068100  0.169800  1
  H  H347  1  0.568100  0.203000  0.919800  1
  H  H348  1  0.431900  0.797000  0.419800  1
  H  H349  1  0.797000  0.431900  0.580200  1
  H  H350  1  0.203000  0.568100  0.080200  1
  H  H351  1  0.931900  0.703000  0.330200  1
  H  H352  1  0.068100  0.297000  0.830200  1
  H  H353  1  0.968200  0.944300  0.582100  1.0
  H  H354  1  0.031800  0.055700  0.082100  1.0
  H  H355  1  0.555700  0.468200  0.832100  1.0
  H  H356  1  0.444300  0.531800  0.332100  1.0
  H  H357  1  0.531800  0.444300  0.667900  1.0
  H  H358  1  0.468200  0.555700  0.167900  1.0
  H  H359  1  0.944300  0.968200  0.417900  1.0
  H  H360  1  0.055700  0.031800  0.917900  1.0
  H  H361  1  0.957000  0.868700  0.612600  1.0
  H  H362  1  0.043000  0.131300  0.112600  1.0
  H  H363  1  0.631300  0.457000  0.862600  1.0
  H  H364  1  0.368700  0.543000  0.362600  1.0
  H  H365  1  0.543000  0.368700  0.637400  1.0
  H  H366  1  0.457000  0.631300  0.137400  1.0
  H  H367  1  0.868700  0.957000  0.387400  1.0
  H  H368  1  0.131300  0.043000  0.887400  1.0
  H  H369  1  0.987300  0.821000  0.488200  1.0
  H  H370  1  0.012700  0.179000  0.988200  1.0
  H  H371  1  0.679000  0.487300  0.738200  1.0
  H  H372  1  0.321000  0.512700  0.238200  1.0
  H  H373  1  0.512700  0.321000  0.761800  1.0
  H  H374  1  0.487300  0.679000  0.261800  1.0
  H  H375  1  0.821000  0.987300  0.511800  1.0
  H  H376  1  0.179000  0.012700  0.011800  1.0
  H  H377  1  0.001300  0.895100  0.468100  1.0
  H  H378  1  0.998700  0.104900  0.968100  1.0
  H  H379  1  0.604900  0.501300  0.718100  1.0
  H  H380  1  0.395100  0.498700  0.218100  1.0
  H  H381  1  0.498700  0.395100  0.781900  1.0
  H  H382  1  0.501300  0.604900  0.281900  1.0
  H  H383  1  0.895100  0.001300  0.531900  1.0
  H  H384  1  0.104900  0.998700  0.031900  1.0
  H  H385  1  0.849500  0.652200  0.710600  1.0
  H  H386  1  0.150500  0.347800  0.210600  1.0
  H  H387  1  0.847800  0.349500  0.960600  1.0
  H  H388  1  0.152200  0.650500  0.460600  1.0
  H  H389  1  0.650500  0.152200  0.539400  1.0
  H  H390  1  0.349500  0.847800  0.039400  1.0
  H  H391  1  0.652200  0.849500  0.289400  1.0
  H  H392  1  0.347800  0.150500  0.789400  1.0
  H  H393  1  0.883600  0.664900  0.645100  1.0
  H  H394  1  0.116400  0.335100  0.145100  1.0
  H  H395  1  0.835100  0.383600  0.895100  1.0
  H  H396  1  0.164900  0.616400  0.395100  1.0
  H  H397  1  0.616400  0.164900  0.604900  1.0
  H  H398  1  0.383600  0.835100  0.104900  1.0
  H  H399  1  0.664900  0.883600  0.354900  1.0
  H  H400  1  0.335100  0.116400  0.854900  1.0
  H  H401  1  0.912300  0.794000  0.685300  1.0
  H  H402  1  0.087700  0.206000  0.185300  1.0
  H  H403  1  0.706000  0.412300  0.935300  1.0
  H  H404  1  0.294000  0.587700  0.435300  1.0
  H  H405  1  0.587700  0.294000  0.564700  1.0
  H  H406  1  0.412300  0.706000  0.064700  1.0
  H  H407  1  0.794000  0.912300  0.314700  1.0
  H  H408  1  0.206000  0.087700  0.814700  1.0
  H  H409  1  0.872300  0.778800  0.747700  1.0
  H  H410  1  0.127700  0.221200  0.247700  1.0
  H  H411  1  0.721200  0.372300  0.997700  1.0
  H  H412  1  0.278800  0.627700  0.497700  1.0
  H  H413  1  0.627700  0.278800  0.502300  1.0
  H  H414  1  0.372300  0.721200  0.002300  1.0
  H  H415  1  0.778800  0.872300  0.252300  1.0
  H  H416  1  0.221200  0.127700  0.752300  1.0
  H  H417  1  0.764900  0.776100  0.758900  1.0
  H  H418  1  0.235100  0.223900  0.258900  1.0
  H  H419  1  0.723900  0.264900  0.008900  1.0
  H  H420  1  0.276100  0.735100  0.508900  1.0
  H  H421  1  0.735100  0.276100  0.491100  1.0
  H  H422  1  0.264900  0.723900  0.991100  1.0
  H  H423  1  0.776100  0.764900  0.241100  1.0
  H  H424  1  0.223900  0.235100  0.741100  1.0
  H  H425  1  0.703400  0.789100  0.712500  1.0
  H  H426  1  0.296600  0.210900  0.212500  1.0
  H  H427  1  0.710900  0.203400  0.962500  1.0
  H  H428  1  0.289100  0.796600  0.462500  1.0
  H  H429  1  0.796600  0.289100  0.537500  1.0
  H  H430  1  0.203400  0.710900  0.037500  1.0
  H  H431  1  0.789100  0.703400  0.287500  1.0
  H  H432  1  0.210900  0.296600  0.787500  1.0
  H  H433  1  0.696800  0.653700  0.689600  1.0
  H  H434  1  0.303200  0.346300  0.189600  1.0
  H  H435  1  0.846300  0.196800  0.939600  1.0
  H  H436  1  0.153700  0.803200  0.439600  1.0
  H  H437  1  0.803200  0.153700  0.560400  1.0
  H  H438  1  0.196800  0.846300  0.060400  1.0
  H  H439  1  0.653700  0.696800  0.310400  1.0
  H  H440  1  0.346300  0.303200  0.810400  1.0
  H  H441  1  0.752700  0.641800  0.743600  1.0
  H  H442  1  0.247300  0.358200  0.243600  1.0
  H  H443  1  0.858200  0.252700  0.993600  1.0
  H  H444  1  0.141800  0.747300  0.493600  1.0
  H  H445  1  0.747300  0.141800  0.506400  1.0
  H  H446  1  0.252700  0.858200  0.006400  1.0
  H  H447  1  0.641800  0.752700  0.256400  1.0
  H  H448  1  0.358200  0.247300  0.756400  1.0
  H  H449  1  0.527600  0.883900  0.555000  1.0
  H  H450  1  0.472400  0.116100  0.055000  1.0
  H  H451  1  0.616100  0.027600  0.805000  1.0
  H  H452  1  0.383900  0.972400  0.305000  1.0
  H  H453  1  0.972400  0.383900  0.695000  1.0
  H  H454  1  0.027600  0.616100  0.195000  1.0
  H  H455  1  0.883900  0.527600  0.445000  1.0
  H  H456  1  0.116100  0.472400  0.945000  1.0
  H  H457  1  0.552000  0.808800  0.569000  1.0
  H  H458  1  0.448000  0.191200  0.069000  1.0
  H  H459  1  0.691200  0.052000  0.819000  1.0
  H  H460  1  0.308800  0.948000  0.319000  1.0
  H  H461  1  0.948000  0.308800  0.681000  1.0
  H  H462  1  0.052000  0.691200  0.181000  1.0
  H  H463  1  0.808800  0.552000  0.431000  1.0
  H  H464  1  0.191200  0.448000  0.931000  1.0
  H  H465  1  0.634300  0.857200  0.662200  1.0
  H  H466  1  0.365700  0.142800  0.162200  1.0
  H  H467  1  0.642800  0.134300  0.912200  1.0
  H  H468  1  0.357200  0.865700  0.412200  1.0
  H  H469  1  0.865700  0.357200  0.587800  1.0
  H  H470  1  0.134300  0.642800  0.087800  1.0
  H  H471  1  0.857200  0.634300  0.337800  1.0
  H  H472  1  0.142800  0.365700  0.837800  1.0
  H  H473  1  0.614700  0.929800  0.642300  1.0
  H  H474  1  0.385300  0.070200  0.142300  1.0
  H  H475  1  0.570200  0.114700  0.892300  1.0
  H  H476  1  0.429800  0.885300  0.392300  1.0
  H  H477  1  0.885300  0.429800  0.607700  1.0
  H  H478  1  0.114700  0.570200  0.107700  1.0
  H  H479  1  0.929800  0.614700  0.357700  1.0
  H  H480  1  0.070200  0.385300  0.857700  1.0
  H  H481  1  0.603800  0.553100  0.572200  1.0
  H  H482  1  0.396200  0.446900  0.072200  1.0
  H  H483  1  0.946900  0.103800  0.822200  1.0
  H  H484  1  0.053100  0.896200  0.322200  1.0
  H  H485  1  0.896200  0.053100  0.677800  1.0
  H  H486  1  0.103800  0.946900  0.177800  1.0
  H  H487  1  0.553100  0.603800  0.427800  1.0
  H  H488  1  0.446900  0.396200  0.927800  1.0
  H  H489  1  0.630200  0.612400  0.614300  1.0
  H  H490  1  0.369800  0.387600  0.114300  1.0
  H  H491  1  0.887600  0.130200  0.864300  1.0
  H  H492  1  0.112400  0.869800  0.364300  1.0
  H  H493  1  0.869800  0.112400  0.635700  1.0
  H  H494  1  0.130200  0.887600  0.135700  1.0
  H  H495  1  0.612400  0.630200  0.385700  1.0
  H  H496  1  0.387600  0.369800  0.885700  1.0
  H  H497  1  0.540100  0.697700  0.557400  1.0
  H  H498  1  0.459900  0.302300  0.057400  1.0
  H  H499  1  0.802300  0.040100  0.807400  1.0
  H  H500  1  0.197700  0.959900  0.307400  1.0
  H  H501  1  0.959900  0.197700  0.692600  1.0
  H  H502  1  0.040100  0.802300  0.192600  1.0
  H  H503  1  0.697700  0.540100  0.442600  1.0
  H  H504  1  0.302300  0.459900  0.942600  1.0
  H  H505  1  0.517200  0.638300  0.513500  1.0
  H  H506  1  0.482800  0.361700  0.013500  1.0
  H  H507  1  0.861700  0.017200  0.763500  1.0
  H  H508  1  0.138300  0.982800  0.263500  1.0
  H  H509  1  0.982800  0.138300  0.736500  1.0
  H  H510  1  0.017200  0.861700  0.236500  1.0
  H  H511  1  0.638300  0.517200  0.486500  1.0
  H  H512  1  0.361700  0.482800  0.986500  1.0
  H  H513  1  0.999300  0.652200  0.424700  1.0
  H  H514  1  0.000700  0.347800  0.924700  1.0
  H  H515  1  0.847800  0.499300  0.674700  1.0
  H  H516  1  0.152200  0.500700  0.174700  1.0
  H  H517  1  0.500700  0.152200  0.825300  1.0
  H  H518  1  0.499300  0.847800  0.325300  1.0
  H  H519  1  0.652200  0.999300  0.575300  1.0
  H  H520  1  0.347800  0.000700  0.075300  1.0
  H  H521  1  0.984400  0.711800  0.469600  1.0
  H  H522  1  0.015600  0.288200  0.969600  1.0
  H  H523  1  0.788200  0.484400  0.719600  1.0
  H  H524  1  0.211800  0.515600  0.219600  1.0
  H  H525  1  0.515600  0.211800  0.780400  1.0
  H  H526  1  0.484400  0.788200  0.280400  1.0
  H  H527  1  0.711800  0.984400  0.530400  1.0
  H  H528  1  0.288200  0.015600  0.030400  1.0
  H  H529  1  0.943800  0.622000  0.561000  1.0
  H  H530  1  0.056200  0.378000  0.061000  1.0
  H  H531  1  0.878000  0.443800  0.811000  1.0
  H  H532  1  0.122000  0.556200  0.311000  1.0
  H  H533  1  0.556200  0.122000  0.689000  1.0
  H  H534  1  0.443800  0.878000  0.189000  1.0
  H  H535  1  0.622000  0.943800  0.439000  1.0
  H  H536  1  0.378000  0.056200  0.939000  1.0
  H  H537  1  0.955500  0.564000  0.512900  1.0
  H  H538  1  0.044500  0.436000  0.012900  1.0
  H  H539  1  0.936000  0.455500  0.762900  1.0
  H  H540  1  0.064000  0.544500  0.262900  1.0
  H  H541  1  0.544500  0.064000  0.737100  1.0
  H  H542  1  0.455500  0.936000  0.237100  1.0
  H  H543  1  0.564000  0.955500  0.487100  1.0
  H  H544  1  0.436000  0.044500  0.987100  1.0
  H  H545  1  0.071200  0.935900  0.544700  1.0
  H  H546  1  0.928800  0.064100  0.044700  1.0
  H  H547  1  0.564100  0.571200  0.794700  1.0
  H  H548  1  0.435900  0.428800  0.294700  1.0
  H  H549  1  0.428800  0.435900  0.705300  1.0
  H  H550  1  0.571200  0.564100  0.205300  1.0
  H  H551  1  0.935900  0.071200  0.455300  1.0
  H  H552  1  0.064100  0.928800  0.955300  1.0
  H  H553  1  0.146500  0.955000  0.564700  1.0
  H  H554  1  0.853500  0.045000  0.064700  1.0
  H  H555  1  0.545000  0.646500  0.814700  1.0
  H  H556  1  0.455000  0.353500  0.314700  1.0
  H  H557  1  0.353500  0.455000  0.685300  1.0
  H  H558  1  0.646500  0.545000  0.185300  1.0
  H  H559  1  0.955000  0.146500  0.435300  1.0
  H  H560  1  0.045000  0.853500  0.935300  1.0
  H  H561  1  0.170200  0.030900  0.557600  1.0
  H  H562  1  0.829800  0.969100  0.057600  1.0
  H  H563  1  0.469100  0.670200  0.807600  1.0
  H  H564  1  0.530900  0.329800  0.307600  1.0
  H  H565  1  0.329800  0.530900  0.692400  1.0
  H  H566  1  0.670200  0.469100  0.192400  1.0
  H  H567  1  0.030900  0.170200  0.442400  1.0
  H  H568  1  0.969100  0.829800  0.942400  1.0
  H  H569  1  0.128200  0.079800  0.517200  1.0
  H  H570  1  0.871800  0.920200  0.017200  1.0
  H  H571  1  0.420200  0.628200  0.767200  1.0
  H  H572  1  0.579800  0.371800  0.267200  1.0
  H  H573  1  0.371800  0.579800  0.732800  1.0
  H  H574  1  0.628200  0.420200  0.232800  1.0
  H  H575  1  0.079800  0.128200  0.482800  1.0
  H  H576  1  0.920200  0.871800  0.982800  1.0
  H  H577  1  0.492200  0.555600  0.585100  1.0
  H  H578  1  0.507800  0.444400  0.085100  1.0
  H  H579  1  0.944400  0.992200  0.835100  1.0
  H  H580  1  0.055600  0.007800  0.335100  1.0
  H  H581  1  0.007800  0.055600  0.664900  1.0
  H  H582  1  0.992200  0.944400  0.164900  1.0
  H  H583  1  0.555600  0.492200  0.414900  1.0
  H  H584  1  0.444400  0.507800  0.914900  1.0
  H  H585  1  0.427600  0.528200  0.625200  1.0
  H  H586  1  0.572400  0.471800  0.125200  1.0
  H  H587  1  0.971800  0.927600  0.875200  1.0
  H  H588  1  0.028200  0.072400  0.375200  1.0
  H  H589  1  0.072400  0.028200  0.624800  1.0
  H  H590  1  0.927600  0.971800  0.124800  1.0
  H  H591  1  0.528200  0.427600  0.374800  1.0
  H  H592  1  0.471800  0.572400  0.874800  1.0
  H  H593  1  0.388200  0.467400  0.593800  1.0
  H  H594  1  0.611800  0.532600  0.093800  1.0
  H  H595  1  0.032600  0.888200  0.843800  1.0
  H  H596  1  0.967400  0.111800  0.343800  1.0
  H  H597  1  0.111800  0.967400  0.656200  1.0
  H  H598  1  0.888200  0.032600  0.156200  1.0
  H  H599  1  0.467400  0.388200  0.406200  1.0
  H  H600  1  0.532600  0.611800  0.906200  1.0
  H  H601  1  0.400200  0.443900  0.527600  1.0
  H  H602  1  0.599800  0.556100  0.027600  1.0
  H  H603  1  0.056100  0.900200  0.777600  1.0
  H  H604  1  0.943900  0.099800  0.277600  1.0
  H  H605  1  0.099800  0.943900  0.722400  1.0
  H  H606  1  0.900200  0.056100  0.222400  1.0
  H  H607  1  0.443900  0.400200  0.472400  1.0
  H  H608  1  0.556100  0.599800  0.972400  1.0
  H  H609  1  0.723400  0.692300  0.830800  1.0
  H  H610  1  0.276600  0.307700  0.330800  1.0
  H  H611  1  0.807700  0.223400  0.080800  1.0
  H  H612  1  0.192300  0.776600  0.580800  1.0
  H  H613  1  0.776600  0.192300  0.419200  1.0
  H  H614  1  0.223400  0.807700  0.919200  1.0
  H  H615  1  0.692300  0.723400  0.169200  1.0
  H  H616  1  0.307700  0.276600  0.669200  1.0
  H  H617  1  0.695900  0.662200  0.896400  1.0
  H  H618  1  0.304100  0.337800  0.396400  1.0
  H  H619  1  0.837800  0.195900  0.146400  1.0
  H  H620  1  0.162200  0.804100  0.646400  1.0
  H  H621  1  0.804100  0.162200  0.353600  1.0
  H  H622  1  0.195900  0.837800  0.853600  1.0
  H  H623  1  0.662200  0.695900  0.103600  1.0
  H  H624  1  0.337800  0.304100  0.603600  1.0
  H  H625  1  0.746000  0.637200  0.948800  1.0
  H  H626  1  0.254000  0.362800  0.448800  1.0
  H  H627  1  0.862800  0.246000  0.198800  1.0
  H  H628  1  0.137200  0.754000  0.698800  1.0
  H  H629  1  0.754000  0.137200  0.301200  1.0
  H  H630  1  0.246000  0.862800  0.801200  1.0
  H  H631  1  0.637200  0.746000  0.051200  1.0
  H  H632  1  0.362800  0.254000  0.551200  1.0
  H  H633  1  0.824400  0.636400  0.936400  1.0
  H  H634  1  0.175600  0.363600  0.436400  1.0
  H  H635  1  0.863600  0.324400  0.186400  1.0
  H  H636  1  0.136400  0.675600  0.686400  1.0
  H  H637  1  0.675600  0.136400  0.313600  1.0
  H  H638  1  0.324400  0.863600  0.813600  1.0
  H  H639  1  0.636400  0.824400  0.063600  1.0
  H  H640  1  0.363600  0.175600  0.563600  1.0
  H  H641  1  0.896100  0.636600  0.918800  1.0
  H  H642  1  0.103900  0.363400  0.418800  1.0
  H  H643  1  0.863400  0.396100  0.168800  1.0
  H  H644  1  0.136600  0.603900  0.668800  1.0
  H  H645  1  0.603900  0.136600  0.331200  1.0
  H  H646  1  0.396100  0.863400  0.831200  1.0
  H  H647  1  0.636600  0.896100  0.081200  1.0
  H  H648  1  0.363400  0.103900  0.581200  1.0
  H  H649  1  0.972300  0.648100  0.898900  1.0
  H  H650  1  0.027700  0.351900  0.398900  1.0
  H  H651  1  0.851900  0.472300  0.148900  1.0
  H  H652  1  0.148100  0.527700  0.648900  1.0
  H  H653  1  0.527700  0.148100  0.351100  1.0
  H  H654  1  0.472300  0.851900  0.851100  1.0
  H  H655  1  0.648100  0.972300  0.101100  1.0
  H  H656  1  0.351900  0.027700  0.601100  1.0
  H  H657  1  0.986700  0.687000  0.831900  1.0
  H  H658  1  0.013300  0.313000  0.331900  1.0
  H  H659  1  0.813000  0.486700  0.081900  1.0
  H  H660  1  0.187000  0.513300  0.581900  1.0
  H  H661  1  0.513300  0.187000  0.418100  1.0
  H  H662  1  0.486700  0.813000  0.918100  1.0
  H  H663  1  0.687000  0.986700  0.168100  1.0
  H  H664  1  0.313000  0.013300  0.668100  1.0
  H  H665  1  0.926300  0.700500  0.786900  1.0
  H  H666  1  0.073700  0.299500  0.286900  1.0
  H  H667  1  0.799500  0.426300  0.036900  1.0
  H  H668  1  0.200500  0.573700  0.536900  1.0
  H  H669  1  0.573700  0.200500  0.463100  1.0
  H  H670  1  0.426300  0.799500  0.963100  1.0
  H  H671  1  0.700500  0.926300  0.213100  1.0
  H  H672  1  0.299500  0.073700  0.713100  1.0
  H  H673  1  0.570800  0.060000  0.523200  1.0
  H  H674  1  0.429200  0.940000  0.023200  1.0
  H  H675  1  0.440000  0.070800  0.773200  1.0
  H  H676  1  0.560000  0.929200  0.273200  1.0
  H  H677  1  0.929200  0.560000  0.726800  1.0
  H  H678  1  0.070800  0.440000  0.226800  1.0
  H  H679  1  0.060000  0.570800  0.476800  1.0
  H  H680  1  0.940000  0.429200  0.976800  1.0
  H  H681  1  0.546100  0.138300  0.521100  1.0
  H  H682  1  0.453900  0.861700  0.021100  1.0
  H  H683  1  0.361700  0.046100  0.771100  1.0
  H  H684  1  0.638300  0.953900  0.271100  1.0
  H  H685  1  0.953900  0.638300  0.728900  1.0
  H  H686  1  0.046100  0.361700  0.228900  1.0
  H  H687  1  0.138300  0.546100  0.478900  1.0
  H  H688  1  0.861700  0.453900  0.978900  1.0
  H  H689  1  0.496300  0.163300  0.569700  1.0
  H  H690  1  0.503700  0.836700  0.069700  1.0
  H  H691  1  0.336700  0.996300  0.819700  1.0
  H  H692  1  0.663300  0.003700  0.319700  1.0
  H  H693  1  0.003700  0.663300  0.680300  1.0
  H  H694  1  0.996300  0.336700  0.180300  1.0
  H  H695  1  0.163300  0.496300  0.430300  1.0
  H  H696  1  0.836700  0.503700  0.930300  1.0
  H  H697  1  0.467800  0.112500  0.629300  1.0
  H  H698  1  0.532200  0.887500  0.129300  1.0
  H  H699  1  0.387500  0.967800  0.879300  1.0
  H  H700  1  0.612500  0.032200  0.379300  1.0
  H  H701  1  0.032200  0.612500  0.620700  1.0
  H  H702  1  0.967800  0.387500  0.120700  1.0
  H  H703  1  0.112500  0.467800  0.370700  1.0
  H  H704  1  0.887500  0.532200  0.870700  1.0
  H  H705  1  0.444700  0.064400  0.674500  1.0
  H  H706  1  0.555300  0.935600  0.174500  1.0
  H  H707  1  0.435600  0.944700  0.924500  1.0
  H  H708  1  0.564400  0.055300  0.424500  1.0
  H  H709  1  0.055300  0.564400  0.575500  1.0
  H  H710  1  0.944700  0.435600  0.075500  1.0
  H  H711  1  0.064400  0.444700  0.325500  1.0
  H  H712  1  0.935600  0.555300  0.825500  1.0
  H  H713  1  0.407100  0.000700  0.702800  1.0
  H  H714  1  0.592900  0.999300  0.202800  1.0
  H  H715  1  0.499300  0.907100  0.952800  1.0
  H  H716  1  0.500700  0.092900  0.452800  1.0
  H  H717  1  0.092900  0.500700  0.547200  1.0
  H  H718  1  0.907100  0.499300  0.047200  1.0
  H  H719  1  0.000700  0.407100  0.297200  1.0
  H  H720  1  0.999300  0.592900  0.797200  1.0
  H  H721  1  0.439900  0.925800  0.694800  1.0
  H  H722  1  0.560100  0.074200  0.194800  1.0
  H  H723  1  0.574200  0.939900  0.944800  1.0
  H  H724  1  0.425800  0.060100  0.444800  1.0
  H  H725  1  0.060100  0.425800  0.555200  1.0
  H  H726  1  0.939900  0.574200  0.055200  1.0
  H  H727  1  0.925800  0.439900  0.305200  1.0
  H  H728  1  0.074200  0.560100  0.805200  1.0
  H  H729  1  0.497500  0.918100  0.644700  1.0
  H  H730  1  0.502500  0.081900  0.144700  1.0
  H  H731  1  0.581900  0.997500  0.894700  1.0
  H  H732  1  0.418100  0.002500  0.394700  1.0
  H  H733  1  0.002500  0.418100  0.605300  1.0
  H  H734  1  0.997500  0.581900  0.105300  1.0
  H  H735  1  0.918100  0.497500  0.355300  1.0
  H  H736  1  0.081900  0.502500  0.855300  1.0
  Pt  Pt737  1  0.989888  0.989888  0.500000  1
  Pt  Pt738  1  0.010112  0.010112  0.000000  1
  Pt  Pt739  1  0.510112  0.489888  0.750000  1
  Pt  Pt740  1  0.489888  0.510112  0.250000  1
  Pt  Pt741  1  0.536793  0.536793  0.500000  1
  Pt  Pt742  1  0.463207  0.463207  0.000000  1
  Pt  Pt743  1  0.963207  0.036793  0.750000  1
  Pt  Pt744  1  0.036793  0.963207  0.250000  1
  Pt  Pt745  1  0.822652  0.698328  0.789766  1.0
  Pt  Pt746  1  0.177348  0.301672  0.289766  1.0
  Pt  Pt747  1  0.801672  0.322652  0.039766  1.0
  Pt  Pt748  1  0.198328  0.677348  0.539766  1.0
  Pt  Pt749  1  0.677348  0.198328  0.460234  1.0
  Pt  Pt750  1  0.322652  0.801672  0.960234  1.0
  Pt  Pt751  1  0.698328  0.822652  0.210234  1.0
  Pt  Pt752  1  0.301672  0.177348  0.710234  1.0
  Pt  Pt753  1  0.552589  0.978530  0.582423  1.0
  Pt  Pt754  1  0.447411  0.021470  0.082423  1.0
  Pt  Pt755  1  0.521470  0.052589  0.832423  1.0
  Pt  Pt756  1  0.478530  0.947411  0.332423  1.0
  Pt  Pt757  1  0.947411  0.478530  0.667577  1.0
  Pt  Pt758  1  0.052589  0.521470  0.167577  1.0
  Pt  Pt759  1  0.978530  0.552589  0.417577  1.0
  Pt  Pt760  1  0.021470  0.447411  0.917577  1.0
  C  C761  1  0.795300  0.746900  0.580300  1
  C  C762  1  0.204700  0.253100  0.080300  1
  C  C763  1  0.753100  0.295300  0.830300  1
  C  C764  1  0.246900  0.704700  0.330300  1
  C  C765  1  0.704700  0.246900  0.669700  1
  C  C766  1  0.295300  0.753100  0.169700  1
  C  C767  1  0.746900  0.795300  0.419700  1
  C  C768  1  0.253100  0.204700  0.919700  1
  C  C769  1  0.773700  0.714300  0.607600  1
  C  C770  1  0.226300  0.285700  0.107600  1
  C  C771  1  0.785700  0.273700  0.857600  1
  C  C772  1  0.214300  0.726300  0.357600  1
  C  C773  1  0.726300  0.214300  0.642400  1
  C  C774  1  0.273700  0.785700  0.142400  1
  C  C775  1  0.714300  0.773700  0.392400  1
  C  C776  1  0.285700  0.226300  0.892400  1
  C  C777  1  0.772800  0.668300  0.596600  1
  C  C778  1  0.227200  0.331700  0.096600  1
  C  C779  1  0.831700  0.272800  0.846600  1
  C  C780  1  0.168300  0.727200  0.346600  1
  C  C781  1  0.727200  0.168300  0.653400  1
  C  C782  1  0.272800  0.831700  0.153400  1
  C  C783  1  0.668300  0.772800  0.403400  1
  C  C784  1  0.331700  0.227200  0.903400  1
  C  C785  1  0.792600  0.652000  0.557600  1
  C  C786  1  0.207400  0.348000  0.057600  1
  C  C787  1  0.848000  0.292600  0.807600  1
  C  C788  1  0.152000  0.707400  0.307600  1
  C  C789  1  0.707400  0.152000  0.692400  1
  C  C790  1  0.292600  0.848000  0.192400  1
  C  C791  1  0.652000  0.792600  0.442400  1
  C  C792  1  0.348000  0.207400  0.942400  1
  C  C793  1  0.813800  0.685200  0.530100  1
  C  C794  1  0.186200  0.314800  0.030100  1
  C  C795  1  0.814800  0.313800  0.780100  1
  C  C796  1  0.185200  0.686200  0.280100  1
  C  C797  1  0.686200  0.185200  0.719900  1
  C  C798  1  0.313800  0.814800  0.219900  1
  C  C799  1  0.685200  0.813800  0.469900  1
  C  C800  1  0.314800  0.186200  0.969900  1
  C  C801  1  0.815300  0.730700  0.541600  1
  C  C802  1  0.184700  0.269300  0.041600  1
  C  C803  1  0.769300  0.315300  0.791600  1
  C  C804  1  0.230700  0.684700  0.291600  1
  C  C805  1  0.684700  0.230700  0.708400  1
  C  C806  1  0.315300  0.769300  0.208400  1
  C  C807  1  0.730700  0.815300  0.458400  1
  C  C808  1  0.269300  0.184700  0.958400  1
  C  C809  1  0.795000  0.795200  0.590800  1
  C  C810  1  0.205000  0.204800  0.090800  1
  C  C811  1  0.704800  0.295000  0.840800  1
  C  C812  1  0.295200  0.705000  0.340800  1
  C  C813  1  0.705000  0.295200  0.659200  1
  C  C814  1  0.295000  0.704800  0.159200  1
  C  C815  1  0.795200  0.795000  0.409200  1
  C  C816  1  0.204800  0.205000  0.909200  1
  C  C817  1  0.776400  0.866300  0.624100  1
  C  C818  1  0.223600  0.133700  0.124100  1
  C  C819  1  0.633700  0.276400  0.874100  1
  C  C820  1  0.366300  0.723600  0.374100  1
  C  C821  1  0.723600  0.366300  0.625900  1
  C  C822  1  0.276400  0.633700  0.125900  1
  C  C823  1  0.866300  0.776400  0.375900  1
  C  C824  1  0.133700  0.223600  0.875900  1
  C  C825  1  0.802800  0.868000  0.666900  1
  C  C826  1  0.197200  0.132000  0.166900  1
  C  C827  1  0.632000  0.302800  0.916900  1
  C  C828  1  0.368000  0.697200  0.416900  1
  C  C829  1  0.697200  0.368000  0.583100  1
  C  C830  1  0.302800  0.632000  0.083100  1
  C  C831  1  0.868000  0.802800  0.333100  1
  C  C832  1  0.132000  0.197200  0.833100  1
  C  C833  1  0.733000  0.895800  0.626900  1
  C  C834  1  0.267000  0.104200  0.126900  1
  C  C835  1  0.604200  0.233000  0.876900  1
  C  C836  1  0.395800  0.767000  0.376900  1
  C  C837  1  0.767000  0.395800  0.623100  1
  C  C838  1  0.233000  0.604200  0.123100  1
  C  C839  1  0.895800  0.733000  0.373100  1
  C  C840  1  0.104200  0.267000  0.873100  1
  C  C841  1  0.806800  0.876100  0.583600  1
  C  C842  1  0.193200  0.123900  0.083600  1
  C  C843  1  0.623900  0.306800  0.833600  1
  C  C844  1  0.376100  0.693200  0.333600  1
  C  C845  1  0.693200  0.376100  0.666400  1
  C  C846  1  0.306800  0.623900  0.166400  1
  C  C847  1  0.876100  0.806800  0.416400  1
  C  C848  1  0.123900  0.193200  0.916400  1
  C  C849  1  0.779300  0.889800  0.543100  1
  C  C850  1  0.220700  0.110200  0.043100  1
  C  C851  1  0.610200  0.279300  0.793100  1
  C  C852  1  0.389800  0.720700  0.293100  1
  C  C853  1  0.720700  0.389800  0.706900  1
  C  C854  1  0.279300  0.610200  0.206900  1
  C  C855  1  0.889800  0.779300  0.456900  1
  C  C856  1  0.110200  0.220700  0.956900  1
  C  C857  1  0.846200  0.909000  0.591000  1
  C  C858  1  0.153800  0.091000  0.091000  1
  C  C859  1  0.591000  0.346200  0.841000  1
  C  C860  1  0.409000  0.653800  0.341000  1
  C  C861  1  0.653800  0.409000  0.659000  1
  C  C862  1  0.346200  0.591000  0.159000  1
  C  C863  1  0.909000  0.846200  0.409000  1
  C  C864  1  0.091000  0.153800  0.909000  1
  C  C865  1  0.783000  0.572300  0.580700  1
  C  C866  1  0.217000  0.427700  0.080700  1
  C  C867  1  0.927700  0.283000  0.830700  1
  C  C868  1  0.072300  0.717000  0.330700  1
  C  C869  1  0.717000  0.072300  0.669300  1
  C  C870  1  0.283000  0.927700  0.169300  1
  C  C871  1  0.572300  0.783000  0.419300  1
  C  C872  1  0.427700  0.217000  0.919300  1
  C  C873  1  0.817700  0.590100  0.509200  1
  C  C874  1  0.182300  0.409900  0.009200  1
  C  C875  1  0.909900  0.317700  0.759200  1
  C  C876  1  0.090100  0.682300  0.259200  1
  C  C877  1  0.682300  0.090100  0.740800  1
  C  C878  1  0.317700  0.909900  0.240800  1
  C  C879  1  0.590100  0.817700  0.490800  1
  C  C880  1  0.409900  0.182300  0.990800  1
  C  C881  1  0.762700  0.777000  0.589800  1
  C  C882  1  0.237300  0.223000  0.089800  1
  C  C883  1  0.723000  0.262700  0.839800  1
  C  C884  1  0.277000  0.737300  0.339800  1
  C  C885  1  0.737300  0.277000  0.660200  1
  C  C886  1  0.262700  0.723000  0.160200  1
  C  C887  1  0.777000  0.762700  0.410200  1
  C  C888  1  0.223000  0.237300  0.910200  1
  C  C889  1  0.795300  0.786000  0.622800  1
  C  C890  1  0.204700  0.214000  0.122800  1
  C  C891  1  0.714000  0.295300  0.872800  1
  C  C892  1  0.286000  0.704700  0.372800  1
  C  C893  1  0.704700  0.286000  0.627200  1
  C  C894  1  0.295300  0.714000  0.127200  1
  C  C895  1  0.786000  0.795300  0.377200  1
  C  C896  1  0.214000  0.204700  0.877200  1
  C  C897  1  0.795400  0.827500  0.644500  1
  C  C898  1  0.204600  0.172500  0.144500  1
  C  C899  1  0.672500  0.295400  0.894500  1
  C  C900  1  0.327500  0.704600  0.394500  1
  C  C901  1  0.704600  0.327500  0.605500  1
  C  C902  1  0.295400  0.672500  0.105500  1
  C  C903  1  0.827500  0.795400  0.355500  1
  C  C904  1  0.172500  0.204600  0.855500  1
  C  C905  1  0.763900  0.862900  0.634200  1
  C  C906  1  0.236100  0.137100  0.134200  1
  C  C907  1  0.637100  0.263900  0.884200  1
  C  C908  1  0.362900  0.736100  0.384200  1
  C  C909  1  0.736100  0.362900  0.615800  1
  C  C910  1  0.263900  0.637100  0.115800  1
  C  C911  1  0.862900  0.763900  0.365800  1
  C  C912  1  0.137100  0.236100  0.865800  1
  C  C913  1  0.731600  0.853600  0.600600  1
  C  C914  1  0.268400  0.146400  0.100600  1
  C  C915  1  0.646400  0.231600  0.850600  1
  C  C916  1  0.353600  0.768400  0.350600  1
  C  C917  1  0.768400  0.353600  0.649400  1
  C  C918  1  0.231600  0.646400  0.149400  1
  C  C919  1  0.853600  0.731600  0.399400  1
  C  C920  1  0.146400  0.268400  0.899400  1
  C  C921  1  0.731000  0.812000  0.579700  1
  C  C922  1  0.269000  0.188000  0.079700  1
  C  C923  1  0.688000  0.231000  0.829700  1
  C  C924  1  0.312000  0.769000  0.329700  1
  C  C925  1  0.769000  0.312000  0.670300  1
  C  C926  1  0.231000  0.688000  0.170300  1
  C  C927  1  0.812000  0.731000  0.420300  1
  C  C928  1  0.188000  0.269000  0.920300  1
  C  C929  1  0.763300  0.734300  0.566000  1
  C  C930  1  0.236700  0.265700  0.066000  1
  C  C931  1  0.765700  0.263300  0.816000  1
  C  C932  1  0.234300  0.736700  0.316000  1
  C  C933  1  0.736700  0.234300  0.684000  1
  C  C934  1  0.263300  0.765700  0.184000  1
  C  C935  1  0.734300  0.763300  0.434000  1
  C  C936  1  0.265700  0.236700  0.934000  1
  C  C937  1  0.787600  0.662500  0.537800  1
  C  C938  1  0.212400  0.337500  0.037800  1
  C  C939  1  0.837500  0.287600  0.787800  1
  C  C940  1  0.162500  0.712400  0.287800  1
  C  C941  1  0.712400  0.162500  0.712200  1
  C  C942  1  0.287600  0.837500  0.212200  1
  C  C943  1  0.662500  0.787600  0.462200  1
  C  C944  1  0.337500  0.212400  0.962200  1
  C  C945  1  0.778500  0.626800  0.573100  1
  C  C946  1  0.221500  0.373200  0.073100  1
  C  C947  1  0.873200  0.278500  0.823100  1
  C  C948  1  0.126800  0.721500  0.323100  1
  C  C949  1  0.721500  0.126800  0.676900  1
  C  C950  1  0.278500  0.873200  0.176900  1
  C  C951  1  0.626800  0.778500  0.426900  1
  C  C952  1  0.373200  0.221500  0.926900  1
  C  C953  1  0.827100  0.646800  0.508500  1
  C  C954  1  0.172900  0.353200  0.008500  1
  C  C955  1  0.853200  0.327100  0.758500  1
  C  C956  1  0.146800  0.672900  0.258500  1
  C  C957  1  0.672900  0.146800  0.741500  1
  C  C958  1  0.327100  0.853200  0.241500  1
  C  C959  1  0.646800  0.827100  0.491500  1
  C  C960  1  0.353200  0.172900  0.991500  1
  C  C961  1  0.743700  0.677700  0.513000  1
  C  C962  1  0.256300  0.322300  0.013000  1
  C  C963  1  0.822300  0.243700  0.763000  1
  C  C964  1  0.177700  0.756300  0.263000  1
  C  C965  1  0.756300  0.177700  0.737000  1
  C  C966  1  0.243700  0.822300  0.237000  1
  C  C967  1  0.677700  0.743700  0.487000  1
  C  C968  1  0.322300  0.256300  0.987000  1
  C  C969  1  0.753700  0.700700  0.469100  1
  C  C970  1  0.246300  0.299300  0.969100  1
  C  C971  1  0.799300  0.253700  0.719100  1
  C  C972  1  0.200700  0.746300  0.219100  1
  C  C973  1  0.746300  0.200700  0.780900  1
  C  C974  1  0.253700  0.799300  0.280900  1
  C  C975  1  0.700700  0.753700  0.530900  1
  C  C976  1  0.299300  0.246300  0.030900  1
  C  C977  1  0.707200  0.641200  0.508200  1
  C  C978  1  0.292800  0.358800  0.008200  1
  C  C979  1  0.858800  0.207200  0.758200  1
  C  C980  1  0.141200  0.792800  0.258200  1
  C  C981  1  0.792800  0.141200  0.741800  1
  C  C982  1  0.207200  0.858800  0.241800  1
  C  C983  1  0.641200  0.707200  0.491800  1
  C  C984  1  0.358800  0.292800  0.991800  1
  C  C985  1  0.787200  0.907200  0.697900  1
  C  C986  1  0.212800  0.092800  0.197900  1
  C  C987  1  0.592800  0.287200  0.947900  1
  C  C988  1  0.407200  0.712800  0.447900  1
  C  C989  1  0.712800  0.407200  0.552100  1
  C  C990  1  0.287200  0.592800  0.052100  1
  C  C991  1  0.907200  0.787200  0.302100  1
  C  C992  1  0.092800  0.212800  0.802100  1
  C  C993  1  0.727200  0.937200  0.648200  1
  C  C994  1  0.272800  0.062800  0.148200  1
  C  C995  1  0.562800  0.227200  0.898200  1
  C  C996  1  0.437200  0.772800  0.398200  1
  C  C997  1  0.772800  0.437200  0.601800  1
  C  C998  1  0.227200  0.562800  0.101800  1
  C  C999  1  0.937200  0.727200  0.351800  1
  C  C1000  1  0.062800  0.272800  0.851800  1
  C  C1001  1  0.971200  0.918100  0.563900  1.0
  C  C1002  1  0.028800  0.081900  0.063900  1.0
  C  C1003  1  0.581900  0.471200  0.813900  1.0
  C  C1004  1  0.418100  0.528800  0.313900  1.0
  C  C1005  1  0.528800  0.418100  0.686100  1.0
  C  C1006  1  0.471200  0.581900  0.186100  1.0
  C  C1007  1  0.918100  0.971200  0.436100  1.0
  C  C1008  1  0.081900  0.028800  0.936100  1.0
  C  C1009  1  0.963300  0.873400  0.582600  1.0
  C  C1010  1  0.036700  0.126600  0.082600  1.0
  C  C1011  1  0.626600  0.463300  0.832600  1.0
  C  C1012  1  0.373400  0.536700  0.332600  1.0
  C  C1013  1  0.536700  0.373400  0.667400  1.0
  C  C1014  1  0.463300  0.626600  0.167400  1.0
  C  C1015  1  0.873400  0.963300  0.417400  1.0
  C  C1016  1  0.126600  0.036700  0.917400  1.0
  C  C1017  1  0.965800  0.837400  0.552100  1.0
  C  C1018  1  0.034200  0.162600  0.052100  1.0
  C  C1019  1  0.662600  0.465800  0.802100  1.0
  C  C1020  1  0.337400  0.534200  0.302100  1.0
  C  C1021  1  0.534200  0.337400  0.697900  1.0
  C  C1022  1  0.465800  0.662600  0.197900  1.0
  C  C1023  1  0.837400  0.965800  0.447900  1.0
  C  C1024  1  0.162600  0.034200  0.947900  1.0
  C  C1025  1  0.982300  0.845600  0.507900  1.0
  C  C1026  1  0.017700  0.154400  0.007900  1.0
  C  C1027  1  0.654400  0.482300  0.757900  1.0
  C  C1028  1  0.345600  0.517700  0.257900  1.0
  C  C1029  1  0.517700  0.345600  0.742100  1.0
  C  C1030  1  0.482300  0.654400  0.242100  1.0
  C  C1031  1  0.845600  0.982300  0.492100  1.0
  C  C1032  1  0.154400  0.017700  0.992100  1.0
  C  C1033  1  0.989900  0.889200  0.496500  1.0
  C  C1034  1  0.010100  0.110800  0.996500  1.0
  C  C1035  1  0.610800  0.489900  0.746500  1.0
  C  C1036  1  0.389200  0.510100  0.246500  1.0
  C  C1037  1  0.510100  0.389200  0.753500  1.0
  C  C1038  1  0.489900  0.610800  0.253500  1.0
  C  C1039  1  0.889200  0.989900  0.503500  1.0
  C  C1040  1  0.110800  0.010100  0.003500  1.0
  C  C1041  1  0.861800  0.681800  0.704600  1.0
  C  C1042  1  0.138200  0.318200  0.204600  1.0
  C  C1043  1  0.818200  0.361800  0.954600  1.0
  C  C1044  1  0.181800  0.638200  0.454600  1.0
  C  C1045  1  0.638200  0.181800  0.545400  1.0
  C  C1046  1  0.361800  0.818200  0.045400  1.0
  C  C1047  1  0.681800  0.861800  0.295400  1.0
  C  C1048  1  0.318200  0.138200  0.795400  1.0
  C  C1049  1  0.882200  0.689100  0.665800  1.0
  C  C1050  1  0.117800  0.310900  0.165800  1.0
  C  C1051  1  0.810900  0.382200  0.915800  1.0
  C  C1052  1  0.189100  0.617800  0.415800  1.0
  C  C1053  1  0.617800  0.189100  0.584200  1.0
  C  C1054  1  0.382200  0.810900  0.084200  1.0
  C  C1055  1  0.689100  0.882200  0.334200  1.0
  C  C1056  1  0.310900  0.117800  0.834200  1.0
  C  C1057  1  0.901100  0.731000  0.655900  1.0
  C  C1058  1  0.098900  0.269000  0.155900  1.0
  C  C1059  1  0.769000  0.401100  0.905900  1.0
  C  C1060  1  0.231000  0.598900  0.405900  1.0
  C  C1061  1  0.598900  0.231000  0.594100  1.0
  C  C1062  1  0.401100  0.769000  0.094100  1.0
  C  C1063  1  0.731000  0.901100  0.344100  1.0
  C  C1064  1  0.269000  0.098900  0.844100  1.0
  C  C1065  1  0.898300  0.764800  0.689300  1.0
  C  C1066  1  0.101700  0.235200  0.189300  1.0
  C  C1067  1  0.735200  0.398300  0.939300  1.0
  C  C1068  1  0.264800  0.601700  0.439300  1.0
  C  C1069  1  0.601700  0.264800  0.560700  1.0
  C  C1070  1  0.398300  0.735200  0.060700  1.0
  C  C1071  1  0.764800  0.898300  0.310700  1.0
  C  C1072  1  0.235200  0.101700  0.810700  1.0
  C  C1073  1  0.875800  0.755300  0.726600  1.0
  C  C1074  1  0.124200  0.244700  0.226600  1.0
  C  C1075  1  0.744700  0.375800  0.976600  1.0
  C  C1076  1  0.255300  0.624200  0.476600  1.0
  C  C1077  1  0.624200  0.255300  0.523400  1.0
  C  C1078  1  0.375800  0.744700  0.023400  1.0
  C  C1079  1  0.755300  0.875800  0.273400  1.0
  C  C1080  1  0.244700  0.124200  0.773400  1.0
  C  C1081  1  0.955900  0.787900  0.565900  1.0
  C  C1082  1  0.044100  0.212100  0.065900  1.0
  C  C1083  1  0.712100  0.455900  0.815900  1.0
  C  C1084  1  0.287900  0.544100  0.315900  1.0
  C  C1085  1  0.544100  0.287900  0.684100  1.0
  C  C1086  1  0.455900  0.712100  0.184100  1.0
  C  C1087  1  0.787900  0.955900  0.434100  1.0
  C  C1088  1  0.212100  0.044100  0.934100  1.0
  C  C1089  1  0.924600  0.740300  0.615400  1.0
  C  C1090  1  0.075400  0.259700  0.115400  1.0
  C  C1091  1  0.759700  0.424600  0.865400  1.0
  C  C1092  1  0.240300  0.575400  0.365400  1.0
  C  C1093  1  0.575400  0.240300  0.634600  1.0
  C  C1094  1  0.424600  0.759700  0.134600  1.0
  C  C1095  1  0.740300  0.924600  0.384600  1.0
  C  C1096  1  0.259700  0.075400  0.884600  1.0
  C  C1097  1  0.954500  0.713600  0.552200  1.0
  C  C1098  1  0.045500  0.286400  0.052200  1.0
  C  C1099  1  0.786400  0.454500  0.802200  1.0
  C  C1100  1  0.213600  0.545500  0.302200  1.0
  C  C1101  1  0.545500  0.213600  0.697800  1.0
  C  C1102  1  0.454500  0.786400  0.197800  1.0
  C  C1103  1  0.713600  0.954500  0.447800  1.0
  C  C1104  1  0.286400  0.045500  0.947800  1.0
  C  C1105  1  0.750000  0.750900  0.745200  1.0
  C  C1106  1  0.250000  0.249100  0.245200  1.0
  C  C1107  1  0.749100  0.250000  0.995200  1.0
  C  C1108  1  0.250900  0.750000  0.495200  1.0
  C  C1109  1  0.750000  0.250900  0.504800  1.0
  C  C1110  1  0.250000  0.749100  0.004800  1.0
  C  C1111  1  0.750900  0.750000  0.254800  1.0
  C  C1112  1  0.249100  0.250000  0.754800  1.0
  C  C1113  1  0.714100  0.758800  0.717600  1.0
  C  C1114  1  0.285900  0.241200  0.217600  1.0
  C  C1115  1  0.741200  0.214100  0.967600  1.0
  C  C1116  1  0.258800  0.785900  0.467600  1.0
  C  C1117  1  0.785900  0.258800  0.532400  1.0
  C  C1118  1  0.214100  0.741200  0.032400  1.0
  C  C1119  1  0.758800  0.714100  0.282400  1.0
  C  C1120  1  0.241200  0.285900  0.782400  1.0
  C  C1121  1  0.693500  0.721400  0.697100  1.0
  C  C1122  1  0.306500  0.278600  0.197100  1.0
  C  C1123  1  0.778600  0.193500  0.947100  1.0
  C  C1124  1  0.221400  0.806500  0.447100  1.0
  C  C1125  1  0.806500  0.221400  0.552900  1.0
  C  C1126  1  0.193500  0.778600  0.052900  1.0
  C  C1127  1  0.721400  0.693500  0.302900  1.0
  C  C1128  1  0.278600  0.306500  0.802900  1.0
  C  C1129  1  0.709300  0.679100  0.704900  1.0
  C  C1130  1  0.290700  0.320900  0.204900  1.0
  C  C1131  1  0.820900  0.209300  0.954900  1.0
  C  C1132  1  0.179100  0.790700  0.454900  1.0
  C  C1133  1  0.790700  0.179100  0.545100  1.0
  C  C1134  1  0.209300  0.820900  0.045100  1.0
  C  C1135  1  0.679100  0.709300  0.295100  1.0
  C  C1136  1  0.320900  0.290700  0.795100  1.0
  C  C1137  1  0.743900  0.672100  0.735500  1.0
  C  C1138  1  0.256100  0.327900  0.235500  1.0
  C  C1139  1  0.827900  0.243900  0.985500  1.0
  C  C1140  1  0.172100  0.756100  0.485500  1.0
  C  C1141  1  0.756100  0.172100  0.514500  1.0
  C  C1142  1  0.243900  0.827900  0.014500  1.0
  C  C1143  1  0.672100  0.743900  0.264500  1.0
  C  C1144  1  0.327900  0.256100  0.764500  1.0
  C  C1145  1  0.550800  0.878300  0.576000  1.0
  C  C1146  1  0.449200  0.121700  0.076000  1.0
  C  C1147  1  0.621700  0.050800  0.826000  1.0
  C  C1148  1  0.378300  0.949200  0.326000  1.0
  C  C1149  1  0.949200  0.378300  0.674000  1.0
  C  C1150  1  0.050800  0.621700  0.174000  1.0
  C  C1151  1  0.878300  0.550800  0.424000  1.0
  C  C1152  1  0.121700  0.449200  0.924000  1.0
  C  C1153  1  0.564700  0.833400  0.585400  1.0
  C  C1154  1  0.435300  0.166600  0.085400  1.0
  C  C1155  1  0.666600  0.064700  0.835400  1.0
  C  C1156  1  0.333400  0.935300  0.335400  1.0
  C  C1157  1  0.935300  0.333400  0.664600  1.0
  C  C1158  1  0.064700  0.666600  0.164600  1.0
  C  C1159  1  0.833400  0.564700  0.414600  1.0
  C  C1160  1  0.166600  0.435300  0.914600  1.0
  C  C1161  1  0.596100  0.823200  0.617500  1.0
  C  C1162  1  0.403900  0.176800  0.117500  1.0
  C  C1163  1  0.676800  0.096100  0.867500  1.0
  C  C1164  1  0.323200  0.903900  0.367500  1.0
  C  C1165  1  0.903900  0.323200  0.632500  1.0
  C  C1166  1  0.096100  0.676800  0.132500  1.0
  C  C1167  1  0.823200  0.596100  0.382500  1.0
  C  C1168  1  0.176800  0.403900  0.882500  1.0
  C  C1169  1  0.613300  0.861500  0.638900  1.0
  C  C1170  1  0.386700  0.138500  0.138900  1.0
  C  C1171  1  0.638500  0.113300  0.888900  1.0
  C  C1172  1  0.361500  0.886700  0.388900  1.0
  C  C1173  1  0.886700  0.361500  0.611100  1.0
  C  C1174  1  0.113300  0.638500  0.111100  1.0
  C  C1175  1  0.861500  0.613300  0.361100  1.0
  C  C1176  1  0.138500  0.386700  0.861100  1.0
  C  C1177  1  0.600900  0.904700  0.627500  1.0
  C  C1178  1  0.399100  0.095300  0.127500  1.0
  C  C1179  1  0.595300  0.100900  0.877500  1.0
  C  C1180  1  0.404700  0.899100  0.377500  1.0
  C  C1181  1  0.899100  0.404700  0.622500  1.0
  C  C1182  1  0.100900  0.595300  0.122500  1.0
  C  C1183  1  0.904700  0.600900  0.372500  1.0
  C  C1184  1  0.095300  0.399100  0.872500  1.0
  C  C1185  1  0.591000  0.583000  0.568900  1.0
  C  C1186  1  0.409000  0.417000  0.068900  1.0
  C  C1187  1  0.917000  0.091000  0.818900  1.0
  C  C1188  1  0.083000  0.909000  0.318900  1.0
  C  C1189  1  0.909000  0.083000  0.681100  1.0
  C  C1190  1  0.091000  0.917000  0.181100  1.0
  C  C1191  1  0.583000  0.591000  0.431100  1.0
  C  C1192  1  0.417000  0.409000  0.931100  1.0
  C  C1193  1  0.607200  0.618100  0.593100  1.0
  C  C1194  1  0.392800  0.381900  0.093100  1.0
  C  C1195  1  0.881900  0.107200  0.843100  1.0
  C  C1196  1  0.118100  0.892800  0.343100  1.0
  C  C1197  1  0.892800  0.118100  0.656900  1.0
  C  C1198  1  0.107200  0.881900  0.156900  1.0
  C  C1199  1  0.618100  0.607200  0.406900  1.0
  C  C1200  1  0.381900  0.392800  0.906900  1.0
  C  C1201  1  0.590700  0.662200  0.587500  1.0
  C  C1202  1  0.409300  0.337800  0.087500  1.0
  C  C1203  1  0.837800  0.090700  0.837500  1.0
  C  C1204  1  0.162200  0.909300  0.337500  1.0
  C  C1205  1  0.909300  0.162200  0.662500  1.0
  C  C1206  1  0.090700  0.837800  0.162500  1.0
  C  C1207  1  0.662200  0.590700  0.412500  1.0
  C  C1208  1  0.337800  0.409300  0.912500  1.0
  C  C1209  1  0.554600  0.668600  0.559500  1.0
  C  C1210  1  0.445400  0.331400  0.059500  1.0
  C  C1211  1  0.831400  0.054600  0.809500  1.0
  C  C1212  1  0.168600  0.945400  0.309500  1.0
  C  C1213  1  0.945400  0.168600  0.690500  1.0
  C  C1214  1  0.054600  0.831400  0.190500  1.0
  C  C1215  1  0.668600  0.554600  0.440500  1.0
  C  C1216  1  0.331400  0.445400  0.940500  1.0
  C  C1217  1  0.540000  0.633300  0.535100  1.0
  C  C1218  1  0.460000  0.366700  0.035100  1.0
  C  C1219  1  0.866700  0.040000  0.785100  1.0
  C  C1220  1  0.133300  0.960000  0.285100  1.0
  C  C1221  1  0.960000  0.133300  0.714900  1.0
  C  C1222  1  0.040000  0.866700  0.214900  1.0
  C  C1223  1  0.633300  0.540000  0.464900  1.0
  C  C1224  1  0.366700  0.460000  0.964900  1.0
  C  C1225  1  0.658100  0.728300  0.661800  1.0
  C  C1226  1  0.341900  0.271700  0.161800  1.0
  C  C1227  1  0.771700  0.158100  0.911800  1.0
  C  C1228  1  0.228300  0.841900  0.411800  1.0
  C  C1229  1  0.841900  0.228300  0.588200  1.0
  C  C1230  1  0.158100  0.771700  0.088200  1.0
  C  C1231  1  0.728300  0.658100  0.338200  1.0
  C  C1232  1  0.271700  0.341900  0.838200  1.0
  C  C1233  1  0.611100  0.777400  0.626300  1.0
  C  C1234  1  0.388900  0.222600  0.126300  1.0
  C  C1235  1  0.722600  0.111100  0.876300  1.0
  C  C1236  1  0.277400  0.888900  0.376300  1.0
  C  C1237  1  0.888900  0.277400  0.623700  1.0
  C  C1238  1  0.111100  0.722600  0.123700  1.0
  C  C1239  1  0.777400  0.611100  0.373700  1.0
  C  C1240  1  0.222600  0.388900  0.873700  1.0
  C  C1241  1  0.608600  0.700400  0.612400  1.0
  C  C1242  1  0.391400  0.299600  0.112400  1.0
  C  C1243  1  0.799600  0.108600  0.862400  1.0
  C  C1244  1  0.200400  0.891400  0.362400  1.0
  C  C1245  1  0.891400  0.200400  0.637600  1.0
  C  C1246  1  0.108600  0.799600  0.137600  1.0
  C  C1247  1  0.700400  0.608600  0.387600  1.0
  C  C1248  1  0.299600  0.391400  0.887600  1.0
  C  C1249  1  0.986300  0.646400  0.452400  1.0
  C  C1250  1  0.013700  0.353600  0.952400  1.0
  C  C1251  1  0.853600  0.486300  0.702400  1.0
  C  C1252  1  0.146400  0.513700  0.202400  1.0
  C  C1253  1  0.513700  0.146400  0.797600  1.0
  C  C1254  1  0.486300  0.853600  0.297600  1.0
  C  C1255  1  0.646400  0.986300  0.547600  1.0
  C  C1256  1  0.353600  0.013700  0.047600  1.0
  C  C1257  1  0.978700  0.681200  0.479100  1.0
  C  C1258  1  0.021300  0.318800  0.979100  1.0
  C  C1259  1  0.818800  0.478700  0.729100  1.0
  C  C1260  1  0.181200  0.521300  0.229100  1.0
  C  C1261  1  0.521300  0.181200  0.770900  1.0
  C  C1262  1  0.478700  0.818800  0.270900  1.0
  C  C1263  1  0.681200  0.978700  0.520900  1.0
  C  C1264  1  0.318800  0.021300  0.020900  1.0
  C  C1265  1  0.962800  0.673400  0.520700  1.0
  C  C1266  1  0.037200  0.326600  0.020700  1.0
  C  C1267  1  0.826600  0.462800  0.770700  1.0
  C  C1268  1  0.173400  0.537200  0.270700  1.0
  C  C1269  1  0.537200  0.173400  0.729300  1.0
  C  C1270  1  0.462800  0.826600  0.229300  1.0
  C  C1271  1  0.673400  0.962800  0.479300  1.0
  C  C1272  1  0.326600  0.037200  0.979300  1.0
  C  C1273  1  0.954500  0.628800  0.532500  1.0
  C  C1274  1  0.045500  0.371200  0.032500  1.0
  C  C1275  1  0.871200  0.454500  0.782500  1.0
  C  C1276  1  0.128800  0.545500  0.282500  1.0
  C  C1277  1  0.545500  0.128800  0.717500  1.0
  C  C1278  1  0.454500  0.871200  0.217500  1.0
  C  C1279  1  0.628800  0.954500  0.467500  1.0
  C  C1280  1  0.371200  0.045500  0.967500  1.0
  C  C1281  1  0.961300  0.594700  0.504100  1.0
  C  C1282  1  0.038700  0.405300  0.004100  1.0
  C  C1283  1  0.905300  0.461300  0.754100  1.0
  C  C1284  1  0.094700  0.538700  0.254100  1.0
  C  C1285  1  0.538700  0.094700  0.745900  1.0
  C  C1286  1  0.461300  0.905300  0.245900  1.0
  C  C1287  1  0.594700  0.961300  0.495900  1.0
  C  C1288  1  0.405300  0.038700  0.995900  1.0
  C  C1289  1  0.082600  0.966100  0.539700  1.0
  C  C1290  1  0.917400  0.033900  0.039700  1.0
  C  C1291  1  0.533900  0.582600  0.789700  1.0
  C  C1292  1  0.466100  0.417400  0.289700  1.0
  C  C1293  1  0.417400  0.466100  0.710300  1.0
  C  C1294  1  0.582600  0.533900  0.210300  1.0
  C  C1295  1  0.966100  0.082600  0.460300  1.0
  C  C1296  1  0.033900  0.917400  0.960300  1.0
  C  C1297  1  0.126800  0.977400  0.552200  1.0
  C  C1298  1  0.873200  0.022600  0.052200  1.0
  C  C1299  1  0.522600  0.626800  0.802200  1.0
  C  C1300  1  0.477400  0.373200  0.302200  1.0
  C  C1301  1  0.373200  0.477400  0.697800  1.0
  C  C1302  1  0.626800  0.522600  0.197800  1.0
  C  C1303  1  0.977400  0.126800  0.447800  1.0
  C  C1304  1  0.022600  0.873200  0.947800  1.0
  C  C1305  1  0.141500  0.021300  0.546000  1.0
  C  C1306  1  0.858500  0.978700  0.046000  1.0
  C  C1307  1  0.478700  0.641500  0.796000  1.0
  C  C1308  1  0.521300  0.358500  0.296000  1.0
  C  C1309  1  0.358500  0.521300  0.704000  1.0
  C  C1310  1  0.641500  0.478700  0.204000  1.0
  C  C1311  1  0.021300  0.141500  0.454000  1.0
  C  C1312  1  0.978700  0.858500  0.954000  1.0
  C  C1313  1  0.116100  0.050400  0.524100  1.0
  C  C1314  1  0.883900  0.949600  0.024100  1.0
  C  C1315  1  0.449600  0.616100  0.774100  1.0
  C  C1316  1  0.550400  0.383900  0.274100  1.0
  C  C1317  1  0.383900  0.550400  0.725900  1.0
  C  C1318  1  0.616100  0.449600  0.225900  1.0
  C  C1319  1  0.050400  0.116100  0.475900  1.0
  C  C1320  1  0.949600  0.883900  0.975900  1.0
  C  C1321  1  0.073100  0.039700  0.511100  1.0
  C  C1322  1  0.926900  0.960300  0.011100  1.0
  C  C1323  1  0.460300  0.573100  0.761100  1.0
  C  C1324  1  0.539700  0.426900  0.261100  1.0
  C  C1325  1  0.426900  0.539700  0.738900  1.0
  C  C1326  1  0.573100  0.460300  0.238900  1.0
  C  C1327  1  0.039700  0.073100  0.488900  1.0
  C  C1328  1  0.960300  0.926900  0.988900  1.0
  C  C1329  1  0.473500  0.532100  0.572900  1.0
  C  C1330  1  0.526500  0.467900  0.072900  1.0
  C  C1331  1  0.967900  0.973500  0.822900  1.0
  C  C1332  1  0.032100  0.026500  0.322900  1.0
  C  C1333  1  0.026500  0.032100  0.677100  1.0
  C  C1334  1  0.973500  0.967900  0.177100  1.0
  C  C1335  1  0.532100  0.473500  0.427100  1.0
  C  C1336  1  0.467900  0.526500  0.927100  1.0
  C  C1337  1  0.435800  0.516000  0.597700  1.0
  C  C1338  1  0.564200  0.484000  0.097700  1.0
  C  C1339  1  0.984000  0.935800  0.847700  1.0
  C  C1340  1  0.016000  0.064200  0.347700  1.0
  C  C1341  1  0.064200  0.016000  0.652300  1.0
  C  C1342  1  0.935800  0.984000  0.152300  1.0
  C  C1343  1  0.516000  0.435800  0.402300  1.0
  C  C1344  1  0.484000  0.564200  0.902300  1.0
  C  C1345  1  0.412500  0.481100  0.577800  1.0
  C  C1346  1  0.587500  0.518900  0.077800  1.0
  C  C1347  1  0.018900  0.912500  0.827800  1.0
  C  C1348  1  0.981100  0.087500  0.327800  1.0
  C  C1349  1  0.087500  0.981100  0.672200  1.0
  C  C1350  1  0.912500  0.018900  0.172200  1.0
  C  C1351  1  0.481100  0.412500  0.422200  1.0
  C  C1352  1  0.518900  0.587500  0.922200  1.0
  C  C1353  1  0.420100  0.465600  0.540900  1.0
  C  C1354  1  0.579900  0.534400  0.040900  1.0
  C  C1355  1  0.034400  0.920100  0.790900  1.0
  C  C1356  1  0.965600  0.079900  0.290900  1.0
  C  C1357  1  0.079900  0.965600  0.709100  1.0
  C  C1358  1  0.920100  0.034400  0.209100  1.0
  C  C1359  1  0.465600  0.420100  0.459100  1.0
  C  C1360  1  0.534400  0.579900  0.959100  1.0
  C  C1361  1  0.459400  0.482100  0.520100  1.0
  C  C1362  1  0.540600  0.517900  0.020100  1.0
  C  C1363  1  0.017900  0.959400  0.770100  1.0
  C  C1364  1  0.982100  0.040600  0.270100  1.0
  C  C1365  1  0.040600  0.982100  0.729900  1.0
  C  C1366  1  0.959400  0.017900  0.229900  1.0
  C  C1367  1  0.482100  0.459400  0.479900  1.0
  C  C1368  1  0.517900  0.540600  0.979900  1.0
  C  C1369  1  0.743700  0.680000  0.851900  1.0
  C  C1370  1  0.256300  0.320000  0.351900  1.0
  C  C1371  1  0.820000  0.243700  0.101900  1.0
  C  C1372  1  0.180000  0.756300  0.601900  1.0
  C  C1373  1  0.756300  0.180000  0.398100  1.0
  C  C1374  1  0.243700  0.820000  0.898100  1.0
  C  C1375  1  0.680000  0.743700  0.148100  1.0
  C  C1376  1  0.320000  0.256300  0.648100  1.0
  C  C1377  1  0.728000  0.663200  0.890900  1.0
  C  C1378  1  0.272000  0.336800  0.390900  1.0
  C  C1379  1  0.836800  0.228000  0.140900  1.0
  C  C1380  1  0.163200  0.772000  0.640900  1.0
  C  C1381  1  0.772000  0.163200  0.359100  1.0
  C  C1382  1  0.228000  0.836800  0.859100  1.0
  C  C1383  1  0.663200  0.728000  0.109100  1.0
  C  C1384  1  0.336800  0.272000  0.609100  1.0
  C  C1385  1  0.757800  0.647800  0.921700  1.0
  C  C1386  1  0.242200  0.352200  0.421700  1.0
  C  C1387  1  0.852200  0.257800  0.171700  1.0
  C  C1388  1  0.147800  0.742200  0.671700  1.0
  C  C1389  1  0.742200  0.147800  0.328300  1.0
  C  C1390  1  0.257800  0.852200  0.828300  1.0
  C  C1391  1  0.647800  0.757800  0.078300  1.0
  C  C1392  1  0.352200  0.242200  0.578300  1.0
  C  C1393  1  0.803600  0.647200  0.914900  1.0
  C  C1394  1  0.196400  0.352800  0.414900  1.0
  C  C1395  1  0.852800  0.303600  0.164900  1.0
  C  C1396  1  0.147200  0.696400  0.664900  1.0
  C  C1397  1  0.696400  0.147200  0.335100  1.0
  C  C1398  1  0.303600  0.852800  0.835100  1.0
  C  C1399  1  0.647200  0.803600  0.085100  1.0
  C  C1400  1  0.352800  0.196400  0.585100  1.0
  C  C1401  1  0.818700  0.662900  0.875900  1.0
  C  C1402  1  0.181300  0.337100  0.375900  1.0
  C  C1403  1  0.837100  0.318700  0.125900  1.0
  C  C1404  1  0.162900  0.681300  0.625900  1.0
  C  C1405  1  0.681300  0.162900  0.374100  1.0
  C  C1406  1  0.318700  0.837100  0.874100  1.0
  C  C1407  1  0.662900  0.818700  0.124100  1.0
  C  C1408  1  0.337100  0.181300  0.624100  1.0
  C  C1409  1  0.866800  0.666900  0.866100  1.0
  C  C1410  1  0.133200  0.333100  0.366100  1.0
  C  C1411  1  0.833100  0.366800  0.116100  1.0
  C  C1412  1  0.166900  0.633200  0.616100  1.0
  C  C1413  1  0.633200  0.166900  0.383900  1.0
  C  C1414  1  0.366800  0.833100  0.883900  1.0
  C  C1415  1  0.666900  0.866800  0.133900  1.0
  C  C1416  1  0.333100  0.133200  0.633900  1.0
  C  C1417  1  0.902900  0.651700  0.892200  1.0
  C  C1418  1  0.097100  0.348300  0.392200  1.0
  C  C1419  1  0.848300  0.402900  0.142200  1.0
  C  C1420  1  0.151700  0.597100  0.642200  1.0
  C  C1421  1  0.597100  0.151700  0.357800  1.0
  C  C1422  1  0.402900  0.848300  0.857800  1.0
  C  C1423  1  0.651700  0.902900  0.107800  1.0
  C  C1424  1  0.348300  0.097100  0.607800  1.0
  C  C1425  1  0.947800  0.658000  0.880700  1.0
  C  C1426  1  0.052200  0.342000  0.380700  1.0
  C  C1427  1  0.842000  0.447800  0.130700  1.0
  C  C1428  1  0.158000  0.552200  0.630700  1.0
  C  C1429  1  0.552200  0.158000  0.369300  1.0
  C  C1430  1  0.447800  0.842000  0.869300  1.0
  C  C1431  1  0.658000  0.947800  0.119300  1.0
  C  C1432  1  0.342000  0.052200  0.619300  1.0
  C  C1433  1  0.956300  0.679600  0.840700  1.0
  C  C1434  1  0.043700  0.320400  0.340700  1.0
  C  C1435  1  0.820400  0.456300  0.090700  1.0
  C  C1436  1  0.179600  0.543700  0.590700  1.0
  C  C1437  1  0.543700  0.179600  0.409300  1.0
  C  C1438  1  0.456300  0.820400  0.909300  1.0
  C  C1439  1  0.679600  0.956300  0.159300  1.0
  C  C1440  1  0.320400  0.043700  0.659300  1.0
  C  C1441  1  0.920500  0.689600  0.815400  1.0
  C  C1442  1  0.079500  0.310400  0.315400  1.0
  C  C1443  1  0.810400  0.420500  0.065400  1.0
  C  C1444  1  0.189600  0.579500  0.565400  1.0
  C  C1445  1  0.579500  0.189600  0.434600  1.0
  C  C1446  1  0.420500  0.810400  0.934600  1.0
  C  C1447  1  0.689600  0.920500  0.184600  1.0
  C  C1448  1  0.310400  0.079500  0.684600  1.0
  C  C1449  1  0.549400  0.071300  0.544000  1.0
  C  C1450  1  0.450600  0.928700  0.044000  1.0
  C  C1451  1  0.428700  0.049400  0.794000  1.0
  C  C1452  1  0.571300  0.950600  0.294000  1.0
  C  C1453  1  0.950600  0.571300  0.706000  1.0
  C  C1454  1  0.049400  0.428700  0.206000  1.0
  C  C1455  1  0.071300  0.549400  0.456000  1.0
  C  C1456  1  0.928700  0.450600  0.956000  1.0
  C  C1457  1  0.534800  0.118100  0.542900  1.0
  C  C1458  1  0.465200  0.881900  0.042900  1.0
  C  C1459  1  0.381900  0.034800  0.792900  1.0
  C  C1460  1  0.618100  0.965200  0.292900  1.0
  C  C1461  1  0.965200  0.618100  0.707100  1.0
  C  C1462  1  0.034800  0.381900  0.207100  1.0
  C  C1463  1  0.118100  0.534800  0.457100  1.0
  C  C1464  1  0.881900  0.465200  0.957100  1.0
  C  C1465  1  0.506500  0.132300  0.571200  1.0
  C  C1466  1  0.493500  0.867700  0.071200  1.0
  C  C1467  1  0.367700  0.006500  0.821200  1.0
  C  C1468  1  0.632300  0.993500  0.321200  1.0
  C  C1469  1  0.993500  0.632300  0.678800  1.0
  C  C1470  1  0.006500  0.367700  0.178800  1.0
  C  C1471  1  0.132300  0.506500  0.428800  1.0
  C  C1472  1  0.867700  0.493500  0.928800  1.0
  C  C1473  1  0.488200  0.101600  0.607500  1.0
  C  C1474  1  0.511800  0.898400  0.107500  1.0
  C  C1475  1  0.398400  0.988200  0.857500  1.0
  C  C1476  1  0.601600  0.011800  0.357500  1.0
  C  C1477  1  0.011800  0.601600  0.642500  1.0
  C  C1478  1  0.988200  0.398400  0.142500  1.0
  C  C1479  1  0.101600  0.488200  0.392500  1.0
  C  C1480  1  0.898400  0.511800  0.892500  1.0
  C  C1481  1  0.503000  0.058600  0.606100  1.0
  C  C1482  1  0.497000  0.941400  0.106100  1.0
  C  C1483  1  0.441400  0.003000  0.856100  1.0
  C  C1484  1  0.558600  0.997000  0.356100  1.0
  C  C1485  1  0.997000  0.558600  0.643900  1.0
  C  C1486  1  0.003000  0.441400  0.143900  1.0
  C  C1487  1  0.058600  0.503000  0.393900  1.0
  C  C1488  1  0.941400  0.497000  0.893900  1.0
  C  C1489  1  0.486800  0.025500  0.634000  1.0
  C  C1490  1  0.513200  0.974500  0.134000  1.0
  C  C1491  1  0.474500  0.986800  0.884000  1.0
  C  C1492  1  0.525500  0.013200  0.384000  1.0
  C  C1493  1  0.013200  0.525500  0.616000  1.0
  C  C1494  1  0.986800  0.474500  0.116000  1.0
  C  C1495  1  0.025500  0.486800  0.366000  1.0
  C  C1496  1  0.974500  0.513200  0.866000  1.0
  C  C1497  1  0.453100  0.034000  0.666400  1.0
  C  C1498  1  0.546900  0.966000  0.166400  1.0
  C  C1499  1  0.466000  0.953100  0.916400  1.0
  C  C1500  1  0.534000  0.046900  0.416400  1.0
  C  C1501  1  0.046900  0.534000  0.583600  1.0
  C  C1502  1  0.953100  0.466000  0.083600  1.0
  C  C1503  1  0.034000  0.453100  0.333600  1.0
  C  C1504  1  0.966000  0.546900  0.833600  1.0
  C  C1505  1  0.433600  0.996600  0.685100  1.0
  C  C1506  1  0.566400  0.003400  0.185100  1.0
  C  C1507  1  0.503400  0.933600  0.935100  1.0
  C  C1508  1  0.496600  0.066400  0.435100  1.0
  C  C1509  1  0.066400  0.496600  0.564900  1.0
  C  C1510  1  0.933600  0.503400  0.064900  1.0
  C  C1511  1  0.996600  0.433600  0.314900  1.0
  C  C1512  1  0.003400  0.566400  0.814900  1.0
  C  C1513  1  0.451300  0.951500  0.679200  1.0
  C  C1514  1  0.548700  0.048500  0.179200  1.0
  C  C1515  1  0.548500  0.951300  0.929200  1.0
  C  C1516  1  0.451500  0.048700  0.429200  1.0
  C  C1517  1  0.048700  0.451500  0.570800  1.0
  C  C1518  1  0.951300  0.548500  0.070800  1.0
  C  C1519  1  0.951500  0.451300  0.320800  1.0
  C  C1520  1  0.048500  0.548700  0.820800  1.0
  C  C1521  1  0.485100  0.947800  0.650000  1.0
  C  C1522  1  0.514900  0.052200  0.150000  1.0
  C  C1523  1  0.552200  0.985100  0.900000  1.0
  C  C1524  1  0.447800  0.014900  0.400000  1.0
  C  C1525  1  0.014900  0.447800  0.600000  1.0
  C  C1526  1  0.985100  0.552200  0.100000  1.0
  C  C1527  1  0.947800  0.485100  0.350000  1.0
  C  C1528  1  0.052200  0.514900  0.850000  1.0
  N  N1529  1  0.877300  0.547400  0.601800  1
  N  N1530  1  0.122700  0.452600  0.101800  1
  N  N1531  1  0.952600  0.377300  0.851800  1
  N  N1532  1  0.047400  0.622700  0.351800  1
  N  N1533  1  0.622700  0.047400  0.648200  1
  N  N1534  1  0.377300  0.952600  0.148200  1
  N  N1535  1  0.547400  0.877300  0.398200  1
  N  N1536  1  0.452600  0.122700  0.898200  1
  N  N1537  1  0.579700  0.838000  0.211500  1
  N  N1538  1  0.420300  0.162000  0.711500  1
  N  N1539  1  0.662000  0.079700  0.461500  1
  N  N1540  1  0.338000  0.920300  0.961500  1
  N  N1541  1  0.920300  0.338000  0.038500  1
  N  N1542  1  0.079700  0.662000  0.538500  1
  N  N1543  1  0.838000  0.579700  0.788500  1
  N  N1544  1  0.162000  0.420300  0.288500  1
  N  N1545  1  0.962500  0.447400  0.466700  1
  N  N1546  1  0.037500  0.552600  0.966700  1
  N  N1547  1  0.052600  0.462500  0.716700  1
  N  N1548  1  0.947400  0.537500  0.216700  1
  N  N1549  1  0.537500  0.947400  0.783300  1
  N  N1550  1  0.462500  0.052600  0.283300  1
  N  N1551  1  0.447400  0.962500  0.533300  1
  N  N1552  1  0.552600  0.037500  0.033300  1
  N  N1553  1  0.076800  0.961400  0.418400  1
  N  N1554  1  0.923200  0.038600  0.918400  1
  N  N1555  1  0.538600  0.576800  0.668400  1
  N  N1556  1  0.461400  0.423200  0.168400  1
  N  N1557  1  0.423200  0.461400  0.831600  1
  N  N1558  1  0.576800  0.538600  0.331600  1
  N  N1559  1  0.961400  0.076800  0.581600  1
  N  N1560  1  0.038600  0.923200  0.081600  1
  N  N1561  1  0.939000  0.911000  0.300400  1
  N  N1562  1  0.061000  0.089000  0.800400  1
  N  N1563  1  0.589000  0.439000  0.550400  1
  N  N1564  1  0.411000  0.561000  0.050400  1
  N  N1565  1  0.561000  0.411000  0.949600  1
  N  N1566  1  0.439000  0.589000  0.449600  1
  N  N1567  1  0.911000  0.939000  0.699600  1
  N  N1568  1  0.089000  0.061000  0.199600  1
  N  N1569  1  0.764000  0.817100  0.616800  1
  N  N1570  1  0.236000  0.182900  0.116800  1
  N  N1571  1  0.682900  0.264000  0.866800  1
  N  N1572  1  0.317100  0.736000  0.366800  1
  N  N1573  1  0.736000  0.317100  0.633200  1
  N  N1574  1  0.264000  0.682900  0.133200  1
  N  N1575  1  0.817100  0.764000  0.383200  1
  N  N1576  1  0.182900  0.236000  0.883200  1
  N  N1577  1  0.824400  0.828200  0.575100  1
  N  N1578  1  0.175600  0.171800  0.075100  1
  N  N1579  1  0.671800  0.324400  0.825100  1
  N  N1580  1  0.328200  0.675600  0.325100  1
  N  N1581  1  0.675600  0.328200  0.674900  1
  N  N1582  1  0.324400  0.671800  0.174900  1
  N  N1583  1  0.828200  0.824400  0.424900  1
  N  N1584  1  0.171800  0.175600  0.924900  1
  N  N1585  1  0.790700  0.606200  0.546400  1
  N  N1586  1  0.209300  0.393800  0.046400  1
  N  N1587  1  0.893800  0.290700  0.796400  1
  N  N1588  1  0.106200  0.709300  0.296400  1
  N  N1589  1  0.709300  0.106200  0.703600  1
  N  N1590  1  0.290700  0.893800  0.203600  1
  N  N1591  1  0.606200  0.790700  0.453600  1
  N  N1592  1  0.393800  0.209300  0.953600  1
  N  N1593  1  0.800200  0.705900  0.560700  1
  N  N1594  1  0.199800  0.294100  0.060700  1
  N  N1595  1  0.794100  0.300200  0.810700  1
  N  N1596  1  0.205900  0.699800  0.310700  1
  N  N1597  1  0.699800  0.205900  0.689300  1
  N  N1598  1  0.300200  0.794100  0.189300  1
  N  N1599  1  0.705900  0.800200  0.439300  1
  N  N1600  1  0.294100  0.199800  0.939300  1
  N  N1601  1  0.727600  0.715500  0.542800  1
  N  N1602  1  0.272400  0.284500  0.042800  1
  N  N1603  1  0.784500  0.227600  0.792800  1
  N  N1604  1  0.215500  0.772400  0.292800  1
  N  N1605  1  0.772400  0.215500  0.707200  1
  N  N1606  1  0.227600  0.784500  0.207200  1
  N  N1607  1  0.715500  0.727600  0.457200  1
  N  N1608  1  0.284500  0.272400  0.957200  1
  N  N1609  1  0.764800  0.904700  0.655300  1
  N  N1610  1  0.235200  0.095300  0.155300  1
  N  N1611  1  0.595300  0.264800  0.905300  1
  N  N1612  1  0.404700  0.735200  0.405300  1
  N  N1613  1  0.735200  0.404700  0.594700  1
  N  N1614  1  0.264800  0.595300  0.094700  1
  N  N1615  1  0.904700  0.764800  0.344700  1
  N  N1616  1  0.095300  0.235200  0.844700  1
  N  N1617  1  0.982500  0.924600  0.522400  1.0
  N  N1618  1  0.017500  0.075400  0.022400  1.0
  N  N1619  1  0.575400  0.482500  0.772400  1.0
  N  N1620  1  0.424600  0.517500  0.272400  1.0
  N  N1621  1  0.517500  0.424600  0.727600  1.0
  N  N1622  1  0.482500  0.575400  0.227600  1.0
  N  N1623  1  0.924600  0.982500  0.477600  1.0
  N  N1624  1  0.075400  0.017500  0.977600  1.0
  N  N1625  1  0.858400  0.714200  0.734400  1.0
  N  N1626  1  0.141600  0.285800  0.234400  1.0
  N  N1627  1  0.785800  0.358400  0.984400  1.0
  N  N1628  1  0.214200  0.641600  0.484400  1.0
  N  N1629  1  0.641600  0.214200  0.515600  1.0
  N  N1630  1  0.358400  0.785800  0.015600  1.0
  N  N1631  1  0.714200  0.858400  0.265600  1.0
  N  N1632  1  0.285800  0.141600  0.765600  1.0
  N  N1633  1  0.964600  0.754800  0.538400  1.0
  N  N1634  1  0.035400  0.245200  0.038400  1.0
  N  N1635  1  0.745200  0.464600  0.788400  1.0
  N  N1636  1  0.254800  0.535400  0.288400  1.0
  N  N1637  1  0.535400  0.254800  0.711600  1.0
  N  N1638  1  0.464600  0.745200  0.211600  1.0
  N  N1639  1  0.754800  0.964600  0.461600  1.0
  N  N1640  1  0.245200  0.035400  0.961600  1.0
  N  N1641  1  0.933700  0.783400  0.605500  1.0
  N  N1642  1  0.066300  0.216600  0.105500  1.0
  N  N1643  1  0.716600  0.433700  0.855500  1.0
  N  N1644  1  0.283400  0.566300  0.355500  1.0
  N  N1645  1  0.566300  0.283400  0.644500  1.0
  N  N1646  1  0.433700  0.716600  0.144500  1.0
  N  N1647  1  0.783400  0.933700  0.394500  1.0
  N  N1648  1  0.216600  0.066300  0.894500  1.0
  N  N1649  1  0.934500  0.703200  0.590600  1.0
  N  N1650  1  0.065500  0.296800  0.090600  1.0
  N  N1651  1  0.796800  0.434500  0.840600  1.0
  N  N1652  1  0.203200  0.565500  0.340600  1.0
  N  N1653  1  0.565500  0.203200  0.659400  1.0
  N  N1654  1  0.434500  0.796800  0.159400  1.0
  N  N1655  1  0.703200  0.934500  0.409400  1.0
  N  N1656  1  0.296800  0.065500  0.909400  1.0
  N  N1657  1  0.764300  0.708400  0.753100  1.0
  N  N1658  1  0.235700  0.291600  0.253100  1.0
  N  N1659  1  0.791600  0.264300  0.003100  1.0
  N  N1660  1  0.208400  0.735700  0.503100  1.0
  N  N1661  1  0.735700  0.208400  0.496900  1.0
  N  N1662  1  0.264300  0.791600  0.996900  1.0
  N  N1663  1  0.708400  0.764300  0.246900  1.0
  N  N1664  1  0.291600  0.235700  0.746900  1.0
  N  N1665  1  0.570800  0.913300  0.597200  1.0
  N  N1666  1  0.429200  0.086700  0.097200  1.0
  N  N1667  1  0.586700  0.070800  0.847200  1.0
  N  N1668  1  0.413300  0.929200  0.347200  1.0
  N  N1669  1  0.929200  0.413300  0.652800  1.0
  N  N1670  1  0.070800  0.586700  0.152800  1.0
  N  N1671  1  0.913300  0.570800  0.402800  1.0
  N  N1672  1  0.086700  0.429200  0.902800  1.0
  N  N1673  1  0.558000  0.589800  0.541200  1.0
  N  N1674  1  0.442000  0.410200  0.041200  1.0
  N  N1675  1  0.910200  0.058000  0.791200  1.0
  N  N1676  1  0.089800  0.942000  0.291200  1.0
  N  N1677  1  0.942000  0.089800  0.708800  1.0
  N  N1678  1  0.058000  0.910200  0.208800  1.0
  N  N1679  1  0.589800  0.558000  0.458800  1.0
  N  N1680  1  0.410200  0.442000  0.958800  1.0
  N  N1681  1  0.642900  0.772200  0.656800  1.0
  N  N1682  1  0.357100  0.227800  0.156800  1.0
  N  N1683  1  0.727800  0.142900  0.906800  1.0
  N  N1684  1  0.272200  0.857100  0.406800  1.0
  N  N1685  1  0.857100  0.272200  0.593200  1.0
  N  N1686  1  0.142900  0.727800  0.093200  1.0
  N  N1687  1  0.772200  0.642900  0.343200  1.0
  N  N1688  1  0.227800  0.357100  0.843200  1.0
  N  N1689  1  0.593100  0.742100  0.603100  1.0
  N  N1690  1  0.406900  0.257900  0.103100  1.0
  N  N1691  1  0.757900  0.093100  0.853100  1.0
  N  N1692  1  0.242100  0.906900  0.353100  1.0
  N  N1693  1  0.906900  0.242100  0.646900  1.0
  N  N1694  1  0.093100  0.757900  0.146900  1.0
  N  N1695  1  0.742100  0.593100  0.396900  1.0
  N  N1696  1  0.257900  0.406900  0.896900  1.0
  N  N1697  1  0.641900  0.692700  0.641000  1.0
  N  N1698  1  0.358100  0.307300  0.141000  1.0
  N  N1699  1  0.807300  0.141900  0.891000  1.0
  N  N1700  1  0.192700  0.858100  0.391000  1.0
  N  N1701  1  0.858100  0.192700  0.609000  1.0
  N  N1702  1  0.141900  0.807300  0.109000  1.0
  N  N1703  1  0.692700  0.641900  0.359000  1.0
  N  N1704  1  0.307300  0.358100  0.859000  1.0
  N  N1705  1  0.975800  0.602600  0.463800  1.0
  N  N1706  1  0.024200  0.397400  0.963800  1.0
  N  N1707  1  0.897400  0.475800  0.713800  1.0
  N  N1708  1  0.102600  0.524200  0.213800  1.0
  N  N1709  1  0.524200  0.102600  0.786200  1.0
  N  N1710  1  0.475800  0.897400  0.286200  1.0
  N  N1711  1  0.602600  0.975800  0.536200  1.0
  N  N1712  1  0.397400  0.024200  0.036200  1.0
  N  N1713  1  0.054500  0.998800  0.519900  1.0
  N  N1714  1  0.945500  0.001200  0.019900  1.0
  N  N1715  1  0.501200  0.554500  0.769900  1.0
  N  N1716  1  0.498800  0.445500  0.269900  1.0
  N  N1717  1  0.445500  0.498800  0.730100  1.0
  N  N1718  1  0.554500  0.501200  0.230100  1.0
  N  N1719  1  0.998800  0.054500  0.480100  1.0
  N  N1720  1  0.001200  0.945500  0.980100  1.0
  N  N1721  1  0.483800  0.517000  0.535400  1.0
  N  N1722  1  0.516200  0.483000  0.035400  1.0
  N  N1723  1  0.983000  0.983800  0.785400  1.0
  N  N1724  1  0.017000  0.016200  0.285400  1.0
  N  N1725  1  0.016200  0.017000  0.714600  1.0
  N  N1726  1  0.983800  0.983000  0.214600  1.0
  N  N1727  1  0.517000  0.483800  0.464600  1.0
  N  N1728  1  0.483000  0.516200  0.964600  1.0
  N  N1729  1  0.790700  0.678100  0.845000  1.0
  N  N1730  1  0.209300  0.321900  0.345000  1.0
  N  N1731  1  0.821900  0.290700  0.095000  1.0
  N  N1732  1  0.178100  0.709300  0.595000  1.0
  N  N1733  1  0.709300  0.178100  0.405000  1.0
  N  N1734  1  0.290700  0.821900  0.905000  1.0
  N  N1735  1  0.678100  0.790700  0.155000  1.0
  N  N1736  1  0.321900  0.209300  0.655000  1.0
  N  N1737  1  0.877600  0.685100  0.828000  1.0
  N  N1738  1  0.122400  0.314900  0.328000  1.0
  N  N1739  1  0.814900  0.377600  0.078000  1.0
  N  N1740  1  0.185100  0.622400  0.578000  1.0
  N  N1741  1  0.622400  0.185100  0.422000  1.0
  N  N1742  1  0.377600  0.814900  0.922000  1.0
  N  N1743  1  0.685100  0.877600  0.172000  1.0
  N  N1744  1  0.314900  0.122400  0.672000  1.0
  N  N1745  1  0.533200  0.044600  0.573800  1.0
  N  N1746  1  0.466800  0.955400  0.073800  1.0
  N  N1747  1  0.455400  0.033200  0.823800  1.0
  N  N1748  1  0.544600  0.966800  0.323800  1.0
  N  N1749  1  0.966800  0.544600  0.676200  1.0
  N  N1750  1  0.033200  0.455400  0.176200  1.0
  N  N1751  1  0.044600  0.533200  0.426200  1.0
  N  N1752  1  0.955400  0.466800  0.926200  1.0
  N  N1753  1  0.502500  0.982900  0.628000  1.0
  N  N1754  1  0.497500  0.017100  0.128000  1.0
  N  N1755  1  0.517100  0.002500  0.878000  1.0
  N  N1756  1  0.482900  0.997500  0.378000  1.0
  N  N1757  1  0.997500  0.482900  0.622000  1.0
  N  N1758  1  0.002500  0.517100  0.122000  1.0
  N  N1759  1  0.982900  0.502500  0.372000  1.0
  N  N1760  1  0.017100  0.497500  0.872000  1.0
  O  O1761  1  0.877200  0.579200  0.626500  1
  O  O1762  1  0.122800  0.420800  0.126500  1
  O  O1763  1  0.920800  0.377200  0.876500  1
  O  O1764  1  0.079200  0.622800  0.376500  1
  O  O1765  1  0.622800  0.079200  0.623500  1
  O  O1766  1  0.377200  0.920800  0.123500  1
  O  O1767  1  0.579200  0.877200  0.373500  1
  O  O1768  1  0.420800  0.122800  0.873500  1
  O  O1769  1  0.847700  0.515300  0.601800  1
  O  O1770  1  0.152300  0.484700  0.101800  1
  O  O1771  1  0.984700  0.347700  0.851800  1
  O  O1772  1  0.015300  0.652300  0.351800  1
  O  O1773  1  0.652300  0.015300  0.648200  1
  O  O1774  1  0.347700  0.984700  0.148200  1
  O  O1775  1  0.515300  0.847700  0.398200  1
  O  O1776  1  0.484700  0.152300  0.898200  1
  O  O1777  1  0.912600  0.539500  0.574900  1
  O  O1778  1  0.087400  0.460500  0.074900  1
  O  O1779  1  0.960500  0.412600  0.824900  1
  O  O1780  1  0.039500  0.587400  0.324900  1
  O  O1781  1  0.587400  0.039500  0.675100  1
  O  O1782  1  0.412600  0.960500  0.175100  1
  O  O1783  1  0.539500  0.912600  0.425100  1
  O  O1784  1  0.460500  0.087400  0.925100  1
  O  O1785  1  0.584900  0.875800  0.226700  1
  O  O1786  1  0.415100  0.124200  0.726700  1
  O  O1787  1  0.624200  0.084900  0.476700  1
  O  O1788  1  0.375800  0.915100  0.976700  1
  O  O1789  1  0.915100  0.375800  0.023300  1
  O  O1790  1  0.084900  0.624200  0.523300  1
  O  O1791  1  0.875800  0.584900  0.773300  1
  O  O1792  1  0.124200  0.415100  0.273300  1
  O  O1793  1  0.584200  0.806200  0.234800  1
  O  O1794  1  0.415800  0.193800  0.734800  1
  O  O1795  1  0.693800  0.084200  0.484800  1
  O  O1796  1  0.306200  0.915800  0.984800  1
  O  O1797  1  0.915800  0.306200  0.015200  1
  O  O1798  1  0.084200  0.693800  0.515200  1
  O  O1799  1  0.806200  0.584200  0.765200  1
  O  O1800  1  0.193800  0.415800  0.265200  1
  O  O1801  1  0.569600  0.837800  0.174900  1
  O  O1802  1  0.430400  0.162200  0.674900  1
  O  O1803  1  0.662200  0.069600  0.424900  1
  O  O1804  1  0.337800  0.930400  0.924900  1
  O  O1805  1  0.930400  0.337800  0.075100  1
  O  O1806  1  0.069600  0.662200  0.575100  1
  O  O1807  1  0.837800  0.569600  0.825100  1
  O  O1808  1  0.162200  0.430400  0.325100  1
  O  O1809  1  0.922400  0.454200  0.458000  1
  O  O1810  1  0.077600  0.545800  0.958000  1
  O  O1811  1  0.045800  0.422400  0.708000  1
  O  O1812  1  0.954200  0.577600  0.208000  1
  O  O1813  1  0.577600  0.954200  0.792000  1
  O  O1814  1  0.422400  0.045800  0.292000  1
  O  O1815  1  0.454200  0.922400  0.542000  1
  O  O1816  1  0.545800  0.077600  0.042000  1
  O  O1817  1  0.994800  0.424800  0.450000  1
  O  O1818  1  0.005200  0.575200  0.950000  1
  O  O1819  1  0.075200  0.494800  0.700000  1
  O  O1820  1  0.924800  0.505200  0.200000  1
  O  O1821  1  0.505200  0.924800  0.800000  1
  O  O1822  1  0.494800  0.075200  0.300000  1
  O  O1823  1  0.424800  0.994800  0.550000  1
  O  O1824  1  0.575200  0.005200  0.050000  1
  O  O1825  1  0.979800  0.472500  0.500200  1
  O  O1826  1  0.020200  0.527500  0.000200  1
  O  O1827  1  0.027500  0.479800  0.750200  1
  O  O1828  1  0.972500  0.520200  0.250200  1
  O  O1829  1  0.520200  0.972500  0.749800  1
  O  O1830  1  0.479800  0.027500  0.249800  1
  O  O1831  1  0.472500  0.979800  0.499800  1
  O  O1832  1  0.527500  0.020200  0.999800  1
  O  O1833  1  0.103500  0.939400  0.440500  1
  O  O1834  1  0.896500  0.060600  0.940500  1
  O  O1835  1  0.560600  0.603500  0.690500  1
  O  O1836  1  0.439400  0.396500  0.190500  1
  O  O1837  1  0.396500  0.439400  0.809500  1
  O  O1838  1  0.603500  0.560600  0.309500  1
  O  O1839  1  0.939400  0.103500  0.559500  1
  O  O1840  1  0.060600  0.896500  0.059500  1
  O  O1841  1  0.081000  0.003300  0.408400  1
  O  O1842  1  0.919000  0.996700  0.908400  1
  O  O1843  1  0.496700  0.581000  0.658400  1
  O  O1844  1  0.503300  0.419000  0.158400  1
  O  O1845  1  0.419000  0.503300  0.841600  1
  O  O1846  1  0.581000  0.496700  0.341600  1
  O  O1847  1  0.003300  0.081000  0.591600  1
  O  O1848  1  0.996700  0.919000  0.091600  1
  O  O1849  1  0.034100  0.944600  0.407800  1
  O  O1850  1  0.965900  0.055400  0.907800  1
  O  O1851  1  0.555400  0.534100  0.657800  1
  O  O1852  1  0.444600  0.465900  0.157800  1
  O  O1853  1  0.465900  0.444600  0.842200  1
  O  O1854  1  0.534100  0.555400  0.342200  1
  O  O1855  1  0.944600  0.034100  0.592200  1
  O  O1856  1  0.055400  0.965900  0.092200  1
  O  O1857  1  0.941700  0.939900  0.328300  1
  O  O1858  1  0.058300  0.060100  0.828300  1
  O  O1859  1  0.560100  0.441700  0.578300  1
  O  O1860  1  0.439900  0.558300  0.078300  1
  O  O1861  1  0.558300  0.439900  0.921700  1
  O  O1862  1  0.441700  0.560100  0.421700  1
  O  O1863  1  0.939900  0.941700  0.671700  1
  O  O1864  1  0.060100  0.058300  0.171700  1
  O  O1865  1  0.912600  0.907900  0.268000  1
  O  O1866  1  0.087400  0.092100  0.768000  1
  O  O1867  1  0.592100  0.412600  0.518000  1
  O  O1868  1  0.407900  0.587400  0.018000  1
  O  O1869  1  0.587400  0.407900  0.982000  1
  O  O1870  1  0.412600  0.592100  0.482000  1
  O  O1871  1  0.907900  0.912600  0.732000  1
  O  O1872  1  0.092100  0.087400  0.232000  1
  O  O1873  1  0.968500  0.875200  0.300300  1
  O  O1874  1  0.031500  0.124800  0.800300  1
  O  O1875  1  0.624800  0.468500  0.550300  1
  O  O1876  1  0.375200  0.531500  0.050300  1
  O  O1877  1  0.531500  0.375200  0.949700  1
  O  O1878  1  0.468500  0.624800  0.449700  1
  O  O1879  1  0.875200  0.968500  0.699700  1
  O  O1880  1  0.124800  0.031500  0.199700  1
  O  O1881  1  0.867000  0.884000  0.234600  1
  O  O1882  1  0.133000  0.116000  0.734600  1
  O  O1883  1  0.616000  0.367000  0.484600  1
  O  O1884  1  0.384000  0.633000  0.984600  1
  O  O1885  1  0.633000  0.384000  0.015400  1
  O  O1886  1  0.367000  0.616000  0.515400  1
  O  O1887  1  0.884000  0.867000  0.765400  1
  O  O1888  1  0.116000  0.133000  0.265400  1
  O  O1889  1  0.920100  0.853000  0.213800  1
  O  O1890  1  0.079900  0.147000  0.713800  1
  O  O1891  1  0.647000  0.420100  0.463800  1
  O  O1892  1  0.353000  0.579900  0.963800  1
  O  O1893  1  0.579900  0.353000  0.036200  1
  O  O1894  1  0.420100  0.647000  0.536200  1
  O  O1895  1  0.853000  0.920100  0.786200  1
  O  O1896  1  0.147000  0.079900  0.286200  1
  O  O1897  1  0.973000  0.748600  0.200000  1
  O  O1898  1  0.027000  0.251400  0.700000  1
  O  O1899  1  0.751400  0.473000  0.450000  1
  O  O1900  1  0.248600  0.527000  0.950000  1
  O  O1901  1  0.527000  0.248600  0.050000  1
  O  O1902  1  0.473000  0.751400  0.550000  1
  O  O1903  1  0.748600  0.973000  0.800000  1
  O  O1904  1  0.251400  0.027000  0.300000  1
  O  O1905  1  0.841600  0.043700  0.335500  1
  O  O1906  1  0.158400  0.956300  0.835500  1
  O  O1907  1  0.456300  0.341600  0.585500  1
  O  O1908  1  0.543700  0.658400  0.085500  1
  O  O1909  1  0.658400  0.543700  0.914500  1
  O  O1910  1  0.341600  0.456300  0.414500  1
  O  O1911  1  0.043700  0.841600  0.664500  1
  O  O1912  1  0.956300  0.158400  0.164500  1
  O  O1913  1  0.677500  0.876700  0.728600  1
  O  O1914  1  0.322500  0.123300  0.228600  1
  O  O1915  1  0.623300  0.177500  0.978600  1
  O  O1916  1  0.376700  0.822500  0.478600  1
  O  O1917  1  0.822500  0.376700  0.521400  1
  O  O1918  1  0.177500  0.623300  0.021400  1
  O  O1919  1  0.876700  0.677500  0.271400  1
  O  O1920  1  0.123300  0.322500  0.771400  1
  O  O1921  1  0.581500  0.795300  0.323100  1
  O  O1922  1  0.418500  0.204700  0.823100  1
  O  O1923  1  0.704700  0.081500  0.573100  1
  O  O1924  1  0.295300  0.918500  0.073100  1
  O  O1925  1  0.918500  0.295300  0.926900  1
  O  O1926  1  0.081500  0.704700  0.426900  1
  O  O1927  1  0.795300  0.581500  0.676900  1
  O  O1928  1  0.204700  0.418500  0.176900  1
  O  O1929  1  0.699000  0.646600  0.196200  1
  O  O1930  1  0.301000  0.353400  0.696200  1
  O  O1931  1  0.853400  0.199000  0.446200  1
  O  O1932  1  0.146600  0.801000  0.946200  1
  O  O1933  1  0.801000  0.146600  0.053800  1
  O  O1934  1  0.199000  0.853400  0.553800  1
  O  O1935  1  0.646600  0.699000  0.803800  1
  O  O1936  1  0.353400  0.301000  0.303800  1
  O  O1937  1  0.597000  0.833500  0.754300  1
  O  O1938  1  0.403000  0.166500  0.254300  1
  O  O1939  1  0.666500  0.097000  0.004300  1
  O  O1940  1  0.333500  0.903000  0.504300  1
  O  O1941  1  0.903000  0.333500  0.495700  1
  O  O1942  1  0.097000  0.666500  0.995700  1
  O  O1943  1  0.833500  0.597000  0.245700  1
  O  O1944  1  0.166500  0.403000  0.745700  1
  O  O1945  1  0.820400  0.819400  0.196000  1
  O  O1946  1  0.179600  0.180600  0.696000  1
  O  O1947  1  0.680600  0.320400  0.446000  1
  O  O1948  1  0.319400  0.679600  0.946000  1
  O  O1949  1  0.679600  0.319400  0.054000  1
  O  O1950  1  0.320400  0.680600  0.554000  1
  O  O1951  1  0.819400  0.820400  0.804000  1
  O  O1952  1  0.180600  0.179600  0.304000  1
  O  O1953  1  0.083300  0.853500  0.462100  1
  O  O1954  1  0.916700  0.146500  0.962100  1
  O  O1955  1  0.646500  0.583300  0.712100  1
  O  O1956  1  0.353500  0.416700  0.212100  1
  O  O1957  1  0.416700  0.353500  0.787900  1
  O  O1958  1  0.583300  0.646500  0.287900  1
  O  O1959  1  0.853500  0.083300  0.537900  1
  O  O1960  1  0.146500  0.916700  0.037900  1
  O  O1961  1  0.753400  0.027800  0.342400  1
  O  O1962  1  0.246600  0.972200  0.842400  1
  O  O1963  1  0.472200  0.253400  0.592400  1
  O  O1964  1  0.527800  0.746600  0.092400  1
  O  O1965  1  0.746600  0.527800  0.907600  1
  O  O1966  1  0.253400  0.472200  0.407600  1
  O  O1967  1  0.027800  0.753400  0.657600  1
  O  O1968  1  0.972200  0.246600  0.157600  1
  O  O1969  1  0.857700  0.467600  0.520400  1
  O  O1970  1  0.142300  0.532400  0.020400  1
  O  O1971  1  0.032400  0.357700  0.770400  1
  O  O1972  1  0.967600  0.642300  0.270400  1
  O  O1973  1  0.642300  0.967600  0.729600  1
  O  O1974  1  0.357700  0.032400  0.229600  1
  O  O1975  1  0.467600  0.857700  0.479600  1
  O  O1976  1  0.532400  0.142300  0.979600  1
  O  O1977  1  0.009400  0.731100  0.251000  1
  O  O1978  1  0.990600  0.268900  0.751000  1
  O  O1979  1  0.768900  0.509400  0.501000  1
  O  O1980  1  0.231100  0.490600  0.001000  1
  O  O1981  1  0.490600  0.231100  0.999000  1
  O  O1982  1  0.509400  0.768900  0.499000  1
  O  O1983  1  0.731100  0.009400  0.749000  1
  O  O1984  1  0.268900  0.990600  0.249000  1
  O  O1985  1  0.732800  0.587300  0.244000  1
  O  O1986  1  0.267200  0.412700  0.744000  1
  O  O1987  1  0.912700  0.232800  0.494000  1
  O  O1988  1  0.087300  0.767200  0.994000  1
  O  O1989  1  0.767200  0.087300  0.006000  1
  O  O1990  1  0.232800  0.912700  0.506000  1
  O  O1991  1  0.587300  0.732800  0.756000  1
  O  O1992  1  0.412700  0.267200  0.256000  1
  O  O1993  1  0.722600  0.999400  0.257200  1
  O  O1994  1  0.277400  0.000600  0.757200  1
  O  O1995  1  0.500600  0.222600  0.507200  1
  O  O1996  1  0.499400  0.777400  0.007200  1
  O  O1997  1  0.777400  0.499400  0.992800  1
  O  O1998  1  0.222600  0.500600  0.492800  1
  O  O1999  1  0.999400  0.722600  0.742800  1
  O  O2000  1  0.000600  0.277400  0.242800  1
  O  O2001  1  0.741300  0.214000  0.240600  1
  O  O2002  1  0.258700  0.786000  0.740600  1
  O  O2003  1  0.286000  0.241300  0.490600  1
  O  O2004  1  0.714000  0.758700  0.990600  1
  O  O2005  1  0.758700  0.714000  0.009400  1
  O  O2006  1  0.241300  0.286000  0.509400  1
  O  O2007  1  0.214000  0.741300  0.759400  1
  O  O2008  1  0.786000  0.258700  0.259400  1
  O  O2009  1  0.827100  0.104100  0.466100  1
  O  O2010  1  0.172900  0.895900  0.966100  1
  O  O2011  1  0.395900  0.327100  0.716100  1
  O  O2012  1  0.604100  0.672900  0.216100  1
  O  O2013  1  0.672900  0.604100  0.783900  1
  O  O2014  1  0.327100  0.395900  0.283900  1
  O  O2015  1  0.104100  0.827100  0.533900  1
  O  O2016  1  0.895900  0.172900  0.033900  1
  O  O2017  1  0.630000  0.262300  0.344500  1
  O  O2018  1  0.370000  0.737700  0.844500  1
  O  O2019  1  0.237700  0.130000  0.594500  1
  O  O2020  1  0.762300  0.870000  0.094500  1
  O  O2021  1  0.870000  0.762300  0.905500  1
  O  O2022  1  0.130000  0.237700  0.405500  1
  O  O2023  1  0.262300  0.630000  0.655500  1
  O  O2024  1  0.737700  0.370000  0.155500  1
  O  O2025  1  0.566000  0.294000  0.370000  1
  O  O2026  1  0.434000  0.706000  0.870000  1
  O  O2027  1  0.206000  0.066000  0.620000  1
  O  O2028  1  0.794000  0.934000  0.120000  1
  O  O2029  1  0.934000  0.794000  0.880000  1
  O  O2030  1  0.066000  0.206000  0.380000  1
  O  O2031  1  0.294000  0.566000  0.630000  1
  O  O2032  1  0.706000  0.434000  0.130000  1
  O  O2033  1  0.799000  0.008000  0.142500  1
  O  O2034  1  0.201000  0.992000  0.642500  1
  O  O2035  1  0.492000  0.299000  0.392500  1
  O  O2036  1  0.508000  0.701000  0.892500  1
  O  O2037  1  0.701000  0.508000  0.107500  1
  O  O2038  1  0.299000  0.492000  0.607500  1
  O  O2039  1  0.008000  0.799000  0.857500  1
  O  O2040  1  0.992000  0.201000  0.357500  1
  O  O2041  1  0.745900  0.027500  0.087300  1
  O  O2042  1  0.254100  0.972500  0.587300  1
  O  O2043  1  0.472500  0.245900  0.337300  1
  O  O2044  1  0.527500  0.754100  0.837300  1
  O  O2045  1  0.754100  0.527500  0.162700  1
  O  O2046  1  0.245900  0.472500  0.662700  1
  O  O2047  1  0.027500  0.745900  0.912700  1
  O  O2048  1  0.972500  0.254100  0.412700  1
  O  O2049  1  0.769500  0.046900  0.407800  1
  O  O2050  1  0.230500  0.953100  0.907800  1
  O  O2051  1  0.453100  0.269500  0.657800  1
  O  O2052  1  0.546900  0.730500  0.157800  1
  O  O2053  1  0.730500  0.546900  0.842200  1
  O  O2054  1  0.269500  0.453100  0.342200  1
  O  O2055  1  0.046900  0.769500  0.592200  1
  O  O2056  1  0.953100  0.230500  0.092200  1
  O  O2057  1  0.830300  0.100500  0.133400  1
  O  O2058  1  0.169700  0.899500  0.633400  1
  O  O2059  1  0.399500  0.330300  0.383400  1
  O  O2060  1  0.600500  0.669700  0.883400  1
  O  O2061  1  0.669700  0.600500  0.116600  1
  O  O2062  1  0.330300  0.399500  0.616600  1
  O  O2063  1  0.100500  0.830300  0.866600  1
  O  O2064  1  0.899500  0.169700  0.366600  1
  O  O2065  1  0.577000  0.372000  0.125000  1
  O  O2066  1  0.423000  0.628000  0.625000  1
  O  O2067  1  0.128000  0.077000  0.375000  1
  O  O2068  1  0.872000  0.923000  0.875000  1
  O  O2069  1  0.923000  0.872000  0.125000  1
  O  O2070  1  0.077000  0.128000  0.625000  1
  O  O2071  1  0.372000  0.577000  0.875000  1
  O  O2072  1  0.628000  0.423000  0.375000  1
  O  O2073  1  0.845700  0.510200  0.311800  1
  O  O2074  1  0.154300  0.489800  0.811800  1
  O  O2075  1  0.989800  0.345700  0.561800  1
  O  O2076  1  0.010200  0.654300  0.061800  1
  O  O2077  1  0.654300  0.010200  0.938200  1
  O  O2078  1  0.345700  0.989800  0.438200  1
  O  O2079  1  0.510200  0.845700  0.688200  1
  O  O2080  1  0.489800  0.154300  0.188200  1
  O  O2081  1  0.920000  0.321000  0.362000  1
  O  O2082  1  0.080000  0.679000  0.862000  1
  O  O2083  1  0.179000  0.420000  0.612000  1
  O  O2084  1  0.821000  0.580000  0.112000  1
  O  O2085  1  0.580000  0.821000  0.888000  1
  O  O2086  1  0.420000  0.179000  0.388000  1
  O  O2087  1  0.321000  0.920000  0.638000  1
  O  O2088  1  0.679000  0.080000  0.138000  1
  O  O2089  1  0.656200  0.343800  0.250000  1
  O  O2090  1  0.343800  0.656200  0.750000  1
  O  O2091  1  0.156200  0.156200  0.500000  1
  O  O2092  1  0.843800  0.843800  0.000000  1
  O  O2093  1  0.699700  0.540100  0.309500  1
  O  O2094  1  0.300300  0.459900  0.809500  1
  O  O2095  1  0.959900  0.199700  0.559500  1
  O  O2096  1  0.040100  0.800300  0.059500  1
  O  O2097  1  0.800300  0.040100  0.940500  1
  O  O2098  1  0.199700  0.959900  0.440500  1
  O  O2099  1  0.540100  0.699700  0.690500  1
  O  O2100  1  0.459900  0.300300  0.190500  1
  O  O2101  1  0.882900  0.082300  0.381300  1
  O  O2102  1  0.117100  0.917700  0.881300  1
  O  O2103  1  0.417700  0.382900  0.631300  1
  O  O2104  1  0.582300  0.617100  0.131300  1
  O  O2105  1  0.617100  0.582300  0.868700  1
  O  O2106  1  0.382900  0.417700  0.368700  1
  O  O2107  1  0.082300  0.882900  0.618700  1
  O  O2108  1  0.917700  0.117100  0.118700  1
  O  O2109  1  0.806500  0.992700  0.223300  1
  O  O2110  1  0.193500  0.007300  0.723300  1
  O  O2111  1  0.507300  0.306500  0.473300  1
  O  O2112  1  0.492700  0.693500  0.973300  1
  O  O2113  1  0.693500  0.492700  0.026700  1
  O  O2114  1  0.306500  0.507300  0.526700  1
  O  O2115  1  0.992700  0.806500  0.776700  1
  O  O2116  1  0.007300  0.193500  0.276700  1
  O  O2117  1  0.847600  0.979000  0.279500  1
  O  O2118  1  0.152400  0.021000  0.779500  1
  O  O2119  1  0.521000  0.347600  0.529500  1
  O  O2120  1  0.479000  0.652400  0.029500  1
  O  O2121  1  0.652400  0.479000  0.970500  1
  O  O2122  1  0.347600  0.521000  0.470500  1
  O  O2123  1  0.979000  0.847600  0.720500  1
  O  O2124  1  0.021000  0.152400  0.220500  1
  O  O2125  1  0.079000  0.402000  0.480200  1
  O  O2126  1  0.921000  0.598000  0.980200  1
  O  O2127  1  0.098000  0.579000  0.730200  1
  O  O2128  1  0.902000  0.421000  0.230200  1
  O  O2129  1  0.421000  0.902000  0.769800  1
  O  O2130  1  0.579000  0.098000  0.269800  1
  O  O2131  1  0.402000  0.079000  0.519800  1
  O  O2132  1  0.598000  0.921000  0.019800  1
  O  O2133  1  0.729600  0.798800  0.636800  1
  O  O2134  1  0.270400  0.201200  0.136800  1
  O  O2135  1  0.701200  0.229600  0.886800  1
  O  O2136  1  0.298800  0.770400  0.386800  1
  O  O2137  1  0.770400  0.298800  0.613200  1
  O  O2138  1  0.229600  0.701200  0.113200  1
  O  O2139  1  0.798800  0.729600  0.363200  1
  O  O2140  1  0.201200  0.270400  0.863200  1
  O  O2141  1  0.859800  0.821000  0.550900  1
  O  O2142  1  0.140200  0.179000  0.050900  1
  O  O2143  1  0.679000  0.359800  0.800900  1
  O  O2144  1  0.321000  0.640200  0.300900  1
  O  O2145  1  0.640200  0.321000  0.699100  1
  O  O2146  1  0.359800  0.679000  0.199100  1
  O  O2147  1  0.821000  0.859800  0.449100  1
  O  O2148  1  0.179000  0.140200  0.949100  1
  O  O2149  1  0.672000  0.276200  0.377000  1
  O  O2150  1  0.328000  0.723800  0.877000  1
  O  O2151  1  0.223800  0.172000  0.627000  1
  O  O2152  1  0.776200  0.828000  0.127000  1
  O  O2153  1  0.828000  0.776200  0.873000  1
  O  O2154  1  0.172000  0.223800  0.373000  1
  O  O2155  1  0.276200  0.672000  0.623000  1
  O  O2156  1  0.723800  0.328000  0.123000  1
  O  O2157  1  0.485000  0.290000  0.359000  1
  O  O2158  1  0.515000  0.710000  0.859000  1
  O  O2159  1  0.210000  0.985000  0.609000  1
  O  O2160  1  0.790000  0.015000  0.109000  1
  O  O2161  1  0.015000  0.790000  0.891000  1
  O  O2162  1  0.985000  0.210000  0.391000  1
  O  O2163  1  0.290000  0.485000  0.641000  1
  O  O2164  1  0.710000  0.515000  0.141000  1
  O  O2165  1  0.841000  0.711900  0.576100  1
  O  O2166  1  0.159000  0.288100  0.076100  1
  O  O2167  1  0.788100  0.341000  0.826100  1
  O  O2168  1  0.211900  0.659000  0.326100  1
  O  O2169  1  0.659000  0.211900  0.673900  1
  O  O2170  1  0.341000  0.788100  0.173900  1
  O  O2171  1  0.711900  0.841000  0.423900  1
  O  O2172  1  0.288100  0.159000  0.923900  1
  O  O2173  1  0.686200  0.731000  0.541100  1
  O  O2174  1  0.313800  0.269000  0.041100  1
  O  O2175  1  0.769000  0.186200  0.791100  1
  O  O2176  1  0.231000  0.813800  0.291100  1
  O  O2177  1  0.813800  0.231000  0.708900  1
  O  O2178  1  0.186200  0.769000  0.208900  1
  O  O2179  1  0.731000  0.686200  0.458900  1
  O  O2180  1  0.269000  0.313800  0.958900  1
