
#######################################################################
#
#                 Cambridge Crystallographic Data Centre
#                                CCDC 
#
#######################################################################
#
# If this CIF has been generated from an entry in the Cambridge 
# Structural Database, then it will include bibliographic, chemical, 
# crystal, experimental, refinement or atomic coordinate data resulting 
# from the CCDC's data processing and validation procedures.
#
#######################################################################

data_NAVXAL
_chemical_formula_moiety         
'C78 H82 N10 O12 Ru4 4+,4(C1 F3 O3 S1 1-),2.5(C2 H3 N1)'
_chemical_name_systematic        
"bis(\m~2~-N,N'-di(pyridin-4-yl)pyridine-2,6-dicarboxamide)-bis(\m~2~-oxalato)-tetrakis(\h^6^-1-isopropyl-4-methylbenzene)-tetra-ruthenium tetrakis(trifluoromethanesulfonate) acetonitrile solvate"
_symmetry_cell_setting           triclinic
_symmetry_space_group_name_H-M   'P -1'
_symmetry_Int_Tables_number      2
_space_group_name_Hall           '-P 1'
loop_
_symmetry_equiv_pos_site_id
_symmetry_equiv_pos_as_xyz
1 x,y,z
2 -x,-y,-z
_cell_length_a                   16.255(3)
_cell_length_b                   17.304(4)
_cell_length_c                   21.415(4)
_cell_angle_alpha                78.93(3)
_cell_angle_beta                 70.96(3)
_cell_angle_gamma                74.07(3)
_cell_volume                     5440.43
_cell_formula_units_Z            2
loop_
_atom_site_label
_atom_site_type_symbol
_atom_site_fract_x
_atom_site_fract_y
_atom_site_fract_z
S1 S 0.3165(7) -1.2352(5) 0.7514(6)
F1 F 0.2902(12) -1.3789(9) 0.7653(9)
F2 F 0.3784(13) -1.3634(8) 0.8208(12)
F3 F 0.2407(18) -1.3216(12) 0.8587(13)
O13 O 0.3900(12) -1.2655(16) 0.6878(11)
O14 O 0.2379(16) -1.2054(9) 0.7381(7)
O15 O 0.3442(12) -1.1900(9) 0.7914(7)
C79 C 0.316(4) -1.359(4) 0.788(2)
S2 S 0.8349(5) -1.4005(4) 1.2581(4)
F4 F 0.8093(11) -1.5473(8) 1.2924(8)
F5 F 0.8965(12) -1.5172(8) 1.3318(7)
F6 F 0.7556(9) -1.4635(7) 1.3707(7)
O16 O 0.9154(13) -1.4363(9) 1.2003(9)
O17 O 0.7550(9) -1.3720(8) 1.2442(7)
O18 O 0.8599(9) -1.3483(8) 1.2921(7)
C80 C 0.827(2) -1.4865(16) 1.3125(17)
S3 S 0.4921(6) -1.3093(5) 0.1083(6)
F7 F 0.5891(10) -1.4474(9) 0.1434(12)
F8 F 0.4556(17) -1.4258(10) 0.1988(14)
F9 F 0.4899(10) -1.4616(9) 0.1077(11)
O19 O 0.5458(16) -1.3128(11) 0.0410(13)
O20 O 0.3997(11) -1.2842(10) 0.1102(11)
O21 O 0.5254(11) -1.2715(10) 0.1461(8)
C81 C 0.519(3) -1.4171(17) 0.1333(19)
Ru1 Ru 0.48863(11) -1.33706(9) 0.40114(8)
Ru2 Ru 0.74913(11) -1.33785(9) 0.51357(8)
Ru3 Ru 0.12559(11) -1.33941(9) 1.13886(8)
Ru4 Ru -0.13346(11) -1.32851(8) 1.02259(8)
O1 O 0.5103(12) -0.9659(7) 0.6397(9)
O2 O 0.1940(10) -0.9666(7) 0.9568(9)
O3 O 0.3341(12) -0.9801(8) 0.5627(9)
O4 O 0.0294(10) -0.9717(9) 0.8745(8)
N1 N 0.6493(12) -1.2549(11) 0.5694(9)
N2 N 0.4702(12) -1.0804(13) 0.6962(9)
H1 H 0.4352 -1.1021 0.7319
N3 N 0.3485(14) -0.9980(10) 0.8015(12)
N4 N 0.2532(14) -1.0800(11) 0.9002(9)
H2 H 0.2833 -1.0970 0.8612
N5 N 0.1608(13) -1.2533(10) 1.0579(11)
N6 N 0.4232(11) -1.2551(9) 0.4697(9)
N7 N 0.2879(10) -1.0921(11) 0.6103(9)
H3 H 0.2511 -1.1153 0.6438
N8 N 0.1844(15) -1.0105(11) 0.7229(13)
N9 N 0.0843(12) -1.0843(12) 0.8204(10)
H4 H 0.1227 -1.1023 0.7836
N10 N -0.0601(12) -1.2490(9) 0.9583(9)
C1 C 0.6082(17) -1.2745(13) 0.6360(14)
H5 H 0.6200 -1.3297 0.6538
C2 C 0.6252(17) -1.1771(17) 0.5472(11)
H6 H 0.6516 -1.1617 0.5015
C3 C 0.5514(18) -1.2191(13) 0.6777(15)
H7 H 0.5280 -1.2352 0.7238
C4 C 0.565(2) -1.1160(15) 0.5839(14)
H8 H 0.5508 -1.0622 0.5636
C5 C 0.5280(17) -1.1364(14) 0.6508(18)
C6 C 0.4601(17) -1.0027(14) 0.6940(14)
C7 C 0.4029(16) -0.9601(13) 0.7446(15)
C8 C 0.3937(15) -0.8744(15) 0.7444(12)
H9 H 0.4330 -0.8483 0.7087
C9 C 0.3324(17) -0.8284(14) 0.7918(13)
H10 H 0.3240 -0.7713 0.7878
C10 C 0.2815(14) -0.8729(13) 0.8486(12)
H11 H 0.2397 -0.8464 0.8851
C11 C 0.2961(15) -0.9569(12) 0.8478(13)
C12 C 0.242(2) -0.9987(16) 0.9080(15)
C13 C 0.219(2) -1.1330(17) 0.951(2)
C14 C 0.152(2) -1.1161(13) 1.0038(16)
H12 H 0.1185 -1.0618 1.0070
C15 C 0.259(2) -1.2181(16) 0.9536(16)
H13 H 0.3100 -1.2379 0.9185
C16 C 0.1276(15) -1.1754(17) 1.0555(12)
H14 H 0.0814 -1.1569 1.0936
C17 C 0.226(2) -1.2708(16) 1.0051(17)
H15 H 0.2526 -1.3265 1.0019
C18 C 0.4359(19) -1.1804(17) 0.4569(13)
H16 H 0.4740 -1.1659 0.4146
C19 C 0.3623(16) -1.2698(11) 0.5264(13)
H17 H 0.3484 -1.3214 0.5346
C20 C 0.3994(15) -1.1242(15) 0.4988(14)
H18 H 0.4163 -1.0737 0.4883
C21 C 0.3151(15) -1.2170(14) 0.5768(12)
H19 H 0.2742 -1.2314 0.6179
C22 C 0.3371(19) -1.1405(11) 0.5574(17)
C23 C 0.2888(15) -1.0134(19) 0.6178(15)
C24 C 0.232(2) -0.9676(17) 0.6740(18)
C25 C 0.2362(18) -0.8853(12) 0.6700(16)
H20 H 0.2736 -0.8610 0.6316
C26 C 0.1873(16) -0.8432(13) 0.7203(13)
H21 H 0.1877 -0.7885 0.7209
C27 C 0.1325(15) -0.8886(15) 0.7750(12)
H22 H 0.0938 -0.8637 0.8133
C28 C 0.1378(19) -0.9658(13) 0.7704(18)
C29 C 0.078(2) -1.0070(13) 0.8261(17)
C30 C 0.0377(15) -1.1428(18) 0.8654(13)
C31 C -0.0179(16) -1.1219(12) 0.9271(13)
H23 H -0.0237 -1.0706 0.9398
C32 C 0.0419(12) -1.2152(12) 0.8512(12)
H24 H 0.0778 -1.2317 0.8090
C33 C -0.0657(12) -1.1767(14) 0.9705(11)
H25 H -0.1049 -1.1598 1.0118
C34 C -0.0061(17) -1.2680(12) 0.8977(14)
H26 H -0.0003 -1.3198 0.8860
C35 C 0.133(2) -1.4443(14) 1.2121(14)
H27 H 0.1009 -1.4866 1.2134
C36 C 0.0821(14) -1.3713(14) 1.2492(11)
H28 H 0.0173 -1.3648 1.2744
C37 C 0.1217(17) -1.3062(12) 1.2316(11)
C38 C 0.2130(15) -1.3155(14) 1.1845(12)
H29 H 0.2414 -1.2681 1.1669
C39 C 0.2500(12) -1.3844(15) 1.1605(13)
H30 H 0.3032 -1.3826 1.1206
C40 C 0.2163(19) -1.4464(13) 1.1675(13)
C41 C 0.0691(14) -1.2254(12) 1.2616(10)
H31 H 0.0839 -1.2243 1.3022
H32 H 0.0047 -1.2213 1.2722
H33 H 0.0854 -1.1798 1.2292
C42 C 0.260(2) -1.5248(14) 1.1347(17)
H34 H 0.2103 -1.5472 1.1325
C43 C 0.3178(18) -1.5118(14) 1.0655(13)
H35 H 0.2828 -1.4729 1.0387
H36 H 0.3412 -1.5633 1.0463
H37 H 0.3676 -1.4905 1.0660
C44 C 0.309(3) -1.5870(15) 1.184(2)
H38 H 0.3389 -1.6378 1.1648
H39 H 0.2642 -1.5977 1.2268
H40 H 0.3526 -1.5637 1.1920
C45 C -0.1923(16) -1.4334(14) 1.0531(17)
C46 C -0.2544(16) -1.3626(14) 1.0867(13)
H41 H -0.2694 -1.3637 1.1360
C47 C -0.2790(15) -1.2918(12) 1.0487(17)
H42 H -0.3088 -1.2420 1.0718
C48 C -0.2496(18) -1.2820(14) 0.9814(13)
C49 C -0.1889(14) -1.3500(15) 0.9514(12)
H43 H -0.1550 -1.3398 0.9036
C50 C -0.1600(16) -1.4222(14) 0.9835(11)
H44 H -0.1095 -1.4635 0.9591
C51 C -0.1609(15) -1.5132(13) 1.0972(14)
H45 H -0.1990 -1.5506 1.1029
H46 H -0.1653 -1.4999 1.1409
H47 H -0.0987 -1.5386 1.0754
C52 C -0.279(2) -1.2029(11) 0.9388(13)
H48 H -0.2241 -1.1910 0.9040
C53 C -0.334(3) -1.219(2) 0.9062(15)
H49 H -0.3002 -1.2624 0.8784
H50 H -0.3538 -1.1698 0.8783
H51 H -0.3861 -1.2348 0.9393
C54 C -0.3200(15) -1.1307(11) 0.9823(13)
H52 H -0.3347 -1.0804 0.9539
H53 H -0.2767 -1.1262 1.0034
H54 H -0.3745 -1.1403 1.0166
C55 C 0.5095(18) -1.4535(15) 0.3598(11)
C56 C 0.4238(18) -1.4308(15) 0.4000(12)
H55 H 0.4060 -1.4660 0.4426
C57 C 0.3619(14) -1.3490(12) 0.3921(10)
H56 H 0.3049 -1.3330 0.4279
C58 C 0.394(2) -1.2915(13) 0.3420(16)
C59 C 0.479(2) -1.3123(14) 0.3032(12)
H57 H 0.5053 -1.2671 0.2748
C60 C 0.545(2) -1.3943(17) 0.3105(17)
H58 H 0.6102 -1.4029 0.2859
C61 C 0.5688(14) -1.5318(11) 0.3732(10)
H59 H 0.5648 -1.5714 0.3478
H60 H 0.5505 -1.5505 0.4208
H61 H 0.6305 -1.5256 0.3599
C62 C 0.3296(18) -1.2130(14) 0.3349(14)
H62 H 0.2963 -1.1962 0.3803
C63 C 0.3831(19) -1.1415(17) 0.2906(14)
H63 H 0.3396 -1.0899 0.2878
H64 H 0.4155 -1.1566 0.2457
H65 H 0.4255 -1.1359 0.3122
C64 C 0.264(2) -1.2194(16) 0.303(2)
H66 H 0.2312 -1.2604 0.3288
H67 H 0.2955 -1.2351 0.2577
H68 H 0.2216 -1.1671 0.2997
C65 C 0.8755(13) -1.3034(13) 0.4806(17)
C66 C 0.8479(12) -1.3163(15) 0.5520(13)
H69 H 0.8310 -1.2685 0.5771
C67 C 0.8276(13) -1.3818(15) 0.5837(11)
H70 H 0.7955 -1.3828 0.6323
C68 C 0.8313(15) -1.4428(15) 0.5523(15)
C69 C 0.8575(14) -1.4422(13) 0.4825(14)
H71 H 0.8499 -1.4853 0.4611
C70 C 0.8815(11) -1.3701(16) 0.4449(11)
H72 H 0.8898 -1.3609 0.3959
C71 C 0.8966(13) -1.2284(12) 0.4290(13)
H73 H 0.9577 -1.2242 0.4233
H74 H 0.8543 -1.1790 0.4453
H75 H 0.8912 -1.2351 0.3862
C72 C 0.8057(14) -1.5248(13) 0.5844(11)
H76 H 0.7822 -1.5466 0.5553
C73 C 0.7383(18) -1.5141(12) 0.6536(15)
H77 H 0.6811 -1.4800 0.6488
H78 H 0.7613 -1.4884 0.6793
H79 H 0.7294 -1.5671 0.6767
C74 C 0.8895(15) -1.5834(15) 0.5983(16)
H80 H 0.9349 -1.5960 0.5561
H81 H 0.8738 -1.6334 0.6238
H82 H 0.9133 -1.5583 0.6239
C75 C 0.6316(16) -1.3042(11) 0.4288(11)
C76 C 0.6074(14) -1.3736(15) 0.4757(13)
C77 C -0.0398(17) -1.3011(12) 1.1061(11)
C78 C 0.0178(17) -1.3654(15) 1.0658(11)
O5 O 0.6959(9) -1.2764(7) 0.4341(6)
O6 O 0.6485(8) -1.3969(6) 0.5256(7)
O7 O 0.5971(8) -1.2826(7) 0.3834(7)
O8 O 0.5474(9) -1.4009(6) 0.4769(6)
O9 O 0.1017(9) -1.3968(7) 1.0744(6)
O10 O -0.0064(9) -1.2753(6) 1.1399(7)
O11 O -0.0040(8) -1.3960(7) 1.0267(7)
O12 O -0.1085(11) -1.2760(7) 1.0942(7)
loop_
_geom_bond_atom_site_label_1
_geom_bond_atom_site_label_2
_geom_bond_site_symmetry_1
_geom_bond_site_symmetry_2
Ru1 N6 1_555 1_555
Ru2 N1 1_555 1_555
Ru3 N5 1_555 1_555
Ru4 N10 1_555 1_555
O1 C6 1_555 1_555
O2 C12 1_555 1_555
O3 C23 1_555 1_555
O4 C29 1_555 1_555
N1 C1 1_555 1_555
N2 H1 1_555 1_555
N3 C7 1_555 1_555
N4 H2 1_555 1_555
N5 C16 1_555 1_555
N6 C18 1_555 1_555
N7 H3 1_555 1_555
N8 C24 1_555 1_555
N9 H4 1_555 1_555
N10 C33 1_555 1_555
C1 H5 1_555 1_555
C2 N1 1_555 1_555
H6 C2 1_555 1_555
C3 C1 1_555 1_555
H7 C3 1_555 1_555
C4 C2 1_555 1_555
H8 C4 1_555 1_555
C5 N2 1_555 1_555
C6 N2 1_555 1_555
C7 C6 1_555 1_555
C8 C7 1_555 1_555
H9 C8 1_555 1_555
C9 C8 1_555 1_555
H10 C9 1_555 1_555
C10 C9 1_555 1_555
H11 C10 1_555 1_555
C11 N3 1_555 1_555
C12 N4 1_555 1_555
C13 N4 1_555 1_555
C14 C13 1_555 1_555
H12 C14 1_555 1_555
C15 C13 1_555 1_555
H13 C15 1_555 1_555
C16 C14 1_555 1_555
H14 C16 1_555 1_555
C17 N5 1_555 1_555
H15 C17 1_555 1_555
C18 H16 1_555 1_555
C19 N6 1_555 1_555
H17 C19 1_555 1_555
C20 C18 1_555 1_555
H18 C20 1_555 1_555
C21 C19 1_555 1_555
H19 C21 1_555 1_555
C22 N7 1_555 1_555
C23 N7 1_555 1_555
C24 C23 1_555 1_555
C25 C24 1_555 1_555
H20 C25 1_555 1_555
C26 C25 1_555 1_555
H21 C26 1_555 1_555
C27 C26 1_555 1_555
H22 C27 1_555 1_555
C28 N8 1_555 1_555
C29 N9 1_555 1_555
C30 N9 1_555 1_555
C31 C30 1_555 1_555
H23 C31 1_555 1_555
C32 C30 1_555 1_555
H24 C32 1_555 1_555
C33 C31 1_555 1_555
H25 C33 1_555 1_555
C34 N10 1_555 1_555
H26 C34 1_555 1_555
C35 Ru3 1_555 1_555
H27 C35 1_555 1_555
C36 Ru3 1_555 1_555
H28 C36 1_555 1_555
C37 Ru3 1_555 1_555
C38 Ru3 1_555 1_555
H29 C38 1_555 1_555
C39 Ru3 1_555 1_555
H30 C39 1_555 1_555
C40 Ru3 1_555 1_555
C41 C37 1_555 1_555
H31 C41 1_555 1_555
H32 C41 1_555 1_555
H33 C41 1_555 1_555
C42 C40 1_555 1_555
H34 C42 1_555 1_555
C43 C42 1_555 1_555
H35 C43 1_555 1_555
H36 C43 1_555 1_555
H37 C43 1_555 1_555
C44 C42 1_555 1_555
H38 C44 1_555 1_555
H39 C44 1_555 1_555
H40 C44 1_555 1_555
C45 Ru4 1_555 1_555
C46 Ru4 1_555 1_555
H41 C46 1_555 1_555
C47 Ru4 1_555 1_555
H42 C47 1_555 1_555
C48 Ru4 1_555 1_555
C49 Ru4 1_555 1_555
H43 C49 1_555 1_555
C50 Ru4 1_555 1_555
H44 C50 1_555 1_555
C51 C45 1_555 1_555
H45 C51 1_555 1_555
H46 C51 1_555 1_555
H47 C51 1_555 1_555
C52 C48 1_555 1_555
H48 C52 1_555 1_555
C53 C52 1_555 1_555
H49 C53 1_555 1_555
H50 C53 1_555 1_555
H51 C53 1_555 1_555
C54 C52 1_555 1_555
H52 C54 1_555 1_555
H53 C54 1_555 1_555
H54 C54 1_555 1_555
C55 Ru1 1_555 1_555
C56 Ru1 1_555 1_555
H55 C56 1_555 1_555
C57 Ru1 1_555 1_555
H56 C57 1_555 1_555
C58 Ru1 1_555 1_555
C59 Ru1 1_555 1_555
H57 C59 1_555 1_555
C60 Ru1 1_555 1_555
H58 C60 1_555 1_555
C61 C55 1_555 1_555
H59 C61 1_555 1_555
H60 C61 1_555 1_555
H61 C61 1_555 1_555
C62 C58 1_555 1_555
H62 C62 1_555 1_555
C63 C62 1_555 1_555
H63 C63 1_555 1_555
H64 C63 1_555 1_555
H65 C63 1_555 1_555
C64 C62 1_555 1_555
H66 C64 1_555 1_555
H67 C64 1_555 1_555
H68 C64 1_555 1_555
C65 Ru2 1_555 1_555
C66 Ru2 1_555 1_555
H69 C66 1_555 1_555
C67 Ru2 1_555 1_555
H70 C67 1_555 1_555
C68 Ru2 1_555 1_555
C69 Ru2 1_555 1_555
H71 C69 1_555 1_555
C70 Ru2 1_555 1_555
H72 C70 1_555 1_555
C71 C65 1_555 1_555
H73 C71 1_555 1_555
H74 C71 1_555 1_555
H75 C71 1_555 1_555
C72 C68 1_555 1_555
H76 C72 1_555 1_555
C73 C72 1_555 1_555
H77 C73 1_555 1_555
H78 C73 1_555 1_555
H79 C73 1_555 1_555
C74 C72 1_555 1_555
H80 C74 1_555 1_555
H81 C74 1_555 1_555
H82 C74 1_555 1_555
C75 C76 1_555 1_555
C76 O6 1_555 1_555
C77 C78 1_555 1_555
C78 O9 1_555 1_555
O5 Ru2 1_555 1_555
O6 Ru2 1_555 1_555
O7 Ru1 1_555 1_555
O8 Ru1 1_555 1_555
O9 Ru3 1_555 1_555
O10 Ru3 1_555 1_555
O11 Ru4 1_555 1_555
O12 Ru4 1_555 1_555
S1 O13 1_555 1_555
F1 C79 1_555 1_555
F2 C79 1_555 1_555
F3 C79 1_555 1_555
O14 S1 1_555 1_555
O15 S1 1_555 1_555
C79 S1 1_555 1_555
S2 O16 1_555 1_555
F4 C80 1_555 1_555
F5 C80 1_555 1_555
F6 C80 1_555 1_555
O17 S2 1_555 1_555
O18 S2 1_555 1_555
C80 S2 1_555 1_555
S3 O19 1_555 1_555
F7 C81 1_555 1_555
F8 C81 1_555 1_555
F9 C81 1_555 1_555
O20 S3 1_555 1_555
O21 S3 1_555 1_555
C81 S3 1_555 1_555
C3 C5 1_555 1_555
C4 C5 1_555 1_555
C10 C11 1_555 1_555
C11 C12 1_555 1_555
C15 C17 1_555 1_555
C20 C22 1_555 1_555
C21 C22 1_555 1_555
C27 C28 1_555 1_555
C28 C29 1_555 1_555
C32 C34 1_555 1_555
C35 C36 1_555 1_555
C35 C40 1_555 1_555
C36 C37 1_555 1_555
C37 C38 1_555 1_555
C38 C39 1_555 1_555
C39 C40 1_555 1_555
C45 C46 1_555 1_555
C45 C50 1_555 1_555
C46 C47 1_555 1_555
C47 C48 1_555 1_555
C48 C49 1_555 1_555
C49 C50 1_555 1_555
C55 C56 1_555 1_555
C55 C60 1_555 1_555
C56 C57 1_555 1_555
C57 C58 1_555 1_555
C58 C59 1_555 1_555
C59 C60 1_555 1_555
C65 C66 1_555 1_555
C65 C70 1_555 1_555
C66 C67 1_555 1_555
C67 C68 1_555 1_555
C68 C69 1_555 1_555
C69 C70 1_555 1_555
C75 O5 1_555 1_555
C75 O7 1_555 1_555
C76 O8 1_555 1_555
C77 O10 1_555 1_555
C77 O12 1_555 1_555
C78 O11 1_555 1_555

#END
