
#######################################################################
#
#                 Cambridge Crystallographic Data Centre
#                                CCDC 
#
#######################################################################
#
# If this CIF has been generated from an entry in the Cambridge 
# Structural Database, then it will include bibliographic, chemical, 
# crystal, experimental, refinement or atomic coordinate data resulting 
# from the CCDC's data processing and validation procedures.
#
#######################################################################

data_NEKYUY
_chemical_formula_moiety         
'2(C36 H28 Ag4 N12 4+),F6 Si1 2-,6(B1 F4 1-),8(C1 H3 N1 O2)'
_chemical_name_systematic        
'bis(tetrakis(\m~2~-4-(2-Pyridyl)pyrimidine)-tetra-silver(i)) hexafluorosilicate clathrate hexakis(tetrafluoroborate) nitromethane solvate'
_symmetry_cell_setting           triclinic
_symmetry_space_group_name_H-M   'P -1'
_symmetry_Int_Tables_number      2
_space_group_name_Hall           '-P 1'
loop_
_symmetry_equiv_pos_site_id
_symmetry_equiv_pos_as_xyz
1 x,y,z
2 -x,-y,-z
_cell_length_a                   12.258(5)
_cell_length_b                   14.979(6)
_cell_length_c                   15.422(6)
_cell_angle_alpha                93.365(4)
_cell_angle_beta                 103.919(5)
_cell_angle_gamma                100.868(5)
_cell_volume                     2683.1
_exptl_crystal_colour            colorless
_exptl_crystal_description       Block
_cell_formula_units_Z            1
loop_
_atom_site_label
_atom_site_type_symbol
_atom_site_fract_x
_atom_site_fract_y
_atom_site_fract_z
Ag1 Ag 0.40389(3) 0.76521(2) 0.59335(2)
Ag2 Ag 0.73965(3) 0.66167(2) 0.37704(2)
Ag3 Ag 0.81599(3) 0.32102(2) 0.59273(2)
Ag4 Ag 0.47655(3) 0.42883(2) 0.80075(2)
N1 N 0.5090(3) 0.7961(2) 0.4894(2)
N2 N 0.6421(3) 0.7615(2) 0.4100(2)
N3 N 0.3413(3) 0.8800(2) 0.5152(2)
N4 N 0.8206(3) 0.5331(2) 0.4091(2)
N5 N 0.8495(3) 0.4062(2) 0.4902(2)
N6 N 0.8385(3) 0.6357(2) 0.2713(2)
N7 N 0.7185(3) 0.2984(2) 0.7007(2)
N8 N 0.5870(3) 0.3372(2) 0.7781(2)
N9 N 0.8826(3) 0.2085(2) 0.6755(2)
N10 N 0.4066(3) 0.5593(2) 0.7823(2)
N11 N 0.3717(3) 0.6841(2) 0.6999(2)
N12 N 0.3868(3) 0.4515(2) 0.9153(2)
C1 C 0.5870(3) 0.7499(3) 0.4749(3)
C2 C 0.6181(3) 0.8269(3) 0.3575(3)
C3 C 0.5386(3) 0.8785(3) 0.3678(3)
C4 C 0.4825(3) 0.8602(2) 0.4349(2)
C5 C 0.3914(3) 0.9074(3) 0.4502(2)
C6 C 0.3590(3) 0.9763(3) 0.3995(3)
C7 C 0.2728(3) 1.0176(3) 0.4162(3)
C8 C 0.2223(3) 0.9900(3) 0.4835(3)
C9 C 0.2592(3) 0.9214(3) 0.5316(3)
C10 C 0.8069(3) 0.4816(3) 0.4744(3)
C11 C 0.9118(4) 0.3823(3) 0.4351(3)
C12 C 0.9291(4) 0.4311(3) 0.3648(3)
C13 C 0.8819(3) 0.5092(3) 0.3528(3)
C14 C 0.8941(3) 0.5660(3) 0.2790(3)
C15 C 0.9579(4) 0.5461(3) 0.2195(3)
C16 C 0.9628(4) 0.5986(3) 0.1490(3)
C17 C 0.9061(4) 0.6700(3) 0.1411(3)
C18 C 0.8450(4) 0.6853(3) 0.2025(3)
C19 C 0.6384(3) 0.3439(3) 0.7117(3)
C20 C 0.6189(4) 0.2787(3) 0.8383(3)
C21 C 0.7010(4) 0.2298(3) 0.8324(3)
C22 C 0.7515(3) 0.2413(3) 0.7618(3)
C23 C 0.8422(3) 0.1922(3) 0.7480(3)
C24 C 0.8823(4) 0.1330(3) 0.8079(3)
C25 C 0.9656(4) 0.0887(3) 0.7916(4)
C26 C 1.0051(4) 0.1029(3) 0.7166(4)
C27 C 0.9617(4) 0.1639(3) 0.6601(3)
C28 C 0.4161(3) 0.6098(3) 0.7153(3)
C29 C 0.3151(4) 0.7089(3) 0.7583(3)
C30 C 0.3052(4) 0.6620(3) 0.8317(3)
C31 C 0.3513(3) 0.5851(3) 0.8416(2)
C32 C 0.3403(3) 0.5262(3) 0.9149(2)
C33 C 0.2834(3) 0.5471(3) 0.9787(3)
C34 C 0.2758(4) 0.4899(3) 1.0453(3)
C35 C 0.3238(4) 0.4134(3) 1.0464(3)
C36 C 0.3772(4) 0.3970(3) 0.9801(3)
H1 H 0.6047 0.7060 0.5132
H2 H 0.6561 0.8382 0.3126
H3 H 0.5233 0.9239 0.3309
H4 H 0.3948 0.9945 0.3548
H5 H 0.2495 1.0633 0.3825
H6 H 0.1647 1.0168 0.4964
H7 H 0.2256 0.9032 0.5774
H8 H 0.7643 0.4992 0.5124
H9 H 0.9442 0.3312 0.4447
H10 H 0.9708 0.4129 0.3265
H11 H 0.9966 0.4982 0.2270
H12 H 1.0036 0.5859 0.1078
H13 H 0.9091 0.7071 0.0951
H14 H 0.8058 0.7330 0.1959
H15 H 0.6170 0.3834 0.6695
H16 H 0.5837 0.2715 0.8853
H17 H 0.7221 0.1902 0.8745
H18 H 0.8537 0.1233 0.8580
H19 H 0.9948 0.0494 0.8312
H20 H 1.0598 0.0725 0.7037
H21 H 0.9890 0.1741 0.6095
H22 H 0.4568 0.5920 0.6761
H23 H 0.2812 0.7593 0.7493
H24 H 0.2686 0.6819 0.8731
H25 H 0.2510 0.5986 0.9767
H26 H 0.2388 0.5029 1.0891
H27 H 0.3200 0.3742 1.0906
H28 H 0.4086 0.3451 0.9802
Si1 Si 0.5000 0.5000 0.5000
F13 F 0.4307(2) 0.5859(2) 0.5112(2)
F14 F 0.4775(2) 0.4635(2) 0.5968(2)
F15 F 0.6248(2) 0.5686(2) 0.5559(2)
F13A F 0.5693(2) 0.4141(2) 0.4888(2)
F14A F 0.5225(2) 0.5365(2) 0.4032(2)
F15A F 0.3752(2) 0.4314(2) 0.4441(2)
F1 F -0.0516(4) 0.7260(3) 0.9256(3)
F2 F 0.0531(3) 0.6726(2) 0.8401(2)
F3 F 0.1174(4) 0.6976(4) 0.9876(3)
F4 F -0.0264(4) 0.5834(3) 0.9272(3)
B1 B 0.0225(5) 0.6704(4) 0.9210(4)
F5 F 0.5440(4) 0.8448(6) 0.0595(4)
F6 F 0.6639(7) 0.9238(3) 0.1828(4)
F7 F 0.7292(4) 0.8644(4) 0.0786(3)
F8 F 0.6354(3) 0.7759(2) 0.1621(2)
B2 B 0.6442(6) 0.8542(5) 0.1188(4)
F9 F 0.9116(3) 0.8528(2) 0.6531(2)
F10 F 1.0785(2) 0.8117(2) 0.6479(2)
F11 F 0.9269(3) 0.7706(3) 0.5296(2)
F12 F 1.0144(3) 0.9190(2) 0.5636(3)
B3 B 0.9817(5) 0.8387(4) 0.5988(4)
O1 O 0.6502(4) 0.8300(3) 0.7252(3)
O2 O 0.6167(4) 0.7642(3) 0.8367(3)
N13 N 0.6783(4) 0.8177(3) 0.8045(3)
C37 C 0.7863(5) 0.8680(4) 0.8638(6)
H29 H 0.8016 0.8408 0.9191
H30 H 0.7811 0.9305 0.8762
H31 H 0.8475 0.8662 0.8353
O3 O 0.4189(4) 0.9186(2) 0.7437(2)
O4 O 0.5852(4) 1.0072(3) 0.8006(2)
N14 N 0.4993(4) 0.9529(3) 0.8071(3)
C38 C 0.4983(5) 0.9291(4) 0.8985(3)
H32 H 0.4320 0.9441 0.9138
H33 H 0.5666 0.9630 0.9407
H34 H 0.4954 0.8648 0.9004
O5 O 0.2468(4) 0.9069(4) 0.9893(4)
O6 O 0.0870(5) 0.9487(3) 0.9679(3)
N15 N 0.1609(5) 0.9184(3) 0.9416(3)
C39 C 0.1391(5) 0.8959(4) 0.8450(3)
H35 H 0.0606 0.8968 0.8165
H36 H 0.1532 0.8361 0.8330
H37 H 0.1893 0.9400 0.8218
O7 O 0.6961(3) 0.5709(3) 0.7575(2)
O8 O 0.8135(3) 0.5191(2) 0.6952(3)
N16 N 0.7698(3) 0.5809(3) 0.7168(2)
C40 C 0.8109(5) 0.6726(3) 0.6925(4)
H38 H 0.8764 0.7042 0.7389
H39 H 0.7508 0.7065 0.6860
H40 H 0.8322 0.6669 0.6368
loop_
_geom_bond_atom_site_label_1
_geom_bond_atom_site_label_2
_geom_bond_site_symmetry_1
_geom_bond_site_symmetry_2
Ag1 N1 1_555 1_555
Ag2 N2 1_555 1_555
Ag3 N5 1_555 1_555
Ag4 N8 1_555 1_555
Si1 F13 1_555 1_555
F1 B1 1_555 1_555
F2 B1 1_555 1_555
F3 B1 1_555 1_555
F4 B1 1_555 1_555
F5 B2 1_555 1_555
F6 B2 1_555 1_555
F7 B2 1_555 1_555
F8 B2 1_555 1_555
F9 B3 1_555 1_555
F10 B3 1_555 1_555
F11 B3 1_555 1_555
F12 B3 1_555 1_555
F14 Si1 1_555 1_555
F15 Si1 1_555 1_555
O1 N13 1_555 1_555
O2 N13 1_555 1_555
O3 N14 1_555 1_555
O4 N14 1_555 1_555
O5 N15 1_555 1_555
O6 N15 1_555 1_555
O7 N16 1_555 1_555
O8 N16 1_555 1_555
N1 C1 1_555 1_555
N2 C1 1_555 1_555
N3 Ag1 1_555 1_555
N4 Ag2 1_555 1_555
N5 C10 1_555 1_555
N6 Ag2 1_555 1_555
N7 Ag3 1_555 1_555
N8 C19 1_555 1_555
N9 Ag3 1_555 1_555
N10 Ag4 1_555 1_555
N11 Ag1 1_555 1_555
N12 Ag4 1_555 1_555
N13 C37 1_555 1_555
N14 C38 1_555 1_555
N15 C39 1_555 1_555
N16 C40 1_555 1_555
C1 H1 1_555 1_555
C2 N2 1_555 1_555
C3 C2 1_555 1_555
C4 N1 1_555 1_555
C5 N3 1_555 1_555
C6 C5 1_555 1_555
C7 C6 1_555 1_555
C8 C7 1_555 1_555
C9 N3 1_555 1_555
C10 N4 1_555 1_555
C11 N5 1_555 1_555
C12 C11 1_555 1_555
C13 N4 1_555 1_555
C14 N6 1_555 1_555
C15 C14 1_555 1_555
C16 C15 1_555 1_555
C17 C16 1_555 1_555
C18 N6 1_555 1_555
C19 N7 1_555 1_555
C20 N8 1_555 1_555
C21 C20 1_555 1_555
C22 N7 1_555 1_555
C23 N9 1_555 1_555
C24 C23 1_555 1_555
C25 C24 1_555 1_555
C26 C25 1_555 1_555
C27 N9 1_555 1_555
C28 N10 1_555 1_555
C29 N11 1_555 1_555
C30 C29 1_555 1_555
C31 N10 1_555 1_555
C32 N12 1_555 1_555
C33 C32 1_555 1_555
C34 C33 1_555 1_555
C35 C34 1_555 1_555
C36 N12 1_555 1_555
C37 H29 1_555 1_555
C38 H32 1_555 1_555
C39 H35 1_555 1_555
C40 H38 1_555 1_555
H2 C2 1_555 1_555
H3 C3 1_555 1_555
H4 C6 1_555 1_555
H5 C7 1_555 1_555
H6 C8 1_555 1_555
H7 C9 1_555 1_555
H8 C10 1_555 1_555
H9 C11 1_555 1_555
H10 C12 1_555 1_555
H11 C15 1_555 1_555
H12 C16 1_555 1_555
H13 C17 1_555 1_555
H14 C18 1_555 1_555
H15 C19 1_555 1_555
H16 C20 1_555 1_555
H17 C21 1_555 1_555
H18 C24 1_555 1_555
H19 C25 1_555 1_555
H20 C26 1_555 1_555
H21 C27 1_555 1_555
H22 C28 1_555 1_555
H23 C29 1_555 1_555
H24 C30 1_555 1_555
H25 C33 1_555 1_555
H26 C34 1_555 1_555
H27 C35 1_555 1_555
H28 C36 1_555 1_555
H30 C37 1_555 1_555
H31 C37 1_555 1_555
H33 C38 1_555 1_555
H34 C38 1_555 1_555
H36 C39 1_555 1_555
H37 C39 1_555 1_555
H39 C40 1_555 1_555
H40 C40 1_555 1_555
F13A Si1 1_555 1_555
F14A Si1 1_555 1_555
F15A Si1 1_555 1_555
N11 C28 1_555 1_555
C3 C4 1_555 1_555
C4 C5 1_555 1_555
C8 C9 1_555 1_555
C12 C13 1_555 1_555
C13 C14 1_555 1_555
C17 C18 1_555 1_555
C21 C22 1_555 1_555
C22 C23 1_555 1_555
C26 C27 1_555 1_555
C30 C31 1_555 1_555
C31 C32 1_555 1_555
C35 C36 1_555 1_555

#END
