
#######################################################################
#
#                 Cambridge Crystallographic Data Centre
#                                CCDC 
#
#######################################################################
#
# If this CIF has been generated from an entry in the Cambridge 
# Structural Database, then it will include bibliographic, chemical, 
# crystal, experimental, refinement or atomic coordinate data resulting 
# from the CCDC's data processing and validation procedures.
#
#######################################################################

data_NEKZAF
_chemical_formula_moiety         
'2(C36 H28 Ag4 N12 4+),F6 Ge1 2-,6(B1 F4 1-),8(C1 H3 N1 O2)'
_chemical_name_systematic        
'bis(tetrakis(\m~2~-4-(2-Pyridyl)pyrimidine)-tetra-silver(i)) hexafluorogermanate clathrate hexakis(tetrafluoroborate) nitromethane solvate'
_symmetry_cell_setting           triclinic
_symmetry_space_group_name_H-M   'P -1'
_symmetry_Int_Tables_number      2
_space_group_name_Hall           '-P 1'
loop_
_symmetry_equiv_pos_site_id
_symmetry_equiv_pos_as_xyz
1 x,y,z
2 -x,-y,-z
_cell_length_a                   12.252(6)
_cell_length_b                   14.989(7)
_cell_length_c                   15.436(7)
_cell_angle_alpha                93.406(4)
_cell_angle_beta                 103.691(5)
_cell_angle_gamma                100.946(6)
_cell_volume                     2687.86
_exptl_crystal_colour            colorless
_exptl_crystal_description       Block
_cell_formula_units_Z            1
loop_
_atom_site_label
_atom_site_type_symbol
_atom_site_fract_x
_atom_site_fract_y
_atom_site_fract_z
Ag1 Ag 0.40434(4) 0.76686(3) 0.59458(3)
Ag2 Ag 0.74049(4) 0.66253(3) 0.37864(3)
Ag3 Ag 0.81695(4) 0.32191(3) 0.59268(3)
Ag4 Ag 0.47676(4) 0.42977(3) 0.80022(3)
N1 N 0.5108(3) 0.7982(3) 0.4912(3)
N2 N 0.6432(3) 0.7631(3) 0.4113(3)
N3 N 0.3404(4) 0.8800(3) 0.5151(3)
N4 N 0.8224(3) 0.5344(3) 0.4105(3)
N5 N 0.8506(3) 0.4069(3) 0.4902(3)
N6 N 0.8366(4) 0.6353(3) 0.2712(3)
N7 N 0.7187(3) 0.2987(3) 0.7000(3)
N8 N 0.5864(3) 0.3380(3) 0.7776(3)
N9 N 0.8824(4) 0.2094(3) 0.6751(3)
N10 N 0.4080(3) 0.5607(3) 0.7828(3)
N11 N 0.3723(3) 0.6860(3) 0.7013(3)
N12 N 0.3870(3) 0.4521(3) 0.9150(3)
C1 C 0.5894(4) 0.7521(3) 0.4761(3)
C2 C 0.6172(4) 0.8267(3) 0.3576(3)
C3 C 0.5384(4) 0.8781(3) 0.3673(3)
C4 C 0.4830(4) 0.8609(3) 0.4350(3)
C5 C 0.3900(4) 0.9076(3) 0.4506(3)
C6 C 0.3581(4) 0.9766(3) 0.3994(3)
C7 C 0.2722(4) 1.0173(3) 0.4164(3)
C8 C 0.2218(4) 0.9896(3) 0.4834(4)
C9 C 0.2593(4) 0.9217(3) 0.5321(3)
C10 C 0.8098(4) 0.4830(3) 0.4763(3)
C11 C 0.9089(5) 0.3817(4) 0.4329(4)
C12 C 0.9254(4) 0.4302(3) 0.3628(4)
C13 C 0.8813(4) 0.5093(3) 0.3531(3)
C14 C 0.8930(4) 0.5654(3) 0.2786(3)
C15 C 0.9555(5) 0.5467(4) 0.2187(3)
C16 C 0.9606(5) 0.5990(4) 0.1486(3)
C17 C 0.9048(4) 0.6700(4) 0.1410(3)
C18 C 0.8430(4) 0.6850(4) 0.2028(4)
C19 C 0.6388(4) 0.3440(3) 0.7110(3)
C20 C 0.6182(4) 0.2799(3) 0.8378(3)
C21 C 0.6995(5) 0.2306(3) 0.8315(3)
C22 C 0.7514(4) 0.2414(3) 0.7612(3)
C23 C 0.8426(4) 0.1934(3) 0.7473(3)
C24 C 0.8824(5) 0.1331(4) 0.8069(4)
C25 C 0.9650(5) 0.0887(4) 0.7902(5)
C26 C 1.0041(5) 0.1037(4) 0.7159(5)
C27 C 0.9626(5) 0.1648(4) 0.6597(4)
C28 C 0.4173(4) 0.6119(3) 0.7167(3)
C29 C 0.3168(5) 0.7106(4) 0.7607(4)
C30 C 0.3066(5) 0.6640(4) 0.8326(4)
C31 C 0.3519(4) 0.5859(3) 0.8426(3)
C32 C 0.3411(4) 0.5277(3) 0.9156(3)
C33 C 0.2837(4) 0.5476(4) 0.9795(3)
C34 C 0.2763(4) 0.4899(4) 1.0453(3)
C35 C 0.3240(5) 0.4139(4) 1.0457(3)
C36 C 0.3778(4) 0.3975(3) 0.9795(3)
H1 H 0.6077 0.7086 0.5145
H2 H 0.6540 0.8367 0.3117
H3 H 0.5227 0.9228 0.3297
H4 H 0.3940 0.9947 0.3547
H5 H 0.2488 1.0629 0.3829
H6 H 0.1636 1.0159 0.4959
H7 H 0.2266 0.9044 0.5788
H8 H 0.7694 0.5013 0.5157
H9 H 0.9392 0.3295 0.4409
H10 H 0.9647 0.4110 0.3230
H11 H 0.9942 0.4988 0.2256
H12 H 1.0013 0.5862 0.1072
H13 H 0.9083 0.7074 0.0954
H14 H 0.8036 0.7325 0.1963
H15 H 0.6175 0.3832 0.6686
H16 H 0.5835 0.2732 0.8852
H17 H 0.7196 0.1906 0.8734
H18 H 0.8536 0.1231 0.8569
H19 H 0.9937 0.0490 0.8293
H20 H 1.0585 0.0731 0.7029
H21 H 0.9911 0.1753 0.6096
H22 H 0.4588 0.5948 0.6775
H23 H 0.2839 0.7615 0.7527
H24 H 0.2700 0.6841 0.8741
H25 H 0.2509 0.5988 0.9780
H26 H 0.2392 0.5024 1.0893
H27 H 0.3199 0.3745 1.0897
H28 H 0.4093 0.3457 0.9795
Ge1 Ge 0.5000 0.5000 0.5000
F13 F 0.4251(3) 0.5905(2) 0.5103(2)
F14 F 0.4732(3) 0.4611(2) 0.6022(2)
F15 F 0.6309(3) 0.5734(2) 0.5601(2)
F13A F 0.5749(3) 0.4095(2) 0.4897(2)
F14A F 0.5268(3) 0.5389(2) 0.3978(2)
F15A F 0.3691(3) 0.4266(2) 0.4399(2)
F1 F -0.0492(5) 0.7270(4) 0.9275(3)
F2 F 0.0565(4) 0.6743(3) 0.8435(3)
F3 F 0.1177(4) 0.6947(4) 0.9913(4)
F4 F -0.0277(5) 0.5840(3) 0.9271(4)
B1 B 0.0236(6) 0.6705(5) 0.9226(5)
F5 F 0.5447(5) 0.8424(8) 0.0573(6)
F6 F 0.6604(10) 0.9231(4) 0.1803(6)
F7 F 0.7288(5) 0.8640(5) 0.0778(4)
F8 F 0.6351(3) 0.7768(3) 0.1612(3)
B2 B 0.6440(8) 0.8528(7) 0.1174(6)
F9 F 0.9112(4) 0.8535(3) 0.6540(3)
F10 F 1.0775(3) 0.8124(3) 0.6489(2)
F11 F 0.9280(4) 0.7707(3) 0.5306(3)
F12 F 1.0146(4) 0.9192(3) 0.5645(4)
B3 B 0.9820(6) 0.8389(5) 0.5995(5)
O1 O 0.6524(5) 0.8311(4) 0.7264(4)
O2 O 0.6182(5) 0.7642(4) 0.8367(4)
N13 N 0.6796(6) 0.8172(4) 0.8055(4)
C37 C 0.7882(7) 0.8678(6) 0.8629(7)
H29 H 0.7994 0.8466 0.9212
H30 H 0.7871 0.9317 0.8684
H31 H 0.8498 0.8585 0.8372
O3 O 0.4212(4) 0.9200(3) 0.7447(3)
O4 O 0.5872(5) 1.0083(4) 0.8008(3)
N14 N 0.5011(5) 0.9542(4) 0.8076(3)
C38 C 0.5009(6) 0.9302(5) 0.8985(4)
H32 H 0.4289 0.9350 0.9107
H33 H 0.5623 0.9712 0.9414
H34 H 0.5116 0.8686 0.9029
O5 O 0.2473(6) 0.9046(6) 0.9885(5)
O6 O 0.0883(6) 0.9488(5) 0.9688(4)
N15 N 0.1625(6) 0.9172(4) 0.9420(4)
C39 C 0.1391(6) 0.8963(5) 0.8452(4)
H35 H 0.0616 0.9006 0.8177
H36 H 0.1489 0.8355 0.8315
H37 H 0.1913 0.9391 0.8224
O7 O 0.6973(4) 0.5713(4) 0.7590(3)
O8 O 0.8164(4) 0.5206(3) 0.6981(3)
N16 N 0.7738(4) 0.5814(4) 0.7196(3)
C40 C 0.8179(6) 0.6743(4) 0.6967(4)
H38 H 0.8830 0.7048 0.7438
H39 H 0.7587 0.7090 0.6901
H40 H 0.8405 0.6691 0.6415
loop_
_geom_bond_atom_site_label_1
_geom_bond_atom_site_label_2
_geom_bond_site_symmetry_1
_geom_bond_site_symmetry_2
Ag1 N1 1_555 1_555
Ag2 N2 1_555 1_555
Ag3 N5 1_555 1_555
Ag4 N8 1_555 1_555
Ge1 F13 1_555 1_555
F1 B1 1_555 1_555
F2 B1 1_555 1_555
F3 B1 1_555 1_555
F4 B1 1_555 1_555
F5 B2 1_555 1_555
F6 B2 1_555 1_555
F7 B2 1_555 1_555
F8 B2 1_555 1_555
F9 B3 1_555 1_555
F10 B3 1_555 1_555
F11 B3 1_555 1_555
F12 B3 1_555 1_555
F14 Ge1 1_555 1_555
F15 Ge1 1_555 1_555
O1 N13 1_555 1_555
O2 N13 1_555 1_555
O3 N14 1_555 1_555
O4 N14 1_555 1_555
O5 N15 1_555 1_555
O6 N15 1_555 1_555
O7 N16 1_555 1_555
O8 N16 1_555 1_555
N1 C1 1_555 1_555
N2 C1 1_555 1_555
N3 Ag1 1_555 1_555
N4 Ag2 1_555 1_555
N5 C10 1_555 1_555
N6 Ag2 1_555 1_555
N7 Ag3 1_555 1_555
N8 C19 1_555 1_555
N9 Ag3 1_555 1_555
N10 Ag4 1_555 1_555
N11 Ag1 1_555 1_555
N12 Ag4 1_555 1_555
N13 C37 1_555 1_555
N14 C38 1_555 1_555
N15 C39 1_555 1_555
N16 C40 1_555 1_555
C1 H1 1_555 1_555
C2 N2 1_555 1_555
C3 C2 1_555 1_555
C4 N1 1_555 1_555
C5 N3 1_555 1_555
C6 C5 1_555 1_555
C7 C6 1_555 1_555
C8 C7 1_555 1_555
C9 N3 1_555 1_555
C10 N4 1_555 1_555
C11 N5 1_555 1_555
C12 C11 1_555 1_555
C13 N4 1_555 1_555
C14 N6 1_555 1_555
C15 C14 1_555 1_555
C16 C15 1_555 1_555
C17 C16 1_555 1_555
C18 N6 1_555 1_555
C19 N7 1_555 1_555
C20 N8 1_555 1_555
C21 C20 1_555 1_555
C22 N7 1_555 1_555
C23 N9 1_555 1_555
C24 C23 1_555 1_555
C25 C24 1_555 1_555
C26 C25 1_555 1_555
C27 N9 1_555 1_555
C28 N10 1_555 1_555
C29 N11 1_555 1_555
C30 C29 1_555 1_555
C31 N10 1_555 1_555
C32 N12 1_555 1_555
C33 C32 1_555 1_555
C34 C33 1_555 1_555
C35 C34 1_555 1_555
C36 N12 1_555 1_555
C37 H29 1_555 1_555
C38 H32 1_555 1_555
C39 H35 1_555 1_555
C40 H38 1_555 1_555
H2 C2 1_555 1_555
H3 C3 1_555 1_555
H4 C6 1_555 1_555
H5 C7 1_555 1_555
H6 C8 1_555 1_555
H7 C9 1_555 1_555
H8 C10 1_555 1_555
H9 C11 1_555 1_555
H10 C12 1_555 1_555
H11 C15 1_555 1_555
H12 C16 1_555 1_555
H13 C17 1_555 1_555
H14 C18 1_555 1_555
H15 C19 1_555 1_555
H16 C20 1_555 1_555
H17 C21 1_555 1_555
H18 C24 1_555 1_555
H19 C25 1_555 1_555
H20 C26 1_555 1_555
H21 C27 1_555 1_555
H22 C28 1_555 1_555
H23 C29 1_555 1_555
H24 C30 1_555 1_555
H25 C33 1_555 1_555
H26 C34 1_555 1_555
H27 C35 1_555 1_555
H28 C36 1_555 1_555
H30 C37 1_555 1_555
H31 C37 1_555 1_555
H33 C38 1_555 1_555
H34 C38 1_555 1_555
H36 C39 1_555 1_555
H37 C39 1_555 1_555
H39 C40 1_555 1_555
H40 C40 1_555 1_555
F13A Ge1 1_555 1_555
F14A Ge1 1_555 1_555
F15A Ge1 1_555 1_555
N11 C28 1_555 1_555
C3 C4 1_555 1_555
C4 C5 1_555 1_555
C8 C9 1_555 1_555
C12 C13 1_555 1_555
C13 C14 1_555 1_555
C17 C18 1_555 1_555
C21 C22 1_555 1_555
C22 C23 1_555 1_555
C26 C27 1_555 1_555
C30 C31 1_555 1_555
C31 C32 1_555 1_555
C35 C36 1_555 1_555

#END
