# generated using pymatgen
data_H260Pd6Ru4C176(N8O27)7
_symmetry_space_group_name_H-M   'P 1'
_cell_length_a   24.48017119
_cell_length_b   24.48017119
_cell_length_c   24.51531246
_cell_angle_alpha   115.04788770
_cell_angle_beta   115.05111434
_cell_angle_gamma   98.74181480
_symmetry_Int_Tables_number   1
_chemical_formula_structural   H260Pd6Ru4C176(N8O27)7
_chemical_formula_sum   'H520 Pd12 Ru8 C352 N112 O378'
_cell_volume   11032.07100697
_cell_formula_units_Z   2
loop_
 _symmetry_equiv_pos_site_id
 _symmetry_equiv_pos_as_xyz
  1  'x, y, z'
loop_
 _atom_site_type_symbol
 _atom_site_label
 _atom_site_symmetry_multiplicity
 _atom_site_fract_x
 _atom_site_fract_y
 _atom_site_fract_z
 _atom_site_occupancy
  C  C1  1  0.803500  0.996700  0.532000  1
  C  C2  1  0.464700  0.771500  0.968000  1
  C  C3  1  0.196500  0.003300  0.468000  1
  C  C4  1  0.535300  0.228500  0.032000  1
  C  C5  1  0.900300  0.099300  0.599400  1
  C  C6  1  0.499900  0.800900  0.900600  1
  C  C7  1  0.099700  0.900700  0.400600  1
  C  C8  1  0.500100  0.199100  0.099400  1
  C  C9  1  0.911000  0.022200  0.637200  1
  C  C10  1  0.385000  0.773800  0.862800  1
  C  C11  1  0.089000  0.977800  0.362800  1
  C  C12  1  0.615000  0.226200  0.137200  1
  C  C13  1  0.879000  0.984800  0.658800  1
  C  C14  1  0.326000  0.720200  0.841200  1
  C  C15  1  0.121000  0.015200  0.341200  1
  C  C16  1  0.674000  0.279800  0.158800  1
  C  C17  1  0.819700  0.992400  0.718700  1
  C  C18  1  0.273700  0.601000  0.781300  1
  C  C19  1  0.180300  0.007600  0.281300  1
  C  C20  1  0.726300  0.399000  0.218700  1
  C  C21  1  0.931000  0.073200  0.784400  1
  C  C22  1  0.288800  0.646600  0.715600  1
  C  C23  1  0.069000  0.926800  0.215600  1
  C  C24  1  0.711200  0.353400  0.284400  1
  C  C25  1  0.204900  0.073100  0.166800  1
  C  C26  1  0.906300  0.538100  0.333200  1
  C  C27  1  0.795100  0.926900  0.833200  1
  C  C28  1  0.093700  0.461900  0.666800  1
  C  C29  1  0.234800  0.204600  0.198200  1
  C  C30  1  0.006400  0.536600  0.301800  1
  C  C31  1  0.765200  0.795400  0.801800  1
  C  C32  1  0.993600  0.463400  0.698200  1
  C  C33  1  0.240700  0.116100  0.107800  1
  C  C34  1  0.008300  0.632900  0.392200  1
  C  C35  1  0.759300  0.883900  0.892200  1
  C  C36  1  0.991700  0.367100  0.607800  1
  C  C37  1  0.287000  0.089200  0.101000  1
  C  C38  1  0.988200  0.686000  0.399000  1
  C  C39  1  0.713000  0.910800  0.899000  1
  C  C40  1  0.011800  0.314000  0.601000  1
  C  C41  1  0.399400  0.094200  0.169000  1
  C  C42  1  0.925200  0.730400  0.331000  1
  C  C43  1  0.600600  0.905800  0.831000  1
  C  C44  1  0.074800  0.269600  0.669000  1
  C  C45  1  0.387500  0.191400  0.169700  1
  C  C46  1  0.021700  0.717800  0.330300  1
  C  C47  1  0.612500  0.808600  0.830300  1
  C  C48  1  0.978300  0.282200  0.669700  1
  C  C49  1  0.663400  0.469900  0.810300  1
  C  C50  1  0.659600  0.353100  0.689700  1
  C  C51  1  0.336600  0.530100  0.189700  1
  C  C52  1  0.340400  0.646900  0.310300  1
  C  C53  1  0.649100  0.333700  0.804000  1
  C  C54  1  0.529700  0.345100  0.696000  1
  C  C55  1  0.350900  0.666300  0.196000  1
  C  C56  1  0.470300  0.654900  0.304000  1
  C  C57  1  0.555600  0.461100  0.824900  1
  C  C58  1  0.636200  0.230700  0.675100  1
  C  C59  1  0.444400  0.538900  0.175100  1
  C  C60  1  0.363800  0.769300  0.324900  1
  C  C61  1  0.655400  0.331700  0.815500  1
  C  C62  1  0.516200  0.339900  0.684500  1
  C  C63  1  0.344600  0.668300  0.184500  1
  C  C64  1  0.483800  0.660100  0.315500  1
  C  C65  1  0.588800  0.302200  0.792600  1
  C  C66  1  0.509600  0.296200  0.707400  1
  C  C67  1  0.411200  0.697800  0.207400  1
  C  C68  1  0.490400  0.703800  0.292600  1
  C  C69  1  0.578200  0.346100  0.843900  1
  C  C70  1  0.502200  0.234300  0.656100  1
  C  C71  1  0.421800  0.653900  0.156100  1
  C  C72  1  0.497800  0.765700  0.343900  1
  C  C73  1  0.638300  0.402700  0.898400  1
  C  C74  1  0.504300  0.239900  0.601600  1
  C  C75  1  0.361700  0.597300  0.101600  1
  C  C76  1  0.495700  0.760100  0.398400  1
  C  C77  1  0.686000  0.393800  0.880800  1
  C  C78  1  0.513000  0.305200  0.619200  1
  C  C79  1  0.314000  0.606200  0.119200  1
  C  C80  1  0.487000  0.694800  0.380800  1
  C  C81  1  0.538200  0.235800  0.725600  1
  C  C82  1  0.510200  0.312600  0.774400  1
  C  C83  1  0.461800  0.764200  0.274400  1
  C  C84  1  0.489800  0.687400  0.225600  1
  C  C85  1  0.514400  0.334500  0.840900  1
  C  C86  1  0.493600  0.173500  0.659100  1
  C  C87  1  0.485600  0.665500  0.159100  1
  C  C88  1  0.506400  0.826500  0.340900  1
  C  C89  1  0.649500  0.461900  0.963600  1
  C  C90  1  0.498300  0.185900  0.536400  1
  C  C91  1  0.350500  0.538100  0.036400  1
  C  C92  1  0.501700  0.814100  0.463600  1
  C  C93  1  0.756700  0.442000  0.924100  1
  C  C94  1  0.517900  0.332600  0.575900  1
  C  C95  1  0.243300  0.558000  0.075900  1
  C  C96  1  0.482100  0.667400  0.424100  1
  C  C97  1  0.841100  0.205300  0.667200  1.0
  C  C98  1  0.538100  0.673900  0.832800  1.0
  C  C99  1  0.158900  0.794700  0.332800  1.0
  C  C100  1  0.461900  0.326100  0.167200  1.0
  C  C101  1  0.818000  0.245000  0.644800  1.0
  C  C102  1  0.600200  0.673200  0.855200  1.0
  C  C103  1  0.182000  0.755000  0.355200  1.0
  C  C104  1  0.399800  0.326800  0.144800  1.0
  C  C105  1  0.752800  0.219200  0.589600  1.0
  C  C106  1  0.629600  0.663200  0.910400  1.0
  C  C107  1  0.247200  0.780800  0.410400  1.0
  C  C108  1  0.370400  0.336800  0.089600  1.0
  C  C109  1  0.713000  0.154000  0.557000  1.0
  C  C110  1  0.597000  0.656000  0.943000  1.0
  C  C111  1  0.287000  0.846000  0.443000  1.0
  C  C112  1  0.403000  0.344000  0.057000  1.0
  C  C113  1  0.738200  0.116400  0.580800  1.0
  C  C114  1  0.535600  0.657400  0.919200  1.0
  C  C115  1  0.261800  0.883600  0.419200  1.0
  C  C116  1  0.464400  0.342600  0.080800  1.0
  C  C117  1  0.463200  0.157700  0.346100  1.0
  C  C118  1  0.811600  0.617100  0.153900  1.0
  C  C119  1  0.536800  0.842300  0.653900  1.0
  C  C120  1  0.188400  0.382900  0.846100  1.0
  C  C121  1  0.529200  0.180900  0.400100  1.0
  C  C122  1  0.780800  0.629100  0.099900  1.0
  C  C123  1  0.470800  0.819100  0.599900  1.0
  C  C124  1  0.219200  0.370900  0.900100  1.0
  C  C125  1  0.571400  0.246200  0.433400  1.0
  C  C126  1  0.812800  0.638000  0.066600  1.0
  C  C127  1  0.428600  0.753800  0.566600  1.0
  C  C128  1  0.187200  0.362000  0.933400  1.0
  C  C129  1  0.547500  0.284700  0.410400  1.0
  C  C130  1  0.874300  0.637100  0.089600  1.0
  C  C131  1  0.452500  0.715300  0.589600  1.0
  C  C132  1  0.125700  0.362900  0.910400  1.0
  C  C133  1  0.481400  0.257500  0.354900  1.0
  C  C134  1  0.902600  0.626500  0.145100  1.0
  C  C135  1  0.518600  0.742500  0.645100  1.0
  C  C136  1  0.097400  0.373500  0.854900  1.0
  C  C137  1  0.797200  0.537100  0.633900  1.0
  C  C138  1  0.903200  0.663300  0.866100  1.0
  C  C139  1  0.202800  0.462900  0.366100  1.0
  C  C140  1  0.096800  0.336700  0.133900  1.0
  C  C141  1  0.757000  0.470100  0.596100  1.0
  C  C142  1  0.874000  0.660900  0.903900  1.0
  C  C143  1  0.243000  0.529900  0.403900  1.0
  C  C144  1  0.126000  0.339100  0.096100  1.0
  C  C145  1  0.781100  0.430700  0.616800  1.0
  C  C146  1  0.813900  0.664300  0.883200  1.0
  C  C147  1  0.218900  0.569300  0.383200  1.0
  C  C148  1  0.186100  0.335700  0.116800  1.0
  C  C149  1  0.845600  0.459300  0.675900  1.0
  C  C150  1  0.783400  0.669700  0.824100  1.0
  C  C151  1  0.154400  0.540700  0.324100  1.0
  C  C152  1  0.216600  0.330300  0.175900  1.0
  C  C153  1  0.882400  0.525000  0.710600  1.0
  C  C154  1  0.814400  0.671800  0.789400  1.0
  C  C155  1  0.117600  0.475000  0.289400  1.0
  C  C156  1  0.185600  0.328200  0.210600  1.0
  C  C157  1  0.726000  0.261200  0.565800  1.0
  C  C158  1  0.695400  0.660200  0.934200  1.0
  C  C159  1  0.274000  0.738800  0.434200  1.0
  C  C160  1  0.304600  0.339800  0.065800  1.0
  C  C161  1  0.641800  0.274000  0.494000  1.0
  C  C162  1  0.780000  0.647800  0.006000  1.0
  C  C163  1  0.358200  0.726000  0.506000  1.0
  C  C164  1  0.220000  0.352200  0.994000  1.0
  C  C165  1  0.739400  0.359700  0.578700  1.0
  C  C166  1  0.781000  0.660700  0.921300  1.0
  C  C167  1  0.260600  0.640300  0.421300  1.0
  C  C168  1  0.219000  0.339300  0.078700  1.0
  C  C169  1  0.741300  0.097100  0.722000  1.0
  C  C170  1  0.375100  0.519300  0.778000  1.0
  C  C171  1  0.258700  0.902900  0.278000  1.0
  C  C172  1  0.624900  0.480700  0.222000  1.0
  C  C173  1  0.714800  0.125900  0.760500  1.0
  C  C174  1  0.365400  0.454300  0.739500  1.0
  C  C175  1  0.285200  0.874100  0.239500  1.0
  C  C176  1  0.634600  0.545700  0.260500  1.0
  C  C177  1  0.753300  0.187000  0.823100  1.0
  C  C178  1  0.363900  0.430200  0.676900  1.0
  C  C179  1  0.246700  0.813000  0.176900  1.0
  C  C180  1  0.636100  0.569800  0.323100  1.0
  C  C181  1  0.818000  0.218200  0.845600  1.0
  C  C182  1  0.372600  0.472400  0.654400  1.0
  C  C183  1  0.182000  0.781800  0.154400  1.0
  C  C184  1  0.627400  0.527600  0.345600  1.0
  C  C185  1  0.841200  0.187700  0.804300  1.0
  C  C186  1  0.383400  0.536900  0.695700  1.0
  C  C187  1  0.158800  0.812300  0.195700  1.0
  C  C188  1  0.616600  0.463100  0.304300  1.0
  C  C189  1  0.345100  0.262300  0.380400  1.0
  C  C190  1  0.881900  0.464700  0.119600  1.0
  C  C191  1  0.654900  0.737700  0.619600  1.0
  C  C192  1  0.118100  0.535300  0.880400  1.0
  C  C193  1  0.346400  0.288100  0.443300  1.0
  C  C194  1  0.844800  0.403100  0.056700  1.0
  C  C195  1  0.653600  0.711900  0.556700  1.0
  C  C196  1  0.155200  0.596900  0.943300  1.0
  C  C197  1  0.338800  0.247800  0.468200  1.0
  C  C198  1  0.779600  0.370600  0.031800  1.0
  C  C199  1  0.661200  0.752200  0.531800  1.0
  C  C200  1  0.220400  0.629400  0.968200  1.0
  C  C201  1  0.329100  0.182500  0.428800  1.0
  C  C202  1  0.753700  0.400300  0.071200  1.0
  C  C203  1  0.670900  0.817500  0.571200  1.0
  C  C204  1  0.246300  0.599700  0.928800  1.0
  C  C205  1  0.328600  0.159800  0.366000  1.0
  C  C206  1  0.793800  0.462600  0.134000  1.0
  C  C207  1  0.671400  0.840200  0.634000  1.0
  C  C208  1  0.206200  0.537400  0.866000  1.0
  C  C209  1  0.328700  0.117700  0.643000  1.0
  C  C210  1  0.474700  0.185700  0.857000  1.0
  C  C211  1  0.671300  0.882300  0.357000  1.0
  C  C212  1  0.525300  0.814300  0.143000  1.0
  C  C213  1  0.331000  0.154700  0.614300  1.0
  C  C214  1  0.540400  0.216700  0.885700  1.0
  C  C215  1  0.669000  0.845300  0.385700  1.0
  C  C216  1  0.459600  0.783300  0.114300  1.0
  C  C217  1  0.337100  0.219200  0.650100  1.0
  C  C218  1  0.569100  0.187000  0.849900  1.0
  C  C219  1  0.662900  0.780800  0.349900  1.0
  C  C220  1  0.430900  0.813000  0.150100  1.0
  C  C221  1  0.340300  0.243800  0.714300  1.0
  C  C222  1  0.529500  0.126000  0.785700  1.0
  C  C223  1  0.659700  0.756200  0.285700  1.0
  C  C224  1  0.470500  0.874000  0.214300  1.0
  C  C225  1  0.337800  0.203600  0.740600  1.0
  C  C226  1  0.463000  0.097200  0.759400  1.0
  C  C227  1  0.662200  0.796400  0.259400  1.0
  C  C228  1  0.537000  0.902800  0.240600  1.0
  C  C229  1  0.725300  0.220100  0.866200  1.0
  C  C230  1  0.353900  0.359100  0.633800  1.0
  C  C231  1  0.274700  0.779900  0.133800  1.0
  C  C232  1  0.646100  0.640900  0.366200  1.0
  C  C233  1  0.341900  0.274900  0.537400  1.0
  C  C234  1  0.737500  0.304500  0.962600  1.0
  C  C235  1  0.658100  0.725100  0.462600  1.0
  C  C236  1  0.262500  0.695500  0.037400  1.0
  C  C237  1  0.341200  0.261200  0.621600  1.0
  C  C238  1  0.639600  0.219600  0.878400  1.0
  C  C239  1  0.658800  0.738800  0.378400  1.0
  C  C240  1  0.360400  0.780400  0.121600  1.0
  C  C241  1  0.818700  0.009800  0.535900  1.0
  C  C242  1  0.473900  0.782800  0.964100  1.0
  C  C243  1  0.181300  0.990200  0.464100  1.0
  C  C244  1  0.526100  0.217200  0.035900  1.0
  C  C245  1  0.925700  0.090000  0.628500  1.0
  C  C246  1  0.461500  0.797200  0.871500  1.0
  C  C247  1  0.074300  0.910000  0.371500  1.0
  C  C248  1  0.538500  0.202800  0.128500  1.0
  C  C249  1  0.882900  0.989300  0.623400  1.0
  C  C250  1  0.365900  0.759500  0.876600  1.0
  C  C251  1  0.117100  0.010700  0.376600  1.0
  C  C252  1  0.634100  0.240500  0.123400  1.0
  C  C253  1  0.911500  0.011800  0.697700  1.0
  C  C254  1  0.314100  0.713800  0.802300  1.0
  C  C255  1  0.088500  0.988200  0.302300  1.0
  C  C256  1  0.685900  0.286200  0.197700  1.0
  C  C257  1  0.808100  0.974400  0.691900  1.0
  C  C258  1  0.282500  0.616200  0.808100  1.0
  C  C259  1  0.191900  0.025600  0.308100  1.0
  C  C260  1  0.717500  0.383800  0.191900  1.0
  C  C261  1  0.906300  0.072100  0.802400  1.0
  C  C262  1  0.269700  0.603900  0.697600  1.0
  C  C263  1  0.093700  0.927900  0.197600  1.0
  C  C264  1  0.730300  0.396100  0.302400  1.0
  C  C265  1  0.199600  0.100800  0.201400  1.0
  C  C266  1  0.899400  0.498200  0.298600  1.0
  C  C267  1  0.800400  0.899200  0.798600  1.0
  C  C268  1  0.100600  0.501800  0.701400  1.0
  C  C269  1  0.222000  0.186100  0.193500  1.0
  C  C270  1  0.992600  0.528500  0.306500  1.0
  C  C271  1  0.778000  0.813900  0.806500  1.0
  C  C272  1  0.007400  0.471500  0.693500  1.0
  C  C273  1  0.228000  0.089800  0.113600  1.0
  C  C274  1  0.976200  0.614400  0.386400  1.0
  C  C275  1  0.772000  0.910200  0.886400  1.0
  C  C276  1  0.023800  0.385600  0.613600  1.0
  C  C277  1  0.281100  0.120900  0.107600  1.0
  C  C278  1  0.013300  0.673500  0.392400  1.0
  C  C279  1  0.718900  0.879100  0.892400  1.0
  C  C280  1  0.986700  0.326500  0.607600  1.0
  C  C281  1  0.355700  0.068900  0.145000  1.0
  C  C282  1  0.923900  0.710700  0.355000  1.0
  C  C283  1  0.644300  0.931100  0.855000  1.0
  C  C284  1  0.076100  0.289300  0.645000  1.0
  C  C285  1  0.400600  0.178100  0.173500  1.0
  C  C286  1  0.004600  0.727100  0.326500  1.0
  C  C287  1  0.599400  0.821900  0.826500  1.0
  C  C288  1  0.995400  0.272900  0.673500  1.0
  C  C289  1  0.197200  0.023200  0.628000  1.0
  C  C290  1  0.395200  0.069200  0.872000  1.0
  C  C291  1  0.802800  0.976800  0.372000  1.0
  C  C292  1  0.604800  0.930800  0.128000  1.0
  C  C293  1  0.217800  0.097800  0.743600  1.0
  C  C294  1  0.354200  0.974200  0.756400  1.0
  C  C295  1  0.782200  0.902200  0.256400  1.0
  C  C296  1  0.645800  0.025800  0.243600  1.0
  C  C297  1  0.222800  0.991600  0.714400  1.0
  C  C298  1  0.277200  0.008400  0.785600  1.0
  C  C299  1  0.777200  0.008400  0.285600  1.0
  C  C300  1  0.722800  0.991600  0.214400  1.0
  C  C301  1  0.977200  0.604400  0.674000  1.0
  C  C302  1  0.930400  0.803200  0.826000  1.0
  C  C303  1  0.022800  0.395600  0.326000  1.0
  C  C304  1  0.069600  0.196800  0.174000  1.0
  C  C305  1  0.902400  0.645100  0.619500  1.0
  C  C306  1  0.025600  0.782900  0.880500  1.0
  C  C307  1  0.097600  0.354900  0.380500  1.0
  C  C308  1  0.974400  0.217100  0.119500  1.0
  C  C309  1  0.008900  0.721700  0.730800  1.0
  C  C310  1  0.990900  0.778100  0.769200  1.0
  C  C311  1  0.991100  0.278300  0.269200  1.0
  C  C312  1  0.009100  0.221900  0.230800  1.0
  C  C313  1  0.560200  0.473100  0.704900  1.0
  C  C314  1  0.768200  0.355300  0.795100  1.0
  C  C315  1  0.439800  0.526900  0.295100  1.0
  C  C316  1  0.231800  0.644700  0.204900  1.0
  C  C317  1  0.636300  0.331700  0.652800  1.0
  C  C318  1  0.678900  0.483500  0.847200  1.0
  C  C319  1  0.363700  0.668300  0.347200  1.0
  C  C320  1  0.321100  0.516500  0.152800  1.0
  C  C321  1  0.577400  0.325500  0.598300  1.0
  C  C322  1  0.727200  0.479100  0.901700  1.0
  C  C323  1  0.422600  0.674500  0.401700  1.0
  C  C324  1  0.272800  0.520900  0.098300  1.0
  C  C325  1  0.588600  0.386900  0.604100  1.0
  C  C326  1  0.782800  0.484500  0.895900  1.0
  C  C327  1  0.411400  0.613100  0.395900  1.0
  C  C328  1  0.217200  0.515500  0.104100  1.0
  C  C329  1  0.654400  0.431000  0.662200  1.0
  C  C330  1  0.768800  0.492200  0.837800  1.0
  C  C331  1  0.345600  0.569000  0.337800  1.0
  C  C332  1  0.231200  0.507800  0.162200  1.0
  C  C333  1  0.704700  0.491600  0.807700  1.0
  C  C334  1  0.683900  0.397000  0.692300  1.0
  C  C335  1  0.295300  0.508400  0.192300  1.0
  C  C336  1  0.316100  0.603000  0.307700  1.0
  C  C337  1  0.514000  0.264300  0.543700  1.0
  C  C338  1  0.720600  0.470300  0.956300  1.0
  C  C339  1  0.486000  0.735700  0.456300  1.0
  C  C340  1  0.279400  0.529700  0.043700  1.0
  C  C341  1  0.539200  0.402400  0.556800  1.0
  C  C342  1  0.845600  0.482400  0.943200  1.0
  C  C343  1  0.460800  0.597600  0.443200  1.0
  C  C344  1  0.154400  0.517600  0.056800  1.0
  C  C345  1  0.687200  0.501900  0.687500  1.0
  C  C346  1  0.814400  0.499700  0.812500  1.0
  C  C347  1  0.312800  0.498100  0.312500  1.0
  C  C348  1  0.185600  0.500300  0.187500  1.0
  C  C349  1  0.669900  0.498300  0.744800  1.0
  C  C350  1  0.753500  0.425100  0.755200  1.0
  C  C351  1  0.330100  0.501700  0.255200  1.0
  C  C352  1  0.246500  0.574900  0.244800  1.0
  H  H353  1  0.816900  0.976200  0.498700  1
  H  H354  1  0.477500  0.818200  0.001300  1
  H  H355  1  0.183100  0.023800  0.501300  1
  H  H356  1  0.522500  0.181800  0.998700  1
  H  H357  1  0.777400  0.019900  0.516700  1
  H  H358  1  0.503200  0.760700  0.983300  1
  H  H359  1  0.222600  0.980100  0.483300  1
  H  H360  1  0.496800  0.239300  0.016700  1
  H  H361  1  0.776900  0.962600  0.532100  1
  H  H362  1  0.430500  0.744800  0.967900  1
  H  H363  1  0.223100  0.037400  0.467900  1
  H  H364  1  0.569500  0.255200  0.032100  1
  H  H365  1  0.912700  0.078100  0.565200  1
  H  H366  1  0.512900  0.847500  0.934800  1
  H  H367  1  0.087300  0.921900  0.434800  1
  H  H368  1  0.487100  0.152500  0.065200  1
  H  H369  1  0.940000  0.134300  0.646100  1
  H  H370  1  0.488200  0.793900  0.853900  1
  H  H371  1  0.060000  0.865700  0.353900  1
  H  H372  1  0.511800  0.206100  0.146100  1
  H  H373  1  0.870000  0.118300  0.581700  1
  H  H374  1  0.536600  0.788300  0.918300  1
  H  H375  1  0.130000  0.881700  0.418300  1
  H  H376  1  0.463400  0.211700  0.081700  1
  H  H377  1  0.953667  0.058967  0.679300  1
  H  H378  1  0.379667  0.774367  0.820700  1
  H  H379  1  0.046333  0.941033  0.320700  1
  H  H380  1  0.620333  0.225633  0.179300  1
  H  H381  1  0.918500  0.992600  0.600900  1
  H  H382  1  0.391700  0.817600  0.899100  1
  H  H383  1  0.081500  0.007400  0.399100  1
  H  H384  1  0.608300  0.182400  0.100900  1
  H  H385  1  0.907300  0.964700  0.678400  1
  H  H386  1  0.286300  0.728900  0.821600  1
  H  H387  1  0.092700  0.035300  0.321600  1
  H  H388  1  0.713700  0.271100  0.178400  1
  H  H389  1  0.836100  0.949000  0.616100  1
  H  H390  1  0.332900  0.720000  0.883900  1
  H  H391  1  0.163900  0.051000  0.383900  1
  H  H392  1  0.667100  0.280000  0.116100  1
  H  H393  1  0.838600  0.967900  0.738700  1
  H  H394  1  0.229200  0.599900  0.761300  1
  H  H395  1  0.161400  0.032100  0.261300  1
  H  H396  1  0.770800  0.400100  0.238700  1
  H  H397  1  0.780900  0.961500  0.669800  1
  H  H398  1  0.291700  0.611100  0.830200  1
  H  H399  1  0.219100  0.038500  0.330200  1
  H  H400  1  0.708300  0.388900  0.169800  1
  H  H401  1  0.806500  0.020800  0.748700  1
  H  H402  1  0.272100  0.557800  0.751300  1
  H  H403  1  0.193500  0.979200  0.251300  1
  H  H404  1  0.727900  0.442200  0.248700  1
  H  H405  1  0.945900  0.046400  0.803100  1
  H  H406  1  0.243300  0.642800  0.696900  1
  H  H407  1  0.054100  0.953600  0.196900  1
  H  H408  1  0.756700  0.357200  0.303100  1
  H  H409  1  0.926900  0.108700  0.819000  1
  H  H410  1  0.289700  0.607900  0.681000  1
  H  H411  1  0.073100  0.891300  0.181000  1
  H  H412  1  0.710300  0.392100  0.319000  1
  H  H413  1  0.963200  0.092400  0.776800  1
  H  H414  1  0.315600  0.686400  0.723200  1
  H  H415  1  0.036800  0.907600  0.223200  1
  H  H416  1  0.684400  0.313600  0.276800  1
  H  H417  1  0.158200  0.060900  0.133300  1
  H  H418  1  0.927600  0.524900  0.366700  1
  H  H419  1  0.841800  0.939100  0.866700  1
  H  H420  1  0.072400  0.475100  0.633300  1
  H  H421  1  0.211300  0.077700  0.211000  1
  H  H422  1  0.866700  0.500300  0.289000  1
  H  H423  1  0.788700  0.922300  0.789000  1
  H  H424  1  0.133300  0.499700  0.711000  1
  H  H425  1  0.218300  0.038700  0.144600  1
  H  H426  1  0.894100  0.573700  0.355400  1
  H  H427  1  0.781700  0.961300  0.855400  1
  H  H428  1  0.105900  0.426300  0.644600  1
  H  H429  1  0.188600  0.194400  0.165600  1
  H  H430  1  0.028800  0.523000  0.334400  1
  H  H431  1  0.811400  0.805600  0.834400  1
  H  H432  1  0.971200  0.477000  0.665600  1
  H  H433  1  0.262800  0.228600  0.189600  1
  H  H434  1  0.039000  0.573200  0.310400  1
  H  H435  1  0.737200  0.771400  0.810400  1
  H  H436  1  0.961000  0.426800  0.689600  1
  H  H437  1  0.247400  0.232000  0.248000  1
  H  H438  1  0.984000  0.499400  0.252000  1
  H  H439  1  0.752600  0.768000  0.752000  1
  H  H440  1  0.016000  0.500600  0.748000  1
  H  H441  1  0.195700  0.083800  0.066300  1
  H  H442  1  0.017500  0.629400  0.433700  1
  H  H443  1  0.804300  0.916200  0.933700  1
  H  H444  1  0.982500  0.370600  0.566300  1
  H  H445  1  0.249500  0.156300  0.106600  1
  H  H446  1  0.049700  0.642900  0.393400  1
  H  H447  1  0.750500  0.843700  0.893400  1
  H  H448  1  0.950300  0.357100  0.606600  1
  H  H449  1  0.273600  0.044500  0.092300  1
  H  H450  1  0.952200  0.681300  0.407700  1
  H  H451  1  0.726400  0.955500  0.907700  1
  H  H452  1  0.047800  0.318700  0.592300  1
  H  H453  1  0.288600  0.085700  0.060100  1
  H  H454  1  0.025600  0.728500  0.439900  1
  H  H455  1  0.711400  0.914300  0.939900  1
  H  H456  1  0.974400  0.271500  0.560100  1
  H  H457  1  0.401600  0.079300  0.126300  1
  H  H458  1  0.953000  0.775300  0.373700  1
  H  H459  1  0.598400  0.920700  0.873700  1
  H  H460  1  0.047000  0.224700  0.626300  1
  H  H461  1  0.383100  0.056000  0.170500  1
  H  H462  1  0.885500  0.712600  0.329500  1
  H  H463  1  0.616900  0.944000  0.829500  1
  H  H464  1  0.114500  0.287400  0.670500  1
  H  H465  1  0.443400  0.124600  0.212200  1
  H  H466  1  0.912400  0.731200  0.287800  1
  H  H467  1  0.556600  0.875400  0.787800  1
  H  H468  1  0.087600  0.268800  0.712200  1
  H  H469  1  0.390800  0.175800  0.127600  1
  H  H470  1  0.048200  0.763200  0.372400  1
  H  H471  1  0.609200  0.824200  0.872400  1
  H  H472  1  0.951800  0.236800  0.627600  1
  H  H473  1  0.431800  0.215800  0.213400  1
  H  H474  1  0.002400  0.718400  0.286600  1
  H  H475  1  0.568200  0.784200  0.786600  1
  H  H476  1  0.997600  0.281600  0.713400  1
  H  H477  1  0.363900  0.220400  0.170500  1
  H  H478  1  0.049900  0.693400  0.329500  1
  H  H479  1  0.636100  0.779600  0.829500  1
  H  H480  1  0.950100  0.306600  0.670500  1
  H  H481  1  0.632700  0.475900  0.834600  1
  H  H482  1  0.641300  0.298100  0.665400  1
  H  H483  1  0.367300  0.524100  0.165400  1
  H  H484  1  0.358700  0.701900  0.334600  1
  H  H485  1  0.839300  0.546700  0.835200  1
  H  H486  1  0.711500  0.504100  0.664800  1
  H  H487  1  0.160700  0.453300  0.164800  1
  H  H488  1  0.288500  0.495900  0.335200  1
  H  H489  1  0.788300  0.478100  0.760200  1
  H  H490  1  0.717900  0.528100  0.739800  1
  H  H491  1  0.211700  0.521900  0.239800  1
  H  H492  1  0.282100  0.471900  0.260200  1
  H  H493  1  0.844900  0.479400  0.825700  1
  H  H494  1  0.653700  0.519200  0.674300  1
  H  H495  1  0.155100  0.520600  0.174300  1
  H  H496  1  0.346300  0.480800  0.325700  1
  H  H497  1  0.677400  0.544600  0.762400  1
  H  H498  1  0.782200  0.415000  0.737600  1
  H  H499  1  0.322600  0.455400  0.237600  1
  H  H500  1  0.217800  0.585000  0.262400  1
  H  H501  1  0.622500  0.471600  0.716900  1
  H  H502  1  0.754700  0.405600  0.783100  1
  H  H503  1  0.377500  0.528400  0.283100  1
  H  H504  1  0.245300  0.594400  0.216900  1
  H  H505  1  0.687200  0.483200  0.714200  1
  H  H506  1  0.769000  0.473000  0.785800  1
  H  H507  1  0.312800  0.516800  0.285800  1
  H  H508  1  0.231000  0.527000  0.214200  1
  H  H509  1  0.674700  0.315500  0.786200  1
  H  H510  1  0.529300  0.388500  0.713800  1
  H  H511  1  0.325300  0.684500  0.213800  1
  H  H512  1  0.470700  0.611500  0.286200  1
  H  H513  1  0.553300  0.201400  0.727500  1
  H  H514  1  0.473900  0.325800  0.772500  1
  H  H515  1  0.446700  0.798600  0.272500  1
  H  H516  1  0.526100  0.674200  0.227500  1
  H  H517  1  0.532200  0.235500  0.683300  1
  H  H518  1  0.552200  0.348900  0.816700  1
  H  H519  1  0.467800  0.764500  0.316700  1
  H  H520  1  0.447800  0.651100  0.183300  1
  H  H521  1  0.496200  0.227200  0.722400  1
  H  H522  1  0.504800  0.273800  0.777600  1
  H  H523  1  0.503800  0.772800  0.277600  1
  H  H524  1  0.495200  0.726200  0.222400  1
  H  H525  1  0.508200  0.303800  0.855600  1
  H  H526  1  0.448200  0.152600  0.644400  1
  H  H527  1  0.491800  0.696200  0.144400  1
  H  H528  1  0.551800  0.847400  0.355600  1
  H  H529  1  0.477700  0.315900  0.791800  1
  H  H530  1  0.524100  0.185900  0.708200  1
  H  H531  1  0.522300  0.684100  0.208200  1
  H  H532  1  0.475900  0.814100  0.291800  1
  H  H533  1  0.516000  0.376500  0.873500  1
  H  H534  1  0.503000  0.142500  0.626500  1
  H  H535  1  0.484000  0.623500  0.126500  1
  H  H536  1  0.497000  0.857500  0.373500  1
  H  H537  1  0.679100  0.463300  0.006800  1
  H  H538  1  0.456500  0.172300  0.493200  1
  H  H539  1  0.320900  0.536700  0.993200  1
  H  H540  1  0.543500  0.827700  0.506800  1
  H  H541  1  0.607200  0.458800  0.959200  1
  H  H542  1  0.499600  0.148000  0.540800  1
  H  H543  1  0.392800  0.541200  0.040800  1
  H  H544  1  0.500400  0.852000  0.459200  1
  H  H545  1  0.669400  0.502100  0.967100  1
  H  H546  1  0.535000  0.202300  0.532900  1
  H  H547  1  0.330600  0.497900  0.032900  1
  H  H548  1  0.465000  0.797700  0.467100  1
  H  H549  1  0.785900  0.419600  0.934300  1
  H  H550  1  0.485300  0.351600  0.565700  1
  H  H551  1  0.214100  0.580400  0.065700  1
  H  H552  1  0.514700  0.648400  0.434300  1
  H  H553  1  0.766500  0.478600  0.969300  1
  H  H554  1  0.509300  0.297200  0.530700  1
  H  H555  1  0.233500  0.521400  0.030700  1
  H  H556  1  0.490700  0.702800  0.469300  1
  H  H557  1  0.763400  0.458900  0.896700  1
  H  H558  1  0.562200  0.366700  0.603300  1
  H  H559  1  0.236600  0.541100  0.103300  1
  H  H560  1  0.437800  0.633300  0.396700  1
  H  H561  1  0.885400  0.223300  0.706100  1.0
  H  H562  1  0.517200  0.679300  0.793900  1.0
  H  H563  1  0.114600  0.776700  0.293900  1.0
  H  H564  1  0.482800  0.320700  0.206100  1.0
  H  H565  1  0.846500  0.289200  0.666900  1.0
  H  H566  1  0.622300  0.679600  0.833100  1.0
  H  H567  1  0.153500  0.710800  0.333100  1.0
  H  H568  1  0.377700  0.320400  0.166900  1.0
  H  H569  1  0.668500  0.135500  0.518400  1.0
  H  H570  1  0.617100  0.650100  0.981600  1.0
  H  H571  1  0.331500  0.864500  0.481600  1.0
  H  H572  1  0.382900  0.349900  0.018400  1.0
  H  H573  1  0.710400  0.071900  0.558700  1.0
  H  H574  1  0.513200  0.651700  0.941300  1.0
  H  H575  1  0.289600  0.928100  0.441300  1.0
  H  H576  1  0.486800  0.348300  0.058700  1.0
  H  H577  1  0.433900  0.113900  0.324000  1.0
  H  H578  1  0.789900  0.609900  0.176000  1.0
  H  H579  1  0.566100  0.886100  0.676000  1.0
  H  H580  1  0.210100  0.390100  0.824000  1.0
  H  H581  1  0.545200  0.153100  0.414100  1.0
  H  H582  1  0.739000  0.631100  0.085900  1.0
  H  H583  1  0.454800  0.846900  0.585900  1.0
  H  H584  1  0.261000  0.368900  0.914100  1.0
  H  H585  1  0.575200  0.328800  0.431800  1.0
  H  H586  1  0.897000  0.643400  0.068200  1.0
  H  H587  1  0.424800  0.671200  0.568200  1.0
  H  H588  1  0.103000  0.356600  0.931800  1.0
  H  H589  1  0.465000  0.283600  0.338000  1.0
  H  H590  1  0.945600  0.627000  0.162000  1.0
  H  H591  1  0.535000  0.716400  0.662000  1.0
  H  H592  1  0.054400  0.373000  0.838000  1.0
  H  H593  1  0.780200  0.564000  0.619000  1.0
  H  H594  1  0.945000  0.661200  0.881000  1.0
  H  H595  1  0.219800  0.436000  0.381000  1.0
  H  H596  1  0.055000  0.338800  0.119000  1.0
  H  H597  1  0.713300  0.452100  0.556200  1.0
  H  H598  1  0.895900  0.657100  0.943800  1.0
  H  H599  1  0.286700  0.547900  0.443800  1.0
  H  H600  1  0.104100  0.342900  0.056200  1.0
  H  H601  1  0.863800  0.433500  0.691900  1.0
  H  H602  1  0.741600  0.671900  0.808100  1.0
  H  H603  1  0.136200  0.566500  0.308100  1.0
  H  H604  1  0.258400  0.328100  0.191900  1.0
  H  H605  1  0.926300  0.543900  0.750600  1.0
  H  H606  1  0.793300  0.675700  0.749400  1.0
  H  H607  1  0.073700  0.456100  0.249400  1.0
  H  H608  1  0.206700  0.324300  0.250600  1.0
  H  H609  1  0.715000  0.054100  0.679500  1.0
  H  H610  1  0.374600  0.535500  0.820500  1.0
  H  H611  1  0.285000  0.945900  0.320500  1.0
  H  H612  1  0.625400  0.464500  0.179500  1.0
  H  H613  1  0.670400  0.103500  0.743900  1.0
  H  H614  1  0.359600  0.426500  0.756100  1.0
  H  H615  1  0.329600  0.896500  0.256100  1.0
  H  H616  1  0.640400  0.573500  0.243900  1.0
  H  H617  1  0.845800  0.260200  0.889200  1.0
  H  H618  1  0.371000  0.456600  0.610800  1.0
  H  H619  1  0.154200  0.739800  0.110800  1.0
  H  H620  1  0.629000  0.543400  0.389200  1.0
  H  H621  1  0.885300  0.209300  0.819400  1.0
  H  H622  1  0.389900  0.565900  0.680600  1.0
  H  H623  1  0.114700  0.790700  0.180600  1.0
  H  H624  1  0.610100  0.434100  0.319400  1.0
  H  H625  1  0.350900  0.290000  0.363700  1.0
  H  H626  1  0.926300  0.487200  0.136300  1.0
  H  H627  1  0.649100  0.710000  0.636300  1.0
  H  H628  1  0.073700  0.512800  0.863700  1.0
  H  H629  1  0.352600  0.332800  0.469200  1.0
  H  H630  1  0.863600  0.383400  0.030800  1.0
  H  H631  1  0.647400  0.667200  0.530800  1.0
  H  H632  1  0.136400  0.616600  0.969200  1.0
  H  H633  1  0.323000  0.153900  0.444500  1.0
  H  H634  1  0.709400  0.378500  0.055500  1.0
  H  H635  1  0.677000  0.846100  0.555500  1.0
  H  H636  1  0.290600  0.621500  0.944500  1.0
  H  H637  1  0.323100  0.115400  0.339500  1.0
  H  H638  1  0.775900  0.483600  0.160500  1.0
  H  H639  1  0.676900  0.884600  0.660500  1.0
  H  H640  1  0.224100  0.516400  0.839500  1.0
  H  H641  1  0.324700  0.073800  0.618100  1.0
  H  H642  1  0.455700  0.206600  0.881900  1.0
  H  H643  1  0.675300  0.926200  0.381900  1.0
  H  H644  1  0.544300  0.793400  0.118100  1.0
  H  H645  1  0.328400  0.136500  0.570100  1.0
  H  H646  1  0.566400  0.258300  0.929900  1.0
  H  H647  1  0.671600  0.863500  0.429900  1.0
  H  H648  1  0.433600  0.741700  0.070100  1.0
  H  H649  1  0.344300  0.287600  0.740100  1.0
  H  H650  1  0.547500  0.104200  0.759900  1.0
  H  H651  1  0.655700  0.712400  0.259900  1.0
  H  H652  1  0.452500  0.895800  0.240100  1.0
  H  H653  1  0.340600  0.220700  0.784900  1.0
  H  H654  1  0.435800  0.055700  0.715100  1.0
  H  H655  1  0.659400  0.779300  0.215100  1.0
  H  H656  1  0.564200  0.944300  0.284900  1.0
  H  H657  1  0.839300  0.993000  0.509500  1.0
  H  H658  1  0.483500  0.829800  0.990500  1.0
  H  H659  1  0.160700  0.007000  0.490500  1.0
  H  H660  1  0.516500  0.170200  0.009500  1.0
  H  H661  1  0.799300  0.037800  0.522500  1.0
  H  H662  1  0.515300  0.776800  0.977500  1.0
  H  H663  1  0.200700  0.962200  0.477500  1.0
  H  H664  1  0.484700  0.223200  0.022500  1.0
  H  H665  1  0.784000  0.972900  0.524100  1.0
  H  H666  1  0.448800  0.759900  0.975900  1.0
  H  H667  1  0.216000  0.027100  0.475900  1.0
  H  H668  1  0.551200  0.240100  0.024100  1.0
  H  H669  1  0.935900  0.069000  0.592100  1.0
  H  H670  1  0.476900  0.843800  0.907900  1.0
  H  H671  1  0.064100  0.931000  0.407900  1.0
  H  H672  1  0.523100  0.156200  0.092100  1.0
  H  H673  1  0.961300  0.100900  0.675000  1.0
  H  H674  1  0.425900  0.786300  0.825000  1.0
  H  H675  1  0.038700  0.899100  0.325000  1.0
  H  H676  1  0.574100  0.213700  0.175000  1.0
  H  H677  1  0.921500  0.130400  0.632300  1.0
  H  H678  1  0.498100  0.789200  0.867700  1.0
  H  H679  1  0.078500  0.869600  0.367700  1.0
  H  H680  1  0.501900  0.210800  0.132300  1.0
  H  H681  1  0.842300  0.948700  0.593400  1.0
  H  H682  1  0.355300  0.748900  0.906600  1.0
  H  H683  1  0.157700  0.051300  0.406600  1.0
  H  H684  1  0.644700  0.251100  0.093400  1.0
  H  H685  1  0.914200  0.978300  0.609500  1.0
  H  H686  1  0.368800  0.804700  0.890500  1.0
  H  H687  1  0.085800  0.021700  0.390500  1.0
  H  H688  1  0.631200  0.195300  0.109500  1.0
  H  H689  1  0.917500  0.975600  0.704700  1.0
  H  H690  1  0.270900  0.712800  0.795300  1.0
  H  H691  1  0.082500  0.024400  0.295300  1.0
  H  H692  1  0.729100  0.287200  0.204700  1.0
  H  H693  1  0.955100  0.048900  0.727800  1.0
  H  H694  1  0.321100  0.727300  0.772200  1.0
  H  H695  1  0.044900  0.951100  0.272200  1.0
  H  H696  1  0.678900  0.272700  0.227800  1.0
  H  H697  1  0.823900  0.948100  0.711000  1.0
  H  H698  1  0.237100  0.612900  0.789000  1.0
  H  H699  1  0.176100  0.051900  0.289000  1.0
  H  H700  1  0.762900  0.387100  0.211000  1.0
  H  H701  1  0.781400  0.946700  0.639300  1.0
  H  H702  1  0.307400  0.642100  0.860700  1.0
  H  H703  1  0.218600  0.053300  0.360700  1.0
  H  H704  1  0.692600  0.357900  0.139300  1.0
  H  H705  1  0.781300  0.991600  0.709300  1.0
  H  H706  1  0.282300  0.572000  0.790700  1.0
  H  H707  1  0.218700  0.008400  0.290700  1.0
  H  H708  1  0.717700  0.428000  0.209300  1.0
  H  H709  1  0.920400  0.043400  0.818600  1.0
  H  H710  1  0.224800  0.601800  0.681400  1.0
  H  H711  1  0.079600  0.956600  0.181400  1.0
  H  H712  1  0.775200  0.398200  0.318600  1.0
  H  H713  1  0.877300  0.086500  0.817600  1.0
  H  H714  1  0.268900  0.559700  0.682400  1.0
  H  H715  1  0.122700  0.913500  0.182400  1.0
  H  H716  1  0.731100  0.440300  0.317600  1.0
  H  H717  1  0.945200  0.110700  0.823500  1.0
  H  H718  1  0.287200  0.621700  0.676500  1.0
  H  H719  1  0.054800  0.889300  0.176500  1.0
  H  H720  1  0.712800  0.378300  0.323500  1.0
  H  H721  1  0.153000  0.087300  0.166500  1.0
  H  H722  1  0.920800  0.486500  0.333500  1.0
  H  H723  1  0.847000  0.912700  0.833500  1.0
  H  H724  1  0.079200  0.513500  0.666500  1.0
  H  H725  1  0.210800  0.131800  0.249800  1.0
  H  H726  1  0.882000  0.461000  0.250200  1.0
  H  H727  1  0.789200  0.868200  0.750200  1.0
  H  H728  1  0.118000  0.539000  0.749800  1.0
  H  H729  1  0.207400  0.061900  0.198900  1.0
  H  H730  1  0.863000  0.508500  0.301100  1.0
  H  H731  1  0.792600  0.938100  0.801100  1.0
  H  H732  1  0.137000  0.491500  0.698900  1.0
  H  H733  1  0.174600  0.167400  0.157600  1.0
  H  H734  1  0.009800  0.517000  0.342400  1.0
  H  H735  1  0.825400  0.832600  0.842400  1.0
  H  H736  1  0.990200  0.483000  0.657600  1.0
  H  H737  1  0.245800  0.217400  0.188000  1.0
  H  H738  1  0.029400  0.557800  0.312000  1.0
  H  H739  1  0.754200  0.782600  0.812000  1.0
  H  H740  1  0.970600  0.442200  0.688000  1.0
  H  H741  1  0.230000  0.208900  0.241700  1.0
  H  H742  1  0.967200  0.488300  0.258300  1.0
  H  H743  1  0.770000  0.791100  0.758300  1.0
  H  H744  1  0.032800  0.511700  0.741700  1.0
  H  H745  1  0.184300  0.082800  0.076900  1.0
  H  H746  1  0.005900  0.607400  0.423100  1.0
  H  H747  1  0.815700  0.917200  0.923100  1.0
  H  H748  1  0.994100  0.392600  0.576900  1.0
  H  H749  1  0.227100  0.046900  0.107200  1.0
  H  H750  1  0.939700  0.619900  0.392800  1.0
  H  H751  1  0.772900  0.953100  0.892800  1.0
  H  H752  1  0.060300  0.380100  0.607200  1.0
  H  H753  1  0.281500  0.163700  0.114200  1.0
  H  H754  1  0.049500  0.667300  0.385800  1.0
  H  H755  1  0.718500  0.836300  0.885800  1.0
  H  H756  1  0.950500  0.332700  0.614200  1.0
  H  H757  1  0.272300  0.092100  0.059200  1.0
  H  H758  1  0.032900  0.713100  0.440800  1.0
  H  H759  1  0.727700  0.907900  0.940800  1.0
  H  H760  1  0.967100  0.286900  0.559200  1.0
  H  H761  1  0.359000  0.053500  0.103100  1.0
  H  H762  1  0.950400  0.755900  0.396900  1.0
  H  H763  1  0.641000  0.946500  0.896900  1.0
  H  H764  1  0.049600  0.244100  0.603100  1.0
  H  H765  1  0.316800  0.036500  0.133100  1.0
  H  H766  1  0.903400  0.683700  0.366900  1.0
  H  H767  1  0.683200  0.963500  0.866900  1.0
  H  H768  1  0.096600  0.316300  0.633100  1.0
  H  H769  1  0.395200  0.074600  0.185000  1.0
  H  H770  1  0.889600  0.710200  0.315000  1.0
  H  H771  1  0.604800  0.925400  0.815000  1.0
  H  H772  1  0.110400  0.289800  0.685000  1.0
  H  H773  1  0.400800  0.158700  0.129500  1.0
  H  H774  1  0.029200  0.771300  0.370500  1.0
  H  H775  1  0.599200  0.841300  0.870500  1.0
  H  H776  1  0.970800  0.228700  0.629500  1.0
  H  H777  1  0.443400  0.189500  0.214100  1.0
  H  H778  1  0.975400  0.729300  0.285900  1.0
  H  H779  1  0.556600  0.810500  0.785900  1.0
  H  H780  1  0.024600  0.270700  0.714100  1.0
  H  H781  1  0.392300  0.218100  0.182400  1.0
  H  H782  1  0.035700  0.709900  0.317600  1.0
  H  H783  1  0.607700  0.781900  0.817600  1.0
  H  H784  1  0.964300  0.290100  0.682400  1.0
  H  H785  1  0.150300  0.005400  0.609700  1.0
  H  H786  1  0.395700  0.040600  0.890300  1.0
  H  H787  1  0.849700  0.994600  0.390300  1.0
  H  H788  1  0.604300  0.959400  0.109700  1.0
  H  H789  1  0.208100  0.988600  0.601500  1.0
  H  H790  1  0.387100  0.106600  0.898500  1.0
  H  H791  1  0.791900  0.011400  0.398500  1.0
  H  H792  1  0.612900  0.893400  0.101500  1.0
  H  H793  1  0.207300  0.059600  0.621700  1.0
  H  H794  1  0.437900  0.085600  0.878300  1.0
  H  H795  1  0.792700  0.940400  0.378300  1.0
  H  H796  1  0.562100  0.914400  0.121700  1.0
  H  H797  1  0.170200  0.078600  0.722000  1.0
  H  H798  1  0.356600  0.948200  0.778000  1.0
  H  H799  1  0.829800  0.921400  0.278000  1.0
  H  H800  1  0.643400  0.051800  0.222000  1.0
  H  H801  1  0.229000  0.135500  0.739300  1.0
  H  H802  1  0.396200  0.989700  0.760700  1.0
  H  H803  1  0.771000  0.864500  0.260700  1.0
  H  H804  1  0.603800  0.010300  0.239300  1.0
  H  H805  1  0.241200  0.112900  0.794500  1.0
  H  H806  1  0.318400  0.946700  0.705500  1.0
  H  H807  1  0.758800  0.887100  0.205500  1.0
  H  H808  1  0.681600  0.053300  0.294500  1.0
  H  H809  1  0.218900  0.951900  0.675200  1.0
  H  H810  1  0.276700  0.043700  0.824800  1.0
  H  H811  1  0.781100  0.048100  0.324800  1.0
  H  H812  1  0.723300  0.956300  0.175200  1.0
  H  H813  1  0.180500  0.981900  0.711200  1.0
  H  H814  1  0.270700  0.969300  0.788800  1.0
  H  H815  1  0.819500  0.018100  0.288800  1.0
  H  H816  1  0.729300  0.030700  0.211200  1.0
  H  H817  1  0.995200  0.604100  0.645100  1.0
  H  H818  1  0.959000  0.850100  0.854900  1.0
  H  H819  1  0.004800  0.395900  0.354900  1.0
  H  H820  1  0.041000  0.149900  0.145100  1.0
  H  H821  1  0.940700  0.561800  0.647500  1.0
  H  H822  1  0.914300  0.793200  0.852500  1.0
  H  H823  1  0.059300  0.438200  0.352500  1.0
  H  H824  1  0.085700  0.206800  0.147500  1.0
  H  H825  1  0.011700  0.612200  0.719300  1.0
  H  H826  1  0.892900  0.792400  0.780700  1.0
  H  H827  1  0.988300  0.387800  0.280700  1.0
  H  H828  1  0.107100  0.207600  0.219300  1.0
  H  H829  1  0.921700  0.642900  0.591200  1.0
  H  H830  1  0.051700  0.830500  0.908800  1.0
  H  H831  1  0.078300  0.357100  0.408800  1.0
  H  H832  1  0.948300  0.169500  0.091200  1.0
  H  H833  1  0.887000  0.680800  0.627600  1.0
  H  H834  1  0.053200  0.759400  0.872400  1.0
  H  H835  1  0.113000  0.319200  0.372400  1.0
  H  H836  1  0.946800  0.240600  0.127600  1.0
  H  H837  1  0.865100  0.603100  0.593200  1.0
  H  H838  1  0.009900  0.771900  0.906800  1.0
  H  H839  1  0.134900  0.396900  0.406800  1.0
  H  H840  1  0.990100  0.228100  0.093200  1.0
  H  H841  1  0.018700  0.728100  0.698200  1.0
  H  H842  1  0.029900  0.820500  0.801800  1.0
  H  H843  1  0.981300  0.271900  0.301800  1.0
  H  H844  1  0.970100  0.179500  0.198200  1.0
  H  H845  1  0.048500  0.722300  0.766800  1.0
  H  H846  1  0.955500  0.781700  0.733200  1.0
  H  H847  1  0.951500  0.277700  0.233200  1.0
  H  H848  1  0.044500  0.218300  0.266800  1.0
  H  H849  1  0.516200  0.235600  0.502800  1.0
  H  H850  1  0.732800  0.513400  0.997200  1.0
  H  H851  1  0.483800  0.764400  0.497200  1.0
  H  H852  1  0.267200  0.486600  0.002800  1.0
  H  H853  1  0.476900  0.276800  0.527100  1.0
  H  H854  1  0.749700  0.449800  0.972900  1.0
  H  H855  1  0.523100  0.723200  0.472900  1.0
  H  H856  1  0.250300  0.550200  0.027100  1.0
  H  H857  1  0.507800  0.240600  0.565800  1.0
  H  H858  1  0.674800  0.442000  0.934200  1.0
  H  H859  1  0.492200  0.759400  0.434200  1.0
  H  H860  1  0.325200  0.558000  0.065800  1.0
  H  H861  1  0.541900  0.391400  0.514900  1.0
  H  H862  1  0.876500  0.527000  0.985100  1.0
  H  H863  1  0.458100  0.608600  0.485100  1.0
  H  H864  1  0.123500  0.473000  0.014900  1.0
  H  H865  1  0.548900  0.449500  0.584000  1.0
  H  H866  1  0.865500  0.464900  0.916000  1.0
  H  H867  1  0.451100  0.550500  0.416000  1.0
  H  H868  1  0.134500  0.535100  0.084000  1.0
  H  H869  1  0.494700  0.376500  0.540800  1.0
  H  H870  1  0.835700  0.453900  0.959200  1.0
  H  H871  1  0.505300  0.623500  0.459200  1.0
  H  H872  1  0.164300  0.546100  0.040800  1.0
  N  N873  1  0.382200  0.363600  0.312600  1
  N  N874  1  0.051000  0.569600  0.187400  1
  N  N875  1  0.617800  0.636400  0.687400  1
  N  N876  1  0.949000  0.430400  0.812600  1
  N  N877  1  0.322600  0.985900  0.211500  1
  N  N878  1  0.774400  0.611100  0.288500  1
  N  N879  1  0.677400  0.014100  0.788500  1
  N  N880  1  0.225600  0.388900  0.711500  1
  N  N881  1  0.182200  0.207000  0.393000  1
  N  N882  1  0.814000  0.289200  0.107000  1
  N  N883  1  0.817800  0.793000  0.607000  1
  N  N884  1  0.186000  0.710800  0.893000  1
  N  N885  1  0.169300  0.851100  0.527400  1
  N  N886  1  0.323700  0.141900  0.972600  1
  N  N887  1  0.830700  0.148900  0.472600  1
  N  N888  1  0.676300  0.858100  0.027400  1
  N  N889  1  0.635400  0.949000  0.540600  1
  N  N890  1  0.408400  0.594800  0.959400  1
  N  N891  1  0.364600  0.051000  0.459400  1
  N  N892  1  0.591600  0.405200  0.040600  1
  N  N893  1  0.410800  0.363600  0.314000  1
  N  N894  1  0.049600  0.596800  0.186000  1
  N  N895  1  0.589200  0.636400  0.686000  1
  N  N896  1  0.950400  0.403200  0.814000  1
  N  N897  1  0.836000  0.396200  0.505000  1
  N  N898  1  0.891200  0.831000  0.995000  1
  N  N899  1  0.164000  0.603800  0.495000  1
  N  N900  1  0.108800  0.169000  0.005000  1
  N  N901  1  0.021500  0.223700  0.841800  1
  N  N902  1  0.381900  0.679700  0.658200  1
  N  N903  1  0.978500  0.776300  0.158200  1
  N  N904  1  0.618100  0.320300  0.341800  1
  N  N905  1  0.141700  0.169300  0.318000  1
  N  N906  1  0.851300  0.323700  0.182000  1
  N  N907  1  0.858300  0.830700  0.682000  1
  N  N908  1  0.148700  0.676300  0.818000  1
  N  N909  1  0.290700  0.180800  0.975300  1
  N  N910  1  0.205500  0.815400  0.524700  1
  N  N911  1  0.709300  0.819200  0.024700  1
  N  N912  1  0.794500  0.184600  0.475300  1
  N  N913  1  0.801970  0.141370  0.635000  1.0
  N  N914  1  0.506370  0.666970  0.865000  1.0
  N  N915  1  0.198030  0.858630  0.365000  1.0
  N  N916  1  0.493630  0.333030  0.135000  1.0
  N  N917  1  0.440760  0.196660  0.324900  1.0
  N  N918  1  0.871760  0.615860  0.175100  1.0
  N  N919  1  0.559240  0.803340  0.675100  1.0
  N  N920  1  0.128240  0.384140  0.824900  1.0
  N  N921  1  0.858760  0.563760  0.690200  1.0
  N  N922  1  0.873560  0.668560  0.809800  1.0
  N  N923  1  0.141240  0.436240  0.309800  1.0
  N  N924  1  0.126440  0.331440  0.190200  1.0
  N  N925  1  0.662700  0.232900  0.511600  1.0
  N  N926  1  0.721300  0.651100  0.988400  1.0
  N  N927  1  0.337300  0.767100  0.488400  1.0
  N  N928  1  0.278700  0.348900  0.011600  1.0
  N  N929  1  0.677500  0.337500  0.524800  1.0
  N  N930  1  0.812700  0.652700  0.975200  1.0
  N  N931  1  0.322500  0.662500  0.475200  1.0
  N  N932  1  0.187300  0.347300  0.024800  1.0
  N  N933  1  0.766800  0.324100  0.601300  1.0
  N  N934  1  0.722800  0.665500  0.898700  1.0
  N  N935  1  0.233200  0.675900  0.398700  1.0
  N  N936  1  0.277200  0.334500  0.101300  1.0
  N  N937  1  0.803110  0.127910  0.743000  1.0
  N  N938  1  0.384910  0.560110  0.757000  1.0
  N  N939  1  0.196890  0.872090  0.257000  1.0
  N  N940  1  0.615090  0.439890  0.243000  1.0
  N  N941  1  0.335590  0.198490  0.341500  1.0
  N  N942  1  0.856990  0.494090  0.158500  1.0
  N  N943  1  0.664410  0.801510  0.658500  1.0
  N  N944  1  0.143010  0.505910  0.841500  1.0
  N  N945  1  0.331650  0.141450  0.705200  1.0
  N  N946  1  0.436250  0.126450  0.794800  1.0
  N  N947  1  0.668350  0.858550  0.294800  1.0
  N  N948  1  0.563750  0.873550  0.205200  1.0
  N  N949  1  0.765850  0.278450  0.927800  1.0
  N  N950  1  0.350650  0.338050  0.572200  1.0
  N  N951  1  0.234150  0.721550  0.072200  1.0
  N  N952  1  0.649350  0.661950  0.427800  1.0
  N  N953  1  0.336460  0.233860  0.559000  1.0
  N  N954  1  0.674860  0.277460  0.941000  1.0
  N  N955  1  0.663540  0.766140  0.441000  1.0
  N  N956  1  0.325140  0.722540  0.059000  1.0
  N  N957  1  0.662200  0.187600  0.838600  1.0
  N  N958  1  0.349000  0.323600  0.661400  1.0
  N  N959  1  0.337800  0.812400  0.161400  1.0
  N  N960  1  0.651000  0.676400  0.338600  1.0
  N  N961  1  0.865100  0.046000  0.608100  1.0
  N  N962  1  0.437900  0.757000  0.891900  1.0
  N  N963  1  0.134900  0.954000  0.391900  1.0
  N  N964  1  0.562100  0.243000  0.108100  1.0
  N  N965  1  0.867900  0.032500  0.717200  1.0
  N  N966  1  0.315300  0.650700  0.782800  1.0
  N  N967  1  0.132100  0.967500  0.282800  1.0
  N  N968  1  0.684700  0.349300  0.217200  1.0
  N  N969  1  0.244300  0.135100  0.183600  1.0
  N  N970  1  0.951500  0.560700  0.316400  1.0
  N  N971  1  0.755700  0.864900  0.816400  1.0
  N  N972  1  0.048500  0.439300  0.683600  1.0
  N  N973  1  0.349510  0.131510  0.165600  1.0
  N  N974  1  0.965910  0.683910  0.334400  1.0
  N  N975  1  0.650490  0.868490  0.834400  1.0
  N  N976  1  0.034090  0.316090  0.665600  1.0
  N  N977  1  0.237300  0.048000  0.706300  1.0
  N  N978  1  0.341700  0.031000  0.793700  1.0
  N  N979  1  0.762700  0.952000  0.293700  1.0
  N  N980  1  0.658300  0.969000  0.206300  1.0
  N  N981  1  0.952600  0.657800  0.689200  1.0
  N  N982  1  0.968600  0.763400  0.810800  1.0
  N  N983  1  0.047400  0.342200  0.310800  1.0
  N  N984  1  0.031400  0.236600  0.189200  1.0
  O  O985  1  0.930900  0.510900  0.026000  1
  O  O986  1  0.484900  0.404900  0.474000  1
  O  O987  1  0.069100  0.489100  0.974000  1
  O  O988  1  0.515100  0.595100  0.526000  1
  O  O989  1  0.378967  0.314633  0.269000  1
  O  O990  1  0.045633  0.609967  0.231000  1
  O  O991  1  0.621033  0.685367  0.731000  1
  O  O992  1  0.954367  0.390033  0.769000  1
  O  O993  1  0.397800  0.416800  0.314800  1
  O  O994  1  0.102000  0.583000  0.185200  1
  O  O995  1  0.602200  0.583200  0.685200  1
  O  O996  1  0.898000  0.417000  0.814800  1
  O  O997  1  0.338300  0.363100  0.327600  1
  O  O998  1  0.035500  0.510700  0.172400  1
  O  O999  1  0.661700  0.636900  0.672400  1
  O  O1000  1  0.964500  0.489300  0.827600  1
  O  O1001  1  0.817200  0.777200  0.457600  1
  O  O1002  1  0.319600  0.859600  0.042400  1
  O  O1003  1  0.182800  0.222800  0.542400  1
  O  O1004  1  0.680400  0.140400  0.957600  1
  O  O1005  1  0.060400  0.088400  0.236600  1
  O  O1006  1  0.851800  0.323800  0.263400  1
  O  O1007  1  0.939600  0.911600  0.763400  1
  O  O1008  1  0.148200  0.676200  0.736600  1
  O  O1009  1  0.178800  0.160600  0.621200  1
  O  O1010  1  0.539400  0.057600  0.878800  1
  O  O1011  1  0.821200  0.839400  0.378800  1
  O  O1012  1  0.460600  0.942400  0.121200  1
  O  O1013  1  0.000200  0.972800  0.913800  1
  O  O1014  1  0.059000  0.586400  0.586200  1
  O  O1015  1  0.999800  0.027200  0.086200  1
  O  O1016  1  0.941000  0.413600  0.413800  1
  O  O1017  1  0.364400  0.010500  0.983500  1
  O  O1018  1  0.027000  0.880900  0.516500  1
  O  O1019  1  0.635600  0.989500  0.016500  1
  O  O1020  1  0.973000  0.119100  0.483500  1
  O  O1021  1  0.583300  0.897000  0.477700  1
  O  O1022  1  0.419300  0.605600  0.022300  1
  O  O1023  1  0.416700  0.103000  0.522300  1
  O  O1024  1  0.580700  0.394400  0.977700  1
  O  O1025  1  0.684400  0.955300  0.560700  1
  O  O1026  1  0.394600  0.623700  0.939300  1
  O  O1027  1  0.315600  0.044700  0.439300  1
  O  O1028  1  0.605400  0.376300  0.060700  1
  O  O1029  1  0.840900  0.460100  0.518400  1
  O  O1030  1  0.941700  0.822500  0.981600  1
  O  O1031  1  0.159100  0.539900  0.481600  1
  O  O1032  1  0.058300  0.177500  0.018400  1
  O  O1033  1  0.977100  0.221700  0.803400  1
  O  O1034  1  0.418300  0.673700  0.696600  1
  O  O1035  1  0.022900  0.778300  0.196600  1
  O  O1036  1  0.581700  0.326300  0.303400  1
  O  O1037  1  0.645800  0.226600  0.310400  1
  O  O1038  1  0.916200  0.835400  0.189600  1
  O  O1039  1  0.354200  0.773400  0.689600  1
  O  O1040  1  0.083800  0.164600  0.810400  1
  O  O1041  1  0.749700  0.568500  0.496000  1
  O  O1042  1  0.072500  0.753700  0.004000  1
  O  O1043  1  0.250300  0.431500  0.504000  1
  O  O1044  1  0.927500  0.246300  0.996000  1
  O  O1045  1  0.529500  0.127400  0.239900  1
  O  O1046  1  0.887500  0.789600  0.260100  1
  O  O1047  1  0.470500  0.872600  0.760100  1
  O  O1048  1  0.112500  0.210400  0.739900  1
  O  O1049  1  0.538900  0.402900  0.364000  1
  O  O1050  1  0.038900  0.674900  0.136000  1
  O  O1051  1  0.461100  0.597100  0.636000  1
  O  O1052  1  0.961100  0.325100  0.864000  1
  O  O1053  1  0.717400  0.460400  0.449000  1
  O  O1054  1  0.011400  0.768400  0.051000  1
  O  O1055  1  0.282600  0.539600  0.551000  1
  O  O1056  1  0.988600  0.231600  0.949000  1
  O  O1057  1  0.315700  0.022800  0.241700  1
  O  O1058  1  0.781100  0.574000  0.258300  1
  O  O1059  1  0.684300  0.977200  0.758300  1
  O  O1060  1  0.218900  0.426000  0.741700  1
  O  O1061  1  0.288300  0.935500  0.146200  1
  O  O1062  1  0.789300  0.642100  0.353800  1
  O  O1063  1  0.711700  0.064500  0.853800  1
  O  O1064  1  0.210700  0.357900  0.646200  1
  O  O1065  1  0.378500  0.986400  0.233900  1
  O  O1066  1  0.752500  0.644600  0.266100  1
  O  O1067  1  0.621500  0.013600  0.766100  1
  O  O1068  1  0.247500  0.355400  0.733900  1
  O  O1069  1  0.460000  0.997000  0.379000  1
  O  O1070  1  0.618000  0.581000  0.121000  1
  O  O1071  1  0.540000  0.003000  0.621000  1
  O  O1072  1  0.382000  0.419000  0.879000  1
  O  O1073  1  0.850400  0.090500  0.937300  1
  O  O1074  1  0.153200  0.413100  0.562700  1
  O  O1075  1  0.149600  0.909500  0.062700  1
  O  O1076  1  0.846800  0.586900  0.437300  1
  O  O1077  1  0.346500  0.419400  0.427900  1
  O  O1078  1  0.991500  0.418600  0.072100  1
  O  O1079  1  0.653500  0.580600  0.572100  1
  O  O1080  1  0.008500  0.581400  0.927900  1
  O  O1081  1  0.995500  0.833900  0.669200  1
  O  O1082  1  0.164700  0.826300  0.830800  1
  O  O1083  1  0.004500  0.166100  0.330800  1
  O  O1084  1  0.835300  0.173700  0.169200  1
  O  O1085  1  0.580400  0.009800  0.427000  1
  O  O1086  1  0.582800  0.653400  0.073000  1
  O  O1087  1  0.419600  0.990200  0.573000  1
  O  O1088  1  0.417200  0.346600  0.927000  1
  O  O1089  1  0.169000  0.004600  0.836600  1
  O  O1090  1  0.168000  0.832400  0.663400  1
  O  O1091  1  0.831000  0.995400  0.163400  1
  O  O1092  1  0.832000  0.167600  0.336600  1
  O  O1093  1  0.179500  0.200000  0.335300  1
  O  O1094  1  0.864700  0.344200  0.164700  1
  O  O1095  1  0.820500  0.800000  0.664700  1
  O  O1096  1  0.135300  0.655800  0.835300  1
  O  O1097  1  0.170700  0.163100  0.402800  1
  O  O1098  1  0.760300  0.267900  0.097200  1
  O  O1099  1  0.829300  0.836900  0.597200  1
  O  O1100  1  0.239700  0.732100  0.902800  1
  O  O1101  1  0.206100  0.264800  0.445300  1
  O  O1102  1  0.819500  0.260800  0.054700  1
  O  O1103  1  0.793900  0.735200  0.554700  1
  O  O1104  1  0.180500  0.739200  0.945300  1
  O  O1105  1  0.030400  0.626000  0.838000  1
  O  O1106  1  0.788000  0.692400  0.662000  1
  O  O1107  1  0.969600  0.374000  0.162000  1
  O  O1108  1  0.212000  0.307600  0.338000  1
  O  O1109  1  0.124900  0.831700  0.540000  1
  O  O1110  1  0.291700  0.084900  0.960000  1
  O  O1111  1  0.875100  0.168300  0.460000  1
  O  O1112  1  0.708300  0.915100  0.040000  1
  O  O1113  1  0.226800  0.859100  0.564700  1
  O  O1114  1  0.294400  0.162100  0.935300  1
  O  O1115  1  0.773200  0.140900  0.435300  1
  O  O1116  1  0.705600  0.837900  0.064700  1
  O  O1117  1  0.154100  0.864500  0.486000  1
  O  O1118  1  0.378500  0.168100  0.014000  1
  O  O1119  1  0.845900  0.135500  0.514000  1
  O  O1120  1  0.621500  0.831900  0.986000  1
  O  O1121  1  0.743000  0.249600  0.437200  1
  O  O1122  1  0.812400  0.805800  0.062800  1
  O  O1123  1  0.257000  0.750400  0.562800  1
  O  O1124  1  0.187600  0.194200  0.937200  1
  O  O1125  1  0.125600  0.875600  0.750000  1
  O  O1126  1  0.874400  0.124400  0.250000  1
  O  O1127  1  0.066300  0.032900  0.740600  1
  O  O1128  1  0.292300  0.825700  0.759400  1
  O  O1129  1  0.933700  0.967100  0.259400  1
  O  O1130  1  0.707700  0.174300  0.240600  1
  O  O1131  1  0.491200  0.039600  0.098800  1
  O  O1132  1  0.940800  0.892400  0.401200  1
  O  O1133  1  0.508800  0.960400  0.901200  1
  O  O1134  1  0.059200  0.107600  0.598800  1
  O  O1135  1  0.175100  0.935400  0.969100  1
  O  O1136  1  0.966300  0.706000  0.530900  1
  O  O1137  1  0.824900  0.064600  0.030900  1
  O  O1138  1  0.033700  0.294000  0.469100  1
  O  O1139  1  0.894000  0.494100  0.453100  1
  O  O1140  1  0.041000  0.940900  0.046900  1
  O  O1141  1  0.106000  0.505900  0.546900  1
  O  O1142  1  0.959000  0.059100  0.953100  1
  O  O1143  1  0.270200  0.907100  0.954500  1
  O  O1144  1  0.952600  0.815700  0.545500  1
  O  O1145  1  0.729800  0.092900  0.045500  1
  O  O1146  1  0.047400  0.184300  0.454500  1
  O  O1147  1  0.033200  0.004700  0.610700  1
  O  O1148  1  0.394000  0.922500  0.889300  1
  O  O1149  1  0.966800  0.995300  0.389300  1
  O  O1150  1  0.606000  0.077500  0.110700  1
  O  O1151  1  0.079100  0.968500  0.973400  1
  O  O1152  1  0.995100  0.605700  0.526600  1
  O  O1153  1  0.920900  0.031500  0.026600  1
  O  O1154  1  0.004900  0.394300  0.473400  1
  O  O1155  1  0.113500  0.007000  0.926300  1
  O  O1156  1  0.080700  0.687200  0.573700  1
  O  O1157  1  0.886500  0.993000  0.073700  1
  O  O1158  1  0.919300  0.312800  0.426300  1
  O  O1159  1  0.313300  0.890300  0.895200  1
  O  O1160  1  0.995100  0.918100  0.604800  1
  O  O1161  1  0.686700  0.109700  0.104800  1
  O  O1162  1  0.004900  0.081900  0.395200  1
  O  O1163  1  0.593300  0.070300  0.583000  1
  O  O1164  1  0.487300  0.510300  0.917000  1
  O  O1165  1  0.406700  0.929700  0.417000  1
  O  O1166  1  0.512700  0.489700  0.083000  1
  O  O1167  1  0.468500  0.469900  0.579000  1
  O  O1168  1  0.890900  0.389500  0.921000  1
  O  O1169  1  0.531500  0.530100  0.421000  1
  O  O1170  1  0.109100  0.610500  0.079000  1
  O  O1171  1  0.609800  0.526800  0.995000  1
  O  O1172  1  0.531800  0.114800  0.505000  1
  O  O1173  1  0.390200  0.473200  0.005000  1
  O  O1174  1  0.468200  0.885200  0.495000  1
  O  O1175  1  0.683800  0.519500  0.849900  1
  O  O1176  1  0.669600  0.333900  0.650100  1
  O  O1177  1  0.316200  0.480500  0.150100  1
  O  O1178  1  0.330400  0.666100  0.349900  1
  O  O1179  1  0.669100  0.315000  0.833500  1
  O  O1180  1  0.481500  0.335600  0.666500  1
  O  O1181  1  0.330900  0.685000  0.166500  1
  O  O1182  1  0.518500  0.664400  0.333500  1
  O  O1183  1  0.531200  0.497500  0.837300  1
  O  O1184  1  0.660200  0.193900  0.662700  1
  O  O1185  1  0.468800  0.502500  0.162700  1
  O  O1186  1  0.339800  0.806100  0.337300  1
  O  O1187  1  0.534500  0.492100  0.774000  1
  O  O1188  1  0.718100  0.260500  0.726000  1
  O  O1189  1  0.465500  0.507900  0.226000  1
  O  O1190  1  0.281900  0.739500  0.274000  1
  O  O1191  1  0.430200  0.998000  0.248000  1
  O  O1192  1  0.750000  0.682200  0.252000  1
  O  O1193  1  0.569800  0.002000  0.752000  1
  O  O1194  1  0.250000  0.317800  0.748000  1
  O  O1195  1  0.677800  0.957400  0.536200  1
  O  O1196  1  0.421200  0.641600  0.963800  1
  O  O1197  1  0.322200  0.042600  0.463800  1
  O  O1198  1  0.578800  0.358400  0.036200  1
  O  O1199  1  0.632200  0.940700  0.590100  1
  O  O1200  1  0.350600  0.542100  0.909900  1
  O  O1201  1  0.367800  0.059300  0.409900  1
  O  O1202  1  0.649400  0.457900  0.090100  1
  O  O1203  1  0.600700  0.981400  0.532900  1
  O  O1204  1  0.448500  0.567800  0.967100  1
  O  O1205  1  0.399300  0.018600  0.467100  1
  O  O1206  1  0.551500  0.432200  0.032900  1
  O  O1207  1  0.359100  0.318900  0.277000  1
  O  O1208  1  0.041900  0.582100  0.223000  1
  O  O1209  1  0.640900  0.681100  0.723000  1
  O  O1210  1  0.958100  0.417900  0.777000  1
  O  O1211  1  0.459400  0.366800  0.308200  1
  O  O1212  1  0.058600  0.651200  0.191800  1
  O  O1213  1  0.540600  0.633200  0.691800  1
  O  O1214  1  0.941400  0.348800  0.808200  1
  O  O1215  1  0.432600  0.397800  0.381800  1
  O  O1216  1  0.016000  0.550800  0.118200  1
  O  O1217  1  0.567400  0.602200  0.618200  1
  O  O1218  1  0.984000  0.449200  0.881800  1
  O  O1219  1  0.781500  0.380500  0.458400  1
  O  O1220  1  0.922100  0.823100  0.041600  1
  O  O1221  1  0.218500  0.619500  0.541600  1
  O  O1222  1  0.077900  0.176900  0.958400  1
  O  O1223  1  0.858900  0.356000  0.515300  1
  O  O1224  1  0.840700  0.843600  0.984700  1
  O  O1225  1  0.141100  0.644000  0.484700  1
  O  O1226  1  0.159300  0.156400  0.015300  1
  O  O1227  1  0.873900  0.455500  0.539400  1
  O  O1228  1  0.916100  0.834500  0.960600  1
  O  O1229  1  0.126100  0.544500  0.460600  1
  O  O1230  1  0.083900  0.165500  0.039400  1
  O  O1231  1  0.010800  0.245400  0.894000  1
  O  O1232  1  0.351400  0.616800  0.606000  1
  O  O1233  1  0.989200  0.754600  0.106000  1
  O  O1234  1  0.648600  0.383200  0.394000  1
  O  O1235  1  0.066600  0.205900  0.849900  1
  O  O1236  1  0.356000  0.716700  0.650100  1
  O  O1237  1  0.933400  0.794100  0.150100  1
  O  O1238  1  0.644000  0.283300  0.349900  1
  O  O1239  1  0.984700  0.211900  0.780000  1
  O  O1240  1  0.431900  0.704700  0.720000  1
  O  O1241  1  0.015300  0.788100  0.220000  1
  O  O1242  1  0.568100  0.295300  0.280000  1
  O  O1243  1  0.987100  0.971500  0.854600  1
  O  O1244  1  0.116900  0.632500  0.645400  1
  O  O1245  1  0.012900  0.028500  0.145400  1
  O  O1246  1  0.883100  0.367500  0.354600  1
  O  O1247  1  0.246800  0.812200  0.005600  1
  O  O1248  1  0.806600  0.741200  0.494400  1
  O  O1249  1  0.753200  0.187800  0.994400  1
  O  O1250  1  0.193400  0.258800  0.505600  1
  O  O1251  1  0.841900  0.855000  0.502100  1
  O  O1252  1  0.352900  0.839800  0.997900  1
  O  O1253  1  0.158100  0.145000  0.497900  1
  O  O1254  1  0.647100  0.160200  0.002100  1
  O  O1255  1  0.169700  0.137100  0.589400  1
  O  O1256  1  0.547700  0.080300  0.910600  1
  O  O1257  1  0.830300  0.862900  0.410600  1
  O  O1258  1  0.452300  0.919700  0.089400  1
  O  O1259  1  0.329000  0.055200  0.976200  1
  O  O1260  1  0.079000  0.852800  0.523800  1
  O  O1261  1  0.671000  0.944800  0.023800  1
  O  O1262  1  0.921000  0.147200  0.476200  1
  O  O1263  1  0.407200  0.012200  0.985000  1
  O  O1264  1  0.027200  0.922200  0.515000  1
  O  O1265  1  0.592800  0.987800  0.015000  1
  O  O1266  1  0.972800  0.077800  0.485000  1
  O  O1267  1  0.588000  0.155800  0.245000  1
  O  O1268  1  0.910800  0.843000  0.255000  1
  O  O1269  1  0.412000  0.844200  0.755000  1
  O  O1270  1  0.089200  0.157000  0.745000  1
  O  O1271  1  0.590500  0.448500  0.436400  1
  O  O1272  1  0.012100  0.654100  0.063600  1
  O  O1273  1  0.409500  0.551500  0.563600  1
  O  O1274  1  0.987900  0.345900  0.936400  1
  O  O1275  1  0.753700  0.500000  0.468300  1
  O  O1276  1  0.031700  0.785400  0.031700  1
  O  O1277  1  0.246300  0.500000  0.531700  1
  O  O1278  1  0.968300  0.214600  0.968300  1
  O  O1279  1  0.277300  0.001500  0.213000  1
  O  O1280  1  0.788500  0.564300  0.287000  1
  O  O1281  1  0.722700  0.998500  0.787000  1
  O  O1282  1  0.211500  0.435700  0.713000  1
  O  O1283  1  0.870400  0.109400  0.901200  1
  O  O1284  1  0.208200  0.469200  0.598800  1
  O  O1285  1  0.129600  0.890600  0.098800  1
  O  O1286  1  0.791800  0.530800  0.401200  1
  O  O1287  1  0.226300  0.916300  0.084200  1
  O  O1288  1  0.832100  0.642100  0.415800  1
  O  O1289  1  0.773700  0.083700  0.915800  1
  O  O1290  1  0.167900  0.357900  0.584200  1
  O  O1291  1  0.339100  0.412000  0.859100  1
  O  O1292  1  0.552900  0.980000  0.640900  1
  O  O1293  1  0.660900  0.588000  0.140900  1
  O  O1294  1  0.447100  0.020000  0.359100  1
  O  O1295  1  0.220400  0.255600  0.745000  1
  O  O1296  1  0.510600  0.975400  0.755000  1
  O  O1297  1  0.779600  0.744400  0.255000  1
  O  O1298  1  0.489400  0.024600  0.245000  1
  O  O1299  1  0.324000  0.442400  0.482400  1
  O  O1300  1  0.960000  0.341600  0.017600  1
  O  O1301  1  0.676000  0.557600  0.517600  1
  O  O1302  1  0.040000  0.658400  0.982400  1
  O  O1303  1  0.008300  0.897800  0.693100  1
  O  O1304  1  0.204700  0.815200  0.806900  1
  O  O1305  1  0.991700  0.102200  0.306900  1
  O  O1306  1  0.795300  0.184800  0.193100  1
  O  O1307  1  0.560000  0.039300  0.386700  1
  O  O1308  1  0.652600  0.673300  0.113300  1
  O  O1309  1  0.440000  0.960700  0.613300  1
  O  O1310  1  0.347400  0.326700  0.886700  1
  O  O1311  1  0.091100  0.049500  0.862800  1
  O  O1312  1  0.186700  0.728300  0.637200  1
  O  O1313  1  0.908900  0.950500  0.137200  1
  O  O1314  1  0.813300  0.271700  0.362800  1
  O  O1315  1  0.180000  0.990400  0.883000  1
  O  O1316  1  0.107400  0.797000  0.617000  1
  O  O1317  1  0.820000  0.009600  0.117000  1
  O  O1318  1  0.892600  0.203000  0.383000  1
  O  O1319  1  0.029400  0.634300  0.859900  1
  O  O1320  1  0.774400  0.669500  0.640100  1
  O  O1321  1  0.970600  0.365700  0.140100  1
  O  O1322  1  0.225600  0.330500  0.359900  1
  O  O1323  1  0.328100  0.971000  0.603700  1
  O  O1324  1  0.367300  0.224400  0.896300  1
  O  O1325  1  0.671900  0.029000  0.396300  1
  O  O1326  1  0.632700  0.775600  0.103700  1
  O  O1327  1  0.085000  0.125900  0.293500  1
  O  O1328  1  0.832400  0.291500  0.206500  1
  O  O1329  1  0.915000  0.874100  0.706500  1
  O  O1330  1  0.167600  0.708500  0.793500  1
  O  O1331  1  0.170600  0.156800  0.288600  1
  O  O1332  1  0.868200  0.382000  0.211400  1
  O  O1333  1  0.829400  0.843200  0.711400  1
  O  O1334  1  0.131800  0.618000  0.788600  1
  O  O1335  1  0.164800  0.228300  0.368100  1
  O  O1336  1  0.860200  0.296700  0.131900  1
  O  O1337  1  0.835200  0.771700  0.631900  1
  O  O1338  1  0.139800  0.703300  0.868100  1
  O  O1339  1  0.306200  0.969400  0.596600  1
  O  O1340  1  0.372800  0.209600  0.903400  1
  O  O1341  1  0.693800  0.030600  0.403400  1
  O  O1342  1  0.627200  0.790400  0.096600  1
  O  O1343  1  0.267400  0.169100  0.007700  1
  O  O1344  1  0.161400  0.759700  0.492300  1
  O  O1345  1  0.732600  0.830900  0.992300  1
  O  O1346  1  0.838600  0.240300  0.507700  1
  O  O1347  1  0.347300  0.182900  0.980000  1
  O  O1348  1  0.202900  0.867300  0.520000  1
  O  O1349  1  0.652700  0.817100  0.020000  1
  O  O1350  1  0.797100  0.132700  0.480000  1
  O  O1351  1  0.264000  0.203800  0.942200  1
  O  O1352  1  0.261600  0.821800  0.557800  1
  O  O1353  1  0.736000  0.796200  0.057800  1
  O  O1354  1  0.738400  0.178200  0.442200  1
  O  O1355  1  0.778400  0.319700  0.459300  1
  O  O1356  1  0.860400  0.819100  0.040700  1
  O  O1357  1  0.221600  0.680300  0.540700  1
  O  O1358  1  0.139600  0.180900  0.959300  1
  O  O1359  1  0.535200  0.510400  0.709000  1.0
  O  O1360  1  0.801400  0.326200  0.791000  1.0
  O  O1361  1  0.464800  0.489600  0.291000  1.0
  O  O1362  1  0.198600  0.673800  0.209000  1.0
  Pd  Pd1363  1  0.336940  0.086940  0.750000  1
  Pd  Pd1364  1  0.663060  0.913060  0.250000  1
  Pd  Pd1365  1  0.913160  0.663160  0.750000  1
  Pd  Pd1366  1  0.086840  0.336840  0.250000  1
  Pd  Pd1367  1  0.834949  0.088065  0.676500  1.0
  Pd  Pd1368  1  0.411565  0.658449  0.823500  1.0
  Pd  Pd1369  1  0.165051  0.911935  0.323500  1.0
  Pd  Pd1370  1  0.588435  0.341551  0.176500  1.0
  Pd  Pd1371  1  0.342728  0.165124  0.254390  1.0
  Pd  Pd1372  1  0.910734  0.588338  0.245610  1.0
  Pd  Pd1373  1  0.657272  0.834876  0.745610  1.0
  Pd  Pd1374  1  0.089266  0.411662  0.754390  1.0
  Ru  Ru1375  1  0.597460  0.400440  0.810580  1
  Ru  Ru1376  1  0.589860  0.286880  0.689420  1
  Ru  Ru1377  1  0.402540  0.599560  0.189420  1
  Ru  Ru1378  1  0.410140  0.713120  0.310580  1
  Ru  Ru1379  1  0.601370  0.411730  0.697580  1.0
  Ru  Ru1380  1  0.714150  0.403790  0.802420  1.0
  Ru  Ru1381  1  0.398630  0.588270  0.302420  1.0
  Ru  Ru1382  1  0.285850  0.596210  0.197580  1.0
