
#######################################################################
#
#                 Cambridge Crystallographic Data Centre
#                                CCDC 
#
#######################################################################
#
# If this CIF has been generated from an entry in the Cambridge 
# Structural Database, then it will include bibliographic, chemical, 
# crystal, experimental, refinement or atomic coordinate data resulting 
# from the CCDC's data processing and validation procedures.
#
#######################################################################

data_NEMVEI
_chemical_formula_moiety         
'C108 H144 N36 Pd6 12+,C22 H26 O4 Ru2,12(N1 O3 1-),46(H2 O1)'
_chemical_name_systematic        
"tetrakis(\m~3~-2,4,6-tris(4-Pyridyl)-1,3,5-triazine)-hexakis(N,N,N',N'-tetramethylethylenediamine)-hexa-palladium(ii) bis(\m~2~-carbonyl)-bis(\h^5^-tetramethylcyclopentadienyl)-dicarbonyl-di-ruthenium clathrate dodecanitrate hydrate"
_symmetry_cell_setting           monoclinic
_symmetry_space_group_name_H-M   'C 2/c'
_symmetry_Int_Tables_number      15
_space_group_name_Hall           '-C 2yn'
loop_
_symmetry_equiv_pos_site_id
_symmetry_equiv_pos_as_xyz
1 x,y,z
2 -x,y,1/2-z
3 1/2+x,1/2+y,z
4 1/2-x,1/2+y,1/2-z
5 -x,-y,-z
6 x,-y,1/2+z
7 1/2-x,1/2-y,-z
8 1/2+x,1/2-y,1/2+z
_cell_length_a                   37.158(5)
_cell_length_b                   31.881(4)
_cell_length_c                   26.308(4)
_cell_angle_alpha                90
_cell_angle_beta                 134.93
_cell_angle_gamma                90
_cell_volume                     22064.1
_exptl_crystal_colour            'dark blue'
_exptl_crystal_description       block
_cell_formula_units_Z            4
loop_
_atom_site_label
_atom_site_type_symbol
_atom_site_fract_x
_atom_site_fract_y
_atom_site_fract_z
O2 O 1.2230(15) 0.7079(12) 1.026(2)
N1 N 0.6656(15) 0.7166(12) 0.3126(19)
O3 O 0.6666(7) 0.7123(6) 0.2690(9)
O4 O 0.6479(12) 0.7499(9) 0.3148(17)
O5 O 0.6514(14) 0.6869(10) 0.3276(19)
O6 O 1.2488(6) 0.5684(6) 0.4576(9)
O7 O 0.6043(8) 0.4561(7) 0.2366(12)
O8 O 0.8197(7) 0.3591(6) 0.6212(11)
O9 O 1.4706(12) 0.5296(10) 0.9138(18)
O10 O 0.6687(6) 0.6957(5) -0.0165(9)
O11 O 1.0820(14) 0.5013(11) 0.4777(19)
O12 O 1.1449(7) 0.5395(6) 0.5607(10)
O13 O 0.9496(6) 0.8913(5) 0.5184(8)
O14 O 1.2794(9) 0.6977(7) 0.8034(13)
O15 O 0.8648(7) 0.7810(6) 0.3104(10)
O16 O 0.8386(19) 0.9111(16) 0.496(3)
O17 O 0.8210(6) 0.7085(5) 0.2399(9)
O18 O 0.750(2) 0.7889(18) 0.364(3)
O19 O 0.8530(13) 0.8644(12) 0.4490(18)
N2 N 0.7741(11) 0.5485(9) 0.2115(16)
O20 O 0.7673(6) 0.5484(5) 0.2417(9)
O21 O 0.7495(8) 0.5388(6) 0.1462(12)
O22 O 0.8130(12) 0.5655(10) 0.2339(16)
O23 O 0.921(2) 0.5390(18) 0.379(3)
O24 O 1.3486(12) 0.5018(10) 0.9373(17)
O25 O 0.6775(7) 0.6690(6) 0.4279(10)
O26 O 0.9154(7) 0.0801(5) 0.6692(9)
O27 O 0.9988(7) 0.5816(5) 0.4270(9)
O28 O 1.0005(6) 0.1685(5) 0.8366(9)
N3 N 0.6841(8) 0.4981(6) 0.3930(11)
O29 O 0.6574(7) 0.5221(6) 0.3353(9)
O30 O 0.7052(7) 0.4655(6) 0.4028(10)
O31 O 0.6933(8) 0.5128(7) 0.4453(11)
O32 O 1.1212(6) 0.9092(5) 0.8380(9)
N4 N 0.9228(6) 0.2465(5) 0.5274(8)
O33 O 0.9166(5) 0.2083(4) 0.5400(7)
O34 O 0.9662(7) 0.2606(6) 0.5647(11)
O35 O 0.8878(7) 0.2663(5) 0.4860(9)
O36 O 0.9653(6) 0.7777(5) 0.4372(8)
O37 O 1.0000 0.1256(4) 0.7500
O38 O 1.3870(5) 0.6793(4) 0.7406(7)
O39 O 0.7752(5) 0.7160(4) 0.0988(7)
O40 O 0.6044(5) 0.5707(4) -0.0309(7)
O41 O 0.9265(6) 0.9675(5) 0.4531(8)
O42 O 0.6588(7) 0.6114(5) -0.0455(9)
O43 O 1.3196(7) 0.7136(6) 0.6107(9)
O44 O 0.5420(8) 0.5371(6) -0.0266(11)
O45 O 1.5164(10) 0.5971(8) 0.9263(14)
O46 O 0.6591(13) 0.6542(11) -0.1048(19)
O47 O 1.0530(16) 0.5403(13) 0.583(2)
O48 O 0.7888(18) 0.6797(15) 0.579(3)
O49 O 1.0390(17) 0.5708(14) 0.995(2)
Pd1 Pd 1.211692(18) 0.623257(15) 0.67650(3)
Pd2 Pd 0.715997(18) 0.626731(15) 0.25439(3)
Pd3 Pd 1.0000 0.33694(2) 0.7500
Pd4 Pd 1.0000 0.91316(2) 0.7500
C11 C 1.1515(3) 0.6896(2) 0.6672(4)
H7 H 1.1841 0.7013 0.7061
C12 C 1.1089(3) 0.7091(2) 0.6448(4)
H8 H 1.1121 0.7344 0.6669
C13 C 1.0616(3) 0.6912(2) 0.5896(4)
C14 C 1.0580(3) 0.6550(2) 0.5570(4)
H9 H 1.0257 0.6428 0.5184
C15 C 1.1013(3) 0.6369(2) 0.5808(4)
H10 H 1.0986 0.6118 0.5587
C16 C 0.8258(3) 0.6374(3) 0.3461(4)
H11 H 0.8220 0.6119 0.3240
C17 C 0.8742(3) 0.6550(3) 0.4001(4)
H12 H 0.9031 0.6421 0.4141
C18 C 0.8793(3) 0.6921(2) 0.4334(4)
C19 C 0.8366(3) 0.7109(2) 0.4104(4)
H13 H 0.8391 0.7361 0.4318
C20 C 0.7894(3) 0.6920(2) 0.3549(4)
H14 H 0.7597 0.7053 0.3380
C21 C 0.9470(2) 0.8502(2) 0.6339(4)
H15 H 0.9176 0.8626 0.6190
C22 C 0.9415(3) 0.8155(3) 0.5961(4)
H16 H 0.9087 0.8046 0.5562
C23 C 0.9836(3) 0.7975(2) 0.6168(4)
C24 C 1.0311(2) 0.8145(2) 0.6759(4)
H17 H 1.0611 0.8027 0.6919
C25 C 1.0340(2) 0.8484(2) 0.7106(4)
H18 H 1.0665 0.8598 0.7506
C26 C 1.0153(2) 0.7107(2) 0.5658(4)
C27 C 0.9309(3) 0.7109(2) 0.4940(4)
C28 C 0.9792(2) 0.7602(2) 0.5787(4)
C29 C 1.1831(3) 0.5582(2) 0.7220(4)
H19 H 1.1702 0.5448 0.6795
C30 C 1.1747(3) 0.5401(2) 0.7605(4)
H20 H 1.1554 0.5150 0.7439
C31 C 1.1947(3) 0.5586(2) 0.8231(4)
C32 C 1.2227(4) 0.5953(3) 0.8456(4)
H21 H 1.2374 0.6084 0.8892
C33 C 1.2289(3) 0.6123(3) 0.8043(4)
H22 H 1.2477 0.6376 0.8194
C34 C 0.7316(3) 0.6135(2) 0.3804(4)
H23 H 0.7123 0.6386 0.3637
C35 C 0.7508(3) 0.5956(2) 0.4433(4)
H24 H 0.7445 0.6081 0.4692
C36 C 0.7796(3) 0.5592(2) 0.4682(4)
C37 C 0.7877(3) 0.5414(2) 0.4288(4)
H25 H 0.8068 0.5162 0.4445
C38 C 0.7674(3) 0.5612(2) 0.3660(4)
H26 H 0.7736 0.5495 0.3395
C39 C 0.9270(3) 0.4017(2) 0.6430(4)
H27 H 0.9345 0.3902 0.6181
C40 C 0.8953(3) 0.4357(2) 0.6143(4)
H28 H 0.8810 0.4474 0.5701
C41 C 0.8840(3) 0.4531(2) 0.6501(4)
C42 C 0.9054(3) 0.4349(3) 0.7143(4)
H29 H 0.8984 0.4459 0.7401
C43 C 0.9374(3) 0.4004(2) 0.7406(4)
H30 H 0.9524 0.3882 0.7849
C44 C 1.1857(3) 0.5396(2) 0.8662(4)
C45 C 0.8022(3) 0.5397(2) 0.5374(4)
C46 C 0.8508(3) 0.4904(2) 0.6216(4)
C47 C 1.1724(9) 0.6463(7) 0.5359(12)
H31 H 1.1779 0.6614 0.5095
H32 H 1.1420 0.6573 0.5225
H33 H 1.1676 0.6164 0.5241
C48 C 1.2321(8) 0.6936(5) 0.6285(10)
H34 H 1.2295 0.7064 0.5921
H35 H 1.2677 0.6936 0.6750
H36 H 1.2117 0.7098 0.6323
C49 C 1.2585(6) 0.6244(6) 0.6234(9)
H37 H 1.2435 0.5988 0.5934
H38 H 1.2727 0.6415 0.6095
C50 C 1.2987(7) 0.6128(6) 0.6977(11)
H39 H 1.3233 0.5942 0.7047
H40 H 1.3170 0.6381 0.7278
C51 C 1.2628(9) 0.5453(7) 0.6919(13)
H41 H 1.2934 0.5305 0.7110
H42 H 1.2370 0.5444 0.6393
H43 H 1.2495 0.5318 0.7093
C52 C 1.3183(8) 0.5880(7) 0.8024(11)
H44 H 1.3478 0.5726 0.8186
H45 H 1.3042 0.5731 0.8176
H46 H 1.3290 0.6162 0.8235
C53 C 0.6501(5) 0.5495(4) 0.2014(8)
H47 H 0.6161 0.5369 0.1665
H48 H 0.6644 0.5464 0.2498
H49 H 0.6722 0.5352 0.1989
C54 C 0.6147(6) 0.6073(5) 0.1935(8)
H50 H 0.5824 0.5922 0.1576
H51 H 0.6082 0.6376 0.1880
H52 H 0.6314 0.5986 0.2417
C55 C 0.6259(5) 0.6021(5) 0.1136(7)
H53 H 0.5892 0.5951 0.0769
H54 H 0.6437 0.5834 0.1072
C56 C 0.6339(5) 0.6472(4) 0.1076(7)
H55 H 0.6160 0.6655 0.1142
H56 H 0.6197 0.6526 0.0592
C57 C 0.7159(5) 0.6398(4) 0.1450(7)
H57 H 0.7043 0.6547 0.1031
H58 H 0.7067 0.6101 0.1331
H59 H 0.7528 0.6424 0.1850
C58 C 0.6980(6) 0.7026(5) 0.1735(8)
H60 H 0.6858 0.7150 0.1295
H61 H 0.7340 0.7094 0.2141
H62 H 0.6783 0.7140 0.1824
C59 C 0.9010(3) 0.2962(3) 0.6280(4)
H63 H 0.8773 0.2730 0.6097
H64 H 0.9105 0.2976 0.6015
H65 H 0.8847 0.3226 0.6217
C60 C 0.9318(4) 0.2860(3) 0.7436(5)
H66 H 0.9068 0.2634 0.7220
H67 H 0.9164 0.3126 0.7393
H68 H 0.9614 0.2798 0.7945
C61 C 0.9728(4) 0.2500(3) 0.7144(5)
H69 H 0.9711 0.2478 0.6752
H70 H 0.9549 0.2256 0.7112
C62 C 1.0234(3) 0.9538(3) 0.6740(6)
H71 H 1.0181 0.9771 0.6451
H72 H 1.0132 0.9275 0.6475
H73 H 1.0594 0.9523 0.7193
C63 C 0.9384(3) 0.9640(3) 0.6195(6)
H74 H 0.9350 0.9867 0.5912
H75 H 0.9169 0.9701 0.6276
H76 H 0.9276 0.9375 0.5932
C64 C 1.0090(5) 0.9999(3) 0.7308(7)
H77 H 0.9944 1.0243 0.6982
H78 H 1.0465 1.0020 0.7668
N5 N 1.1478(2) 0.65417(18) 0.6350(3)
N6 N 0.7845(2) 0.65626(17) 0.3249(3)
N7 N 0.9926(2) 0.86616(17) 0.6902(3)
N8 N 0.9707(2) 0.69200(19) 0.5116(3)
N9 N 0.9324(2) 0.7451(2) 0.5248(3)
N10 N 1.0220(2) 0.74480(18) 0.6013(3)
N11 N 1.2091(2) 0.59401(17) 0.7430(3)
N12 N 0.7393(2) 0.59629(18) 0.3415(3)
N13 N 0.9477(2) 0.38395(18) 0.7052(3)
N14 N 1.2076(2) 0.55825(19) 0.9278(3)
N15 N 0.8308(2) 0.50566(18) 0.5590(3)
N16 N 1.1566(2) 0.5056(2) 0.8386(3)
N17 N 1.2136(3) 0.6515(2) 0.6081(4)
N18 N 1.2763(2) 0.59160(19) 0.7172(3)
N19 N 0.6464(2) 0.5979(2) 0.1836(3)
N20 N 0.6918(2) 0.65771(19) 0.1656(3)
N21 N 0.9478(3) 0.2895(2) 0.7063(3)
N22 N 0.9920(3) 0.9606(2) 0.6892(4)
Pd1A Pd 0.788308(18) 0.623257(15) 0.82350(3)
Pd2A Pd 1.284003(18) 0.626731(15) 1.24561(3)
C11A C 0.8485(3) 0.6896(2) 0.8328(4)
H7A H 0.8159 0.7013 0.7939
C12A C 0.8911(3) 0.7091(2) 0.8552(4)
H8A H 0.8879 0.7344 0.8331
C13A C 0.9384(3) 0.6912(2) 0.9104(4)
C14A C 0.9420(3) 0.6550(2) 0.9430(4)
H9A H 0.9743 0.6428 0.9816
C15A C 0.8987(3) 0.6369(2) 0.9192(4)
H10A H 0.9014 0.6118 0.9413
C16A C 1.1742(3) 0.6374(3) 1.1539(4)
H11A H 1.1780 0.6119 1.1760
C17A C 1.1258(3) 0.6550(3) 1.0999(4)
H12A H 1.0969 0.6421 1.0859
C18A C 1.1207(3) 0.6921(2) 1.0666(4)
C19A C 1.1634(3) 0.7109(2) 1.0896(4)
H13A H 1.1609 0.7361 1.0682
C20A C 1.2106(3) 0.6920(2) 1.1451(4)
H14A H 1.2403 0.7053 1.1620
C21A C 1.0530(2) 0.8502(2) 0.8661(4)
H15A H 1.0824 0.8626 0.8810
C22A C 1.0585(3) 0.8155(3) 0.9039(4)
H16A H 1.0913 0.8046 0.9438
C23A C 1.0164(3) 0.7975(2) 0.8832(4)
C24A C 0.9689(2) 0.8145(2) 0.8241(4)
H17A H 0.9389 0.8027 0.8081
C25A C 0.9660(2) 0.8484(2) 0.7894(4)
H18A H 0.9335 0.8598 0.7494
C26A C 0.9847(2) 0.7107(2) 0.9342(4)
C27A C 1.0691(3) 0.7109(2) 1.0060(4)
C28A C 1.0208(2) 0.7602(2) 0.9213(4)
C29A C 0.8169(3) 0.5582(2) 0.7780(4)
H19A H 0.8298 0.5448 0.8205
C30A C 0.8253(3) 0.5401(2) 0.7395(4)
H20A H 0.8446 0.5150 0.7561
C31A C 0.8053(3) 0.5586(2) 0.6769(4)
C32A C 0.7773(4) 0.5953(3) 0.6544(4)
H21A H 0.7626 0.6084 0.6108
C33A C 0.7711(3) 0.6123(3) 0.6957(4)
H22A H 0.7523 0.6376 0.6806
C34A C 1.2684(3) 0.6135(2) 1.1196(4)
H23A H 1.2877 0.6386 1.1363
C35A C 1.2492(3) 0.5956(2) 1.0567(4)
H24A H 1.2555 0.6081 1.0308
C36A C 1.2204(3) 0.5592(2) 1.0318(4)
C37A C 1.2123(3) 0.5414(2) 1.0712(4)
H25A H 1.1932 0.5162 1.0555
C38A C 1.2326(3) 0.5612(2) 1.1340(4)
H26A H 1.2264 0.5495 1.1605
C39A C 1.0730(3) 0.4017(2) 0.8570(4)
H27A H 1.0655 0.3902 0.8819
C40A C 1.1047(3) 0.4357(2) 0.8857(4)
H28A H 1.1190 0.4474 0.9299
C41A C 1.1160(3) 0.4531(2) 0.8499(4)
C42A C 1.0946(3) 0.4349(3) 0.7857(4)
H29A H 1.1016 0.4459 0.7599
C43A C 1.0626(3) 0.4004(2) 0.7594(4)
H30A H 1.0476 0.3882 0.7151
C44A C 0.8143(3) 0.5396(2) 0.6338(4)
C45A C 1.1978(3) 0.5397(2) 0.9626(4)
C46A C 1.1492(3) 0.4904(2) 0.8784(4)
C47A C 0.8276(9) 0.6463(7) 0.9641(12)
H31A H 0.8221 0.6614 0.9905
H32A H 0.8580 0.6573 0.9775
H33A H 0.8324 0.6164 0.9759
C48A C 0.7679(8) 0.6936(5) 0.8715(10)
H34A H 0.7705 0.7064 0.9079
H35A H 0.7323 0.6936 0.8250
H36A H 0.7883 0.7098 0.8677
C49A C 0.7415(6) 0.6244(6) 0.8766(9)
H37A H 0.7565 0.5988 0.9066
H38A H 0.7273 0.6415 0.8905
C50A C 0.7013(7) 0.6128(6) 0.8023(11)
H39A H 0.6767 0.5942 0.7953
H40A H 0.6830 0.6381 0.7722
C51A C 0.7372(9) 0.5453(7) 0.8081(13)
H41A H 0.7066 0.5305 0.7890
H42A H 0.7630 0.5444 0.8607
H43A H 0.7505 0.5318 0.7907
C52A C 0.6817(8) 0.5880(7) 0.6976(11)
H44A H 0.6522 0.5726 0.6814
H45A H 0.6958 0.5731 0.6824
H46A H 0.6710 0.6162 0.6765
C53A C 1.3499(5) 0.5495(4) 1.2986(8)
H47A H 1.3839 0.5369 1.3335
H48A H 1.3356 0.5464 1.2502
H49A H 1.3278 0.5352 1.3011
C54A C 1.3853(6) 0.6073(5) 1.3065(8)
H50A H 1.4176 0.5922 1.3424
H51A H 1.3918 0.6376 1.3120
H52A H 1.3686 0.5986 1.2583
C55A C 1.3741(5) 0.6021(5) 1.3864(7)
H53A H 1.4108 0.5951 1.4231
H54A H 1.3563 0.5834 1.3928
C56A C 1.3661(5) 0.6472(4) 1.3924(7)
H55A H 1.3840 0.6655 1.3858
H56A H 1.3803 0.6526 1.4408
C57A C 1.2841(5) 0.6398(4) 1.3550(7)
H57A H 1.2957 0.6547 1.3969
H58A H 1.2933 0.6101 1.3669
H59A H 1.2472 0.6424 1.3150
C58A C 1.3020(6) 0.7026(5) 1.3265(8)
H60A H 1.3142 0.7150 1.3705
H61A H 1.2660 0.7094 1.2859
H62A H 1.3217 0.7140 1.3176
C59A C 1.0990(3) 0.2962(3) 0.8720(4)
H63A H 1.1227 0.2730 0.8903
H64A H 1.0895 0.2976 0.8985
H65A H 1.1153 0.3226 0.8783
C60A C 1.0682(4) 0.2860(3) 0.7564(5)
H66A H 1.0932 0.2634 0.7780
H67A H 1.0836 0.3126 0.7607
H68A H 1.0386 0.2798 0.7055
C61A C 1.0272(4) 0.2500(3) 0.7856(5)
H69A H 1.0289 0.2478 0.8248
H70A H 1.0451 0.2256 0.7888
C62A C 0.9766(3) 0.9538(3) 0.8260(6)
H71A H 0.9819 0.9771 0.8549
H72A H 0.9868 0.9275 0.8525
H73A H 0.9406 0.9523 0.7807
C63A C 1.0616(3) 0.9640(3) 0.8805(6)
H74A H 1.0650 0.9867 0.9088
H75A H 1.0831 0.9701 0.8724
H76A H 1.0724 0.9375 0.9068
C64A C 0.9910(5) 0.9999(3) 0.7692(7)
H77A H 1.0056 1.0243 0.8018
H78A H 0.9535 1.0020 0.7332
N5A N 0.8522(2) 0.65417(18) 0.8650(3)
N6A N 1.2155(2) 0.65626(17) 1.1751(3)
N7A N 1.0074(2) 0.86616(17) 0.8098(3)
N8A N 1.0293(2) 0.69200(19) 0.9884(3)
N9A N 1.0676(2) 0.7451(2) 0.9752(3)
N10A N 0.9780(2) 0.74480(18) 0.8987(3)
N11A N 0.7909(2) 0.59401(17) 0.7570(3)
N12A N 1.2607(2) 0.59629(18) 1.1585(3)
N13A N 1.0523(2) 0.38395(18) 0.7948(3)
N14A N 0.7924(2) 0.55825(19) 0.5722(3)
N15A N 1.1692(2) 0.50566(18) 0.9410(3)
N16A N 0.8434(2) 0.5056(2) 0.6614(3)
N17A N 0.7864(3) 0.6515(2) 0.8919(4)
N18A N 0.7237(2) 0.59160(19) 0.7828(3)
N19A N 1.3536(2) 0.5979(2) 1.3164(3)
N20A N 1.3082(2) 0.65771(19) 1.3344(3)
N21A N 1.0522(3) 0.2895(2) 0.7937(3)
N22A N 1.0080(3) 0.9606(2) 0.8108(4)
Ru1 Ru 0.94361(6) 0.65776(6) 0.69758(10)
C1 C 0.8960(6) 0.6642(6) 0.7049(11)
O1 O 0.8669(7) 0.6683(8) 0.7090(14)
C2 C 0.9787(10) 0.6576(7) 0.6528(13)
C3 C 0.9251(10) 0.6523(6) 0.5983(10)
C4 C 0.9029(8) 0.6857(7) 0.6041(9)
C5 C 0.9428(9) 0.7116(6) 0.6622(10)
C6 C 1.0104(8) 0.6943(7) 0.8077(10)
C7 C 0.8967(15) 0.6173(8) 0.5437(13)
H1 H 0.8917 0.6245 0.5028
H2 H 0.8636 0.6133 0.5271
H3 H 0.9165 0.5913 0.5658
C8 C 0.8468(8) 0.6924(11) 0.5568(13)
H4 H 0.8327 0.7092 0.5149
H5 H 0.8417 0.7072 0.5840
H6 H 0.8295 0.6652 0.5408
C9 C 0.9364(13) 0.7508(6) 0.6875(16)
C10 C 0.9582(9) 0.7117(10) 0.7448(13)
Ru1A Ru 1.05639(6) 0.65776(6) 0.80242(10)
C1A C 1.1040(6) 0.6642(6) 0.7951(11)
O1A O 1.1331(7) 0.6683(8) 0.7910(14)
C2A C 1.0213(10) 0.6576(7) 0.8472(13)
C3A C 1.0749(10) 0.6523(6) 0.9017(10)
C4A C 1.0971(8) 0.6857(7) 0.8959(9)
C5A C 1.0572(9) 0.7116(6) 0.8378(10)
C6A C 0.9896(8) 0.6943(7) 0.6923(10)
C7A C 1.1033(15) 0.6173(8) 0.9563(13)
H1A H 1.1083 0.6245 0.9972
H2A H 1.1364 0.6133 0.9729
H3A H 1.0835 0.5913 0.9342
C8A C 1.1532(8) 0.6924(11) 0.9432(13)
H4A H 1.1673 0.7092 0.9851
H5A H 1.1583 0.7072 0.9160
H6A H 1.1705 0.6652 0.9592
C9A C 1.0636(13) 0.7508(6) 0.8125(16)
C10A C 1.0418(9) 0.7117(10) 0.7552(13)
C65? C 1.1694(7) 0.6341(6) 0.5320(10)
H79? H 1.1697 0.6472 0.4987
H80? H 1.1371 0.6403 0.5167
H81? H 1.1732 0.6037 0.5321
C66? C 1.2002(7) 0.7001(5) 0.5994(9)
H82? H 1.1999 0.7128 0.5652
H83? H 1.2259 0.7141 0.6461
H84? H 1.1667 0.7033 0.5817
C67? C 1.2630(6) 0.6480(5) 0.6372(8)
H85? H 1.2870 0.6666 0.6793
H86? H 1.2634 0.6551 0.6009
C68? C 1.2765(6) 0.6025(5) 0.6588(9)
H87? H 1.3105 0.5968 0.6784
H88? H 1.2516 0.5845 0.6161
C69? C 1.2730(6) 0.5467(5) 0.7187(10)
H89? H 1.3047 0.5339 0.7387
H90? H 1.2446 0.5363 0.6698
H91? H 1.2672 0.5393 0.7487
C70? C 1.3211(5) 0.6099(5) 0.7844(7)
H92? H 1.3513 0.5946 0.8031
H93? H 1.3186 0.6083 0.8190
H94? H 1.3238 0.6394 0.7768
C71? C 0.6493(9) 0.5556(8) 0.1668(14)
H95? H 0.6153 0.5429 0.1333
H96? H 0.6723 0.5390 0.2110
H97? H 0.6621 0.5562 0.1446
C72? C 0.6142(10) 0.6206(9) 0.1982(14)
H98? H 0.5799 0.6087 0.1656
H99? H 0.6119 0.6509 0.1896
H100? H 0.6317 0.6157 0.2480
C73? C 0.6162(8) 0.6245(8) 0.1078(11)
H101? H 0.5891 0.6066 0.0663
H102? H 0.5999 0.6496 0.1066
C74? C 0.6494(9) 0.6376(8) 0.1010(12)
H103? H 0.6607 0.6129 0.0923
H104? H 0.6315 0.6571 0.0601
C75? C 0.7371(10) 0.6623(9) 0.1690(14)
H105? H 0.7243 0.6773 0.1263
H106? H 0.7488 0.6343 0.1705
H107? H 0.7655 0.6779 0.2122
C76? C 0.6829(10) 0.7046(7) 0.1697(13)
H108? H 0.6713 0.7195 0.1276
H109? H 0.7147 0.7171 0.2134
H110? H 0.6570 0.7069 0.1705
Ru2? Ru 1.00380(7) 0.59366(6) 0.81058(9)
C77? C 1.0019(9) 0.6615(7) 0.8103(12)
O50? O 1.0071(8) 0.6767(7) 0.8499(10)
C78? C 1.0597(9) 0.5894(8) 0.8040(13)
O51? O 1.0938(6) 0.5753(7) 0.8335(11)
C79? C 0.9597(9) 0.5959(7) 0.8249(12)
O52? O 0.9355(11) 0.5957(9) 0.8373(15)
H111? H 0.9957 0.6370 0.8346
H112? H 1.0639 0.7754 0.8352
H113? H 1.0352 0.7531 0.7602
H114? H 1.0956 0.7493 0.8257
H115? H 0.9476 0.7298 0.7624
H116? H 0.9339 0.6886 0.7169
H117? H 0.9591 0.7281 0.7142
C80? C 1.0696(7) 0.5858(7) 0.8155(12)
H118? H 1.0727 0.6020 0.7862
C81? C 1.0396(7) 0.5492(6) 0.7926(10)
C82? C 1.0380(6) 0.5402(4) 0.8439(9)
C83? C 1.0670(6) 0.5713(5) 0.8984(8)
C84? C 1.0865(5) 0.5995(5) 0.8808(10)
C85? C 1.0140(11) 0.5242(8) 0.7256(12)
H119? H 1.0397 0.5136 0.7275
H120? H 0.9900 0.5422 0.6833
H121? H 0.9957 0.5005 0.7224
C86? C 1.0104(9) 0.5040(5) 0.8409(14)
H122? H 1.0300 0.4782 0.8556
H123? H 0.9768 0.5009 0.7918
H124? H 1.0065 0.5095 0.8735
C87? C 1.0756(10) 0.5739(8) 0.9636(10)
H125? H 1.1113 0.5678 1.0068
H126? H 1.0538 0.5534 0.9592
H127? H 1.0672 0.6022 0.9671
C88? C 1.1194(7) 0.6373(6) 0.9241(14)
H128? H 1.1503 0.6356 0.9343
H129? H 1.1286 0.6379 0.9693
H130? H 1.1006 0.6628 0.8967
O53? O 0.9082(15) 0.6263(12) 0.774(2)
O54? O 0.8401(18) 0.5901(16) 0.248(2)
N23? N 1.1135(7) 0.5219(5) 0.5406(9)
O55? O 1.1283(6) 0.5495(5) 0.5362(8)
O56? O 1.1408(6) 0.4914(5) 0.5901(8)
O57? O 1.0761(8) 0.5246(6) 0.5329(10)
N24? N 0.6806(7) 0.7302(6) 0.3140(10)
O58? O 0.6586(5) 0.7005(4) 0.2770(7)
O59? O 0.7004(6) 0.7590(5) 0.3082(8)
O60? O 0.7083(7) 0.7243(6) 0.3818(10)
N25? N 0.9724(11) 0.8636(11) 0.505(2)
O61? O 0.9297(11) 0.8518(12) 0.4584(19)
O62? O 1.0091(7) 0.8498(6) 0.5153(10)
O63? O 0.9789(10) 0.8950(8) 0.5394(14)
N26? N 1.3198(10) 0.7017(10) 0.8418(14)
O64? O 1.3297(9) 0.6811(8) 0.8940(12)
O65? O 1.3553(9) 0.7113(9) 0.8499(14)
O66? O 1.2764(7) 0.7083(6) 0.7800(10)
O67? O 1.4351(8) 0.5520(6) 0.8546(11)
O68? O 0.7201(7) 0.5267(6) 0.0056(10)
O69? O 1.2445(8) 0.5974(6) 0.5021(11)
O70? O 0.8110(9) 0.3587(7) 0.5894(13)
O71? O 0.6250(13) 0.7040(10) -0.0238(17)
O72? O 0.690(2) 0.7172(18) -0.015(3)
O73? O 0.8386(17) 0.7494(15) 0.245(2)
O74? O 0.7892(11) 0.8013(9) 0.4364(17)
O75? O 0.8610(9) 0.8927(8) 0.4683(13)
O76? O 0.7444(13) 0.5329(10) 0.2130(17)
O77? O 1.3311(8) 0.5393(7) 0.9012(11)
O78? O 0.6971(11) 0.5292(9) 0.0842(15)
O79? O 0.8931(13) 0.4460(10) 0.8591(17)
O80? O 0.8549(7) 0.3655(6) 0.7450(10)
O81? O 0.6820(12) 0.6420(11) 0.4824(18)
O82? O 0.9018(11) 0.1065(9) 0.6931(15)
O83? O 0.9537(12) 0.6063(10) 0.3867(16)
O84? O 1.4522(9) 0.6389(8) 0.8628(13)
O85? O 1.0363(15) 0.1437(12) 0.883(2)
O86? O 1.1275(5) 0.9019(5) 0.8599(8)
O87? O 0.9804(5) 0.3477(4) 0.6037(7)
N27? N 0.6452(7) 0.4965(6) 0.3180(10)
O88? O 0.6263(6) 0.4587(5) 0.2935(9)
O89? O 0.6512(8) 0.5194(6) 0.2886(12)
O90? O 0.6523(10) 0.5125(8) 0.3681(13)
O91? O 0.9667(7) 0.3395(6) 0.5966(9)
N28? N 1.0426(12) 0.2481(10) 0.9753(17)
O92? O 1.0530(9) 0.2144(8) 1.0077(14)
O93? O 1.0722(10) 0.2751(8) 0.9800(13)
O94? O 1.0012(11) 0.2628(9) 0.9422(15)
O95? O 0.9590(10) 0.8194(9) 0.4593(13)
loop_
_geom_bond_atom_site_label_1
_geom_bond_atom_site_label_2
_geom_bond_site_symmetry_1
_geom_bond_site_symmetry_2
Ru1 C1 1_555 1_555
C1 O1 1_555 1_555
C2 Ru1 1_555 1_555
C3 Ru1 1_555 1_555
C4 Ru1 1_555 1_555
C5 Ru1 1_555 1_555
C6 Ru1 1_555 1_555
C7 C3 1_555 1_555
H1 C7 1_555 1_555
H2 C7 1_555 1_555
H3 C7 1_555 1_555
C8 C4 1_555 1_555
H4 C8 1_555 1_555
H5 C8 1_555 1_555
H6 C8 1_555 1_555
C9 C5 1_555 1_555
C10 Ru1 1_555 1_555
N1 O3 1_555 1_555
O4 N1 1_555 1_555
O5 N1 1_555 1_555
N2 O20 1_555 1_555
O21 N2 1_555 1_555
O22 N2 1_555 1_555
N3 O29 1_555 1_555
O30 N3 1_555 1_555
O31 N3 1_555 1_555
N4 O33 1_555 1_555
O34 N4 1_555 1_555
O35 N4 1_555 1_555
Pd1 N5 1_555 1_555
Pd2 N6 1_555 1_555
Pd3 N13 1_555 1_555
Pd4 N7 1_555 1_555
C11 H7 1_555 1_555
C12 C11 1_555 1_555
H8 C12 1_555 1_555
C13 C12 1_555 1_555
C14 C13 1_555 1_555
H9 C14 1_555 1_555
C15 C14 1_555 1_555
H10 C15 1_555 1_555
C16 H11 1_555 1_555
C17 C16 1_555 1_555
H12 C17 1_555 1_555
C18 C17 1_555 1_555
C19 C18 1_555 1_555
H13 C19 1_555 1_555
C20 C19 1_555 1_555
H14 C20 1_555 1_555
C21 H15 1_555 1_555
C22 C21 1_555 1_555
H16 C22 1_555 1_555
C23 C22 1_555 1_555
C24 C23 1_555 1_555
H17 C24 1_555 1_555
C25 C24 1_555 1_555
H18 C25 1_555 1_555
C26 C13 1_555 1_555
C27 C18 1_555 1_555
C28 C23 1_555 1_555
C29 H19 1_555 1_555
C30 C29 1_555 1_555
H20 C30 1_555 1_555
C31 C30 1_555 1_555
C32 C31 1_555 1_555
H21 C32 1_555 1_555
C33 C32 1_555 1_555
H22 C33 1_555 1_555
C34 H23 1_555 1_555
C35 C34 1_555 1_555
H24 C35 1_555 1_555
C36 C35 1_555 1_555
C37 C36 1_555 1_555
H25 C37 1_555 1_555
C38 C37 1_555 1_555
H26 C38 1_555 1_555
C39 H27 1_555 1_555
C40 C39 1_555 1_555
H28 C40 1_555 1_555
C41 C40 1_555 1_555
C42 C41 1_555 1_555
H29 C42 1_555 1_555
C43 C42 1_555 1_555
H30 C43 1_555 1_555
C44 C31 1_555 1_555
C45 C36 1_555 1_555
C46 C41 1_555 1_555
C47 H31 1_555 1_555
H32 C47 1_555 1_555
H33 C47 1_555 1_555
C48 H34 1_555 1_555
H35 C48 1_555 1_555
H36 C48 1_555 1_555
C49 H37 1_555 1_555
H38 C49 1_555 1_555
C50 C49 1_555 1_555
H39 C50 1_555 1_555
H40 C50 1_555 1_555
C51 H41 1_555 1_555
H42 C51 1_555 1_555
H43 C51 1_555 1_555
C52 H44 1_555 1_555
H45 C52 1_555 1_555
H46 C52 1_555 1_555
C53 H47 1_555 1_555
H48 C53 1_555 1_555
H49 C53 1_555 1_555
C54 H50 1_555 1_555
H51 C54 1_555 1_555
H52 C54 1_555 1_555
C55 H53 1_555 1_555
H54 C55 1_555 1_555
C56 C55 1_555 1_555
H55 C56 1_555 1_555
H56 C56 1_555 1_555
C57 H57 1_555 1_555
H58 C57 1_555 1_555
H59 C57 1_555 1_555
C58 H60 1_555 1_555
H61 C58 1_555 1_555
H62 C58 1_555 1_555
C59 H63 1_555 1_555
H64 C59 1_555 1_555
H65 C59 1_555 1_555
C60 H66 1_555 1_555
H67 C60 1_555 1_555
H68 C60 1_555 1_555
C61 H69 1_555 1_555
H70 C61 1_555 1_555
C62 H71 1_555 1_555
H72 C62 1_555 1_555
H73 C62 1_555 1_555
C63 H74 1_555 1_555
H75 C63 1_555 1_555
H76 C63 1_555 1_555
C64 H77 1_555 1_555
H78 C64 1_555 1_555
N5 C11 1_555 1_555
N6 C16 1_555 1_555
N7 C21 1_555 1_555
N8 C26 1_555 1_555
N9 C27 1_555 1_555
N10 C26 1_555 1_555
N11 Pd1 1_555 1_555
N12 Pd2 1_555 1_555
N13 C39 1_555 1_555
N14 C44 1_555 1_555
N15 C45 1_555 1_555
N16 C44 1_555 1_555
N17 Pd1 1_555 1_555
N18 Pd1 1_555 1_555
N19 Pd2 1_555 1_555
N20 Pd2 1_555 1_555
N21 Pd3 1_555 1_555
N22 Pd4 1_555 1_555
Ru1A Ru1 1_555 1_555
C1A Ru1A 1_555 1_555
O1A C1A 1_555 1_555
C2A C6 1_555 1_555
C3A Ru1A 1_555 1_555
C4A Ru1A 1_555 1_555
C5A C6 1_555 1_555
C6A Ru1 1_555 1_555
C7A C3A 1_555 1_555
H1A C7A 1_555 1_555
H2A C7A 1_555 1_555
H3A C7A 1_555 1_555
C8A C4A 1_555 1_555
H4A C8A 1_555 1_555
H5A C8A 1_555 1_555
H6A C8A 1_555 1_555
C9A C5A 1_555 1_555
C10A Ru1A 1_555 1_555
Pd1A N5A 1_555 1_555
Pd2A N6A 1_555 1_555
C11A H7A 1_555 1_555
C12A C11A 1_555 1_555
H8A C12A 1_555 1_555
C13A C12A 1_555 1_555
C14A C13A 1_555 1_555
H9A C14A 1_555 1_555
C15A C14A 1_555 1_555
H10A C15A 1_555 1_555
C16A H11A 1_555 1_555
C17A C16A 1_555 1_555
H12A C17A 1_555 1_555
C18A C17A 1_555 1_555
C19A C18A 1_555 1_555
H13A C19A 1_555 1_555
C20A C19A 1_555 1_555
H14A C20A 1_555 1_555
C21A H15A 1_555 1_555
C22A C21A 1_555 1_555
H16A C22A 1_555 1_555
C23A C22A 1_555 1_555
C24A C23A 1_555 1_555
H17A C24A 1_555 1_555
C25A C24A 1_555 1_555
H18A C25A 1_555 1_555
C26A C13A 1_555 1_555
C27A C18A 1_555 1_555
C28A C23A 1_555 1_555
C29A H19A 1_555 1_555
C30A C29A 1_555 1_555
H20A C30A 1_555 1_555
C31A C30A 1_555 1_555
C32A C31A 1_555 1_555
H21A C32A 1_555 1_555
C33A C32A 1_555 1_555
H22A C33A 1_555 1_555
C34A H23A 1_555 1_555
C35A C34A 1_555 1_555
H24A C35A 1_555 1_555
C36A C35A 1_555 1_555
C37A C36A 1_555 1_555
H25A C37A 1_555 1_555
C38A C37A 1_555 1_555
H26A C38A 1_555 1_555
C39A H27A 1_555 1_555
C40A C39A 1_555 1_555
H28A C40A 1_555 1_555
C41A C40A 1_555 1_555
C42A C41A 1_555 1_555
H29A C42A 1_555 1_555
C43A C42A 1_555 1_555
H30A C43A 1_555 1_555
C44A C31A 1_555 1_555
C45A N14 1_555 1_555
C46A N16 1_555 1_555
C47A H31A 1_555 1_555
H32A C47A 1_555 1_555
H33A C47A 1_555 1_555
C48A H34A 1_555 1_555
H35A C48A 1_555 1_555
H36A C48A 1_555 1_555
C49A H37A 1_555 1_555
H38A C49A 1_555 1_555
C50A C49A 1_555 1_555
H39A C50A 1_555 1_555
H40A C50A 1_555 1_555
C51A H41A 1_555 1_555
H42A C51A 1_555 1_555
H43A C51A 1_555 1_555
C52A H44A 1_555 1_555
H45A C52A 1_555 1_555
H46A C52A 1_555 1_555
C53A H47A 1_555 1_555
H48A C53A 1_555 1_555
H49A C53A 1_555 1_555
C54A H50A 1_555 1_555
H51A C54A 1_555 1_555
H52A C54A 1_555 1_555
C55A H53A 1_555 1_555
H54A C55A 1_555 1_555
C56A C55A 1_555 1_555
H55A C56A 1_555 1_555
H56A C56A 1_555 1_555
C57A H57A 1_555 1_555
H58A C57A 1_555 1_555
H59A C57A 1_555 1_555
C58A H60A 1_555 1_555
H61A C58A 1_555 1_555
H62A C58A 1_555 1_555
C59A H63A 1_555 1_555
H64A C59A 1_555 1_555
H65A C59A 1_555 1_555
C60A H66A 1_555 1_555
H67A C60A 1_555 1_555
H68A C60A 1_555 1_555
C61A C61 1_555 1_555
H69A C61A 1_555 1_555
H70A C61A 1_555 1_555
C62A H71A 1_555 1_555
H72A C62A 1_555 1_555
H73A C62A 1_555 1_555
C63A H74A 1_555 1_555
H75A C63A 1_555 1_555
H76A C63A 1_555 1_555
C64A C64 1_555 1_555
H77A C64A 1_555 1_555
H78A C64A 1_555 1_555
N5A C11A 1_555 1_555
N6A C16A 1_555 1_555
N7A Pd4 1_555 1_555
N8A C26A 1_555 1_555
N9A C27A 1_555 1_555
N10A C26A 1_555 1_555
N11A Pd1A 1_555 1_555
N12A Pd2A 1_555 1_555
N13A Pd3 1_555 1_555
N14A C45 1_555 1_555
N15A C45A 1_555 1_555
N16A C46 1_555 1_555
N17A Pd1A 1_555 1_555
N18A Pd1A 1_555 1_555
N19A Pd2A 1_555 1_555
N20A Pd2A 1_555 1_555
N21A Pd3 1_555 1_555
N22A Pd4 1_555 1_555
C2 C3 1_555 1_555
C2 C6A 1_555 1_555
C3 C4 1_555 1_555
C4 C5 1_555 1_555
C5 C6A 1_555 1_555
C6 C10 1_555 1_555
C6 Ru1A 1_555 1_555
C9 C10 1_555 1_555
C15 N5 1_555 1_555
C20 N6 1_555 1_555
C25 N7 1_555 1_555
C27 N8 1_555 1_555
C28 N9 1_555 1_555
C28 N10 1_555 1_555
C29 N11 1_555 1_555
C33 N11 1_555 1_555
C34 N12 1_555 1_555
C38 N12 1_555 1_555
C43 N13 1_555 1_555
C46 N15 1_555 1_555
C47 N17 1_555 1_555
C48 N17 1_555 1_555
C49 N17 1_555 1_555
C50 N18 1_555 1_555
C51 N18 1_555 1_555
C52 N18 1_555 1_555
C53 N19 1_555 1_555
C54 N19 1_555 1_555
C55 N19 1_555 1_555
C56 N20 1_555 1_555
C57 N20 1_555 1_555
C58 N20 1_555 1_555
C59 N21 1_555 1_555
C60 N21 1_555 1_555
C61 N21 1_555 1_555
C62 N22 1_555 1_555
C63 N22 1_555 1_555
C64 N22 1_555 1_555
Ru1A C2A 1_555 1_555
Ru1A C5A 1_555 1_555
Ru1A C6A 1_555 1_555
C2A C3A 1_555 1_555
C3A C4A 1_555 1_555
C4A C5A 1_555 1_555
C6A C10A 1_555 1_555
C9A C10A 1_555 1_555
C15A N5A 1_555 1_555
C20A N6A 1_555 1_555
C21A N7A 1_555 1_555
C25A N7A 1_555 1_555
C27A N8A 1_555 1_555
C28A N9A 1_555 1_555
C28A N10A 1_555 1_555
C29A N11A 1_555 1_555
C33A N11A 1_555 1_555
C34A N12A 1_555 1_555
C36A C45A 1_555 1_555
C38A N12A 1_555 1_555
C39A N13A 1_555 1_555
C41A C46A 1_555 1_555
C43A N13A 1_555 1_555
C44A N14A 1_555 1_555
C44A N16A 1_555 1_555
C46A N15A 1_555 1_555
C47A N17A 1_555 1_555
C48A N17A 1_555 1_555
C49A N17A 1_555 1_555
C50A N18A 1_555 1_555
C51A N18A 1_555 1_555
C52A N18A 1_555 1_555
C53A N19A 1_555 1_555
C54A N19A 1_555 1_555
C55A N19A 1_555 1_555
C56A N20A 1_555 1_555
C57A N20A 1_555 1_555
C58A N20A 1_555 1_555
C59A N21A 1_555 1_555
C60A N21A 1_555 1_555
C61A N21A 1_555 1_555
C62A N22A 1_555 1_555
C63A N22A 1_555 1_555
C64A N22A 1_555 1_555

#END
