
#######################################################################
#
#                 Cambridge Crystallographic Data Centre
#                                CCDC 
#
#######################################################################
#
# If this CIF has been generated from an entry in the Cambridge 
# Structural Database, then it will include bibliographic, chemical, 
# crystal, experimental, refinement or atomic coordinate data resulting 
# from the CCDC's data processing and validation procedures.
#
#######################################################################

data_NEPCAN
_chemical_formula_moiety         
'C176 H128 N16 Pd4 8+,8(C7 H7 O3 S1 1-),7(C3 H6 O1),5(H2 O1)'
_chemical_name_systematic        
"octakis(\m~2~-4,4'-bis(3-Pyridyl)biphenyl)-tetra-palladium(ii) octakis(p-toluenesulfonate) acetone solvate unknown solvate pentahydrate"
_symmetry_cell_setting           triclinic
_symmetry_space_group_name_H-M   'P -1'
_symmetry_Int_Tables_number      2
_space_group_name_Hall           '-P 1'
loop_
_symmetry_equiv_pos_site_id
_symmetry_equiv_pos_as_xyz
1 x,y,z
2 -x,-y,-z
_cell_length_a                   26.590(8)
_cell_length_b                   26.735(8)
_cell_length_c                   40.142(12)
_cell_angle_alpha                87.676(6)
_cell_angle_beta                 79.046(6)
_cell_angle_gamma                85.476(6)
_cell_volume                     27919.5
_exptl_crystal_colour            'pale yellow'
_exptl_crystal_description       plate
_chemical_melting_point          'decomposes at 270 deg.C'
_cell_formula_units_Z            4
_exptl_crystal_recrystallization_method acetone/dimethylsulfoxide
loop_
_atom_site_label
_atom_site_type_symbol
_atom_site_fract_x
_atom_site_fract_y
_atom_site_fract_z
Pd5 Pd 0.58204(7) 1.22963(7) 0.06617(5)
Pd6 Pd 0.59697(7) 1.16816(9) 0.45749(6)
Pd7 Pd 0.56380(7) 0.66674(6) 0.23858(5)
Pd8 Pd 0.07243(7) 1.04697(8) 0.32954(6)
N16 N 0.6539(7) 1.2230(7) 0.0785(5)
N17 N 0.5671(6) 1.2921(6) 0.0955(4)
N18 N 0.5085(7) 1.2359(7) 0.0565(5)
N19 N 0.5967(7) 1.1672(7) 0.0394(5)
N20 N 0.6665(7) 1.1801(6) 0.4258(5)
N21 N 0.5672(7) 1.2327(7) 0.4445(5)
N22 N 0.5296(8) 1.1556(8) 0.4885(6)
N23 N 0.6257(7) 1.1007(7) 0.4695(5)
N24 N 0.5180(6) 0.6542(6) 0.2845(4)
N25 N 0.6215(7) 0.6739(7) 0.2638(4)
N26 N 0.6109(7) 0.6782(7) 0.1936(5)
N27 N 0.5059(6) 0.6621(6) 0.2136(4)
N28 N 0.0667(7) 1.0836(7) 0.3722(5)
N29 N 0.0718(7) 1.1125(7) 0.3021(5)
N30 N 0.0771(7) 1.0087(7) 0.2860(5)
N31 N 0.0754(8) 0.9827(7) 0.3566(5)
C321 C 0.5711(8) 1.3393(8) 0.0777(6)
C322 C 0.5667(9) 1.3817(9) 0.0963(6)
C323 C 0.5584(9) 1.3795(9) 0.1309(6)
C324 C 0.5532(7) 1.3325(8) 0.1491(5)
C325 C 0.5581(8) 1.2897(8) 0.1291(6)
C326 C 0.5471(8) 1.3262(8) 0.1840(6)
C327 C 0.5658(8) 1.3610(8) 0.2039(6)
C328 C 0.5630(9) 1.3565(8) 0.2372(6)
C329 C 0.5392(9) 1.3163(9) 0.2575(6)
C330 C 0.5187(9) 1.2797(9) 0.2368(7)
C331 C 0.5212(8) 1.2869(8) 0.2029(6)
C332 C 0.5362(7) 1.3070(8) 0.2933(5)
C333 C 0.5399(9) 1.3513(9) 0.3115(7)
C334 C 0.5388(9) 1.3441(9) 0.3452(7)
C335 C 0.5334(9) 1.2980(9) 0.3632(6)
C336 C 0.5281(9) 1.2546(9) 0.3444(7)
C337 C 0.5308(9) 1.2620(9) 0.3110(6)
C338 C 0.5388(9) 1.2877(9) 0.4005(6)
C339 C 0.5222(10) 1.3318(10) 0.4253(8)
C340 C 0.5296(12) 1.3182(12) 0.4547(8)
C341 C 0.5518(11) 1.2739(12) 0.4679(8)
C342 C 0.5588(8) 1.2443(8) 0.4123(6)
C343 C 0.5016(10) 1.2535(9) 0.0258(7)
C344 C 0.4539(11) 1.2607(10) 0.0194(7)
C345 C 0.4101(10) 1.2506(10) 0.0447(7)
C346 C 0.4217(9) 1.2270(8) 0.0736(6)
C347 C 0.4699(8) 1.2237(7) 0.0812(5)
C348 C 0.3797(12) 1.2057(11) 0.1353(8)
C349 C 0.3396(11) 1.1958(10) 0.1614(7)
C350 C 0.2950(11) 1.1930(9) 0.1519(7)
C351 C 0.2461(11) 1.1827(10) 0.1805(7)
C352 C 0.2510(12) 1.1573(11) 0.2101(8)
C353 C 0.2089(14) 1.1519(12) 0.2346(9)
C354 C 0.1597(10) 1.1729(9) 0.2308(7)
C355 C 0.1540(13) 1.1983(12) 0.2026(9)
C356 C 0.1958(16) 1.2019(14) 0.1729(10)
C357 C 0.1135(9) 1.1618(9) 0.2575(6)
C358 C 0.0716(10) 1.1967(9) 0.2593(7)
C359 C 0.0281(9) 1.1854(9) 0.2861(6)
C360 C 0.0258(9) 1.1447(10) 0.3053(6)
C361 C 0.1131(8) 1.1203(8) 0.2775(6)
C362 C 0.6029(15) 1.1685(15) 0.0052(11)
C363 C 0.6081(13) 1.1243(15) -0.0161(9)
C364 C 0.6125(13) 1.0785(14) 0.0040(10)
C365 C 0.6163(11) 1.0789(11) 0.0390(8)
C366 C 0.6039(8) 1.1204(9) 0.0558(6)
C367 C 0.6225(11) 1.0278(11) 0.0545(7)
C368 C 0.6563(11) 0.9903(12) 0.0400(7)
C369 C 0.6630(13) 0.9438(13) 0.0588(9)
C370 C 0.6378(11) 0.9370(11) 0.0896(8)
C371 C 0.6047(12) 0.9747(13) 0.1071(8)
C372 C 0.5978(11) 1.0217(11) 0.0877(8)
C373 C 0.6424(12) 0.8860(11) 0.1085(7)
C374 C 0.6794(14) 0.8574(15) 0.0983(8)
C375 C 0.6442(14) 0.7874(13) 0.1365(8)
C376 C 0.6073(19) 0.819(2) 0.1470(10)
C377 C 0.6003(17) 0.8763(18) 0.1317(11)
C378 C 0.6423(9) 0.7377(10) 0.1508(7)
C379 C 0.6701(12) 0.6993(13) 0.1308(8)
C380 C 0.6714(13) 0.6484(13) 0.1458(9)
C381 C 0.6414(12) 0.6403(11) 0.1787(8)
C382 C 0.6128(8) 0.7290(8) 0.1807(6)
C383 C 0.6964(11) 1.2290(10) 0.0498(7)
C384 C 0.7438(11) 1.2246(10) 0.0641(7)
C385 C 0.7509(10) 1.2204(10) 0.0952(7)
C386 C 0.7059(9) 1.2165(8) 0.1196(6)
C387 C 0.6607(8) 1.2167(8) 0.1095(6)
C388 C 0.7090(9) 1.2126(9) 0.1545(7)
C389 C 0.7484(10) 1.1818(10) 0.1676(7)
C390 C 0.7487(10) 1.1814(9) 0.2028(7)
C391 C 0.7118(8) 1.2054(8) 0.2273(6)
C392 C 0.6759(10) 1.2329(9) 0.2135(7)
C393 C 0.6713(9) 1.2367(9) 0.1793(6)
C394 C 0.7141(8) 1.2027(8) 0.2599(6)
C395 C 0.7548(9) 1.1791(8) 0.2749(6)
C396 C 0.7570(8) 1.1741(8) 0.3083(6)
C397 C 0.7165(9) 1.1949(8) 0.3331(6)
C398 C 0.6722(9) 1.2178(9) 0.3200(6)
C399 C 0.6722(9) 1.2224(9) 0.2867(7)
C400 C 0.7143(9) 1.1907(8) 0.3685(6)
C401 C 0.7572(10) 1.1977(9) 0.3851(7)
C402 C 0.7532(10) 1.1969(9) 0.4194(7)
C403 C 0.7068(10) 1.1901(9) 0.4414(6)
C404 C 0.6711(9) 1.1812(9) 0.3924(7)
C405 C 0.6465(15) 1.0935(14) 0.4956(10)
C406 C 0.6733(13) 1.0489(14) 0.5019(9)
C407 C 0.6717(11) 1.0065(11) 0.4819(8)
C408 C 0.6477(9) 1.0172(9) 0.4522(6)
C409 C 0.6256(10) 1.0609(10) 0.4489(7)
C410 C 0.6464(9) 0.9737(9) 0.4288(6)
C411 C 0.6856(9) 0.9368(9) 0.4256(6)
C412 C 0.6824(10) 0.8959(9) 0.4029(7)
C413 C 0.6422(8) 0.8950(8) 0.3856(5)
C414 C 0.6052(9) 0.9335(9) 0.3885(6)
C415 C 0.6049(9) 0.9721(9) 0.4109(6)
C416 C 0.6439(8) 0.8497(8) 0.3647(6)
C417 C 0.6584(9) 0.8036(9) 0.3774(6)
C418 C 0.6629(10) 0.7608(10) 0.3554(7)
C419 C 0.6509(8) 0.7670(8) 0.3228(6)
C420 C 0.6331(7) 0.8146(8) 0.3112(5)
C421 C 0.6302(9) 0.8570(8) 0.3321(6)
C422 C 0.6527(9) 0.7218(8) 0.3042(6)
C423 C 0.6938(11) 0.6813(11) 0.3030(7)
C424 C 0.6937(12) 0.6371(12) 0.2854(8)
C425 C 0.6585(10) 0.6344(10) 0.2649(7)
C426 C 0.6190(9) 0.7163(9) 0.2829(6)
C427 C 0.5336(14) 1.1562(13) 0.5221(10)
C428 C 0.4880(15) 1.1453(13) 0.5462(9)
C429 C 0.4397(15) 1.1422(13) 0.5353(10)
C430 C 0.4435(11) 1.1463(10) 0.5004(8)
C431 C 0.4876(10) 1.1531(9) 0.4753(6)
C432 C 0.3931(12) 1.1373(11) 0.4876(8)
C433 C 0.3467(12) 1.1508(11) 0.5093(8)
C434 C 0.2993(12) 1.1416(12) 0.4956(9)
C435 C 0.3040(12) 1.1283(11) 0.4639(8)
C436 C 0.3487(15) 1.1101(13) 0.4429(9)
C437 C 0.3965(12) 1.1150(11) 0.4541(8)
C438 C 0.2536(11) 1.1234(10) 0.4516(8)
C439 C 0.2065(14) 1.1127(12) 0.4752(8)
C440 C 0.1588(12) 1.1080(11) 0.4625(8)
C441 C 0.1611(11) 1.1182(10) 0.4291(8)
C442 C 0.2036(13) 1.1255(12) 0.4022(8)
C443 C 0.2531(14) 1.1306(13) 0.4146(9)
C444 C 0.1107(11) 1.1111(10) 0.4166(7)
C445 C 0.0648(12) 1.1228(10) 0.4382(7)
C446 C 0.0189(12) 1.1167(12) 0.4236(8)
C447 C 0.0208(11) 1.0975(10) 0.3903(7)
C448 C 0.1141(9) 1.0898(9) 0.3840(6)
C449 C 0.0295(10) 0.9699(10) 0.3768(7)
C450 C 0.0266(11) 0.9263(11) 0.3940(7)
C451 C 0.0737(12) 0.8926(11) 0.3933(8)
C452 C 0.1234(10) 0.9083(10) 0.3719(6)
C453 C 0.1193(9) 0.9526(9) 0.3561(6)
C454 C 0.1707(10) 0.8781(10) 0.3673(7)
C455 C 0.1770(11) 0.8383(11) 0.3886(7)
C456 C 0.2220(14) 0.8091(13) 0.3870(9)
C457 C 0.2628(9) 0.8116(9) 0.3567(6)
C458 C 0.2517(10) 0.8497(10) 0.3332(7)
C459 C 0.2063(10) 0.8837(9) 0.3396(6)
C460 C 0.3099(9) 0.7772(9) 0.3504(6)
C461 C 0.3131(10) 0.7346(11) 0.3670(7)
C462 C 0.3567(11) 0.6980(10) 0.3596(7)
C463 C 0.3974(9) 0.7138(9) 0.3356(6)
C464 C 0.3979(10) 0.7620(10) 0.3223(6)
C465 C 0.3517(11) 0.7959(10) 0.3292(7)
C466 C 0.4458(8) 0.6781(8) 0.3257(5)
C467 C 0.4535(9) 0.6392(9) 0.3475(6)
C468 C 0.4990(10) 0.6037(9) 0.3352(6)
C469 C 0.5293(8) 0.6163(8) 0.3035(6)
C470 C 0.4756(7) 0.6865(7) 0.2955(5)
C471 C 0.0370(9) 1.0122(9) 0.2667(6)
C472 C 0.0412(10) 0.9890(9) 0.2379(7)
C473 C 0.0823(9) 0.9544(9) 0.2257(6)
C474 C 0.1222(9) 0.9485(8) 0.2458(6)
C475 C 0.1186(8) 0.9752(8) 0.2751(6)
C476 C 0.1670(9) 0.9112(9) 0.2358(6)
C477 C 0.1639(10) 0.8676(10) 0.2192(7)
C478 C 0.2052(10) 0.8313(10) 0.2120(6)
C479 C 0.2517(9) 0.8424(8) 0.2229(6)
C480 C 0.2559(10) 0.8882(9) 0.2384(6)
C481 C 0.2141(10) 0.9198(9) 0.2464(6)
C482 C 0.2976(10) 0.8067(10) 0.2146(7)
C483 C 0.3273(17) 0.7951(16) 0.2408(11)
C484 C 0.3790(17) 0.7593(17) 0.2316(11)
C485 C 0.3836(9) 0.7327(9) 0.2037(6)
C486 C 0.3052(13) 0.7702(13) 0.1933(8)
C487 C 0.4271(8) 0.6928(8) 0.1980(6)
C488 C 0.4267(9) 0.6509(9) 0.1777(6)
C489 C 0.4706(9) 0.6163(8) 0.1744(6)
C490 C 0.5087(8) 0.6194(8) 0.1928(5)
C491 C 0.4676(8) 0.6994(8) 0.2157(5)
C494 C 0.3489(14) 0.7351(13) 0.1857(9)
C495 C 0.3761(9) 1.2141(8) 0.1024(6)
C496 C 0.3331(16) 1.1990(14) 0.0922(10)
C497 C 0.2842(16) 1.1890(15) 0.1196(11)
C498 C 0.680(2) 0.801(2) 0.1144(12)
S1 S 1.5597(3) 0.5257(3) 0.1003(2)
O1 O 1.5596(8) 0.5082(8) 0.0668(4)
O2 O 1.5465(8) 0.5788(5) 0.1043(5)
O3 O 1.5268(6) 0.4966(6) 0.1250(4)
C1 C 1.6213(5) 0.5141(8) 0.1096(4)
C2 C 1.6632(7) 0.5041(11) 0.0827(5)
C3 C 1.7138(7) 0.4984(10) 0.0909(5)
C4 C 1.7218(7) 0.4999(9) 0.1240(5)
C5 C 1.6806(7) 0.5100(10) 0.1513(5)
C6 C 1.6300(6) 0.5173(8) 0.1428(4)
C7 C 1.7772(7) 0.4924(10) 0.1318(6)
S2 S 0.8673(3) 1.0495(3) 0.2151(2)
O4 O 0.9216(6) 1.0617(8) 0.2015(5)
O5 O 0.8684(6) 0.9985(5) 0.2303(4)
O6 O 0.8426(7) 1.0861(6) 0.2387(4)
C8 C 0.8343(8) 1.0498(10) 0.1820(5)
C9 C 0.8563(9) 1.0648(14) 0.1488(6)
C10 C 0.8238(11) 1.0730(14) 0.1240(6)
C11 C 0.7722(12) 1.062(2) 0.1311(7)
C12 C 0.7481(10) 1.0493(19) 0.1645(8)
C13 C 0.7798(9) 1.048(2) 0.1902(7)
C14 C 0.7373(16) 1.065(2) 0.1042(10)
S3 S 1.2101(3) 0.4981(3) 0.2106(2)
O7 O 1.2538(7) 0.4926(9) 0.2279(5)
O8 O 1.1811(7) 0.5477(6) 0.2180(5)
O9 O 1.2214(7) 0.4939(7) 0.1754(3)
C15 C 1.1657(8) 0.4557(9) 0.2297(4)
C16 C 1.1198(11) 0.4734(12) 0.2508(9)
C17 C 1.0835(13) 0.4384(14) 0.2664(11)
C18 C 1.0924(14) 0.3874(13) 0.2606(10)
C19 C 1.1387(15) 0.3681(11) 0.2408(12)
C20 C 1.1754(13) 0.4036(10) 0.2252(11)
C21 C 1.0535(17) 0.3485(18) 0.2771(12)
S4 S 0.6366(5) 1.2998(5) -0.0295(4)
O10 O 0.6767(12) 1.2581(12) -0.0404(9)
O11 O 0.6550(12) 1.3495(8) -0.0370(8)
O12 O 0.6177(9) 1.2944(9) 0.0054(5)
C22 C 0.5906(10) 1.2929(11) -0.0546(8)
C23 C 0.5505(12) 1.3297(11) -0.0563(9)
C24 C 0.5119(11) 1.3219(11) -0.0759(8)
C25 C 0.5194(11) 1.2815(11) -0.0975(8)
C26 C 0.5572(11) 1.2430(10) -0.0954(8)
C27 C 0.5974(13) 1.2515(13) -0.0766(10)
C28 C 0.4789(15) 1.2718(16) -0.1199(11)
S5 S 0.5262(3) 1.1115(2) 0.38653(17)
O13 O 0.4902(5) 1.1555(5) 0.3933(4)
O14 O 0.5793(5) 1.1248(6) 0.3787(4)
O15 O 0.5195(6) 1.0751(5) 0.4134(4)
C29 C 0.5141(10) 1.0818(8) 0.3516(5)
C30 C 0.5395(14) 1.0349(11) 0.3426(8)
C31 C 0.5308(14) 1.0138(13) 0.3117(8)
C32 C 0.4895(18) 1.0321(15) 0.2967(10)
C33 C 0.464(2) 1.0793(16) 0.3057(11)
C34 C 0.4744(14) 1.1025(12) 0.3354(9)
C35 C 0.4786(17) 1.0110(15) 0.2631(9)
S7 S 0.5801(4) 0.5094(4) 0.2456(3)
O19 O 0.5981(9) 0.5581(6) 0.2311(6)
O20 O 0.5918(10) 0.4693(8) 0.2213(6)
O21 O 0.5267(7) 0.5140(11) 0.2602(7)
C42 C 0.6163(8) 0.4948(11) 0.2770(5)
C43 C 0.6691(9) 0.5028(14) 0.2681(7)
C44 C 0.7006(10) 0.491(2) 0.2931(8)
C45 C 0.6783(13) 0.480(2) 0.3265(8)
C46 C 0.6246(13) 0.480(2) 0.3371(7)
C47 C 0.5941(13) 0.483(4) 0.3106(8)
C48 C 0.7108(18) 0.476(3) 0.3551(11)
S9 S -0.0932(4) 1.0544(4) 0.3609(3)
O25 O -0.0800(6) 1.0029(5) 0.3733(4)
O26 O -0.0968(11) 1.0882(9) 0.3888(6)
O27 O -0.0652(8) 1.0672(8) 0.3295(5)
C56 C -0.1567(6) 1.0535(9) 0.3533(5)
C57 C -0.1968(8) 1.0592(12) 0.3813(5)
C58 C -0.2482(8) 1.0559(12) 0.3753(5)
C59 C -0.2549(7) 1.0453(10) 0.3432(5)
C60 C -0.2149(7) 1.0416(10) 0.3146(5)
C61 C -0.1633(7) 1.0445(10) 0.3206(5)
C62 C -0.3094(8) 1.0378(12) 0.3363(7)
S10 S 0.2353(4) 1.0352(4) 0.3065(3)
O28 O 0.2082(10) 1.0401(11) 0.2774(6)
O29 O 0.2604(9) 0.9840(6) 0.3064(7)
O30 O 0.2127(12) 1.0511(12) 0.3379(5)
C63 C 0.2874(7) 1.0711(8) 0.2893(7)
C64 C 0.3013(16) 1.1123(14) 0.3043(10)
C65 C 0.3447(17) 1.1376(16) 0.2858(12)
C66 C 0.3703(15) 1.1210(16) 0.2542(11)
C67 C 0.3595(16) 1.0767(18) 0.2398(11)
C68 C 0.3159(15) 1.0520(16) 0.2584(10)
C69 C 0.4181(16) 1.146(2) 0.2334(15)
S12 S 0.9157(9) 0.4273(8) 0.1268(5)
O34 O 0.9450(15) 0.3812(12) 0.1140(10)
O35 O 0.9493(14) 0.4698(12) 0.1225(10)
O36 O 0.8706(12) 0.4398(15) 0.1146(9)
C77 C 0.8992(12) 0.4184(15) 0.1708(5)
C78 C 0.8470(12) 0.4174(17) 0.1841(7)
C79 C 0.8295(12) 0.4211(18) 0.2188(8)
C80 C 0.8641(15) 0.4259(18) 0.2403(6)
C81 C 0.9162(14) 0.4269(19) 0.2270(7)
C82 C 0.9338(11) 0.4231(18) 0.1922(7)
C83 C 0.844(2) 0.424(3) 0.2796(7)
S13 S 0.6572(5) 1.2465(6) 0.5313(4)
O37 O 0.7049(9) 1.2350(15) 0.5438(9)
O38 O 0.6455(13) 1.2103(12) 0.5081(8)
O39 O 0.6529(14) 1.2965(9) 0.5184(9)
C84 C 0.6055(7) 1.2413(11) 0.5645(4)
C85 C 0.6018(11) 1.1998(11) 0.5863(8)
C86 C 0.5567(12) 1.2003(11) 0.6124(8)
C87 C 0.5192(12) 1.2400(13) 0.6147(8)
C88 C 0.5237(14) 1.2828(13) 0.5930(10)
C89 C 0.5692(13) 1.2827(12) 0.5668(9)
C90 C 0.4721(13) 1.2422(17) 0.6443(9)
S14 S 0.5216(3) 0.8237(3) 0.24483(18)
O40 O 0.5720(6) 0.8440(7) 0.2423(5)
O41 O 0.5078(8) 0.8245(8) 0.2113(4)
O42 O 0.5196(7) 0.7751(5) 0.2602(4)
C91 C 0.4750(7) 0.8615(8) 0.2704(5)
C92 C 0.4303(10) 0.8806(12) 0.2599(7)
C93 C 0.3920(10) 0.9105(14) 0.2822(8)
C94 C 0.4014(12) 0.9240(16) 0.3135(8)
C95 C 0.4480(13) 0.9082(18) 0.3236(8)
C96 C 0.4859(11) 0.8766(13) 0.3016(7)
C97 C 0.3613(14) 0.9571(16) 0.3386(9)
S15 S 0.5223(3) 1.1464(3) 0.15489(18)
O43 O 0.5045(7) 1.0996(6) 0.1454(5)
O44 O 0.5608(6) 1.1673(6) 0.1276(4)
O45 O 0.4840(6) 1.1842(6) 0.1672(4)
C98 C 0.5555(7) 1.1328(8) 0.1887(4)
C99 C 0.6059(10) 1.1109(17) 0.1819(6)
C100 C 0.6331(12) 1.102(2) 0.2094(7)
C101 C 0.6099(11) 1.1143(13) 0.2423(6)
C102 C 0.5596(12) 1.1372(16) 0.2500(6)
C103 C 0.5331(11) 1.1477(15) 0.2217(5)
C104 C 0.6350(14) 1.0963(15) 0.2734(8)
S16 S 0.9456(3) 0.7294(3) 0.2160(2)
O46 O 0.8925(6) 0.7129(8) 0.2249(6)
O47 O 0.9480(10) 0.7786(7) 0.2294(6)
O48 O 0.9623(9) 0.7288(9) 0.1803(4)
C105 C 0.9883(9) 0.6897(10) 0.2336(6)
C106 C 1.0313(12) 0.6654(14) 0.2134(6)
C107 C 1.0635(12) 0.6317(14) 0.2308(7)
C108 C 1.0517(13) 0.6258(18) 0.2661(8)
C109 C 1.0054(15) 0.646(2) 0.2860(7)
C110 C 0.9716(12) 0.6771(16) 0.2685(7)
C111 C 1.0881(15) 0.5948(18) 0.2872(10)
S17 S 0.7895(11) 0.2825(11) 0.5253(7)
O49 O 0.7521(16) 0.2472(16) 0.5211(15)
O50 O 0.7929(19) 0.3221(17) 0.4993(12)
O51 O 0.7784(18) 0.306(2) 0.5573(10)
C112 C 0.8505(12) 0.2510(14) 0.5210(7)
C113 C 0.8951(14) 0.2754(17) 0.5073(15)
C114 C 0.9453(14) 0.250(2) 0.5041(17)
C115 C 0.9518(16) 0.199(2) 0.5141(15)
C116 C 0.9081(18) 0.1737(17) 0.5274(18)
C117 C 0.8578(16) 0.1998(15) 0.5299(17)
C118 C 1.004(2) 0.176(3) 0.522(3)
S18 S 0.8188(7) 0.2842(6) -0.0380(5)
O52 O 0.7905(12) 0.3241(10) -0.0536(8)
O53 O 0.8658(10) 0.2708(11) -0.0639(7)
O54 O 0.8384(13) 0.3007(11) -0.0099(6)
C119 C 0.7991(10) 0.2241(7) -0.0294(5)
C120 C 0.7555(12) 0.2065(11) -0.0386(10)
C121 C 0.7450(14) 0.1549(12) -0.0297(11)
C122 C 0.7750(15) 0.1229(11) -0.0116(10)
C123 C 0.8207(15) 0.1377(11) -0.0029(11)
C124 C 0.8282(14) 0.1903(11) -0.0101(10)
C125 C 0.7616(19) 0.0675(12) -0.0045(12)
O68 O 1.0357(15) 0.9448(14) 0.9310(9)
O69 O 0.4053(15) 0.9292(15) 0.1840(10)
O70 O 0.6039(10) 0.5747(9) 0.5253(6)
O71 O 0.3726(17) 0.2678(16) 0.3845(11)
Pd1 Pd 0.87640(6) 0.34745(6) 0.04324(5)
Pd2 Pd 0.90441(7) 0.88922(6) 0.22127(6)
Pd3 Pd 1.37159(6) 0.48035(7) 0.20232(5)
Pd4 Pd 0.82929(7) 0.35410(7) 0.44054(5)
N1 N 0.8874(6) 0.2809(6) 0.0657(4)
N2 N 0.8018(6) 0.3556(6) 0.0707(4)
N3 N 0.9476(6) 0.3390(6) 0.0177(4)
N4 N 0.8663(6) 0.4139(6) 0.0215(4)
N5 N 0.7653(7) 0.3419(7) 0.4225(5)
N6 N 0.8643(6) 0.2903(6) 0.4191(5)
N7 N 0.7958(7) 0.4185(7) 0.4597(5)
N8 N 0.8450(6) 0.8755(6) 0.2586(4)
N9 N 0.8619(7) 0.8819(8) 0.1858(5)
N10 N 0.9649(7) 0.9028(7) 0.1856(5)
N11 N 0.9475(7) 0.8945(7) 0.2581(5)
N12 N 1.3690(6) 0.5385(6) 0.2328(4)
N13 N 1.3703(7) 0.4348(7) 0.2429(5)
N14 N 1.3763(8) 0.4231(7) 0.1718(5)
N15 N 1.3700(7) 0.5248(7) 0.1624(5)
C146 C 1.1241(16) 0.7491(14) 0.1653(10)
C147 C 0.8839(8) 0.2379(9) 0.0489(6)
C148 C 0.759(2) 0.592(2) 0.4355(13)
C149 C 0.8883(9) 0.1912(9) 0.0663(6)
C150 C 0.8139(15) 0.5929(17) 0.3761(10)
C151 C 0.8950(8) 0.1900(8) 0.0998(6)
C152 C 0.9007(7) 0.2353(7) 0.1171(5)
C153 C 0.8955(7) 0.2780(7) 0.0965(5)
C154 C 0.9042(7) 0.2332(8) 0.1520(5)
C155 C 0.8866(9) 0.1963(9) 0.1753(7)
C156 C 0.8849(9) 0.1970(9) 0.2091(6)
C157 C 0.9062(8) 0.2359(8) 0.2248(5)
C158 C 0.9246(10) 0.2733(10) 0.2023(7)
C160 C 0.9270(10) 0.2706(9) 0.1668(7)
C161 C 0.9047(8) 0.2377(8) 0.2601(6)
C162 C 0.8945(7) 0.1925(7) 0.2821(5)
C163 C 0.8919(8) 0.1963(8) 0.3167(5)
C164 C 0.8992(7) 0.2416(7) 0.3317(5)
C165 C 0.9106(8) 0.2836(8) 0.3111(5)
C166 C 0.9125(8) 0.2822(8) 0.2764(6)
C167 C 0.9027(8) 0.2001(8) 0.3903(6)
C168 C 0.8936(9) 0.2051(9) 0.4252(6)
C169 C 0.8735(8) 0.2486(9) 0.4393(6)
C170 C 0.8745(8) 0.2858(8) 0.3841(6)
C171 C 0.7223(9) 0.3258(8) 0.4478(6)
C172 C 0.6790(9) 0.3140(9) 0.4345(6)
C173 C 0.6763(9) 0.3201(8) 0.4016(6)
C174 C 0.7202(9) 0.3337(8) 0.3769(6)
C175 C 0.7628(8) 0.3460(8) 0.3897(6)
C176 C 0.7223(9) 0.3345(8) 0.3414(6)
C177 C 0.6787(9) 0.3554(9) 0.3257(6)
C178 C 0.6821(9) 0.3571(9) 0.2920(7)
C179 C 0.7276(8) 0.3403(7) 0.2686(6)
C180 C 0.7692(8) 0.3228(8) 0.2846(6)
C181 C 0.7671(8) 0.3186(8) 0.3186(6)
C182 C 0.7314(8) 0.3461(8) 0.2346(6)
C183 C 0.7016(8) 0.3811(8) 0.2174(6)
C184 C 0.7028(8) 0.3833(8) 0.1830(6)
C185 C 0.7404(8) 0.3520(8) 0.1606(5)
C186 C 0.7712(9) 0.3192(8) 0.1760(6)
C187 C 0.7672(9) 0.3160(8) 0.2126(6)
C188 C 0.7448(8) 0.3564(7) 0.1252(5)
C189 C 0.7043(9) 0.3587(9) 0.1085(6)
C190 C 0.7122(9) 0.3582(9) 0.0732(6)
C191 C 0.7940(8) 0.3548(7) 0.1043(5)
C192 C 0.9543(9) 0.3253(9) -0.0162(6)
C193 C 1.0070(11) 0.3145(10) -0.0352(7)
C194 C 1.0498(10) 0.3252(10) -0.0179(7)
C195 C 1.0404(8) 0.3368(8) 0.0147(6)
C196 C 0.9877(7) 0.3459(7) 0.0325(5)
C197 C 1.0833(8) 0.3445(8) 0.0325(5)
C198 C 1.1286(9) 0.3153(9) 0.0248(6)
C199 C 1.1700(10) 0.3215(9) 0.0422(6)
C200 C 1.1646(9) 0.3568(8) 0.0672(6)
C201 C 1.1191(9) 0.3903(8) 0.0750(6)
C202 C 1.0765(9) 0.3825(8) 0.0575(6)
C203 C 1.2083(9) 0.3625(10) 0.0843(6)
C204 C 1.2127(15) 0.4020(15) 0.0956(10)
C205 C 1.2564(13) 0.4113(12) 0.1161(8)
C206 C 1.2922(9) 0.3733(9) 0.1162(6)
C207 C 1.3364(10) 0.3794(9) 0.1336(6)
C208 C 1.3800(12) 0.3473(11) 0.1233(7)
C210 C 1.4228(11) 0.3506(11) 0.1417(7)
C212 C 1.4217(10) 0.3902(10) 0.1638(7)
C213 C 1.3324(8) 0.4150(8) 0.1575(6)
C214 C 1.4164(9) 0.4104(9) 0.2497(7)
C215 C 1.4128(11) 0.3792(10) 0.2783(7)
C216 C 1.3651(11) 0.3767(10) 0.3034(7)
C217 C 1.3221(10) 0.4016(9) 0.2926(7)
C218 C 1.3275(8) 0.4288(7) 0.2646(5)
C219 C 1.2725(11) 0.3957(10) 0.3192(8)
C220 C 1.2298(14) 0.3971(12) 0.2999(9)
C221 C 1.1795(16) 0.3961(15) 0.3255(12)
C222 C 1.1774(11) 0.3926(10) 0.3607(8)
C223 C 1.2195(14) 0.3896(12) 0.3772(9)
C224 C 1.2751(15) 0.3900(14) 0.3521(11)
C225 C 1.1245(10) 0.3913(10) 0.3850(7)
C226 C 1.0797(11) 0.4112(10) 0.3729(7)
C227 C 1.0336(10) 0.4065(9) 0.3962(7)
C228 C 1.0315(9) 0.3857(8) 0.4284(6)
C229 C 1.0732(12) 0.3688(11) 0.4404(7)
C230 C 1.1258(11) 0.3702(10) 0.4169(7)
C231 C 0.9826(10) 0.3801(9) 0.4520(7)
C232 C 0.9371(9) 0.3704(8) 0.4377(6)
C233 C 0.9765(10) 0.3843(10) 0.4869(7)
C234 C 0.9307(10) 0.3754(9) 0.5093(7)
C235 C 0.8888(10) 0.3662(10) 0.4938(7)
C236 C 1.4147(8) 0.5480(8) 0.2437(6)
C237 C 1.4144(9) 0.5873(9) 0.2635(6)
C238 C 1.3703(8) 0.6231(8) 0.2716(5)
C239 C 1.3267(8) 0.6108(8) 0.2605(6)
C240 C 1.3251(8) 0.5698(8) 0.2408(5)
C241 C 1.2815(10) 0.6479(9) 0.2660(7)
C242 C 1.2737(12) 0.6814(12) 0.2929(8)
C243 C 1.2286(13) 0.7184(12) 0.2949(8)
C244 C 1.1920(10) 0.7171(9) 0.2744(7)
C245 C 1.2041(16) 0.6878(16) 0.2456(11)
C246 C 1.2455(17) 0.6504(15) 0.2441(10)
C247 C 1.1452(9) 0.7541(8) 0.2793(6)
C248 C 1.1465(10) 0.7971(10) 0.2985(7)
C249 C 1.0994(10) 0.8307(9) 0.3000(6)
C250 C 1.0578(9) 0.8219(9) 0.2839(6)
C251 C 1.0596(10) 0.7784(10) 0.2693(6)
C252 C 1.1056(10) 0.7417(10) 0.2634(7)
C253 C 1.0136(10) 0.8629(10) 0.2835(7)
C254 C 1.0020(11) 0.8933(11) 0.3095(7)
C255 C 0.9593(10) 0.9312(10) 0.3084(7)
C256 C 0.9353(8) 0.9319(8) 0.2798(6)
C257 C 0.9875(9) 0.8611(9) 0.2572(6)
C258 C 1.4105(8) 0.5241(8) 0.1351(6)
C259 C 1.4118(10) 0.5568(10) 0.1068(7)
C260 C 1.3721(10) 0.5922(10) 0.1050(7)
C261 C 1.3312(8) 0.5936(8) 0.1317(6)
C262 C 1.3298(8) 0.5622(8) 0.1597(5)
C263 C 1.2886(9) 0.6370(8) 0.1329(6)
C264 C 1.2984(8) 0.6832(8) 0.1193(6)
C265 C 1.2599(8) 0.7216(8) 0.1223(5)
C266 C 1.2085(9) 0.7142(8) 0.1401(6)
C267 C 1.1983(9) 0.6673(9) 0.1554(6)
C268 C 1.2399(9) 0.6256(9) 0.1523(6)
C269 C 1.1680(9) 0.7546(8) 0.1432(6)
C270 C 1.1732(11) 0.7989(11) 0.1278(7)
C271 C 1.1367(12) 0.8390(11) 0.1338(7)
C272 C 1.0883(9) 0.8332(9) 0.1481(6)
C273 C 1.0834(18) 0.7898(19) 0.1699(12)
C274 C 1.0505(9) 0.8740(9) 0.1564(6)
C275 C 1.0577(10) 0.9217(10) 0.1399(6)
C276 C 1.0194(11) 0.9613(10) 0.1475(7)
C277 C 0.9704(10) 0.9493(10) 0.1727(7)
C278 C 1.0016(9) 0.8640(8) 0.1772(6)
C279 C 0.8405(14) 0.9242(13) 0.1763(9)
C280 C 0.8047(15) 0.9171(15) 0.1584(10)
C281 C 0.8015(13) 0.8750(13) 0.1359(9)
C282 C 0.8353(10) 0.8288(9) 0.1484(6)
C283 C 0.8642(8) 0.8363(8) 0.1711(6)
C284 C 0.8353(9) 0.7811(9) 0.1288(7)
C285 C 0.8181(12) 0.7776(13) 0.1010(9)
C286 C 0.8209(14) 0.7302(15) 0.0852(9)
C287 C 0.8381(9) 0.6868(9) 0.0980(6)
C288 C 0.8533(16) 0.6927(16) 0.1273(11)
C289 C 0.8496(18) 0.738(2) 0.1458(12)
C290 C 0.8384(8) 0.6416(8) 0.0806(5)
C291 C 0.8078(9) 0.6357(9) 0.0564(6)
C292 C 0.8099(10) 0.5925(10) 0.0381(6)
C293 C 0.8464(8) 0.5506(8) 0.0442(6)
C294 C 0.8764(8) 0.5552(8) 0.0703(5)
C295 C 0.8745(8) 0.5967(8) 0.0866(5)
C296 C 0.8493(8) 0.5048(8) 0.0239(6)
C297 C 0.8444(11) 0.5100(11) -0.0096(8)
C298 C 0.8511(13) 0.4640(14) -0.0272(9)
C299 C 0.8614(9) 0.4187(10) -0.0102(7)
C300 C 0.8606(7) 0.4557(8) 0.0385(5)
C301 C 0.8060(10) 0.9123(9) 0.2671(6)
C302 C 0.7642(11) 0.9050(10) 0.2937(7)
C303 C 0.7659(10) 0.8600(10) 0.3152(7)
C304 C 0.8093(9) 0.8228(9) 0.3037(6)
C305 C 0.8468(8) 0.8313(8) 0.2765(6)
C306 C 0.8073(8) 0.7742(8) 0.3266(6)
C307 C 0.7885(10) 0.7756(10) 0.3597(7)
C308 C 0.7857(10) 0.7292(10) 0.3813(7)
C309 C 0.8021(9) 0.6857(10) 0.3624(7)
C310 C 0.8201(9) 0.6833(9) 0.3288(6)
C311 C 0.8242(9) 0.7287(9) 0.3085(6)
C312 C 0.7978(10) 0.6410(11) 0.3850(7)
C313 C 0.766(2) 0.643(2) 0.4130(15)
C314 C 0.7852(11) 0.5503(11) 0.4272(8)
C315 C 0.8124(13) 0.5467(13) 0.3954(10)
C316 C 0.7779(10) 0.5089(10) 0.4503(7)
C317 C 0.7463(11) 0.5102(10) 0.4823(7)
C318 C 0.7414(11) 0.4667(11) 0.5027(7)
C319 C 0.7661(10) 0.4186(10) 0.4915(7)
C320 C 0.8003(8) 0.4601(9) 0.4407(6)
N32 N 0.8905(7) 0.3664(6) 0.4603(5)
C492 C 0.8927(8) 0.2432(8) 0.3694(5)
C493 C 0.7654(9) 0.3574(8) 0.0527(6)
C499 C 1.2770(14) 0.3225(13) 0.1100(9)
C517 C 1.2316(15) 0.3215(14) 0.0914(9)
S6? S 0.9053(3) 0.4236(3) 0.35424(19)
O16? O 0.8515(5) 0.4110(7) 0.3606(4)
O17? O 0.9132(8) 0.4588(7) 0.3794(5)
O18? O 0.9413(5) 0.3809(5) 0.3539(4)
C36? C 0.9242(5) 0.4505(9) 0.3145(4)
C37? C 0.9368(14) 0.5006(10) 0.3110(8)
C38? C 0.9519(16) 0.5214(13) 0.2771(10)
C39? C 0.9548(16) 0.4918(17) 0.2489(8)
C40? C 0.9429(18) 0.4410(17) 0.2525(6)
C41? C 0.9274(17) 0.4201(12) 0.2861(7)
S8? S 0.6047(8) 0.5081(6) 0.2375(4)
O22? O 0.5792(15) 0.5564(11) 0.2280(10)
O23? O 0.602(2) 0.4695(15) 0.2133(10)
O24? O 0.6568(9) 0.5128(14) 0.2399(9)
C49? C 0.5716(10) 0.4894(16) 0.2771(6)
C50? C 0.5181(11) 0.487(2) 0.2810(8)
C51? C 0.4892(13) 0.474(3) 0.3138(9)
C52? C 0.5111(15) 0.477(3) 0.3426(8)
C53? C 0.5647(14) 0.478(3) 0.3395(7)
C54? C 0.5941(15) 0.488(4) 0.3061(8)
C55? C 0.4782(18) 0.469(2) 0.3788(9)
S11? S 0.9408(6) 0.4186(6) 0.1122(4)
O31? O 0.9541(12) 0.4459(11) 0.1408(6)
O32? O 0.9755(11) 0.3722(9) 0.1104(8)
O33? O 0.8921(9) 0.4035(12) 0.1116(8)
C70? C 0.9597(8) 0.4551(8) 0.0753(4)
C71? C 0.9384(11) 0.5041(9) 0.0733(6)
C72? C 0.9537(14) 0.5339(9) 0.0446(7)
C73? C 0.9903(12) 0.5148(11) 0.0178(6)
C74? C 1.0117(12) 0.4659(12) 0.0198(6)
C75? C 0.9964(11) 0.4360(9) 0.0485(6)
C76? C 1.0073(18) 0.5404(17) -0.0171(8)
S19? S 1.6605(6) 0.6807(6) 0.0278(4)
O55? O 1.0502(18) 1.1604(17) 0.1692(12)
C126? C 1.008(3) 1.116(3) 0.2104(13)
C127? C 1.0216(15) 1.1275(15) 0.1727(12)
C128? C 1.010(3) 1.112(3) 0.1413(14)
O56? O -0.1718(10) 0.9346(10) 0.4278(7)
C129? C -0.1669(12) 0.9190(11) 0.3743(7)
C130? C -0.1775(8) 0.9019(11) 0.4115(7)
C131? C -0.1974(14) 0.8573(13) 0.4288(9)
O57? O 1.704(2) 0.4746(19) -0.0455(10)
C132? C 1.732(2) 0.5198(19) -0.0104(16)
C133? C 1.7040(10) 0.4746(11) -0.0154(8)
C134? C 1.675(3) 0.436(2) 0.0026(19)
O58? O 0.7027(15) 1.1524(14) -0.0962(10)
C135? C 0.7429(19) 1.097(2) -0.1336(14)
C136? C 0.6939(17) 1.1188(14) -0.1118(9)
C137? C 0.6413(18) 1.105(2) -0.1055(15)
O59? O 0.4520(10) 0.9610(10) 0.4200(7)
O60? O 0.2291(11) 0.9509(10) 0.4246(7)
O61? O 1.5660(15) 0.9713(15) -0.0956(10)
O62? O 1.7053(12) 0.7089(12) 0.0464(8)
O63? O 0.8431(15) 0.5625(15) 0.1964(10)
C138? C 0.9756(16) 0.8047(17) 0.3749(11)
C139? C 0.7623(15) 0.7717(15) 0.2333(10)
C140? C -0.061(3) 0.558(3) 0.455(2)
O64? O 0.5977(16) 0.4200(15) 0.4063(11)
C141? C 0.6448(18) 0.9460(15) 0.2482(11)
C142? C 0.4297(18) 0.9977(19) 0.4186(12)
C143? C 1.531(2) 0.929(2) 0.0334(15)
C144? C 0.638(3) 0.446(3) 0.4436(18)
C145? C 0.5927(12) 0.4322(11) 0.4423(8)
C159? C 0.984(2) 0.514(2) 0.2077(14)
C209? C 0.7158(19) 0.6049(18) 0.5468(12)
C211? C 0.616(3) 0.603(3) 0.3967(17)
C500? C 0.4592(10) 1.3937(9) 0.0387(7)
C501? C 1.7224(10) 0.8087(9) -0.0057(7)
C502? C 1.5559(13) 0.8693(12) 0.0070(8)
C503? C 1.7288(13) 0.7729(13) -0.0316(9)
C504? C 0.485(2) 1.4170(19) 0.0069(13)
C505? C 1.6437(16) 0.6219(16) 0.0448(10)
C506? C 0.244(4) 1.027(3) 0.179(2)
C507? C 0.4484(16) 1.4464(16) 0.0600(11)
C508? C 1.517(3) 0.851(3) 0.0390(19)
C509? C 0.0393(19) 1.238(2) 0.3783(13)
C510? C 0.085(3) 1.212(3) 0.3503(19)
C511? C 1.766(2) 0.7980(19) 0.0096(13)
C512? C 0.9381(19) 0.7688(18) 0.3440(13)
C513? C 0.7270(18) 0.7446(17) 0.2124(11)
C514? C 0.4639(19) 0.9815(18) 0.4662(12)
C515? C 0.2763(16) 0.9973(16) 0.4089(11)
C516? C 0.958(3) 0.767(3) 0.3670(19)
C518? C 1.545(3) 0.936(3) -0.0674(19)
O65? O 0.692(3) 0.953(2) 0.2335(17)
C519? C 1.6945(16) 0.6558(15) -0.0140(11)
O66? O 0.151(3) 1.046(3) 0.156(2)
C520? C 0.235(3) 1.058(3) 0.143(2)
O67? O 0.035(2) 1.273(2) 0.3534(14)
C521? C 1.077(2) 0.286(2) 0.1471(16)
C522? C 0.428(2) 1.393(2) 0.0237(14)
C523? C 0.835(2) 0.613(2) 0.2362(15)
C524? C 0.190(2) 1.219(2) 0.3234(13)
C525? C -0.038(2) 0.596(2) 0.3868(16)
C526? C 0.639(3) 0.944(3) 0.2042(18)
C527? C -0.1434(18) 0.5025(17) 0.5307(11)
C528? C 1.309(2) 0.291(2) 0.2419(13)
C529? C 0.180(3) 0.986(3) 0.1586(16)
C530? C 1.053(3) 0.352(3) 0.176(2)
C531? C 0.181(2) 1.0379(19) 0.1820(13)
C532? C -0.026(3) 0.575(3) 0.410(2)
C533? C 1.062(3) 0.316(3) 0.2035(18)
C534? C 1.365(3) 0.282(2) 0.2247(15)
O72? O 1.4954(6) 0.4715(5) 0.1910(4)
loop_
_geom_bond_atom_site_label_1
_geom_bond_atom_site_label_2
_geom_bond_site_symmetry_1
_geom_bond_site_symmetry_2
Pd1 N1 1_555 1_555
Pd2 N8 1_555 1_555
Pd3 N12 1_555 1_555
Pd4 N5 1_555 1_555
Pd5 N16 1_555 1_555
Pd6 N20 1_555 1_555
Pd7 N24 1_555 1_555
Pd8 N28 1_555 1_555
S1 O1 1_555 1_555
O2 S1 1_555 1_555
O3 S1 1_555 1_555
C1 S1 1_555 1_555
C2 C1 1_555 1_555
C3 C2 1_555 1_555
C4 C3 1_555 1_555
C5 C4 1_555 1_555
C6 C1 1_555 1_555
C7 C4 1_555 1_555
S2 O4 1_555 1_555
O5 S2 1_555 1_555
O6 S2 1_555 1_555
C8 S2 1_555 1_555
C9 C8 1_555 1_555
C10 C9 1_555 1_555
C11 C10 1_555 1_555
C12 C11 1_555 1_555
C13 C8 1_555 1_555
C14 C11 1_555 1_555
S3 O7 1_555 1_555
O8 S3 1_555 1_555
O9 S3 1_555 1_555
C15 S3 1_555 1_555
C16 C15 1_555 1_555
C17 C16 1_555 1_555
C18 C17 1_555 1_555
C19 C18 1_555 1_555
C20 C15 1_555 1_555
C21 C18 1_555 1_555
S4 O10 1_555 1_555
O11 S4 1_555 1_555
O12 S4 1_555 1_555
C22 S4 1_555 1_555
C23 C22 1_555 1_555
C24 C23 1_555 1_555
C25 C24 1_555 1_555
C26 C25 1_555 1_555
C27 C22 1_555 1_555
C28 C25 1_555 1_555
S5 O13 1_555 1_555
O14 S5 1_555 1_555
O15 S5 1_555 1_555
C29 S5 1_555 1_555
C30 C29 1_555 1_555
C31 C30 1_555 1_555
C32 C31 1_555 1_555
C33 C32 1_555 1_555
C34 C29 1_555 1_555
C35 C32 1_555 1_555
S7 O19 1_555 1_555
O20 S7 1_555 1_555
O21 S7 1_555 1_555
C42 S7 1_555 1_555
C43 C42 1_555 1_555
C44 C43 1_555 1_555
C45 C44 1_555 1_555
C46 C45 1_555 1_555
C47 C42 1_555 1_555
C48 C45 1_555 1_555
S9 O25 1_555 1_555
O26 S9 1_555 1_555
O27 S9 1_555 1_555
C56 S9 1_555 1_555
C57 C56 1_555 1_555
C58 C57 1_555 1_555
C59 C58 1_555 1_555
C60 C59 1_555 1_555
C61 C56 1_555 1_555
C62 C59 1_555 1_555
S10 O28 1_555 1_555
O29 S10 1_555 1_555
O30 S10 1_555 1_555
C63 S10 1_555 1_555
C64 C63 1_555 1_555
C65 C64 1_555 1_555
C66 C65 1_555 1_555
C67 C66 1_555 1_555
C68 C63 1_555 1_555
C69 C66 1_555 1_555
S12 O34 1_555 1_555
O35 S12 1_555 1_555
O36 S12 1_555 1_555
C77 S12 1_555 1_555
C78 C77 1_555 1_555
C79 C78 1_555 1_555
C80 C79 1_555 1_555
C81 C80 1_555 1_555
C82 C77 1_555 1_555
C83 C80 1_555 1_555
S13 O37 1_555 1_555
O38 S13 1_555 1_555
O39 S13 1_555 1_555
C84 S13 1_555 1_555
C85 C84 1_555 1_555
C86 C85 1_555 1_555
C87 C86 1_555 1_555
C88 C87 1_555 1_555
C89 C84 1_555 1_555
C90 C87 1_555 1_555
S14 O40 1_555 1_555
O41 S14 1_555 1_555
O42 S14 1_555 1_555
C91 S14 1_555 1_555
C92 C91 1_555 1_555
C93 C92 1_555 1_555
C94 C93 1_555 1_555
C95 C94 1_555 1_555
C96 C91 1_555 1_555
C97 C94 1_555 1_555
S15 O43 1_555 1_555
O44 S15 1_555 1_555
O45 S15 1_555 1_555
C98 S15 1_555 1_555
C99 C98 1_555 1_555
C100 C99 1_555 1_555
C101 C100 1_555 1_555
C102 C101 1_555 1_555
C103 C98 1_555 1_555
C104 C101 1_555 1_555
S16 O46 1_555 1_555
O47 S16 1_555 1_555
O48 S16 1_555 1_555
C105 S16 1_555 1_555
C106 C105 1_555 1_555
C107 C106 1_555 1_555
C108 C107 1_555 1_555
C109 C108 1_555 1_555
C110 C105 1_555 1_555
C111 C108 1_555 1_555
S17 O49 1_555 1_555
O50 S17 1_555 1_555
O51 S17 1_555 1_555
C112 S17 1_555 1_555
C113 C112 1_555 1_555
C114 C113 1_555 1_555
C115 C114 1_555 1_555
C116 C115 1_555 1_555
C117 C112 1_555 1_555
C118 C115 1_555 1_555
S18 O52 1_555 1_555
O53 S18 1_555 1_555
O54 S18 1_555 1_555
C119 S18 1_555 1_555
C120 C119 1_555 1_555
C121 C120 1_555 1_555
C122 C121 1_555 1_555
C123 C122 1_555 1_555
C124 C119 1_555 1_555
C125 C122 1_555 1_555
N1 C147 1_555 1_555
N2 Pd1 1_555 1_555
N3 Pd1 1_555 1_555
N4 Pd1 1_555 1_555
N5 C171 1_555 1_555
N6 Pd4 1_555 1_555
N7 Pd4 1_555 1_555
N8 C301 1_555 1_555
N9 Pd2 1_555 1_555
N10 Pd2 1_555 1_555
N11 Pd2 1_555 1_555
N12 C236 1_555 1_555
N13 Pd3 1_555 1_555
N14 Pd3 1_555 1_555
N15 Pd3 1_555 1_555
N16 C383 1_555 1_555
N17 Pd5 1_555 1_555
N18 Pd5 1_555 1_555
N19 Pd5 1_555 1_555
N20 C403 1_555 1_555
N21 Pd6 1_555 1_555
N22 Pd6 1_555 1_555
N23 Pd6 1_555 1_555
N24 C469 1_555 1_555
N25 Pd7 1_555 1_555
N26 Pd7 1_555 1_555
N27 Pd7 1_555 1_555
N28 C447 1_555 1_555
N29 Pd8 1_555 1_555
N30 Pd8 1_555 1_555
N31 Pd8 1_555 1_555
C146 C269 1_555 1_555
C147 C149 1_555 1_555
C148 C313 1_555 1_555
C149 C151 1_555 1_555
C150 C312 1_555 1_555
C151 C152 1_555 1_555
C152 C153 1_555 1_555
C153 N1 1_555 1_555
C154 C152 1_555 1_555
C155 C154 1_555 1_555
C156 C155 1_555 1_555
C157 C156 1_555 1_555
C158 C157 1_555 1_555
C160 C154 1_555 1_555
C161 C157 1_555 1_555
C162 C161 1_555 1_555
C163 C162 1_555 1_555
C164 C163 1_555 1_555
C165 C164 1_555 1_555
C166 C161 1_555 1_555
C167 C168 1_555 1_555
C168 C169 1_555 1_555
C169 N6 1_555 1_555
C170 N6 1_555 1_555
C171 C172 1_555 1_555
C172 C173 1_555 1_555
C173 C174 1_555 1_555
C174 C175 1_555 1_555
C175 N5 1_555 1_555
C176 C174 1_555 1_555
C177 C176 1_555 1_555
C178 C177 1_555 1_555
C179 C178 1_555 1_555
C180 C179 1_555 1_555
C181 C176 1_555 1_555
C182 C179 1_555 1_555
C183 C182 1_555 1_555
C184 C183 1_555 1_555
C185 C184 1_555 1_555
C186 C185 1_555 1_555
C187 C182 1_555 1_555
C188 C185 1_555 1_555
C189 C188 1_555 1_555
C190 C189 1_555 1_555
C191 N2 1_555 1_555
C192 N3 1_555 1_555
C193 C192 1_555 1_555
C194 C193 1_555 1_555
C195 C194 1_555 1_555
C196 N3 1_555 1_555
C197 C195 1_555 1_555
C198 C197 1_555 1_555
C199 C198 1_555 1_555
C200 C199 1_555 1_555
C201 C200 1_555 1_555
C202 C197 1_555 1_555
C203 C200 1_555 1_555
C204 C203 1_555 1_555
C205 C204 1_555 1_555
C206 C205 1_555 1_555
C207 C206 1_555 1_555
C208 C207 1_555 1_555
C210 C208 1_555 1_555
C212 N14 1_555 1_555
C213 N14 1_555 1_555
C214 N13 1_555 1_555
C215 C214 1_555 1_555
C216 C215 1_555 1_555
C217 C216 1_555 1_555
C218 N13 1_555 1_555
C219 C217 1_555 1_555
C220 C219 1_555 1_555
C221 C220 1_555 1_555
C222 C221 1_555 1_555
C223 C222 1_555 1_555
C224 C219 1_555 1_555
C225 C222 1_555 1_555
C226 C225 1_555 1_555
C227 C226 1_555 1_555
C228 C227 1_555 1_555
C229 C228 1_555 1_555
C230 C225 1_555 1_555
C231 C228 1_555 1_555
C232 C231 1_555 1_555
C233 C231 1_555 1_555
C234 C233 1_555 1_555
C235 C234 1_555 1_555
C236 C237 1_555 1_555
C237 C238 1_555 1_555
C238 C239 1_555 1_555
C239 C240 1_555 1_555
C240 N12 1_555 1_555
C241 C239 1_555 1_555
C242 C241 1_555 1_555
C243 C242 1_555 1_555
C244 C243 1_555 1_555
C245 C244 1_555 1_555
C246 C241 1_555 1_555
C247 C244 1_555 1_555
C248 C247 1_555 1_555
C249 C248 1_555 1_555
C250 C249 1_555 1_555
C251 C250 1_555 1_555
C252 C247 1_555 1_555
C253 C250 1_555 1_555
C254 C253 1_555 1_555
C255 C254 1_555 1_555
C256 N11 1_555 1_555
C257 N11 1_555 1_555
C258 N15 1_555 1_555
C259 C258 1_555 1_555
C260 C259 1_555 1_555
C261 C260 1_555 1_555
C262 N15 1_555 1_555
C263 C261 1_555 1_555
C264 C263 1_555 1_555
C265 C264 1_555 1_555
C266 C265 1_555 1_555
C267 C266 1_555 1_555
C268 C263 1_555 1_555
C269 C266 1_555 1_555
C270 C269 1_555 1_555
C271 C270 1_555 1_555
C272 C271 1_555 1_555
C273 C146 1_555 1_555
C274 C272 1_555 1_555
C275 C274 1_555 1_555
C276 C275 1_555 1_555
C277 N10 1_555 1_555
C278 N10 1_555 1_555
C279 N9 1_555 1_555
C280 C279 1_555 1_555
C281 C280 1_555 1_555
C282 C281 1_555 1_555
C283 N9 1_555 1_555
C284 C282 1_555 1_555
C285 C284 1_555 1_555
C286 C285 1_555 1_555
C287 C286 1_555 1_555
C288 C287 1_555 1_555
C289 C284 1_555 1_555
C290 C287 1_555 1_555
C291 C290 1_555 1_555
C292 C291 1_555 1_555
C293 C292 1_555 1_555
C294 C293 1_555 1_555
C295 C290 1_555 1_555
C296 C293 1_555 1_555
C297 C296 1_555 1_555
C298 C297 1_555 1_555
C299 N4 1_555 1_555
C300 N4 1_555 1_555
C301 C302 1_555 1_555
C302 C303 1_555 1_555
C303 C304 1_555 1_555
C304 C305 1_555 1_555
C305 N8 1_555 1_555
C306 C304 1_555 1_555
C307 C306 1_555 1_555
C308 C307 1_555 1_555
C309 C308 1_555 1_555
C310 C309 1_555 1_555
C311 C306 1_555 1_555
C312 C309 1_555 1_555
C313 C312 1_555 1_555
C314 C148 1_555 1_555
C315 C150 1_555 1_555
C316 C314 1_555 1_555
C317 C316 1_555 1_555
C318 C317 1_555 1_555
C319 N7 1_555 1_555
C320 N7 1_555 1_555
C321 N17 1_555 1_555
C322 C321 1_555 1_555
C323 C322 1_555 1_555
C324 C323 1_555 1_555
C325 N17 1_555 1_555
C326 C324 1_555 1_555
C327 C326 1_555 1_555
C328 C327 1_555 1_555
C329 C328 1_555 1_555
C330 C329 1_555 1_555
C331 C326 1_555 1_555
C332 C329 1_555 1_555
C333 C332 1_555 1_555
C334 C333 1_555 1_555
C335 C334 1_555 1_555
C336 C335 1_555 1_555
C337 C332 1_555 1_555
C338 C335 1_555 1_555
C339 C338 1_555 1_555
C340 C339 1_555 1_555
C341 N21 1_555 1_555
C342 N21 1_555 1_555
C343 N18 1_555 1_555
C344 C343 1_555 1_555
C345 C344 1_555 1_555
C346 C345 1_555 1_555
C347 N18 1_555 1_555
C348 C349 1_555 1_555
C349 C350 1_555 1_555
C350 C351 1_555 1_555
C351 C352 1_555 1_555
C352 C353 1_555 1_555
C353 C354 1_555 1_555
C354 C355 1_555 1_555
C355 C356 1_555 1_555
C356 C351 1_555 1_555
C357 C354 1_555 1_555
C358 C357 1_555 1_555
C359 C358 1_555 1_555
C360 N29 1_555 1_555
C361 N29 1_555 1_555
C362 N19 1_555 1_555
C363 C362 1_555 1_555
C364 C363 1_555 1_555
C365 C364 1_555 1_555
C366 N19 1_555 1_555
C367 C365 1_555 1_555
C368 C367 1_555 1_555
C369 C368 1_555 1_555
C370 C369 1_555 1_555
C371 C370 1_555 1_555
C372 C367 1_555 1_555
C373 C370 1_555 1_555
C374 C373 1_555 1_555
C375 C376 1_555 1_555
C376 C377 1_555 1_555
C377 C373 1_555 1_555
C378 C375 1_555 1_555
C379 C378 1_555 1_555
C380 C379 1_555 1_555
C381 N26 1_555 1_555
C382 N26 1_555 1_555
C383 C384 1_555 1_555
C384 C385 1_555 1_555
C385 C386 1_555 1_555
C386 C387 1_555 1_555
C387 N16 1_555 1_555
C388 C386 1_555 1_555
C389 C388 1_555 1_555
C390 C389 1_555 1_555
C391 C390 1_555 1_555
C392 C391 1_555 1_555
C393 C388 1_555 1_555
C394 C391 1_555 1_555
C395 C394 1_555 1_555
C396 C395 1_555 1_555
C397 C396 1_555 1_555
C398 C397 1_555 1_555
C399 C394 1_555 1_555
C400 C397 1_555 1_555
C401 C400 1_555 1_555
C402 C401 1_555 1_555
C403 C402 1_555 1_555
C404 N20 1_555 1_555
C405 N23 1_555 1_555
C406 C405 1_555 1_555
C407 C406 1_555 1_555
C408 C407 1_555 1_555
C409 N23 1_555 1_555
C410 C408 1_555 1_555
C411 C410 1_555 1_555
C412 C411 1_555 1_555
C413 C412 1_555 1_555
C414 C413 1_555 1_555
C415 C410 1_555 1_555
C416 C413 1_555 1_555
C417 C416 1_555 1_555
C418 C417 1_555 1_555
C419 C418 1_555 1_555
C420 C419 1_555 1_555
C421 C416 1_555 1_555
C422 C419 1_555 1_555
C423 C422 1_555 1_555
C424 C423 1_555 1_555
C425 N25 1_555 1_555
C426 N25 1_555 1_555
C427 N22 1_555 1_555
C428 C427 1_555 1_555
C429 C428 1_555 1_555
C430 C429 1_555 1_555
C431 N22 1_555 1_555
C432 C430 1_555 1_555
C433 C432 1_555 1_555
C434 C433 1_555 1_555
C435 C434 1_555 1_555
C436 C435 1_555 1_555
C437 C432 1_555 1_555
C438 C435 1_555 1_555
C439 C438 1_555 1_555
C440 C439 1_555 1_555
C441 C440 1_555 1_555
C442 C441 1_555 1_555
C443 C438 1_555 1_555
C444 C441 1_555 1_555
C445 C444 1_555 1_555
C446 C445 1_555 1_555
C447 C446 1_555 1_555
C448 N28 1_555 1_555
C449 N31 1_555 1_555
C450 C449 1_555 1_555
C451 C450 1_555 1_555
C452 C451 1_555 1_555
C453 N31 1_555 1_555
C454 C452 1_555 1_555
C455 C454 1_555 1_555
C456 C455 1_555 1_555
C457 C456 1_555 1_555
C458 C457 1_555 1_555
C459 C454 1_555 1_555
C460 C457 1_555 1_555
C461 C460 1_555 1_555
C462 C461 1_555 1_555
C463 C462 1_555 1_555
C464 C463 1_555 1_555
C465 C460 1_555 1_555
C466 C463 1_555 1_555
C467 C466 1_555 1_555
C468 C467 1_555 1_555
C469 C468 1_555 1_555
C470 N24 1_555 1_555
C471 N30 1_555 1_555
C472 C471 1_555 1_555
C473 C472 1_555 1_555
C474 C473 1_555 1_555
C475 N30 1_555 1_555
C476 C474 1_555 1_555
C477 C476 1_555 1_555
C478 C477 1_555 1_555
C479 C478 1_555 1_555
C480 C479 1_555 1_555
C481 C476 1_555 1_555
C482 C479 1_555 1_555
C483 C482 1_555 1_555
C484 C483 1_555 1_555
C485 C484 1_555 1_555
C486 C482 1_555 1_555
C487 C485 1_555 1_555
C488 C487 1_555 1_555
C489 C488 1_555 1_555
C490 N27 1_555 1_555
C491 N27 1_555 1_555
N32 Pd4 1_555 1_555
C492 C164 1_555 1_555
C493 N2 1_555 1_555
C494 C485 1_555 1_555
C495 C346 1_555 1_555
C496 C495 1_555 1_555
C497 C350 1_555 1_555
C498 C374 1_555 1_555
C499 C206 1_555 1_555
C517 C203 1_555 1_555
C5 C6 1_555 1_555
C12 C13 1_555 1_555
C19 C20 1_555 1_555
C26 C27 1_555 1_555
C33 C34 1_555 1_555
C46 C47 1_555 1_555
C60 C61 1_555 1_555
C67 C68 1_555 1_555
C81 C82 1_555 1_555
C88 C89 1_555 1_555
C95 C96 1_555 1_555
C102 C103 1_555 1_555
C109 C110 1_555 1_555
C116 C117 1_555 1_555
C123 C124 1_555 1_555
C158 C160 1_555 1_555
C165 C166 1_555 1_555
C167 C492 1_555 1_555
C170 C492 1_555 1_555
C180 C181 1_555 1_555
C186 C187 1_555 1_555
C188 C191 1_555 1_555
C190 C493 1_555 1_555
C195 C196 1_555 1_555
C201 C202 1_555 1_555
C207 C213 1_555 1_555
C210 C212 1_555 1_555
C217 C218 1_555 1_555
C223 C224 1_555 1_555
C229 C230 1_555 1_555
C232 N32 1_555 1_555
C235 N32 1_555 1_555
C245 C246 1_555 1_555
C251 C252 1_555 1_555
C253 C257 1_555 1_555
C255 C256 1_555 1_555
C261 C262 1_555 1_555
C267 C268 1_555 1_555
C272 C273 1_555 1_555
C274 C278 1_555 1_555
C276 C277 1_555 1_555
C282 C283 1_555 1_555
C288 C289 1_555 1_555
C294 C295 1_555 1_555
C296 C300 1_555 1_555
C298 C299 1_555 1_555
C310 C311 1_555 1_555
C314 C315 1_555 1_555
C316 C320 1_555 1_555
C318 C319 1_555 1_555
C324 C325 1_555 1_555
C330 C331 1_555 1_555
C336 C337 1_555 1_555
C338 C342 1_555 1_555
C340 C341 1_555 1_555
C346 C347 1_555 1_555
C348 C495 1_555 1_555
C357 C361 1_555 1_555
C359 C360 1_555 1_555
C365 C366 1_555 1_555
C371 C372 1_555 1_555
C375 C498 1_555 1_555
C378 C382 1_555 1_555
C380 C381 1_555 1_555
C392 C393 1_555 1_555
C398 C399 1_555 1_555
C400 C404 1_555 1_555
C408 C409 1_555 1_555
C414 C415 1_555 1_555
C420 C421 1_555 1_555
C422 C426 1_555 1_555
C424 C425 1_555 1_555
C430 C431 1_555 1_555
C436 C437 1_555 1_555
C442 C443 1_555 1_555
C444 C448 1_555 1_555
C452 C453 1_555 1_555
C458 C459 1_555 1_555
C464 C465 1_555 1_555
C466 C470 1_555 1_555
C474 C475 1_555 1_555
C480 C481 1_555 1_555
C486 C494 1_555 1_555
C487 C491 1_555 1_555
C489 C490 1_555 1_555
C496 C497 1_555 1_555
C499 C517 1_555 1_555

#END
