# generated using pymatgen
data_Pd8C534S19(N4O9)8
_symmetry_space_group_name_H-M   'P 1'
_cell_length_a   26.59000000
_cell_length_b   26.73500000
_cell_length_c   40.14200000
_cell_angle_alpha   87.67600000
_cell_angle_beta   79.04600000
_cell_angle_gamma   85.47600000
_symmetry_Int_Tables_number   1
_chemical_formula_structural   Pd8C534S19(N4O9)8
_chemical_formula_sum   'Pd16 C1068 S38 N64 O144'
_cell_volume   27919.54617238
_cell_formula_units_Z   2
loop_
 _symmetry_equiv_pos_site_id
 _symmetry_equiv_pos_as_xyz
  1  'x, y, z'
loop_
 _atom_site_type_symbol
 _atom_site_label
 _atom_site_symmetry_multiplicity
 _atom_site_fract_x
 _atom_site_fract_y
 _atom_site_fract_z
 _atom_site_occupancy
  Pd  Pd1  1  0.582040  0.229630  0.066170  1
  Pd  Pd2  1  0.417960  0.770370  0.933830  1
  Pd  Pd3  1  0.596970  0.168160  0.457490  1
  Pd  Pd4  1  0.403030  0.831840  0.542510  1
  Pd  Pd5  1  0.563800  0.666740  0.238580  1
  Pd  Pd6  1  0.436200  0.333260  0.761420  1
  Pd  Pd7  1  0.072430  0.046970  0.329540  1
  Pd  Pd8  1  0.927570  0.953030  0.670460  1
  Pd  Pd9  1  0.876400  0.347450  0.043240  1
  Pd  Pd10  1  0.123600  0.652550  0.956760  1
  Pd  Pd11  1  0.904410  0.889220  0.221270  1
  Pd  Pd12  1  0.095590  0.110780  0.778730  1
  Pd  Pd13  1  0.371590  0.480350  0.202320  1
  Pd  Pd14  1  0.628410  0.519650  0.797680  1
  Pd  Pd15  1  0.829290  0.354100  0.440540  1
  Pd  Pd16  1  0.170710  0.645900  0.559460  1
  C  C17  1  0.571100  0.339300  0.077700  1
  C  C18  1  0.428900  0.660700  0.922300  1
  C  C19  1  0.566700  0.381700  0.096300  1
  C  C20  1  0.433300  0.618300  0.903700  1
  C  C21  1  0.558400  0.379500  0.130900  1
  C  C22  1  0.441600  0.620500  0.869100  1
  C  C23  1  0.553200  0.332500  0.149100  1
  C  C24  1  0.446800  0.667500  0.850900  1
  C  C25  1  0.558100  0.289700  0.129100  1
  C  C26  1  0.441900  0.710300  0.870900  1
  C  C27  1  0.547100  0.326200  0.184000  1
  C  C28  1  0.452900  0.673800  0.816000  1
  C  C29  1  0.565800  0.361000  0.203900  1
  C  C30  1  0.434200  0.639000  0.796100  1
  C  C31  1  0.563000  0.356500  0.237200  1
  C  C32  1  0.437000  0.643500  0.762800  1
  C  C33  1  0.539200  0.316300  0.257500  1
  C  C34  1  0.460800  0.683700  0.742500  1
  C  C35  1  0.518700  0.279700  0.236800  1
  C  C36  1  0.481300  0.720300  0.763200  1
  C  C37  1  0.521200  0.286900  0.202900  1
  C  C38  1  0.478800  0.713100  0.797100  1
  C  C39  1  0.536200  0.307000  0.293300  1
  C  C40  1  0.463800  0.693000  0.706700  1
  C  C41  1  0.539900  0.351300  0.311500  1
  C  C42  1  0.460100  0.648700  0.688500  1
  C  C43  1  0.538800  0.344100  0.345200  1
  C  C44  1  0.461200  0.655900  0.654800  1
  C  C45  1  0.533400  0.298000  0.363200  1
  C  C46  1  0.466600  0.702000  0.636800  1
  C  C47  1  0.528100  0.254600  0.344400  1
  C  C48  1  0.471900  0.745400  0.655600  1
  C  C49  1  0.530800  0.262000  0.311000  1
  C  C50  1  0.469200  0.738000  0.689000  1
  C  C51  1  0.538800  0.287700  0.400500  1
  C  C52  1  0.461200  0.712300  0.599500  1
  C  C53  1  0.522200  0.331800  0.425300  1
  C  C54  1  0.477800  0.668200  0.574700  1
  C  C55  1  0.529600  0.318200  0.454700  1
  C  C56  1  0.470400  0.681800  0.545300  1
  C  C57  1  0.551800  0.273900  0.467900  1
  C  C58  1  0.448200  0.726100  0.532100  1
  C  C59  1  0.558800  0.244300  0.412300  1
  C  C60  1  0.441200  0.755700  0.587700  1
  C  C61  1  0.501600  0.253500  0.025800  1
  C  C62  1  0.498400  0.746500  0.974200  1
  C  C63  1  0.453900  0.260700  0.019400  1
  C  C64  1  0.546100  0.739300  0.980600  1
  C  C65  1  0.410100  0.250600  0.044700  1
  C  C66  1  0.589900  0.749400  0.955300  1
  C  C67  1  0.421700  0.227000  0.073600  1
  C  C68  1  0.578300  0.773000  0.926400  1
  C  C69  1  0.469900  0.223700  0.081200  1
  C  C70  1  0.530100  0.776300  0.918800  1
  C  C71  1  0.379700  0.205700  0.135300  1
  C  C72  1  0.620300  0.794300  0.864700  1
  C  C73  1  0.339600  0.195800  0.161400  1
  C  C74  1  0.660400  0.804200  0.838600  1
  C  C75  1  0.295000  0.193000  0.151900  1
  C  C76  1  0.705000  0.807000  0.848100  1
  C  C77  1  0.246100  0.182700  0.180500  1
  C  C78  1  0.753900  0.817300  0.819500  1
  C  C79  1  0.251000  0.157300  0.210100  1
  C  C80  1  0.749000  0.842700  0.789900  1
  C  C81  1  0.208900  0.151900  0.234600  1
  C  C82  1  0.791100  0.848100  0.765400  1
  C  C83  1  0.159700  0.172900  0.230800  1
  C  C84  1  0.840300  0.827100  0.769200  1
  C  C85  1  0.154000  0.198300  0.202600  1
  C  C86  1  0.846000  0.801700  0.797400  1
  C  C87  1  0.195800  0.201900  0.172900  1
  C  C88  1  0.804200  0.798100  0.827100  1
  C  C89  1  0.113500  0.161800  0.257500  1
  C  C90  1  0.886500  0.838200  0.742500  1
  C  C91  1  0.071600  0.196700  0.259300  1
  C  C92  1  0.928400  0.803300  0.740700  1
  C  C93  1  0.028100  0.185400  0.286100  1
  C  C94  1  0.971900  0.814600  0.713900  1
  C  C95  1  0.025800  0.144700  0.305300  1
  C  C96  1  0.974200  0.855300  0.694700  1
  C  C97  1  0.113100  0.120300  0.277500  1
  C  C98  1  0.886900  0.879700  0.722500  1
  C  C99  1  0.602900  0.168500  0.005200  1
  C  C100  1  0.397100  0.831500  0.994800  1
  C  C101  1  0.608100  0.124300  0.983900  1
  C  C102  1  0.391900  0.875700  0.016100  1
  C  C103  1  0.612500  0.078500  0.004000  1
  C  C104  1  0.387500  0.921500  0.996000  1
  C  C105  1  0.616300  0.078900  0.039000  1
  C  C106  1  0.383700  0.921100  0.961000  1
  C  C107  1  0.603900  0.120400  0.055800  1
  C  C108  1  0.396100  0.879600  0.944200  1
  C  C109  1  0.622500  0.027800  0.054500  1
  C  C110  1  0.377500  0.972200  0.945500  1
  C  C111  1  0.656300  0.990300  0.040000  1
  C  C112  1  0.343700  0.009700  0.960000  1
  C  C113  1  0.663000  0.943800  0.058800  1
  C  C114  1  0.337000  0.056200  0.941200  1
  C  C115  1  0.637800  0.937000  0.089600  1
  C  C116  1  0.362200  0.063000  0.910400  1
  C  C117  1  0.604700  0.974700  0.107100  1
  C  C118  1  0.395300  0.025300  0.892900  1
  C  C119  1  0.597800  0.021700  0.087700  1
  C  C120  1  0.402200  0.978300  0.912300  1
  C  C121  1  0.642400  0.886000  0.108500  1
  C  C122  1  0.357600  0.114000  0.891500  1
  C  C123  1  0.679400  0.857400  0.098300  1
  C  C124  1  0.320600  0.142600  0.901700  1
  C  C125  1  0.644200  0.787400  0.136500  1
  C  C126  1  0.355800  0.212600  0.863500  1
  C  C127  1  0.607300  0.819000  0.147000  1
  C  C128  1  0.392700  0.181000  0.853000  1
  C  C129  1  0.600300  0.876300  0.131700  1
  C  C130  1  0.399700  0.123700  0.868300  1
  C  C131  1  0.642300  0.737700  0.150800  1
  C  C132  1  0.357700  0.262300  0.849200  1
  C  C133  1  0.670100  0.699300  0.130800  1
  C  C134  1  0.329900  0.300700  0.869200  1
  C  C135  1  0.671400  0.648400  0.145800  1
  C  C136  1  0.328600  0.351600  0.854200  1
  C  C137  1  0.641400  0.640300  0.178700  1
  C  C138  1  0.358600  0.359700  0.821300  1
  C  C139  1  0.612800  0.729000  0.180700  1
  C  C140  1  0.387200  0.271000  0.819300  1
  C  C141  1  0.696400  0.229000  0.049800  1
  C  C142  1  0.303600  0.771000  0.950200  1
  C  C143  1  0.743800  0.224600  0.064100  1
  C  C144  1  0.256200  0.775400  0.935900  1
  C  C145  1  0.750900  0.220400  0.095200  1
  C  C146  1  0.249100  0.779600  0.904800  1
  C  C147  1  0.705900  0.216500  0.119600  1
  C  C148  1  0.294100  0.783500  0.880400  1
  C  C149  1  0.660700  0.216700  0.109500  1
  C  C150  1  0.339300  0.783300  0.890500  1
  C  C151  1  0.709000  0.212600  0.154500  1
  C  C152  1  0.291000  0.787400  0.845500  1
  C  C153  1  0.748400  0.181800  0.167600  1
  C  C154  1  0.251600  0.818200  0.832400  1
  C  C155  1  0.748700  0.181400  0.202800  1
  C  C156  1  0.251300  0.818600  0.797200  1
  C  C157  1  0.711800  0.205400  0.227300  1
  C  C158  1  0.288200  0.794600  0.772700  1
  C  C159  1  0.675900  0.232900  0.213500  1
  C  C160  1  0.324100  0.767100  0.786500  1
  C  C161  1  0.671300  0.236700  0.179300  1
  C  C162  1  0.328700  0.763300  0.820700  1
  C  C163  1  0.714100  0.202700  0.259900  1
  C  C164  1  0.285900  0.797300  0.740100  1
  C  C165  1  0.754800  0.179100  0.274900  1
  C  C166  1  0.245200  0.820900  0.725100  1
  C  C167  1  0.757000  0.174100  0.308300  1
  C  C168  1  0.243000  0.825900  0.691700  1
  C  C169  1  0.716500  0.194900  0.333100  1
  C  C170  1  0.283500  0.805100  0.666900  1
  C  C171  1  0.672200  0.217800  0.320000  1
  C  C172  1  0.327800  0.782200  0.680000  1
  C  C173  1  0.672200  0.222400  0.286700  1
  C  C174  1  0.327800  0.777600  0.713300  1
  C  C175  1  0.714300  0.190700  0.368500  1
  C  C176  1  0.285700  0.809300  0.631500  1
  C  C177  1  0.757200  0.197700  0.385100  1
  C  C178  1  0.242800  0.802300  0.614900  1
  C  C179  1  0.753200  0.196900  0.419400  1
  C  C180  1  0.246800  0.803100  0.580600  1
  C  C181  1  0.706800  0.190100  0.441400  1
  C  C182  1  0.293200  0.809900  0.558600  1
  C  C183  1  0.671100  0.181200  0.392400  1
  C  C184  1  0.328900  0.818800  0.607600  1
  C  C185  1  0.646500  0.093500  0.495600  1
  C  C186  1  0.353500  0.906500  0.504400  1
  C  C187  1  0.673300  0.048900  0.501900  1
  C  C188  1  0.326700  0.951100  0.498100  1
  C  C189  1  0.671700  0.006500  0.481900  1
  C  C190  1  0.328300  0.993500  0.518100  1
  C  C191  1  0.647700  0.017200  0.452200  1
  C  C192  1  0.352300  0.982800  0.547800  1
  C  C193  1  0.625600  0.060900  0.448900  1
  C  C194  1  0.374400  0.939100  0.551100  1
  C  C195  1  0.646400  0.973700  0.428800  1
  C  C196  1  0.353600  0.026300  0.571200  1
  C  C197  1  0.685600  0.936800  0.425600  1
  C  C198  1  0.314400  0.063200  0.574400  1
  C  C199  1  0.682400  0.895900  0.402900  1
  C  C200  1  0.317600  0.104100  0.597100  1
  C  C201  1  0.642200  0.895000  0.385600  1
  C  C202  1  0.357800  0.105000  0.614400  1
  C  C203  1  0.605200  0.933500  0.388500  1
  C  C204  1  0.394800  0.066500  0.611500  1
  C  C205  1  0.604900  0.972100  0.410900  1
  C  C206  1  0.395100  0.027900  0.589100  1
  C  C207  1  0.643900  0.849700  0.364700  1
  C  C208  1  0.356100  0.150300  0.635300  1
  C  C209  1  0.658400  0.803600  0.377400  1
  C  C210  1  0.341600  0.196400  0.622600  1
  C  C211  1  0.662900  0.760800  0.355400  1
  C  C212  1  0.337100  0.239200  0.644600  1
  C  C213  1  0.650900  0.767000  0.322800  1
  C  C214  1  0.349100  0.233000  0.677200  1
  C  C215  1  0.633100  0.814600  0.311200  1
  C  C216  1  0.366900  0.185400  0.688800  1
  C  C217  1  0.630200  0.857000  0.332100  1
  C  C218  1  0.369800  0.143000  0.667900  1
  C  C219  1  0.652700  0.721800  0.304200  1
  C  C220  1  0.347300  0.278200  0.695800  1
  C  C221  1  0.693800  0.681300  0.303000  1
  C  C222  1  0.306200  0.318700  0.697000  1
  C  C223  1  0.693700  0.637100  0.285400  1
  C  C224  1  0.306300  0.362900  0.714600  1
  C  C225  1  0.658500  0.634400  0.264900  1
  C  C226  1  0.341500  0.365600  0.735100  1
  C  C227  1  0.619000  0.716300  0.282900  1
  C  C228  1  0.381000  0.283700  0.717100  1
  C  C229  1  0.533600  0.156200  0.522100  1
  C  C230  1  0.466400  0.843800  0.477900  1
  C  C231  1  0.488000  0.145300  0.546200  1
  C  C232  1  0.512000  0.854700  0.453800  1
  C  C233  1  0.439700  0.142200  0.535300  1
  C  C234  1  0.560300  0.857800  0.464700  1
  C  C235  1  0.443500  0.146300  0.500400  1
  C  C236  1  0.556500  0.853700  0.499600  1
  C  C237  1  0.487600  0.153100  0.475300  1
  C  C238  1  0.512400  0.846900  0.524700  1
  C  C239  1  0.393100  0.137300  0.487600  1
  C  C240  1  0.606900  0.862700  0.512400  1
  C  C241  1  0.346700  0.150800  0.509300  1
  C  C242  1  0.653300  0.849200  0.490700  1
  C  C243  1  0.299300  0.141600  0.495600  1
  C  C244  1  0.700700  0.858400  0.504400  1
  C  C245  1  0.304000  0.128300  0.463900  1
  C  C246  1  0.696000  0.871700  0.536100  1
  C  C247  1  0.348700  0.110100  0.442900  1
  C  C248  1  0.651300  0.889900  0.557100  1
  C  C249  1  0.396500  0.115000  0.454100  1
  C  C250  1  0.603500  0.885000  0.545900  1
  C  C251  1  0.253600  0.123400  0.451600  1
  C  C252  1  0.746400  0.876600  0.548400  1
  C  C253  1  0.206500  0.112700  0.475200  1
  C  C254  1  0.793500  0.887300  0.524800  1
  C  C255  1  0.158800  0.108000  0.462500  1
  C  C256  1  0.841200  0.892000  0.537500  1
  C  C257  1  0.161100  0.118200  0.429100  1
  C  C258  1  0.838900  0.881800  0.570900  1
  C  C259  1  0.203600  0.125500  0.402200  1
  C  C260  1  0.796400  0.874500  0.597800  1
  C  C261  1  0.253100  0.130600  0.414600  1
  C  C262  1  0.746900  0.869400  0.585400  1
  C  C263  1  0.110700  0.111100  0.416600  1
  C  C264  1  0.889300  0.888900  0.583400  1
  C  C265  1  0.064800  0.122800  0.438200  1
  C  C266  1  0.935200  0.877200  0.561800  1
  C  C267  1  0.018900  0.116700  0.423600  1
  C  C268  1  0.981100  0.883300  0.576400  1
  C  C269  1  0.020800  0.097500  0.390300  1
  C  C270  1  0.979200  0.902500  0.609700  1
  C  C271  1  0.114100  0.089800  0.384000  1
  C  C272  1  0.885900  0.910200  0.616000  1
  C  C273  1  0.029500  0.969900  0.376800  1
  C  C274  1  0.970500  0.030100  0.623200  1
  C  C275  1  0.026600  0.926300  0.394000  1
  C  C276  1  0.973400  0.073700  0.606000  1
  C  C277  1  0.073700  0.892600  0.393300  1
  C  C278  1  0.926300  0.107400  0.606700  1
  C  C279  1  0.123400  0.908300  0.371900  1
  C  C280  1  0.876600  0.091700  0.628100  1
  C  C281  1  0.119300  0.952600  0.356100  1
  C  C282  1  0.880700  0.047400  0.643900  1
  C  C283  1  0.170700  0.878100  0.367300  1
  C  C284  1  0.829300  0.121900  0.632700  1
  C  C285  1  0.177000  0.838300  0.388600  1
  C  C286  1  0.823000  0.161700  0.611400  1
  C  C287  1  0.222000  0.809100  0.387000  1
  C  C288  1  0.778000  0.190900  0.613000  1
  C  C289  1  0.262800  0.811600  0.356700  1
  C  C290  1  0.737200  0.188400  0.643300  1
  C  C291  1  0.251700  0.849700  0.333200  1
  C  C292  1  0.748300  0.150300  0.666800  1
  C  C293  1  0.206300  0.883700  0.339600  1
  C  C294  1  0.793700  0.116300  0.660400  1
  C  C295  1  0.309900  0.777200  0.350400  1
  C  C296  1  0.690100  0.222800  0.649600  1
  C  C297  1  0.313100  0.734600  0.367000  1
  C  C298  1  0.686900  0.265400  0.633000  1
  C  C299  1  0.356700  0.698000  0.359600  1
  C  C300  1  0.643300  0.302000  0.640400  1
  C  C301  1  0.397400  0.713800  0.335600  1
  C  C302  1  0.602600  0.286200  0.664400  1
  C  C303  1  0.397900  0.762000  0.322300  1
  C  C304  1  0.602100  0.238000  0.677700  1
  C  C305  1  0.351700  0.795900  0.329200  1
  C  C306  1  0.648300  0.204100  0.670800  1
  C  C307  1  0.445800  0.678100  0.325700  1
  C  C308  1  0.554200  0.321900  0.674300  1
  C  C309  1  0.453500  0.639200  0.347500  1
  C  C310  1  0.546500  0.360800  0.652500  1
  C  C311  1  0.499000  0.603700  0.335200  1
  C  C312  1  0.501000  0.396300  0.664800  1
  C  C313  1  0.529300  0.616300  0.303500  1
  C  C314  1  0.470700  0.383700  0.696500  1
  C  C315  1  0.475600  0.686500  0.295500  1
  C  C316  1  0.524400  0.313500  0.704500  1
  C  C317  1  0.037000  0.012200  0.266700  1
  C  C318  1  0.963000  0.987800  0.733300  1
  C  C319  1  0.041200  0.989000  0.237900  1
  C  C320  1  0.958800  0.011000  0.762100  1
  C  C321  1  0.082300  0.954400  0.225700  1
  C  C322  1  0.917700  0.045600  0.774300  1
  C  C323  1  0.122200  0.948500  0.245800  1
  C  C324  1  0.877800  0.051500  0.754200  1
  C  C325  1  0.118600  0.975200  0.275100  1
  C  C326  1  0.881400  0.024800  0.724900  1
  C  C327  1  0.167000  0.911200  0.235800  1
  C  C328  1  0.833000  0.088800  0.764200  1
  C  C329  1  0.163900  0.867600  0.219200  1
  C  C330  1  0.836100  0.132400  0.780800  1
  C  C331  1  0.205200  0.831300  0.212000  1
  C  C332  1  0.794800  0.168700  0.788000  1
  C  C333  1  0.251700  0.842400  0.222900  1
  C  C334  1  0.748300  0.157600  0.777100  1
  C  C335  1  0.255900  0.888200  0.238400  1
  C  C336  1  0.744100  0.111800  0.761600  1
  C  C337  1  0.214100  0.919800  0.246400  1
  C  C338  1  0.785900  0.080200  0.753600  1
  C  C339  1  0.297600  0.806700  0.214600  1
  C  C340  1  0.702400  0.193300  0.785400  1
  C  C341  1  0.327300  0.795100  0.240800  1
  C  C342  1  0.672700  0.204900  0.759200  1
  C  C343  1  0.379000  0.759300  0.231600  1
  C  C344  1  0.621000  0.240700  0.768400  1
  C  C345  1  0.383600  0.732700  0.203700  1
  C  C346  1  0.616400  0.267300  0.796300  1
  C  C347  1  0.305200  0.770200  0.193300  1
  C  C348  1  0.694800  0.229800  0.806700  1
  C  C349  1  0.427100  0.692800  0.198000  1
  C  C350  1  0.572900  0.307200  0.802000  1
  C  C351  1  0.426700  0.650900  0.177700  1
  C  C352  1  0.573300  0.349100  0.822300  1
  C  C353  1  0.470600  0.616300  0.174400  1
  C  C354  1  0.529400  0.383700  0.825600  1
  C  C355  1  0.508700  0.619400  0.192800  1
  C  C356  1  0.491300  0.380600  0.807200  1
  C  C357  1  0.467600  0.699400  0.215700  1
  C  C358  1  0.532400  0.300600  0.784300  1
  C  C359  1  0.348900  0.735100  0.185700  1
  C  C360  1  0.651100  0.264900  0.814300  1
  C  C361  1  0.376100  0.214100  0.102400  1
  C  C362  1  0.623900  0.785900  0.897600  1
  C  C363  1  0.333100  0.199000  0.092200  1
  C  C364  1  0.666900  0.801000  0.907800  1
  C  C365  1  0.284200  0.189000  0.119600  1
  C  C366  1  0.715800  0.811000  0.880400  1
  C  C367  1  0.680000  0.801000  0.114400  1
  C  C368  1  0.320000  0.199000  0.885600  1
  C  C369  1  0.621300  0.514100  0.109600  1
  C  C370  1  0.378700  0.485900  0.890400  1
  C  C371  1  0.663200  0.504100  0.082700  1
  C  C372  1  0.336800  0.495900  0.917300  1
  C  C373  1  0.713800  0.498400  0.090900  1
  C  C374  1  0.286200  0.501600  0.909100  1
  C  C375  1  0.721800  0.499900  0.124000  1
  C  C376  1  0.278200  0.500100  0.876000  1
  C  C377  1  0.680600  0.510000  0.151300  1
  C  C378  1  0.319400  0.490000  0.848700  1
  C  C379  1  0.630000  0.517300  0.142800  1
  C  C380  1  0.370000  0.482700  0.857200  1
  C  C381  1  0.777200  0.492400  0.131800  1
  C  C382  1  0.222800  0.507600  0.868200  1
  C  C383  1  0.834300  0.049800  0.182000  1
  C  C384  1  0.165700  0.950200  0.818000  1
  C  C385  1  0.856300  0.064800  0.148800  1
  C  C386  1  0.143700  0.935200  0.851200  1
  C  C387  1  0.823800  0.073000  0.124000  1
  C  C388  1  0.176200  0.927000  0.876000  1
  C  C389  1  0.772200  0.062000  0.131100  1
  C  C390  1  0.227800  0.938000  0.868900  1
  C  C391  1  0.748100  0.049300  0.164500  1
  C  C392  1  0.251900  0.950700  0.835500  1
  C  C393  1  0.779800  0.048000  0.190200  1
  C  C394  1  0.220200  0.952000  0.809800  1
  C  C395  1  0.737300  0.065000  0.104200  1
  C  C396  1  0.262700  0.935000  0.895800  1
  C  C397  1  0.165700  0.455700  0.229700  1
  C  C398  1  0.834300  0.544300  0.770300  1
  C  C399  1  0.119800  0.473400  0.250800  1
  C  C400  1  0.880200  0.526600  0.749200  1
  C  C401  1  0.083500  0.438400  0.266400  1
  C  C402  1  0.916500  0.561600  0.733600  1
  C  C403  1  0.092400  0.387400  0.260600  1
  C  C404  1  0.907600  0.612600  0.739400  1
  C  C405  1  0.138700  0.368100  0.240800  1
  C  C406  1  0.861300  0.631900  0.759200  1
  C  C407  1  0.175400  0.403600  0.225200  1
  C  C408  1  0.824600  0.596400  0.774800  1
  C  C409  1  0.053500  0.348500  0.277100  1
  C  C410  1  0.946500  0.651500  0.722900  1
  C  C411  1  0.590600  0.292900  0.945400  1
  C  C412  1  0.409400  0.707100  0.054600  1
  C  C413  1  0.550500  0.329700  0.943700  1
  C  C414  1  0.449500  0.670300  0.056300  1
  C  C415  1  0.511900  0.321900  0.924100  1
  C  C416  1  0.488100  0.678100  0.075900  1
  C  C417  1  0.519400  0.281500  0.902500  1
  C  C418  1  0.480600  0.718500  0.097500  1
  C  C419  1  0.557200  0.243000  0.904600  1
  C  C420  1  0.442800  0.757000  0.095400  1
  C  C421  1  0.597400  0.251500  0.923400  1
  C  C422  1  0.402600  0.748500  0.076600  1
  C  C423  1  0.478900  0.271800  0.880100  1
  C  C424  1  0.521100  0.728200  0.119900  1
  C  C425  1  0.514100  0.081800  0.351600  1
  C  C426  1  0.485900  0.918200  0.648400  1
  C  C427  1  0.539500  0.034900  0.342600  1
  C  C428  1  0.460500  0.965100  0.657400  1
  C  C429  1  0.530800  0.013800  0.311700  1
  C  C430  1  0.469200  0.986200  0.688300  1
  C  C431  1  0.489500  0.032100  0.296700  1
  C  C432  1  0.510500  0.967900  0.703300  1
  C  C433  1  0.464000  0.079300  0.305700  1
  C  C434  1  0.536000  0.920700  0.694300  1
  C  C435  1  0.474400  0.102500  0.335400  1
  C  C436  1  0.525600  0.897500  0.664600  1
  C  C437  1  0.478600  0.011000  0.263100  1
  C  C438  1  0.521400  0.989000  0.736900  1
  C  C439  1  0.616300  0.494800  0.277000  1
  C  C440  1  0.383700  0.505200  0.723000  1
  C  C441  1  0.669100  0.502800  0.268100  1
  C  C442  1  0.330900  0.497200  0.731900  1
  C  C443  1  0.700600  0.491000  0.293100  1
  C  C444  1  0.299400  0.509000  0.706900  1
  C  C445  1  0.678300  0.480000  0.326500  1
  C  C446  1  0.321700  0.520000  0.673500  1
  C  C447  1  0.624600  0.480000  0.337100  1
  C  C448  1  0.375400  0.520000  0.662900  1
  C  C449  1  0.594100  0.483000  0.310600  1
  C  C450  1  0.405900  0.517000  0.689400  1
  C  C451  1  0.710800  0.476000  0.355100  1
  C  C452  1  0.289200  0.524000  0.644900  1
  C  C453  1  0.843300  0.053500  0.353300  1
  C  C454  1  0.156700  0.946500  0.646700  1
  C  C455  1  0.803200  0.059200  0.381300  1
  C  C456  1  0.196800  0.940800  0.618700  1
  C  C457  1  0.751800  0.055900  0.375300  1
  C  C458  1  0.248200  0.944100  0.624700  1
  C  C459  1  0.745100  0.045300  0.343200  1
  C  C460  1  0.254900  0.954700  0.656800  1
  C  C461  1  0.785100  0.041600  0.314600  1
  C  C462  1  0.214900  0.958400  0.685400  1
  C  C463  1  0.836700  0.044500  0.320600  1
  C  C464  1  0.163300  0.955500  0.679400  1
  C  C465  1  0.690600  0.037800  0.336300  1
  C  C466  1  0.309400  0.962200  0.663700  1
  C  C467  1  0.287400  0.071100  0.289300  1
  C  C468  1  0.712600  0.928900  0.710700  1
  C  C469  1  0.301300  0.112300  0.304300  1
  C  C470  1  0.698700  0.887700  0.695700  1
  C  C471  1  0.344700  0.137600  0.285800  1
  C  C472  1  0.655300  0.862400  0.714200  1
  C  C473  1  0.370300  0.121000  0.254200  1
  C  C474  1  0.629700  0.879000  0.745800  1
  C  C475  1  0.359500  0.076700  0.239800  1
  C  C476  1  0.640500  0.923300  0.760200  1
  C  C477  1  0.315900  0.052000  0.258400  1
  C  C478  1  0.684100  0.948000  0.741600  1
  C  C479  1  0.418100  0.146000  0.233400  1
  C  C480  1  0.581900  0.854000  0.766600  1
  C  C481  1  0.899200  0.418400  0.170800  1
  C  C482  1  0.100800  0.581600  0.829200  1
  C  C483  1  0.847000  0.417400  0.184100  1
  C  C484  1  0.153000  0.582600  0.815900  1
  C  C485  1  0.829500  0.421100  0.218800  1
  C  C486  1  0.170500  0.578900  0.781200  1
  C  C487  1  0.864100  0.425900  0.240300  1
  C  C488  1  0.135900  0.574100  0.759700  1
  C  C489  1  0.916200  0.426900  0.227000  1
  C  C490  1  0.083800  0.573100  0.773000  1
  C  C491  1  0.933800  0.423100  0.192200  1
  C  C492  1  0.066200  0.576900  0.807800  1
  C  C493  1  0.844000  0.424000  0.279600  1
  C  C494  1  0.156000  0.576000  0.720400  1
  C  C495  1  0.605500  0.241300  0.564500  1
  C  C496  1  0.394500  0.758700  0.435500  1
  C  C497  1  0.601800  0.199800  0.586300  1
  C  C498  1  0.398200  0.800200  0.413700  1
  C  C499  1  0.556700  0.200300  0.612400  1
  C  C500  1  0.443300  0.799700  0.387600  1
  C  C501  1  0.519200  0.240000  0.614700  1
  C  C502  1  0.480800  0.760000  0.385300  1
  C  C503  1  0.523700  0.282800  0.593000  1
  C  C504  1  0.476300  0.717200  0.407000  1
  C  C505  1  0.569200  0.282700  0.566800  1
  C  C506  1  0.430800  0.717300  0.433200  1
  C  C507  1  0.472100  0.242200  0.644300  1
  C  C508  1  0.527900  0.757800  0.355700  1
  C  C509  1  0.475000  0.861500  0.270400  1
  C  C510  1  0.525000  0.138500  0.729600  1
  C  C511  1  0.430300  0.880600  0.259900  1
  C  C512  1  0.569700  0.119400  0.740100  1
  C  C513  1  0.392000  0.910500  0.282200  1
  C  C514  1  0.608000  0.089500  0.717800  1
  C  C515  1  0.401400  0.924000  0.313500  1
  C  C516  1  0.598600  0.076000  0.686500  1
  C  C517  1  0.448000  0.908200  0.323600  1
  C  C518  1  0.552000  0.091800  0.676400  1
  C  C519  1  0.485900  0.876600  0.301600  1
  C  C520  1  0.514100  0.123400  0.698400  1
  C  C521  1  0.361300  0.957100  0.338600  1
  C  C522  1  0.638700  0.042900  0.661400  1
  C  C523  1  0.555500  0.132800  0.188700  1
  C  C524  1  0.444500  0.867200  0.811300  1
  C  C525  1  0.605900  0.110900  0.181900  1
  C  C526  1  0.394100  0.889100  0.818100  1
  C  C527  1  0.633100  0.102000  0.209400  1
  C  C528  1  0.366900  0.898000  0.790600  1
  C  C529  1  0.609900  0.114300  0.242300  1
  C  C530  1  0.390100  0.885700  0.757700  1
  C  C531  1  0.559600  0.137200  0.250000  1
  C  C532  1  0.440400  0.862800  0.750000  1
  C  C533  1  0.533100  0.147700  0.221700  1
  C  C534  1  0.466900  0.852300  0.778300  1
  C  C535  1  0.635000  0.096300  0.273400  1
  C  C536  1  0.365000  0.903700  0.726600  1
  C  C537  1  0.988300  0.689700  0.233600  1
  C  C538  1  0.011700  0.310300  0.766400  1
  C  C539  1  0.031300  0.665400  0.213400  1
  C  C540  1  0.968700  0.334600  0.786600  1
  C  C541  1  0.063500  0.631700  0.230800  1
  C  C542  1  0.936500  0.368300  0.769200  1
  C  C543  1  0.051700  0.625800  0.266100  1
  C  C544  1  0.948300  0.374200  0.733900  1
  C  C545  1  0.005400  0.646000  0.286000  1
  C  C546  1  0.994600  0.354000  0.714000  1
  C  C547  1  0.971600  0.677100  0.268500  1
  C  C548  1  0.028400  0.322900  0.731500  1
  C  C549  1  0.088100  0.594800  0.287200  1
  C  C550  1  0.911900  0.405200  0.712800  1
  C  C551  1  0.850500  0.251000  0.521000  1
  C  C552  1  0.149500  0.749000  0.479000  1
  C  C553  1  0.895100  0.275400  0.507300  1
  C  C554  1  0.104900  0.724600  0.492700  1
  C  C555  1  0.945300  0.250000  0.504100  1
  C  C556  1  0.054700  0.750000  0.495900  1
  C  C557  1  0.951800  0.199000  0.514100  1
  C  C558  1  0.048200  0.801000  0.485900  1
  C  C559  1  0.908100  0.173700  0.527400  1
  C  C560  1  0.091900  0.826300  0.472600  1
  C  C561  1  0.857800  0.199800  0.529900  1
  C  C562  1  0.142200  0.800200  0.470100  1
  C  C563  1  0.004000  0.176000  0.522000  1
  C  C564  1  0.996000  0.824000  0.478000  1
  C  C565  1  0.799100  0.224100  0.970600  1
  C  C566  1  0.200900  0.775900  0.029400  1
  C  C567  1  0.755500  0.206500  0.961400  1
  C  C568  1  0.244500  0.793500  0.038600  1
  C  C569  1  0.745000  0.154900  0.970300  1
  C  C570  1  0.255000  0.845100  0.029700  1
  C  C571  1  0.775000  0.122900  0.988400  1
  C  C572  1  0.225000  0.877100  0.011600  1
  C  C573  1  0.820700  0.137700  0.997100  1
  C  C574  1  0.179300  0.862300  0.002900  1
  C  C575  1  0.828200  0.190300  0.989900  1
  C  C576  1  0.171800  0.809700  0.010100  1
  C  C577  1  0.761600  0.067500  0.995500  1
  C  C578  1  0.238400  0.932500  0.004500  1
  C  C579  1  0.124100  0.749100  0.165300  1
  C  C580  1  0.875900  0.250900  0.834700  1
  C  C581  1  0.883900  0.237900  0.048900  1
  C  C582  1  0.116100  0.762100  0.951100  1
  C  C583  1  0.759000  0.592000  0.435500  1
  C  C584  1  0.241000  0.408000  0.564500  1
  C  C585  1  0.888300  0.191200  0.066300  1
  C  C586  1  0.111700  0.808800  0.933700  1
  C  C587  1  0.813900  0.592900  0.376100  1
  C  C588  1  0.186100  0.407100  0.623900  1
  C  C589  1  0.895000  0.190000  0.099800  1
  C  C590  1  0.105000  0.810000  0.900200  1
  C  C591  1  0.900700  0.235300  0.117100  1
  C  C592  1  0.099300  0.764700  0.882900  1
  C  C593  1  0.895500  0.278000  0.096500  1
  C  C594  1  0.104500  0.722000  0.903500  1
  C  C595  1  0.904200  0.233200  0.152000  1
  C  C596  1  0.095800  0.766800  0.848000  1
  C  C597  1  0.886600  0.196300  0.175300  1
  C  C598  1  0.113400  0.803700  0.824700  1
  C  C599  1  0.884900  0.197000  0.209100  1
  C  C600  1  0.115100  0.803000  0.790900  1
  C  C601  1  0.906200  0.235900  0.224800  1
  C  C602  1  0.093800  0.764100  0.775200  1
  C  C603  1  0.924600  0.273300  0.202300  1
  C  C604  1  0.075400  0.726700  0.797700  1
  C  C605  1  0.927000  0.270600  0.166800  1
  C  C606  1  0.073000  0.729400  0.833200  1
  C  C607  1  0.904700  0.237700  0.260100  1
  C  C608  1  0.095300  0.762300  0.739900  1
  C  C609  1  0.894500  0.192500  0.282100  1
  C  C610  1  0.105500  0.807500  0.717900  1
  C  C611  1  0.891900  0.196300  0.316700  1
  C  C612  1  0.108100  0.803700  0.683300  1
  C  C613  1  0.899200  0.241600  0.331700  1
  C  C614  1  0.100800  0.758400  0.668300  1
  C  C615  1  0.910600  0.283600  0.311100  1
  C  C616  1  0.089400  0.716400  0.688900  1
  C  C617  1  0.912500  0.282200  0.276400  1
  C  C618  1  0.087500  0.717800  0.723600  1
  C  C619  1  0.902700  0.200100  0.390300  1
  C  C620  1  0.097300  0.799900  0.609700  1
  C  C621  1  0.893600  0.205100  0.425200  1
  C  C622  1  0.106400  0.794900  0.574800  1
  C  C623  1  0.873500  0.248600  0.439300  1
  C  C624  1  0.126500  0.751400  0.560700  1
  C  C625  1  0.874500  0.285800  0.384100  1
  C  C626  1  0.125500  0.714200  0.615900  1
  C  C627  1  0.722300  0.325800  0.447800  1
  C  C628  1  0.277700  0.674200  0.552200  1
  C  C629  1  0.679000  0.314000  0.434500  1
  C  C630  1  0.321000  0.686000  0.565500  1
  C  C631  1  0.676300  0.320100  0.401600  1
  C  C632  1  0.323700  0.679900  0.598400  1
  C  C633  1  0.720200  0.333700  0.376900  1
  C  C634  1  0.279800  0.666300  0.623100  1
  C  C635  1  0.762800  0.346000  0.389700  1
  C  C636  1  0.237200  0.654000  0.610300  1
  C  C637  1  0.722300  0.334500  0.341400  1
  C  C638  1  0.277700  0.665500  0.658600  1
  C  C639  1  0.678700  0.355400  0.325700  1
  C  C640  1  0.321300  0.644600  0.674300  1
  C  C641  1  0.682100  0.357100  0.292000  1
  C  C642  1  0.317900  0.642900  0.708000  1
  C  C643  1  0.727600  0.340300  0.268600  1
  C  C644  1  0.272400  0.659700  0.731400  1
  C  C645  1  0.769200  0.322800  0.284600  1
  C  C646  1  0.230800  0.677200  0.715400  1
  C  C647  1  0.767100  0.318600  0.318600  1
  C  C648  1  0.232900  0.681400  0.681400  1
  C  C649  1  0.731400  0.346100  0.234600  1
  C  C650  1  0.268600  0.653900  0.765400  1
  C  C651  1  0.701600  0.381100  0.217400  1
  C  C652  1  0.298400  0.618900  0.782600  1
  C  C653  1  0.702800  0.383300  0.183000  1
  C  C654  1  0.297200  0.616700  0.817000  1
  C  C655  1  0.740400  0.352000  0.160600  1
  C  C656  1  0.259600  0.648000  0.839400  1
  C  C657  1  0.771200  0.319200  0.176000  1
  C  C658  1  0.228800  0.680800  0.824000  1
  C  C659  1  0.767200  0.316000  0.212600  1
  C  C660  1  0.232800  0.684000  0.787400  1
  C  C661  1  0.744800  0.356400  0.125200  1
  C  C662  1  0.255200  0.643600  0.874800  1
  C  C663  1  0.704300  0.358700  0.108500  1
  C  C664  1  0.295700  0.641300  0.891500  1
  C  C665  1  0.712200  0.358200  0.073200  1
  C  C666  1  0.287800  0.641800  0.926800  1
  C  C667  1  0.794000  0.354800  0.104300  1
  C  C668  1  0.206000  0.645200  0.895700  1
  C  C669  1  0.954300  0.325300  0.983800  1
  C  C670  1  0.045700  0.674700  0.016200  1
  C  C671  1  0.007000  0.314500  0.964800  1
  C  C672  1  0.993000  0.685500  0.035200  1
  C  C673  1  0.049800  0.325200  0.982100  1
  C  C674  1  0.950200  0.674800  0.017900  1
  C  C675  1  0.040400  0.336800  0.014700  1
  C  C676  1  0.959600  0.663200  0.985300  1
  C  C677  1  0.987700  0.345900  0.032500  1
  C  C678  1  0.012300  0.654100  0.967500  1
  C  C679  1  0.083300  0.344500  0.032500  1
  C  C680  1  0.916700  0.655500  0.967500  1
  C  C681  1  0.128600  0.315300  0.024800  1
  C  C682  1  0.871400  0.684700  0.975200  1
  C  C683  1  0.170000  0.321500  0.042200  1
  C  C684  1  0.830000  0.678500  0.957800  1
  C  C685  1  0.164600  0.356800  0.067200  1
  C  C686  1  0.835400  0.643200  0.932800  1
  C  C687  1  0.119100  0.390300  0.075000  1
  C  C688  1  0.880900  0.609700  0.925000  1
  C  C689  1  0.076500  0.382500  0.057500  1
  C  C690  1  0.923500  0.617500  0.942500  1
  C  C691  1  0.208300  0.362500  0.084300  1
  C  C692  1  0.791700  0.637500  0.915700  1
  C  C693  1  0.212700  0.402000  0.095600  1
  C  C694  1  0.787300  0.598000  0.904400  1
  C  C695  1  0.256400  0.411300  0.116100  1
  C  C696  1  0.743600  0.588700  0.883900  1
  C  C697  1  0.292200  0.373300  0.116200  1
  C  C698  1  0.707800  0.626700  0.883800  1
  C  C699  1  0.336400  0.379400  0.133600  1
  C  C700  1  0.663600  0.620600  0.866400  1
  C  C701  1  0.380000  0.347300  0.123300  1
  C  C702  1  0.620000  0.652700  0.876700  1
  C  C703  1  0.422800  0.350600  0.141700  1
  C  C704  1  0.577200  0.649400  0.858300  1
  C  C705  1  0.421700  0.390200  0.163800  1
  C  C706  1  0.578300  0.609800  0.836200  1
  C  C707  1  0.332400  0.415000  0.157500  1
  C  C708  1  0.667600  0.585000  0.842500  1
  C  C709  1  0.416400  0.410400  0.249700  1
  C  C710  1  0.583600  0.589600  0.750300  1
  C  C711  1  0.412800  0.379200  0.278300  1
  C  C712  1  0.587200  0.620800  0.721700  1
  C  C713  1  0.365100  0.376700  0.303400  1
  C  C714  1  0.634900  0.623300  0.696600  1
  C  C715  1  0.322100  0.401600  0.292600  1
  C  C716  1  0.677900  0.598400  0.707400  1
  C  C717  1  0.327500  0.428800  0.264600  1
  C  C718  1  0.672500  0.571200  0.735400  1
  C  C719  1  0.272500  0.395700  0.319200  1
  C  C720  1  0.727500  0.604300  0.680800  1
  C  C721  1  0.229800  0.397100  0.299900  1
  C  C722  1  0.770200  0.602900  0.700100  1
  C  C723  1  0.179500  0.396100  0.325500  1
  C  C724  1  0.820500  0.603900  0.674500  1
  C  C725  1  0.177400  0.392600  0.360700  1
  C  C726  1  0.822600  0.607400  0.639300  1
  C  C727  1  0.219500  0.389600  0.377200  1
  C  C728  1  0.780500  0.610400  0.622800  1
  C  C729  1  0.275100  0.390000  0.352100  1
  C  C730  1  0.724900  0.610000  0.647900  1
  C  C731  1  0.124500  0.391300  0.385000  1
  C  C732  1  0.875500  0.608700  0.615000  1
  C  C733  1  0.079700  0.411200  0.372900  1
  C  C734  1  0.920300  0.588800  0.627100  1
  C  C735  1  0.033600  0.406500  0.396200  1
  C  C736  1  0.966400  0.593500  0.603800  1
  C  C737  1  0.031500  0.385700  0.428400  1
  C  C738  1  0.968500  0.614300  0.571600  1
  C  C739  1  0.073200  0.368800  0.440400  1
  C  C740  1  0.926800  0.631200  0.559600  1
  C  C741  1  0.125800  0.370200  0.416900  1
  C  C742  1  0.874200  0.629800  0.583100  1
  C  C743  1  0.982600  0.380100  0.452000  1
  C  C744  1  0.017400  0.619900  0.548000  1
  C  C745  1  0.937100  0.370400  0.437700  1
  C  C746  1  0.062900  0.629600  0.562300  1
  C  C747  1  0.976500  0.384300  0.486900  1
  C  C748  1  0.023500  0.615700  0.513100  1
  C  C749  1  0.930700  0.375400  0.509300  1
  C  C750  1  0.069300  0.624600  0.490700  1
  C  C751  1  0.888800  0.366200  0.493800  1
  C  C752  1  0.111200  0.633800  0.506200  1
  C  C753  1  0.414700  0.548000  0.243700  1
  C  C754  1  0.585300  0.452000  0.756300  1
  C  C755  1  0.414400  0.587300  0.263500  1
  C  C756  1  0.585600  0.412700  0.736500  1
  C  C757  1  0.370300  0.623100  0.271600  1
  C  C758  1  0.629700  0.376900  0.728400  1
  C  C759  1  0.326700  0.610800  0.260500  1
  C  C760  1  0.673300  0.389200  0.739500  1
  C  C761  1  0.325100  0.569800  0.240800  1
  C  C762  1  0.674900  0.430200  0.759200  1
  C  C763  1  0.281500  0.647900  0.266000  1
  C  C764  1  0.718500  0.352100  0.734000  1
  C  C765  1  0.273700  0.681400  0.292900  1
  C  C766  1  0.726300  0.318600  0.707100  1
  C  C767  1  0.228600  0.718400  0.294900  1
  C  C768  1  0.771400  0.281600  0.705100  1
  C  C769  1  0.192000  0.717100  0.274400  1
  C  C770  1  0.808000  0.282900  0.725600  1
  C  C771  1  0.204100  0.687800  0.245600  1
  C  C772  1  0.795900  0.312200  0.754400  1
  C  C773  1  0.245500  0.650400  0.244100  1
  C  C774  1  0.754500  0.349600  0.755900  1
  C  C775  1  0.145200  0.754100  0.279300  1
  C  C776  1  0.854800  0.245900  0.720700  1
  C  C777  1  0.146500  0.797100  0.298500  1
  C  C778  1  0.853500  0.202900  0.701500  1
  C  C779  1  0.099400  0.830700  0.300000  1
  C  C780  1  0.900600  0.169300  0.700000  1
  C  C781  1  0.057800  0.821900  0.283900  1
  C  C782  1  0.942200  0.178100  0.716100  1
  C  C783  1  0.059600  0.778400  0.269300  1
  C  C784  1  0.940400  0.221600  0.730700  1
  C  C785  1  0.105600  0.741700  0.263400  1
  C  C786  1  0.894400  0.258300  0.736600  1
  C  C787  1  0.013600  0.862900  0.283500  1
  C  C788  1  0.986400  0.137100  0.716500  1
  C  C789  1  0.002000  0.893300  0.309500  1
  C  C790  1  0.998000  0.106700  0.690500  1
  C  C791  1  0.959300  0.931200  0.308400  1
  C  C792  1  0.040700  0.068800  0.691600  1
  C  C793  1  0.935300  0.931900  0.279800  1
  C  C794  1  0.064700  0.068100  0.720200  1
  C  C795  1  0.987500  0.861100  0.257200  1
  C  C796  1  0.012500  0.138900  0.742800  1
  C  C797  1  0.410500  0.524100  0.135100  1
  C  C798  1  0.589500  0.475900  0.864900  1
  C  C799  1  0.411800  0.556800  0.106800  1
  C  C800  1  0.588200  0.443200  0.893200  1
  C  C801  1  0.372100  0.592200  0.105000  1
  C  C802  1  0.627900  0.407800  0.895000  1
  C  C803  1  0.331200  0.593600  0.131700  1
  C  C804  1  0.668800  0.406400  0.868300  1
  C  C805  1  0.329800  0.562200  0.159700  1
  C  C806  1  0.670200  0.437800  0.840300  1
  C  C807  1  0.288600  0.637000  0.132900  1
  C  C808  1  0.711400  0.363000  0.867100  1
  C  C809  1  0.298400  0.683200  0.119300  1
  C  C810  1  0.701600  0.316800  0.880700  1
  C  C811  1  0.259900  0.721600  0.122300  1
  C  C812  1  0.740100  0.278400  0.877700  1
  C  C813  1  0.208500  0.714200  0.140100  1
  C  C814  1  0.791500  0.285800  0.859900  1
  C  C815  1  0.198300  0.667300  0.155400  1
  C  C816  1  0.801700  0.332700  0.844600  1
  C  C817  1  0.239900  0.625600  0.152300  1
  C  C818  1  0.760100  0.374400  0.847700  1
  C  C819  1  0.168000  0.754600  0.143200  1
  C  C820  1  0.832000  0.245400  0.856800  1
  C  C821  1  0.173200  0.798900  0.127800  1
  C  C822  1  0.826800  0.201100  0.872200  1
  C  C823  1  0.136700  0.839000  0.133800  1
  C  C824  1  0.863300  0.161000  0.866200  1
  C  C825  1  0.088300  0.833200  0.148100  1
  C  C826  1  0.911700  0.166800  0.851900  1
  C  C827  1  0.083400  0.789800  0.169900  1
  C  C828  1  0.916600  0.210200  0.830100  1
  C  C829  1  0.050500  0.874000  0.156400  1
  C  C830  1  0.949500  0.126000  0.843600  1
  C  C831  1  0.057700  0.921700  0.139900  1
  C  C832  1  0.942300  0.078300  0.860100  1
  C  C833  1  0.019400  0.961300  0.147500  1
  C  C834  1  0.980600  0.038700  0.852500  1
  C  C835  1  0.970400  0.949300  0.172700  1
  C  C836  1  0.029600  0.050700  0.827300  1
  C  C837  1  0.001600  0.864000  0.177200  1
  C  C838  1  0.998400  0.136000  0.822800  1
  C  C839  1  0.840500  0.924200  0.176300  1
  C  C840  1  0.159500  0.075800  0.823700  1
  C  C841  1  0.804700  0.917100  0.158400  1
  C  C842  1  0.195300  0.082900  0.841600  1
  C  C843  1  0.801500  0.875000  0.135900  1
  C  C844  1  0.198500  0.125000  0.864100  1
  C  C845  1  0.835300  0.828800  0.148400  1
  C  C846  1  0.164700  0.171200  0.851600  1
  C  C847  1  0.864200  0.836300  0.171100  1
  C  C848  1  0.135800  0.163700  0.828900  1
  C  C849  1  0.835300  0.781100  0.128800  1
  C  C850  1  0.164700  0.218900  0.871200  1
  C  C851  1  0.818100  0.777600  0.101000  1
  C  C852  1  0.181900  0.222400  0.899000  1
  C  C853  1  0.820900  0.730200  0.085200  1
  C  C854  1  0.179100  0.269800  0.914800  1
  C  C855  1  0.838100  0.686800  0.098000  1
  C  C856  1  0.161900  0.313200  0.902000  1
  C  C857  1  0.853300  0.692700  0.127300  1
  C  C858  1  0.146700  0.307300  0.872700  1
  C  C859  1  0.849600  0.738000  0.145800  1
  C  C860  1  0.150400  0.262000  0.854200  1
  C  C861  1  0.838400  0.641600  0.080600  1
  C  C862  1  0.161600  0.358400  0.919400  1
  C  C863  1  0.807800  0.635700  0.056400  1
  C  C864  1  0.192200  0.364300  0.943600  1
  C  C865  1  0.809900  0.592500  0.038100  1
  C  C866  1  0.190100  0.407500  0.961900  1
  C  C867  1  0.846400  0.550600  0.044200  1
  C  C868  1  0.153600  0.449400  0.955800  1
  C  C869  1  0.876400  0.555200  0.070300  1
  C  C870  1  0.123600  0.444800  0.929700  1
  C  C871  1  0.874500  0.596700  0.086600  1
  C  C872  1  0.125500  0.403300  0.913400  1
  C  C873  1  0.849300  0.504800  0.023900  1
  C  C874  1  0.150700  0.495200  0.976100  1
  C  C875  1  0.844400  0.510000  0.990400  1
  C  C876  1  0.155600  0.490000  0.009600  1
  C  C877  1  0.851100  0.464000  0.972800  1
  C  C878  1  0.148900  0.536000  0.027200  1
  C  C879  1  0.861400  0.418700  0.989800  1
  C  C880  1  0.138600  0.581300  0.010200  1
  C  C881  1  0.860600  0.455700  0.038500  1
  C  C882  1  0.139400  0.544300  0.961500  1
  C  C883  1  0.806000  0.912300  0.267100  1
  C  C884  1  0.194000  0.087700  0.732900  1
  C  C885  1  0.764200  0.905000  0.293700  1
  C  C886  1  0.235800  0.095000  0.706300  1
  C  C887  1  0.765900  0.860000  0.315200  1
  C  C888  1  0.234100  0.140000  0.684800  1
  C  C889  1  0.809300  0.822800  0.303700  1
  C  C890  1  0.190700  0.177200  0.696300  1
  C  C891  1  0.846800  0.831300  0.276500  1
  C  C892  1  0.153200  0.168700  0.723500  1
  C  C893  1  0.807300  0.774200  0.326600  1
  C  C894  1  0.192700  0.225800  0.673400  1
  C  C895  1  0.788500  0.775600  0.359700  1
  C  C896  1  0.211500  0.224400  0.640300  1
  C  C897  1  0.785700  0.729200  0.381300  1
  C  C898  1  0.214300  0.270800  0.618700  1
  C  C899  1  0.802100  0.685700  0.362400  1
  C  C900  1  0.197900  0.314300  0.637600  1
  C  C901  1  0.820100  0.683300  0.328800  1
  C  C902  1  0.179900  0.316700  0.671200  1
  C  C903  1  0.824200  0.728700  0.308500  1
  C  C904  1  0.175800  0.271300  0.691500  1
  C  C905  1  0.797800  0.641000  0.385000  1
  C  C906  1  0.202200  0.359000  0.615000  1
  C  C907  1  0.766000  0.643000  0.413000  1
  C  C908  1  0.234000  0.357000  0.587000  1
  C  C909  1  0.785200  0.550300  0.427200  1
  C  C910  1  0.214800  0.449700  0.572800  1
  C  C911  1  0.812400  0.546700  0.395400  1
  C  C912  1  0.187600  0.453300  0.604600  1
  C  C913  1  0.777900  0.508900  0.450300  1
  C  C914  1  0.222100  0.491100  0.549700  1
  C  C915  1  0.746300  0.510200  0.482300  1
  C  C916  1  0.253700  0.489800  0.517700  1
  C  C917  1  0.741400  0.466700  0.502700  1
  C  C918  1  0.258600  0.533300  0.497300  1
  C  C919  1  0.766100  0.418600  0.491500  1
  C  C920  1  0.233900  0.581400  0.508500  1
  C  C921  1  0.800300  0.460100  0.440700  1
  C  C922  1  0.199700  0.539900  0.559300  1
  C  C923  1  0.892700  0.243200  0.369400  1
  C  C924  1  0.107300  0.756800  0.630600  1
  C  C925  1  0.765400  0.357400  0.052700  1
  C  C926  1  0.234600  0.642600  0.947300  1
  C  C927  1  0.277000  0.322500  0.110000  1
  C  C928  1  0.723000  0.677500  0.890000  1
  C  C929  1  0.231600  0.321500  0.091400  1
  C  C930  1  0.768400  0.678500  0.908600  1
  C  C931  1  0.924200  0.450500  0.314500  1
  C  C932  1  0.075800  0.549500  0.685500  1
  C  C933  1  0.936800  0.500600  0.311000  1
  C  C934  1  0.063200  0.499400  0.689000  1
  C  C935  1  0.951900  0.521400  0.277100  1
  C  C936  1  0.048100  0.478600  0.722900  1
  C  C937  1  0.954800  0.491800  0.248900  1
  C  C938  1  0.045200  0.508200  0.751100  1
  C  C939  1  0.942900  0.441000  0.252500  1
  C  C940  1  0.057100  0.559000  0.747500  1
  C  C941  1  0.927400  0.420100  0.286100  1
  C  C942  1  0.072600  0.579900  0.713900  1
  C  C943  1  0.571600  0.489400  0.277100  1
  C  C944  1  0.428400  0.510600  0.722900  1
  C  C945  1  0.518100  0.487000  0.281000  1
  C  C946  1  0.481900  0.513000  0.719000  1
  C  C947  1  0.489200  0.474000  0.313800  1
  C  C948  1  0.510800  0.526000  0.686200  1
  C  C949  1  0.511100  0.477000  0.342600  1
  C  C950  1  0.488900  0.523000  0.657400  1
  C  C951  1  0.564700  0.478000  0.339500  1
  C  C952  1  0.435300  0.522000  0.660500  1
  C  C953  1  0.594100  0.488000  0.306100  1
  C  C954  1  0.405900  0.512000  0.693900  1
  C  C955  1  0.478200  0.469000  0.378800  1
  C  C956  1  0.521800  0.531000  0.621200  1
  C  C957  1  0.959700  0.455100  0.075300  1
  C  C958  1  0.040300  0.544900  0.924700  1
  C  C959  1  0.938400  0.504100  0.073300  1
  C  C960  1  0.061600  0.495900  0.926700  1
  C  C961  1  0.953700  0.533900  0.044600  1
  C  C962  1  0.046300  0.466100  0.955400  1
  C  C963  1  0.990300  0.514800  0.017800  1
  C  C964  1  0.009700  0.485200  0.982200  1
  C  C965  1  0.011700  0.465900  0.019800  1
  C  C966  1  0.988300  0.534100  0.980200  1
  C  C967  1  0.996400  0.436000  0.048500  1
  C  C968  1  0.003600  0.564000  0.951500  1
  C  C969  1  0.007300  0.540400  0.982900  1
  C  C970  1  0.992700  0.459600  0.017100  1
  C  C971  1  0.008000  0.116000  0.210400  1
  C  C972  1  0.992000  0.884000  0.789600  1
  C  C973  1  0.021600  0.127500  0.172700  1
  C  C974  1  0.978400  0.872500  0.827300  1
  C  C975  1  0.010000  0.112000  0.141300  1
  C  C976  1  0.990000  0.888000  0.858700  1
  C  C977  1  0.833100  0.919000  0.374300  1
  C  C978  1  0.166900  0.081000  0.625700  1
  C  C979  1  0.822500  0.901900  0.411500  1
  C  C980  1  0.177500  0.098100  0.588500  1
  C  C981  1  0.802600  0.857300  0.428800  1
  C  C982  1  0.197400  0.142700  0.571200  1
  C  C983  1  0.732000  0.519800  0.989600  1
  C  C984  1  0.268000  0.480200  0.010400  1
  C  C985  1  0.704000  0.474600  0.984600  1
  C  C986  1  0.296000  0.525400  0.015400  1
  C  C987  1  0.675000  0.436000  0.002600  1
  C  C988  1  0.325000  0.564000  0.997400  1
  C  C989  1  0.742900  0.097000  0.866400  1
  C  C990  1  0.257100  0.903000  0.133600  1
  C  C991  1  0.693900  0.118800  0.888200  1
  C  C992  1  0.306100  0.881200  0.111800  1
  C  C993  1  0.641300  0.105000  0.894500  1
  C  C994  1  0.358700  0.895000  0.105500  1
  C  C995  1  0.975600  0.804700  0.374900  1
  C  C996  1  0.024400  0.195300  0.625100  1
  C  C997  1  0.762300  0.771700  0.233300  1
  C  C998  1  0.237700  0.228300  0.766700  1
  C  C999  1  0.939000  0.558000  0.455000  1
  C  C1000  1  0.061000  0.442000  0.545000  1
  C  C1001  1  0.644800  0.946000  0.248200  1
  C  C1002  1  0.355200  0.054000  0.751800  1
  C  C1003  1  0.429700  0.997700  0.418600  1
  C  C1004  1  0.570300  0.002300  0.581400  1
  C  C1005  1  0.531000  0.929000  0.033400  1
  C  C1006  1  0.469000  0.071000  0.966600  1
  C  C1007  1  0.638000  0.446000  0.443600  1
  C  C1008  1  0.362000  0.554000  0.556400  1
  C  C1009  1  0.592700  0.432200  0.442300  1
  C  C1010  1  0.407300  0.567800  0.557700  1
  C  C1011  1  0.984000  0.514000  0.207700  1
  C  C1012  1  0.016000  0.486000  0.792300  1
  C  C1013  1  0.715800  0.604900  0.546800  1
  C  C1014  1  0.284200  0.395100  0.453200  1
  C  C1015  1  0.616000  0.603000  0.396700  1
  C  C1016  1  0.384000  0.397000  0.603300  1
  C  C1017  1  0.459200  0.393700  0.038700  1
  C  C1018  1  0.540800  0.606300  0.961300  1
  C  C1019  1  0.722400  0.808700  0.994300  1
  C  C1020  1  0.277600  0.191300  0.005700  1
  C  C1021  1  0.555900  0.869300  0.007000  1
  C  C1022  1  0.444100  0.130700  0.993000  1
  C  C1023  1  0.728800  0.772900  0.968400  1
  C  C1024  1  0.271200  0.227100  0.031600  1
  C  C1025  1  0.485000  0.417000  0.006900  1
  C  C1026  1  0.515000  0.583000  0.993100  1
  C  C1027  1  0.643700  0.621900  0.044800  1
  C  C1028  1  0.356300  0.378100  0.955200  1
  C  C1029  1  0.244000  0.027000  0.179000  1
  C  C1030  1  0.756000  0.973000  0.821000  1
  C  C1031  1  0.448400  0.446400  0.060000  1
  C  C1032  1  0.551600  0.553600  0.940000  1
  C  C1033  1  0.517000  0.851000  0.039000  1
  C  C1034  1  0.483000  0.149000  0.961000  1
  C  C1035  1  0.039300  0.238000  0.378300  1
  C  C1036  1  0.960700  0.762000  0.621700  1
  C  C1037  1  0.085000  0.212000  0.350300  1
  C  C1038  1  0.915000  0.788000  0.649700  1
  C  C1039  1  0.766000  0.798000  0.009600  1
  C  C1040  1  0.234000  0.202000  0.990400  1
  C  C1041  1  0.938100  0.768800  0.344000  1
  C  C1042  1  0.061900  0.231200  0.656000  1
  C  C1043  1  0.727000  0.744600  0.212400  1
  C  C1044  1  0.273000  0.255400  0.787600  1
  C  C1045  1  0.463900  0.981500  0.466200  1
  C  C1046  1  0.536100  0.018500  0.533800  1
  C  C1047  1  0.276300  0.997300  0.408900  1
  C  C1048  1  0.723700  0.002700  0.591100  1
  C  C1049  1  0.958000  0.767000  0.367000  1
  C  C1050  1  0.042000  0.233000  0.633000  1
  C  C1051  1  0.545000  0.936000  0.932600  1
  C  C1052  1  0.455000  0.064000  0.067400  1
  C  C1053  1  0.694500  0.655800  0.986000  1
  C  C1054  1  0.305500  0.344200  0.014000  1
  C  C1055  1  0.235000  0.058000  0.143000  1
  C  C1056  1  0.765000  0.942000  0.857000  1
  C  C1057  1  0.077000  0.286000  0.147100  1
  C  C1058  1  0.923000  0.714000  0.852900  1
  C  C1059  1  0.428000  0.393000  0.023700  1
  C  C1060  1  0.572000  0.607000  0.976300  1
  C  C1061  1  0.835000  0.613000  0.236200  1
  C  C1062  1  0.165000  0.387000  0.763800  1
  C  C1063  1  0.190000  0.219000  0.323400  1
  C  C1064  1  0.810000  0.781000  0.676600  1
  C  C1065  1  0.962000  0.596000  0.386800  1
  C  C1066  1  0.038000  0.404000  0.613200  1
  C  C1067  1  0.639000  0.944000  0.204200  1
  C  C1068  1  0.361000  0.056000  0.795800  1
  C  C1069  1  0.856600  0.502500  0.530700  1
  C  C1070  1  0.143400  0.497500  0.469300  1
  C  C1071  1  0.309000  0.291000  0.241900  1
  C  C1072  1  0.691000  0.709000  0.758100  1
  C  C1073  1  0.180000  0.986000  0.158600  1
  C  C1074  1  0.820000  0.014000  0.841400  1
  C  C1075  1  0.053000  0.352000  0.176000  1
  C  C1076  1  0.947000  0.648000  0.824000  1
  C  C1077  1  0.181000  0.037900  0.182000  1
  C  C1078  1  0.819000  0.962100  0.818000  1
  C  C1079  1  0.974000  0.575000  0.410000  1
  C  C1080  1  0.026000  0.425000  0.590000  1
  C  C1081  1  0.062000  0.316000  0.203500  1
  C  C1082  1  0.938000  0.684000  0.796500  1
  C  C1083  1  0.365000  0.282000  0.224700  1
  C  C1084  1  0.635000  0.718000  0.775300  1
  S  S1085  1  0.559700  0.525700  0.100300  1
  S  S1086  1  0.440300  0.474300  0.899700  1
  S  S1087  1  0.867300  0.049500  0.215100  1
  S  S1088  1  0.132700  0.950500  0.784900  1
  S  S1089  1  0.210100  0.498100  0.210600  1
  S  S1090  1  0.789900  0.501900  0.789400  1
  S  S1091  1  0.636600  0.299800  0.970500  1
  S  S1092  1  0.363400  0.700200  0.029500  1
  S  S1093  1  0.526200  0.111500  0.386530  1
  S  S1094  1  0.473800  0.888500  0.613470  1
  S  S1095  1  0.580100  0.509400  0.245600  1
  S  S1096  1  0.419900  0.490600  0.754400  1
  S  S1097  1  0.906800  0.054400  0.360900  1
  S  S1098  1  0.093200  0.945600  0.639100  1
  S  S1099  1  0.235300  0.035200  0.306500  1
  S  S1100  1  0.764700  0.964800  0.693500  1
  S  S1101  1  0.915700  0.427300  0.126800  1
  S  S1102  1  0.084300  0.572700  0.873200  1
  S  S1103  1  0.657200  0.246500  0.531300  1
  S  S1104  1  0.342800  0.753500  0.468700  1
  S  S1105  1  0.521600  0.823700  0.244830  1
  S  S1106  1  0.478400  0.176300  0.755170  1
  S  S1107  1  0.522300  0.146400  0.154890  1
  S  S1108  1  0.477700  0.853600  0.845110  1
  S  S1109  1  0.945600  0.729400  0.216000  1
  S  S1110  1  0.054400  0.270600  0.784000  1
  S  S1111  1  0.789500  0.282500  0.525300  1
  S  S1112  1  0.210500  0.717500  0.474700  1
  S  S1113  1  0.818800  0.284200  0.962000  1
  S  S1114  1  0.181200  0.715800  0.038000  1
  S  S1115  1  0.905300  0.423600  0.354240  1
  S  S1116  1  0.094700  0.576400  0.645760  1
  S  S1117  1  0.604700  0.508100  0.237500  1
  S  S1118  1  0.395300  0.491900  0.762500  1
  S  S1119  1  0.940800  0.418600  0.112200  1
  S  S1120  1  0.059200  0.581400  0.887800  1
  S  S1121  1  0.660500  0.680700  0.027800  1
  S  S1122  1  0.339500  0.319300  0.972200  1
  N  N1123  1  0.653900  0.223000  0.078500  1
  N  N1124  1  0.346100  0.777000  0.921500  1
  N  N1125  1  0.567100  0.292100  0.095500  1
  N  N1126  1  0.432900  0.707900  0.904500  1
  N  N1127  1  0.508500  0.235900  0.056500  1
  N  N1128  1  0.491500  0.764100  0.943500  1
  N  N1129  1  0.596700  0.167200  0.039400  1
  N  N1130  1  0.403300  0.832800  0.960600  1
  N  N1131  1  0.666500  0.180100  0.425800  1
  N  N1132  1  0.333500  0.819900  0.574200  1
  N  N1133  1  0.567200  0.232700  0.444500  1
  N  N1134  1  0.432800  0.767300  0.555500  1
  N  N1135  1  0.529600  0.155600  0.488500  1
  N  N1136  1  0.470400  0.844400  0.511500  1
  N  N1137  1  0.625700  0.100700  0.469500  1
  N  N1138  1  0.374300  0.899300  0.530500  1
  N  N1139  1  0.518000  0.654200  0.284500  1
  N  N1140  1  0.482000  0.345800  0.715500  1
  N  N1141  1  0.621500  0.673900  0.263800  1
  N  N1142  1  0.378500  0.326100  0.736200  1
  N  N1143  1  0.610900  0.678200  0.193600  1
  N  N1144  1  0.389100  0.321800  0.806400  1
  N  N1145  1  0.505900  0.662100  0.213600  1
  N  N1146  1  0.494100  0.337900  0.786400  1
  N  N1147  1  0.066700  0.083600  0.372200  1
  N  N1148  1  0.933300  0.916400  0.627800  1
  N  N1149  1  0.071800  0.112500  0.302100  1
  N  N1150  1  0.928200  0.887500  0.697900  1
  N  N1151  1  0.077100  0.008700  0.286000  1
  N  N1152  1  0.922900  0.991300  0.714000  1
  N  N1153  1  0.075400  0.982700  0.356600  1
  N  N1154  1  0.924600  0.017300  0.643400  1
  N  N1155  1  0.887400  0.280900  0.065700  1
  N  N1156  1  0.112600  0.719100  0.934300  1
  N  N1157  1  0.801800  0.355600  0.070700  1
  N  N1158  1  0.198200  0.644400  0.929300  1
  N  N1159  1  0.947600  0.339000  0.017700  1
  N  N1160  1  0.052400  0.661000  0.982300  1
  N  N1161  1  0.866300  0.413900  0.021500  1
  N  N1162  1  0.133700  0.586100  0.978500  1
  N  N1163  1  0.765300  0.341900  0.422500  1
  N  N1164  1  0.234700  0.658100  0.577500  1
  N  N1165  1  0.864300  0.290300  0.419100  1
  N  N1166  1  0.135700  0.709700  0.580900  1
  N  N1167  1  0.795800  0.418500  0.459700  1
  N  N1168  1  0.204200  0.581500  0.540300  1
  N  N1169  1  0.845000  0.875500  0.258600  1
  N  N1170  1  0.155000  0.124500  0.741400  1
  N  N1171  1  0.861900  0.881900  0.185800  1
  N  N1172  1  0.138100  0.118100  0.814200  1
  N  N1173  1  0.964900  0.902800  0.185600  1
  N  N1174  1  0.035100  0.097200  0.814400  1
  N  N1175  1  0.947500  0.894500  0.258100  1
  N  N1176  1  0.052500  0.105500  0.741900  1
  N  N1177  1  0.369000  0.538500  0.232800  1
  N  N1178  1  0.631000  0.461500  0.767200  1
  N  N1179  1  0.370300  0.434800  0.242900  1
  N  N1180  1  0.629700  0.565200  0.757100  1
  N  N1181  1  0.376300  0.423100  0.171800  1
  N  N1182  1  0.623700  0.576900  0.828200  1
  N  N1183  1  0.370000  0.524800  0.162400  1
  N  N1184  1  0.630000  0.475200  0.837600  1
  N  N1185  1  0.890500  0.366400  0.460300  1
  N  N1186  1  0.109500  0.633600  0.539700  1
  O  O1187  1  0.559600  0.508200  0.066800  1
  O  O1188  1  0.440400  0.491800  0.933200  1
  O  O1189  1  0.546500  0.578800  0.104300  1
  O  O1190  1  0.453500  0.421200  0.895700  1
  O  O1191  1  0.526800  0.496600  0.125000  1
  O  O1192  1  0.473200  0.503400  0.875000  1
  O  O1193  1  0.921600  0.061700  0.201500  1
  O  O1194  1  0.078400  0.938300  0.798500  1
  O  O1195  1  0.868400  0.998500  0.230300  1
  O  O1196  1  0.131600  0.001500  0.769700  1
  O  O1197  1  0.842600  0.086100  0.238700  1
  O  O1198  1  0.157400  0.913900  0.761300  1
  O  O1199  1  0.253800  0.492600  0.227900  1
  O  O1200  1  0.746200  0.507400  0.772100  1
  O  O1201  1  0.181100  0.547700  0.218000  1
  O  O1202  1  0.818900  0.452300  0.782000  1
  O  O1203  1  0.221400  0.493900  0.175400  1
  O  O1204  1  0.778600  0.506100  0.824600  1
  O  O1205  1  0.676700  0.258100  0.959600  1
  O  O1206  1  0.323300  0.741900  0.040400  1
  O  O1207  1  0.655000  0.349500  0.963000  1
  O  O1208  1  0.345000  0.650500  0.037000  1
  O  O1209  1  0.617700  0.294400  0.005400  1
  O  O1210  1  0.382300  0.705600  0.994600  1
  O  O1211  1  0.490200  0.155500  0.393300  1
  O  O1212  1  0.509800  0.844500  0.606700  1
  O  O1213  1  0.579300  0.124800  0.378700  1
  O  O1214  1  0.420700  0.875200  0.621300  1
  O  O1215  1  0.519500  0.075100  0.413400  1
  O  O1216  1  0.480500  0.924900  0.586600  1
  O  O1217  1  0.598100  0.558100  0.231100  1
  O  O1218  1  0.401900  0.441900  0.768900  1
  O  O1219  1  0.591800  0.469300  0.221300  1
  O  O1220  1  0.408200  0.530700  0.778700  1
  O  O1221  1  0.526700  0.514000  0.260200  1
  O  O1222  1  0.473300  0.486000  0.739800  1
  O  O1223  1  0.920000  0.002900  0.373300  1
  O  O1224  1  0.080000  0.997100  0.626700  1
  O  O1225  1  0.903200  0.088200  0.388800  1
  O  O1226  1  0.096800  0.911800  0.611200  1
  O  O1227  1  0.934800  0.067200  0.329500  1
  O  O1228  1  0.065200  0.932800  0.670500  1
  O  O1229  1  0.208200  0.040100  0.277400  1
  O  O1230  1  0.791800  0.959900  0.722600  1
  O  O1231  1  0.260400  0.984000  0.306400  1
  O  O1232  1  0.739600  0.016000  0.693600  1
  O  O1233  1  0.212700  0.051100  0.337900  1
  O  O1234  1  0.787300  0.948900  0.662100  1
  O  O1235  1  0.945000  0.381200  0.114000  1
  O  O1236  1  0.055000  0.618800  0.886000  1
  O  O1237  1  0.949300  0.469800  0.122500  1
  O  O1238  1  0.050700  0.530200  0.877500  1
  O  O1239  1  0.870600  0.439800  0.114600  1
  O  O1240  1  0.129400  0.560200  0.885400  1
  O  O1241  1  0.704900  0.235000  0.543800  1
  O  O1242  1  0.295100  0.765000  0.456200  1
  O  O1243  1  0.645500  0.210300  0.508100  1
  O  O1244  1  0.354500  0.789700  0.491900  1
  O  O1245  1  0.652900  0.296500  0.518400  1
  O  O1246  1  0.347100  0.703500  0.481600  1
  O  O1247  1  0.572000  0.844000  0.242300  1
  O  O1248  1  0.428000  0.156000  0.757700  1
  O  O1249  1  0.507800  0.824500  0.211300  1
  O  O1250  1  0.492200  0.175500  0.788700  1
  O  O1251  1  0.519600  0.775100  0.260200  1
  O  O1252  1  0.480400  0.224900  0.739800  1
  O  O1253  1  0.504500  0.099600  0.145400  1
  O  O1254  1  0.495500  0.900400  0.854600  1
  O  O1255  1  0.560800  0.167300  0.127600  1
  O  O1256  1  0.439200  0.832700  0.872400  1
  O  O1257  1  0.484000  0.184200  0.167200  1
  O  O1258  1  0.516000  0.815800  0.832800  1
  O  O1259  1  0.892500  0.712900  0.224900  1
  O  O1260  1  0.107500  0.287100  0.775100  1
  O  O1261  1  0.948000  0.778600  0.229400  1
  O  O1262  1  0.052000  0.221400  0.770600  1
  O  O1263  1  0.962300  0.728800  0.180300  1
  O  O1264  1  0.037700  0.271200  0.819700  1
  O  O1265  1  0.752100  0.247200  0.521100  1
  O  O1266  1  0.247900  0.752800  0.478900  1
  O  O1267  1  0.792900  0.322100  0.499300  1
  O  O1268  1  0.207100  0.677900  0.500700  1
  O  O1269  1  0.778400  0.306000  0.557300  1
  O  O1270  1  0.221600  0.694000  0.442700  1
  O  O1271  1  0.790500  0.324100  0.946400  1
  O  O1272  1  0.209500  0.675900  0.053600  1
  O  O1273  1  0.865800  0.270800  0.936100  1
  O  O1274  1  0.134200  0.729200  0.063900  1
  O  O1275  1  0.838400  0.300700  0.990100  1
  O  O1276  1  0.161600  0.699300  0.009900  1
  O  O1277  1  0.035700  0.944800  0.931000  1
  O  O1278  1  0.964300  0.055200  0.069000  1
  O  O1279  1  0.405300  0.929200  0.184000  1
  O  O1280  1  0.594700  0.070800  0.816000  1
  O  O1281  1  0.603900  0.574700  0.525300  1
  O  O1282  1  0.396100  0.425300  0.474700  1
  O  O1283  1  0.372600  0.267800  0.384500  1
  O  O1284  1  0.627400  0.732200  0.615500  1
  O  O1285  1  0.851500  0.411000  0.360600  1
  O  O1286  1  0.148500  0.589000  0.639400  1
  O  O1287  1  0.913200  0.458800  0.379400  1
  O  O1288  1  0.086800  0.541200  0.620600  1
  O  O1289  1  0.941300  0.380900  0.353900  1
  O  O1290  1  0.058700  0.619100  0.646100  1
  O  O1291  1  0.579200  0.556400  0.228000  1
  O  O1292  1  0.420800  0.443600  0.772000  1
  O  O1293  1  0.602000  0.469500  0.213300  1
  O  O1294  1  0.398000  0.530500  0.786700  1
  O  O1295  1  0.656800  0.512800  0.239900  1
  O  O1296  1  0.343200  0.487200  0.760100  1
  O  O1297  1  0.954100  0.445900  0.140800  1
  O  O1298  1  0.045900  0.554100  0.859200  1
  O  O1299  1  0.975500  0.372200  0.110400  1
  O  O1300  1  0.024500  0.627800  0.889600  1
  O  O1301  1  0.892100  0.403500  0.111600  1
  O  O1302  1  0.107900  0.596500  0.888400  1
  O  O1303  1  0.050200  0.160400  0.169200  1
  O  O1304  1  0.949800  0.839600  0.830800  1
  O  O1305  1  0.828200  0.934600  0.427800  1
  O  O1306  1  0.171800  0.065400  0.572200  1
  O  O1307  1  0.704000  0.474600  0.954500  1
  O  O1308  1  0.296000  0.525400  0.045500  1
  O  O1309  1  0.702700  0.152400  0.903800  1
  O  O1310  1  0.297300  0.847600  0.096200  1
  O  O1311  1  0.452000  0.961000  0.420000  1
  O  O1312  1  0.548000  0.039000  0.580000  1
  O  O1313  1  0.229100  0.950900  0.424600  1
  O  O1314  1  0.770900  0.049100  0.575400  1
  O  O1315  1  0.566000  0.971300  0.904400  1
  O  O1316  1  0.434000  0.028700  0.095600  1
  O  O1317  1  0.705300  0.708900  0.046400  1
  O  O1318  1  0.294700  0.291100  0.953600  1
  O  O1319  1  0.843100  0.562500  0.196400  1
  O  O1320  1  0.156900  0.437500  0.803600  1
  O  O1321  1  0.597700  0.420000  0.406300  1
  O  O1322  1  0.402300  0.580000  0.593700  1
  O  O1323  1  0.692000  0.953000  0.233500  1
  O  O1324  1  0.308000  0.047000  0.766500  1
  O  O1325  1  0.151000  0.046000  0.156000  1
  O  O1326  1  0.849000  0.954000  0.844000  1
  O  O1327  1  0.035000  0.273000  0.353400  1
  O  O1328  1  0.965000  0.727000  0.646600  1
  O  O1329  1  0.495400  0.471500  0.191000  1
  O  O1330  1  0.504600  0.528500  0.809000  1
