
#######################################################################
#
#                 Cambridge Crystallographic Data Centre
#                                CCDC 
#
#######################################################################
#
# If this CIF has been generated from an entry in the Cambridge 
# Structural Database, then it will include bibliographic, chemical, 
# crystal, experimental, refinement or atomic coordinate data resulting 
# from the CCDC's data processing and validation procedures.
#
#######################################################################

data_NEPCIV
_chemical_formula_moiety         
'C128 H96 N16 Pd4 8+,8(N1 O3 1-),8(C2 H6 O1 S1),6(H2 O1)'
_chemical_name_systematic        
'octakis(\m~2~-1,4-bis(3-Pyridyl)benzene)-tetra-palladium(ii) octanitrate dimethylsulfoxide solvate unknown solvate hexahydrate'
_symmetry_cell_setting           triclinic
_symmetry_space_group_name_H-M   'P -1'
_symmetry_Int_Tables_number      2
_space_group_name_Hall           '-P 1'
loop_
_symmetry_equiv_pos_site_id
_symmetry_equiv_pos_as_xyz
1 x,y,z
2 -x,-y,-z
_cell_length_a                   20.705(3)
_cell_length_b                   21.151(2)
_cell_length_c                   22.278(3)
_cell_angle_alpha                91.725(2)
_cell_angle_beta                 90.595(2)
_cell_angle_gamma                107.389(2)
_cell_volume                     9304.21
_chemical_melting_point          'decomposes at 297 deg.C'
_cell_formula_units_Z            2
_exptl_crystal_recrystallization_method 'chloroform/diethyl ether'
loop_
_atom_site_label
_atom_site_type_symbol
_atom_site_fract_x
_atom_site_fract_y
_atom_site_fract_z
Pd1 Pd 1.43207(3) 0.14259(3) 0.53881(3)
Pd2 Pd 1.27451(3) 0.60605(3) 0.64569(3)
Pd3 Pd 0.86804(3) 0.05720(3) 0.73806(3)
Pd4 Pd 1.32598(3) 0.25435(3) 1.05465(3)
N1 N 1.3764(3) 0.6253(3) 0.6316(3)
C1 C 1.4695(4) 0.5838(4) 0.6106(4)
C2 C 1.4018(4) 0.5754(4) 0.6240(4)
H1 H 1.3726 0.5316 0.6279
C3 C 1.4160(4) 0.6876(4) 0.6256(4)
H2 H 1.3973 0.7234 0.6300
C4 C 1.4838(5) 0.7002(4) 0.6131(5)
H3 H 1.5121 0.7446 0.6108
C5 C 1.5102(5) 0.6480(4) 0.6039(4)
H4 H 1.5562 0.6563 0.5931
C6 C 1.4929(4) 0.5247(4) 0.5991(4)
C7 C 1.5471(5) 0.5270(5) 0.5635(5)
H5 H 1.5724 0.5679 0.5473
C8 C 1.5655(5) 0.4697(5) 0.5510(5)
H6 H 1.6033 0.4726 0.5262
C9 C 1.5314(4) 0.4097(4) 0.5732(4)
C10 C 1.4795(5) 0.4088(5) 0.6137(5)
H7 H 1.4568 0.3686 0.6324
C11 C 1.4609(5) 0.4651(5) 0.6271(5)
H8 H 1.4264 0.4635 0.6553
N2 N 1.5070(3) 0.2301(3) 0.5372(3)
C12 C 1.5472(4) 0.3478(4) 0.5554(4)
C13 C 1.4987(4) 0.2885(4) 0.5567(4)
H9 H 1.4560 0.2878 0.5723
C14 C 1.5691(5) 0.2309(4) 0.5177(4)
H10 H 1.5760 0.1907 0.5033
C15 C 1.6219(5) 0.2877(5) 0.5183(5)
H11 H 1.6656 0.2863 0.5072
C16 C 1.6119(4) 0.3479(4) 0.5350(5)
H12 H 1.6476 0.3882 0.5328
N3 N 1.3799(3) 0.1691(3) 0.4720(3)
C17 C 1.3187(4) 0.2410(4) 0.4360(3)
C18 C 1.3544(4) 0.2194(4) 0.4811(4)
H13 H 1.3607 0.2415 0.5195
C19 C 1.3683(4) 0.1348(4) 0.4183(4)
H14 H 1.3849 0.0979 0.4120
C20 C 1.3325(4) 0.1533(4) 0.3726(4)
H15 H 1.3250 0.1290 0.3353
C21 C 1.3078(4) 0.2063(4) 0.3804(4)
H16 H 1.2838 0.2193 0.3488
C22 C 1.2972(4) 0.3018(4) 0.4494(4)
C23 C 1.2844(5) 0.3184(5) 0.5067(4)
H17 H 1.2883 0.2904 0.5382
C24 C 1.2662(5) 0.3744(5) 0.5203(5)
H18 H 1.2576 0.3847 0.5606
C25 C 1.2603(4) 0.4165(4) 0.4741(4)
C26 C 1.2707(4) 0.3981(4) 0.4144(4)
H19 H 1.2656 0.4251 0.3825
C27 C 1.2883(4) 0.3414(4) 0.4021(4)
H20 H 1.2945 0.3289 0.3618
N4 N 1.2505(4) 0.5680(3) 0.5605(4)
C28 C 1.2450(4) 0.4798(4) 0.4888(4)
C29 C 1.2607(4) 0.5094(4) 0.5435(5)
H21 H 1.2803 0.4880 0.5723
C30 C 1.2227(4) 0.5984(5) 0.5205(5)
H22 H 1.2158 0.6397 0.5310
C31 C 1.2041(5) 0.5701(5) 0.4638(5)
H23 H 1.1829 0.5915 0.4362
C32 C 1.2157(5) 0.5111(5) 0.4463(5)
H24 H 1.2042 0.4924 0.4069
N5 N 1.4846(4) 0.1160(3) 0.6057(3)
C33 C 1.5125(6) 0.1168(5) 0.7098(4)
C34 C 1.4757(4) 0.1317(4) 0.6642(4)
H25 H 1.4429 0.1536 0.6734
C35 C 1.5298(5) 0.0856(5) 0.5912(5)
H26 H 1.5359 0.0756 0.5502
C36 C 1.5690(6) 0.0678(5) 0.6361(5)
H27 H 1.6020 0.0466 0.6256
C37 C 1.5589(6) 0.0817(6) 0.6958(5)
H28 H 1.5828 0.0678 0.7269
C38 C 1.5023(5) 0.1350(5) 0.7739(4)
C39 C 1.5341(9) 0.1158(12) 0.8201(7)
H29 H 1.5619 0.0880 0.8126
C40 C 1.5264(10) 0.1362(13) 0.8776(6)
H30 H 1.5527 0.1253 0.9085
C41 C 1.4834(6) 0.1713(6) 0.8935(4)
C42 C 1.4449(9) 0.1833(8) 0.8477(6)
H31 H 1.4111 0.2043 0.8555
C43 C 1.4560(9) 0.1643(8) 0.7901(5)
H32 H 1.4283 0.1729 0.7591
N6 N 1.4097(4) 0.2305(4) 1.0320(3)
C44 C 1.4747(5) 0.1912(5) 0.9567(4)
C45 C 1.4201(5) 0.2126(5) 0.9741(4)
H33 H 1.3881 0.2150 0.9441
C46 C 1.4542(5) 0.2266(5) 1.0736(4)
H34 H 1.4465 0.2367 1.1142
C47 C 1.5116(5) 0.2084(5) 1.0608(5)
H35 H 1.5444 0.2096 1.0913
C48 C 1.5202(6) 0.1882(6) 1.0015(4)
H36 H 1.5575 0.1724 0.9923
N7 N 1.2969(4) 0.6416(4) 0.7311(4)
C49 C 1.3241(5) 0.6253(5) 0.8336(5)
C50 C 1.3116(5) 0.6044(5) 0.7722(5)
H37 H 1.3140 0.5616 0.7604
C51 C 1.2901(5) 0.7019(5) 0.7480(5)
H38 H 1.2802 0.7291 0.7183
C52 C 1.2973(6) 0.7233(6) 0.8061(6)
H39 H 1.2901 0.7645 0.8168
C53 C 1.3146(6) 0.6871(6) 0.8496(5)
H40 H 1.3203 0.7032 0.8902
C54 C 1.3432(5) 0.5837(5) 0.8786(5)
C55 C 1.3223(7) 0.5132(6) 0.8710(5)
H41 H 1.2955 0.4922 0.8370
C56 C 1.3414(7) 0.4763(5) 0.9130(5)
H42 H 1.3295 0.4298 0.9054
C57 C 1.3768(5) 0.5015(5) 0.9660(5)
C58 C 1.3982(7) 0.5691(6) 0.9721(6)
H43 H 1.4253 0.5891 1.0062
C59 C 1.3818(6) 0.6098(5) 0.9299(6)
H44 H 1.3974 0.6566 0.9366
N8 N 1.3771(4) 0.3524(4) 1.0530(4)
C60 C 1.3944(6) 0.4611(5) 1.0103(5)
C61 C 1.3627(5) 0.3909(5) 1.0116(4)
H45 H 1.3296 0.3706 0.9814
C62 C 1.4237(6) 0.3785(5) 1.0964(4)
H46 H 1.4325 0.3508 1.1262
C63 C 1.4599(6) 0.4469(5) 1.0984(5)
H47 H 1.4941 0.4651 1.1281
C64 C 1.4440(6) 0.4864(5) 1.0558(5)
H48 H 1.4675 0.5325 1.0573
N9 N 0.8870(4) -0.0139(4) 0.7895(3)
C65 C 0.9582(4) -0.0412(4) 0.8641(4)
C66 C 0.9428(4) 0.0026(4) 0.8265(4)
H49 H 0.9725 0.0466 0.8262
C67 C 0.8467(4) -0.0760(4) 0.7889(4)
H50 H 0.8069 -0.0875 0.7642
C68 C 0.8600(5) -0.1235(4) 0.8221(4)
H51 H 0.8313 -0.1680 0.8195
C69 C 0.9179(5) -0.1052(5) 0.8608(4)
H52 H 0.9285 -0.1376 0.8844
C70 C 1.0171(4) -0.0167(4) 0.9055(4)
C71 C 1.0321(5) 0.0464(4) 0.9318(4)
H53 H 1.0040 0.0734 0.9235
C72 C 1.0872(5) 0.0699(5) 0.9696(4)
H54 H 1.0969 0.1136 0.9866
C73 C 1.1297(5) 0.0318(4) 0.9840(4)
C74 C 1.1144(5) -0.0319(5) 0.9588(5)
H55 H 1.1421 -0.0591 0.9680
C75 C 1.0582(5) -0.0564(4) 0.9196(4)
H56 H 1.0480 -0.1001 0.9025
N10 N 1.2755(4) 0.1559(4) 1.0614(3)
C76 C 1.1885(5) 0.0598(5) 1.0251(4)
C77 C 1.2261(5) 0.1255(5) 1.0206(4)
H57 H 1.2171 0.1499 0.9881
C78 C 1.2925(4) 0.1215(5) 1.1048(4)
H58 H 1.3279 0.1435 1.1325
C79 C 1.2593(5) 0.0536(5) 1.1107(4)
H59 H 1.2723 0.0292 1.1412
C80 C 1.2067(5) 0.0232(5) 1.0701(4)
H60 H 1.1830 -0.0226 1.0731
N11 N 1.2415(4) 0.2784(4) 1.0807(3)
C81 C 1.1252(5) 0.2724(5) 1.0632(4)
C82 C 1.1845(5) 0.2612(5) 1.0438(5)
H61 H 1.1858 0.2415 1.0051
C83 C 1.2403(5) 0.3065(5) 1.1353(4)
H62 H 1.2801 0.3193 1.1600
C84 C 1.1814(6) 0.3168(6) 1.1557(5)
H63 H 1.1807 0.3352 1.1950
C85 C 1.1231(6) 0.3010(6) 1.1200(5)
H64 H 1.0831 0.3093 1.1339
C86 C 1.0644(5) 0.2509(5) 1.0222(5)
C87 C 0.9991(5) 0.2318(5) 1.0451(5)
H65 H 0.9931 0.2352 1.0872
C88 C 0.9429(5) 0.2078(4) 1.0071(5)
H66 H 0.8986 0.1957 1.0230
C89 C 0.9518(5) 0.2017(4) 0.9452(4)
C90 C 1.0149(5) 0.2229(5) 0.9221(5)
H67 H 1.0204 0.2216 0.8799
C91 C 1.0720(5) 0.2466(5) 0.9603(4)
H68 H 1.1160 0.2597 0.9439
N12 N 0.8515(4) 0.1088(3) 0.8121(3)
C92 C 0.8912(5) 0.1706(5) 0.9047(4)
C93 C 0.9012(4) 0.1389(4) 0.8502(4)
H69 H 0.9460 0.1393 0.8406
C94 C 0.7880(5) 0.1099(5) 0.8235(5)
H70 H 0.7521 0.0882 0.7962
C95 C 0.7745(5) 0.1424(6) 0.8751(5)
H71 H 0.7300 0.1445 0.8823
C96 C 0.8271(6) 0.1718(5) 0.9157(5)
H72 H 0.8182 0.1929 0.9516
N13 N 1.1738(3) 0.5870(3) 0.6599(4)
C97 C 1.0612(5) 0.5083(5) 0.6641(5)
C98 C 1.1324(5) 0.5252(4) 0.6577(5)
H73 H 1.1517 0.4902 0.6514
C99 C 1.1458(5) 0.6374(4) 0.6665(5)
H74 H 1.1742 0.6818 0.6646
C100 C 1.0782(6) 0.6262(5) 0.6757(7)
H75 H 1.0604 0.6620 0.6839
C101 C 1.0353(6) 0.5599(6) 0.6728(6)
H76 H 0.9878 0.5513 0.6769
C102 C 1.0190(5) 0.4390(5) 0.6614(5)
C103 C 1.0432(5) 0.3861(5) 0.6737(6)
H77 H 1.0896 0.3947 0.6845
C104 C 1.0019(6) 0.3217(5) 0.6704(6)
H78 H 1.0198 0.2867 0.6797
C105 C 0.9343(5) 0.3074(5) 0.6537(5)
C106 C 0.9098(5) 0.3602(5) 0.6424(6)
H79 H 0.8634 0.3521 0.6319
C107 C 0.9514(6) 0.4235(5) 0.6462(6)
H80 H 0.9330 0.4585 0.6379
N14 N 0.8524(4) 0.1282(3) 0.6839(4)
C108 C 0.8874(5) 0.2375(5) 0.6489(5)
C109 C 0.8940(5) 0.1895(4) 0.6876(4)
H81 H 0.9291 0.2008 0.7174
C110 C 0.8003(5) 0.1118(5) 0.6439(4)
H82 H 0.7694 0.0683 0.6432
C111 C 0.7909(6) 0.1570(5) 0.6043(5)
H83 H 0.7544 0.1449 0.5759
C112 C 0.8354(6) 0.2199(5) 0.6063(5)
H84 H 0.8306 0.2513 0.5785
N15 N 1.3583(3) 0.0548(3) 0.5402(3)
C113 C 1.2421(4) -0.0080(4) 0.5503(4)
C114 C 1.2932(4) 0.0520(4) 0.5487(4)
H85 H 1.2819 0.0922 0.5538
C115 C 1.3741(4) -0.0013(4) 0.5308(4)
H86 H 1.4198 0.0012 0.5228
C116 C 1.3270(5) -0.0623(5) 0.5321(5)
H87 H 1.3400 -0.1015 0.5270
C117 C 1.2598(5) -0.0658(4) 0.5410(4)
H88 H 1.2261 -0.1076 0.5407
C118 C 1.1708(4) -0.0107(4) 0.5608(4)
C119 C 1.1169(5) -0.0646(5) 0.5419(5)
H89 H 1.1258 -0.1005 0.5205
C120 C 1.0513(5) -0.0676(5) 0.5532(5)
H90 H 1.0156 -0.1052 0.5394
C121 C 1.0365(4) -0.0162(5) 0.5846(4)
C122 C 1.0888(4) 0.0374(4) 0.6042(4)
H91 H 1.0794 0.0727 0.6262
C123 C 1.1547(4) 0.0407(5) 0.5924(4)
H92 H 1.1901 0.0786 0.6060
N16 N 0.8854(3) 0.0062(3) 0.6643(3)
C124 C 0.9633(4) -0.0212(4) 0.5992(4)
C125 C 0.9490(4) 0.0104(4) 0.6487(4)
H93 H 0.9854 0.0367 0.6734
C126 C 0.8328(4) -0.0333(4) 0.6301(4)
H94 H 0.7876 -0.0380 0.6416
C127 C 0.8439(4) -0.0656(5) 0.5805(4)
H95 H 0.8066 -0.0921 0.5569
C128 C 0.9095(4) -0.0607(5) 0.5633(4)
H96 H 0.9177 -0.0835 0.5282
N17 N 0.6642(5) 0.7452(5) -0.2324(4)
O1 O 0.6357(4) 0.7451(5) -0.1845(3)
O2 O 0.7192(5) 0.7815(7) -0.2421(4)
O3 O 0.6293(5) 0.7047(5) -0.2737(4)
N18 N 0.7557(5) 1.2339(4) 0.4257(4)
O4 O 0.7208(4) 1.2624(4) 0.3960(4)
O5 O 0.7487(5) 1.2259(4) 0.4793(4)
O6 O 0.8009(4) 1.2155(4) 0.3976(4)
N19 N 0.6792(4) -0.0122(4) 0.7317(5)
O7 O 0.7276(4) -0.0314(4) 0.7431(4)
O8 O 0.6627(5) -0.0112(4) 0.6768(4)
O9 O 0.6469(4) 0.0056(5) 0.7744(4)
N20 N 1.5301(4) 0.0995(4) 0.4014(4)
O10 O 1.5069(4) 0.0748(3) 0.4507(3)
O11 O 1.5272(5) 0.1552(4) 0.3898(4)
O12 O 1.5517(5) 0.0669(5) 0.3643(4)
N21 N 0.7500(5) 0.5693(6) 0.2970(5)
O13 O 0.7872(5) 0.5921(5) 0.3432(4)
O14 O 0.7819(6) 0.5466(7) 0.2584(6)
O15 O 0.6902(6) 0.5370(5) 0.3004(6)
N22 N 0.7030(10) 0.1807(14) 0.0307(8)
O16 O 0.6625(9) 0.1735(8) 0.0744(7)
O17 O 0.6806(8) 0.1751(12) -0.0202(8)
O18 O 0.7618(9) 0.158(3) 0.0457(11)
N23 N 0.8536(16) 0.7903(10) 0.4403(9)
O19 O 0.8202(15) 0.7691(11) 0.3763(10)
O20 O 0.926(2) 0.773(2) 0.4455(16)
O21 O 0.8278(11) 0.8241(7) 0.4734(7)
S1 S 0.5363(3) 0.1880(3) 0.2407(2)
O22 O 0.4477(11) 0.1598(10) 0.2653(10)
C129 C 0.5326(11) 0.1093(12) 0.2054(10)
C130 C 0.5363(6) 0.2338(6) 0.1983(5)
S2 S 0.7308(4) 1.0576(3) 0.2941(3)
O23 O 0.6578(11) 0.9986(8) 0.2951(9)
C131 C 0.7619(10) 1.0498(9) 0.2376(12)
C132 C 0.6987(10) 1.1245(7) 0.2872(9)
S3 S 0.6765(6) 0.5614(5) -0.2326(4)
O24 O 0.6695(19) 0.5039(18) -0.1859(15)
C133 C 0.6050(11) 0.5347(14) -0.2804(15)
C134 C 0.7385(8) 0.5779(9) -0.2679(7)
S4 S -0.3082(9) 0.2737(11) 0.6793(9)
O25 O -0.2638(7) 0.3149(9) 0.6447(8)
C135 C -0.3719(11) 0.2983(17) 0.7038(13)
C136 C -0.2770(13) 0.2334(13) 0.7320(12)
S5 S 0.8567(9) 0.5284(12) -0.2579(9)
O26 O 0.8661(9) 0.5348(10) -0.3186(8)
C137 C 0.8171(19) 0.438(3) -0.2496(16)
C138 C 0.938(3) 0.583(3) -0.206(2)
S6 S 0.7922(4) 0.6395(3) 0.1592(3)
O27 O 0.7837(8) 0.6646(7) 0.1008(7)
C139 C 0.8759(11) 0.6253(11) 0.1629(11)
C140 C 0.8096(13) 0.7051(11) 0.2190(12)
S7 S 0.7352(4) 0.8875(4) 0.1947(4)
O28 O 0.7200(14) 0.8219(11) 0.1726(11)
C141 C 0.7989(12) 0.9320(15) 0.1518(10)
C142 C 0.8085(19) 0.8991(19) 0.2630(17)
S8 S 1.1131(7) 0.2488(9) 0.3712(6)
O29 O 1.0447(14) 0.2126(13) 0.3862(11)
C143 C 1.1382(19) 0.2088(18) 0.318(2)
C144 C 1.1044(15) 0.3174(13) 0.3263(13)
O30 O 0.5575(8) 0.4879(7) 0.2277(6)
O31 O 0.5084(5) 0.3536(6) 0.2291(5)
O32 O 0.7318(8) 0.7556(8) 0.0740(5)
O33 O 0.8153(15) 0.1534(19) 0.1452(19)
O34 O 0.9672(18) 0.282(2) 1.1963(11)
O35 O -0.328(2) 0.3312(17) 0.9046(16)
loop_
_geom_bond_atom_site_label_1
_geom_bond_atom_site_label_2
_geom_bond_site_symmetry_1
_geom_bond_site_symmetry_2
Pd1 N2 1_555 1_555
Pd2 N1 1_555 1_555
Pd3 N9 1_555 1_555
Pd4 N6 1_555 1_555
N1 C2 1_555 1_555
C1 C2 1_555 1_555
C2 H1 1_555 1_555
C3 N1 1_555 1_555
H2 C3 1_555 1_555
C4 C3 1_555 1_555
H3 C4 1_555 1_555
C5 C1 1_555 1_555
H4 C5 1_555 1_555
C6 C1 1_555 1_555
C7 C6 1_555 1_555
H5 C7 1_555 1_555
C8 C7 1_555 1_555
H6 C8 1_555 1_555
C9 C8 1_555 1_555
C10 C9 1_555 1_555
H7 C10 1_555 1_555
C11 C6 1_555 1_555
H8 C11 1_555 1_555
N2 C13 1_555 1_555
C12 C9 1_555 1_555
C13 C12 1_555 1_555
H9 C13 1_555 1_555
C14 N2 1_555 1_555
H10 C14 1_555 1_555
C15 C14 1_555 1_555
H11 C15 1_555 1_555
C16 C12 1_555 1_555
H12 C16 1_555 1_555
N3 Pd1 1_555 1_555
C17 C18 1_555 1_555
C18 N3 1_555 1_555
H13 C18 1_555 1_555
C19 N3 1_555 1_555
H14 C19 1_555 1_555
C20 C19 1_555 1_555
H15 C20 1_555 1_555
C21 C17 1_555 1_555
H16 C21 1_555 1_555
C22 C17 1_555 1_555
C23 C22 1_555 1_555
H17 C23 1_555 1_555
C24 C23 1_555 1_555
H18 C24 1_555 1_555
C25 C24 1_555 1_555
C26 C25 1_555 1_555
H19 C26 1_555 1_555
C27 C22 1_555 1_555
H20 C27 1_555 1_555
N4 Pd2 1_555 1_555
C28 C25 1_555 1_555
C29 N4 1_555 1_555
H21 C29 1_555 1_555
C30 N4 1_555 1_555
H22 C30 1_555 1_555
C31 C30 1_555 1_555
H23 C31 1_555 1_555
C32 C28 1_555 1_555
H24 C32 1_555 1_555
N5 Pd1 1_555 1_555
C33 C34 1_555 1_555
C34 N5 1_555 1_555
H25 C34 1_555 1_555
C35 N5 1_555 1_555
H26 C35 1_555 1_555
C36 C35 1_555 1_555
H27 C36 1_555 1_555
C37 C33 1_555 1_555
H28 C37 1_555 1_555
C38 C33 1_555 1_555
C39 C38 1_555 1_555
H29 C39 1_555 1_555
C40 C39 1_555 1_555
H30 C40 1_555 1_555
C41 C40 1_555 1_555
C42 C41 1_555 1_555
H31 C42 1_555 1_555
C43 C38 1_555 1_555
H32 C43 1_555 1_555
N6 C45 1_555 1_555
C44 C41 1_555 1_555
C45 C44 1_555 1_555
H33 C45 1_555 1_555
C46 N6 1_555 1_555
H34 C46 1_555 1_555
C47 C46 1_555 1_555
H35 C47 1_555 1_555
C48 C44 1_555 1_555
H36 C48 1_555 1_555
N7 Pd2 1_555 1_555
C49 C50 1_555 1_555
C50 N7 1_555 1_555
H37 C50 1_555 1_555
C51 N7 1_555 1_555
H38 C51 1_555 1_555
C52 C51 1_555 1_555
H39 C52 1_555 1_555
C53 C49 1_555 1_555
H40 C53 1_555 1_555
C54 C49 1_555 1_555
C55 C54 1_555 1_555
H41 C55 1_555 1_555
C56 C55 1_555 1_555
H42 C56 1_555 1_555
C57 C56 1_555 1_555
C58 C57 1_555 1_555
H43 C58 1_555 1_555
C59 C54 1_555 1_555
H44 C59 1_555 1_555
N8 Pd4 1_555 1_555
C60 C57 1_555 1_555
C61 N8 1_555 1_555
H45 C61 1_555 1_555
C62 N8 1_555 1_555
H46 C62 1_555 1_555
C63 C62 1_555 1_555
H47 C63 1_555 1_555
C64 C60 1_555 1_555
H48 C64 1_555 1_555
N9 C66 1_555 1_555
C65 C66 1_555 1_555
C66 H49 1_555 1_555
C67 N9 1_555 1_555
H50 C67 1_555 1_555
C68 C67 1_555 1_555
H51 C68 1_555 1_555
C69 C65 1_555 1_555
H52 C69 1_555 1_555
C70 C65 1_555 1_555
C71 C70 1_555 1_555
H53 C71 1_555 1_555
C72 C71 1_555 1_555
H54 C72 1_555 1_555
C73 C72 1_555 1_555
C74 C73 1_555 1_555
H55 C74 1_555 1_555
C75 C70 1_555 1_555
H56 C75 1_555 1_555
N10 Pd4 1_555 1_555
C76 C73 1_555 1_555
C77 N10 1_555 1_555
H57 C77 1_555 1_555
C78 N10 1_555 1_555
H58 C78 1_555 1_555
C79 C78 1_555 1_555
H59 C79 1_555 1_555
C80 C76 1_555 1_555
H60 C80 1_555 1_555
N11 Pd4 1_555 1_555
C81 C82 1_555 1_555
C82 N11 1_555 1_555
H61 C82 1_555 1_555
C83 N11 1_555 1_555
H62 C83 1_555 1_555
C84 C83 1_555 1_555
H63 C84 1_555 1_555
C85 C81 1_555 1_555
H64 C85 1_555 1_555
C86 C81 1_555 1_555
C87 C86 1_555 1_555
H65 C87 1_555 1_555
C88 C87 1_555 1_555
H66 C88 1_555 1_555
C89 C88 1_555 1_555
C90 C89 1_555 1_555
H67 C90 1_555 1_555
C91 C86 1_555 1_555
H68 C91 1_555 1_555
N12 Pd3 1_555 1_555
C92 C89 1_555 1_555
C93 N12 1_555 1_555
H69 C93 1_555 1_555
C94 N12 1_555 1_555
H70 C94 1_555 1_555
C95 C94 1_555 1_555
H71 C95 1_555 1_555
C96 C92 1_555 1_555
H72 C96 1_555 1_555
N13 Pd2 1_555 1_555
C97 C98 1_555 1_555
C98 N13 1_555 1_555
H73 C98 1_555 1_555
C99 N13 1_555 1_555
H74 C99 1_555 1_555
C100 C99 1_555 1_555
H75 C100 1_555 1_555
C101 C97 1_555 1_555
H76 C101 1_555 1_555
C102 C97 1_555 1_555
C103 C102 1_555 1_555
H77 C103 1_555 1_555
C104 C103 1_555 1_555
H78 C104 1_555 1_555
C105 C104 1_555 1_555
C106 C105 1_555 1_555
H79 C106 1_555 1_555
C107 C102 1_555 1_555
H80 C107 1_555 1_555
N14 Pd3 1_555 1_555
C108 C105 1_555 1_555
C109 N14 1_555 1_555
H81 C109 1_555 1_555
C110 N14 1_555 1_555
H82 C110 1_555 1_555
C111 C110 1_555 1_555
H83 C111 1_555 1_555
C112 C108 1_555 1_555
H84 C112 1_555 1_555
N15 Pd1 1_555 1_555
C113 C114 1_555 1_555
C114 N15 1_555 1_555
H85 C114 1_555 1_555
C115 N15 1_555 1_555
H86 C115 1_555 1_555
C116 C115 1_555 1_555
H87 C116 1_555 1_555
C117 C113 1_555 1_555
H88 C117 1_555 1_555
C118 C113 1_555 1_555
C119 C118 1_555 1_555
H89 C119 1_555 1_555
C120 C119 1_555 1_555
H90 C120 1_555 1_555
C121 C120 1_555 1_555
C122 C121 1_555 1_555
H91 C122 1_555 1_555
C123 C118 1_555 1_555
H92 C123 1_555 1_555
N16 Pd3 1_555 1_555
C124 C121 1_555 1_555
C125 N16 1_555 1_555
H93 C125 1_555 1_555
C126 N16 1_555 1_555
H94 C126 1_555 1_555
C127 C126 1_555 1_555
H95 C127 1_555 1_555
C128 C124 1_555 1_555
H96 C128 1_555 1_555
N17 O1 1_555 1_555
O2 N17 1_555 1_555
O3 N17 1_555 1_555
N18 O4 1_555 1_555
O5 N18 1_555 1_555
O6 N18 1_555 1_555
N19 O7 1_555 1_555
O8 N19 1_555 1_555
O9 N19 1_555 1_555
N20 O10 1_555 1_555
O11 N20 1_555 1_555
O12 N20 1_555 1_555
N21 O13 1_555 1_555
O14 N21 1_555 1_555
O15 N21 1_555 1_555
N22 O16 1_555 1_555
O17 N22 1_555 1_555
O18 N22 1_555 1_555
N23 O19 1_555 1_555
O20 N23 1_555 1_555
O21 N23 1_555 1_555
S1 O22 1_555 1_555
C129 S1 1_555 1_555
C130 S1 1_555 1_555
S2 O23 1_555 1_555
C131 S2 1_555 1_555
C132 S2 1_555 1_555
S3 O24 1_555 1_555
C133 S3 1_555 1_555
C134 S3 1_555 1_555
S4 O25 1_555 1_555
C135 S4 1_555 1_555
C136 S4 1_555 1_555
S5 O26 1_555 1_555
C137 S5 1_555 1_555
C138 S5 1_555 1_555
S6 O27 1_555 1_555
C139 S6 1_555 1_555
C140 S6 1_555 1_555
S7 O28 1_555 1_555
C141 S7 1_555 1_555
C142 S7 1_555 1_555
S8 O29 1_555 1_555
C143 S8 1_555 1_555
C144 S8 1_555 1_555
C4 C5 1_555 1_555
C10 C11 1_555 1_555
C15 C16 1_555 1_555
C20 C21 1_555 1_555
C26 C27 1_555 1_555
C28 C29 1_555 1_555
C31 C32 1_555 1_555
C36 C37 1_555 1_555
C42 C43 1_555 1_555
C47 C48 1_555 1_555
C52 C53 1_555 1_555
C58 C59 1_555 1_555
C60 C61 1_555 1_555
C63 C64 1_555 1_555
C68 C69 1_555 1_555
C74 C75 1_555 1_555
C76 C77 1_555 1_555
C79 C80 1_555 1_555
C84 C85 1_555 1_555
C90 C91 1_555 1_555
C92 C93 1_555 1_555
C95 C96 1_555 1_555
C100 C101 1_555 1_555
C106 C107 1_555 1_555
C108 C109 1_555 1_555
C111 C112 1_555 1_555
C116 C117 1_555 1_555
C122 C123 1_555 1_555
C124 C125 1_555 1_555
C127 C128 1_555 1_555

#END
