
#######################################################################
#
#                 Cambridge Crystallographic Data Centre
#                                CCDC 
#
#######################################################################
#
# If this CIF has been generated from an entry in the Cambridge 
# Structural Database, then it will include bibliographic, chemical, 
# crystal, experimental, refinement or atomic coordinate data resulting 
# from the CCDC's data processing and validation procedures.
#
#######################################################################

data_NERDUJ
_chemical_formula_moiety         'C46 H32 F24 Mn2 N4 O8,C7 H8'
_chemical_name_systematic        
"bis((\m~2~-4,4'-Trimethylene-dipyridine)-bis(hexafluoroacetylacetonato)-manganese(ii)) toluene clathrate"
_symmetry_cell_setting           triclinic
_symmetry_space_group_name_H-M   'P -1'
_symmetry_Int_Tables_number      2
_space_group_name_Hall           '-P 1'
loop_
_symmetry_equiv_pos_site_id
_symmetry_equiv_pos_as_xyz
1 x,y,z
2 -x,-y,-z
_cell_length_a                   10.1402(2)
_cell_length_b                   13.0837(3)
_cell_length_c                   13.3685(3)
_cell_angle_alpha                60.7325(15)
_cell_angle_beta                 86.7121(13)
_cell_angle_gamma                80.4379(13)
_cell_volume                     1525.13
_exptl_crystal_colour            yellow
_exptl_crystal_description       plate
_cell_formula_units_Z            1
_exptl_crystal_recrystallization_method acetone/methanol/toluene
loop_
_atom_site_label
_atom_site_type_symbol
_atom_site_fract_x
_atom_site_fract_y
_atom_site_fract_z
C24 C 0.7819(10) 0.1127(6) 0.3708(8)
H17 H 0.7773 0.0569 0.3427
H18 H 0.7850 0.1920 0.3055
H19 H 0.7027 0.1154 0.4155
C25 C 0.9091(10) 0.0718(6) 0.4474(8)
C26 C 0.9770(11) 0.0984(9) 0.5093(8)
H21 H 0.9519 0.1731 0.5064
C27 C 0.9150(11) -0.0201(9) 0.4207(8)
H22 H 0.8606 -0.0269 0.3693
C27A C 1.0850(11) 0.0201(9) 0.5793(8)
C25A C 1.0909(10) -0.0718(6) 0.5526(8)
C24A C 1.2181(10) -0.1127(6) 0.6292(8)
H17A H 1.2227 -0.0569 0.6573
H18A H 1.2150 -0.1920 0.6945
H19A H 1.2973 -0.1154 0.5845
C26A C 1.0230(11) -0.0984(9) 0.4907(8)
H21A H 1.0481 -0.1731 0.4936
H22A H 1.1394 0.0269 0.6307
Mn1 Mn 0.51670(3) 0.23738(3) 0.75569(3)
F1 F 0.08843(18) 0.52376(18) 0.8095(2)
F2 F 0.28740(19) 0.54906(18) 0.81841(19)
F3 F 0.2005(3) 0.60199(15) 0.65777(18)
F4 F 0.9198(2) 0.50410(19) 0.63338(15)
F5 F 0.94843(18) 0.36214(18) 0.59712(18)
F6 F 0.79545(16) 0.50760(16) 0.50814(13)
O1 O 0.34267(15) 0.15363(14) 0.82772(14)
O2 O 0.37983(16) 0.39216(14) 0.74027(14)
O3 O 0.60144(16) 0.24347(14) 0.90023(13)
O4 O 0.67851(16) 0.33077(15) 0.66856(13)
N1 N 0.4666(2) 0.25836(17) 0.58435(16)
N2 N 0.62700(19) 0.05426(17) 0.81051(16)
C1 C 0.4071(3) 0.1772(3) 0.5788(2)
H1 H 0.3861 0.1121 0.6486
C2 C 0.3749(3) 0.1835(3) 0.4769(2)
H2 H 0.3342 0.1227 0.4778
C3 C 0.4017(2) 0.2780(2) 0.3735(2)
C4 C 0.4634(2) 0.3614(2) 0.3789(2)
H3 H 0.4844 0.4278 0.3103
C5 C 0.4948(2) 0.3485(2) 0.4839(2)
H4 H 0.5387 0.4067 0.4851
C6 C 0.3668(3) 0.2867(2) 0.2613(2)
H5 H 0.4135 0.2153 0.2587
H6 H 0.3996 0.3567 0.1977
C7 C 0.2166(3) 0.2975(2) 0.2429(2)
H7 H 0.1710 0.3744 0.2344
H8 H 0.1812 0.2336 0.3114
C8 C 0.1843(3) 0.2891(2) 0.1369(2)
H9 H 0.0860 0.3006 0.1265
H10 H 0.2192 0.3529 0.0681
C9 C 0.2450(2) 0.1708(2) 0.14868(19)
C10 C 0.1931(3) 0.0688(2) 0.2222(2)
H11 H 0.1126 0.0738 0.2606
C11 C 0.7421(3) 0.0399(2) 0.7602(2)
H12 H 0.7805 0.1083 0.7099
C12 C 0.5786(2) -0.0447(2) 0.88327(18)
H13 H 0.4983 -0.0375 0.9212
C13 C 0.3612(2) 0.1564(2) 0.09400(18)
H14 H 0.3993 0.2239 0.0407
C14 C 0.2300(2) 0.1956(2) 0.84596(19)
C15 C 0.1855(2) 0.3094(2) 0.8270(2)
H15 H 0.0977 0.3278 0.8487
C16 C 0.2648(2) 0.3976(2) 0.77744(19)
C17 C 0.1318(3) 0.1064(2) 0.8941(3)
F7 F 0.0606(9) 0.1091(9) 0.8245(7)
F8 F 0.1882(10) 0.0007(9) 0.9593(9)
F9 F 0.0447(7) 0.1314(8) 0.9666(6)
C18 C 0.2085(3) 0.5186(2) 0.7660(3)
C19 C 0.6899(2) 0.2998(2) 0.89856(19)
C20 C 0.7697(2) 0.3635(2) 0.80794(19)
H16 H 0.8340 0.4020 0.8199
C21 C 0.7583(2) 0.37264(19) 0.70105(18)
C22 C 0.7086(3) 0.3011(3) 1.0106(2)
F13 F 0.7181(15) 0.1960(13) 1.0986(10)
F14 F 0.6067(8) 0.3611(12) 1.0321(10)
F15 F 0.8066(17) 0.3526(15) 1.0118(15)
C23 C 0.8556(2) 0.4382(2) 0.6092(2)
C11A C 0.2579(3) -0.0399(2) 0.2398(2)
N2A N 0.37300(19) -0.05426(17) 0.18949(16)
Mn1A Mn 0.48330(3) -0.23738(3) 0.24431(3)
O1A O 0.65733(15) -0.15363(14) 0.17228(14)
C14A C 0.7700(2) -0.1956(2) 0.15404(19)
C15A C 0.8145(2) -0.3094(2) 0.1730(2)
H15A H 0.9023 -0.3278 0.1513
C16A C 0.7352(2) -0.3976(2) 0.22256(19)
O2A O 0.62017(16) -0.39216(14) 0.25973(14)
O3A O 0.39856(16) -0.24347(14) 0.09977(13)
C19A C 0.3101(2) -0.2998(2) 0.10144(19)
C20A C 0.2303(2) -0.3635(2) 0.19206(19)
H16A H 0.1660 -0.4020 0.1801
C21A C 0.2417(2) -0.37264(19) 0.29895(18)
O4A O 0.32149(16) -0.33077(15) 0.33144(13)
N1A N 0.5334(2) -0.25836(17) 0.41565(16)
C1A C 0.5929(3) -0.1772(3) 0.4212(2)
H1A H 0.6139 -0.1121 0.3514
C2A C 0.6251(3) -0.1835(3) 0.5231(2)
H2A H 0.6658 -0.1227 0.5222
C3A C 0.5983(2) -0.2780(2) 0.6265(2)
C4A C 0.5366(2) -0.3614(2) 0.6211(2)
H3A H 0.5156 -0.4278 0.6897
C5A C 0.5052(2) -0.3485(2) 0.5161(2)
H4A H 0.4613 -0.4067 0.5149
C6A C 0.6332(3) -0.2867(2) 0.7387(2)
H5A H 0.5865 -0.2153 0.7413
H6A H 0.6004 -0.3567 0.8023
C7A C 0.7834(3) -0.2975(2) 0.7571(2)
H7A H 0.8290 -0.3744 0.7656
H8A H 0.8188 -0.2336 0.6886
C8A C 0.8157(3) -0.2891(2) 0.8631(2)
H9A H 0.9140 -0.3006 0.8735
H10A H 0.7808 -0.3529 0.9319
C9A C 0.7550(2) -0.1708(2) 0.85132(19)
C10A C 0.8069(3) -0.0688(2) 0.7778(2)
H11A H 0.8874 -0.0738 0.7394
C13A C 0.6388(2) -0.1564(2) 0.90600(18)
H14A H 0.6007 -0.2239 0.9593
C23A C 0.1444(2) -0.4382(2) 0.3908(2)
F4A F 0.0802(2) -0.50410(19) 0.36662(15)
F5A F 0.05157(18) -0.36214(18) 0.40288(18)
F6A F 0.20455(16) -0.50760(16) 0.49186(13)
C22A C 0.2914(3) -0.3011(3) -0.0106(2)
F13A F 0.2819(15) -0.1960(13) -0.0986(10)
F14A F 0.3933(8) -0.3611(12) -0.0321(10)
F15A F 0.1934(17) -0.3526(15) -0.0118(15)
C18A C 0.7915(3) -0.5186(2) 0.2340(3)
F1A F 0.91157(18) -0.52376(18) 0.1905(2)
F2A F 0.71260(19) -0.54906(18) 0.18159(19)
F3A F 0.7995(3) -0.60199(15) 0.34223(18)
C17A C 0.8682(3) -0.1064(2) 0.1059(3)
F7A F 0.9394(9) -0.1091(9) 0.1755(7)
F8A F 0.8118(10) -0.0007(9) 0.0407(9)
F9A F 0.9553(7) -0.1314(8) 0.0334(6)
C12A C 0.4214(2) 0.0447(2) 0.11673(18)
H13A H 0.5017 0.0375 0.0788
H12A H 0.2195 -0.1083 0.2901
loop_
_geom_bond_atom_site_label_1
_geom_bond_atom_site_label_2
_geom_bond_site_symmetry_1
_geom_bond_site_symmetry_2
Mn1 O1 1_555 1_555
F1 C18 1_555 1_555
F2 C18 1_555 1_555
F3 C18 1_555 1_555
F4 C23 1_555 1_555
F5 C23 1_555 1_555
F6 C23 1_555 1_555
O1 C14 1_555 1_555
O2 Mn1 1_555 1_555
O3 Mn1 1_555 1_555
O4 Mn1 1_555 1_555
N1 Mn1 1_555 1_555
N2 Mn1 1_555 1_555
C1 N1 1_555 1_555
H1 C1 1_555 1_555
C2 C1 1_555 1_555
H2 C2 1_555 1_555
C3 C2 1_555 1_555
C4 C3 1_555 1_555
H3 C4 1_555 1_555
C5 N1 1_555 1_555
H4 C5 1_555 1_555
C6 C3 1_555 1_555
H5 C6 1_555 1_555
H6 C6 1_555 1_555
C7 C6 1_555 1_555
H7 C7 1_555 1_555
H8 C7 1_555 1_555
C8 C7 1_555 1_555
H9 C8 1_555 1_555
H10 C8 1_555 1_555
C9 C8 1_555 1_555
C10 C9 1_555 1_555
H11 C10 1_555 1_555
C11 N2 1_555 1_555
H12 C11 1_555 1_555
C12 N2 1_555 1_555
H13 C12 1_555 1_555
C13 C9 1_555 1_555
H14 C13 1_555 1_555
C14 C15 1_555 1_555
C15 H15 1_555 1_555
C16 O2 1_555 1_555
C17 C14 1_555 1_555
F7 C17 1_555 1_555
F8 C17 1_555 1_555
F9 C17 1_555 1_555
C18 C16 1_555 1_555
C19 O3 1_555 1_555
C20 C19 1_555 1_555
H16 C20 1_555 1_555
C21 O4 1_555 1_555
C22 C19 1_555 1_555
F13 C22 1_555 1_555
F14 C22 1_555 1_555
F15 C22 1_555 1_555
C23 C21 1_555 1_555
C24 H17 1_555 1_555
H18 C24 1_555 1_555
H19 C24 1_555 1_555
C25 C24 1_555 1_555
C26 C25 1_555 1_555
H21 C26 1_555 1_555
C27 C25 1_555 1_555
H22 C27 1_555 1_555
C11A C10 1_555 1_555
N2A C11A 1_555 1_555
Mn1A N2A 1_555 1_555
O1A Mn1A 1_555 1_555
C14A O1A 1_555 1_555
C15A C14A 1_555 1_555
H15A C15A 1_555 1_555
C16A C15A 1_555 1_555
O2A Mn1A 1_555 1_555
O3A Mn1A 1_555 1_555
C19A O3A 1_555 1_555
C20A C19A 1_555 1_555
H16A C20A 1_555 1_555
C21A C20A 1_555 1_555
O4A Mn1A 1_555 1_555
N1A Mn1A 1_555 1_555
C1A N1A 1_555 1_555
H1A C1A 1_555 1_555
C2A C1A 1_555 1_555
H2A C2A 1_555 1_555
C3A C2A 1_555 1_555
C4A C3A 1_555 1_555
H3A C4A 1_555 1_555
C5A N1A 1_555 1_555
H4A C5A 1_555 1_555
C6A C3A 1_555 1_555
H5A C6A 1_555 1_555
H6A C6A 1_555 1_555
C7A C6A 1_555 1_555
H7A C7A 1_555 1_555
H8A C7A 1_555 1_555
C8A C7A 1_555 1_555
H9A C8A 1_555 1_555
H10A C8A 1_555 1_555
C9A C8A 1_555 1_555
C10A C11 1_555 1_555
H11A C10A 1_555 1_555
C13A C12 1_555 1_555
H14A C13A 1_555 1_555
C23A C21A 1_555 1_555
F4A C23A 1_555 1_555
F5A C23A 1_555 1_555
F6A C23A 1_555 1_555
C22A C19A 1_555 1_555
F13A C22A 1_555 1_555
F14A C22A 1_555 1_555
F15A C22A 1_555 1_555
C18A C16A 1_555 1_555
F1A C18A 1_555 1_555
F2A C18A 1_555 1_555
F3A C18A 1_555 1_555
C17A C14A 1_555 1_555
F7A C17A 1_555 1_555
F8A C17A 1_555 1_555
F9A C17A 1_555 1_555
C12A C13 1_555 1_555
H13A C12A 1_555 1_555
H12A C11A 1_555 1_555
C27A C26 1_555 1_555
C25A C27A 1_555 1_555
C24A C25A 1_555 1_555
H17A C24A 1_555 1_555
H18A C24A 1_555 1_555
H19A C24A 1_555 1_555
C26A C27 1_555 1_555
H21A C26A 1_555 1_555
H22A C27A 1_555 1_555
C4 C5 1_555 1_555
C15 C16 1_555 1_555
C20 C21 1_555 1_555
N2A C12A 1_555 1_555
C16A O2A 1_555 1_555
C21A O4A 1_555 1_555
C4A C5A 1_555 1_555
C9A C10A 1_555 1_555
C9A C13A 1_555 1_555
C25A C26A 1_555 1_555

#END
