
#######################################################################
#
#                 Cambridge Crystallographic Data Centre
#                                CCDC 
#
#######################################################################
#
# If this CIF has been generated from an entry in the Cambridge 
# Structural Database, then it will include bibliographic, chemical, 
# crystal, experimental, refinement or atomic coordinate data resulting 
# from the CCDC's data processing and validation procedures.
#
#######################################################################

data_NERFAR
_chemical_formula_moiety         'C46 H32 F24 Mn2 N4 O8,C13 H12'
_chemical_name_systematic        
"bis((\m~2~-4,4'-Trimethylene-dipyridine)-bis(hexafluoroacetylacetonato)-manganese(ii)) diphenylmethane clathrate"
_symmetry_cell_setting           monoclinic
_symmetry_space_group_name_H-M   'C 2/m'
_symmetry_Int_Tables_number      12
_space_group_name_Hall           '-C 2y'
loop_
_symmetry_equiv_pos_site_id
_symmetry_equiv_pos_as_xyz
1 x,y,z
2 1/2+x,1/2+y,z
3 x,-y,z
4 1/2+x,1/2-y,z
5 -x,-y,-z
6 1/2-x,1/2-y,-z
7 -x,y,-z
8 1/2-x,1/2+y,-z
_cell_length_a                   13.3971(18)
_cell_length_b                   23.866(4)
_cell_length_c                   10.1985(16)
_cell_angle_alpha                90
_cell_angle_beta                 95.702(11)
_cell_angle_gamma                90
_cell_volume                     3244.69
_exptl_crystal_colour            yellow
_exptl_crystal_description       plate
_cell_formula_units_Z            2
_exptl_crystal_recrystallization_method acetone/hexane/diphenylmethane
loop_
_atom_site_label
_atom_site_type_symbol
_atom_site_fract_x
_atom_site_fract_y
_atom_site_fract_z
C13 C 0.5818(14) 0.4481(10) 0.604(2)
C14 C 0.5000 0.4488(6) 0.5000
C15 C 0.5469(18) 0.5000 0.553(3)
C16 C 0.6283(10) 0.5000 0.6557(15)
C17 C 0.5868(12) 0.5000 0.7976(13)
C18 C 0.5639(9) 0.5506(2) 0.8554(13)
C13F C 0.4182(14) 0.4481(10) 0.396(2)
C15F C 0.4531(18) 0.5000 0.447(3)
C13D C 0.4182(14) 0.5519(10) 0.396(2)
C14D C 0.5000 0.5512(6) 0.5000
C13B C 0.5818(14) 0.5519(10) 0.604(2)
C16F C 0.3717(10) 0.5000 0.3443(15)
C17F C 0.4132(12) 0.5000 0.2024(13)
C18F C 0.4361(9) 0.5506(2) 0.1446(13)
C18D C 0.4361(9) 0.4494(2) 0.1446(13)
C18B C 0.5639(9) 0.4494(2) 0.8554(13)
Mn1 Mn 1.0000 0.74811(5) 1.0000
F1 F 1.1666(3) 0.7005(2) 0.5445(4)
F2 F 1.2379(2) 0.75528(16) 0.6895(4)
F3 F 1.1105(3) 0.7838(2) 0.5666(5)
F4 F 0.9007(5) 0.56573(18) 0.8231(6)
F5 F 0.7902(3) 0.6162(2) 0.7345(8)
F6 F 0.8989(5) 0.5859(2) 0.6254(6)
O1 O 1.0846(3) 0.74985(15) 0.8331(4)
O2 O 0.9258(3) 0.67879(16) 0.8864(4)
N1 N 0.8888(3) 0.81098(18) 0.9053(5)
C1 C 1.0806(4) 0.7198(2) 0.7322(5)
C2 C 1.0199(4) 0.6740(2) 0.7020(6)
H1 H 1.0285 0.6529 0.6249
C3 C 0.9463(4) 0.6577(2) 0.7820(6)
C4 C 1.1498(5) 0.7402(3) 0.6303(6)
C5 C 0.8840(5) 0.6065(3) 0.7395(8)
C6 C 0.9028(5) 0.8352(3) 0.7923(7)
H2 H 0.9578 0.8228 0.7480
C7 C 0.8432(5) 0.8772(3) 0.7339(7)
H3 H 0.8580 0.8928 0.6523
C8 C 0.7621(4) 0.8966(2) 0.7945(6)
C9 C 0.7453(4) 0.8706(2) 0.9092(7)
H4 H 0.6893 0.8814 0.9535
C10 C 0.8083(4) 0.8286(2) 0.9626(6)
H5 H 0.7940 0.8116 1.0429
C11 C 0.7020(4) 0.9465(2) 0.7405(7)
H6 H 0.6344 0.9457 0.7719
H7 H 0.6941 0.9451 0.6430
C12 C 0.7557(6) 1.0000 0.7862(11)
H8 H 0.7653 1.0000 0.8838
H9 H 0.8231 1.0000 0.7541
O1F O 0.9154(3) 0.74985(15) 1.1669(4)
C1F C 0.9194(4) 0.7198(2) 1.2678(5)
C2F C 0.9801(4) 0.6740(2) 1.2980(6)
H1F H 0.9715 0.6529 1.3751
C3F C 1.0537(4) 0.6577(2) 1.2180(6)
O2F O 1.0742(3) 0.67879(16) 1.1136(4)
C11B C 0.7020(4) 1.0535(2) 0.7405(7)
C8B C 0.7621(4) 1.1034(2) 0.7945(6)
C7B C 0.8432(5) 1.1228(3) 0.7339(7)
C6B C 0.9028(5) 1.1648(3) 0.7923(7)
N1B N 0.8888(3) 1.18902(18) 0.9053(5)
Mn1B Mn 1.0000 1.25189(5) 1.0000
O1B O 1.0846(3) 1.25015(15) 0.8331(4)
C1B C 1.0806(4) 1.2802(2) 0.7322(5)
C2B C 1.0199(4) 1.3260(2) 0.7020(6)
H1B H 1.0285 1.3471 0.6249
C3B C 0.9463(4) 1.3423(2) 0.7820(6)
O2B O 0.9258(3) 1.32121(16) 0.8864(4)
O1D O 0.9154(3) 1.25015(15) 1.1669(4)
C1D C 0.9194(4) 1.2802(2) 1.2678(5)
C2D C 0.9801(4) 1.3260(2) 1.2980(6)
H1D H 0.9715 1.3471 1.3751
C3D C 1.0537(4) 1.3423(2) 1.2180(6)
O2D O 1.0742(3) 1.32121(16) 1.1136(4)
N1D N 1.1112(3) 1.18902(18) 1.0947(5)
C6D C 1.0972(5) 1.1648(3) 1.2077(7)
H2D H 1.0422 1.1772 1.2520
C7D C 1.1568(5) 1.1228(3) 1.2661(7)
H3D H 1.1420 1.1072 1.3477
C8D C 1.2379(4) 1.1034(2) 1.2055(6)
C9D C 1.2547(4) 1.1294(2) 1.0908(7)
H4D H 1.3107 1.1186 1.0465
C10D C 1.1917(4) 1.1714(2) 1.0374(6)
H5D H 1.2060 1.1884 0.9571
C11D C 1.2980(4) 1.0535(2) 1.2595(7)
H6D H 1.3656 1.0543 1.2281
H7D H 1.3059 1.0549 1.3570
C12D C 1.2443(6) 1.0000 1.2138(11)
C11F C 1.2980(4) 0.9465(2) 1.2595(7)
C8F C 1.2379(4) 0.8966(2) 1.2055(6)
C7F C 1.1568(5) 0.8772(3) 1.2661(7)
C6F C 1.0972(5) 0.8352(3) 1.2077(7)
N1F N 1.1112(3) 0.81098(18) 1.0947(5)
C10F C 1.1917(4) 0.8286(2) 1.0374(6)
C9F C 1.2547(4) 0.8706(2) 1.0908(7)
H4F H 1.3107 0.8814 1.0465
H5F H 1.2060 0.8116 0.9571
H2F H 1.0422 0.8228 1.2520
H3F H 1.1420 0.8928 1.3477
H6F H 1.3656 0.9457 1.2281
H7F H 1.3059 0.9451 1.3570
H8D H 1.2347 1.0000 1.1162
H9D H 1.1769 1.0000 1.2459
C5D C 1.1160(5) 1.3935(3) 1.2605(8)
F4D F 1.0993(5) 1.43427(18) 1.1769(6)
F5D F 1.2098(3) 1.3838(2) 1.2655(8)
F6D F 1.1011(5) 1.4141(2) 1.3746(6)
C4D C 0.8502(5) 1.2598(3) 1.3697(6)
F1D F 0.8334(3) 1.2995(2) 1.4555(4)
F2D F 0.7621(2) 1.24472(16) 1.3105(4)
F3D F 0.8895(3) 1.2162(2) 1.4334(5)
C5B C 0.8840(5) 1.3935(3) 0.7395(8)
F4B F 0.9007(5) 1.43427(18) 0.8231(6)
F5B F 0.7902(3) 1.3838(2) 0.7345(8)
F6B F 0.8989(5) 1.4141(2) 0.6254(6)
C4B C 1.1498(5) 1.2598(3) 0.6303(6)
F1B F 1.1666(3) 1.2995(2) 0.5445(4)
F2B F 1.2379(2) 1.24472(16) 0.6895(4)
F3B F 1.1105(3) 1.2162(2) 0.5666(5)
C10B C 0.8083(4) 1.1714(2) 0.9626(6)
C9B C 0.7453(4) 1.1294(2) 0.9092(7)
H4B H 0.6893 1.1186 0.9535
H5B H 0.7940 1.1884 1.0429
H2B H 0.9578 1.1772 0.7480
H3B H 0.8580 1.1072 0.6523
H6B H 0.6344 1.0543 0.7719
H7B H 0.6941 1.0549 0.6430
C5F C 1.1160(5) 0.6065(3) 1.2605(8)
F4F F 1.0993(5) 0.56573(18) 1.1769(6)
F5F F 1.2098(3) 0.6162(2) 1.2655(8)
F6F F 1.1011(5) 0.5859(2) 1.3746(6)
C4F C 0.8502(5) 0.7402(3) 1.3697(6)
F1F F 0.8334(3) 0.7005(2) 1.4555(4)
F2F F 0.7621(2) 0.75528(16) 1.3105(4)
F3F F 0.8895(3) 0.7838(2) 1.4334(5)
loop_
_geom_bond_atom_site_label_1
_geom_bond_atom_site_label_2
_geom_bond_site_symmetry_1
_geom_bond_site_symmetry_2
Mn1 O1 1_555 1_555
F1 C4 1_555 1_555
F2 C4 1_555 1_555
F3 C4 1_555 1_555
F4 C5 1_555 1_555
F5 C5 1_555 1_555
F6 C5 1_555 1_555
O1 C1 1_555 1_555
O2 Mn1 1_555 1_555
N1 Mn1 1_555 1_555
C1 C2 1_555 1_555
C2 H1 1_555 1_555
C3 O2 1_555 1_555
C4 C1 1_555 1_555
C5 C3 1_555 1_555
C6 N1 1_555 1_555
H2 C6 1_555 1_555
C7 C6 1_555 1_555
H3 C7 1_555 1_555
C8 C7 1_555 1_555
C9 C8 1_555 1_555
H4 C9 1_555 1_555
C10 N1 1_555 1_555
H5 C10 1_555 1_555
C11 C8 1_555 1_555
H6 C11 1_555 1_555
H7 C11 1_555 1_555
C12 C11 1_555 1_555
H8 C12 1_555 1_555
H9 C12 1_555 1_555
C13 C14 1_555 1_555
C14 C15 1_555 1_555
C15 C13 1_555 1_555
C16 C13 1_555 1_555
C17 C16 1_555 1_555
C18 C17 1_555 1_555
O1F Mn1 1_555 1_555
C1F O1F 1_555 1_555
C2F C1F 1_555 1_555
H1F C2F 1_555 1_555
C3F C2F 1_555 1_555
O2F Mn1 1_555 1_555
C11B C12 1_555 1_555
C8B C11B 1_555 1_555
C7B C8B 1_555 1_555
C6B C7B 1_555 1_555
N1B C6B 1_555 1_555
Mn1B N1B 1_555 1_555
O1B Mn1B 1_555 1_555
C1B O1B 1_555 1_555
C2B C1B 1_555 1_555
H1B C2B 1_555 1_555
C3B C2B 1_555 1_555
O2B Mn1B 1_555 1_555
O1D Mn1B 1_555 1_555
C1D O1D 1_555 1_555
C2D C1D 1_555 1_555
H1D C2D 1_555 1_555
C3D C2D 1_555 1_555
O2D Mn1B 1_555 1_555
N1D Mn1B 1_555 1_555
C6D N1D 1_555 1_555
H2D C6D 1_555 1_555
C7D C6D 1_555 1_555
H3D C7D 1_555 1_555
C8D C7D 1_555 1_555
C9D C8D 1_555 1_555
H4D C9D 1_555 1_555
C10D N1D 1_555 1_555
H5D C10D 1_555 1_555
C11D C8D 1_555 1_555
H6D C11D 1_555 1_555
H7D C11D 1_555 1_555
C12D C11D 1_555 1_555
C11F C12D 1_555 1_555
C8F C11F 1_555 1_555
C7F C8F 1_555 1_555
C6F C7F 1_555 1_555
N1F Mn1 1_555 1_555
C10F N1F 1_555 1_555
C9F C8F 1_555 1_555
H4F C9F 1_555 1_555
H5F C10F 1_555 1_555
H2F C6F 1_555 1_555
H3F C7F 1_555 1_555
H6F C11F 1_555 1_555
H7F C11F 1_555 1_555
H8D C12D 1_555 1_555
H9D C12D 1_555 1_555
C5D C3D 1_555 1_555
F4D C5D 1_555 1_555
F5D C5D 1_555 1_555
F6D C5D 1_555 1_555
C4D C1D 1_555 1_555
F1D C4D 1_555 1_555
F2D C4D 1_555 1_555
F3D C4D 1_555 1_555
C5B C3B 1_555 1_555
F4B C5B 1_555 1_555
F5B C5B 1_555 1_555
F6B C5B 1_555 1_555
C4B C1B 1_555 1_555
F1B C4B 1_555 1_555
F2B C4B 1_555 1_555
F3B C4B 1_555 1_555
C10B N1B 1_555 1_555
C9B C8B 1_555 1_555
H4B C9B 1_555 1_555
H5B C10B 1_555 1_555
H2B C6B 1_555 1_555
H3B C7B 1_555 1_555
H6B C11B 1_555 1_555
H7B C11B 1_555 1_555
C5F C3F 1_555 1_555
F4F C5F 1_555 1_555
F5F C5F 1_555 1_555
F6F C5F 1_555 1_555
C4F C1F 1_555 1_555
F1F C4F 1_555 1_555
F2F C4F 1_555 1_555
F3F C4F 1_555 1_555
C13F C14 1_555 1_555
C15F C14 1_555 1_555
C13D C15F 1_555 1_555
C14D C15 1_555 1_555
C13B C15 1_555 1_555
C16F C13F 1_555 1_555
C17F C16F 1_555 1_555
C18F C17F 1_555 1_555
C18D C17F 1_555 1_555
C18B C17 1_555 1_555
C2 C3 1_555 1_555
C9 C10 1_555 1_555
C15 C16 1_555 1_555
C15 C15F 1_555 1_555
C16 C13B 1_555 1_555
C3F O2F 1_555 1_555
C3B O2B 1_555 1_555
C3D O2D 1_555 1_555
C9D C10D 1_555 1_555
C6F N1F 1_555 1_555
C10F C9F 1_555 1_555
C10B C9B 1_555 1_555
C13F C15F 1_555 1_555
C15F C16F 1_555 1_555
C15F C14D 1_555 1_555
C13D C14D 1_555 1_555
C13D C16F 1_555 1_555
C14D C13B 1_555 1_555

#END
