
#######################################################################
#
#                 Cambridge Crystallographic Data Centre
#                                CCDC 
#
#######################################################################
#
# If this CIF has been generated from an entry in the Cambridge 
# Structural Database, then it will include bibliographic, chemical, 
# crystal, experimental, refinement or atomic coordinate data resulting 
# from the CCDC's data processing and validation procedures.
#
#######################################################################

data_NERFEV
_chemical_formula_moiety         'C46 H32 F24 Mn2 N4 O8,C14 H12'
_chemical_name_systematic        
"bis((\m~2~-4,4'-Trimethylene-dipyridine)-bis(hexafluoroacetylacetonato)-manganese(ii)) cis-stilbene clathrate"
_symmetry_cell_setting           triclinic
_symmetry_space_group_name_H-M   'P -1'
_symmetry_Int_Tables_number      2
_space_group_name_Hall           '-P 1'
loop_
_symmetry_equiv_pos_site_id
_symmetry_equiv_pos_as_xyz
1 x,y,z
2 -x,-y,-z
_cell_length_a                   13.6022(6)
_cell_length_b                   15.4929(6)
_cell_length_c                   17.3102(5)
_cell_angle_alpha                69.198(2)
_cell_angle_beta                 72.195(2)
_cell_angle_gamma                73.270(2)
_cell_volume                     3180.24
_exptl_crystal_colour            yellow
_exptl_crystal_description       prism
_cell_formula_units_Z            2
_exptl_crystal_recrystallization_method acetone/hexanes/cis-stilbene
loop_
_atom_site_label
_atom_site_type_symbol
_atom_site_fract_x
_atom_site_fract_y
_atom_site_fract_z
Mn1 Mn 0.76002(3) 0.60428(3) 0.12555(2)
F1 F 0.96799(19) 0.82385(16) -0.16736(12)
F2 F 0.83053(19) 0.79455(19) -0.17855(12)
F3 F 0.96272(18) 0.68429(15) -0.15450(11)
F4 F 0.8394(2) 0.95627(15) 0.05619(14)
F5 F 0.82851(19) 0.85883(15) 0.17915(13)
F6 F 0.69034(19) 0.93300(17) 0.13504(17)
F7 F 0.9555(2) 0.6476(3) 0.3248(2)
F8 F 1.0369(3) 0.5141(2) 0.3152(3)
F9 F 1.0458(3) 0.6327(4) 0.20724(16)
F13 F 0.63962(17) 0.53171(18) 0.46718(11)
F14 F 0.62232(19) 0.42562(17) 0.42513(13)
F15 F 0.53128(16) 0.56410(19) 0.39006(13)
O1 O 0.82868(16) 0.66696(14) -0.00550(11)
O2 O 0.74879(16) 0.74613(14) 0.13202(12)
O3 O 0.89511(15) 0.57905(14) 0.18295(12)
O4 O 0.68864(15) 0.54060(15) 0.25572(11)
N1 N 0.59416(19) 0.64966(17) 0.10638(14)
N2 N 0.80777(18) 0.46669(16) 0.09402(14)
C1 C 0.8578(2) 0.7443(2) -0.04096(17)
C2 C 0.8475(2) 0.8145(2) -0.00542(18)
H1 H 0.8775 0.8680 -0.0393
C3 C 0.7947(2) 0.8092(2) 0.07823(18)
C4 C 0.9051(3) 0.7622(2) -0.13609(19)
C5 C 0.7884(3) 0.8904(2) 0.1112(2)
C6 C 0.8860(2) 0.5765(2) 0.25744(17)
C7 C 0.8012(2) 0.5594(2) 0.32700(17)
H2 H 0.8055 0.5608 0.3803
C8 C 0.7108(2) 0.5404(2) 0.32074(17)
C9 C 0.9814(3) 0.5933(2) 0.2753(2)
C10 C 0.6252(3) 0.5163(3) 0.40118(19)
C11 C 0.5625(3) 0.7278(2) 0.0478(2)
H3 H 0.6116 0.7671 0.0142
C12 C 0.4616(3) 0.7549(2) 0.0330(2)
H4 H 0.4433 0.8115 -0.0096
C13 C 0.3881(2) 0.6995(2) 0.08038(17)
C14 C 0.4202(2) 0.6204(2) 0.14170(19)
H5 H 0.3720 0.5805 0.1767
C15 C 0.5211(2) 0.5978(2) 0.15348(19)
H6 H 0.5400 0.5426 0.1972
C16 C 0.2786(2) 0.7180(2) 0.06692(19)
H7 H 0.2278 0.7362 0.1161
H8 H 0.2658 0.6580 0.0675
C17 C 0.2536(3) 0.7924(2) -0.0130(2)
H9 H 0.3119 0.7832 -0.0621
H10 H 0.2482 0.8555 -0.0082
C18 C 0.1501(2) 0.7885(2) -0.0288(2)
H11 H 0.0933 0.7904 0.0228
H12 H 0.1305 0.8446 -0.0755
C19 C 0.1591(2) 0.7008(2) -0.05146(18)
C20 C 0.1104(2) 0.6263(2) 0.00221(18)
H13 H 0.0639 0.6314 0.0547
C21 C 0.8708(2) 0.4547(2) 0.02022(17)
H14 H 0.9041 0.5047 -0.0184
C22 C 0.7646(2) 0.3932(2) 0.14750(18)
H15 H 0.7220 0.3984 0.2012
C23 C 0.2212(2) 0.6892(2) -0.12854(18)
H16 H 0.2544 0.7387 -0.1687
C21A C 0.1292(2) 0.5453(2) -0.02022(17)
N2A N 0.19223(18) 0.53331(16) -0.09402(14)
Mn1A Mn 0.23998(3) 0.39572(3) -0.12555(2)
O1A O 0.17132(16) 0.33304(14) 0.00550(11)
C1A C 0.1422(2) 0.2557(2) 0.04096(17)
C2A C 0.1525(2) 0.1855(2) 0.00542(18)
H1A H 0.1225 0.1320 0.0393
C3A C 0.2053(2) 0.1908(2) -0.07823(18)
O2A O 0.25121(16) 0.25387(14) -0.13202(12)
O3A O 0.10489(15) 0.42095(14) -0.18295(12)
C6A C 0.1140(2) 0.4235(2) -0.25744(17)
C7A C 0.1988(2) 0.4406(2) -0.32700(17)
H2A H 0.1945 0.4392 -0.3803
C8A C 0.2892(2) 0.4596(2) -0.32074(17)
O4A O 0.31136(15) 0.45940(15) -0.25572(11)
N1A N 0.40584(19) 0.35034(17) -0.10638(14)
C11A C 0.4375(3) 0.2722(2) -0.0478(2)
H3A H 0.3884 0.2329 -0.0142
C12A C 0.5384(3) 0.2451(2) -0.0330(2)
H4A H 0.5567 0.1885 0.0096
C13A C 0.6119(2) 0.3005(2) -0.08038(17)
C14A C 0.5798(2) 0.3796(2) -0.14170(19)
H5A H 0.6280 0.4195 -0.1767
C15A C 0.4789(2) 0.4022(2) -0.15348(19)
H6A H 0.4600 0.4574 -0.1972
C16A C 0.7214(2) 0.2820(2) -0.06692(19)
H7A H 0.7722 0.2638 -0.1161
H8A H 0.7342 0.3420 -0.0675
C17A C 0.7464(3) 0.2076(2) 0.0130(2)
H9A H 0.6881 0.2168 0.0621
H10A H 0.7518 0.1445 0.0082
C18A C 0.8499(2) 0.2115(2) 0.0288(2)
H11A H 0.9067 0.2096 -0.0228
H12A H 0.8695 0.1554 0.0755
C19A C 0.8409(2) 0.2992(2) 0.05146(18)
C20A C 0.8896(2) 0.3737(2) -0.00221(18)
H13A H 0.9361 0.3686 -0.0547
C23A C 0.7788(2) 0.3108(2) 0.12854(18)
H16A H 0.7456 0.2613 0.1687
C10A C 0.3748(3) 0.4837(3) -0.40118(19)
F13A F 0.36038(17) 0.46829(18) -0.46718(11)
F14A F 0.37768(19) 0.57438(17) -0.42513(13)
F15A F 0.46872(16) 0.43590(19) -0.39006(13)
C9A C 0.0186(3) 0.4067(2) -0.2753(2)
F7A F 0.0445(2) 0.3524(3) -0.3248(2)
F8A F -0.0369(3) 0.4859(2) -0.3152(3)
F9A F -0.0458(3) 0.3673(4) -0.20724(16)
C5A C 0.2116(3) 0.1096(2) -0.1112(2)
F4A F 0.1606(2) 0.04373(15) -0.05619(14)
F5A F 0.17149(19) 0.14117(15) -0.17915(13)
F6A F 0.30966(19) 0.06700(17) -0.13504(17)
C4A C 0.0949(3) 0.2378(2) 0.13609(19)
F1A F 0.03201(19) 0.17615(16) 0.16736(12)
F2A F 0.16947(19) 0.20545(19) 0.17855(12)
F3A F 0.03728(18) 0.31571(15) 0.15450(11)
C22A C 0.2354(2) 0.6068(2) -0.14750(18)
H15A H 0.2780 0.6016 -0.2012
H14A H 0.0959 0.4953 0.0184
Mn2 Mn 0.75895(3) 0.10758(3) 0.61908(2)
F16 F 0.97596(16) 0.19628(14) 0.34737(11)
F17 F 0.85197(16) 0.31555(15) 0.32006(11)
F18 F 0.98834(15) 0.33106(14) 0.34606(11)
F19 F 0.8226(2) 0.45738(15) 0.57502(13)
F20 F 0.81314(17) 0.35183(15) 0.69479(12)
F21 F 0.67390(17) 0.42421(14) 0.64928(14)
F22 F 1.0288(3) 0.0059(2) 0.8106(4)
F23 F 0.9432(2) 0.1267(3) 0.8422(2)
F24 F 1.0292(3) 0.1349(4) 0.71952(17)
F28 F 0.62537(17) 0.00990(19) 0.96326(11)
F29 F 0.5862(2) -0.06569(18) 0.89915(14)
F30 F 0.52105(16) 0.07987(18) 0.88115(13)
O5 O 0.83228(16) 0.17630(14) 0.49055(11)
O6 O 0.73901(16) 0.24624(14) 0.63218(12)
O7 O 0.88742(15) 0.07889(14) 0.68416(11)
O8 O 0.68204(15) 0.04081(15) 0.74659(12)
N3 N 0.80815(18) -0.02449(16) 0.58173(14)
N4 N 0.5937(2) 0.14197(18) 0.60147(15)
C24 C 0.8648(2) 0.2518(2) 0.46188(17)
C25 C 0.8513(2) 0.3173(2) 0.50379(17)
H17 H 0.8860 0.3690 0.4760
C26 C 0.7882(2) 0.3096(2) 0.58537(18)
C27 C 0.9216(2) 0.2735(2) 0.36814(18)
C28 C 0.7752(3) 0.3868(2) 0.6255(2)
C29 C 0.8744(2) 0.0738(2) 0.75990(17)
C30 C 0.7865(2) 0.0567(2) 0.82605(17)
H18 H 0.7870 0.0565 0.8809
C31 C 0.6981(2) 0.0398(2) 0.81403(17)
C32 C 0.9682(3) 0.0866(2) 0.7831(2)
C33 C 0.6073(3) 0.0157(3) 0.8901(2)
C34 C 0.7630(2) -0.0985(2) 0.63167(18)
H19 H 0.7174 -0.0947 0.6848
C35 C 0.7798(2) -0.1789(2) 0.60927(19)
H20 H 0.7451 -0.2287 0.6464
C36 C 0.8471(2) -0.1883(2) 0.53272(17)
C37 C 0.8970(2) -0.1137(2) 0.48279(17)
H21 H 0.9461 -0.1174 0.4309
C38 C 0.8749(2) -0.0343(2) 0.50877(17)
H22 H 0.9090 0.0163 0.4729
C39 C 0.8595(2) -0.2725(2) 0.50407(19)
H23 H 0.8774 -0.3309 0.5494
H24 H 0.9181 -0.2717 0.4531
C40 C 0.7572(2) -0.2720(2) 0.48308(18)
H25 H 0.7639 -0.3323 0.4722
H26 H 0.6979 -0.2676 0.5327
C41 C 0.7322(2) -0.1904(2) 0.40578(19)
H27 H 0.7469 -0.1326 0.4083
H28 H 0.7787 -0.2048 0.3535
C42 C 0.6195(2) -0.1729(2) 0.40177(18)
C43 C 0.5882(3) -0.2073(2) 0.3519(2)
H29 H 0.6395 -0.2421 0.3168
C44 C 0.5167(3) 0.1919(2) 0.6478(2)
H30 H 0.5356 0.2178 0.6821
C45 C 0.5635(2) 0.1070(2) 0.55370(18)
H31 H 0.6159 0.0707 0.5205
C46 C 0.5406(3) -0.1215(2) 0.4493(2)
H32 H 0.5578 -0.0957 0.4845
C44A C 0.4833(3) -0.1919(2) 0.3522(2)
N4A N 0.4063(2) -0.14197(18) 0.39853(15)
Mn2A Mn 0.24105(3) -0.10758(3) 0.38092(2)
O5A O 0.16772(16) -0.17630(14) 0.50945(11)
C24A C 0.1352(2) -0.2518(2) 0.53812(17)
C25A C 0.1487(2) -0.3173(2) 0.49621(17)
H17A H 0.1140 -0.3690 0.5240
C26A C 0.2118(2) -0.3096(2) 0.41463(18)
O6A O 0.26099(16) -0.24624(14) 0.36782(12)
O7A O 0.11258(15) -0.07889(14) 0.31584(11)
C29A C 0.1256(2) -0.0738(2) 0.24010(17)
C30A C 0.2135(2) -0.0567(2) 0.17395(17)
H18A H 0.2130 -0.0565 0.1191
C31A C 0.3019(2) -0.0398(2) 0.18597(17)
O8A O 0.31796(15) -0.04081(15) 0.25341(12)
N3A N 0.19185(18) 0.02449(16) 0.41827(14)
C34A C 0.2370(2) 0.0985(2) 0.36833(18)
H19A H 0.2826 0.0947 0.3152
C35A C 0.2202(2) 0.1789(2) 0.39073(19)
H20A H 0.2549 0.2287 0.3536
C36A C 0.1529(2) 0.1883(2) 0.46728(17)
C37A C 0.1030(2) 0.1137(2) 0.51721(17)
H21A H 0.0539 0.1174 0.5691
C38A C 0.1251(2) 0.0343(2) 0.49123(17)
H22A H 0.0910 -0.0163 0.5271
C39A C 0.1405(2) 0.2725(2) 0.49593(19)
H23A H 0.1226 0.3309 0.4506
H24A H 0.0819 0.2717 0.5469
C40A C 0.2428(2) 0.2720(2) 0.51692(18)
H25A H 0.2361 0.3323 0.5278
H26A H 0.3021 0.2676 0.4673
C41A C 0.2678(2) 0.1904(2) 0.59422(19)
H27A H 0.2531 0.1326 0.5917
H28A H 0.2213 0.2048 0.6465
C42A C 0.3805(2) 0.1729(2) 0.59823(18)
C43A C 0.4118(3) 0.2073(2) 0.6481(2)
H29A H 0.3605 0.2421 0.6832
C46A C 0.4594(3) 0.1215(2) 0.5507(2)
H32A H 0.4422 0.0957 0.5155
C33A C 0.3927(3) -0.0157(3) 0.1099(2)
F28A F 0.37463(17) -0.00990(19) 0.03674(11)
F29A F 0.4138(2) 0.06569(18) 0.10085(14)
F30A F 0.47895(16) -0.07987(18) 0.11885(13)
C32A C 0.0318(3) -0.0866(2) 0.2169(2)
F22A F -0.0288(3) -0.0059(2) 0.1894(4)
F23A F 0.0568(2) -0.1267(3) 0.1578(2)
F24A F -0.0292(3) -0.1349(4) 0.28048(17)
C28A C 0.2248(3) -0.3868(2) 0.3745(2)
F19A F 0.1774(2) -0.45738(15) 0.42498(13)
F20A F 0.18686(17) -0.35183(15) 0.30521(12)
F21A F 0.32610(17) -0.42421(14) 0.35072(14)
C27A C 0.0784(2) -0.2735(2) 0.63186(18)
F16A F 0.02404(16) -0.19628(14) 0.65263(11)
F17A F 0.14803(16) -0.31555(15) 0.67994(11)
F18A F 0.01166(15) -0.33106(14) 0.65394(11)
C45A C 0.4365(2) -0.1070(2) 0.44630(18)
H31A H 0.3841 -0.0707 0.4795
H30A H 0.4644 -0.2178 0.3179
C47 C 0.2997(3) 0.4078(2) 0.2467(3)
H33 H 0.2506 0.4140 0.2980
C48 C 0.2635(4) 0.4254(3) 0.1758(4)
H34 H 0.1899 0.4404 0.1788
C49 C 0.3335(4) 0.4213(3) 0.1010(4)
H35 H 0.3082 0.4339 0.0518
C50 C 0.4408(4) 0.3991(3) 0.0958(3)
H36 H 0.4894 0.3983 0.0432
C51 C 0.4765(3) 0.3782(2) 0.1682(2)
H37 H 0.5502 0.3615 0.1653
C52 C 0.4068(3) 0.3811(2) 0.2450(2)
C53 C 0.4436(3) 0.3634(2) 0.3213(2)
H38 H 0.4095 0.4072 0.3529
C54 C 0.5187(3) 0.2938(2) 0.3529(2)
H39 H 0.5348 0.2988 0.4007
C55 C 0.5801(3) 0.2109(2) 0.32482(18)
C56 C 0.6805(3) 0.1712(3) 0.34009(19)
H40 H 0.7078 0.1976 0.3690
C57 C 0.7411(3) 0.0940(3) 0.3139(2)
H41 H 0.8101 0.0685 0.3239
C58 C 0.7021(3) 0.0540(3) 0.2735(2)
H42 H 0.7444 0.0018 0.2543
C59 C 0.6017(3) 0.0897(3) 0.2608(2)
H43 H 0.5737 0.0605 0.2347
C60 C 0.5410(3) 0.1676(2) 0.2856(2)
H44 H 0.4718 0.1920 0.2760
F10? F 0.9861(16) 0.6765(13) 0.2405(14)
F11? F 0.9787(14) 0.5716(16) 0.3515(10)
F12? F 1.0622(11) 0.5474(12) 0.2456(10)
F25? F 0.9709(11) 0.0434(12) 0.8591(8)
F26? F 0.9649(12) 0.1701(9) 0.7657(10)
F27? F 1.0504(12) 0.0511(13) 0.7442(10)
loop_
_geom_bond_atom_site_label_1
_geom_bond_atom_site_label_2
_geom_bond_site_symmetry_1
_geom_bond_site_symmetry_2
Mn1 O1 1_555 1_555
Mn2 O5 1_555 1_555
F1 C4 1_555 1_555
F2 C4 1_555 1_555
F3 C4 1_555 1_555
F4 C5 1_555 1_555
F5 C5 1_555 1_555
F6 C5 1_555 1_555
F7 C9 1_555 1_555
F8 C9 1_555 1_555
F9 C9 1_555 1_555
F13 C10 1_555 1_555
F14 C10 1_555 1_555
F15 C10 1_555 1_555
F16 C27 1_555 1_555
F17 C27 1_555 1_555
F18 C27 1_555 1_555
F19 C28 1_555 1_555
F20 C28 1_555 1_555
F21 C28 1_555 1_555
F22 C32 1_555 1_555
F23 C32 1_555 1_555
F24 C32 1_555 1_555
F28 C33 1_555 1_555
F29 C33 1_555 1_555
F30 C33 1_555 1_555
O1 C1 1_555 1_555
O2 Mn1 1_555 1_555
O3 Mn1 1_555 1_555
O4 Mn1 1_555 1_555
O5 C24 1_555 1_555
O6 Mn2 1_555 1_555
O7 Mn2 1_555 1_555
O8 Mn2 1_555 1_555
N1 Mn1 1_555 1_555
N2 Mn1 1_555 1_555
N3 Mn2 1_555 1_555
N4 Mn2 1_555 1_555
C1 C2 1_555 1_555
C2 H1 1_555 1_555
C3 O2 1_555 1_555
C4 C1 1_555 1_555
C5 C3 1_555 1_555
C6 O3 1_555 1_555
C7 C6 1_555 1_555
H2 C7 1_555 1_555
C8 O4 1_555 1_555
C9 C6 1_555 1_555
C10 C8 1_555 1_555
C11 N1 1_555 1_555
H3 C11 1_555 1_555
C12 C11 1_555 1_555
H4 C12 1_555 1_555
C13 C12 1_555 1_555
C14 C13 1_555 1_555
H5 C14 1_555 1_555
C15 N1 1_555 1_555
H6 C15 1_555 1_555
C16 C13 1_555 1_555
H7 C16 1_555 1_555
H8 C16 1_555 1_555
C17 C16 1_555 1_555
H9 C17 1_555 1_555
H10 C17 1_555 1_555
C18 C17 1_555 1_555
H11 C18 1_555 1_555
H12 C18 1_555 1_555
C19 C18 1_555 1_555
C20 C19 1_555 1_555
H13 C20 1_555 1_555
C21 N2 1_555 1_555
H14 C21 1_555 1_555
C22 N2 1_555 1_555
H15 C22 1_555 1_555
C23 C19 1_555 1_555
H16 C23 1_555 1_555
C24 C25 1_555 1_555
C25 H17 1_555 1_555
C26 O6 1_555 1_555
C27 C24 1_555 1_555
C28 C26 1_555 1_555
C29 O7 1_555 1_555
C30 C29 1_555 1_555
H18 C30 1_555 1_555
C31 O8 1_555 1_555
C32 C29 1_555 1_555
C33 C31 1_555 1_555
C34 N3 1_555 1_555
H19 C34 1_555 1_555
C35 C34 1_555 1_555
H20 C35 1_555 1_555
C36 C35 1_555 1_555
C37 C36 1_555 1_555
H21 C37 1_555 1_555
C38 N3 1_555 1_555
H22 C38 1_555 1_555
C39 C36 1_555 1_555
H23 C39 1_555 1_555
H24 C39 1_555 1_555
C40 C39 1_555 1_555
H25 C40 1_555 1_555
H26 C40 1_555 1_555
C41 C40 1_555 1_555
H27 C41 1_555 1_555
H28 C41 1_555 1_555
C42 C41 1_555 1_555
C43 C42 1_555 1_555
H29 C43 1_555 1_555
C44 N4 1_555 1_555
H30 C44 1_555 1_555
C45 N4 1_555 1_555
H31 C45 1_555 1_555
C46 C42 1_555 1_555
H32 C46 1_555 1_555
C47 H33 1_555 1_555
C48 C47 1_555 1_555
H34 C48 1_555 1_555
C49 C48 1_555 1_555
H35 C49 1_555 1_555
C50 C49 1_555 1_555
H36 C50 1_555 1_555
C51 C50 1_555 1_555
H37 C51 1_555 1_555
C52 C47 1_555 1_555
C53 C52 1_555 1_555
H38 C53 1_555 1_555
C54 C53 1_555 1_555
H39 C54 1_555 1_555
C55 C54 1_555 1_555
C56 C55 1_555 1_555
H40 C56 1_555 1_555
C57 C56 1_555 1_555
H41 C57 1_555 1_555
C58 C57 1_555 1_555
H42 C58 1_555 1_555
C59 C58 1_555 1_555
H43 C59 1_555 1_555
C60 C55 1_555 1_555
H44 C60 1_555 1_555
C21A C20 1_555 1_555
N2A C21A 1_555 1_555
Mn1A N2A 1_555 1_555
O1A Mn1A 1_555 1_555
C1A O1A 1_555 1_555
C2A C1A 1_555 1_555
H1A C2A 1_555 1_555
C3A C2A 1_555 1_555
O2A Mn1A 1_555 1_555
O3A Mn1A 1_555 1_555
C6A O3A 1_555 1_555
C7A C6A 1_555 1_555
H2A C7A 1_555 1_555
C8A C7A 1_555 1_555
O4A Mn1A 1_555 1_555
N1A Mn1A 1_555 1_555
C11A N1A 1_555 1_555
H3A C11A 1_555 1_555
C12A C11A 1_555 1_555
H4A C12A 1_555 1_555
C13A C12A 1_555 1_555
C14A C13A 1_555 1_555
H5A C14A 1_555 1_555
C15A N1A 1_555 1_555
H6A C15A 1_555 1_555
C16A C13A 1_555 1_555
H7A C16A 1_555 1_555
H8A C16A 1_555 1_555
C17A C16A 1_555 1_555
H9A C17A 1_555 1_555
H10A C17A 1_555 1_555
C18A C17A 1_555 1_555
H11A C18A 1_555 1_555
H12A C18A 1_555 1_555
C19A C18A 1_555 1_555
C20A C21 1_555 1_555
H13A C20A 1_555 1_555
C23A C22 1_555 1_555
H16A C23A 1_555 1_555
C10A C8A 1_555 1_555
F13A C10A 1_555 1_555
F14A C10A 1_555 1_555
F15A C10A 1_555 1_555
C9A C6A 1_555 1_555
F7A C9A 1_555 1_555
F8A C9A 1_555 1_555
F9A C9A 1_555 1_555
C5A C3A 1_555 1_555
F4A C5A 1_555 1_555
F5A C5A 1_555 1_555
F6A C5A 1_555 1_555
C4A C1A 1_555 1_555
F1A C4A 1_555 1_555
F2A C4A 1_555 1_555
F3A C4A 1_555 1_555
C22A C23 1_555 1_555
H15A C22A 1_555 1_555
H14A C21A 1_555 1_555
C44A C43 1_555 1_555
N4A C44A 1_555 1_555
Mn2A N4A 1_555 1_555
O5A Mn2A 1_555 1_555
C24A O5A 1_555 1_555
C25A C24A 1_555 1_555
H17A C25A 1_555 1_555
C26A C25A 1_555 1_555
O6A Mn2A 1_555 1_555
O7A Mn2A 1_555 1_555
C29A O7A 1_555 1_555
C30A C29A 1_555 1_555
H18A C30A 1_555 1_555
C31A C30A 1_555 1_555
O8A Mn2A 1_555 1_555
N3A Mn2A 1_555 1_555
C34A N3A 1_555 1_555
H19A C34A 1_555 1_555
C35A C34A 1_555 1_555
H20A C35A 1_555 1_555
C36A C35A 1_555 1_555
C37A C36A 1_555 1_555
H21A C37A 1_555 1_555
C38A N3A 1_555 1_555
H22A C38A 1_555 1_555
C39A C36A 1_555 1_555
H23A C39A 1_555 1_555
H24A C39A 1_555 1_555
C40A C39A 1_555 1_555
H25A C40A 1_555 1_555
H26A C40A 1_555 1_555
C41A C40A 1_555 1_555
H27A C41A 1_555 1_555
H28A C41A 1_555 1_555
C42A C41A 1_555 1_555
C43A C44 1_555 1_555
H29A C43A 1_555 1_555
C46A C45 1_555 1_555
H32A C46A 1_555 1_555
C33A C31A 1_555 1_555
F28A C33A 1_555 1_555
F29A C33A 1_555 1_555
F30A C33A 1_555 1_555
C32A C29A 1_555 1_555
F22A C32A 1_555 1_555
F23A C32A 1_555 1_555
F24A C32A 1_555 1_555
C28A C26A 1_555 1_555
F19A C28A 1_555 1_555
F20A C28A 1_555 1_555
F21A C28A 1_555 1_555
C27A C24A 1_555 1_555
F16A C27A 1_555 1_555
F17A C27A 1_555 1_555
F18A C27A 1_555 1_555
C45A C46 1_555 1_555
H31A C45A 1_555 1_555
H30A C44A 1_555 1_555
C2 C3 1_555 1_555
C7 C8 1_555 1_555
C14 C15 1_555 1_555
C25 C26 1_555 1_555
C30 C31 1_555 1_555
C37 C38 1_555 1_555
C51 C52 1_555 1_555
C59 C60 1_555 1_555
N2A C22A 1_555 1_555
C3A O2A 1_555 1_555
C8A O4A 1_555 1_555
C14A C15A 1_555 1_555
C19A C20A 1_555 1_555
C19A C23A 1_555 1_555
N4A C45A 1_555 1_555
C26A O6A 1_555 1_555
C31A O8A 1_555 1_555
C37A C38A 1_555 1_555
C42A C43A 1_555 1_555
C42A C46A 1_555 1_555

#END
