
#######################################################################
#
#                 Cambridge Crystallographic Data Centre
#                                CCDC 
#
#######################################################################
#
# If this CIF has been generated from an entry in the Cambridge 
# Structural Database, then it will include bibliographic, chemical, 
# crystal, experimental, refinement or atomic coordinate data resulting 
# from the CCDC's data processing and validation procedures.
#
#######################################################################

data_NERFUL
_chemical_formula_moiety         'C46 H32 F24 Mn2 N4 O8,2(C6 H5 N1 O2)'
_chemical_name_systematic        
"bis((\m~2~-4,4'-Trimethylene-dipyridine)-bis(hexafluoroacetylacetonato)-manganese(ii)) bis(nitrobenzene) clathrate"
_symmetry_cell_setting           triclinic
_symmetry_space_group_name_H-M   'P -1'
_symmetry_Int_Tables_number      2
_space_group_name_Hall           '-P 1'
loop_
_symmetry_equiv_pos_site_id
_symmetry_equiv_pos_as_xyz
1 x,y,z
2 -x,-y,-z
_cell_length_a                   14.0984(3)
_cell_length_b                   14.6254(4)
_cell_length_c                   16.4762(3)
_cell_angle_alpha                80.7262(13)
_cell_angle_beta                 78.7341(13)
_cell_angle_gamma                89.5633(13)
_cell_volume                     3287.3
_exptl_crystal_colour            yellow
_exptl_crystal_description       prism
_cell_formula_units_Z            2
_exptl_crystal_recrystallization_method methanol/nitrobenzene
loop_
_atom_site_label
_atom_site_type_symbol
_atom_site_fract_x
_atom_site_fract_y
_atom_site_fract_z
Mn1 Mn 0.67224(3) 0.10133(3) 0.63639(3)
Mn2 Mn -0.15312(3) 0.38427(3) 0.84767(3)
F1 F 0.7403(3) 0.41949(17) 0.4907(2)
F2 F 0.8933(3) 0.40066(18) 0.45630(19)
F3 F 0.82637(17) 0.40232(14) 0.58225(14)
F4 F 0.9190(3) 0.1335(2) 0.33402(18)
F5 F 0.9810(3) 0.0608(5) 0.4270(3)
F6 F 0.8568(4) 0.0059(3) 0.3906(3)
F10 F 0.96244(19) -0.0097(3) 0.7486(2)
F11 F 0.8801(3) -0.0816(2) 0.8600(3)
F12 F 0.88673(18) 0.06193(18) 0.83569(18)
F13 F 0.6287(2) -0.25185(16) 0.81532(19)
F14 F 0.51131(19) -0.16274(18) 0.82427(18)
F15 F 0.5592(2) -0.21595(18) 0.71207(14)
F16 F -0.0753(2) 0.71311(17) 0.81491(15)
F17 F -0.1057(2) 0.74601(18) 0.6930(2)
F18 F 0.01459(18) 0.66476(18) 0.71391(19)
F19 F -0.3562(3) 0.5871(2) 0.6348(3)
F20 F -0.4425(2) 0.5298(4) 0.7510(3)
F21 F -0.38167(18) 0.44598(17) 0.66675(18)
F22 F -0.3175(3) 0.4595(3) 1.1197(2)
F23 F -0.4072(3) 0.4969(3) 1.0387(2)
F24 F -0.4385(3) 0.3750(2) 1.1273(3)
F25 F -0.39340(19) 0.09931(15) 1.02832(16)
F26 F -0.24184(19) 0.07157(15) 1.00390(14)
F27 F -0.31905(14) 0.09130(13) 0.90409(12)
O1 O 0.72940(15) 0.24035(14) 0.58921(13)
O2 O 0.77218(15) 0.07004(14) 0.52678(13)
O3 O 0.78847(15) 0.06204(15) 0.70810(14)
O4 O 0.62499(15) -0.03998(14) 0.68491(13)
O5 O -0.10469(15) 0.52602(15) 0.81142(14)
O6 O -0.26956(15) 0.43197(15) 0.78134(15)
O7 O -0.24402(16) 0.42016(15) 0.96138(14)
O8 O -0.21689(15) 0.24894(14) 0.89676(13)
N1 N 0.54742(17) 0.11708(18) 0.56739(15)
N2 N -0.06765(17) 0.34002(17) 0.73062(15)
N3 N 0.58352(17) 0.15259(17) 0.74798(15)
N4 N -0.02492(17) 0.35534(18) 0.90978(16)
C1 C 0.7942(2) 0.2686(2) 0.52710(19)
C2 C 0.8466(2) 0.2176(2) 0.4700(2)
H1 H 0.8946 0.2489 0.4258
C3 C 0.8320(2) 0.1231(2) 0.47500(19)
C4 C 0.8145(3) 0.3733(2) 0.5132(2)
C5 C 0.8975(2) 0.0756(3) 0.4094(2)
C6 C 0.7944(2) -0.0105(2) 0.7575(2)
C7 C 0.7336(2) -0.0890(2) 0.7760(2)
H2 H 0.7476 -0.1397 0.8154
C8 C 0.6544(2) -0.0966(2) 0.73989(18)
C9 C 0.8807(3) -0.0122(2) 0.8017(2)
C10 C 0.5886(2) -0.1829(2) 0.7719(2)
C11 C 0.5382(2) 0.1943(2) 0.5137(2)
H3 H 0.5911 0.2374 0.4973
C12 C 0.4562(2) 0.2147(3) 0.4808(2)
H4 H 0.4539 0.2705 0.4428
C13 C 0.3770(2) 0.1534(2) 0.50336(18)
C14 C 0.3879(2) 0.0723(2) 0.5560(2)
H5 H 0.3371 0.0268 0.5715
C15 C 0.4722(2) 0.0568(2) 0.5863(2)
H6 H 0.4772 0.0003 0.6227
C16 C 0.2827(2) 0.1766(2) 0.47592(19)
H7 H 0.2528 0.1199 0.4651
H8 H 0.2947 0.2218 0.4231
C17 C 0.2137(2) 0.2178(2) 0.54401(19)
H9 H 0.2452 0.2733 0.5555
H10 H 0.2019 0.1719 0.5963
C18 C 0.1161(2) 0.2451(2) 0.5200(2)
H11 H 0.1268 0.2945 0.4702
H12 H 0.0857 0.1908 0.5052
C19 C 0.0491(2) 0.2791(2) 0.59157(19)
C20 C -0.0251(2) 0.2237(2) 0.6433(2)
H13 H -0.0374 0.1635 0.6324
C21 C -0.0815(2) 0.2563(2) 0.7107(2)
H14 H -0.1326 0.2174 0.7447
C22 C 0.0034(2) 0.3940(2) 0.6796(2)
H15 H 0.0139 0.4542 0.6913
C23 C 0.0618(2) 0.3664(2) 0.6110(2)
H16 H 0.1110 0.4074 0.5769
C24 C 0.5999(2) 0.2351(2) 0.76930(19)
H17 H 0.6511 0.2738 0.7352
C25 C 0.5461(2) 0.2666(2) 0.83809(19)
H18 H 0.5604 0.3258 0.8502
C26 C 0.4713(2) 0.2121(2) 0.88959(19)
C27 C 0.4545(2) 0.1264(2) 0.8684(2)
H19 H 0.4041 0.0863 0.9020
C28 C 0.5111(2) 0.0996(2) 0.7986(2)
H20 H 0.4984 0.0406 0.7854
C29 C 0.4063(2) 0.2442(3) 0.9632(2)
H21 H 0.4377 0.2967 0.9797
H22 H 0.3946 0.1931 1.0117
C30 C 0.3106(2) 0.2742(2) 0.93912(19)
H23 H 0.2854 0.2244 0.9144
H24 H 0.3228 0.3299 0.8952
C31 C 0.2327(2) 0.2962(3) 1.0117(2)
H25 H 0.2222 0.2426 1.0578
H26 H 0.2538 0.3503 1.0335
C32 C 0.1401(2) 0.3173(2) 0.98046(19)
C33 C 0.0850(2) 0.2471(2) 0.9634(2)
H27 H 0.1027 0.1843 0.9756
C34 C 0.0045(2) 0.2686(2) 0.9288(2)
H28 H -0.0320 0.2192 0.9178
C35 C 0.0282(2) 0.4229(2) 0.9269(2)
H29 H 0.0091 0.4851 0.9140
C36 C 0.1093(2) 0.4069(3) 0.9625(2)
H30 H 0.1435 0.4572 0.9744
C37 C -0.1367(2) 0.5897(2) 0.76414(19)
C38 C -0.2162(3) 0.5874(2) 0.7273(2)
H31 H -0.2305 0.6417 0.6921
C39 C -0.2767(2) 0.5092(2) 0.7393(2)
C40 C -0.0763(3) 0.6789(2) 0.7462(2)
C41 C -0.3649(3) 0.5190(3) 0.6976(3)
C42 C -0.3097(2) 0.3715(2) 1.0108(2)
C43 C -0.3336(2) 0.2788(2) 1.0144(2)
H32 H -0.3861 0.2513 1.0564
C44 C -0.2837(2) 0.2248(2) 0.95889(18)
C45 C -0.3710(3) 0.4233(3) 1.0756(3)
C46 C -0.3104(3) 0.1212(2) 0.9740(2)
O9 O 0.4658(8) 0.5509(7) 0.5589(7)
O10 O 0.3682(5) 0.6151(5) 0.6409(4)
N5 N 0.3988(7) 0.5490(7) 0.6193(7)
C47 C 0.3455(11) 0.4565(6) 0.6646(8)
C48 C 0.4043(6) 0.3828(11) 0.6466(8)
H33 H 0.4668 0.3942 0.6122
C49 C 0.3718(12) 0.2923(8) 0.6791(11)
H34 H 0.4120 0.2419 0.6668
C50 C 0.2804(13) 0.2756(7) 0.7295(11)
H35 H 0.2582 0.2137 0.7517
C51 C 0.2215(7) 0.3493(13) 0.7475(8)
H36 H 0.1590 0.3378 0.7820
C52 C 0.2541(9) 0.4397(10) 0.7150(8)
H37 H 0.2138 0.4901 0.7273
O12 O 0.1344(17) 0.0542(17) 0.8610(13)
O13 O 0.2831(10) 0.0469(9) 0.7766(8)
N7 N 0.2076(11) 0.0024(10) 0.8178(9)
C59 C 0.2127(12) -0.0847(8) 0.8094(10)
C60 C 0.2861(9) -0.1264(8) 0.7597(8)
H43 H 0.3398 -0.0902 0.7266
C61 C 0.2808(7) -0.2210(8) 0.7585(9)
H44 H 0.3310 -0.2495 0.7246
C62 C 0.2022(9) -0.2739(7) 0.8069(8)
H45 H 0.1986 -0.3386 0.8061
C63 C 0.1289(6) -0.2322(13) 0.8566(7)
H46 H 0.0751 -0.2683 0.8897
C64 C 0.1341(9) -0.1376(14) 0.8578(9)
H47 H 0.0840 -0.1090 0.8917
F7? F 0.9188(8) -0.0151(7) 0.4481(7)
F8? F 0.9786(9) 0.1091(8) 0.3801(8)
F9? F 0.8576(10) 0.0552(10) 0.3578(8)
N6? N 0.2960(14) 0.5721(12) 0.6804(11)
O11? O 0.2049(17) 0.5672(15) 0.7206(14)
C53? C 0.2963(19) 0.4589(9) 0.6941(13)
C54? C 0.3871(16) 0.4387(16) 0.6512(10)
H38? H 0.4301 0.4876 0.6207
C55? C 0.4148(10) 0.347(2) 0.6529(12)
H39? H 0.4768 0.3334 0.6235
C56? C 0.352(2) 0.2757(11) 0.6975(16)
H40? H 0.3708 0.2131 0.6986
C57? C 0.2611(18) 0.2958(13) 0.7404(15)
H41? H 0.2180 0.2470 0.7709
C58? C 0.2333(11) 0.3874(18) 0.7387(14)
H42? H 0.1713 0.4012 0.7681
O14? O 0.0739(10) -0.0006(9) 0.9119(9)
O15? O 0.2062(13) 0.0767(12) 0.8334(10)
N8? N 0.1479(10) 0.0167(9) 0.8567(8)
C65? C 0.1819(12) -0.0779(7) 0.8321(9)
C66? C 0.2696(11) -0.0732(13) 0.7755(9)
H48? H 0.3048 -0.0160 0.7580
C67? C 0.3058(9) -0.1522(19) 0.7447(8)
H49? H 0.3658 -0.1490 0.7061
C68? C 0.2543(15) -0.2359(14) 0.7705(11)
H50? H 0.2791 -0.2899 0.7494
C69? C 0.1666(13) -0.2406(7) 0.8270(11)
H51? H 0.1314 -0.2978 0.8446
C70? C 0.1304(8) -0.1616(10) 0.8578(9)
H52? H 0.0704 -0.1649 0.8964
loop_
_geom_bond_atom_site_label_1
_geom_bond_atom_site_label_2
_geom_bond_site_symmetry_1
_geom_bond_site_symmetry_2
Mn1 O1 1_555 1_555
Mn2 O5 1_555 1_555
F1 C4 1_555 1_555
F2 C4 1_555 1_555
F3 C4 1_555 1_555
F4 C5 1_555 1_555
F5 C5 1_555 1_555
F6 C5 1_555 1_555
F10 C9 1_555 1_555
F11 C9 1_555 1_555
F12 C9 1_555 1_555
F13 C10 1_555 1_555
F14 C10 1_555 1_555
F15 C10 1_555 1_555
F16 C40 1_555 1_555
F17 C40 1_555 1_555
F18 C40 1_555 1_555
F19 C41 1_555 1_555
F20 C41 1_555 1_555
F21 C41 1_555 1_555
F22 C45 1_555 1_555
F23 C45 1_555 1_555
F24 C45 1_555 1_555
F25 C46 1_555 1_555
F26 C46 1_555 1_555
F27 C46 1_555 1_555
O1 C1 1_555 1_555
O2 Mn1 1_555 1_555
O3 Mn1 1_555 1_555
O4 Mn1 1_555 1_555
O5 C37 1_555 1_555
O6 Mn2 1_555 1_555
O7 Mn2 1_555 1_555
O8 Mn2 1_555 1_555
N1 Mn1 1_555 1_555
N2 Mn2 1_555 1_555
N3 Mn1 1_555 1_555
N4 Mn2 1_555 1_555
C1 C2 1_555 1_555
C2 H1 1_555 1_555
C3 O2 1_555 1_555
C4 C1 1_555 1_555
C5 C3 1_555 1_555
C6 O3 1_555 1_555
C7 C6 1_555 1_555
H2 C7 1_555 1_555
C8 O4 1_555 1_555
C9 C6 1_555 1_555
C10 C8 1_555 1_555
C11 N1 1_555 1_555
H3 C11 1_555 1_555
C12 C11 1_555 1_555
H4 C12 1_555 1_555
C13 C12 1_555 1_555
C14 C13 1_555 1_555
H5 C14 1_555 1_555
C15 N1 1_555 1_555
H6 C15 1_555 1_555
C16 C13 1_555 1_555
H7 C16 1_555 1_555
H8 C16 1_555 1_555
C17 C16 1_555 1_555
H9 C17 1_555 1_555
H10 C17 1_555 1_555
C18 C17 1_555 1_555
H11 C18 1_555 1_555
H12 C18 1_555 1_555
C19 C18 1_555 1_555
C20 C19 1_555 1_555
H13 C20 1_555 1_555
C21 N2 1_555 1_555
H14 C21 1_555 1_555
C22 N2 1_555 1_555
H15 C22 1_555 1_555
C23 C19 1_555 1_555
H16 C23 1_555 1_555
C24 N3 1_555 1_555
H17 C24 1_555 1_555
C25 C24 1_555 1_555
H18 C25 1_555 1_555
C26 C25 1_555 1_555
C27 C26 1_555 1_555
H19 C27 1_555 1_555
C28 N3 1_555 1_555
H20 C28 1_555 1_555
C29 C26 1_555 1_555
H21 C29 1_555 1_555
H22 C29 1_555 1_555
C30 C29 1_555 1_555
H23 C30 1_555 1_555
H24 C30 1_555 1_555
C31 C30 1_555 1_555
H25 C31 1_555 1_555
H26 C31 1_555 1_555
C32 C31 1_555 1_555
C33 C32 1_555 1_555
H27 C33 1_555 1_555
C34 N4 1_555 1_555
H28 C34 1_555 1_555
C35 N4 1_555 1_555
H29 C35 1_555 1_555
C36 C32 1_555 1_555
H30 C36 1_555 1_555
C37 C38 1_555 1_555
C38 H31 1_555 1_555
C39 O6 1_555 1_555
C40 C37 1_555 1_555
C41 C39 1_555 1_555
C42 O7 1_555 1_555
C43 C42 1_555 1_555
H32 C43 1_555 1_555
C44 O8 1_555 1_555
C45 C42 1_555 1_555
C46 C44 1_555 1_555
O9 N5 1_555 1_555
O10 N5 1_555 1_555
N5 C47 1_555 1_555
C47 C48 1_555 1_555
C48 H33 1_555 1_555
C49 C48 1_555 1_555
H34 C49 1_555 1_555
C50 C49 1_555 1_555
H35 C50 1_555 1_555
C51 C50 1_555 1_555
H36 C51 1_555 1_555
C52 C47 1_555 1_555
H37 C52 1_555 1_555
O12 N7 1_555 1_555
O13 N7 1_555 1_555
N7 C59 1_555 1_555
C59 C60 1_555 1_555
C60 H43 1_555 1_555
C61 C60 1_555 1_555
H44 C61 1_555 1_555
C62 C61 1_555 1_555
H45 C62 1_555 1_555
C63 C62 1_555 1_555
H46 C63 1_555 1_555
C64 C59 1_555 1_555
H47 C64 1_555 1_555
C2 C3 1_555 1_555
C7 C8 1_555 1_555
C14 C15 1_555 1_555
C20 C21 1_555 1_555
C22 C23 1_555 1_555
C27 C28 1_555 1_555
C33 C34 1_555 1_555
C35 C36 1_555 1_555
C38 C39 1_555 1_555
C43 C44 1_555 1_555
C51 C52 1_555 1_555
C63 C64 1_555 1_555

#END
