
#######################################################################
#
#                 Cambridge Crystallographic Data Centre
#                                CCDC 
#
#######################################################################
#
# If this CIF has been generated from an entry in the Cambridge 
# Structural Database, then it will include bibliographic, chemical, 
# crystal, experimental, refinement or atomic coordinate data resulting 
# from the CCDC's data processing and validation procedures.
#
#######################################################################

data_NERFOF
_chemical_formula_moiety         'C46 H32 F24 Mn2 N4 O8,C7 H8 O1'
_chemical_name_systematic        
"bis((\m~2~-4,4'-Trimethylene-dipyridine)-bis(hexafluoroacetylacetonato)-manganese(ii)) benzyl alcohol clathrate"
_symmetry_cell_setting           triclinic
_symmetry_space_group_name_H-M   'P -1'
_symmetry_Int_Tables_number      2
_space_group_name_Hall           '-P 1'
loop_
_symmetry_equiv_pos_site_id
_symmetry_equiv_pos_as_xyz
1 x,y,z
2 -x,-y,-z
_cell_length_a                   10.0966(4)
_cell_length_b                   13.1001(4)
_cell_length_c                   13.3725(4)
_cell_angle_alpha                61.1082(18)
_cell_angle_beta                 86.596(2)
_cell_angle_gamma                80.188(2)
_cell_volume                     1525.39
_exptl_crystal_colour            yellow
_exptl_crystal_description       plate
_cell_formula_units_Z            1
_exptl_crystal_recrystallization_method 'methanol/acetone/benzyl alcohol'
loop_
_atom_site_label
_atom_site_type_symbol
_atom_site_fract_x
_atom_site_fract_y
_atom_site_fract_z
O5 O 0.798(3) 0.924(2) 0.156(2)
H17 H 0.7476 0.9803 0.1600
C24 C 0.727(3) 0.874(2) 0.118(2)
H18 H 0.7084 0.7996 0.1848
H19 H 0.7860 0.8507 0.0680
C25 C 0.600(2) 0.9356(14) 0.0556(17)
C26 C 0.534(3) 0.8982(12) -0.0063(19)
H20 H 0.5712 0.8271 -0.0077
C27 C 0.585(2) 1.035(2) 0.0662(19)
H21 H 0.6296 1.0610 0.1085
C27A C 0.415(2) 0.965(2) -0.0662(19)
C25A C 0.400(2) 1.0644(14) -0.0556(17)
C24A C 0.273(3) 1.126(2) -0.118(2)
O5A O 0.202(3) 1.076(2) -0.156(2)
H17A H 0.2524 1.0197 -0.1600
H18A H 0.2916 1.2004 -0.1848
H19A H 0.2140 1.1493 -0.0680
C26A C 0.466(3) 1.1018(12) 0.0063(19)
H20A H 0.4288 1.1729 0.0077
H21A H 0.3704 0.9390 -0.1085
Mn1 Mn 1.01782(8) 0.23693(7) 0.25604(6)
F1 F 1.2965(4) 0.5048(4) 0.0086(3)
F2 F 1.4499(4) 0.3608(4) 0.0964(4)
F3 F 1.4214(5) 0.5027(4) 0.1327(4)
F4 F 1.1967(10) 0.2021(7) 0.5993(4)
F5 F 1.3193(7) 0.3365(9) 0.5182(5)
F6 F 1.1081(7) 0.3754(8) 0.5201(6)
F7 F 0.6988(6) 0.6004(3) 0.1603(4)
F8 F 0.7880(4) 0.5489(4) 0.3190(4)
F9 F 0.5884(4) 0.5227(4) 0.3132(5)
F10 F 0.5348(6) 0.1358(5) 0.4557(8)
F11 F 0.5744(9) 0.1010(8) 0.3158(6)
F12 F 0.6871(4) 0.0049(4) 0.4718(4)
O1 O 1.1811(4) 0.3282(4) 0.1696(3)
O2 O 1.1032(4) 0.2436(3) 0.4002(3)
O3 O 0.8804(4) 0.3917(3) 0.2409(3)
O4 O 0.8430(4) 0.1543(3) 0.3278(3)
N1 N 0.9688(5) 0.2582(4) 0.0848(4)
N2 N 1.1279(4) 0.0541(4) 0.3105(4)
C1 C 1.2597(5) 0.3718(4) 0.2009(4)
C2 C 1.2698(5) 0.3645(5) 0.3068(4)
H1 H 1.3329 0.4044 0.3180
C3 C 1.1914(5) 0.3010(5) 0.3976(4)
C4 C 1.3575(6) 0.4358(6) 0.1092(5)
C5 C 1.2099(7) 0.3044(7) 0.5082(5)
C6 C 0.7647(6) 0.3972(5) 0.2787(5)
C7 C 0.6849(5) 0.3099(5) 0.3289(5)
H2 H 0.5972 0.3283 0.3518
C8 C 0.7298(5) 0.1960(5) 0.3467(4)
C9 C 0.7078(7) 0.5188(6) 0.2676(6)
C10 C 0.6316(6) 0.1081(5) 0.3924(6)
C11 C 0.9116(7) 0.1755(6) 0.0790(5)
H3 H 0.8926 0.1097 0.1483
C12 C 0.8794(7) 0.1818(6) -0.0227(5)
H4 H 0.8399 0.1209 -0.0225
C13 C 0.9047(6) 0.2776(5) -0.1256(5)
C14 C 0.9644(5) 0.3614(5) -0.1198(5)
H5 H 0.9846 0.4279 -0.1879
C15 C 0.9949(6) 0.3487(5) -0.0153(5)
H6 H 1.0370 0.4075 -0.0138
C16 C 0.8683(6) 0.2872(6) -0.2382(5)
H7 H 0.9159 0.2168 -0.2424
H8 H 0.9000 0.3576 -0.3013
C17 C 0.7181(6) 0.2970(5) -0.2554(5)
H9 H 0.6718 0.3734 -0.2630
H10 H 0.6837 0.2332 -0.1870
C18 C 0.6837(6) 0.2885(5) -0.3618(5)
H11 H 0.5849 0.3000 -0.3712
H12 H 0.7182 0.3519 -0.4307
C19 C 0.7446(5) 0.1706(5) -0.3503(5)
C20 C 0.6917(6) 0.0699(5) -0.2782(5)
H13 H 0.6105 0.0759 -0.2404
C21 C 1.2443(6) 0.0387(5) 0.2606(5)
H14 H 1.2837 0.1063 0.2111
C22 C 1.0788(5) -0.0444(4) 0.3833(4)
H15 H 0.9986 -0.0367 0.4217
C23 C 0.8612(5) 0.1558(5) -0.4049(4)
H16 H 0.8998 0.2226 -0.4574
C21A C 0.7557(6) -0.0387(5) -0.2606(5)
N2A N 0.8721(4) -0.0541(4) -0.3105(4)
Mn1A Mn 0.98218(8) -0.23693(7) -0.25604(6)
O1A O 0.8189(4) -0.3282(4) -0.1696(3)
C1A C 0.7403(5) -0.3718(4) -0.2009(4)
C2A C 0.7302(5) -0.3645(5) -0.3068(4)
H1A H 0.6671 -0.4044 -0.3180
C3A C 0.8086(5) -0.3010(5) -0.3976(4)
O2A O 0.8968(4) -0.2436(3) -0.4002(3)
O3A O 1.1196(4) -0.3917(3) -0.2409(3)
C6A C 1.2353(6) -0.3972(5) -0.2787(5)
C7A C 1.3151(5) -0.3099(5) -0.3289(5)
H2A H 1.4028 -0.3283 -0.3518
C8A C 1.2702(5) -0.1960(5) -0.3467(4)
O4A O 1.1570(4) -0.1543(3) -0.3278(3)
N1A N 1.0312(5) -0.2582(4) -0.0848(4)
C11A C 1.0884(7) -0.1755(6) -0.0790(5)
H3A H 1.1074 -0.1097 -0.1483
C12A C 1.1206(7) -0.1818(6) 0.0227(5)
H4A H 1.1601 -0.1209 0.0225
C13A C 1.0953(6) -0.2776(5) 0.1256(5)
C14A C 1.0356(5) -0.3614(5) 0.1198(5)
H5A H 1.0154 -0.4279 0.1879
C15A C 1.0051(6) -0.3487(5) 0.0153(5)
H6A H 0.9630 -0.4075 0.0138
C16A C 1.1317(6) -0.2872(6) 0.2382(5)
H7A H 1.0841 -0.2168 0.2424
H8A H 1.1000 -0.3576 0.3013
C17A C 1.2819(6) -0.2970(5) 0.2554(5)
H9A H 1.3282 -0.3734 0.2630
H10A H 1.3163 -0.2332 0.1870
C18A C 1.3163(6) -0.2885(5) 0.3618(5)
H11A H 1.4151 -0.3000 0.3712
H12A H 1.2818 -0.3519 0.4307
C19A C 1.2554(5) -0.1706(5) 0.3503(5)
C20A C 1.3083(6) -0.0699(5) 0.2782(5)
H13A H 1.3895 -0.0759 0.2404
C23A C 1.1388(5) -0.1558(5) 0.4049(4)
H16A H 1.1002 -0.2226 0.4574
C10A C 1.3684(6) -0.1081(5) -0.3924(6)
F10A F 1.4652(6) -0.1358(5) -0.4557(8)
F11A F 1.4256(9) -0.1010(8) -0.3158(6)
F12A F 1.3129(4) -0.0049(4) -0.4718(4)
C9A C 1.2922(7) -0.5188(6) -0.2676(6)
F7A F 1.3012(6) -0.6004(3) -0.1603(4)
F8A F 1.2120(4) -0.5489(4) -0.3190(4)
F9A F 1.4116(4) -0.5227(4) -0.3132(5)
C5A C 0.7901(7) -0.3044(7) -0.5082(5)
F4A F 0.8033(10) -0.2021(7) -0.5993(4)
F5A F 0.6807(7) -0.3365(9) -0.5182(5)
F6A F 0.8919(7) -0.3754(8) -0.5201(6)
C4A C 0.6425(6) -0.4358(6) -0.1092(5)
F1A F 0.7035(4) -0.5048(4) -0.0086(3)
F2A F 0.5501(4) -0.3608(4) -0.0964(4)
F3A F 0.5786(5) -0.5027(4) -0.1327(4)
C22A C 0.9212(5) 0.0444(4) -0.3833(4)
H15A H 1.0014 0.0367 -0.4217
H14A H 0.7163 -0.1063 -0.2111
F13? F 1.134(4) 0.278(4) 0.576(4)
F14? F 1.323(4) 0.216(4) 0.565(3)
F15? F 1.225(5) 0.412(3) 0.484(3)
F16? F 0.514(3) 0.153(3) 0.369(3)
F17? F 0.657(5) 0.025(4) 0.355(4)
C28? C 0.361(3) 1.069(3) -0.064(3)
H22? H 0.2799 1.1140 -0.1050
C29? C 0.427(4) 1.106(3) -0.002(4)
C30? C 0.546(3) 1.040(2) 0.058(3)
loop_
_geom_bond_atom_site_label_1
_geom_bond_atom_site_label_2
_geom_bond_site_symmetry_1
_geom_bond_site_symmetry_2
Mn1 O1 1_555 1_555
F1 C4 1_555 1_555
F2 C4 1_555 1_555
F3 C4 1_555 1_555
F4 C5 1_555 1_555
F5 C5 1_555 1_555
F6 C5 1_555 1_555
F7 C9 1_555 1_555
F8 C9 1_555 1_555
F9 C9 1_555 1_555
F10 C10 1_555 1_555
F11 C10 1_555 1_555
F12 C10 1_555 1_555
O1 C1 1_555 1_555
O2 Mn1 1_555 1_555
O3 Mn1 1_555 1_555
O4 Mn1 1_555 1_555
N1 Mn1 1_555 1_555
N2 Mn1 1_555 1_555
C1 C2 1_555 1_555
C2 H1 1_555 1_555
C3 O2 1_555 1_555
C4 C1 1_555 1_555
C5 C3 1_555 1_555
C6 O3 1_555 1_555
C7 C6 1_555 1_555
H2 C7 1_555 1_555
C8 O4 1_555 1_555
C9 C6 1_555 1_555
C10 C8 1_555 1_555
C11 N1 1_555 1_555
H3 C11 1_555 1_555
C12 C11 1_555 1_555
H4 C12 1_555 1_555
C13 C12 1_555 1_555
C14 C13 1_555 1_555
H5 C14 1_555 1_555
C15 N1 1_555 1_555
H6 C15 1_555 1_555
C16 C13 1_555 1_555
H7 C16 1_555 1_555
H8 C16 1_555 1_555
C17 C16 1_555 1_555
H9 C17 1_555 1_555
H10 C17 1_555 1_555
C18 C17 1_555 1_555
H11 C18 1_555 1_555
H12 C18 1_555 1_555
C19 C18 1_555 1_555
C20 C19 1_555 1_555
H13 C20 1_555 1_555
C21 N2 1_555 1_555
H14 C21 1_555 1_555
C22 N2 1_555 1_555
H15 C22 1_555 1_555
C23 C19 1_555 1_555
H16 C23 1_555 1_555
O5 H17 1_555 1_555
C24 O5 1_555 1_555
H18 C24 1_555 1_555
H19 C24 1_555 1_555
C25 C24 1_555 1_555
C26 C25 1_555 1_555
H20 C26 1_555 1_555
C27 C25 1_555 1_555
H21 C27 1_555 1_555
C21A C20 1_555 1_555
N2A C21A 1_555 1_555
Mn1A N2A 1_555 1_555
O1A Mn1A 1_555 1_555
C1A O1A 1_555 1_555
C2A C1A 1_555 1_555
H1A C2A 1_555 1_555
C3A C2A 1_555 1_555
O2A Mn1A 1_555 1_555
O3A Mn1A 1_555 1_555
C6A O3A 1_555 1_555
C7A C6A 1_555 1_555
H2A C7A 1_555 1_555
C8A C7A 1_555 1_555
O4A Mn1A 1_555 1_555
N1A Mn1A 1_555 1_555
C11A N1A 1_555 1_555
H3A C11A 1_555 1_555
C12A C11A 1_555 1_555
H4A C12A 1_555 1_555
C13A C12A 1_555 1_555
C14A C13A 1_555 1_555
H5A C14A 1_555 1_555
C15A N1A 1_555 1_555
H6A C15A 1_555 1_555
C16A C13A 1_555 1_555
H7A C16A 1_555 1_555
H8A C16A 1_555 1_555
C17A C16A 1_555 1_555
H9A C17A 1_555 1_555
H10A C17A 1_555 1_555
C18A C17A 1_555 1_555
H11A C18A 1_555 1_555
H12A C18A 1_555 1_555
C19A C18A 1_555 1_555
C20A C21 1_555 1_555
H13A C20A 1_555 1_555
C23A C22 1_555 1_555
H16A C23A 1_555 1_555
C10A C8A 1_555 1_555
F10A C10A 1_555 1_555
F11A C10A 1_555 1_555
F12A C10A 1_555 1_555
C9A C6A 1_555 1_555
F7A C9A 1_555 1_555
F8A C9A 1_555 1_555
F9A C9A 1_555 1_555
C5A C3A 1_555 1_555
F4A C5A 1_555 1_555
F5A C5A 1_555 1_555
F6A C5A 1_555 1_555
C4A C1A 1_555 1_555
F1A C4A 1_555 1_555
F2A C4A 1_555 1_555
F3A C4A 1_555 1_555
C22A C23 1_555 1_555
H15A C22A 1_555 1_555
H14A C21A 1_555 1_555
C27A C26 1_555 1_555
C25A C27A 1_555 1_555
C24A C25A 1_555 1_555
O5A C24A 1_555 1_555
H17A O5A 1_555 1_555
H18A C24A 1_555 1_555
H19A C24A 1_555 1_555
C26A C27 1_555 1_555
H20A C26A 1_555 1_555
H21A C27A 1_555 1_555
C2 C3 1_555 1_555
C7 C8 1_555 1_555
C14 C15 1_555 1_555
N2A C22A 1_555 1_555
C3A O2A 1_555 1_555
C8A O4A 1_555 1_555
C14A C15A 1_555 1_555
C19A C20A 1_555 1_555
C19A C23A 1_555 1_555
C25A C26A 1_555 1_555

#END
