
#######################################################################
#
#                 Cambridge Crystallographic Data Centre
#                                CCDC 
#
#######################################################################
#
# If this CIF has been generated from an entry in the Cambridge 
# Structural Database, then it will include bibliographic, chemical, 
# crystal, experimental, refinement or atomic coordinate data resulting 
# from the CCDC's data processing and validation procedures.
#
#######################################################################

data_NERGAS
_chemical_formula_moiety         'C46 H32 F24 Mn2 N4 O8,2(C7 H5 N1)'
_chemical_name_systematic        
"bis((\m~2~-4,4'-Trimethylene-dipyridine)-bis(hexafluoroacetylacetonato)-manganese(ii)) bis(benzonitrile) clathrate"
_symmetry_cell_setting           triclinic
_symmetry_space_group_name_H-M   'P -1'
_symmetry_Int_Tables_number      2
_space_group_name_Hall           '-P 1'
loop_
_symmetry_equiv_pos_site_id
_symmetry_equiv_pos_as_xyz
1 x,y,z
2 -x,-y,-z
_cell_length_a                   14.0007(5)
_cell_length_b                   14.7834(5)
_cell_length_c                   16.4656(4)
_cell_angle_alpha                80.8755(18)
_cell_angle_beta                 78.1471(16)
_cell_angle_gamma                89.4096(15)
_cell_volume                     3292.27
_exptl_crystal_colour            yellow
_exptl_crystal_description       plate
_cell_formula_units_Z            2
_exptl_crystal_recrystallization_method acetone/methanol/cyanobenzene
loop_
_atom_site_label
_atom_site_type_symbol
_atom_site_fract_x
_atom_site_fract_y
_atom_site_fract_z
Mn1 Mn 0.65632(3) 0.60860(3) 0.15221(2)
Mn2 Mn -0.17565(3) 0.90139(3) 0.36028(2)
F1 F 0.88900(16) 0.89481(12) -0.03408(13)
F2 F 0.81407(12) 0.90305(10) 0.09094(10)
F3 F 0.73415(17) 0.91506(12) -0.00715(12)
F4 F 0.9543(4) 0.6164(3) -0.1224(4)
F5 F 0.9122(3) 0.4931(3) -0.0381(2)
F6 F 0.8265(3) 0.5386(4) -0.1242(3)
F10 F 0.8882(8) 0.5564(5) 0.3299(7)
F11 F 0.9368(9) 0.4446(18) 0.2686(10)
F12 F 0.8403(9) 0.4259(9) 0.3870(8)
F16 F 0.61361(19) 0.25131(13) 0.30806(15)
F17 F 0.57811(16) 0.28484(12) 0.18756(11)
F18 F 0.49001(15) 0.33110(14) 0.29238(13)
F19 F -0.015(2) 1.1698(17) 0.1710(13)
F20 F -0.1397(14) 1.2528(10) 0.1911(16)
F21 F -0.0734(16) 1.2165(14) 0.2783(15)
F25 F -0.3470(6) 1.0592(5) 0.1073(3)
F26 F -0.4490(6) 1.0609(11) 0.2197(7)
F27 F -0.4021(8) 0.9365(4) 0.1739(7)
F31 F -0.4249(5) 1.0237(3) 0.5505(3)
F32 F -0.4882(5) 0.9022(5) 0.6190(6)
F33 F -0.3557(6) 0.9569(7) 0.6399(5)
F37 F -0.32394(14) 0.60198(12) 0.42063(12)
F38 F -0.41429(18) 0.61478(14) 0.53763(13)
F39 F -0.2613(2) 0.59406(15) 0.5267(2)
O1 O 0.71818(12) 0.74267(11) 0.10182(11)
O2 O 0.75148(14) 0.57286(12) 0.03916(12)
O3 O 0.77215(13) 0.56490(12) 0.22065(12)
O4 O 0.60858(13) 0.46840(12) 0.18981(11)
O5 O -0.12836(13) 1.04069(12) 0.31215(11)
O6 O -0.29175(13) 0.93901(12) 0.28721(11)
O7 O -0.27661(13) 0.93685(12) 0.46906(11)
O8 O -0.23618(13) 0.76540(12) 0.40992(11)
N1 N 0.56883(15) 0.65421(14) 0.26923(13)
N2 N -0.05030(15) 0.88405(15) 0.42934(13)
N3 N 0.52801(15) 0.63671(15) 0.08867(13)
N4 N -0.08646(15) 0.84930(14) 0.24805(13)
C1 C 0.78469(18) 0.76781(17) 0.03861(15)
C2 C 0.83695(19) 0.71430(18) -0.01654(16)
H1 H 0.8888 0.7423 -0.0596
C3 C 0.81663(19) 0.62160(18) -0.01141(16)
C4 C 0.8064(2) 0.87079(19) 0.02175(17)
C5 C 0.8804(3) 0.5706(2) -0.0759(2)
C6 C 0.7794(2) 0.48902(19) 0.26404(17)
C7 C 0.7198(2) 0.41086(19) 0.27547(18)
H2 H 0.7344 0.3576 0.3109
C8 C 0.6411(2) 0.40697(18) 0.23813(16)
C9 C 0.8660(3) 0.4810(2) 0.3085(2)
C10 C 0.5811(2) 0.31775(19) 0.25655(17)
C11 C 0.5773(2) 0.73979(18) 0.28461(16)
H3 H 0.6252 0.7799 0.2474
C12 C 0.5196(2) 0.77252(18) 0.35196(16)
H4 H 0.5286 0.8338 0.3602
C13 C 0.44883(18) 0.71615(18) 0.40746(15)
C14 C 0.4419(2) 0.62698(19) 0.39240(17)
H5 H 0.3958 0.5849 0.4296
C15 C 0.5014(2) 0.59925(19) 0.32382(17)
H6 H 0.4944 0.5380 0.3147
C16 C 0.38075(19) 0.7504(2) 0.47877(16)
H7 H 0.4123 0.8024 0.4951
H8 H 0.3670 0.7009 0.5280
C17 C 0.28517(19) 0.78125(19) 0.45348(16)
H9 H 0.2524 0.7280 0.4403
H10 H 0.3001 0.8273 0.4017
C18 C 0.21471(19) 0.82275(19) 0.52147(16)
H11 H 0.2015 0.7783 0.5744
H12 H 0.2450 0.8786 0.5324
C19 C 0.11996(18) 0.84674(18) 0.49386(15)
C20 C 0.1098(2) 0.92781(19) 0.44217(18)
H13 H 0.1611 0.9726 0.4274
C21 C 0.0253(2) 0.94414(19) 0.41183(18)
H14 H 0.0204 1.0008 0.3767
C22 C -0.0410(2) 0.8071(2) 0.48123(17)
H15 H -0.0939 0.7638 0.4964
C23 C 0.0410(2) 0.7868(2) 0.51402(17)
H16 H 0.0430 0.7308 0.5509
C24 C 0.5027(2) 0.7228(2) 0.06433(18)
H17 H 0.5424 0.7717 0.0712
C25 C 0.4220(2) 0.7440(2) 0.02986(18)
H18 H 0.4075 0.8063 0.0134
C26 C 0.36192(19) 0.67507(19) 0.01905(15)
C27 C 0.3886(2) 0.5860(2) 0.04294(18)
H19 H 0.3507 0.5361 0.0356
C28 C 0.4702(2) 0.5696(2) 0.07736(18)
H20 H 0.4864 0.5078 0.0939
C29 C 0.26850(19) 0.6965(2) -0.01166(16)
H21 H 0.2454 0.6421 -0.0309
H22 H 0.2804 0.7474 -0.0597
C30 C 0.19086(18) 0.7236(2) 0.06003(16)
H23 H 0.1772 0.6707 0.1062
H24 H 0.2176 0.7742 0.0820
C31 C 0.09557(19) 0.75346(19) 0.03484(16)
H25 H 0.1086 0.8029 -0.0144
H26 H 0.0639 0.7012 0.0190
C32 C 0.02847(18) 0.78753(18) 0.10764(16)
C33 C -0.04590(19) 0.73328(18) 0.16101(16)
H27 H -0.0590 0.6738 0.1505
C34 C -0.10111(19) 0.76597(18) 0.22967(16)
H28 H -0.1518 0.7276 0.2655
C35 C -0.01466(19) 0.90180(18) 0.19555(17)
H29 H -0.0033 0.9613 0.2069
C36 C 0.0433(2) 0.87388(19) 0.12618(17)
H30 H 0.0932 0.9136 0.0912
C37 C -0.1576(2) 1.09687(17) 0.25731(15)
C38 C -0.2359(2) 1.08873(19) 0.21999(17)
H31 H -0.2492 1.1387 0.1803
C39 C -0.2969(2) 1.01049(19) 0.23759(17)
C40 C -0.0931(2) 1.1831(2) 0.22737(19)
C41 C -0.3816(3) 1.0130(2) 0.1909(2)
C42 C -0.3396(2) 0.88670(19) 0.52060(16)
C43 C -0.3572(2) 0.7934(2) 0.52614(17)
H32 H -0.4086 0.7647 0.5692
C44 C -0.3035(2) 0.74024(18) 0.47198(16)
C45 C -0.4030(2) 0.9359(2) 0.58672(19)
C46 C -0.3247(3) 0.6368(2) 0.4896(2)
N5 N 0.0658(6) 0.4198(5) 0.4263(9)
C47 C 0.0995(5) 0.4885(5) 0.3916(7)
C48 C 0.1427(5) 0.5747(4) 0.3455(5)
C49 C 0.0910(3) 0.6554(5) 0.3460(3)
H33 H 0.0254 0.6545 0.3763
C50 C 0.1352(5) 0.7375(3) 0.3021(5)
H34 H 0.0998 0.7927 0.3025
C51 C 0.2312(6) 0.7389(4) 0.2577(5)
H35 H 0.2614 0.7950 0.2278
C52 C 0.2829(4) 0.6582(6) 0.2572(5)
H36 H 0.3485 0.6591 0.2269
C53 C 0.2387(5) 0.5761(4) 0.3011(6)
H37 H 0.2741 0.5209 0.3008
N8 N 0.2218(7) -0.0262(6) 0.2125(5)
C68 C 0.2358(7) 0.0508(8) 0.2143(6)
C69 C 0.2554(4) 0.1429(3) 0.2143(3)
C70 C 0.3345(3) 0.1887(4) 0.1585(3)
H48 H 0.3766 0.1569 0.1201
C71 C 0.3521(4) 0.2810(4) 0.1588(3)
H49 H 0.4062 0.3123 0.1206
C72 C 0.2906(5) 0.3274(3) 0.2150(4)
H50 H 0.3026 0.3905 0.2152
C73 C 0.2114(5) 0.2816(5) 0.2708(4)
H51 H 0.1694 0.3134 0.3092
C74 C 0.1938(3) 0.1893(5) 0.2705(3)
H52 H 0.1398 0.1580 0.3087
F7? F 0.9586(18) 0.548(2) -0.0516(14)
F8? F 0.8479(17) 0.5108(16) -0.0886(16)
F9? F 0.9077(16) 0.6326(14) -0.1494(12)
F13? F 0.8717(13) 0.5439(13) 0.3498(12)
F14? F 0.9527(8) 0.5059(13) 0.2422(8)
F15? F 0.8859(19) 0.4042(6) 0.339(2)
F22? F -0.0085(18) 1.1596(18) 0.1844(17)
F23? F -0.1260(16) 1.2483(10) 0.1766(11)
F24? F -0.0645(11) 1.2168(10) 0.2971(13)
F28? F -0.4014(10) 1.0866(5) 0.1520(11)
F29? F -0.4710(4) 0.9875(8) 0.2539(4)
F30? F -0.3841(7) 0.9435(7) 0.1540(6)
F34? F -0.4835(8) 0.9438(14) 0.5761(8)
F35? F -0.4184(8) 0.8731(5) 0.6646(3)
F36? F -0.3627(10) 0.9978(10) 0.6063(10)
N6? N 0.115(4) 0.3794(19) 0.360(3)
C54? C 0.133(4) 0.4557(19) 0.347(5)
C55? C 0.1682(17) 0.5490(13) 0.3163(17)
C56? C 0.1071(13) 0.6212(17) 0.3337(15)
H38? H 0.0418 0.6091 0.3639
C57? C 0.141(2) 0.7111(14) 0.307(2)
H39? H 0.0995 0.7605 0.3185
C58? C 0.237(2) 0.7288(14) 0.262(2)
H40? H 0.2601 0.7903 0.2439
C59? C 0.2979(17) 0.657(2) 0.245(2)
H41? H 0.3631 0.6687 0.2147
C60? C 0.2637(16) 0.5667(17) 0.272(2)
H42? H 0.3055 0.5173 0.2602
N7? N 0.098(3) 0.3918(19) 0.378(3)
C61? C 0.128(3) 0.4632(18) 0.350(3)
C62? C 0.158(3) 0.5583(16) 0.328(3)
C63? C 0.090(2) 0.624(2) 0.350(2)
H43? H 0.0269 0.6052 0.3831
C64? C 0.113(2) 0.716(2) 0.3237(18)
H44? H 0.0664 0.7611 0.3388
C65? C 0.205(2) 0.7435(15) 0.275(2)
H45? H 0.2207 0.8068 0.2574
C66? C 0.273(2) 0.678(2) 0.253(2)
H46? H 0.3356 0.6965 0.2202
C67? C 0.250(2) 0.5854(18) 0.280(3)
H47? H 0.2962 0.5407 0.2646
N9? N 0.3567(12) -0.0632(11) 0.1388(10)
C75? C 0.3278(12) 0.0032(11) 0.1616(9)
C76? C 0.3031(8) 0.0840(6) 0.1844(6)
C77? C 0.3591(7) 0.1645(8) 0.1591(7)
H53? H 0.4201 0.1651 0.1209
C78? C 0.3258(10) 0.2441(6) 0.1895(9)
H54? H 0.3641 0.2991 0.1722
C79? C 0.2365(10) 0.2431(8) 0.2453(9)
H55? H 0.2138 0.2975 0.2662
C80? C 0.1805(9) 0.1626(10) 0.2707(10)
H56? H 0.1195 0.1620 0.3088
C81? C 0.2138(8) 0.0831(8) 0.2402(9)
H57? H 0.1755 0.0281 0.2575
loop_
_geom_bond_atom_site_label_1
_geom_bond_atom_site_label_2
_geom_bond_site_symmetry_1
_geom_bond_site_symmetry_2
Mn1 O1 1_555 1_555
Mn2 O5 1_555 1_555
F1 C4 1_555 1_555
F2 C4 1_555 1_555
F3 C4 1_555 1_555
F4 C5 1_555 1_555
F5 C5 1_555 1_555
F6 C5 1_555 1_555
F10 C9 1_555 1_555
F11 C9 1_555 1_555
F12 C9 1_555 1_555
F16 C10 1_555 1_555
F17 C10 1_555 1_555
F18 C10 1_555 1_555
F19 C40 1_555 1_555
F20 C40 1_555 1_555
F21 C40 1_555 1_555
F25 C41 1_555 1_555
F26 C41 1_555 1_555
F27 C41 1_555 1_555
F31 C45 1_555 1_555
F32 C45 1_555 1_555
F33 C45 1_555 1_555
F37 C46 1_555 1_555
F38 C46 1_555 1_555
F39 C46 1_555 1_555
O1 C1 1_555 1_555
O2 Mn1 1_555 1_555
O3 Mn1 1_555 1_555
O4 Mn1 1_555 1_555
O5 C37 1_555 1_555
O6 Mn2 1_555 1_555
O7 Mn2 1_555 1_555
O8 Mn2 1_555 1_555
N1 Mn1 1_555 1_555
N2 Mn2 1_555 1_555
N3 Mn1 1_555 1_555
N4 Mn2 1_555 1_555
C1 C2 1_555 1_555
C2 H1 1_555 1_555
C3 O2 1_555 1_555
C4 C1 1_555 1_555
C5 C3 1_555 1_555
C6 O3 1_555 1_555
C7 C6 1_555 1_555
H2 C7 1_555 1_555
C8 O4 1_555 1_555
C9 C6 1_555 1_555
C10 C8 1_555 1_555
C11 N1 1_555 1_555
H3 C11 1_555 1_555
C12 C11 1_555 1_555
H4 C12 1_555 1_555
C13 C12 1_555 1_555
C14 C13 1_555 1_555
H5 C14 1_555 1_555
C15 N1 1_555 1_555
H6 C15 1_555 1_555
C16 C13 1_555 1_555
H7 C16 1_555 1_555
H8 C16 1_555 1_555
C17 C16 1_555 1_555
H9 C17 1_555 1_555
H10 C17 1_555 1_555
C18 C17 1_555 1_555
H11 C18 1_555 1_555
H12 C18 1_555 1_555
C19 C18 1_555 1_555
C20 C19 1_555 1_555
H13 C20 1_555 1_555
C21 N2 1_555 1_555
H14 C21 1_555 1_555
C22 N2 1_555 1_555
H15 C22 1_555 1_555
C23 C19 1_555 1_555
H16 C23 1_555 1_555
C24 N3 1_555 1_555
H17 C24 1_555 1_555
C25 C24 1_555 1_555
H18 C25 1_555 1_555
C26 C25 1_555 1_555
C27 C26 1_555 1_555
H19 C27 1_555 1_555
C28 N3 1_555 1_555
H20 C28 1_555 1_555
C29 C26 1_555 1_555
H21 C29 1_555 1_555
H22 C29 1_555 1_555
C30 C29 1_555 1_555
H23 C30 1_555 1_555
H24 C30 1_555 1_555
C31 C30 1_555 1_555
H25 C31 1_555 1_555
H26 C31 1_555 1_555
C32 C31 1_555 1_555
C33 C32 1_555 1_555
H27 C33 1_555 1_555
C34 N4 1_555 1_555
H28 C34 1_555 1_555
C35 N4 1_555 1_555
H29 C35 1_555 1_555
C36 C32 1_555 1_555
H30 C36 1_555 1_555
C37 C38 1_555 1_555
C38 H31 1_555 1_555
C39 O6 1_555 1_555
C40 C37 1_555 1_555
C41 C39 1_555 1_555
C42 O7 1_555 1_555
C43 C42 1_555 1_555
H32 C43 1_555 1_555
C44 O8 1_555 1_555
C45 C42 1_555 1_555
C46 C44 1_555 1_555
N5 C47 1_555 1_555
C47 C48 1_555 1_555
C48 C49 1_555 1_555
C49 H33 1_555 1_555
C50 C49 1_555 1_555
H34 C50 1_555 1_555
C51 C50 1_555 1_555
H35 C51 1_555 1_555
C52 C51 1_555 1_555
H36 C52 1_555 1_555
C53 C48 1_555 1_555
H37 C53 1_555 1_555
N8 C68 1_555 1_555
C68 C69 1_555 1_555
C69 C70 1_555 1_555
C70 H48 1_555 1_555
C71 C70 1_555 1_555
H49 C71 1_555 1_555
C72 C71 1_555 1_555
H50 C72 1_555 1_555
C73 C72 1_555 1_555
H51 C73 1_555 1_555
C74 C69 1_555 1_555
H52 C74 1_555 1_555
C2 C3 1_555 1_555
C7 C8 1_555 1_555
C14 C15 1_555 1_555
C20 C21 1_555 1_555
C22 C23 1_555 1_555
C27 C28 1_555 1_555
C33 C34 1_555 1_555
C35 C36 1_555 1_555
C38 C39 1_555 1_555
C43 C44 1_555 1_555
C52 C53 1_555 1_555
C73 C74 1_555 1_555

#END
