
#######################################################################
#
#                 Cambridge Crystallographic Data Centre
#                                CCDC 
#
#######################################################################
#
# If this CIF has been generated from an entry in the Cambridge 
# Structural Database, then it will include bibliographic, chemical, 
# crystal, experimental, refinement or atomic coordinate data resulting 
# from the CCDC's data processing and validation procedures.
#
#######################################################################

data_NEVWAN
_chemical_formula_moiety         
'C124 H112 Br4 N16 O16 Re4,5(C1 H3 N1 O2),4(H2 O1)'
_chemical_name_systematic        
'(\m~4~-5,11,17,23-tetrakis(1H-imidazo(4,5-f)(3,8)phenanthrolin-2-yl)-25,26,27,28-tetraoctyloxycalix(4)arene)-tetrabromo-dodecacarbonyl-tetra-rhenium nitromethane solvate tetrahydrate'
_symmetry_cell_setting           triclinic
_symmetry_space_group_name_H-M   'P -1'
_symmetry_Int_Tables_number      2
_space_group_name_Hall           '-P 1'
loop_
_symmetry_equiv_pos_site_id
_symmetry_equiv_pos_as_xyz
1 x,y,z
2 -x,-y,-z
_cell_length_a                   16.1122(19)
_cell_length_b                   23.443(3)
_cell_length_c                   23.654(3)
_cell_angle_alpha                113.546(3)
_cell_angle_beta                 90.258(3)
_cell_angle_gamma                99.928(3)
_cell_volume                     8041.32
_exptl_crystal_description       Block
_cell_formula_units_Z            2
_exptl_crystal_recrystallization_method chloroform/nitromethane
_exptl_crystal_preparation       luminescent
loop_
_atom_site_label
_atom_site_type_symbol
_atom_site_fract_x
_atom_site_fract_y
_atom_site_fract_z
Re1 Re 1.24199(6) 0.42457(3) 0.72376(4)
Br1 Br 1.2936(2) 0.46412(17) 0.8406(2)
C1 C 1.2000(9) 0.400(3) 0.6391(6)
O1 O 1.169(3) 0.392(2) 0.5944(10)
C3 C 1.0821(10) 0.7159(7) 1.1612(8)
N1 N 1.0436(9) 0.5427(5) 0.9403(6)
H1 H 1.0987 0.5545 0.9416
O3 O 1.1048(8) 0.7710(5) 1.2114(6)
C4 C 1.3503(13) 0.4232(9) 0.6977(8)
C5 C 0.5629(9) 0.3142(7) 0.8752(10)
O4 O 1.4199(11) 0.4214(8) 0.6835(8)
O5 O 0.5626(9) 0.2645(6) 0.8746(9)
C6 C 0.4587(10) 0.8858(8) 0.8857(10)
C7 C 1.2556(10) 1.0050(8) 0.7312(8)
O6 O 1.2506(10) 1.0516(6) 0.7312(6)
O7 O 0.3921(8) 0.8906(7) 0.9015(10)
Re2 Re 0.56132(4) 0.39639(3) 0.87772(4)
Br3 Br 0.6185(2) 0.44629(15) 0.9939(2)
O8 O 0.4653(6) 0.319(4) 0.772(8)
C8 C 0.524(2) 0.354(5) 0.7908(4)
C10 C 1.1394(10) 0.6919(7) 1.1210(7)
N2 N 1.1098(12) 0.4305(7) 0.7542(9)
O10 O 1.2656(9) 0.8604(5) 1.1941(6)
C11 C 1.238(2) 0.3407(9) 0.7177(12)
C12 C 0.4519(10) 0.3910(7) 0.9051(9)
O11 O 0.3802(8) 0.3821(6) 0.9185(7)
C13 C 0.5655(10) 0.9573(9) 0.8432(11)
O12 O 0.5624(9) 1.0045(7) 0.8398(11)
O13 O 1.4507(12) 0.9512(10) 0.7083(9)
O14 O 1.2293(15) 0.2878(8) 0.7140(12)
C14 C 1.3771(15) 0.9391(10) 0.7168(9)
Re3 Re 0.56869(4) 0.88129(3) 0.85544(4)
Br6 Br 0.6233(2) 0.94677(16) 0.9704(3)
C16 C 0.5214(9) 0.8363(14) 0.7708(3)
O16 O 0.4878(17) 0.8039(11) 0.7257(8)
C17 C 1.1126(10) 0.6404(7) 1.0665(8)
H2 H 1.1534 0.6235 1.0389
N3 N 0.6907(10) 0.4081(6) 0.8476(7)
O17 O 1.1057(8) 0.9365(6) 1.2139(6)
Re4 Re 1.26387(5) 0.92430(3) 0.73409(4)
Br8 Br 1.2193(3) 0.8659(2) 0.6149(2)
C19 C 1.2950(12) 0.9709(9) 0.8216(2)
O19 O 1.319(4) 1.005(2) 0.8687(12)
C20 C 1.0252(11) 0.6111(7) 1.0495(8)
N4 N 0.9129(8) 0.5360(6) 0.9720(7)
O20 O 0.9554(8) 0.8535(5) 1.2549(6)
C21 C 0.9684(10) 0.6332(7) 1.0954(7)
H3 H 0.9113 0.6114 1.0883
N5 N 1.2508(8) 0.7871(6) 0.9008(7)
H4 H 1.2488 0.8276 0.9145
C22 C 0.9944(9) 0.6861(7) 1.1507(7)
N6 N 1.2724(9) 0.8310(6) 0.7353(6)
C23 C 0.9934(10) 0.5636(7) 0.9895(8)
N7 N 1.2514(11) 0.5224(7) 0.7285(8)
C24 C 0.9923(10) 0.5010(6) 0.8902(8)
N8 N 1.2506(9) 0.6928(6) 0.8995(7)
C25 C 1.0108(10) 0.4651(7) 0.8288(8)
N9 N 0.9200(7) 0.9147(5) 0.9614(6)
H5 H 0.8759 0.9139 0.9831
C26 C 1.0912(11) 0.4648(7) 0.8097(9)
H6 H 1.1367 0.4916 0.8391
N10 N 0.7030(10) 0.8745(7) 0.8258(8)
C27 C 1.0438(14) 0.3928(9) 0.7130(10)
H7 H 1.0550 0.3662 0.6726
N11 N 1.1294(9) 0.9042(6) 0.7558(7)
C28 C 0.9624(14) 0.3917(9) 0.7274(10)
H8 H 0.9182 0.3662 0.6963
N12 N 1.0553(8) 0.9254(5) 0.9378(6)
C29 C 0.9430(11) 0.4262(7) 0.7853(8)
N13 N 0.7202(8) 0.6726(5) 1.0053(7)
H9 H 0.7340 0.6439 1.0168
C30 C 0.8561(11) 0.4208(7) 0.8056(8)
N14 N 0.5601(7) 0.4913(5) 0.8769(7)
C31 C 0.7853(13) 0.3796(8) 0.7666(9)
H10 H 0.7923 0.3553 0.7244
N15 N 0.5649(7) 0.7894(6) 0.8637(7)
C32 C 0.7089(13) 0.3739(9) 0.7873(10)
H11 H 0.6638 0.3446 0.7591
N16 N 0.7216(8) 0.7664(5) 1.0018(7)
C33 C 0.7589(9) 0.4474(7) 0.8861(9)
H12 H 0.7498 0.4707 0.9281
C34 C 0.8409(9) 0.4560(7) 0.8685(8)
C35 C 0.9115(10) 0.4981(6) 0.9111(8)
C36 C 1.2319(10) 0.7242(7) 1.1326(8)
H13 H 1.2682 0.6920 1.1171
H14 H 1.2467 0.7488 1.1775
C37 C 1.2518(10) 0.8335(7) 1.1320(8)
C38 C 1.2461(9) 0.8724(6) 1.0984(8)
C39 C 1.2443(10) 0.8446(6) 1.0350(8)
H15 H 1.2412 0.8701 1.0127
C40 C 1.2469(9) 0.7809(6) 1.0021(8)
C41 C 1.2430(10) 0.7425(7) 1.0366(8)
H16 H 1.2381 0.6979 1.0153
C42 C 1.2463(9) 0.7686(7) 1.0988(8)
C43 C 1.2488(9) 0.7528(6) 0.9356(8)
C44 C 1.2561(10) 0.7486(6) 0.8429(8)
C45 C 1.2642(11) 0.7604(7) 0.7862(8)
C46 C 1.2616(10) 0.8191(8) 0.7857(8)
H17 H 1.2518 0.8523 0.8229
C47 C 1.2872(14) 0.7826(10) 0.6812(9)
H18 H 1.2998 0.7909 0.6457
C48 C 1.2837(16) 0.7215(9) 0.6787(9)
H19 H 1.2880 0.6880 0.6400
C49 C 1.2743(13) 0.7082(9) 0.7302(9)
C50 C 1.2661(13) 0.6457(8) 0.7309(9)
C51 C 1.2725(16) 0.5910(8) 0.6755(9)
H20 H 1.2821 0.5950 0.6375
C52 C 1.2643(19) 0.5320(9) 0.6786(10)
H21 H 1.2685 0.4964 0.6416
C53 C 1.2498(12) 0.5722(8) 0.7802(10)
H22 H 1.2440 0.5658 0.8173
C54 C 1.2563(12) 0.6345(7) 0.7845(8)
C55 C 1.2538(11) 0.6870(7) 0.8412(9)
C56 C 1.2354(10) 0.9410(6) 1.1307(8)
H23 H 1.2728 0.9679 1.1142
H24 H 1.2505 0.9569 1.1757
C57 C 1.0831(11) 0.9415(6) 1.1605(7)
C58 C 0.9978(10) 0.9392(6) 1.1458(8)
C59 C 0.9727(9) 0.9384(6) 1.0903(7)
H25 H 0.9152 0.9390 1.0819
C60 C 1.0291(9) 0.9367(6) 1.0463(7)
C61 C 1.1171(9) 0.9432(6) 1.0631(8)
H26 H 1.1585 0.9470 1.0357
C62 C 1.1405(10) 0.9437(6) 1.1187(8)
C63 C 1.0037(9) 0.9275(6) 0.9823(7)
C64 C 0.9193(9) 0.9033(6) 0.8998(8)
C65 C 0.8487(9) 0.8879(7) 0.8553(9)
C66 C 0.7649(9) 0.8878(7) 0.8701(9)
H27 H 0.7516 0.8971 0.9115
C67 C 0.7210(13) 0.8615(11) 0.7669(12)
H28 H 0.6764 0.8521 0.7363
C68 C 0.8008(13) 0.8617(10) 0.7506(10)
H29 H 0.8110 0.8511 0.7084
C69 C 0.8701(11) 0.8772(7) 0.7946(9)
C70 C 0.9561(10) 0.8823(7) 0.7795(8)
C71 C 0.9839(15) 0.8757(9) 0.7203(10)
H30 H 0.9420 0.8633 0.6871
C72 C 1.0646(13) 0.8856(9) 0.7085(10)
H31 H 1.0784 0.8801 0.6678
C73 C 1.1083(11) 0.9112(7) 0.8107(8)
H32 H 1.1524 0.9234 0.8424
C74 C 1.0226(10) 0.9005(6) 0.8264(8)
C75 C 1.0027(9) 0.9090(6) 0.8851(8)
C76 C 0.9305(11) 0.9299(6) 1.1888(8)
H33 H 0.9568 0.9461 1.2316
H34 H 0.8859 0.9541 1.1889
C77 C 0.9142(12) 0.8245(8) 1.1989(8)
C78 C 0.8914(10) 0.7588(7) 1.1702(8)
C79 C 0.8380(10) 0.7293(7) 1.1162(8)
H35 H 0.8203 0.6846 1.0987
C80 C 0.8099(10) 0.7657(7) 1.0870(8)
C81 C 0.8404(10) 0.8322(7) 1.1137(9)
H36 H 0.8246 0.8575 1.0941
C82 C 0.8917(12) 0.8601(7) 1.1670(8)
C83 C 0.7519(11) 0.7347(7) 1.0316(9)
C84 C 0.6636(10) 0.6614(6) 0.9584(9)
C85 C 0.6117(10) 0.6050(7) 0.9164(9)
C86 C 0.6088(10) 0.5445(6) 0.9174(9)
H37 H 0.6434 0.5417 0.9484
C87 C 0.5065(12) 0.4969(7) 0.8362(11)
H38 H 0.4687 0.4599 0.8092
C88 C 0.5036(11) 0.5528(8) 0.8319(10)
H39 H 0.4655 0.5541 0.8018
C89 C 0.5575(9) 0.6089(6) 0.8724(9)
C90 C 0.5580(10) 0.6705(7) 0.8687(9)
C91 C 0.5022(12) 0.6795(8) 0.8299(12)
H40 H 0.4587 0.6453 0.8053
C92 C 0.5085(13) 0.7379(8) 0.8263(11)
H41 H 0.4721 0.7417 0.7968
C93 C 0.6160(9) 0.7834(7) 0.9030(8)
H42 H 0.6558 0.8196 0.9291
C94 C 0.6148(10) 0.7260(7) 0.9085(9)
C95 C 0.6670(9) 0.7206(7) 0.9552(9)
C96 C 0.9288(12) 0.7161(8) 1.1940(9)
H43 H 0.8833 0.6824 1.1954
H44 H 0.9558 0.7413 1.2365
C97 C 1.1300(16) 0.7707(10) 1.2687(12)
H45 H 1.1816 0.7522 1.2645
H46 H 1.0848 0.7439 1.2803
C98 C 1.1466(18) 0.8338(16) 1.3167(13)
H47 H 1.1885 0.8603 1.3024
H48 H 1.0936 0.8507 1.3204
C99 C 1.175(3) 0.8432(17) 1.3749(17)
H49 H 1.2259 0.8238 1.3724
H50 H 1.1312 0.8224 1.3930
C100 C 1.200(2) 0.9206(15) 1.4200(13)
H51 H 1.2410 0.9412 1.3997
H52 H 1.1483 0.9388 1.4232
C101 C 1.238(3) 0.9369(12) 1.4857(14)
H53 H 1.2859 0.9150 1.4822
H54 H 1.1944 0.9194 1.5071
C102 C 1.2685(17) 1.0078(13) 1.5269(14)
H55 H 1.3075 1.0270 1.5044
H56 H 1.2195 1.0294 1.5355
C103 C 1.314(2) 1.0181(15) 1.5885(14)
H57 H 1.2852 0.9901 1.6075
H58 H 1.3744 1.0147 1.5851
C104 C 1.301(3) 1.0870(16) 1.6214(18)
H59 H 1.3339 1.1072 1.6617
H60 H 1.2411 1.0874 1.6272
H61 H 1.3205 1.1104 1.5960
C105 C 1.3555(14) 0.8825(12) 1.2129(12)
H62 H 1.3858 0.8489 1.1872
H63 H 1.3748 0.9200 1.2035
C106 C 1.380(3) 0.8991(16) 1.2756(16)
H64 H 1.3429 0.9259 1.3029
H65 H 1.4392 0.9226 1.2863
C107 C 1.370(2) 0.829(3) 1.2833(12)
H66 H 1.3114 0.8061 1.2711
H67 H 1.4076 0.8032 1.2553
C108 C 1.395(2) 0.8403(6) 1.3504(10)
H68 H 1.3585 0.8675 1.3785
H69 H 1.4541 0.8627 1.3622
C109 C 1.3836(15) 0.7771(7) 1.3577(6)
H70 H 1.3258 0.7518 1.3435
C110 C 1.4007(9) 0.8035(6) 1.4285(6)
H72 H 1.3495 0.8140 1.4504
H73 H 1.4474 0.8408 1.4447
C111 C 1.4257(18) 0.7439(8) 1.4306(7)
H74 H 1.4865 0.7504 1.4431
H75 H 1.3911 0.7281 1.4577
C112 C 1.403(2) 0.7010(7) 1.3615(8)
H76 H 1.4261 0.6621 1.3511
H78 H 1.3418 0.6901 1.3528
C113 C 1.137(3) 0.9934(15) 1.2656(15)
H79 H 1.1787 1.0180 1.2490
H80 H 1.0891 1.0159 1.2756
C114 C 1.172(3) 1.003(2) 1.3180(16)
H81 H 1.2194 0.9800 1.3082
H82 H 1.1300 0.9795 1.3353
C115 C 1.2038(12) 1.0605(9) 1.3679(10)
H83 H 1.1539 1.0766 1.3880
H84 H 1.2292 1.0900 1.3495
C116 C 1.268(2) 1.0701(13) 1.4209(16)
H85 H 1.3254 1.0660 1.4071
H86 H 1.2497 1.0412 1.4415
C117 C 1.262(3) 1.1392(14) 1.4615(7)
H87 H 1.2981 1.1658 1.4443
H88 H 1.2027 1.1431 1.4540
C118 C 1.2823(9) 1.1709(6) 1.5321(6)
H89 H 1.3087 1.1388 1.5389
H90 H 1.2252 1.1658 1.5468
C119 C 1.3274(12) 1.2321(6) 1.5857(7)
H91 H 1.2962 1.2663 1.5903
H92 H 1.3848 1.2443 1.5743
C120 C 1.336(10) 1.228(6) 1.649(3)
H93 H 1.3508 1.2705 1.6815
H94 H 1.3801 1.2038 1.6485
H95 H 1.2820 1.2061 1.6560
C121 C 0.895(2) 0.8572(14) 1.3020(11)
H96 H 0.8826 0.8163 1.3061
H97 H 0.8409 0.8647 1.2883
C122 C 0.926(2) 0.9073(14) 1.3616(12)
H98 H 0.8853 0.9030 1.3914
H99 H 0.9795 0.8981 1.3737
C123 C 0.942(2) 0.9699(14) 1.3710(13)
H100 H 0.8888 0.9790 1.3580
H101 H 0.9837 0.9745 1.3418
C124 C 0.972(2) 1.0197(13) 1.4310(13)
H102 H 1.0267 1.0125 1.4428
H103 H 0.9318 1.0137 1.4607
C125 C 0.983(3) 1.0863(15) 1.4406(16)
H104 H 1.0295 1.0951 1.4161
H105 H 0.9309 1.0936 1.4246
C126 C 1.003(3) 1.1308(18) 1.5045(17)
H106 H 0.9592 1.1188 1.5292
H107 H 1.0575 1.1253 1.5190
C127 C 1.008(5) 1.194(2) 1.518(2)
H108 H 1.0534 1.2040 1.4932
H109 H 0.9548 1.1965 1.4989
C128 C 1.022(5) 1.2444(18) 1.5746(19)
H110 H 1.0053 1.2812 1.5710
H111 H 1.0817 1.2545 1.5890
H112 H 0.9877 1.2333 1.6043
O21 O 1.2232(7) 0.9108(5) 0.9319(6)
H113 H 1.1659 0.9016 0.9219
H114 H 1.2458 0.9307 0.9128
O22 O 0.7700(7) 0.8924(5) 1.0161(6)
H115 H 0.7557 0.8510 1.0105
H116 H 0.7352 0.9109 1.0092
O23 O 0.7687(7) 0.5734(5) 1.0269(6)
H117 H 0.8257 0.5735 1.0210
H118 H 0.7317 0.5425 1.0235
O24 O 1.2137(8) 0.5870(5) 0.9305(6)
H119 H 1.2191 0.6273 0.9329
H120 H 1.2424 0.5546 0.9089
C129 C 1.0260(12) 0.7729(8) 1.0451(10)
H121 H 0.9984 0.7477 1.0667
H122 H 1.0127 0.8155 1.0634
H123 H 1.0873 0.7759 1.0491
N17 N 0.999(3) 0.7458(12) 0.9867(16)
O27 O 0.960(6) 0.6889(18) 0.968(2)
O28 O 1.039(5) 0.7835(16) 0.9510(16)
O29 O 1.067(3) 0.7597(13) 0.736(2)
N18 N 1.051(3) 0.7246(15) 0.7667(16)
C130 C 1.039(5) 0.6585(13) 0.718(2)
H124 H 1.0539 0.6600 0.6780
H125 H 0.9803 0.6375 0.7140
H126 H 1.0762 0.6349 0.7289
O30 O 1.032(4) 0.741(3) 0.824(2)
N19 N 1.215(4) 0.415(2) 1.186(2)
O31 O 1.262(3) 0.470(2) 1.195(4)
C131 C 1.273(6) 0.382(3) 1.207(4)
H127 H 1.3004 0.4106 1.2483
H128 H 1.3166 0.3706 1.1779
H129 H 1.2407 0.3435 1.2092
O32 O 1.173(4) 0.377(3) 1.132(3)
O33 O 1.047(3) 0.5307(14) 0.700(2)
C132 C 0.9046(18) 0.5325(19) 0.7124(18)
H130 H 0.9019 0.5416 0.6755
H131 H 0.8690 0.5568 0.7428
H132 H 0.8843 0.4871 0.7009
N20 N 0.9937(18) 0.5506(15) 0.7398(11)
O34 O 1.0115(19) 0.5919(12) 0.7967(10)
N21 N 0.783(3) 0.700(3) 0.7514(19)
O35 O 0.797(4) 0.739(3) 0.8094(19)
C133 C 0.693(3) 0.695(4) 0.730(3)
H133 H 0.6569 0.6977 0.7635
H134 H 0.6746 0.6549 0.6942
H135 H 0.6903 0.7304 0.7179
O36 O 0.8373(18) 0.7062(13) 0.7123(12)
N22 N 0.751(2) 0.7162(19) 0.5890(17)
O37 O 0.824(2) 0.754(2) 0.599(2)
O38 O 0.7093(18) 0.6743(12) 0.5361(12)
C134 C 0.689(3) 0.758(2) 0.6175(19)
H136 H 0.7142 0.7919 0.6569
H137 H 0.6380 0.7330 0.6248
H138 H 0.6733 0.7767 0.5894
O39 O 0.436(2) 0.139(2) 0.7842(17)
N23 N 0.384(3) 0.168(2) 0.8213(19)
C135 C 0.344(3) 0.2095(18) 0.8012(19)
H139 H 0.3783 0.2197 0.7711
H140 H 0.3411 0.2486 0.8371
H141 H 0.2872 0.1879 0.7821
O40 O 0.3517(18) 0.1436(12) 0.8594(11)
O41 O 1.189(3) 0.7070(17) 1.3967(16)
N24 N 1.168(4) 0.6760(17) 1.4320(18)
O42 O 1.209(5) 0.705(3) 1.4883(19)
C136 C 1.199(3) 0.6165(16) 1.3932(18)
H142 H 1.1739 0.5966 1.3504
H143 H 1.1936 0.5848 1.4108
H144 H 1.2588 0.6343 1.3941
N25 N 1.503(3) 0.8343(15) 1.0253(19)
O43 O 1.5078(18) 0.8884(12) 1.0185(12)
C137 C 1.444(2) 0.7908(16) 0.9687(15)
H145 H 1.4368 0.8134 0.9426
H146 H 1.3895 0.7774 0.9818
H147 H 1.4687 0.7535 0.9453
O44 O 1.458(5) 0.836(3) 1.072(2)
Br2? Br 1.1913(5) 0.3772(3) 0.6085(4)
C2? C 1.2756(10) 0.4420(13) 0.8084(4)
O2? O 1.299(5) 0.443(6) 0.853(3)
Br4? Br 0.4955(3) 0.3392(2) 0.7607(3)
C9? C 0.5932(11) 0.4287(12) 0.96523(18)
O9? O 0.617(2) 0.4482(16) 1.0141(5)
Br5? Br 0.5084(2) 0.81900(19) 0.7420(2)
C15? C 0.5989(10) 0.9345(13) 0.9420(3)
O15? O 0.6343(18) 0.9680(11) 0.9859(8)
Br7? Br 1.3126(3) 0.9902(2) 0.8546(3)
O18? O 1.234(3) 0.866(2) 0.5949(6)
C18? C 1.249(3) 0.893(2) 0.64510(16)
H71? H 1.4255 0.7515 1.3358
H77? H 1.4282 0.7233 1.3365
O25? O 0.941(4) 0.778(2) 0.9689(19)
O26? O 1.041(3) 0.6919(19) 0.9480(16)
loop_
_geom_bond_atom_site_label_1
_geom_bond_atom_site_label_2
_geom_bond_site_symmetry_1
_geom_bond_site_symmetry_2
Re1 Br1 1_555 1_555
C1 Re1 1_555 1_555
O1 C1 1_555 1_555
C3 O3 1_555 1_555
N1 H1 1_555 1_555
O3 C97 1_555 1_555
C4 Re1 1_555 1_555
C5 O5 1_555 1_555
O4 C4 1_555 1_555
C6 O7 1_555 1_555
C7 O6 1_555 1_555
Re2 C5 1_555 1_555
Br3 Re2 1_555 1_555
O8 C8 1_555 1_555
C8 Re2 1_555 1_555
C10 C3 1_555 1_555
N2 Re1 1_555 1_555
O10 C37 1_555 1_555
C11 Re1 1_555 1_555
C12 Re2 1_555 1_555
O11 C12 1_555 1_555
C13 O12 1_555 1_555
O13 C14 1_555 1_555
O14 C11 1_555 1_555
C14 Re4 1_555 1_555
Re3 C6 1_555 1_555
Br6 Re3 1_555 1_555
C16 Re3 1_555 1_555
O16 C16 1_555 1_555
C17 C10 1_555 1_555
H2 C17 1_555 1_555
N3 Re2 1_555 1_555
O17 C57 1_555 1_555
Re4 C7 1_555 1_555
Br8 Re4 1_555 1_555
C19 Re4 1_555 1_555
O19 C19 1_555 1_555
C20 C17 1_555 1_555
N4 C23 1_555 1_555
O20 C77 1_555 1_555
C21 C20 1_555 1_555
H3 C21 1_555 1_555
N5 H4 1_555 1_555
C22 C3 1_555 1_555
N6 Re4 1_555 1_555
C23 N1 1_555 1_555
N7 Re1 1_555 1_555
C24 N1 1_555 1_555
N8 C43 1_555 1_555
C25 C24 1_555 1_555
N9 H5 1_555 1_555
C26 N2 1_555 1_555
H6 C26 1_555 1_555
N10 Re3 1_555 1_555
C27 N2 1_555 1_555
H7 C27 1_555 1_555
N11 Re4 1_555 1_555
C28 C27 1_555 1_555
H8 C28 1_555 1_555
N12 C63 1_555 1_555
C29 C25 1_555 1_555
N13 H9 1_555 1_555
C30 C29 1_555 1_555
N14 Re2 1_555 1_555
C31 C30 1_555 1_555
H10 C31 1_555 1_555
N15 Re3 1_555 1_555
C32 N3 1_555 1_555
H11 C32 1_555 1_555
N16 C83 1_555 1_555
C33 N3 1_555 1_555
H12 C33 1_555 1_555
C34 C30 1_555 1_555
C35 N4 1_555 1_555
C36 C10 1_555 1_555
H13 C36 1_555 1_555
H14 C36 1_555 1_555
C37 C38 1_555 1_555
C38 C39 1_555 1_555
C39 H15 1_555 1_555
C40 C39 1_555 1_555
C41 C40 1_555 1_555
H16 C41 1_555 1_555
C42 C36 1_555 1_555
C43 N5 1_555 1_555
C44 N5 1_555 1_555
C45 C44 1_555 1_555
C46 N6 1_555 1_555
H17 C46 1_555 1_555
C47 N6 1_555 1_555
H18 C47 1_555 1_555
C48 C47 1_555 1_555
H19 C48 1_555 1_555
C49 C45 1_555 1_555
C50 C49 1_555 1_555
C51 C50 1_555 1_555
H20 C51 1_555 1_555
C52 N7 1_555 1_555
H21 C52 1_555 1_555
C53 N7 1_555 1_555
H22 C53 1_555 1_555
C54 C50 1_555 1_555
C55 N8 1_555 1_555
C56 C38 1_555 1_555
H23 C56 1_555 1_555
H24 C56 1_555 1_555
C57 C58 1_555 1_555
C58 C59 1_555 1_555
C59 H25 1_555 1_555
C60 C59 1_555 1_555
C61 C60 1_555 1_555
H26 C61 1_555 1_555
C62 C56 1_555 1_555
C63 N9 1_555 1_555
C64 N9 1_555 1_555
C65 C64 1_555 1_555
C66 N10 1_555 1_555
H27 C66 1_555 1_555
C67 N10 1_555 1_555
H28 C67 1_555 1_555
C68 C67 1_555 1_555
H29 C68 1_555 1_555
C69 C65 1_555 1_555
C70 C69 1_555 1_555
C71 C70 1_555 1_555
H30 C71 1_555 1_555
C72 N11 1_555 1_555
H31 C72 1_555 1_555
C73 N11 1_555 1_555
H32 C73 1_555 1_555
C74 C70 1_555 1_555
C75 N12 1_555 1_555
C76 C58 1_555 1_555
H33 C76 1_555 1_555
H34 C76 1_555 1_555
C77 C78 1_555 1_555
C78 C79 1_555 1_555
C79 H35 1_555 1_555
C80 C79 1_555 1_555
C81 C80 1_555 1_555
H36 C81 1_555 1_555
C82 C76 1_555 1_555
C83 N13 1_555 1_555
C84 N13 1_555 1_555
C85 C84 1_555 1_555
C86 N14 1_555 1_555
H37 C86 1_555 1_555
C87 N14 1_555 1_555
H38 C87 1_555 1_555
C88 C87 1_555 1_555
H39 C88 1_555 1_555
C89 C85 1_555 1_555
C90 C89 1_555 1_555
C91 C90 1_555 1_555
H40 C91 1_555 1_555
C92 N15 1_555 1_555
H41 C92 1_555 1_555
C93 N15 1_555 1_555
H42 C93 1_555 1_555
C94 C90 1_555 1_555
C95 N16 1_555 1_555
C96 C22 1_555 1_555
H43 C96 1_555 1_555
H44 C96 1_555 1_555
C97 H45 1_555 1_555
H46 C97 1_555 1_555
C98 C97 1_555 1_555
H47 C98 1_555 1_555
H48 C98 1_555 1_555
C99 C98 1_555 1_555
H49 C99 1_555 1_555
H50 C99 1_555 1_555
C100 C99 1_555 1_555
H51 C100 1_555 1_555
H52 C100 1_555 1_555
C101 C100 1_555 1_555
H53 C101 1_555 1_555
H54 C101 1_555 1_555
C102 C101 1_555 1_555
H55 C102 1_555 1_555
H56 C102 1_555 1_555
C103 C102 1_555 1_555
H57 C103 1_555 1_555
H58 C103 1_555 1_555
C104 C103 1_555 1_555
H59 C104 1_555 1_555
H60 C104 1_555 1_555
H61 C104 1_555 1_555
C105 O10 1_555 1_555
H62 C105 1_555 1_555
H63 C105 1_555 1_555
C106 C105 1_555 1_555
H64 C106 1_555 1_555
H65 C106 1_555 1_555
C107 C106 1_555 1_555
H66 C107 1_555 1_555
H67 C107 1_555 1_555
C108 C107 1_555 1_555
H68 C108 1_555 1_555
H69 C108 1_555 1_555
C109 C108 1_555 1_555
H70 C109 1_555 1_555
C110 C109 1_555 1_555
H72 C110 1_555 1_555
H73 C110 1_555 1_555
C111 C110 1_555 1_555
H74 C111 1_555 1_555
H75 C111 1_555 1_555
C112 C111 1_555 1_555
H76 C112 1_555 1_555
H78 C112 1_555 1_555
C113 O17 1_555 1_555
H79 C113 1_555 1_555
H80 C113 1_555 1_555
C114 C113 1_555 1_555
H81 C114 1_555 1_555
H82 C114 1_555 1_555
C115 C114 1_555 1_555
H83 C115 1_555 1_555
H84 C115 1_555 1_555
C116 C115 1_555 1_555
H85 C116 1_555 1_555
H86 C116 1_555 1_555
C117 C116 1_555 1_555
H87 C117 1_555 1_555
H88 C117 1_555 1_555
C118 C117 1_555 1_555
H89 C118 1_555 1_555
H90 C118 1_555 1_555
C119 C118 1_555 1_555
H91 C119 1_555 1_555
H92 C119 1_555 1_555
C120 C119 1_555 1_555
H93 C120 1_555 1_555
H94 C120 1_555 1_555
H95 C120 1_555 1_555
C121 O20 1_555 1_555
H96 C121 1_555 1_555
H97 C121 1_555 1_555
C122 C121 1_555 1_555
H98 C122 1_555 1_555
H99 C122 1_555 1_555
C123 C122 1_555 1_555
H100 C123 1_555 1_555
H101 C123 1_555 1_555
C124 C123 1_555 1_555
H102 C124 1_555 1_555
H103 C124 1_555 1_555
C125 C124 1_555 1_555
H104 C125 1_555 1_555
H105 C125 1_555 1_555
C126 C125 1_555 1_555
H106 C126 1_555 1_555
H107 C126 1_555 1_555
C127 C126 1_555 1_555
H108 C127 1_555 1_555
H109 C127 1_555 1_555
C128 C127 1_555 1_555
H110 C128 1_555 1_555
H111 C128 1_555 1_555
H112 C128 1_555 1_555
O21 H113 1_555 1_555
H114 O21 1_555 1_555
O22 H115 1_555 1_555
H116 O22 1_555 1_555
O23 H117 1_555 1_555
H118 O23 1_555 1_555
O24 H119 1_555 1_555
H120 O24 1_555 1_555
C129 H121 1_555 1_555
H122 C129 1_555 1_555
H123 C129 1_555 1_555
N17 C129 1_555 1_555
O27 N17 1_555 1_555
O28 N17 1_555 1_555
O29 N18 1_555 1_555
N18 C130 1_555 1_555
C130 H124 1_555 1_555
H125 C130 1_555 1_555
H126 C130 1_555 1_555
O30 N18 1_555 1_555
N19 O31 1_555 1_555
C131 N19 1_555 1_555
H127 C131 1_555 1_555
H128 C131 1_555 1_555
H129 C131 1_555 1_555
O32 N19 1_555 1_555
O33 N20 1_555 1_555
C132 H130 1_555 1_555
H131 C132 1_555 1_555
H132 C132 1_555 1_555
N20 C132 1_555 1_555
O34 N20 1_555 1_555
N21 O35 1_555 1_555
C133 N21 1_555 1_555
H133 C133 1_555 1_555
H134 C133 1_555 1_555
H135 C133 1_555 1_555
O36 N21 1_555 1_555
N22 O37 1_555 1_555
O38 N22 1_555 1_555
C134 N22 1_555 1_555
H136 C134 1_555 1_555
H137 C134 1_555 1_555
H138 C134 1_555 1_555
O39 N23 1_555 1_555
N23 C135 1_555 1_555
C135 H139 1_555 1_555
H140 C135 1_555 1_555
H141 C135 1_555 1_555
O40 N23 1_555 1_555
O41 N24 1_555 1_555
N24 O42 1_555 1_555
C136 N24 1_555 1_555
H142 C136 1_555 1_555
H143 C136 1_555 1_555
H144 C136 1_555 1_555
N25 O43 1_555 1_555
C137 N25 1_555 1_555
H145 C137 1_555 1_555
H146 C137 1_555 1_555
H147 C137 1_555 1_555
O44 N25 1_555 1_555
C13 Re3 1_555 1_555
C20 C23 1_555 1_555
C21 C22 1_555 1_555
C24 C35 1_555 1_555
C25 C26 1_555 1_555
C28 C29 1_555 1_555
C31 C32 1_555 1_555
C33 C34 1_555 1_555
C34 C35 1_555 1_555
C37 C42 1_555 1_555
C40 C43 1_555 1_555
C41 C42 1_555 1_555
C44 C55 1_555 1_555
C45 C46 1_555 1_555
C48 C49 1_555 1_555
C51 C52 1_555 1_555
C53 C54 1_555 1_555
C54 C55 1_555 1_555
C57 C62 1_555 1_555
C60 C63 1_555 1_555
C61 C62 1_555 1_555
C64 C75 1_555 1_555
C65 C66 1_555 1_555
C68 C69 1_555 1_555
C71 C72 1_555 1_555
C73 C74 1_555 1_555
C74 C75 1_555 1_555
C77 C82 1_555 1_555
C78 C96 1_555 1_555
C80 C83 1_555 1_555
C81 C82 1_555 1_555
C84 C95 1_555 1_555
C85 C86 1_555 1_555
C88 C89 1_555 1_555
C91 C92 1_555 1_555
C93 C94 1_555 1_555
C94 C95 1_555 1_555

#END
