# generated using pymatgen
data_B2H156Pd6C131S12(N3F4)2
_symmetry_space_group_name_H-M   'P 1'
_cell_length_a   24.12050000
_cell_length_b   26.86280000
_cell_length_c   28.41650000
_cell_angle_alpha   113.50400000
_cell_angle_beta   90.00000000
_cell_angle_gamma   90.00000000
_symmetry_Int_Tables_number   1
_chemical_formula_structural   B2H156Pd6C131S12(N3F4)2
_chemical_formula_sum   'B8 H624 Pd24 C524 S48 N24 F32'
_cell_volume   16884.67758818
_cell_formula_units_Z   4
loop_
 _symmetry_equiv_pos_site_id
 _symmetry_equiv_pos_as_xyz
  1  'x, y, z'
loop_
 _atom_site_type_symbol
 _atom_site_label
 _atom_site_symmetry_multiplicity
 _atom_site_fract_x
 _atom_site_fract_y
 _atom_site_fract_z
 _atom_site_occupancy
  B  B1  1  0.095800  0.239400  0.915600  1
  B  B2  1  0.095800  0.760600  0.584400  1
  B  B3  1  0.595800  0.739400  0.915600  1
  B  B4  1  0.595800  0.260600  0.584400  1
  B  B5  1  0.904200  0.760600  0.084400  1
  B  B6  1  0.904200  0.239400  0.415600  1
  B  B7  1  0.404200  0.260600  0.084400  1
  B  B8  1  0.404200  0.739400  0.415600  1
  H  H9  1  0.399000  0.666500  0.752000  1
  H  H10  1  0.399000  0.333500  0.748000  1
  H  H11  1  0.899000  0.166500  0.752000  1
  H  H12  1  0.899000  0.833500  0.748000  1
  H  H13  1  0.601000  0.333500  0.248000  1
  H  H14  1  0.601000  0.666500  0.252000  1
  H  H15  1  0.101000  0.833500  0.248000  1
  H  H16  1  0.101000  0.166500  0.252000  1
  H  H17  1  0.343000  0.675000  0.727100  1
  H  H18  1  0.343000  0.325000  0.772900  1
  H  H19  1  0.843000  0.175000  0.727100  1
  H  H20  1  0.843000  0.825000  0.772900  1
  H  H21  1  0.657000  0.325000  0.272900  1
  H  H22  1  0.657000  0.675000  0.227100  1
  H  H23  1  0.157000  0.825000  0.272900  1
  H  H24  1  0.157000  0.175000  0.227100  1
  H  H25  1  0.345700  0.772400  0.779000  1
  H  H26  1  0.345700  0.227600  0.721000  1
  H  H27  1  0.845700  0.272400  0.779000  1
  H  H28  1  0.845700  0.727600  0.721000  1
  H  H29  1  0.654300  0.227600  0.221000  1
  H  H30  1  0.654300  0.772400  0.279000  1
  H  H31  1  0.154300  0.727600  0.221000  1
  H  H32  1  0.154300  0.272400  0.279000  1
  H  H33  1  0.397000  0.765300  0.809800  1
  H  H34  1  0.397000  0.234700  0.690200  1
  H  H35  1  0.897000  0.265300  0.809800  1
  H  H36  1  0.897000  0.734700  0.690200  1
  H  H37  1  0.603000  0.234700  0.190200  1
  H  H38  1  0.603000  0.765300  0.309800  1
  H  H39  1  0.103000  0.734700  0.190200  1
  H  H40  1  0.103000  0.265300  0.309800  1
  H  H41  1  0.452500  0.732100  0.730000  1
  H  H42  1  0.452500  0.267900  0.770000  1
  H  H43  1  0.952500  0.232100  0.730000  1
  H  H44  1  0.952500  0.767900  0.770000  1
  H  H45  1  0.547500  0.267900  0.270000  1
  H  H46  1  0.547500  0.732100  0.230000  1
  H  H47  1  0.047500  0.767900  0.270000  1
  H  H48  1  0.047500  0.232100  0.230000  1
  H  H49  1  0.401000  0.741300  0.700100  1
  H  H50  1  0.401000  0.258700  0.799900  1
  H  H51  1  0.901000  0.241300  0.700100  1
  H  H52  1  0.901000  0.758700  0.799900  1
  H  H53  1  0.599000  0.258700  0.299900  1
  H  H54  1  0.599000  0.741300  0.200100  1
  H  H55  1  0.099000  0.758700  0.299900  1
  H  H56  1  0.099000  0.241300  0.200100  1
  H  H57  1  0.451000  0.825500  0.785400  1
  H  H58  1  0.451000  0.174500  0.714600  1
  H  H59  1  0.951000  0.325500  0.785400  1
  H  H60  1  0.951000  0.674500  0.714600  1
  H  H61  1  0.549000  0.174500  0.214600  1
  H  H62  1  0.549000  0.825500  0.285400  1
  H  H63  1  0.049000  0.674500  0.214600  1
  H  H64  1  0.049000  0.325500  0.285400  1
  H  H65  1  0.400400  0.834600  0.756000  1
  H  H66  1  0.400400  0.165400  0.744000  1
  H  H67  1  0.900400  0.334600  0.756000  1
  H  H68  1  0.900400  0.665400  0.744000  1
  H  H69  1  0.599600  0.165400  0.244000  1
  H  H70  1  0.599600  0.834600  0.256000  1
  H  H71  1  0.099600  0.665400  0.244000  1
  H  H72  1  0.099600  0.334600  0.256000  1
  H  H73  1  0.271300  0.539200  0.902900  1
  H  H74  1  0.271300  0.460800  0.597100  1
  H  H75  1  0.771300  0.039200  0.902900  1
  H  H76  1  0.771300  0.960800  0.597100  1
  H  H77  1  0.728700  0.460800  0.097100  1
  H  H78  1  0.728700  0.539200  0.402900  1
  H  H79  1  0.228700  0.960800  0.097100  1
  H  H80  1  0.228700  0.039200  0.402900  1
  H  H81  1  0.331500  0.522600  0.881200  1
  H  H82  1  0.331500  0.477400  0.618800  1
  H  H83  1  0.831500  0.022600  0.881200  1
  H  H84  1  0.831500  0.977400  0.618800  1
  H  H85  1  0.668500  0.477400  0.118800  1
  H  H86  1  0.668500  0.522600  0.381200  1
  H  H87  1  0.168500  0.977400  0.118800  1
  H  H88  1  0.168500  0.022600  0.381200  1
  H  H89  1  0.362800  0.522700  0.962700  1
  H  H90  1  0.362800  0.477300  0.537300  1
  H  H91  1  0.862800  0.022700  0.962700  1
  H  H92  1  0.862800  0.977300  0.537300  1
  H  H93  1  0.637200  0.477300  0.037300  1
  H  H94  1  0.637200  0.522700  0.462700  1
  H  H95  1  0.137200  0.977300  0.037300  1
  H  H96  1  0.137200  0.022700  0.462700  1
  H  H97  1  0.305500  0.546500  0.988600  1
  H  H98  1  0.305500  0.453500  0.511400  1
  H  H99  1  0.805500  0.046500  0.988600  1
  H  H100  1  0.805500  0.953500  0.511400  1
  H  H101  1  0.694500  0.453500  0.011400  1
  H  H102  1  0.694500  0.546500  0.488600  1
  H  H103  1  0.194500  0.953500  0.011400  1
  H  H104  1  0.194500  0.046500  0.488600  1
  H  H105  1  0.258800  0.463400  0.929400  1
  H  H106  1  0.258800  0.536600  0.570600  1
  H  H107  1  0.758800  0.963400  0.929400  1
  H  H108  1  0.758800  0.036600  0.570600  1
  H  H109  1  0.741200  0.536600  0.070600  1
  H  H110  1  0.741200  0.463400  0.429400  1
  H  H111  1  0.241200  0.036600  0.070600  1
  H  H112  1  0.241200  0.963400  0.429400  1
  H  H113  1  0.316900  0.439500  0.905100  1
  H  H114  1  0.316900  0.560500  0.594900  1
  H  H115  1  0.816900  0.939500  0.905100  1
  H  H116  1  0.816900  0.060500  0.594900  1
  H  H117  1  0.683100  0.560500  0.094900  1
  H  H118  1  0.683100  0.439500  0.405100  1
  H  H119  1  0.183100  0.060500  0.094900  1
  H  H120  1  0.183100  0.939500  0.405100  1
  H  H121  1  0.295500  0.410000  0.971700  1
  H  H122  1  0.295500  0.590000  0.528300  1
  H  H123  1  0.795500  0.910000  0.971700  1
  H  H124  1  0.795500  0.090000  0.528300  1
  H  H125  1  0.704500  0.590000  0.028300  1
  H  H126  1  0.704500  0.410000  0.471700  1
  H  H127  1  0.204500  0.090000  0.028300  1
  H  H128  1  0.204500  0.910000  0.471700  1
  H  H129  1  0.290900  0.470700  0.010700  1
  H  H130  1  0.290900  0.529300  0.489300  1
  H  H131  1  0.790900  0.970700  0.010700  1
  H  H132  1  0.790900  0.029300  0.489300  1
  H  H133  1  0.709100  0.529300  0.989300  1
  H  H134  1  0.709100  0.470700  0.510700  1
  H  H135  1  0.209100  0.029300  0.989300  1
  H  H136  1  0.209100  0.970700  0.510700  1
  H  H137  1  0.348500  0.447000  0.986700  1
  H  H138  1  0.348500  0.553000  0.513300  1
  H  H139  1  0.848500  0.947000  0.986700  1
  H  H140  1  0.848500  0.053000  0.513300  1
  H  H141  1  0.651500  0.553000  0.013300  1
  H  H142  1  0.651500  0.447000  0.486700  1
  H  H143  1  0.151500  0.053000  0.013300  1
  H  H144  1  0.151500  0.947000  0.486700  1
  H  H145  1  0.740300  0.687400  0.747700  1
  H  H146  1  0.740300  0.312600  0.752300  1
  H  H147  1  0.240300  0.187400  0.747700  1
  H  H148  1  0.240300  0.812600  0.752300  1
  H  H149  1  0.259700  0.312600  0.252300  1
  H  H150  1  0.259700  0.687400  0.247700  1
  H  H151  1  0.759700  0.812600  0.252300  1
  H  H152  1  0.759700  0.187400  0.247700  1
  H  H153  1  0.778300  0.736600  0.783800  1
  H  H154  1  0.778300  0.263400  0.716200  1
  H  H155  1  0.278300  0.236600  0.783800  1
  H  H156  1  0.278300  0.763400  0.716200  1
  H  H157  1  0.221700  0.263400  0.216200  1
  H  H158  1  0.221700  0.736600  0.283800  1
  H  H159  1  0.721700  0.763400  0.216200  1
  H  H160  1  0.721700  0.236600  0.283800  1
  H  H161  1  0.834700  0.720800  0.716900  1
  H  H162  1  0.834700  0.279200  0.783100  1
  H  H163  1  0.334700  0.220800  0.716900  1
  H  H164  1  0.334700  0.779200  0.783100  1
  H  H165  1  0.165300  0.279200  0.283100  1
  H  H166  1  0.165300  0.720800  0.216900  1
  H  H167  1  0.665300  0.779200  0.283100  1
  H  H168  1  0.665300  0.220800  0.216900  1
  H  H169  1  0.853800  0.670900  0.726200  1
  H  H170  1  0.853800  0.329100  0.773800  1
  H  H171  1  0.353800  0.170900  0.726200  1
  H  H172  1  0.353800  0.829100  0.773800  1
  H  H173  1  0.146200  0.329100  0.273800  1
  H  H174  1  0.146200  0.670900  0.226200  1
  H  H175  1  0.646200  0.829100  0.273800  1
  H  H176  1  0.646200  0.170900  0.226200  1
  H  H177  1  0.846600  0.672800  0.638200  1
  H  H178  1  0.846600  0.327200  0.861800  1
  H  H179  1  0.346600  0.172800  0.638200  1
  H  H180  1  0.346600  0.827200  0.861800  1
  H  H181  1  0.153400  0.327200  0.361800  1
  H  H182  1  0.153400  0.672800  0.138200  1
  H  H183  1  0.653400  0.827200  0.361800  1
  H  H184  1  0.653400  0.172800  0.138200  1
  H  H185  1  0.849100  0.618800  0.647000  1
  H  H186  1  0.849100  0.381200  0.853000  1
  H  H187  1  0.349100  0.118800  0.647000  1
  H  H188  1  0.349100  0.881200  0.853000  1
  H  H189  1  0.150900  0.381200  0.353000  1
  H  H190  1  0.150900  0.618800  0.147000  1
  H  H191  1  0.650900  0.881200  0.353000  1
  H  H192  1  0.650900  0.118800  0.147000  1
  H  H193  1  0.772500  0.614900  0.592500  1
  H  H194  1  0.772500  0.385100  0.907500  1
  H  H195  1  0.272500  0.114900  0.592500  1
  H  H196  1  0.272500  0.885100  0.907500  1
  H  H197  1  0.227500  0.385100  0.407500  1
  H  H198  1  0.227500  0.614900  0.092500  1
  H  H199  1  0.727500  0.885100  0.407500  1
  H  H200  1  0.727500  0.114900  0.092500  1
  H  H201  1  0.747500  0.667600  0.634900  1
  H  H202  1  0.747500  0.332400  0.865100  1
  H  H203  1  0.247500  0.167600  0.634900  1
  H  H204  1  0.247500  0.832400  0.865100  1
  H  H205  1  0.252500  0.332400  0.365100  1
  H  H206  1  0.252500  0.667600  0.134900  1
  H  H207  1  0.752500  0.832400  0.365100  1
  H  H208  1  0.752500  0.167600  0.134900  1
  H  H209  1  0.749900  0.613600  0.643700  1
  H  H210  1  0.749900  0.386400  0.856300  1
  H  H211  1  0.249900  0.113600  0.643700  1
  H  H212  1  0.249900  0.886400  0.856300  1
  H  H213  1  0.250100  0.386400  0.356300  1
  H  H214  1  0.250100  0.613600  0.143700  1
  H  H215  1  0.750100  0.886400  0.356300  1
  H  H216  1  0.750100  0.113600  0.143700  1
  H  H217  1  0.155400  0.749000  0.827400  1.0
  H  H218  1  0.155400  0.251000  0.672600  1.0
  H  H219  1  0.655400  0.249000  0.827400  1.0
  H  H220  1  0.655400  0.751000  0.672600  1.0
  H  H221  1  0.844600  0.251000  0.172600  1.0
  H  H222  1  0.844600  0.749000  0.327400  1.0
  H  H223  1  0.344600  0.751000  0.172600  1.0
  H  H224  1  0.344600  0.249000  0.327400  1.0
  H  H225  1  0.183600  0.801800  0.866900  1.0
  H  H226  1  0.183600  0.198200  0.633100  1.0
  H  H227  1  0.683600  0.301800  0.866900  1.0
  H  H228  1  0.683600  0.698200  0.633100  1.0
  H  H229  1  0.816400  0.198200  0.133100  1.0
  H  H230  1  0.816400  0.801800  0.366900  1.0
  H  H231  1  0.316400  0.698200  0.133100  1.0
  H  H232  1  0.316400  0.301800  0.366900  1.0
  H  H233  1  0.269300  0.754400  0.831700  1.0
  H  H234  1  0.269300  0.245600  0.668300  1.0
  H  H235  1  0.769300  0.254400  0.831700  1.0
  H  H236  1  0.769300  0.745600  0.668300  1.0
  H  H237  1  0.730700  0.245600  0.168300  1.0
  H  H238  1  0.730700  0.754400  0.331700  1.0
  H  H239  1  0.230700  0.745600  0.168300  1.0
  H  H240  1  0.230700  0.254400  0.331700  1.0
  H  H241  1  0.236900  0.702600  0.795200  1.0
  H  H242  1  0.236900  0.297400  0.704800  1.0
  H  H243  1  0.736900  0.202600  0.795200  1.0
  H  H244  1  0.736900  0.797400  0.704800  1.0
  H  H245  1  0.763100  0.297400  0.204800  1.0
  H  H246  1  0.763100  0.702600  0.295200  1.0
  H  H247  1  0.263100  0.797400  0.204800  1.0
  H  H248  1  0.263100  0.202600  0.295200  1.0
  H  H249  1  0.241600  0.621200  0.970100  1.0
  H  H250  1  0.241600  0.378800  0.529900  1.0
  H  H251  1  0.741600  0.121200  0.970100  1.0
  H  H252  1  0.741600  0.878800  0.529900  1.0
  H  H253  1  0.758400  0.378800  0.029900  1.0
  H  H254  1  0.758400  0.621200  0.470100  1.0
  H  H255  1  0.258400  0.878800  0.029900  1.0
  H  H256  1  0.258400  0.121200  0.470100  1.0
  H  H257  1  0.276900  0.672900  0.001500  1.0
  H  H258  1  0.276900  0.327100  0.498500  1.0
  H  H259  1  0.776900  0.172900  0.001500  1.0
  H  H260  1  0.776900  0.827100  0.498500  1.0
  H  H261  1  0.723100  0.327100  0.998500  1.0
  H  H262  1  0.723100  0.672900  0.501500  1.0
  H  H263  1  0.223100  0.827100  0.998500  1.0
  H  H264  1  0.223100  0.172900  0.501500  1.0
  H  H265  1  0.189900  0.722900  0.037500  1.0
  H  H266  1  0.189900  0.277100  0.462500  1.0
  H  H267  1  0.689900  0.222900  0.037500  1.0
  H  H268  1  0.689900  0.777100  0.462500  1.0
  H  H269  1  0.810100  0.277100  0.962500  1.0
  H  H270  1  0.810100  0.722900  0.537500  1.0
  H  H271  1  0.310100  0.777100  0.962500  1.0
  H  H272  1  0.310100  0.222900  0.537500  1.0
  H  H273  1  0.158400  0.668800  0.005600  1.0
  H  H274  1  0.158400  0.331200  0.494400  1.0
  H  H275  1  0.658400  0.168800  0.005600  1.0
  H  H276  1  0.658400  0.831200  0.494400  1.0
  H  H277  1  0.841600  0.331200  0.994400  1.0
  H  H278  1  0.841600  0.668800  0.505600  1.0
  H  H279  1  0.341600  0.831200  0.994400  1.0
  H  H280  1  0.341600  0.168800  0.505600  1.0
  H  H281  1  0.012900  0.699700  0.009800  1.0
  H  H282  1  0.012900  0.300300  0.490200  1.0
  H  H283  1  0.512900  0.199700  0.009800  1.0
  H  H284  1  0.512900  0.800300  0.490200  1.0
  H  H285  1  0.987100  0.300300  0.990200  1.0
  H  H286  1  0.987100  0.699700  0.509800  1.0
  H  H287  1  0.487100  0.800300  0.990200  1.0
  H  H288  1  0.487100  0.199700  0.509800  1.0
  H  H289  1  0.059500  0.658200  0.979800  1.0
  H  H290  1  0.059500  0.341800  0.520200  1.0
  H  H291  1  0.559500  0.158200  0.979800  1.0
  H  H292  1  0.559500  0.841800  0.520200  1.0
  H  H293  1  0.940500  0.341800  0.020200  1.0
  H  H294  1  0.940500  0.658200  0.479800  1.0
  H  H295  1  0.440500  0.841800  0.020200  1.0
  H  H296  1  0.440500  0.158200  0.479800  1.0
  H  H297  1  0.089100  0.649400  0.058000  1.0
  H  H298  1  0.089100  0.350600  0.442000  1.0
  H  H299  1  0.589100  0.149400  0.058000  1.0
  H  H300  1  0.589100  0.850600  0.442000  1.0
  H  H301  1  0.910900  0.350600  0.942000  1.0
  H  H302  1  0.910900  0.649400  0.558000  1.0
  H  H303  1  0.410900  0.850600  0.942000  1.0
  H  H304  1  0.410900  0.149400  0.558000  1.0
  H  H305  1  0.048300  0.696200  0.091200  1.0
  H  H306  1  0.048300  0.303800  0.408800  1.0
  H  H307  1  0.548300  0.196200  0.091200  1.0
  H  H308  1  0.548300  0.803800  0.408800  1.0
  H  H309  1  0.951700  0.303800  0.908800  1.0
  H  H310  1  0.951700  0.696200  0.591200  1.0
  H  H311  1  0.451700  0.803800  0.908800  1.0
  H  H312  1  0.451700  0.196200  0.591200  1.0
  H  H313  1  0.968900  0.639900  0.045300  1.0
  H  H314  1  0.968900  0.360100  0.454700  1.0
  H  H315  1  0.468900  0.139900  0.045300  1.0
  H  H316  1  0.468900  0.860100  0.454700  1.0
  H  H317  1  0.031100  0.360100  0.954700  1.0
  H  H318  1  0.031100  0.639900  0.545300  1.0
  H  H319  1  0.531100  0.860100  0.954700  1.0
  H  H320  1  0.531100  0.139900  0.545300  1.0
  H  H321  1  0.010300  0.592700  0.013700  1.0
  H  H322  1  0.010300  0.407300  0.486300  1.0
  H  H323  1  0.510300  0.092700  0.013700  1.0
  H  H324  1  0.510300  0.907300  0.486300  1.0
  H  H325  1  0.989700  0.407300  0.986300  1.0
  H  H326  1  0.989700  0.592700  0.513700  1.0
  H  H327  1  0.489700  0.907300  0.986300  1.0
  H  H328  1  0.489700  0.092700  0.513700  1.0
  H  H329  1  0.979300  0.579600  0.087500  1.0
  H  H330  1  0.979300  0.420400  0.412500  1.0
  H  H331  1  0.479300  0.079600  0.087500  1.0
  H  H332  1  0.479300  0.920400  0.412500  1.0
  H  H333  1  0.020700  0.420400  0.912500  1.0
  H  H334  1  0.020700  0.579600  0.587500  1.0
  H  H335  1  0.520700  0.920400  0.912500  1.0
  H  H336  1  0.520700  0.079600  0.587500  1.0
  H  H337  1  0.002300  0.637100  0.122700  1.0
  H  H338  1  0.002300  0.362900  0.377300  1.0
  H  H339  1  0.502300  0.137100  0.122700  1.0
  H  H340  1  0.502300  0.862900  0.377300  1.0
  H  H341  1  0.997700  0.362900  0.877300  1.0
  H  H342  1  0.997700  0.637100  0.622700  1.0
  H  H343  1  0.497700  0.862900  0.877300  1.0
  H  H344  1  0.497700  0.137100  0.622700  1.0
  H  H345  1  0.043400  0.590300  0.091300  1.0
  H  H346  1  0.043400  0.409700  0.408700  1.0
  H  H347  1  0.543400  0.090300  0.091300  1.0
  H  H348  1  0.543400  0.909700  0.408700  1.0
  H  H349  1  0.956600  0.409700  0.908700  1.0
  H  H350  1  0.956600  0.590300  0.591300  1.0
  H  H351  1  0.456600  0.909700  0.908700  1.0
  H  H352  1  0.456600  0.090300  0.591300  1.0
  H  H353  1  0.063900  0.883700  0.943700  1.0
  H  H354  1  0.063900  0.116300  0.556300  1.0
  H  H355  1  0.563900  0.383700  0.943700  1.0
  H  H356  1  0.563900  0.616300  0.556300  1.0
  H  H357  1  0.936100  0.116300  0.056300  1.0
  H  H358  1  0.936100  0.883700  0.443700  1.0
  H  H359  1  0.436100  0.616300  0.056300  1.0
  H  H360  1  0.436100  0.383700  0.443700  1.0
  H  H361  1  0.128800  0.881500  0.937900  1.0
  H  H362  1  0.128800  0.118500  0.562100  1.0
  H  H363  1  0.628800  0.381500  0.937900  1.0
  H  H364  1  0.628800  0.618500  0.562100  1.0
  H  H365  1  0.871200  0.118500  0.062100  1.0
  H  H366  1  0.871200  0.881500  0.437900  1.0
  H  H367  1  0.371200  0.618500  0.062100  1.0
  H  H368  1  0.371200  0.381500  0.437900  1.0
  H  H369  1  0.121700  0.880800  0.852100  1.0
  H  H370  1  0.121700  0.119200  0.647900  1.0
  H  H371  1  0.621700  0.380800  0.852100  1.0
  H  H372  1  0.621700  0.619200  0.647900  1.0
  H  H373  1  0.878300  0.119200  0.147900  1.0
  H  H374  1  0.878300  0.880800  0.352100  1.0
  H  H375  1  0.378300  0.619200  0.147900  1.0
  H  H376  1  0.378300  0.380800  0.352100  1.0
  H  H377  1  0.056600  0.875500  0.853000  1.0
  H  H378  1  0.056600  0.124500  0.647000  1.0
  H  H379  1  0.556600  0.375500  0.853000  1.0
  H  H380  1  0.556600  0.624500  0.647000  1.0
  H  H381  1  0.943400  0.124500  0.147000  1.0
  H  H382  1  0.943400  0.875500  0.353000  1.0
  H  H383  1  0.443400  0.624500  0.147000  1.0
  H  H384  1  0.443400  0.375500  0.353000  1.0
  H  H385  1  0.051800  0.965000  0.925300  1.0
  H  H386  1  0.051800  0.035000  0.574700  1.0
  H  H387  1  0.551800  0.465000  0.925300  1.0
  H  H388  1  0.551800  0.535000  0.574700  1.0
  H  H389  1  0.948200  0.035000  0.074700  1.0
  H  H390  1  0.948200  0.965000  0.425300  1.0
  H  H391  1  0.448200  0.535000  0.074700  1.0
  H  H392  1  0.448200  0.465000  0.425300  1.0
  H  H393  1  0.116900  0.970500  0.922700  1.0
  H  H394  1  0.116900  0.029500  0.577300  1.0
  H  H395  1  0.616900  0.470500  0.922700  1.0
  H  H396  1  0.616900  0.529500  0.577300  1.0
  H  H397  1  0.883100  0.029500  0.077300  1.0
  H  H398  1  0.883100  0.970500  0.422700  1.0
  H  H399  1  0.383100  0.529500  0.077300  1.0
  H  H400  1  0.383100  0.470500  0.422700  1.0
  H  H401  1  0.073600  0.012000  0.872300  1.0
  H  H402  1  0.073600  0.988000  0.627700  1.0
  H  H403  1  0.573600  0.512000  0.872300  1.0
  H  H404  1  0.573600  0.488000  0.627700  1.0
  H  H405  1  0.926400  0.988000  0.127700  1.0
  H  H406  1  0.926400  0.012000  0.372300  1.0
  H  H407  1  0.426400  0.488000  0.127700  1.0
  H  H408  1  0.426400  0.512000  0.372300  1.0
  H  H409  1  0.044600  0.956800  0.839400  1.0
  H  H410  1  0.044600  0.043200  0.660600  1.0
  H  H411  1  0.544600  0.456800  0.839400  1.0
  H  H412  1  0.544600  0.543200  0.660600  1.0
  H  H413  1  0.955400  0.043200  0.160600  1.0
  H  H414  1  0.955400  0.956800  0.339400  1.0
  H  H415  1  0.455400  0.543200  0.160600  1.0
  H  H416  1  0.455400  0.456800  0.339400  1.0
  H  H417  1  0.109100  0.962300  0.836800  1.0
  H  H418  1  0.109100  0.037700  0.663200  1.0
  H  H419  1  0.609100  0.462300  0.836800  1.0
  H  H420  1  0.609100  0.537700  0.663200  1.0
  H  H421  1  0.890900  0.037700  0.163200  1.0
  H  H422  1  0.890900  0.962300  0.336800  1.0
  H  H423  1  0.390900  0.537700  0.163200  1.0
  H  H424  1  0.390900  0.462300  0.336800  1.0
  H  H425  1  0.458300  0.819900  0.728700  1.0
  H  H426  1  0.458300  0.180100  0.771300  1.0
  H  H427  1  0.958300  0.319900  0.728700  1.0
  H  H428  1  0.958300  0.680100  0.771300  1.0
  H  H429  1  0.541700  0.180100  0.271300  1.0
  H  H430  1  0.541700  0.819900  0.228700  1.0
  H  H431  1  0.041700  0.680100  0.271300  1.0
  H  H432  1  0.041700  0.319900  0.228700  1.0
  H  H433  1  0.891700  0.564900  0.917000  1.0
  H  H434  1  0.891700  0.435100  0.583000  1.0
  H  H435  1  0.391700  0.064900  0.917000  1.0
  H  H436  1  0.391700  0.935100  0.583000  1.0
  H  H437  1  0.108300  0.435100  0.083000  1.0
  H  H438  1  0.108300  0.564900  0.417000  1.0
  H  H439  1  0.608300  0.935100  0.083000  1.0
  H  H440  1  0.608300  0.064900  0.417000  1.0
  H  H441  1  0.873500  0.620900  0.959700  1.0
  H  H442  1  0.873500  0.379100  0.540300  1.0
  H  H443  1  0.373500  0.120900  0.959700  1.0
  H  H444  1  0.373500  0.879100  0.540300  1.0
  H  H445  1  0.126500  0.379100  0.040300  1.0
  H  H446  1  0.126500  0.620900  0.459700  1.0
  H  H447  1  0.626500  0.879100  0.040300  1.0
  H  H448  1  0.626500  0.120900  0.459700  1.0
  H  H449  1  0.816500  0.575400  0.001200  1.0
  H  H450  1  0.816500  0.424600  0.498800  1.0
  H  H451  1  0.316500  0.075400  0.001200  1.0
  H  H452  1  0.316500  0.924600  0.498800  1.0
  H  H453  1  0.183500  0.424600  0.998800  1.0
  H  H454  1  0.183500  0.575400  0.501200  1.0
  H  H455  1  0.683500  0.924600  0.998800  1.0
  H  H456  1  0.683500  0.075400  0.501200  1.0
  H  H457  1  0.827300  0.518600  0.955800  1.0
  H  H458  1  0.827300  0.481400  0.544200  1.0
  H  H459  1  0.327300  0.018600  0.955800  1.0
  H  H460  1  0.327300  0.981400  0.544200  1.0
  H  H461  1  0.172700  0.481400  0.044200  1.0
  H  H462  1  0.172700  0.518600  0.455800  1.0
  H  H463  1  0.672700  0.981400  0.044200  1.0
  H  H464  1  0.672700  0.018600  0.455800  1.0
  H  H465  1  0.926900  0.527300  0.977000  1.0
  H  H466  1  0.926900  0.472700  0.523000  1.0
  H  H467  1  0.426900  0.027300  0.977000  1.0
  H  H468  1  0.426900  0.972700  0.523000  1.0
  H  H469  1  0.073100  0.472700  0.023000  1.0
  H  H470  1  0.073100  0.527300  0.477000  1.0
  H  H471  1  0.573100  0.972700  0.023000  1.0
  H  H472  1  0.573100  0.027300  0.477000  1.0
  H  H473  1  0.915000  0.583200  0.023500  1.0
  H  H474  1  0.915000  0.416800  0.476500  1.0
  H  H475  1  0.415000  0.083200  0.023500  1.0
  H  H476  1  0.415000  0.916800  0.476500  1.0
  H  H477  1  0.085000  0.416800  0.976500  1.0
  H  H478  1  0.085000  0.583200  0.523500  1.0
  H  H479  1  0.585000  0.916800  0.976500  1.0
  H  H480  1  0.585000  0.083200  0.523500  1.0
  H  H481  1  0.912800  0.511700  0.053000  1.0
  H  H482  1  0.912800  0.488300  0.447000  1.0
  H  H483  1  0.412800  0.011700  0.053000  1.0
  H  H484  1  0.412800  0.988300  0.447000  1.0
  H  H485  1  0.087200  0.488300  0.947000  1.0
  H  H486  1  0.087200  0.511700  0.553000  1.0
  H  H487  1  0.587200  0.988300  0.947000  1.0
  H  H488  1  0.587200  0.011700  0.553000  1.0
  H  H489  1  0.865800  0.483100  0.013300  1.0
  H  H490  1  0.865800  0.516900  0.486700  1.0
  H  H491  1  0.365800  0.983100  0.013300  1.0
  H  H492  1  0.365800  0.016900  0.486700  1.0
  H  H493  1  0.134200  0.516900  0.986700  1.0
  H  H494  1  0.134200  0.483100  0.513300  1.0
  H  H495  1  0.634200  0.016900  0.986700  1.0
  H  H496  1  0.634200  0.983100  0.513300  1.0
  H  H497  1  0.854000  0.538500  0.059400  1.0
  H  H498  1  0.854000  0.461500  0.440600  1.0
  H  H499  1  0.354000  0.038500  0.059400  1.0
  H  H500  1  0.354000  0.961500  0.440600  1.0
  H  H501  1  0.146000  0.461500  0.940600  1.0
  H  H502  1  0.146000  0.538500  0.559400  1.0
  H  H503  1  0.646000  0.961500  0.940600  1.0
  H  H504  1  0.646000  0.038500  0.559400  1.0
  H  H505  1  0.454300  0.659300  0.880000  1.0
  H  H506  1  0.454300  0.340700  0.620000  1.0
  H  H507  1  0.954300  0.159300  0.880000  1.0
  H  H508  1  0.954300  0.840700  0.620000  1.0
  H  H509  1  0.545700  0.340700  0.120000  1.0
  H  H510  1  0.545700  0.659300  0.380000  1.0
  H  H511  1  0.045700  0.840700  0.120000  1.0
  H  H512  1  0.045700  0.159300  0.380000  1.0
  H  H513  1  0.539900  0.624600  0.848800  1.0
  H  H514  1  0.539900  0.375400  0.651200  1.0
  H  H515  1  0.039900  0.124600  0.848800  1.0
  H  H516  1  0.039900  0.875400  0.651200  1.0
  H  H517  1  0.460100  0.375400  0.151200  1.0
  H  H518  1  0.460100  0.624600  0.348800  1.0
  H  H519  1  0.960100  0.875400  0.151200  1.0
  H  H520  1  0.960100  0.124600  0.348800  1.0
  H  H521  1  0.546800  0.542600  0.778600  1.0
  H  H522  1  0.546800  0.457400  0.721400  1.0
  H  H523  1  0.046800  0.042600  0.778600  1.0
  H  H524  1  0.046800  0.957400  0.721400  1.0
  H  H525  1  0.453200  0.457400  0.221400  1.0
  H  H526  1  0.453200  0.542600  0.278600  1.0
  H  H527  1  0.953200  0.957400  0.221400  1.0
  H  H528  1  0.953200  0.042600  0.278600  1.0
  H  H529  1  0.327500  0.539200  0.784200  1.0
  H  H530  1  0.327500  0.460800  0.715800  1.0
  H  H531  1  0.827500  0.039200  0.784200  1.0
  H  H532  1  0.827500  0.960800  0.715800  1.0
  H  H533  1  0.672500  0.460800  0.215800  1.0
  H  H534  1  0.672500  0.539200  0.284200  1.0
  H  H535  1  0.172500  0.960800  0.215800  1.0
  H  H536  1  0.172500  0.039200  0.284200  1.0
  H  H537  1  0.045800  0.882500  0.033300  1.0
  H  H538  1  0.045800  0.117500  0.466700  1.0
  H  H539  1  0.545800  0.382500  0.033300  1.0
  H  H540  1  0.545800  0.617500  0.466700  1.0
  H  H541  1  0.954200  0.117500  0.966700  1.0
  H  H542  1  0.954200  0.882500  0.533300  1.0
  H  H543  1  0.454200  0.617500  0.966700  1.0
  H  H544  1  0.454200  0.382500  0.533300  1.0
  H  H545  1  0.963700  0.930300  0.066900  1.0
  H  H546  1  0.963700  0.069700  0.433100  1.0
  H  H547  1  0.463700  0.430300  0.066900  1.0
  H  H548  1  0.463700  0.569700  0.433100  1.0
  H  H549  1  0.036300  0.069700  0.933100  1.0
  H  H550  1  0.036300  0.930300  0.566900  1.0
  H  H551  1  0.536300  0.569700  0.933100  1.0
  H  H552  1  0.536300  0.430300  0.566900  1.0
  H  H553  1  0.876900  0.890500  0.032500  1.0
  H  H554  1  0.876900  0.109500  0.467500  1.0
  H  H555  1  0.376900  0.390500  0.032500  1.0
  H  H556  1  0.376900  0.609500  0.467500  1.0
  H  H557  1  0.123100  0.109500  0.967500  1.0
  H  H558  1  0.123100  0.890500  0.532500  1.0
  H  H559  1  0.623100  0.609500  0.967500  1.0
  H  H560  1  0.623100  0.390500  0.532500  1.0
  H  H561  1  0.992800  0.718200  0.918000  1.0
  H  H562  1  0.992800  0.281800  0.582000  1.0
  H  H563  1  0.492800  0.218200  0.918000  1.0
  H  H564  1  0.492800  0.781800  0.582000  1.0
  H  H565  1  0.007200  0.281800  0.082000  1.0
  H  H566  1  0.007200  0.718200  0.418000  1.0
  H  H567  1  0.507200  0.781800  0.082000  1.0
  H  H568  1  0.507200  0.218200  0.418000  1.0
  H  H569  1  0.913300  0.677300  0.885100  1.0
  H  H570  1  0.913300  0.322700  0.614900  1.0
  H  H571  1  0.413300  0.177300  0.885100  1.0
  H  H572  1  0.413300  0.822700  0.614900  1.0
  H  H573  1  0.086700  0.322700  0.114900  1.0
  H  H574  1  0.086700  0.677300  0.385100  1.0
  H  H575  1  0.586700  0.822700  0.114900  1.0
  H  H576  1  0.586700  0.177300  0.385100  1.0
  H  H577  1  0.802300  0.850700  0.007000  1.0
  H  H578  1  0.802300  0.149300  0.493000  1.0
  H  H579  1  0.302300  0.350700  0.007000  1.0
  H  H580  1  0.302300  0.649300  0.493000  1.0
  H  H581  1  0.197700  0.149300  0.993000  1.0
  H  H582  1  0.197700  0.850700  0.507000  1.0
  H  H583  1  0.697700  0.649300  0.993000  1.0
  H  H584  1  0.697700  0.350700  0.507000  1.0
  H  H585  1  0.724100  0.797200  0.970600  1.0
  H  H586  1  0.724100  0.202800  0.529400  1.0
  H  H587  1  0.224100  0.297200  0.970600  1.0
  H  H588  1  0.224100  0.702800  0.529400  1.0
  H  H589  1  0.275900  0.202800  0.029400  1.0
  H  H590  1  0.275900  0.797200  0.470600  1.0
  H  H591  1  0.775900  0.702800  0.029400  1.0
  H  H592  1  0.775900  0.297200  0.470600  1.0
  H  H593  1  0.730800  0.712400  0.908200  1.0
  H  H594  1  0.730800  0.287600  0.591800  1.0
  H  H595  1  0.230800  0.212400  0.908200  1.0
  H  H596  1  0.230800  0.787600  0.591800  1.0
  H  H597  1  0.269200  0.287600  0.091800  1.0
  H  H598  1  0.269200  0.712400  0.408200  1.0
  H  H599  1  0.769200  0.787600  0.091800  1.0
  H  H600  1  0.769200  0.212400  0.408200  1.0
  H  H601  1  0.775000  0.588300  0.710700  1.0
  H  H602  1  0.775000  0.411700  0.789300  1.0
  H  H603  1  0.275000  0.088300  0.710700  1.0
  H  H604  1  0.275000  0.911700  0.789300  1.0
  H  H605  1  0.225000  0.411700  0.289300  1.0
  H  H606  1  0.225000  0.588300  0.210700  1.0
  H  H607  1  0.725000  0.911700  0.289300  1.0
  H  H608  1  0.725000  0.088300  0.210700  1.0
  H  H609  1  0.839300  0.587400  0.706300  1.0
  H  H610  1  0.839300  0.412600  0.793700  1.0
  H  H611  1  0.339300  0.087400  0.706300  1.0
  H  H612  1  0.339300  0.912600  0.793700  1.0
  H  H613  1  0.160700  0.412600  0.293700  1.0
  H  H614  1  0.160700  0.587400  0.206300  1.0
  H  H615  1  0.660700  0.912600  0.293700  1.0
  H  H616  1  0.660700  0.087400  0.206300  1.0
  H  H617  1  0.846400  0.511700  0.863700  1.0
  H  H618  1  0.846400  0.488300  0.636300  1.0
  H  H619  1  0.346400  0.011700  0.863700  1.0
  H  H620  1  0.346400  0.988300  0.636300  1.0
  H  H621  1  0.153600  0.488300  0.136300  1.0
  H  H622  1  0.153600  0.511700  0.363700  1.0
  H  H623  1  0.653600  0.988300  0.136300  1.0
  H  H624  1  0.653600  0.011700  0.363700  1.0
  H  H625  1  0.782800  0.502600  0.861900  1.0
  H  H626  1  0.782800  0.497400  0.638100  1.0
  H  H627  1  0.282800  0.002600  0.861900  1.0
  H  H628  1  0.282800  0.997400  0.638100  1.0
  H  H629  1  0.217200  0.497400  0.138100  1.0
  H  H630  1  0.217200  0.502600  0.361900  1.0
  H  H631  1  0.717200  0.997400  0.138100  1.0
  H  H632  1  0.717200  0.002600  0.361900  1.0
  Pd  Pd633  1  0.089110  0.773250  0.960750  1.0
  Pd  Pd634  1  0.089110  0.226750  0.539250  1.0
  Pd  Pd635  1  0.589110  0.273250  0.960750  1.0
  Pd  Pd636  1  0.589110  0.726750  0.539250  1.0
  Pd  Pd637  1  0.910890  0.226750  0.039250  1.0
  Pd  Pd638  1  0.910890  0.773250  0.460750  1.0
  Pd  Pd639  1  0.410890  0.726750  0.039250  1.0
  Pd  Pd640  1  0.410890  0.273250  0.460750  1.0
  Pd  Pd641  1  0.332570  0.641000  0.866600  1.0
  Pd  Pd642  1  0.332570  0.359000  0.633400  1.0
  Pd  Pd643  1  0.832570  0.141000  0.866600  1.0
  Pd  Pd644  1  0.832570  0.859000  0.633400  1.0
  Pd  Pd645  1  0.667430  0.359000  0.133400  1.0
  Pd  Pd646  1  0.667430  0.641000  0.366600  1.0
  Pd  Pd647  1  0.167430  0.859000  0.133400  1.0
  Pd  Pd648  1  0.167430  0.141000  0.366600  1.0
  Pd  Pd649  1  0.812710  0.627120  0.845200  1.0
  Pd  Pd650  1  0.812710  0.372880  0.654800  1.0
  Pd  Pd651  1  0.312710  0.127120  0.845200  1.0
  Pd  Pd652  1  0.312710  0.872880  0.654800  1.0
  Pd  Pd653  1  0.187290  0.372880  0.154800  1.0
  Pd  Pd654  1  0.187290  0.627120  0.345200  1.0
  Pd  Pd655  1  0.687290  0.872880  0.154800  1.0
  Pd  Pd656  1  0.687290  0.127120  0.345200  1.0
  C  C657  1  0.643400  0.500000  0.750000  1
  C  C658  1  0.143400  1.000000  0.750000  1
  C  C659  1  0.356600  0.500000  0.250000  1
  C  C660  1  0.856600  0.000000  0.250000  1
  C  C661  1  0.060300  0.981300  0.108800  1
  C  C662  1  0.060300  0.018700  0.391200  1
  C  C663  1  0.560300  0.481300  0.108800  1
  C  C664  1  0.560300  0.518700  0.391200  1
  C  C665  1  0.939700  0.018700  0.891200  1
  C  C666  1  0.939700  0.981300  0.608800  1
  C  C667  1  0.439700  0.518700  0.891200  1
  C  C668  1  0.439700  0.481300  0.608800  1
  C  C669  1  0.026700  0.038300  0.100600  1
  C  C670  1  0.026700  0.961700  0.399400  1
  C  C671  1  0.526700  0.538300  0.100600  1
  C  C672  1  0.526700  0.461700  0.399400  1
  C  C673  1  0.973300  0.961700  0.899400  1
  C  C674  1  0.973300  0.038300  0.600600  1
  C  C675  1  0.473300  0.461700  0.899400  1
  C  C676  1  0.473300  0.538300  0.600600  1
  C  C677  1  0.664800  0.427900  0.644200  1
  C  C678  1  0.664800  0.572100  0.855800  1
  C  C679  1  0.164800  0.927900  0.644200  1
  C  C680  1  0.164800  0.072100  0.855800  1
  C  C681  1  0.335200  0.572100  0.355800  1
  C  C682  1  0.335200  0.427900  0.144200  1
  C  C683  1  0.835200  0.072100  0.355800  1
  C  C684  1  0.835200  0.927900  0.144200  1
  C  C685  1  0.660100  0.524500  0.707600  1
  C  C686  1  0.660100  0.475500  0.792400  1
  C  C687  1  0.160100  0.024500  0.707600  1
  C  C688  1  0.160100  0.975500  0.792400  1
  C  C689  1  0.339900  0.475500  0.292400  1
  C  C690  1  0.339900  0.524500  0.207600  1
  C  C691  1  0.839900  0.975500  0.292400  1
  C  C692  1  0.839900  0.024500  0.207600  1
  C  C693  1  0.231700  0.579900  0.754900  1
  C  C694  1  0.231700  0.420100  0.745100  1
  C  C695  1  0.731700  0.079900  0.754900  1
  C  C696  1  0.731700  0.920100  0.745100  1
  C  C697  1  0.768300  0.420100  0.245100  1
  C  C698  1  0.768300  0.579900  0.254900  1
  C  C699  1  0.268300  0.920100  0.245100  1
  C  C700  1  0.268300  0.079900  0.254900  1
  C  C701  1  0.052100  0.536200  0.876900  1
  C  C702  1  0.052100  0.463800  0.623100  1
  C  C703  1  0.552100  0.036200  0.876900  1
  C  C704  1  0.552100  0.963800  0.623100  1
  C  C705  1  0.947900  0.463800  0.123100  1
  C  C706  1  0.947900  0.536200  0.376900  1
  C  C707  1  0.447900  0.963800  0.123100  1
  C  C708  1  0.447900  0.036200  0.376900  1
  C  C709  1  0.218800  0.503900  0.696000  1
  C  C710  1  0.218800  0.496100  0.804000  1
  C  C711  1  0.718800  0.003900  0.696000  1
  C  C712  1  0.718800  0.996100  0.804000  1
  C  C713  1  0.781200  0.496100  0.304000  1
  C  C714  1  0.781200  0.503900  0.196000  1
  C  C715  1  0.281200  0.996100  0.304000  1
  C  C716  1  0.281200  0.003900  0.196000  1
  C  C717  1  0.085400  0.588800  0.869000  1
  C  C718  1  0.085400  0.411200  0.631000  1
  C  C719  1  0.585400  0.088800  0.869000  1
  C  C720  1  0.585400  0.911200  0.631000  1
  C  C721  1  0.914600  0.411200  0.131000  1
  C  C722  1  0.914600  0.588800  0.369000  1
  C  C723  1  0.414600  0.911200  0.131000  1
  C  C724  1  0.414600  0.088800  0.369000  1
  C  C725  1  0.163100  0.736000  0.934900  1.0
  C  C726  1  0.163100  0.264000  0.565100  1.0
  C  C727  1  0.663100  0.236000  0.934900  1.0
  C  C728  1  0.663100  0.764000  0.565100  1.0
  C  C729  1  0.836900  0.264000  0.065100  1.0
  C  C730  1  0.836900  0.736000  0.434900  1.0
  C  C731  1  0.336900  0.764000  0.065100  1.0
  C  C732  1  0.336900  0.236000  0.434900  1.0
  C  C733  1  0.186700  0.737900  0.891000  1.0
  C  C734  1  0.186700  0.262100  0.609000  1.0
  C  C735  1  0.686700  0.237900  0.891000  1.0
  C  C736  1  0.686700  0.762100  0.609000  1.0
  C  C737  1  0.813300  0.262100  0.109000  1.0
  C  C738  1  0.813300  0.737900  0.391000  1.0
  C  C739  1  0.313300  0.762100  0.109000  1.0
  C  C740  1  0.313300  0.237900  0.391000  1.0
  C  C741  1  0.235900  0.710300  0.871700  1.0
  C  C742  1  0.235900  0.289700  0.628300  1.0
  C  C743  1  0.735900  0.210300  0.871700  1.0
  C  C744  1  0.735900  0.789700  0.628300  1.0
  C  C745  1  0.764100  0.289700  0.128300  1.0
  C  C746  1  0.764100  0.710300  0.371700  1.0
  C  C747  1  0.264100  0.789700  0.128300  1.0
  C  C748  1  0.264100  0.210300  0.371700  1.0
  C  C749  1  0.261400  0.680800  0.896200  1.0
  C  C750  1  0.261400  0.319200  0.603800  1.0
  C  C751  1  0.761400  0.180800  0.896200  1.0
  C  C752  1  0.761400  0.819200  0.603800  1.0
  C  C753  1  0.738600  0.319200  0.103800  1.0
  C  C754  1  0.738600  0.680800  0.396200  1.0
  C  C755  1  0.238600  0.819200  0.103800  1.0
  C  C756  1  0.238600  0.180800  0.396200  1.0
  C  C757  1  0.237700  0.678900  0.940000  1.0
  C  C758  1  0.237700  0.321100  0.560000  1.0
  C  C759  1  0.737700  0.178900  0.940000  1.0
  C  C760  1  0.737700  0.821100  0.560000  1.0
  C  C761  1  0.762300  0.321100  0.060000  1.0
  C  C762  1  0.762300  0.678900  0.440000  1.0
  C  C763  1  0.262300  0.821100  0.060000  1.0
  C  C764  1  0.262300  0.178900  0.440000  1.0
  C  C765  1  0.188600  0.706500  0.959400  1.0
  C  C766  1  0.188600  0.293500  0.540600  1.0
  C  C767  1  0.688600  0.206500  0.959400  1.0
  C  C768  1  0.688600  0.793500  0.540600  1.0
  C  C769  1  0.811400  0.293500  0.040600  1.0
  C  C770  1  0.811400  0.706500  0.459400  1.0
  C  C771  1  0.311400  0.793500  0.040600  1.0
  C  C772  1  0.311400  0.206500  0.459400  1.0
  C  C773  1  0.159800  0.771500  0.863600  1.0
  C  C774  1  0.159800  0.228500  0.636400  1.0
  C  C775  1  0.659800  0.271500  0.863600  1.0
  C  C776  1  0.659800  0.728500  0.636400  1.0
  C  C777  1  0.840200  0.228500  0.136400  1.0
  C  C778  1  0.840200  0.771500  0.363600  1.0
  C  C779  1  0.340200  0.728500  0.136400  1.0
  C  C780  1  0.340200  0.271500  0.363600  1.0
  C  C781  1  0.262200  0.716400  0.824000  1.0
  C  C782  1  0.262200  0.283600  0.676000  1.0
  C  C783  1  0.762200  0.216400  0.824000  1.0
  C  C784  1  0.762200  0.783600  0.676000  1.0
  C  C785  1  0.737800  0.283600  0.176000  1.0
  C  C786  1  0.737800  0.716400  0.324000  1.0
  C  C787  1  0.237800  0.783600  0.176000  1.0
  C  C788  1  0.237800  0.216400  0.324000  1.0
  C  C789  1  0.266900  0.647900  0.967100  1.0
  C  C790  1  0.266900  0.352100  0.532900  1.0
  C  C791  1  0.766900  0.147900  0.967100  1.0
  C  C792  1  0.766900  0.852100  0.532900  1.0
  C  C793  1  0.733100  0.352100  0.032900  1.0
  C  C794  1  0.733100  0.647900  0.467100  1.0
  C  C795  1  0.233100  0.852100  0.032900  1.0
  C  C796  1  0.233100  0.147900  0.467100  1.0
  C  C797  1  0.163900  0.706000  0.009600  1.0
  C  C798  1  0.163900  0.294000  0.490400  1.0
  C  C799  1  0.663900  0.206000  0.009600  1.0
  C  C800  1  0.663900  0.794000  0.490400  1.0
  C  C801  1  0.836100  0.294000  0.990400  1.0
  C  C802  1  0.836100  0.706000  0.509600  1.0
  C  C803  1  0.336100  0.794000  0.990400  1.0
  C  C804  1  0.336100  0.206000  0.509600  1.0
  C  C805  1  0.050200  0.687600  0.012200  1.0
  C  C806  1  0.050200  0.312400  0.487800  1.0
  C  C807  1  0.550200  0.187600  0.012200  1.0
  C  C808  1  0.550200  0.812400  0.487800  1.0
  C  C809  1  0.949800  0.312400  0.987800  1.0
  C  C810  1  0.949800  0.687600  0.512200  1.0
  C  C811  1  0.449800  0.812400  0.987800  1.0
  C  C812  1  0.449800  0.187600  0.512200  1.0
  C  C813  1  0.053600  0.666400  0.058100  1.0
  C  C814  1  0.053600  0.333600  0.441900  1.0
  C  C815  1  0.553600  0.166400  0.058100  1.0
  C  C816  1  0.553600  0.833600  0.441900  1.0
  C  C817  1  0.946400  0.333600  0.941900  1.0
  C  C818  1  0.946400  0.666400  0.558100  1.0
  C  C819  1  0.446400  0.833600  0.941900  1.0
  C  C820  1  0.446400  0.166400  0.558100  1.0
  C  C821  1  0.004400  0.623300  0.046200  1.0
  C  C822  1  0.004400  0.376700  0.453800  1.0
  C  C823  1  0.504400  0.123300  0.046200  1.0
  C  C824  1  0.504400  0.876700  0.453800  1.0
  C  C825  1  0.995600  0.376700  0.953800  1.0
  C  C826  1  0.995600  0.623300  0.546200  1.0
  C  C827  1  0.495600  0.876700  0.953800  1.0
  C  C828  1  0.495600  0.123300  0.546200  1.0
  C  C829  1  0.007600  0.606000  0.091100  1.0
  C  C830  1  0.007600  0.394000  0.408900  1.0
  C  C831  1  0.507600  0.106000  0.091100  1.0
  C  C832  1  0.507600  0.894000  0.408900  1.0
  C  C833  1  0.992400  0.394000  0.908900  1.0
  C  C834  1  0.992400  0.606000  0.591100  1.0
  C  C835  1  0.492400  0.894000  0.908900  1.0
  C  C836  1  0.492400  0.106000  0.591100  1.0
  C  C837  1  0.094200  0.869300  0.919600  1.0
  C  C838  1  0.094200  0.130700  0.580400  1.0
  C  C839  1  0.594200  0.369300  0.919600  1.0
  C  C840  1  0.594200  0.630700  0.580400  1.0
  C  C841  1  0.905800  0.130700  0.080400  1.0
  C  C842  1  0.905800  0.869300  0.419600  1.0
  C  C843  1  0.405800  0.630700  0.080400  1.0
  C  C844  1  0.405800  0.369300  0.419600  1.0
  C  C845  1  0.089100  0.890600  0.873900  1.0
  C  C846  1  0.089100  0.109400  0.626100  1.0
  C  C847  1  0.589100  0.390600  0.873900  1.0
  C  C848  1  0.589100  0.609400  0.626100  1.0
  C  C849  1  0.910900  0.109400  0.126100  1.0
  C  C850  1  0.910900  0.890600  0.373900  1.0
  C  C851  1  0.410900  0.609400  0.126100  1.0
  C  C852  1  0.410900  0.390600  0.373900  1.0
  C  C853  1  0.083900  0.955000  0.902800  1.0
  C  C854  1  0.083900  0.045000  0.597200  1.0
  C  C855  1  0.583900  0.455000  0.902800  1.0
  C  C856  1  0.583900  0.545000  0.597200  1.0
  C  C857  1  0.916100  0.045000  0.097200  1.0
  C  C858  1  0.916100  0.955000  0.402800  1.0
  C  C859  1  0.416100  0.545000  0.097200  1.0
  C  C860  1  0.416100  0.455000  0.402800  1.0
  C  C861  1  0.077200  0.973200  0.858800  1.0
  C  C862  1  0.077200  0.026800  0.641200  1.0
  C  C863  1  0.577200  0.473200  0.858800  1.0
  C  C864  1  0.577200  0.526800  0.641200  1.0
  C  C865  1  0.922800  0.026800  0.141200  1.0
  C  C866  1  0.922800  0.973200  0.358800  1.0
  C  C867  1  0.422800  0.526800  0.141200  1.0
  C  C868  1  0.422800  0.473200  0.358800  1.0
  C  C869  1  0.364600  0.687600  0.758400  1.0
  C  C870  1  0.364600  0.312400  0.741600  1.0
  C  C871  1  0.864600  0.187600  0.758400  1.0
  C  C872  1  0.864600  0.812400  0.741600  1.0
  C  C873  1  0.635400  0.312400  0.241600  1.0
  C  C874  1  0.635400  0.687600  0.258400  1.0
  C  C875  1  0.135400  0.812400  0.241600  1.0
  C  C876  1  0.135400  0.187600  0.258400  1.0
  C  C877  1  0.379100  0.751400  0.776600  1.0
  C  C878  1  0.379100  0.248600  0.723400  1.0
  C  C879  1  0.879100  0.251400  0.776600  1.0
  C  C880  1  0.879100  0.748600  0.723400  1.0
  C  C881  1  0.620900  0.248600  0.223400  1.0
  C  C882  1  0.620900  0.751400  0.276600  1.0
  C  C883  1  0.120900  0.748600  0.223400  1.0
  C  C884  1  0.120900  0.251400  0.276600  1.0
  C  C885  1  0.419500  0.753900  0.733200  1.0
  C  C886  1  0.419500  0.246100  0.766800  1.0
  C  C887  1  0.919500  0.253900  0.733200  1.0
  C  C888  1  0.919500  0.746100  0.766800  1.0
  C  C889  1  0.580500  0.246100  0.266800  1.0
  C  C890  1  0.580500  0.753900  0.233200  1.0
  C  C891  1  0.080500  0.746100  0.266800  1.0
  C  C892  1  0.080500  0.253900  0.233200  1.0
  C  C893  1  0.433700  0.814000  0.752500  1.0
  C  C894  1  0.433700  0.186000  0.747500  1.0
  C  C895  1  0.933700  0.314000  0.752500  1.0
  C  C896  1  0.933700  0.686000  0.747500  1.0
  C  C897  1  0.566300  0.186000  0.247500  1.0
  C  C898  1  0.566300  0.814000  0.252500  1.0
  C  C899  1  0.066300  0.686000  0.247500  1.0
  C  C900  1  0.066300  0.314000  0.252500  1.0
  C  C901  1  0.310300  0.543800  0.911600  1.0
  C  C902  1  0.310300  0.456200  0.588400  1.0
  C  C903  1  0.810300  0.043800  0.911600  1.0
  C  C904  1  0.810300  0.956200  0.588400  1.0
  C  C905  1  0.689700  0.456200  0.088400  1.0
  C  C906  1  0.689700  0.543800  0.411600  1.0
  C  C907  1  0.189700  0.956200  0.088400  1.0
  C  C908  1  0.189700  0.043800  0.411600  1.0
  C  C909  1  0.323300  0.523200  0.956900  1.0
  C  C910  1  0.323300  0.476800  0.543100  1.0
  C  C911  1  0.823300  0.023200  0.956900  1.0
  C  C912  1  0.823300  0.976800  0.543100  1.0
  C  C913  1  0.676700  0.476800  0.043100  1.0
  C  C914  1  0.676700  0.523200  0.456900  1.0
  C  C915  1  0.176700  0.976800  0.043100  1.0
  C  C916  1  0.176700  0.023200  0.456900  1.0
  C  C917  1  0.298200  0.463300  0.936200  1.0
  C  C918  1  0.298200  0.536700  0.563800  1.0
  C  C919  1  0.798200  0.963300  0.936200  1.0
  C  C920  1  0.798200  0.036700  0.563800  1.0
  C  C921  1  0.701800  0.536700  0.063800  1.0
  C  C922  1  0.701800  0.463300  0.436200  1.0
  C  C923  1  0.201800  0.036700  0.063800  1.0
  C  C924  1  0.201800  0.963300  0.436200  1.0
  C  C925  1  0.309300  0.446200  0.980400  1.0
  C  C926  1  0.309300  0.553800  0.519600  1.0
  C  C927  1  0.809300  0.946200  0.980400  1.0
  C  C928  1  0.809300  0.053800  0.519600  1.0
  C  C929  1  0.690700  0.553800  0.019600  1.0
  C  C930  1  0.690700  0.446200  0.480400  1.0
  C  C931  1  0.190700  0.053800  0.019600  1.0
  C  C932  1  0.190700  0.946200  0.480400  1.0
  C  C933  1  0.777700  0.699000  0.759500  1.0
  C  C934  1  0.777700  0.301000  0.740500  1.0
  C  C935  1  0.277700  0.199000  0.759500  1.0
  C  C936  1  0.277700  0.801000  0.740500  1.0
  C  C937  1  0.222300  0.301000  0.240500  1.0
  C  C938  1  0.222300  0.699000  0.259500  1.0
  C  C939  1  0.722300  0.801000  0.240500  1.0
  C  C940  1  0.722300  0.199000  0.259500  1.0
  C  C941  1  0.822900  0.685000  0.713300  1.0
  C  C942  1  0.822900  0.315000  0.786700  1.0
  C  C943  1  0.322900  0.185000  0.713300  1.0
  C  C944  1  0.322900  0.815000  0.786700  1.0
  C  C945  1  0.177100  0.315000  0.286700  1.0
  C  C946  1  0.177100  0.685000  0.213300  1.0
  C  C947  1  0.677100  0.815000  0.286700  1.0
  C  C948  1  0.677100  0.185000  0.213300  1.0
  C  C949  1  0.827500  0.651400  0.653700  1.0
  C  C950  1  0.827500  0.348600  0.846300  1.0
  C  C951  1  0.327500  0.151400  0.653700  1.0
  C  C952  1  0.327500  0.848600  0.846300  1.0
  C  C953  1  0.172500  0.348600  0.346300  1.0
  C  C954  1  0.172500  0.651400  0.153700  1.0
  C  C955  1  0.672500  0.848600  0.346300  1.0
  C  C956  1  0.672500  0.151400  0.153700  1.0
  C  C957  1  0.768600  0.635300  0.628800  1.0
  C  C958  1  0.768600  0.364700  0.871200  1.0
  C  C959  1  0.268600  0.135300  0.628800  1.0
  C  C960  1  0.268600  0.864700  0.871200  1.0
  C  C961  1  0.231400  0.364700  0.371200  1.0
  C  C962  1  0.231400  0.635300  0.128800  1.0
  C  C963  1  0.731400  0.864700  0.371200  1.0
  C  C964  1  0.731400  0.135300  0.128800  1.0
  C  C965  1  0.861300  0.584300  0.939000  1.0
  C  C966  1  0.861300  0.415700  0.561000  1.0
  C  C967  1  0.361300  0.084300  0.939000  1.0
  C  C968  1  0.361300  0.915700  0.561000  1.0
  C  C969  1  0.138700  0.415700  0.061000  1.0
  C  C970  1  0.138700  0.584300  0.439000  1.0
  C  C971  1  0.638700  0.915700  0.061000  1.0
  C  C972  1  0.638700  0.084300  0.439000  1.0
  C  C973  1  0.843300  0.553900  0.975700  1.0
  C  C974  1  0.843300  0.446100  0.524300  1.0
  C  C975  1  0.343300  0.053900  0.975700  1.0
  C  C976  1  0.343300  0.946100  0.524300  1.0
  C  C977  1  0.156700  0.446100  0.024300  1.0
  C  C978  1  0.156700  0.553900  0.475700  1.0
  C  C979  1  0.656700  0.946100  0.024300  1.0
  C  C980  1  0.656700  0.053900  0.475700  1.0
  C  C981  1  0.899600  0.547900  0.002400  1.0
  C  C982  1  0.899600  0.452100  0.497600  1.0
  C  C983  1  0.399600  0.047900  0.002400  1.0
  C  C984  1  0.399600  0.952100  0.497600  1.0
  C  C985  1  0.100400  0.452100  0.997600  1.0
  C  C986  1  0.100400  0.547900  0.502400  1.0
  C  C987  1  0.600400  0.952100  0.997600  1.0
  C  C988  1  0.600400  0.047900  0.502400  1.0
  C  C989  1  0.881300  0.517500  0.035000  1.0
  C  C990  1  0.881300  0.482500  0.465000  1.0
  C  C991  1  0.381300  0.017500  0.035000  1.0
  C  C992  1  0.381300  0.982500  0.465000  1.0
  C  C993  1  0.118700  0.482500  0.965000  1.0
  C  C994  1  0.118700  0.517500  0.535000  1.0
  C  C995  1  0.618700  0.982500  0.965000  1.0
  C  C996  1  0.618700  0.017500  0.535000  1.0
  C  C997  1  0.456700  0.625300  0.853100  1.0
  C  C998  1  0.456700  0.374700  0.646900  1.0
  C  C999  1  0.956700  0.125300  0.853100  1.0
  C  C1000  1  0.956700  0.874700  0.646900  1.0
  C  C1001  1  0.543300  0.374700  0.146900  1.0
  C  C1002  1  0.543300  0.625300  0.353100  1.0
  C  C1003  1  0.043300  0.874700  0.146900  1.0
  C  C1004  1  0.043300  0.125300  0.353100  1.0
  C  C1005  1  0.508200  0.604900  0.834100  1.0
  C  C1006  1  0.508200  0.395100  0.665900  1.0
  C  C1007  1  0.008200  0.104900  0.834100  1.0
  C  C1008  1  0.008200  0.895100  0.665900  1.0
  C  C1009  1  0.491800  0.395100  0.165900  1.0
  C  C1010  1  0.491800  0.604900  0.334100  1.0
  C  C1011  1  0.991800  0.895100  0.165900  1.0
  C  C1012  1  0.991800  0.104900  0.334100  1.0
  C  C1013  1  0.512500  0.555600  0.793300  1.0
  C  C1014  1  0.512500  0.444400  0.706700  1.0
  C  C1015  1  0.012500  0.055600  0.793300  1.0
  C  C1016  1  0.012500  0.944400  0.706700  1.0
  C  C1017  1  0.487500  0.444400  0.206700  1.0
  C  C1018  1  0.487500  0.555600  0.293300  1.0
  C  C1019  1  0.987500  0.944400  0.206700  1.0
  C  C1020  1  0.987500  0.055600  0.293300  1.0
  C  C1021  1  0.463300  0.524700  0.773800  1.0
  C  C1022  1  0.463300  0.475300  0.726200  1.0
  C  C1023  1  0.963300  0.024700  0.773800  1.0
  C  C1024  1  0.963300  0.975300  0.726200  1.0
  C  C1025  1  0.536700  0.475300  0.226200  1.0
  C  C1026  1  0.536700  0.524700  0.273800  1.0
  C  C1027  1  0.036700  0.975300  0.226200  1.0
  C  C1028  1  0.036700  0.024700  0.273800  1.0
  C  C1029  1  0.412000  0.549000  0.794600  1.0
  C  C1030  1  0.412000  0.451000  0.705400  1.0
  C  C1031  1  0.912000  0.049000  0.794600  1.0
  C  C1032  1  0.912000  0.951000  0.705400  1.0
  C  C1033  1  0.588000  0.451000  0.205400  1.0
  C  C1034  1  0.588000  0.549000  0.294600  1.0
  C  C1035  1  0.088000  0.951000  0.205400  1.0
  C  C1036  1  0.088000  0.049000  0.294600  1.0
  C  C1037  1  0.361200  0.523100  0.770500  1.0
  C  C1038  1  0.361200  0.476900  0.729500  1.0
  C  C1039  1  0.861200  0.023100  0.770500  1.0
  C  C1040  1  0.861200  0.976900  0.729500  1.0
  C  C1041  1  0.638800  0.476900  0.229500  1.0
  C  C1042  1  0.638800  0.523100  0.270500  1.0
  C  C1043  1  0.138800  0.976900  0.229500  1.0
  C  C1044  1  0.138800  0.023100  0.270500  1.0
  C  C1045  1  0.011700  0.866100  0.021900  1.0
  C  C1046  1  0.011700  0.133900  0.478100  1.0
  C  C1047  1  0.511700  0.366100  0.021900  1.0
  C  C1048  1  0.511700  0.633900  0.478100  1.0
  C  C1049  1  0.988300  0.133900  0.978100  1.0
  C  C1050  1  0.988300  0.866100  0.521900  1.0
  C  C1051  1  0.488300  0.633900  0.978100  1.0
  C  C1052  1  0.488300  0.366100  0.521900  1.0
  C  C1053  1  0.962100  0.895400  0.041400  1.0
  C  C1054  1  0.962100  0.104600  0.458600  1.0
  C  C1055  1  0.462100  0.395400  0.041400  1.0
  C  C1056  1  0.462100  0.604600  0.458600  1.0
  C  C1057  1  0.037900  0.104600  0.958600  1.0
  C  C1058  1  0.037900  0.895400  0.541400  1.0
  C  C1059  1  0.537900  0.604600  0.958600  1.0
  C  C1060  1  0.537900  0.395400  0.541400  1.0
  C  C1061  1  0.909700  0.870900  0.021600  1.0
  C  C1062  1  0.909700  0.129100  0.478400  1.0
  C  C1063  1  0.409700  0.370900  0.021600  1.0
  C  C1064  1  0.409700  0.629100  0.478400  1.0
  C  C1065  1  0.090300  0.129100  0.978400  1.0
  C  C1066  1  0.090300  0.870900  0.521600  1.0
  C  C1067  1  0.590300  0.629100  0.978400  1.0
  C  C1068  1  0.590300  0.370900  0.521600  1.0
  C  C1069  1  0.908500  0.817200  0.985500  1.0
  C  C1070  1  0.908500  0.182800  0.514500  1.0
  C  C1071  1  0.408500  0.317200  0.985500  1.0
  C  C1072  1  0.408500  0.682800  0.514500  1.0
  C  C1073  1  0.091500  0.182800  0.014500  1.0
  C  C1074  1  0.091500  0.817200  0.485500  1.0
  C  C1075  1  0.591500  0.682800  0.014500  1.0
  C  C1076  1  0.591500  0.317200  0.485500  1.0
  C  C1077  1  0.959200  0.789100  0.967600  1.0
  C  C1078  1  0.959200  0.210900  0.532400  1.0
  C  C1079  1  0.459200  0.289100  0.967600  1.0
  C  C1080  1  0.459200  0.710900  0.532400  1.0
  C  C1081  1  0.040800  0.210900  0.032400  1.0
  C  C1082  1  0.040800  0.789100  0.467600  1.0
  C  C1083  1  0.540800  0.710900  0.032400  1.0
  C  C1084  1  0.540800  0.289100  0.467600  1.0
  C  C1085  1  0.959400  0.736300  0.929600  1.0
  C  C1086  1  0.959400  0.263700  0.570400  1.0
  C  C1087  1  0.459400  0.236300  0.929600  1.0
  C  C1088  1  0.459400  0.763700  0.570400  1.0
  C  C1089  1  0.040600  0.263700  0.070400  1.0
  C  C1090  1  0.040600  0.736300  0.429600  1.0
  C  C1091  1  0.540600  0.763700  0.070400  1.0
  C  C1092  1  0.540600  0.236300  0.429600  1.0
  C  C1093  1  0.912300  0.712400  0.910400  1.0
  C  C1094  1  0.912300  0.287600  0.589600  1.0
  C  C1095  1  0.412300  0.212400  0.910400  1.0
  C  C1096  1  0.412300  0.787600  0.589600  1.0
  C  C1097  1  0.087700  0.287600  0.089600  1.0
  C  C1098  1  0.087700  0.712400  0.410400  1.0
  C  C1099  1  0.587700  0.787600  0.089600  1.0
  C  C1100  1  0.587700  0.212400  0.410400  1.0
  C  C1101  1  0.858600  0.738000  0.926500  1.0
  C  C1102  1  0.858600  0.262000  0.573500  1.0
  C  C1103  1  0.358600  0.238000  0.926500  1.0
  C  C1104  1  0.358600  0.762000  0.573500  1.0
  C  C1105  1  0.141400  0.262000  0.073500  1.0
  C  C1106  1  0.141400  0.738000  0.426500  1.0
  C  C1107  1  0.641400  0.762000  0.073500  1.0
  C  C1108  1  0.641400  0.238000  0.426500  1.0
  C  C1109  1  0.858000  0.788700  0.965200  1.0
  C  C1110  1  0.858000  0.211300  0.534800  1.0
  C  C1111  1  0.358000  0.288700  0.965200  1.0
  C  C1112  1  0.358000  0.711300  0.534800  1.0
  C  C1113  1  0.142000  0.211300  0.034800  1.0
  C  C1114  1  0.142000  0.788700  0.465200  1.0
  C  C1115  1  0.642000  0.711300  0.034800  1.0
  C  C1116  1  0.642000  0.288700  0.465200  1.0
  C  C1117  1  0.805400  0.815300  0.982700  1.0
  C  C1118  1  0.805400  0.184700  0.517300  1.0
  C  C1119  1  0.305400  0.315300  0.982700  1.0
  C  C1120  1  0.305400  0.684700  0.517300  1.0
  C  C1121  1  0.194600  0.184700  0.017300  1.0
  C  C1122  1  0.194600  0.815300  0.482700  1.0
  C  C1123  1  0.694600  0.684700  0.017300  1.0
  C  C1124  1  0.694600  0.315300  0.482700  1.0
  C  C1125  1  0.759200  0.783000  0.959700  1.0
  C  C1126  1  0.759200  0.217000  0.540300  1.0
  C  C1127  1  0.259200  0.283000  0.959700  1.0
  C  C1128  1  0.259200  0.717000  0.540300  1.0
  C  C1129  1  0.240800  0.217000  0.040300  1.0
  C  C1130  1  0.240800  0.783000  0.459700  1.0
  C  C1131  1  0.740800  0.717000  0.040300  1.0
  C  C1132  1  0.740800  0.283000  0.459700  1.0
  C  C1133  1  0.762900  0.731800  0.922100  1.0
  C  C1134  1  0.762900  0.268200  0.577900  1.0
  C  C1135  1  0.262900  0.231800  0.922100  1.0
  C  C1136  1  0.262900  0.768200  0.577900  1.0
  C  C1137  1  0.237100  0.268200  0.077900  1.0
  C  C1138  1  0.237100  0.731800  0.422100  1.0
  C  C1139  1  0.737100  0.768200  0.077900  1.0
  C  C1140  1  0.737100  0.231800  0.422100  1.0
  C  C1141  1  0.810400  0.554300  0.790700  1.0
  C  C1142  1  0.810400  0.445700  0.709300  1.0
  C  C1143  1  0.310400  0.054300  0.790700  1.0
  C  C1144  1  0.310400  0.945700  0.709300  1.0
  C  C1145  1  0.189600  0.445700  0.209300  1.0
  C  C1146  1  0.189600  0.554300  0.290700  1.0
  C  C1147  1  0.689600  0.945700  0.209300  1.0
  C  C1148  1  0.689600  0.054300  0.290700  1.0
  C  C1149  1  0.810700  0.543500  0.739300  1.0
  C  C1150  1  0.810700  0.456500  0.760700  1.0
  C  C1151  1  0.310700  0.043500  0.739300  1.0
  C  C1152  1  0.310700  0.956500  0.760700  1.0
  C  C1153  1  0.189300  0.456500  0.260700  1.0
  C  C1154  1  0.189300  0.543500  0.239300  1.0
  C  C1155  1  0.689300  0.956500  0.260700  1.0
  C  C1156  1  0.689300  0.043500  0.239300  1.0
  C  C1157  1  0.808900  0.589800  0.729500  1.0
  C  C1158  1  0.808900  0.410200  0.770500  1.0
  C  C1159  1  0.308900  0.089800  0.729500  1.0
  C  C1160  1  0.308900  0.910200  0.770500  1.0
  C  C1161  1  0.191100  0.410200  0.270500  1.0
  C  C1162  1  0.191100  0.589800  0.229500  1.0
  C  C1163  1  0.691100  0.910200  0.270500  1.0
  C  C1164  1  0.691100  0.089800  0.229500  1.0
  C  C1165  1  0.812000  0.509300  0.798100  1.0
  C  C1166  1  0.812000  0.490700  0.701900  1.0
  C  C1167  1  0.312000  0.009300  0.798100  1.0
  C  C1168  1  0.312000  0.990700  0.701900  1.0
  C  C1169  1  0.188000  0.490700  0.201900  1.0
  C  C1170  1  0.188000  0.509300  0.298100  1.0
  C  C1171  1  0.688000  0.990700  0.201900  1.0
  C  C1172  1  0.688000  0.009300  0.298100  1.0
  C  C1173  1  0.811500  0.524800  0.856000  1.0
  C  C1174  1  0.811500  0.475200  0.644000  1.0
  C  C1175  1  0.311500  0.024800  0.856000  1.0
  C  C1176  1  0.311500  0.975200  0.644000  1.0
  C  C1177  1  0.188500  0.475200  0.144000  1.0
  C  C1178  1  0.188500  0.524800  0.356000  1.0
  C  C1179  1  0.688500  0.975200  0.144000  1.0
  C  C1180  1  0.688500  0.024800  0.356000  1.0
  S  S1181  1  0.097900  0.742300  0.025600  1.0
  S  S1182  1  0.097900  0.257700  0.474400  1.0
  S  S1183  1  0.597900  0.242300  0.025600  1.0
  S  S1184  1  0.597900  0.757700  0.474400  1.0
  S  S1185  1  0.902100  0.257700  0.974400  1.0
  S  S1186  1  0.902100  0.742300  0.525600  1.0
  S  S1187  1  0.402100  0.757700  0.974400  1.0
  S  S1188  1  0.402100  0.242300  0.525600  1.0
  S  S1189  1  0.091600  0.796900  0.892200  1.0
  S  S1190  1  0.091600  0.203100  0.607800  1.0
  S  S1191  1  0.591600  0.296900  0.892200  1.0
  S  S1192  1  0.591600  0.703100  0.607800  1.0
  S  S1193  1  0.908400  0.203100  0.107800  1.0
  S  S1194  1  0.908400  0.796900  0.392200  1.0
  S  S1195  1  0.408400  0.703100  0.107800  1.0
  S  S1196  1  0.408400  0.296900  0.392200  1.0
  S  S1197  1  0.326200  0.678600  0.808100  1.0
  S  S1198  1  0.326200  0.321400  0.691900  1.0
  S  S1199  1  0.826200  0.178600  0.808100  1.0
  S  S1200  1  0.826200  0.821400  0.691900  1.0
  S  S1201  1  0.673800  0.321400  0.191900  1.0
  S  S1202  1  0.673800  0.678600  0.308100  1.0
  S  S1203  1  0.173800  0.821400  0.191900  1.0
  S  S1204  1  0.173800  0.178600  0.308100  1.0
  S  S1205  1  0.328800  0.613700  0.933600  1.0
  S  S1206  1  0.328800  0.386300  0.566400  1.0
  S  S1207  1  0.828800  0.113700  0.933600  1.0
  S  S1208  1  0.828800  0.886300  0.566400  1.0
  S  S1209  1  0.671200  0.386300  0.066400  1.0
  S  S1210  1  0.671200  0.613700  0.433600  1.0
  S  S1211  1  0.171200  0.886300  0.066400  1.0
  S  S1212  1  0.171200  0.113700  0.433600  1.0
  S  S1213  1  0.812200  0.655900  0.780300  1.0
  S  S1214  1  0.812200  0.344100  0.719700  1.0
  S  S1215  1  0.312200  0.155900  0.780300  1.0
  S  S1216  1  0.312200  0.844100  0.719700  1.0
  S  S1217  1  0.187800  0.344100  0.219700  1.0
  S  S1218  1  0.187800  0.655900  0.280300  1.0
  S  S1219  1  0.687800  0.844100  0.219700  1.0
  S  S1220  1  0.687800  0.155900  0.280300  1.0
  S  S1221  1  0.803100  0.585900  0.900900  1.0
  S  S1222  1  0.803100  0.414100  0.599100  1.0
  S  S1223  1  0.303100  0.085900  0.900900  1.0
  S  S1224  1  0.303100  0.914100  0.599100  1.0
  S  S1225  1  0.196900  0.414100  0.099100  1.0
  S  S1226  1  0.196900  0.585900  0.400900  1.0
  S  S1227  1  0.696900  0.914100  0.099100  1.0
  S  S1228  1  0.696900  0.085900  0.400900  1.0
  N  N1229  1  0.411500  0.598800  0.834800  1.0
  N  N1230  1  0.411500  0.401200  0.665200  1.0
  N  N1231  1  0.911500  0.098800  0.834800  1.0
  N  N1232  1  0.911500  0.901200  0.665200  1.0
  N  N1233  1  0.588500  0.401200  0.165200  1.0
  N  N1234  1  0.588500  0.598800  0.334800  1.0
  N  N1235  1  0.088500  0.901200  0.165200  1.0
  N  N1236  1  0.088500  0.098800  0.334800  1.0
  N  N1237  1  0.009400  0.814100  0.986700  1.0
  N  N1238  1  0.009400  0.185900  0.513300  1.0
  N  N1239  1  0.509400  0.314100  0.986700  1.0
  N  N1240  1  0.509400  0.685900  0.513300  1.0
  N  N1241  1  0.990600  0.185900  0.013300  1.0
  N  N1242  1  0.990600  0.814100  0.486700  1.0
  N  N1243  1  0.490600  0.685900  0.013300  1.0
  N  N1244  1  0.490600  0.314100  0.486700  1.0
  N  N1245  1  0.811900  0.709700  0.905100  1.0
  N  N1246  1  0.811900  0.290300  0.594900  1.0
  N  N1247  1  0.311900  0.209700  0.905100  1.0
  N  N1248  1  0.311900  0.790300  0.594900  1.0
  N  N1249  1  0.188100  0.290300  0.094900  1.0
  N  N1250  1  0.188100  0.709700  0.405100  1.0
  N  N1251  1  0.688100  0.790300  0.094900  1.0
  N  N1252  1  0.688100  0.209700  0.405100  1.0
  F  F1253  1  0.094000  0.262200  0.884000  1
  F  F1254  1  0.094000  0.737800  0.616000  1
  F  F1255  1  0.594000  0.762200  0.884000  1
  F  F1256  1  0.594000  0.237800  0.616000  1
  F  F1257  1  0.906000  0.737800  0.116000  1
  F  F1258  1  0.906000  0.262200  0.384000  1
  F  F1259  1  0.406000  0.237800  0.116000  1
  F  F1260  1  0.406000  0.762200  0.384000  1
  F  F1261  1  0.112600  0.273900  0.961400  1
  F  F1262  1  0.112600  0.726100  0.538600  1
  F  F1263  1  0.612600  0.773900  0.961400  1
  F  F1264  1  0.612600  0.226100  0.538600  1
  F  F1265  1  0.887400  0.726100  0.038600  1
  F  F1266  1  0.887400  0.273900  0.461400  1
  F  F1267  1  0.387400  0.226100  0.038600  1
  F  F1268  1  0.387400  0.773900  0.461400  1
  F  F1269  1  0.129500  0.198800  0.899600  1
  F  F1270  1  0.129500  0.801200  0.600400  1
  F  F1271  1  0.629500  0.698800  0.899600  1
  F  F1272  1  0.629500  0.301200  0.600400  1
  F  F1273  1  0.870500  0.801200  0.100400  1
  F  F1274  1  0.870500  0.198800  0.399600  1
  F  F1275  1  0.370500  0.301200  0.100400  1
  F  F1276  1  0.370500  0.698800  0.399600  1
  F  F1277  1  0.045500  0.222200  0.920000  1
  F  F1278  1  0.045500  0.777800  0.580000  1
  F  F1279  1  0.545500  0.722200  0.920000  1
  F  F1280  1  0.545500  0.277800  0.580000  1
  F  F1281  1  0.954500  0.777800  0.080000  1
  F  F1282  1  0.954500  0.222200  0.420000  1
  F  F1283  1  0.454500  0.277800  0.080000  1
  F  F1284  1  0.454500  0.722200  0.420000  1
