
#######################################################################
#
#                 Cambridge Crystallographic Data Centre
#                                CCDC 
#
#######################################################################
#
# If this CIF has been generated from an entry in the Cambridge 
# Structural Database, then it will include bibliographic, chemical, 
# crystal, experimental, refinement or atomic coordinate data resulting 
# from the CCDC's data processing and validation procedures.
#
#######################################################################

data_NICGUB
_chemical_formula_moiety         'C114 H156 N6 Pd6 S12 6+,6(B1 F4 1-)'
_chemical_name_systematic        
'tris((2,3,5,6-tetrakis(n-Butylthiomethyl)benzene-1,4-diyl)-(\m~2~-4,7-phenanthroline))-hexa-palladium hexakis(tetrafluoroborate)'
_symmetry_cell_setting           monoclinic
_symmetry_space_group_name_H-M   'C 2/c'
_symmetry_Int_Tables_number      15
_space_group_name_Hall           '-C 2yn'
loop_
_symmetry_equiv_pos_site_id
_symmetry_equiv_pos_as_xyz
1 x,y,z
2 -x,y,1/2-z
3 1/2+x,1/2+y,z
4 1/2-x,1/2+y,1/2-z
5 -x,-y,-z
6 x,-y,1/2+z
7 1/2-x,1/2-y,-z
8 1/2+x,1/2-y,1/2+z
_cell_length_a                   26.8628(3)
_cell_length_b                   24.1205(2)
_cell_length_c                   28.4165(1)
_cell_angle_alpha                90
_cell_angle_beta                 113.504(1)
_cell_angle_gamma                90
_cell_volume                     16884.7
_exptl_crystal_colour            'pale yellow'
_exptl_crystal_description       block
_cell_formula_units_Z            4
loop_
_atom_site_label
_atom_site_type_symbol
_atom_site_fract_x
_atom_site_fract_y
_atom_site_fract_z
Pd1 Pd 1.22675(5) -0.08911(5) 0.03925(5)
Pd2 Pd 1.35900(5) -0.33257(5) 0.13340(5)
Pd3 Pd 1.37288(6) 0.18729(6) 0.15480(5)
C1 C 1.2640(4) -0.1631(3) 0.0651(3)
C2 C 1.2621(4) -0.1867(4) 0.1090(3)
C3 C 1.2897(4) -0.2359(4) 0.1283(3)
C4 C 1.3192(4) -0.2614(3) 0.1038(4)
C5 C 1.3211(3) -0.2377(4) 0.0600(3)
C6 C 1.2935(4) -0.1886(4) 0.0406(3)
C7 C 1.2285(9) -0.1598(9) 0.1364(9)
H1 H 1.2510(9) -0.1554(9) 0.1726(9)
H2 H 1.1982(9) -0.1836(9) 0.1331(9)
C8 C 1.2836(10) -0.2622(10) 0.1760(9)
H3 H 1.2456(10) -0.2693(10) 0.1683(9)
H4 H 1.2974(10) -0.2369(10) 0.2048(9)
C9 C 1.3521(6) -0.2669(6) 0.0329(6)
H5 H 1.3788(6) -0.2416(6) 0.0299(6)
H6 H 1.3271(6) -0.2769(6) -0.0015(6)
C10 C 1.2940(7) -0.1639(6) -0.0096(6)
H7 H 1.2771(7) -0.1899(6) -0.0375(6)
H8 H 1.3312(7) -0.1584(6) -0.0056(6)
S1 S 1.2577(2) -0.0979(2) -0.0256(2)
C11 C 1.3124(6) -0.0502(7) -0.0122(6)
H9 H 1.3003(12) -0.0129(6) -0.0098(13)
H10 H 1.3418(7) -0.0595(15) 0.0202(6)
C12 C 1.3336(7) -0.0536(8) -0.0581(8)
H11 H 1.3506(11) -0.0891(9) -0.0580(15)
H12 H 1.3038(10) -0.0483(14) -0.0912(7)
C13 C 1.3767(9) -0.0044(10) -0.0462(12)
H13 H 1.3601(12) 0.0311(9) -0.0453(16)
H14 H 1.4073(8) -0.0103(15) -0.0137(13)
C14 C 1.3940(14) -0.0076(16) -0.0911(15)
H15 H 1.4204(14) 0.0207(17) -0.0875(17)
H16 H 1.3629(16) -0.0023(21) -0.1227(13)
H17 H 1.4097(16) -0.0434(17) -0.0913(20)
S2 S 1.2031(3) -0.0916(3) 0.1078(3)
C15 C 1.1307(4) -0.0942(19) 0.0804(10)
H18 H 1.1163(9) -0.0639(33) 0.0563(17)
H19 H 1.1185(11) -0.1288(30) 0.0621(24)
C16 C 1.1094(10) -0.0891(19) 0.1261(17)
H20 H 1.1192(16) -0.1217(30) 0.1479(25)
H21 H 1.1245(15) -0.0566(29) 0.1470(23)
C17 C 1.0450(9) -0.0839(21) 0.0972(25)
H22 H 1.0350(11) -0.0518(29) 0.0747(31)
H23 H 1.0295(10) -0.1169(28) 0.0773(32)
C18 C 1.0268(19) -0.0772(34) 0.1412(32)
H24 H 0.9880(19) -0.0736(34) 0.1277(37)
H25 H 1.0432(23) -0.0446(43) 0.1606(37)
H26 H 1.0377(23) -0.1091(45) 0.1632(34)
S3 S 1.3214(4) -0.3262(3) 0.1919(3)
C19 C 1.3124(26) -0.3646(81) 0.2416(33)
C20 C 1.2486(21) -0.3791(35) 0.2234(31)
C21 C 1.2461(36) -0.4195(61) 0.2668(40)
C22 C 1.1860(41) -0.4337(69) 0.2475(47)
H27 H 1.1801(50) -0.4583(53) 0.2713(47)
S4 S 1.3863(2) -0.3288(2) 0.0664(2)
C23 C 1.4562(4) -0.3103(13) 0.0884(8)
C24 C 1.4768(8) -0.3233(13) 0.0431(12)
C25 C 1.5367(8) -0.2982(18) 0.0638(18)
C26 C 1.5538(15) -0.3093(26) 0.0196(22)
S5 S 1.3441(3) 0.1878(6) 0.2197(2)
C27 C 1.3010(20) 0.2223(34) 0.2405(9)
C28 C 1.3150(23) 0.1771(29) 0.2867(14)
C29 C 1.3486(36) 0.1725(23) 0.3463(13)
C30 C 1.3647(24) 0.2314(28) 0.3712(9)
S6 S 1.4141(3) 0.1969(5) 0.0991(2)
C31 C 1.4157(14) 0.1387(7) 0.0610(12)
H28 H 1.4351(28) 0.1083(8) 0.0830(17)
H29 H 1.3791(17) 0.1265(20) 0.0403(20)
C32 C 1.4461(13) 0.1567(13) 0.0243(9)
H30 H 1.4246(25) 0.1835(17) -0.0012(10)
H31 H 1.4814(15) 0.1727(21) 0.0442(17)
C33 C 1.4521(18) 0.1004(17) -0.0024(14)
H32 H 1.4727(27) 0.0731(18) 0.0230(18)
H33 H 1.4168(21) 0.0850(22) -0.0235(19)
C34 C 1.4825(24) 0.1187(25) -0.0350(18)
H34 H 1.4883(25) 0.0872(27) -0.0530(19)
H35 H 1.5169(24) 0.1342(31) -0.0133(25)
H36 H 1.4615(33) 0.1460(26) -0.0594(19)
N1 N 1.4012(6) -0.4115(6) 0.1652(5)
C35 C 1.3747(8) -0.4567(8) 0.1469(8)
H37 H 1.3407(8) -0.4543(8) 0.1200(8)
C36 C 1.3951(9) -0.5082(8) 0.1659(8)
H38 H 1.3754(9) -0.5399(8) 0.1512(8)
C37 C 1.4444(9) -0.5125(7) 0.2067(7)
H39 H 1.4574(9) -0.5468(7) 0.2214(7)
C38 C 1.4753(7) -0.4633(7) 0.2262(6)
C39 C 1.4510(7) -0.4120(6) 0.2054(6)
C40 C 1.4769(8) -0.3612(7) 0.2295(7)
H40 H 1.4608(8) -0.3275(7) 0.2158(7)
N2 N 1.1859(5) -0.0094(5) 0.0133(5)
C41 C 1.1339(8) -0.0117(9) -0.0219(9)
H41 H 1.1175(8) -0.0458(9) -0.0333(9)
C42 C 1.1046(7) 0.0379(10) -0.0414(9)
H42 H 1.0697(7) 0.0363(10) -0.0669(9)
C43 C 1.1291(7) 0.0903(8) -0.0216(8)
H43 H 1.1095(7) 0.1231(8) -0.0325(8)
C44 C 1.1828(7) 0.0915(7) 0.0145(6)
C45 C 1.2109(6) 0.0408(6) 0.0324(6)
C46 C 1.2637(7) 0.0406(7) 0.0704(6)
H44 H 1.2818(7) 0.0072(7) 0.0820(6)
C47 C 1.2876(6) 0.0877(8) 0.0896(6)
H45 H 1.3227(6) 0.0867(8) 0.1149(6)
C48 C 1.2620(6) 0.1414(7) 0.0735(6)
C49 C 1.2113(7) 0.1420(7) 0.0348(6)
C50 C 1.1847(8) 0.1946(7) 0.0173(7)
H46 H 1.1493(8) 0.1977(7) -0.0070(7)
C51 C 1.2170(11) 0.2408(8) 0.0403(9)
H47 H 1.2028(11) 0.2759(8) 0.0294(9)
C52 C 1.2682(8) 0.2371(9) 0.0779(8)
H48 H 1.2876(8) 0.2692(9) 0.0918(8)
N3 N 1.2903(6) 0.1881(6) 0.0949(5)
C53 C 1.4457(7) 0.1896(7) 0.2093(5)
C54 C 1.4565(7) 0.1893(11) 0.2607(8)
C55 C 1.4102(29) 0.1911(14) 0.2705(26)
H49 H 1.4117(29) 0.2250(14) 0.2893(26)
H50 H 1.4126(29) 0.1607(14) 0.2937(26)
C56 C 1.4907(12) 0.1880(10) 0.2019(11)
C57 C 1.4752(40) 0.1885(15) 0.1440(33)
H51 H 1.4883(40) 0.1536(15) 0.1363(33)
H52 H 1.4974(40) 0.2172(15) 0.1381(33)
C54A C 1.5435(7) 0.1893(11) 0.2393(8)
C53A C 1.5543(7) 0.1896(7) 0.2907(5)
Pd3A Pd 1.62712(6) 0.18729(6) 0.34520(5)
S5A S 1.6559(3) 0.1878(6) 0.2803(2)
C27A C 1.6990(20) 0.2223(34) 0.2595(9)
C28A C 1.6850(23) 0.1771(29) 0.2133(14)
C29A C 1.6514(36) 0.1725(23) 0.1537(13)
C30A C 1.6353(24) 0.2314(28) 0.1288(9)
C55A C 1.5898(29) 0.1911(14) 0.2295(26)
H49A H 1.5883(29) 0.2250(14) 0.2107(26)
H50A H 1.5874(29) 0.1607(14) 0.2063(26)
S6A S 1.5859(3) 0.1969(5) 0.4009(2)
C31A C 1.5843(14) 0.1387(7) 0.4390(12)
H28A H 1.5649(28) 0.1083(8) 0.4170(17)
H29A H 1.6209(17) 0.1265(20) 0.4597(20)
C32A C 1.5539(13) 0.1567(13) 0.4757(9)
H30A H 1.5754(25) 0.1835(17) 0.5012(10)
H31A H 1.5186(15) 0.1727(21) 0.4558(17)
C33A C 1.5479(18) 0.1004(17) 0.5024(14)
H32A H 1.5273(27) 0.0731(18) 0.4770(18)
H33A H 1.5832(21) 0.0850(22) 0.5235(19)
C34A C 1.5175(24) 0.1187(25) 0.5350(18)
H34A H 1.5117(25) 0.0872(27) 0.5530(19)
H35A H 1.4831(24) 0.1342(31) 0.5133(25)
H36A H 1.5385(33) 0.1460(26) 0.5594(19)
C57A C 1.5248(40) 0.1885(15) 0.3560(33)
C56A C 1.5093(12) 0.1880(10) 0.2981(11)
H51A H 1.5117(40) 0.1536(15) 0.3637(33)
H52A H 1.5026(40) 0.2172(15) 0.3619(33)
N3A N 1.7097(6) 0.1881(6) 0.4051(5)
C48A C 1.7380(6) 0.1414(7) 0.4265(6)
C47A C 1.7124(6) 0.0877(8) 0.4104(6)
C46A C 1.7363(7) 0.0406(7) 0.4296(6)
C45A C 1.7891(6) 0.0408(6) 0.4676(6)
N2A N 1.8141(5) -0.0094(5) 0.4867(5)
Pd1A Pd 1.77325(5) -0.08911(5) 0.46075(5)
C1A C 1.7360(4) -0.1631(3) 0.4349(3)
C2A C 1.7379(4) -0.1867(4) 0.3910(3)
C3A C 1.7103(4) -0.2359(4) 0.3717(3)
C4A C 1.6808(4) -0.2614(3) 0.3962(4)
Pd2A Pd 1.64100(5) -0.33257(5) 0.36660(5)
S3A S 1.6786(4) -0.3262(3) 0.3081(3)
C8A C 1.7164(10) -0.2622(10) 0.3240(9)
H3A H 1.7544(10) -0.2693(10) 0.3317(9)
H4A H 1.7026(10) -0.2369(10) 0.2952(9)
C19A C 1.6876(26) -0.3646(81) 0.2584(33)
C20A C 1.7514(21) -0.3791(35) 0.2766(31)
C21A C 1.7539(36) -0.4195(61) 0.2332(40)
C22A C 1.8140(41) -0.4337(69) 0.2525(47)
H27A H 1.8199(50) -0.4583(53) 0.2287(47)
S4A S 1.6137(2) -0.3288(2) 0.4336(2)
C9A C 1.6479(6) -0.2669(6) 0.4671(6)
C5A C 1.6789(3) -0.2377(4) 0.4400(3)
C6A C 1.7065(4) -0.1886(4) 0.4594(3)
C10A C 1.7060(7) -0.1639(6) 0.5096(6)
H7A H 1.7229(7) -0.1899(6) 0.5375(6)
H8A H 1.6688(7) -0.1584(6) 0.5056(6)
S1A S 1.7423(2) -0.0979(2) 0.5256(2)
S2A S 1.7969(3) -0.0916(3) 0.3922(3)
C7A C 1.7715(9) -0.1598(9) 0.3636(9)
H1A H 1.7490(9) -0.1554(9) 0.3274(9)
H2A H 1.8018(9) -0.1836(9) 0.3669(9)
C15A C 1.8693(4) -0.0942(19) 0.4196(10)
H18A H 1.8837(9) -0.0639(33) 0.4437(17)
H19A H 1.8815(11) -0.1288(30) 0.4379(24)
C16A C 1.8906(10) -0.0891(19) 0.3739(17)
H20A H 1.8808(16) -0.1217(30) 0.3521(25)
H21A H 1.8755(15) -0.0566(29) 0.3530(23)
C17A C 1.9550(9) -0.0839(21) 0.4028(25)
H22A H 1.9650(11) -0.0518(29) 0.4253(31)
H23A H 1.9705(10) -0.1169(28) 0.4227(32)
C18A C 1.9732(19) -0.0772(34) 0.3588(32)
H24A H 2.0120(19) -0.0736(34) 0.3723(37)
H25A H 1.9568(23) -0.0446(43) 0.3394(37)
H26A H 1.9623(23) -0.1091(45) 0.3368(34)
C11A C 1.6876(6) -0.0502(7) 0.5122(6)
H9A H 1.6997(12) -0.0129(6) 0.5098(13)
H10A H 1.6582(7) -0.0595(15) 0.4798(6)
C12A C 1.6664(7) -0.0536(8) 0.5581(8)
H11A H 1.6494(11) -0.0891(9) 0.5580(15)
H12A H 1.6962(10) -0.0483(14) 0.5912(7)
C13A C 1.6233(9) -0.0044(10) 0.5462(12)
H13A H 1.6399(12) 0.0311(9) 0.5453(16)
H14A H 1.5927(8) -0.0103(15) 0.5137(13)
C14A C 1.6060(14) -0.0076(16) 0.5911(15)
H15A H 1.5796(14) 0.0207(17) 0.5875(17)
H16A H 1.6371(16) -0.0023(21) 0.6227(13)
H17A H 1.5903(16) -0.0434(17) 0.5913(20)
H5A H 1.6212(6) -0.2416(6) 0.4701(6)
H6A H 1.6729(6) -0.2769(6) 0.5015(6)
C23A C 1.5438(4) -0.3103(13) 0.4116(8)
C24A C 1.5232(8) -0.3233(13) 0.4569(12)
C25A C 1.4633(8) -0.2982(18) 0.4362(18)
C26A C 1.4462(15) -0.3093(26) 0.4804(22)
N1A N 1.5988(6) -0.4115(6) 0.3348(5)
C35A C 1.6253(8) -0.4567(8) 0.3531(8)
H37A H 1.6593(8) -0.4543(8) 0.3800(8)
C36A C 1.6049(9) -0.5082(8) 0.3341(8)
H38A H 1.6246(9) -0.5399(8) 0.3488(8)
C37A C 1.5556(9) -0.5125(7) 0.2933(7)
H39A H 1.5426(9) -0.5468(7) 0.2786(7)
C38A C 1.5247(7) -0.4633(7) 0.2738(6)
C40A C 1.5231(8) -0.3612(7) 0.2705(7)
C39A C 1.5490(7) -0.4120(6) 0.2946(6)
H40A H 1.5392(8) -0.3275(7) 0.2842(7)
C41A C 1.8661(8) -0.0117(9) 0.5219(9)
H41A H 1.8825(8) -0.0458(9) 0.5333(9)
C42A C 1.8954(7) 0.0379(10) 0.5414(9)
H42A H 1.9303(7) 0.0363(10) 0.5669(9)
C43A C 1.8709(7) 0.0903(8) 0.5216(8)
H43A H 1.8905(7) 0.1231(8) 0.5325(8)
C44A C 1.8172(7) 0.0915(7) 0.4855(6)
C49A C 1.7887(7) 0.1420(7) 0.4652(6)
C50A C 1.8153(8) 0.1946(7) 0.4827(7)
H46A H 1.8507(8) 0.1977(7) 0.5070(7)
C51A C 1.7830(11) 0.2408(8) 0.4597(9)
H47A H 1.7972(11) 0.2759(8) 0.4706(9)
C52A C 1.7318(8) 0.2371(9) 0.4221(8)
H48A H 1.7124(8) 0.2692(9) 0.4082(8)
H44A H 1.7182(7) 0.0072(7) 0.4180(6)
H45A H 1.6773(6) 0.0867(8) 0.3851(6)
F1 F 0.7378(10) -0.0940(10) 0.1160(9)
F2 F 0.7261(7) -0.1126(8) 0.0386(7)
F3 F 0.8012(8) -0.1295(8) 0.1004(7)
F4 F 0.7778(6) -0.0455(6) 0.0800(6)
B1 B 0.7606(10) -0.0958(9) 0.0844(9)
loop_
_geom_bond_atom_site_label_1
_geom_bond_atom_site_label_2
_geom_bond_site_symmetry_1
_geom_bond_site_symmetry_2
Pd1 C1 1_555 1_555
Pd2 C4 1_555 1_555
Pd3 S5 1_555 1_555
C1 C2 1_555 1_555
C2 C3 1_555 1_555
C3 C4 1_555 1_555
C4 C5 1_555 1_555
C5 C6 1_555 1_555
C6 C1 1_555 1_555
C7 C2 1_555 1_555
H1 C7 1_555 1_555
H2 C7 1_555 1_555
C8 C3 1_555 1_555
H3 C8 1_555 1_555
H4 C8 1_555 1_555
C9 C5 1_555 1_555
H5 C9 1_555 1_555
H6 C9 1_555 1_555
C10 C6 1_555 1_555
H7 C10 1_555 1_555
H8 C10 1_555 1_555
S1 Pd1 1_555 1_555
C11 S1 1_555 1_555
H9 C11 1_555 1_555
H10 C11 1_555 1_555
C12 C11 1_555 1_555
H11 C12 1_555 1_555
H12 C12 1_555 1_555
C13 C12 1_555 1_555
H13 C13 1_555 1_555
H14 C13 1_555 1_555
C14 C13 1_555 1_555
H15 C14 1_555 1_555
H16 C14 1_555 1_555
H17 C14 1_555 1_555
S2 Pd1 1_555 1_555
C15 S2 1_555 1_555
H18 C15 1_555 1_555
H19 C15 1_555 1_555
C16 C15 1_555 1_555
H20 C16 1_555 1_555
H21 C16 1_555 1_555
C17 C16 1_555 1_555
H22 C17 1_555 1_555
H23 C17 1_555 1_555
C18 C17 1_555 1_555
H24 C18 1_555 1_555
H25 C18 1_555 1_555
H26 C18 1_555 1_555
S3 Pd2 1_555 1_555
C19 S3 1_555 1_555
C20 C19 1_555 1_555
C21 C20 1_555 1_555
C22 C21 1_555 1_555
H27 C22 1_555 1_555
S4 Pd2 1_555 1_555
C23 S4 1_555 1_555
C24 C23 1_555 1_555
C25 C24 1_555 1_555
C26 C25 1_555 1_555
S5 C27 1_555 1_555
C27 C28 1_555 1_555
C28 C29 1_555 1_555
C29 C30 1_555 1_555
S6 Pd3 1_555 1_555
C31 S6 1_555 1_555
H28 C31 1_555 1_555
H29 C31 1_555 1_555
C32 C31 1_555 1_555
H30 C32 1_555 1_555
H31 C32 1_555 1_555
C33 C32 1_555 1_555
H32 C33 1_555 1_555
H33 C33 1_555 1_555
C34 C33 1_555 1_555
H34 C34 1_555 1_555
H35 C34 1_555 1_555
H36 C34 1_555 1_555
N1 Pd2 1_555 1_555
C35 N1 1_555 1_555
H37 C35 1_555 1_555
C36 C35 1_555 1_555
H38 C36 1_555 1_555
C37 C36 1_555 1_555
H39 C37 1_555 1_555
C38 C37 1_555 1_555
C39 N1 1_555 1_555
C40 C39 1_555 1_555
H40 C40 1_555 1_555
N2 Pd1 1_555 1_555
C41 N2 1_555 1_555
H41 C41 1_555 1_555
C42 C41 1_555 1_555
H42 C42 1_555 1_555
C43 C42 1_555 1_555
H43 C43 1_555 1_555
C44 C43 1_555 1_555
C45 N2 1_555 1_555
C46 C45 1_555 1_555
H44 C46 1_555 1_555
C47 C46 1_555 1_555
H45 C47 1_555 1_555
C48 C47 1_555 1_555
C49 C44 1_555 1_555
C50 C49 1_555 1_555
H46 C50 1_555 1_555
C51 C50 1_555 1_555
H47 C51 1_555 1_555
C52 C51 1_555 1_555
H48 C52 1_555 1_555
N3 Pd3 1_555 1_555
C53 Pd3 1_555 1_555
C54 C53 1_555 1_555
C55 S5 1_555 1_555
H49 C55 1_555 1_555
H50 C55 1_555 1_555
C56 C53 1_555 1_555
C57 S6 1_555 1_555
H51 C57 1_555 1_555
H52 C57 1_555 1_555
F1 B1 1_555 1_555
F2 B1 1_555 1_555
F3 B1 1_555 1_555
F4 B1 1_555 1_555
C54A C56 1_555 1_555
C53A C54A 1_555 1_555
Pd3A C53A 1_555 1_555
S5A Pd3A 1_555 1_555
C27A S5A 1_555 1_555
C28A C27A 1_555 1_555
C29A C28A 1_555 1_555
C30A C29A 1_555 1_555
C55A C54A 1_555 1_555
H49A C55A 1_555 1_555
H50A C55A 1_555 1_555
S6A Pd3A 1_555 1_555
C31A S6A 1_555 1_555
H28A C31A 1_555 1_555
H29A C31A 1_555 1_555
C32A C31A 1_555 1_555
H30A C32A 1_555 1_555
H31A C32A 1_555 1_555
C33A C32A 1_555 1_555
H32A C33A 1_555 1_555
H33A C33A 1_555 1_555
C34A C33A 1_555 1_555
H34A C34A 1_555 1_555
H35A C34A 1_555 1_555
H36A C34A 1_555 1_555
C57A S6A 1_555 1_555
C56A C54 1_555 1_555
H51A C57A 1_555 1_555
H52A C57A 1_555 1_555
N3A Pd3A 1_555 1_555
C48A N3A 1_555 1_555
C47A C48A 1_555 1_555
C46A C47A 1_555 1_555
C45A C46A 1_555 1_555
N2A C45A 1_555 1_555
Pd1A N2A 1_555 1_555
C1A Pd1A 1_555 1_555
C2A C1A 1_555 1_555
C3A C2A 1_555 1_555
C4A C3A 1_555 1_555
Pd2A C4A 1_555 1_555
S3A Pd2A 1_555 1_555
C8A C3A 1_555 1_555
H3A C8A 1_555 1_555
H4A C8A 1_555 1_555
C19A S3A 1_555 1_555
C20A C19A 1_555 1_555
C21A C20A 1_555 1_555
C22A C21A 1_555 1_555
H27A C22A 1_555 1_555
S4A Pd2A 1_555 1_555
C9A S4A 1_555 1_555
C5A C4A 1_555 1_555
C6A C1A 1_555 1_555
C10A C6A 1_555 1_555
H7A C10A 1_555 1_555
H8A C10A 1_555 1_555
S1A Pd1A 1_555 1_555
S2A Pd1A 1_555 1_555
C7A C2A 1_555 1_555
H1A C7A 1_555 1_555
H2A C7A 1_555 1_555
C15A S2A 1_555 1_555
H18A C15A 1_555 1_555
H19A C15A 1_555 1_555
C16A C15A 1_555 1_555
H20A C16A 1_555 1_555
H21A C16A 1_555 1_555
C17A C16A 1_555 1_555
H22A C17A 1_555 1_555
H23A C17A 1_555 1_555
C18A C17A 1_555 1_555
H24A C18A 1_555 1_555
H25A C18A 1_555 1_555
H26A C18A 1_555 1_555
C11A S1A 1_555 1_555
H9A C11A 1_555 1_555
H10A C11A 1_555 1_555
C12A C11A 1_555 1_555
H11A C12A 1_555 1_555
H12A C12A 1_555 1_555
C13A C12A 1_555 1_555
H13A C13A 1_555 1_555
H14A C13A 1_555 1_555
C14A C13A 1_555 1_555
H15A C14A 1_555 1_555
H16A C14A 1_555 1_555
H17A C14A 1_555 1_555
H5A C9A 1_555 1_555
H6A C9A 1_555 1_555
C23A S4A 1_555 1_555
C24A C23A 1_555 1_555
C25A C24A 1_555 1_555
C26A C25A 1_555 1_555
N1A Pd2A 1_555 1_555
C35A N1A 1_555 1_555
H37A C35A 1_555 1_555
C36A C35A 1_555 1_555
H38A C36A 1_555 1_555
C37A C36A 1_555 1_555
H39A C37A 1_555 1_555
C38A C38 1_555 1_555
C40A C40 1_555 1_555
C39A N1A 1_555 1_555
H40A C40A 1_555 1_555
C41A N2A 1_555 1_555
H41A C41A 1_555 1_555
C42A C41A 1_555 1_555
H42A C42A 1_555 1_555
C43A C42A 1_555 1_555
H43A C43A 1_555 1_555
C44A C45A 1_555 1_555
C49A C48A 1_555 1_555
C50A C49A 1_555 1_555
H46A C50A 1_555 1_555
C51A C50A 1_555 1_555
H47A C51A 1_555 1_555
C52A N3A 1_555 1_555
H48A C52A 1_555 1_555
H44A C46A 1_555 1_555
H45A C47A 1_555 1_555
C7 S2 1_555 1_555
C8 S3 1_555 1_555
C9 S4 1_555 1_555
C10 S1 1_555 1_555
C38 C39 1_555 1_555
C44 C45 1_555 1_555
C48 C49 1_555 1_555
C48 N3 1_555 1_555
C52 N3 1_555 1_555
C54 C55 1_555 1_555
C56 C57 1_555 1_555
C53A C56A 1_555 1_555
S5A C55A 1_555 1_555
C57A C56A 1_555 1_555
S3A C8A 1_555 1_555
C9A C5A 1_555 1_555
C5A C6A 1_555 1_555
C10A S1A 1_555 1_555
S2A C7A 1_555 1_555
C37A C38A 1_555 1_555
C38A C39A 1_555 1_555
C40A C39A 1_555 1_555
C43A C44A 1_555 1_555
C44A C49A 1_555 1_555
C51A C52A 1_555 1_555

#END
