
#######################################################################
#
#                 Cambridge Crystallographic Data Centre
#                                CCDC 
#
#######################################################################
#
# If this CIF has been generated from an entry in the Cambridge 
# Structural Database, then it will include bibliographic, chemical, 
# crystal, experimental, refinement or atomic coordinate data resulting 
# from the CCDC's data processing and validation procedures.
#
#######################################################################

data_NIGDIS
_chemical_formula_moiety         '(C78 H36 Cu6 O30)n'
_chemical_name_systematic        
"catena-(tris(\m~8~-5,5'-Naphthalene-2,7-diyldi-isophthalato)-hexakis(unknown solvent)-hexa-copper)"
_symmetry_cell_setting           orthorhombic
_symmetry_space_group_name_H-M   'I m m 2'
_symmetry_Int_Tables_number      44
_space_group_name_Hall           'I 2 -2'
loop_
_symmetry_equiv_pos_site_id
_symmetry_equiv_pos_as_xyz
1 x,y,z
2 -x,-y,z
3 -x,y,z
4 x,-y,z
5 1/2+x,1/2+y,1/2+z
6 1/2-x,1/2-y,1/2+z
7 1/2-x,1/2+y,1/2+z
8 1/2+x,1/2-y,1/2+z
_cell_length_a                   27.547(4)
_cell_length_b                   36.559(5)
_cell_length_c                   18.413(2)
_cell_angle_alpha                90
_cell_angle_beta                 90
_cell_angle_gamma                90
_cell_volume                     18543.6
_exptl_crystal_colour            blue
_exptl_crystal_description       Plate
_cell_formula_units_Z            4
loop_
_atom_site_label
_atom_site_type_symbol
_atom_site_fract_x
_atom_site_fract_y
_atom_site_fract_z
Cu1 Cu 0.0000 0.100735(10) 0.19256(3)
Cu2 Cu 0.0000 0.173286(11) 0.19163(3)
Cu3 Cu 0.229477(13) 0.273309(9) 0.377001(19)
Cu4 Cu 0.290773(13) 0.231443(9) 0.45306(2)
O1 O 0.21732(8) 0.19082(6) -0.11413(13)
O2 O 0.16708(7) 0.22625(5) -0.05042(14)
O3 O 0.04978(8) 0.10725(5) 0.11581(12)
O4 O 0.04926(8) 0.16792(6) 0.11284(12)
O5 O 0.04945(8) 0.10516(5) 0.26612(11)
O6 O 0.05024(7) 0.16699(5) 0.26420(11)
O7 O 0.24057(8) 0.19424(6) 0.44934(15)
O8 O 0.18998(7) 0.22798(6) 0.38234(14)
O9 O 0.20423(8) 0.28920(6) 0.46997(12)
O10 O 0.25618(8) 0.25470(7) 0.53346(11)
O11 O 0.18785(8) 0.28345(6) 0.85393(11)
O12 O 0.23933(8) 0.24698(6) 0.79184(11)
O13 O 0.0000 0.04343(8) 0.1834(3)
O14 O 0.0000 0.23178(7) 0.2011(2)
O15 O 0.17728(10) 0.30549(8) 0.32189(17)
O16 O 0.34111(9) 0.19697(9) 0.50525(16)
C1 C 0.06089(11) 0.13673(9) 0.08875(17)
C2 C 0.09233(12) 0.13572(8) 0.02343(17)
C3 C 0.09533(11) 0.10376(9) -0.01627(18)
H1 H 0.0775 0.0829 -0.0012
C4 C 0.12380(11) 0.10181(9) -0.07727(17)
C5 C 0.15159(12) 0.13266(9) -0.09851(18)
H2 H 0.1728 0.1311 -0.1391
C6 C 0.14784(11) 0.16459(8) -0.06048(17)
C7 C 0.11707(11) 0.16598(9) -0.00035(18)
H3 H 0.1131 0.1885 0.0248
C8 C 0.18043(12) 0.19612(9) -0.07764(17)
C9 C 0.12864(12) 0.06656(8) -0.1206(2)
C10 C 0.12703(11) 0.03329(8) -0.08413(17)
H4 H 0.1240 0.0334 -0.0327
C11 C 0.12960(16) 0.0000 -0.1198(3)
C12 C 0.13144(18) 0.0000 -0.1977(2)
C13 C 0.13554(14) 0.03434(9) -0.23285(19)
H5 H 0.1405 0.0352 -0.2839
C14 C 0.13245(13) 0.06610(9) -0.19464(19)
H6 H 0.1329 0.0887 -0.2202
C15 C 0.06525(11) 0.13639(8) 0.28568(17)
C16 C 0.10547(11) 0.13582(8) 0.34219(16)
C17 C 0.11754(10) 0.10346(8) 0.37811(18)
H7 H 0.0991 0.0820 0.3686
C18 C 0.15565(12) 0.10166(8) 0.42739(17)
C19 C 0.18145(12) 0.13324(9) 0.43926(19)
H8 H 0.2077 0.1327 0.4727
C20 C 0.17085(10) 0.16560(8) 0.40472(16)
C21 C 0.13211(11) 0.16684(8) 0.35579(16)
H9 H 0.1242 0.1891 0.3320
C22 C 0.20280(12) 0.19907(9) 0.41299(18)
C23 C 0.16817(11) 0.06627(9) 0.46469(18)
C24 C 0.18714(12) 0.06535(9) 0.53555(18)
H10 H 0.1933 0.0878 0.5597
C25 C 0.19699(13) 0.03340(9) 0.57093(18)
H11 H 0.2101 0.0340 0.6186
C26 C 0.18797(16) 0.0000 0.5375(3)
C27 C 0.16859(16) 0.0000 0.4651(2)
C28 C 0.16049(12) 0.03401(8) 0.43126(17)
H12 H 0.1491 0.0342 0.3826
C29 C 0.22164(13) 0.27744(9) 0.52723(18)
C30 C 0.19724(12) 0.28999(9) 0.59601(16)
C31 C 0.15896(12) 0.31404(9) 0.59258(16)
H13 H 0.1500 0.3243 0.5471
C32 C 0.13311(12) 0.32369(8) 0.65473(17)
C33 C 0.14899(11) 0.30924(9) 0.72163(17)
H14 H 0.1320 0.3157 0.7647
C34 C 0.18920(11) 0.28547(8) 0.72691(17)
C35 C 0.21320(12) 0.27617(7) 0.66345(19)
H15 H 0.2406 0.2604 0.6653
C36 C 0.20655(12) 0.27119(8) 0.79584(18)
C37 C 0.08807(12) 0.34496(9) 0.64944(18)
C38 C 0.04514(13) 0.33078(9) 0.66883(19)
H16 H 0.0450 0.3077 0.6924
C39 C 0.0000 0.34821(13) 0.6562(2)
C40 C 0.0000 0.38122(14) 0.6207(3)
C41 C 0.04544(16) 0.39596(11) 0.6014(2)
H17 H 0.0461 0.4191 0.5779
C42 C 0.08692(15) 0.37958(10) 0.6143(2)
H18 H 0.1164 0.3909 0.6000
O1C O 0.21732(8) -0.19082(6) -0.11413(13)
O2C O 0.16708(7) -0.22625(5) -0.05042(14)
O3C O 0.04978(8) -0.10725(5) 0.11581(12)
O4C O 0.04926(8) -0.16792(6) 0.11284(12)
C1C C 0.06089(11) -0.13673(9) 0.08875(17)
C2C C 0.09233(12) -0.13572(8) 0.02343(17)
C3C C 0.09533(11) -0.10376(9) -0.01627(18)
H1C H 0.0775 -0.0829 -0.0012
C4C C 0.12380(11) -0.10181(9) -0.07727(17)
C5C C 0.15159(12) -0.13266(9) -0.09851(18)
H2C H 0.1728 -0.1311 -0.1391
C6C C 0.14784(11) -0.16459(8) -0.06048(17)
C7C C 0.11707(11) -0.16598(9) -0.00035(18)
H3C H 0.1131 -0.1885 0.0248
C8C C 0.18043(12) -0.19612(9) -0.07764(17)
C9C C 0.12864(12) -0.06656(8) -0.1206(2)
C10C C 0.12703(11) -0.03329(8) -0.08413(17)
H4C H 0.1240 -0.0334 -0.0327
C13C C 0.13554(14) -0.03434(9) -0.23285(19)
H5C H 0.1405 -0.0352 -0.2839
C14C C 0.13245(13) -0.06610(9) -0.19464(19)
H6C H 0.1329 -0.0887 -0.2202
O5C O 0.04945(8) -0.10516(5) 0.26612(11)
O6C O 0.05024(7) -0.16699(5) 0.26420(11)
O7C O 0.24057(8) -0.19424(6) 0.44934(15)
O8C O 0.18998(7) -0.22798(6) 0.38234(14)
C15C C 0.06525(11) -0.13639(8) 0.28568(17)
C16C C 0.10547(11) -0.13582(8) 0.34219(16)
C17C C 0.11754(10) -0.10346(8) 0.37811(18)
H7C H 0.0991 -0.0820 0.3686
C18C C 0.15565(12) -0.10166(8) 0.42739(17)
C19C C 0.18145(12) -0.13324(9) 0.43926(19)
H8C H 0.2077 -0.1327 0.4727
C20C C 0.17085(10) -0.16560(8) 0.40472(16)
C21C C 0.13211(11) -0.16684(8) 0.35579(16)
H9C H 0.1242 -0.1891 0.3320
C22C C 0.20280(12) -0.19907(9) 0.41299(18)
C23C C 0.16817(11) -0.06627(9) 0.46469(18)
C24C C 0.18714(12) -0.06535(9) 0.53555(18)
H10C H 0.1933 -0.0878 0.5597
C25C C 0.19699(13) -0.03340(9) 0.57093(18)
H11C H 0.2101 -0.0340 0.6186
C28C C 0.16049(12) -0.03401(8) 0.43126(17)
H12C H 0.1491 -0.0342 0.3826
O9B O -0.20423(8) 0.28920(6) 0.46997(12)
O10B O -0.25618(8) 0.25470(7) 0.53346(11)
O11B O -0.18785(8) 0.28345(6) 0.85393(11)
O12B O -0.23933(8) 0.24698(6) 0.79184(11)
C29B C -0.22164(13) 0.27744(9) 0.52723(18)
C30B C -0.19724(12) 0.28999(9) 0.59601(16)
C31B C -0.15896(12) 0.31404(9) 0.59258(16)
H13B H -0.1500 0.3243 0.5471
C32B C -0.13311(12) 0.32369(8) 0.65473(17)
C33B C -0.14899(11) 0.30924(9) 0.72163(17)
H14B H -0.1320 0.3157 0.7647
C34B C -0.18920(11) 0.28547(8) 0.72691(17)
C35B C -0.21320(12) 0.27617(7) 0.66345(19)
H15B H -0.2406 0.2604 0.6653
C36B C -0.20655(12) 0.27119(8) 0.79584(18)
C37B C -0.08807(12) 0.34496(9) 0.64944(18)
C38B C -0.04514(13) 0.33078(9) 0.66883(19)
H16B H -0.0450 0.3077 0.6924
C41B C -0.04544(16) 0.39596(11) 0.6014(2)
H17B H -0.0461 0.4191 0.5779
C42B C -0.08692(15) 0.37958(10) 0.6143(2)
H18B H -0.1164 0.3909 0.6000
Cu3E Cu 0.270523(13) 0.226691(9) -0.122999(19)
O15E O 0.32272(10) 0.19451(8) -0.17811(17)
Cu4E Cu 0.209227(13) 0.268557(9) -0.04694(2)
O16E O 0.15889(9) 0.30303(9) 0.00525(16)
Cu1A Cu 0.0000 -0.100735(10) 0.19256(3)
Cu2A Cu 0.0000 -0.173286(11) 0.19163(3)
Cu3B Cu -0.229477(13) 0.273309(9) 0.377001(19)
Cu3C Cu 0.229477(13) -0.273309(9) 0.377001(19)
Cu3E_2 Cu 0.270523(13) 0.226691(9) 0.877001(19)
Cu3F Cu 0.270523(13) -0.226691(9) -0.122999(19)
Cu3G Cu -0.270523(13) 0.226691(9) 0.877001(19)
Cu4B Cu -0.290773(13) 0.231443(9) 0.45306(2)
Cu4C Cu 0.290773(13) -0.231443(9) 0.45306(2)
Cu4E_2 Cu 0.209227(13) 0.268557(9) 0.95306(2)
Cu4F Cu 0.209227(13) -0.268557(9) -0.04694(2)
Cu4G Cu -0.209227(13) 0.268557(9) 0.95306(2)
O1E O 0.28268(8) 0.30918(6) 0.38587(13)
O2E O 0.33292(7) 0.27375(5) 0.44958(14)
O3B O -0.04978(8) 0.10725(5) 0.11581(12)
O4B O -0.04926(8) 0.16792(6) 0.11284(12)
O5B O -0.04945(8) 0.10516(5) 0.26612(11)
O6B O -0.05024(7) 0.16699(5) 0.26420(11)
O7E O 0.25943(8) 0.30576(6) -0.05066(15)
O8E O 0.31002(7) 0.27202(6) -0.11766(14)
O9E O 0.29577(8) 0.21080(6) -0.03003(12)
O10E O 0.24382(8) 0.24530(7) 0.03346(11)
O11_2 O 0.18785(8) 0.28345(6) -0.14607(11)
O11E O 0.31215(8) 0.21655(6) 0.35393(11)
O12_2 O 0.23933(8) 0.24698(6) -0.20816(11)
O12E O 0.26067(8) 0.25302(6) 0.29184(11)
loop_
_geom_bond_atom_site_label_1
_geom_bond_atom_site_label_2
_geom_bond_site_symmetry_1
_geom_bond_site_symmetry_2
Cu1 O3 1_555 1_555
Cu2 O4 1_555 1_555
Cu3 O8 1_555 1_555
Cu4 O7 1_555 1_555
O1 C8 1_555 1_555
O2 C8 1_555 1_555
O3 C1 1_555 1_555
O4 C1 1_555 1_555
O5 Cu1 1_555 1_555
O6 Cu2 1_555 1_555
O7 C22 1_555 1_555
O8 C22 1_555 1_555
O9 Cu3 1_555 1_555
O10 Cu4 1_555 1_555
O11 C36 1_555 1_555
O12 C36 1_555 1_555
O13 Cu1 1_555 1_555
O14 Cu2 1_555 1_555
O15 Cu3 1_555 1_555
O16 Cu4 1_555 1_555
C1 C2 1_555 1_555
C2 C3 1_555 1_555
C3 H1 1_555 1_555
C4 C3 1_555 1_555
C5 C4 1_555 1_555
H2 C5 1_555 1_555
C6 C5 1_555 1_555
C7 C2 1_555 1_555
H3 C7 1_555 1_555
C8 C6 1_555 1_555
C9 C4 1_555 1_555
C10 C9 1_555 1_555
H4 C10 1_555 1_555
C11 C10 1_555 1_555
C12 C11 1_555 1_555
C13 C12 1_555 1_555
H5 C13 1_555 1_555
C14 C9 1_555 1_555
H6 C14 1_555 1_555
C15 O5 1_555 1_555
C16 C15 1_555 1_555
C17 C16 1_555 1_555
H7 C17 1_555 1_555
C18 C17 1_555 1_555
C19 C18 1_555 1_555
H8 C19 1_555 1_555
C20 C19 1_555 1_555
C21 C16 1_555 1_555
H9 C21 1_555 1_555
C22 C20 1_555 1_555
C23 C18 1_555 1_555
C24 C23 1_555 1_555
H10 C24 1_555 1_555
C25 C24 1_555 1_555
H11 C25 1_555 1_555
C26 C25 1_555 1_555
C27 C26 1_555 1_555
C28 C23 1_555 1_555
H12 C28 1_555 1_555
C29 O9 1_555 1_555
C30 C29 1_555 1_555
C31 C30 1_555 1_555
H13 C31 1_555 1_555
C32 C31 1_555 1_555
C33 C32 1_555 1_555
H14 C33 1_555 1_555
C34 C33 1_555 1_555
C35 C30 1_555 1_555
H15 C35 1_555 1_555
C36 C34 1_555 1_555
C37 C32 1_555 1_555
C38 C37 1_555 1_555
H16 C38 1_555 1_555
C39 C38 1_555 1_555
C40 C39 1_555 1_555
C41 C40 1_555 1_555
H17 C41 1_555 1_555
C42 C37 1_555 1_555
H18 C42 1_555 1_555
O1C C8C 1_555 1_555
O2C C8C 1_555 1_555
O3C C1C 1_555 1_555
O4C C1C 1_555 1_555
C1C C2C 1_555 1_555
C2C C3C 1_555 1_555
C3C H1C 1_555 1_555
C4C C3C 1_555 1_555
C5C C4C 1_555 1_555
H2C C5C 1_555 1_555
C6C C5C 1_555 1_555
C7C C2C 1_555 1_555
H3C C7C 1_555 1_555
C8C C6C 1_555 1_555
C9C C4C 1_555 1_555
C10C C11 1_555 1_555
H4C C10C 1_555 1_555
C13C C12 1_555 1_555
H5C C13C 1_555 1_555
C14C C9C 1_555 1_555
H6C C14C 1_555 1_555
O5C C15C 1_555 1_555
O6C C15C 1_555 1_555
O7C C22C 1_555 1_555
O8C C22C 1_555 1_555
C15C C16C 1_555 1_555
C16C C17C 1_555 1_555
C17C H7C 1_555 1_555
C18C C17C 1_555 1_555
C19C C18C 1_555 1_555
H8C C19C 1_555 1_555
C20C C19C 1_555 1_555
C21C C16C 1_555 1_555
H9C C21C 1_555 1_555
C22C C20C 1_555 1_555
C23C C18C 1_555 1_555
C24C C23C 1_555 1_555
H10C C24C 1_555 1_555
C25C C26 1_555 1_555
H11C C25C 1_555 1_555
C28C C27 1_555 1_555
H12C C28C 1_555 1_555
O9B C29B 1_555 1_555
O10B C29B 1_555 1_555
O11B C36B 1_555 1_555
O12B C36B 1_555 1_555
C29B C30B 1_555 1_555
C30B C31B 1_555 1_555
C31B H13B 1_555 1_555
C32B C31B 1_555 1_555
C33B C32B 1_555 1_555
H14B C33B 1_555 1_555
C34B C33B 1_555 1_555
C35B C30B 1_555 1_555
H15B C35B 1_555 1_555
C36B C34B 1_555 1_555
C37B C32B 1_555 1_555
C38B C39 1_555 1_555
H16B C38B 1_555 1_555
C41B C40 1_555 1_555
H17B C41B 1_555 1_555
C42B C37B 1_555 1_555
H18B C42B 1_555 1_555
Cu3E O1 1_555 1_555
O15E Cu3E 1_555 1_555
Cu4E O2 1_555 1_555
O16E Cu4E 1_555 1_555
Cu1A O3C 1_555 1_555
Cu2A O4C 1_555 1_555
Cu3B O9B 1_555 1_555
Cu3C O8C 1_555 1_555
Cu3E_2 O12 1_555 1_555
Cu3F O1C 1_555 1_555
Cu3G O12B 1_555 1_555
Cu4B O10B 1_555 1_555
Cu4C O7C 1_555 1_555
Cu4E_2 O11 1_555 1_555
Cu4F O2C 1_555 1_555
Cu4G O11B 1_555 1_555
O1E Cu3 1_555 1_555
O2E Cu4 1_555 1_555
O3B Cu1 1_555 1_555
O4B Cu2 1_555 1_555
O5B Cu1 1_555 1_555
O6B Cu2 1_555 1_555
O7E Cu4E 1_555 1_555
O8E Cu3E 1_555 1_555
O9E Cu3E 1_555 1_555
O10E Cu4E 1_555 1_555
O11_2 Cu4E 1_555 1_555
O11E Cu4 1_555 1_555
O12_2 Cu3E 1_555 1_555
O12E Cu3 1_555 1_555
O6 C15 1_555 1_555
O10 C29 1_555 1_555
C6 C7 1_555 1_555
C13 C14 1_555 1_555
C20 C21 1_555 1_555
C27 C28 1_555 1_555
C34 C35 1_555 1_555
C41 C42 1_555 1_555
C6C C7C 1_555 1_555
C9C C10C 1_555 1_555
C13C C14C 1_555 1_555
O5C Cu1A 1_555 1_555
O6C Cu2A 1_555 1_555
C20C C21C 1_555 1_555
C23C C28C 1_555 1_555
C24C C25C 1_555 1_555
C34B C35B 1_555 1_555
C37B C38B 1_555 1_555
C41B C42B 1_555 1_555

#END
