
#######################################################################
#
#                 Cambridge Crystallographic Data Centre
#                                CCDC 
#
#######################################################################
#
# If this CIF has been generated from an entry in the Cambridge 
# Structural Database, then it will include bibliographic, chemical, 
# crystal, experimental, refinement or atomic coordinate data resulting 
# from the CCDC's data processing and validation procedures.
#
#######################################################################

data_NIGDUE
_chemical_formula_moiety         'C104 H84 Cu4 N12 O20'
_chemical_name_systematic        
tetrakis(\m~4~-3,3'-(1,8-Naphthyridine-2,7-diyl)dibenzoato)-tetrakis(dimethylacetamide)-tetra-copper
_symmetry_cell_setting           triclinic
_symmetry_space_group_name_H-M   'P -1'
_symmetry_Int_Tables_number      2
_space_group_name_Hall           '-P 1'
loop_
_symmetry_equiv_pos_site_id
_symmetry_equiv_pos_as_xyz
1 x,y,z
2 -x,-y,-z
_cell_length_a                   14.002(7)
_cell_length_b                   15.539(8)
_cell_length_c                   15.764(8)
_cell_angle_alpha                96.616(7)
_cell_angle_beta                 110.783(7)
_cell_angle_gamma                105.072(7)
_cell_volume                     3013.51
_exptl_crystal_colour            blue
_exptl_crystal_description       Block
_cell_formula_units_Z            1
loop_
_atom_site_label
_atom_site_type_symbol
_atom_site_fract_x
_atom_site_fract_y
_atom_site_fract_z
Cu1 Cu 0.219454(16) 0.332056(15) 0.302232(15)
Cu2 Cu 0.126859(15) 0.401868(15) 0.164333(14)
O1 O 0.21276(9) 0.23593(8) 0.20564(8)
O2 O 0.10470(9) 0.28260(8) 0.08961(8)
O3 O -0.21239(9) 0.55966(9) -0.37452(8)
O4 O -0.16170(9) 0.48824(8) -0.25837(8)
O5 O -0.06967(9) 0.73564(8) -0.27906(8)
O6 O 0.00682(8) 0.65542(8) -0.18063(8)
O7 O 0.35606(9) 0.40669(9) 0.30364(8)
O8 O 0.27501(8) 0.44706(8) 0.17089(8)
O9 O 0.28959(9) 0.28178(9) 0.42217(8)
O10 O 0.06892(9) 0.45075(8) 0.04626(7)
N1 N -0.05465(12) 0.10947(11) -0.23062(11)
N2 N -0.14525(11) 0.17389(11) -0.34584(11)
N3 N 0.40285(11) 0.71021(10) -0.07440(10)
N4 N 0.48699(10) 0.63777(10) 0.03421(9)
N5 N 0.41395(13) 0.25944(14) 0.54344(12)
C1 C 0.15111(13) 0.22649(12) 0.12088(12)
C2 C 0.13370(13) 0.14470(13) 0.05332(13)
C3 C 0.18262(15) 0.07929(13) 0.08050(15)
H1 H 0.2282 0.0871 0.1440
C4 C 0.16488(16) 0.00274(14) 0.01498(14)
H2 H 0.2004 -0.0406 0.0333
C5 C 0.09771(15) -0.01017(13) -0.07410(14)
H3 H 0.0853 -0.0638 -0.1176
C6 C 0.04496(13) 0.05270(13) -0.10544(13)
C7 C 0.06617(13) 0.13071(13) -0.04094(12)
H4 H 0.0344 0.1759 -0.0608
C8 C -0.03190(14) 0.03650(13) -0.20352(14)
C9 C -0.07985(15) -0.05151(14) -0.26213(14)
H5 H -0.0626 -0.1020 -0.2396
C10 C -0.14958(15) -0.06397(14) -0.34940(15)
H6 H -0.1820 -0.1236 -0.3891
C11 C -0.17574(15) 0.01067(14) -0.38342(15)
C12 C -0.12452(14) 0.09786(13) -0.31997(13)
C13 C -0.24750(16) 0.00657(16) -0.47333(15)
H7 H -0.2828 -0.0503 -0.5180
C14 C -0.26663(15) 0.08305(14) -0.49672(15)
H8 H -0.3166 0.0800 -0.5573
C15 C -0.21245(14) 0.16736(14) -0.43106(13)
C16 C -0.22767(14) 0.25233(14) -0.45724(14)
C17 C -0.26493(15) 0.25740(15) -0.54973(14)
H9 H -0.2814 0.2050 -0.5965
C18 C -0.27883(15) 0.33657(15) -0.57608(14)
H10 H -0.3027 0.3393 -0.6398
C19 C -0.25735(14) 0.41136(14) -0.50816(13)
H11 H -0.2697 0.4653 -0.5256
C20 C -0.21779(13) 0.40920(13) -0.41446(12)
C21 C -0.20163(14) 0.33039(13) -0.38816(13)
H12 H -0.1732 0.3291 -0.3241
C22 C -0.19518(12) 0.49147(12) -0.34271(12)
C23 C 0.01039(13) 0.71493(12) -0.22799(12)
C24 C 0.11739(13) 0.76574(12) -0.22580(12)
C25 C 0.12931(13) 0.83898(12) -0.26946(11)
H13 H 0.0681 0.8563 -0.3012
C26 C 0.22718(13) 0.88570(12) -0.26709(12)
H14 H 0.2342 0.9368 -0.2949
C27 C 0.31627(14) 0.85985(12) -0.22488(12)
H15 H 0.3842 0.8931 -0.2237
C28 C 0.30731(13) 0.78540(12) -0.18401(12)
C29 C 0.20830(13) 0.74045(12) -0.18221(12)
H16 H 0.2025 0.6919 -0.1509
C30 C 0.40209(13) 0.75475(12) -0.14147(12)
C31 C 0.48401(13) 0.77025(13) -0.17508(13)
H17 H 0.4787 0.8007 -0.2247
C32 C 0.57004(13) 0.74229(13) -0.13750(12)
H18 H 0.6250 0.7518 -0.1608
C33 C 0.57698(13) 0.69882(13) -0.06310(12)
C34 C 0.48977(13) 0.68259(12) -0.03501(13)
C35 C 0.66252(13) 0.66738(12) -0.01762(12)
H19 H 0.7221 0.6766 -0.0351
C36 C 0.65952(13) 0.62376(13) 0.05136(13)
H20 H 0.7170 0.6019 0.0823
C37 C 0.57050(13) 0.61074(12) 0.07747(12)
C38 C 0.56657(13) 0.56476(12) 0.15329(12)
C39 C 0.65692(14) 0.55284(14) 0.21692(13)
H21 H 0.7243 0.5751 0.2121
C40 C 0.65143(15) 0.50964(15) 0.28667(14)
H22 H 0.7153 0.5035 0.3300
C41 C 0.55622(14) 0.47524(14) 0.29528(13)
H23 H 0.5530 0.4441 0.3432
C42 C 0.46405(12) 0.48660(12) 0.23270(12)
C43 C 0.46999(13) 0.53131(12) 0.16338(12)
H24 H 0.4066 0.5395 0.1215
C44 C 0.35708(13) 0.44511(12) 0.23711(12)
C45 C 0.43488(17) 0.25023(18) 0.39508(16)
H25 H 0.3924 0.2504 0.3306
H26 H 0.4459 0.1907 0.3974
H27 H 0.5051 0.2985 0.4183
C46 C 0.37433(16) 0.26760(15) 0.45589(15)
C47 C 0.5164(2) 0.2466(2) 0.5894(2)
H28 H 0.5362 0.2169 0.5429
H29 H 0.5110 0.2078 0.6335
H30 H 0.5716 0.3061 0.6231
C48 C 0.35885(15) 0.27243(14) 0.60148(13)
H31 H 0.3223 0.3174 0.5834
H32 H 0.4108 0.2948 0.6666
H33 H 0.3054 0.2141 0.5945
C49 C -0.01904(15) 0.34648(14) -0.11359(13)
H34 H -0.0345 0.3458 -0.0577
H35 H 0.0000 0.2920 -0.1286
H36 H -0.0830 0.3466 -0.1660
N6 N 0.0756(2) 0.43266(18) -0.09568(17)
C50 C 0.1070(2) 0.4779(2) -0.0096(2)
C51 C 0.10063(15) 0.47238(15) -0.16789(12)
H37 H 0.0493 0.5041 -0.1955
H38 H 0.0952 0.4236 -0.2164
H39 H 0.1742 0.5161 -0.1403
C52 C 0.1928(3) 0.5719(3) 0.0208(5)
H40 H 0.1645 0.6123 -0.0174
H41 H 0.2571 0.5657 0.0126
H42 H 0.2120 0.5980 0.0865
Cu1A Cu -0.219454(16) 0.667944(15) -0.302232(15)
Cu2A Cu -0.126859(15) 0.598132(15) -0.164333(14)
O1A O -0.21276(9) 0.76407(8) -0.20564(8)
O2A O -0.10470(9) 0.71740(8) -0.08961(8)
O3A O 0.21239(9) 0.44034(9) 0.37452(8)
O4A O 0.16170(9) 0.51176(8) 0.25837(8)
O5A O 0.06967(9) 0.26436(8) 0.27906(8)
O6A O -0.00682(8) 0.34458(8) 0.18063(8)
O7A O -0.35606(9) 0.59331(9) -0.30364(8)
O8A O -0.27501(8) 0.55294(8) -0.17089(8)
O9A O -0.28959(9) 0.71822(9) -0.42217(8)
O10A O -0.06892(9) 0.54925(8) -0.04626(7)
N1A N 0.05465(12) 0.89053(11) 0.23062(11)
N2A N 0.14525(11) 0.82611(11) 0.34584(11)
N3A N -0.40285(11) 0.28979(10) 0.07440(10)
N4A N -0.48699(10) 0.36223(10) -0.03421(9)
N5A N -0.41395(13) 0.74056(14) -0.54344(12)
C1A C -0.15111(13) 0.77351(12) -0.12088(12)
C2A C -0.13370(13) 0.85530(13) -0.05332(13)
C3A C -0.18262(15) 0.92071(13) -0.08050(15)
H1A H -0.2282 0.9129 -0.1440
C4A C -0.16488(16) 0.99726(14) -0.01498(14)
H2A H -0.2004 1.0406 -0.0333
C5A C -0.09771(15) 1.01017(13) 0.07410(14)
H3A H -0.0853 1.0638 0.1176
C6A C -0.04496(13) 0.94730(13) 0.10544(13)
C7A C -0.06617(13) 0.86929(13) 0.04094(12)
H4A H -0.0344 0.8241 0.0608
C8A C 0.03190(14) 0.96350(13) 0.20352(14)
C9A C 0.07985(15) 1.05151(14) 0.26213(14)
H5A H 0.0626 1.1020 0.2396
C10A C 0.14958(15) 1.06397(14) 0.34940(15)
H6A H 0.1820 1.1236 0.3891
C11A C 0.17574(15) 0.98933(14) 0.38342(15)
C12A C 0.12452(14) 0.90214(13) 0.31997(13)
C13A C 0.24750(16) 0.99343(16) 0.47333(15)
H7A H 0.2828 1.0503 0.5180
C14A C 0.26663(15) 0.91695(14) 0.49672(15)
H8A H 0.3166 0.9200 0.5573
C15A C 0.21245(14) 0.83264(14) 0.43106(13)
C16A C 0.22767(14) 0.74767(14) 0.45724(14)
C17A C 0.26493(15) 0.74260(15) 0.54973(14)
H9A H 0.2814 0.7950 0.5965
C18A C 0.27883(15) 0.66343(15) 0.57608(14)
H10A H 0.3027 0.6607 0.6398
C19A C 0.25735(14) 0.58864(14) 0.50816(13)
H11A H 0.2697 0.5347 0.5256
C20A C 0.21779(13) 0.59080(13) 0.41446(12)
C21A C 0.20163(14) 0.66961(13) 0.38816(13)
H12A H 0.1732 0.6709 0.3241
C22A C 0.19518(12) 0.50853(12) 0.34271(12)
C23A C -0.01039(13) 0.28507(12) 0.22799(12)
C24A C -0.11739(13) 0.23426(12) 0.22580(12)
C25A C -0.12931(13) 0.16102(12) 0.26946(11)
H13A H -0.0681 0.1437 0.3012
C26A C -0.22718(13) 0.11430(12) 0.26709(12)
H14A H -0.2342 0.0632 0.2949
C27A C -0.31627(14) 0.14015(12) 0.22488(12)
H15A H -0.3842 0.1069 0.2237
C28A C -0.30731(13) 0.21460(12) 0.18401(12)
C29A C -0.20830(13) 0.25955(12) 0.18221(12)
H16A H -0.2025 0.3081 0.1509
C30A C -0.40209(13) 0.24525(12) 0.14147(12)
C31A C -0.48401(13) 0.22975(13) 0.17508(13)
H17A H -0.4787 0.1993 0.2247
C32A C -0.57004(13) 0.25771(13) 0.13750(12)
H18A H -0.6250 0.2482 0.1608
C33A C -0.57698(13) 0.30118(13) 0.06310(12)
C34A C -0.48977(13) 0.31741(12) 0.03501(13)
C35A C -0.66252(13) 0.33262(12) 0.01762(12)
H19A H -0.7221 0.3234 0.0351
C36A C -0.65952(13) 0.37624(13) -0.05136(13)
H20A H -0.7170 0.3981 -0.0823
C37A C -0.57050(13) 0.38926(12) -0.07747(12)
C38A C -0.56657(13) 0.43524(12) -0.15329(12)
C39A C -0.65692(14) 0.44716(14) -0.21692(13)
H21A H -0.7243 0.4249 -0.2121
C40A C -0.65143(15) 0.49036(15) -0.28667(14)
H22A H -0.7153 0.4965 -0.3300
C41A C -0.55622(14) 0.52476(14) -0.29528(13)
H23A H -0.5530 0.5559 -0.3432
C42A C -0.46405(12) 0.51340(12) -0.23270(12)
C43A C -0.46999(13) 0.46869(12) -0.16338(12)
H24A H -0.4066 0.4605 -0.1215
C44A C -0.35708(13) 0.55489(12) -0.23711(12)
C45A C -0.43488(17) 0.74977(18) -0.39508(16)
H25A H -0.3924 0.7496 -0.3306
H26A H -0.4459 0.8093 -0.3974
H27A H -0.5051 0.7015 -0.4183
C46A C -0.37433(16) 0.73240(15) -0.45589(15)
C47A C -0.5164(2) 0.7534(2) -0.5894(2)
H28A H -0.5362 0.7831 -0.5429
H29A H -0.5110 0.7922 -0.6335
H30A H -0.5716 0.6939 -0.6231
C48A C -0.35885(15) 0.72757(14) -0.60148(13)
H31A H -0.3223 0.6826 -0.5834
H32A H -0.4108 0.7052 -0.6666
H33A H -0.3054 0.7859 -0.5945
C49A C 0.01904(15) 0.65352(14) 0.11359(13)
H34A H 0.0345 0.6542 0.0577
H35A H 0.0000 0.7080 0.1286
H36A H 0.0830 0.6534 0.1660
N6A N -0.0756(2) 0.56734(18) 0.09568(17)
C50A C -0.1070(2) 0.5221(2) 0.0096(2)
C51A C -0.10063(15) 0.52762(15) 0.16789(12)
H37A H -0.0493 0.4959 0.1955
H38A H -0.0952 0.5764 0.2164
H39A H -0.1742 0.4839 0.1403
C52A C -0.1928(3) 0.4281(3) -0.0208(5)
H40A H -0.1645 0.3877 0.0174
H41A H -0.2571 0.4343 -0.0126
H42A H -0.2120 0.4020 -0.0865
N7? N 0.12316(19) 0.48675(17) -0.06753(16)
C53? C 0.0604(2) 0.4321(2) -0.03464(18)
C54? C -0.0190(6) 0.3463(4) -0.1116(5)
H43? H -0.0221 0.2919 -0.0854
H44? H 0.0058 0.3398 -0.1621
H45? H -0.0910 0.3527 -0.1361
C55? C 0.2013(3) 0.5741(2) 0.0020(3)
H46? H 0.1634 0.6184 0.0052
H47? H 0.2597 0.5996 -0.0176
H48? H 0.2317 0.5611 0.0635
loop_
_geom_bond_atom_site_label_1
_geom_bond_atom_site_label_2
_geom_bond_site_symmetry_1
_geom_bond_site_symmetry_2
Cu1 O1 1_555 1_555
Cu2 O2 1_555 1_555
O1 C1 1_555 1_555
O2 C1 1_555 1_555
O3 C22 1_555 1_555
O4 C22 1_555 1_555
O5 C23 1_555 1_555
O6 C23 1_555 1_555
O7 Cu1 1_555 1_555
O8 Cu2 1_555 1_555
O9 Cu1 1_555 1_555
O10 Cu2 1_555 1_555
N1 C8 1_555 1_555
N2 C12 1_555 1_555
N3 C30 1_555 1_555
N4 C34 1_555 1_555
N5 C46 1_555 1_555
C1 C2 1_555 1_555
C2 C3 1_555 1_555
C3 H1 1_555 1_555
C4 C3 1_555 1_555
H2 C4 1_555 1_555
C5 C4 1_555 1_555
H3 C5 1_555 1_555
C6 C5 1_555 1_555
C7 C2 1_555 1_555
H4 C7 1_555 1_555
C8 C6 1_555 1_555
C9 C8 1_555 1_555
H5 C9 1_555 1_555
C10 C9 1_555 1_555
H6 C10 1_555 1_555
C11 C10 1_555 1_555
C12 N1 1_555 1_555
C13 C11 1_555 1_555
H7 C13 1_555 1_555
C14 C13 1_555 1_555
H8 C14 1_555 1_555
C15 N2 1_555 1_555
C16 C15 1_555 1_555
C17 C16 1_555 1_555
H9 C17 1_555 1_555
C18 C17 1_555 1_555
H10 C18 1_555 1_555
C19 C18 1_555 1_555
H11 C19 1_555 1_555
C20 C19 1_555 1_555
C21 C16 1_555 1_555
H12 C21 1_555 1_555
C22 C20 1_555 1_555
C23 C24 1_555 1_555
C24 C25 1_555 1_555
C25 H13 1_555 1_555
C26 C25 1_555 1_555
H14 C26 1_555 1_555
C27 C26 1_555 1_555
H15 C27 1_555 1_555
C28 C27 1_555 1_555
C29 C24 1_555 1_555
H16 C29 1_555 1_555
C30 C28 1_555 1_555
C31 C30 1_555 1_555
H17 C31 1_555 1_555
C32 C31 1_555 1_555
H18 C32 1_555 1_555
C33 C32 1_555 1_555
C34 N3 1_555 1_555
C35 C33 1_555 1_555
H19 C35 1_555 1_555
C36 C35 1_555 1_555
H20 C36 1_555 1_555
C37 N4 1_555 1_555
C38 C37 1_555 1_555
C39 C38 1_555 1_555
H21 C39 1_555 1_555
C40 C39 1_555 1_555
H22 C40 1_555 1_555
C41 C40 1_555 1_555
H23 C41 1_555 1_555
C42 C41 1_555 1_555
C43 C38 1_555 1_555
H24 C43 1_555 1_555
C44 O7 1_555 1_555
C45 H25 1_555 1_555
H26 C45 1_555 1_555
H27 C45 1_555 1_555
C46 O9 1_555 1_555
C47 N5 1_555 1_555
H28 C47 1_555 1_555
H29 C47 1_555 1_555
H30 C47 1_555 1_555
C48 N5 1_555 1_555
H31 C48 1_555 1_555
H32 C48 1_555 1_555
H33 C48 1_555 1_555
C49 H34 1_555 1_555
H35 C49 1_555 1_555
H36 C49 1_555 1_555
N6 C49 1_555 1_555
C50 O10 1_555 1_555
C51 N6 1_555 1_555
H37 C51 1_555 1_555
H38 C51 1_555 1_555
H39 C51 1_555 1_555
C52 C50 1_555 1_555
H40 C52 1_555 1_555
H41 C52 1_555 1_555
H42 C52 1_555 1_555
Cu1A O3 1_555 1_555
Cu2A O4 1_555 1_555
O1A Cu1A 1_555 1_555
O2A Cu2A 1_555 1_555
O3A Cu1 1_555 1_555
O4A Cu2 1_555 1_555
O5A Cu1 1_555 1_555
O6A Cu2 1_555 1_555
O7A Cu1A 1_555 1_555
O8A Cu2A 1_555 1_555
O9A Cu1A 1_555 1_555
O10A Cu2A 1_555 1_555
N1A C8A 1_555 1_555
N2A C12A 1_555 1_555
N3A C30A 1_555 1_555
N4A C34A 1_555 1_555
N5A C46A 1_555 1_555
C1A O1A 1_555 1_555
C2A C1A 1_555 1_555
C3A C2A 1_555 1_555
H1A C3A 1_555 1_555
C4A C3A 1_555 1_555
H2A C4A 1_555 1_555
C5A C4A 1_555 1_555
H3A C5A 1_555 1_555
C6A C5A 1_555 1_555
C7A C2A 1_555 1_555
H4A C7A 1_555 1_555
C8A C6A 1_555 1_555
C9A C8A 1_555 1_555
H5A C9A 1_555 1_555
C10A C9A 1_555 1_555
H6A C10A 1_555 1_555
C11A C10A 1_555 1_555
C12A N1A 1_555 1_555
C13A C11A 1_555 1_555
H7A C13A 1_555 1_555
C14A C13A 1_555 1_555
H8A C14A 1_555 1_555
C15A N2A 1_555 1_555
C16A C15A 1_555 1_555
C17A C16A 1_555 1_555
H9A C17A 1_555 1_555
C18A C17A 1_555 1_555
H10A C18A 1_555 1_555
C19A C18A 1_555 1_555
H11A C19A 1_555 1_555
C20A C19A 1_555 1_555
C21A C16A 1_555 1_555
H12A C21A 1_555 1_555
C22A O3A 1_555 1_555
C23A O5A 1_555 1_555
C24A C23A 1_555 1_555
C25A C24A 1_555 1_555
H13A C25A 1_555 1_555
C26A C25A 1_555 1_555
H14A C26A 1_555 1_555
C27A C26A 1_555 1_555
H15A C27A 1_555 1_555
C28A C27A 1_555 1_555
C29A C24A 1_555 1_555
H16A C29A 1_555 1_555
C30A C28A 1_555 1_555
C31A C30A 1_555 1_555
H17A C31A 1_555 1_555
C32A C31A 1_555 1_555
H18A C32A 1_555 1_555
C33A C32A 1_555 1_555
C34A N3A 1_555 1_555
C35A C33A 1_555 1_555
H19A C35A 1_555 1_555
C36A C35A 1_555 1_555
H20A C36A 1_555 1_555
C37A N4A 1_555 1_555
C38A C37A 1_555 1_555
C39A C38A 1_555 1_555
H21A C39A 1_555 1_555
C40A C39A 1_555 1_555
H22A C40A 1_555 1_555
C41A C40A 1_555 1_555
H23A C41A 1_555 1_555
C42A C41A 1_555 1_555
C43A C38A 1_555 1_555
H24A C43A 1_555 1_555
C44A O7A 1_555 1_555
C45A H25A 1_555 1_555
H26A C45A 1_555 1_555
H27A C45A 1_555 1_555
C46A O9A 1_555 1_555
C47A N5A 1_555 1_555
H28A C47A 1_555 1_555
H29A C47A 1_555 1_555
H30A C47A 1_555 1_555
C48A N5A 1_555 1_555
H31A C48A 1_555 1_555
H32A C48A 1_555 1_555
H33A C48A 1_555 1_555
C49A H34A 1_555 1_555
H35A C49A 1_555 1_555
H36A C49A 1_555 1_555
N6A C49A 1_555 1_555
C50A O10A 1_555 1_555
C51A N6A 1_555 1_555
H37A C51A 1_555 1_555
H38A C51A 1_555 1_555
H39A C51A 1_555 1_555
C52A C50A 1_555 1_555
H40A C52A 1_555 1_555
H41A C52A 1_555 1_555
H42A C52A 1_555 1_555
O5 Cu1A 1_555 1_555
O6 Cu2A 1_555 1_555
O8 C44 1_555 1_555
C6 C7 1_555 1_555
C11 C12 1_555 1_555
C14 C15 1_555 1_555
C20 C21 1_555 1_555
C28 C29 1_555 1_555
C33 C34 1_555 1_555
C36 C37 1_555 1_555
C42 C43 1_555 1_555
C42 C44 1_555 1_555
C45 C46 1_555 1_555
N6 C50 1_555 1_555
O2A C1A 1_555 1_555
O4A C22A 1_555 1_555
O6A C23A 1_555 1_555
O8A C44A 1_555 1_555
C6A C7A 1_555 1_555
C11A C12A 1_555 1_555
C14A C15A 1_555 1_555
C20A C21A 1_555 1_555
C20A C22A 1_555 1_555
C28A C29A 1_555 1_555
C33A C34A 1_555 1_555
C36A C37A 1_555 1_555
C42A C43A 1_555 1_555
C42A C44A 1_555 1_555
C45A C46A 1_555 1_555
N6A C50A 1_555 1_555

#END
