
#######################################################################
#
#                 Cambridge Crystallographic Data Centre
#                                CCDC 
#
#######################################################################
#
# If this CIF has been generated from an entry in the Cambridge 
# Structural Database, then it will include bibliographic, chemical, 
# crystal, experimental, refinement or atomic coordinate data resulting 
# from the CCDC's data processing and validation procedures.
#
#######################################################################

data_NIHLAS
_chemical_formula_moiety         'C36 H42 Cl2 N2 O4 Pd1'
_chemical_name_systematic        
dichloro-(3,16,22,33-tetraoxa-41,42-diazapentacyclo[32.2.2.2^18,21^.1^5,9^.1^10,14^]dotetraconta-1(36),5(42),6,8,10(41),11,13,18,20,34,37,39-dodecaene)-palladium(ii)
_symmetry_cell_setting           monoclinic
_symmetry_space_group_name_H-M   'P 21/c'
_symmetry_Int_Tables_number      14
_space_group_name_Hall           '-P 2ybc'
loop_
_symmetry_equiv_pos_site_id
_symmetry_equiv_pos_as_xyz
1 x,y,z
2 -x,1/2+y,1/2-z
3 -x,-y,-z
4 x,1/2-y,1/2+z
_cell_length_a                   15.7455(9)
_cell_length_b                   21.3155(12)
_cell_length_c                   10.3932(6)
_cell_angle_alpha                90
_cell_angle_beta                 102.575(3)
_cell_angle_gamma                90
_cell_volume                     3404.52
_exptl_crystal_colour            yellow
_exptl_crystal_description       prism
_chemical_melting_point          '186-190 deg.C'
_cell_formula_units_Z            4
_exptl_crystal_recrystallization_method acetonitrile
loop_
_atom_site_label
_atom_site_type_symbol
_atom_site_fract_x
_atom_site_fract_y
_atom_site_fract_z
Pd1 Pd 0.516863(14) 0.117127(9) 0.847177(19)
Cl1 Cl 0.48182(5) 0.08460(3) 0.63059(6)
Cl2 Cl 0.39418(4) 0.17812(3) 0.79801(6)
C1 C 0.8231(2) 0.07572(16) 0.7829(3)
H1 H 0.8263 0.0696 0.8783
H2 H 0.8035 0.1192 0.7592
O1 O 0.76368(14) 0.03174(10) 0.7077(2)
C2 C 0.6766(2) 0.04166(15) 0.7205(3)
H3 H 0.6363 0.0193 0.6487
H4 H 0.6629 0.0870 0.7116
C3 C 0.66321(19) 0.01838(14) 0.8530(3)
N1 N 0.61104(15) 0.05095(11) 0.9154(2)
C4 C 0.60478(18) 0.03268(13) 1.0399(3)
C5 C 0.64708(19) -0.02019(14) 1.0997(3)
H5 H 0.6415 -0.0323 1.1854
C6 C 0.6980(2) -0.05529(15) 1.0320(3)
H6 H 0.7261 -0.0925 1.0695
C7 C 0.7070(2) -0.03498(15) 0.9096(3)
H7 H 0.7432 -0.0575 0.8637
C8 C 0.55668(18) 0.07629(13) 1.1088(3)
N2 N 0.53650(15) 0.13245(11) 1.0456(2)
C9 C 0.50947(17) 0.18059(13) 1.1107(3)
C10 C 0.4879(2) 0.17099(14) 1.2319(3)
H8 H 0.4658 0.2046 1.2749
C11 C 0.4987(2) 0.11213(15) 1.2898(3)
H9 H 0.4800 0.1043 1.3692
C12 C 0.5371(2) 0.06481(14) 1.2305(3)
H10 H 0.5499 0.0253 1.2725
C13 C 0.50728(19) 0.24629(13) 1.0537(3)
H11 H 0.4487 0.2543 0.9984
H12 H 0.5174 0.2771 1.1268
O2 O 0.57055(12) 0.25565(9) 0.97633(18)
C14 C 0.65699(19) 0.26182(15) 1.0561(3)
H13 H 0.6764 0.2214 1.0994
H14 H 0.6578 0.2938 1.1254
C15 C 0.71694(19) 0.28128(15) 0.9676(3)
C16 C 0.7196(2) 0.34344(15) 0.9264(3)
H15 H 0.6832 0.3737 0.9545
C17 C 0.7746(2) 0.36198(15) 0.8449(3)
H16 H 0.7750 0.4045 0.8174
C18 C 0.82911(18) 0.31811(14) 0.8037(3)
C19 C 0.82703(19) 0.25560(15) 0.8436(3)
H17 H 0.8636 0.2253 0.8161
C20 C 0.77054(19) 0.23804(15) 0.9246(3)
H18 H 0.7689 0.1954 0.9506
O3 O 0.88095(14) 0.34071(10) 0.7245(2)
C21 C 0.9425(2) 0.29820(15) 0.6882(3)
H19 H 0.9116 0.2628 0.6367
H20 H 0.9816 0.2811 0.7682
C22 C 0.9950(2) 0.33387(15) 0.6060(3)
H21 H 1.0289 0.3673 0.6603
H22 H 0.9550 0.3541 0.5307
C23 C 1.0571(2) 0.29033(15) 0.5540(3)
H23 H 1.0962 0.2698 0.6297
H24 H 1.0227 0.2571 0.4999
C24 C 1.1126(2) 0.32372(16) 0.4709(3)
H25 H 1.1520 0.3536 0.5277
H26 H 1.0739 0.3482 0.4009
C25 C 1.1672(2) 0.27869(16) 0.4068(3)
H27 H 1.1286 0.2450 0.3616
H28 H 1.1894 0.3020 0.3386
C26 C 1.24431(19) 0.24825(15) 0.5008(3)
H29 H 1.2255 0.2342 0.5810
H30 H 1.2906 0.2800 0.5279
C27 C 1.2821(2) 0.19201(15) 0.4398(3)
H31 H 1.3392 0.1813 0.4967
H32 H 1.2924 0.2048 0.3529
C28 C 1.2252(2) 0.13272(15) 0.4208(3)
H33 H 1.1684 0.1427 0.3621
H34 H 1.2537 0.1002 0.3768
C29 C 1.2096(2) 0.10619(15) 0.5504(3)
H35 H 1.2658 0.1027 0.6148
H36 H 1.1720 0.1354 0.5871
C30 C 1.1665(2) 0.04215(16) 0.5310(3)
H37 H 1.1126 0.0451 0.4615
H38 H 1.2061 0.0123 0.5004
O4 O 1.14542(14) 0.01822(10) 0.6502(2)
C31 C 1.0683(2) 0.03669(14) 0.6789(3)
C32 C 1.0445(2) 0.00468(16) 0.7829(3)
H39 H 1.0818 -0.0267 0.8295
C33 C 0.9669(2) 0.01847(16) 0.8181(3)
H40 H 0.9513 -0.0038 0.8887
C34 C 0.9108(2) 0.06460(15) 0.7520(3)
C35 C 0.9354(2) 0.09632(15) 0.6490(3)
H41 H 0.8983 0.1280 0.6032
C36 C 1.0132(2) 0.08268(15) 0.6114(3)
H42 H 1.0286 0.1046 0.5402
loop_
_geom_bond_atom_site_label_1
_geom_bond_atom_site_label_2
_geom_bond_site_symmetry_1
_geom_bond_site_symmetry_2
Pd1 Cl1 1_555 1_555
Cl2 Pd1 1_555 1_555
C1 H1 1_555 1_555
H2 C1 1_555 1_555
O1 C1 1_555 1_555
C2 O1 1_555 1_555
H3 C2 1_555 1_555
H4 C2 1_555 1_555
C3 C2 1_555 1_555
N1 Pd1 1_555 1_555
C4 N1 1_555 1_555
C5 C4 1_555 1_555
H5 C5 1_555 1_555
C6 C5 1_555 1_555
H6 C6 1_555 1_555
C7 C3 1_555 1_555
H7 C7 1_555 1_555
C8 C4 1_555 1_555
N2 Pd1 1_555 1_555
C9 N2 1_555 1_555
C10 C9 1_555 1_555
H8 C10 1_555 1_555
C11 C10 1_555 1_555
H9 C11 1_555 1_555
C12 C8 1_555 1_555
H10 C12 1_555 1_555
C13 C9 1_555 1_555
H11 C13 1_555 1_555
H12 C13 1_555 1_555
O2 C13 1_555 1_555
C14 O2 1_555 1_555
H13 C14 1_555 1_555
H14 C14 1_555 1_555
C15 C14 1_555 1_555
C16 C15 1_555 1_555
H15 C16 1_555 1_555
C17 C16 1_555 1_555
H16 C17 1_555 1_555
C18 C17 1_555 1_555
C19 C18 1_555 1_555
H17 C19 1_555 1_555
C20 C15 1_555 1_555
H18 C20 1_555 1_555
O3 C18 1_555 1_555
C21 O3 1_555 1_555
H19 C21 1_555 1_555
H20 C21 1_555 1_555
C22 C21 1_555 1_555
H21 C22 1_555 1_555
H22 C22 1_555 1_555
C23 C22 1_555 1_555
H23 C23 1_555 1_555
H24 C23 1_555 1_555
C24 C23 1_555 1_555
H25 C24 1_555 1_555
H26 C24 1_555 1_555
C25 C24 1_555 1_555
H27 C25 1_555 1_555
H28 C25 1_555 1_555
C26 C25 1_555 1_555
H29 C26 1_555 1_555
H30 C26 1_555 1_555
C27 C26 1_555 1_555
H31 C27 1_555 1_555
H32 C27 1_555 1_555
C28 C27 1_555 1_555
H33 C28 1_555 1_555
H34 C28 1_555 1_555
C29 C28 1_555 1_555
H35 C29 1_555 1_555
H36 C29 1_555 1_555
C30 C29 1_555 1_555
H37 C30 1_555 1_555
H38 C30 1_555 1_555
O4 C30 1_555 1_555
C31 O4 1_555 1_555
C32 C31 1_555 1_555
H39 C32 1_555 1_555
C33 C32 1_555 1_555
H40 C33 1_555 1_555
C34 C1 1_555 1_555
C35 C34 1_555 1_555
H41 C35 1_555 1_555
C36 C31 1_555 1_555
H42 C36 1_555 1_555
C3 N1 1_555 1_555
C6 C7 1_555 1_555
C8 N2 1_555 1_555
C11 C12 1_555 1_555
C19 C20 1_555 1_555
C33 C34 1_555 1_555
C35 C36 1_555 1_555

#END
