
#######################################################################
#
#                 Cambridge Crystallographic Data Centre
#                                CCDC 
#
#######################################################################
#
# If this CIF has been generated from an entry in the Cambridge 
# Structural Database, then it will include bibliographic, chemical, 
# crystal, experimental, refinement or atomic coordinate data resulting 
# from the CCDC's data processing and validation procedures.
#
#######################################################################

data_NIHVOP
_chemical_formula_moiety         'C26 H36 N8 O4 Pd2 4+,4(Cl1 O4 1-),2(H2 O1)'
_chemical_name_systematic        
'bis((\m~2~-Dihydroxybis(4-pyridyl)methane)-(ethylenediamine)-palladium(ii)) tetraperchlorate dihydrate'
_symmetry_cell_setting           triclinic
_symmetry_space_group_name_H-M   'P -1'
_symmetry_Int_Tables_number      2
_space_group_name_Hall           '-P 1'
loop_
_symmetry_equiv_pos_site_id
_symmetry_equiv_pos_as_xyz
1 x,y,z
2 -x,-y,-z
_cell_length_a                   10.064(2)
_cell_length_b                   10.070(2)
_cell_length_c                   12.163(2)
_cell_angle_alpha                96.82(2)
_cell_angle_beta                 108.73(2)
_cell_angle_gamma                108.11(2)
_cell_volume                     1076.34
_chemical_melting_point          169-172deg.C(dec.)
_cell_formula_units_Z            1
loop_
_atom_site_label
_atom_site_type_symbol
_atom_site_fract_x
_atom_site_fract_y
_atom_site_fract_z
Pd1 Pd 0.5074(2) 0.2270(2) 0.7082(2)
N1 N 0.6784(2) 0.4185(2) 0.7433(2)
C1 C 0.8035(3) 0.4216(3) 0.7237(3)
C2 C 0.9211(3) 0.5491(3) 0.7439(3)
C3 C 0.9110(2) 0.6780(2) 0.7854(2)
C4 C 0.7823(3) 0.6745(3) 0.8057(3)
C5 C 0.6684(3) 0.5421(3) 0.7835(3)
C6 C 1.0432(2) 0.8199(2) 0.8125(2)
O1 O 0.9885(2) 0.9312(2) 0.8237(2)
O2 O 1.1050(2) 0.8244(2) 0.7246(2)
C7 C 1.1675(2) 0.8289(2) 0.9294(2)
C8 C 1.2765(3) 0.7729(3) 0.9284(2)
C9 C 1.3748(3) 0.7657(3) 1.0351(2)
N2 N 0.6314(2) 0.1868(2) 0.8599(2)
C10 C 0.7326(3) 0.1271(3) 0.8585(2)
C11 C 1.1651(3) 0.8821(3) 1.0381(2)
N3 N 0.3334(3) 0.0357(3) 0.6627(2)
C12 C 0.2076(3) 0.0265(3) 0.5531(3)
C13 C 0.2747(4) 0.1088(4) 0.4764(3)
N4 N 0.3780(3) 0.2546(3) 0.5526(2)
N2A N 1.3686(2) 0.8132(2) 1.1401(2)
Pd1A Pd 1.4926(2) 0.7730(2) 1.2918(2)
N1A N 1.3216(2) 0.5815(2) 1.2567(2)
C1A C 1.1965(3) 0.5784(3) 1.2763(3)
C2A C 1.0789(3) 0.4509(3) 1.2561(3)
C3A C 1.0890(2) 0.3220(2) 1.2146(2)
C4A C 1.2177(3) 0.3255(3) 1.1943(3)
C5A C 1.3316(3) 0.4579(3) 1.2165(3)
C6A C 0.9568(2) 0.1801(2) 1.1875(2)
O1A O 1.0115(2) 0.0688(2) 1.1763(2)
O2A O 0.8950(2) 0.1756(2) 1.2754(2)
C7A C 0.8325(2) 0.1711(2) 1.0706(2)
C8A C 0.7235(3) 0.2271(3) 1.0716(2)
C9A C 0.6252(3) 0.2343(3) 0.9649(2)
C11A C 0.8349(3) 0.1179(3) 0.9619(2)
N3A N 1.6666(3) 0.9643(3) 1.3373(2)
C12A C 1.7924(3) 0.9735(3) 1.4469(3)
C13A C 1.7253(4) 0.8912(4) 1.5236(3)
N4A N 1.6220(3) 0.7454(3) 1.4474(2)
C10A C 1.2674(3) 0.8729(3) 1.1415(2)
Cl1 Cl 0.6322(10) 0.3134(9) 0.3902(8)
O3 O 0.6086(6) 0.2006(4) 0.4525(4)
O4 O 0.7878(4) 0.3752(4) 0.4141(5)
O5 O 0.5502(5) 0.2519(5) 0.2668(3)
O6 O 0.5809(3) 0.4181(3) 0.4350(3)
Cl2 Cl 0.8059(9) 0.6942(8) 1.1724(7)
O7 O 0.6898(5) 0.6115(5) 1.2054(5)
O8 O 0.9462(4) 0.7538(4) 1.2770(3)
O9 O 0.8301(2) 0.6128(6) 1.0859(4)
O10 O 0.7681(4) 0.8097(3) 1.1323(4)
O11 O 0.9048(3) 0.6808(3) 0.4928(2)
loop_
_geom_bond_atom_site_label_1
_geom_bond_atom_site_label_2
_geom_bond_site_symmetry_1
_geom_bond_site_symmetry_2
Pd1 N1 1_555 1_555
N1 C1 1_555 1_555
C1 C2 1_555 1_555
C2 C3 1_555 1_555
C3 C4 1_555 1_555
C4 C5 1_555 1_555
C5 N1 1_555 1_555
C6 C3 1_555 1_555
O1 C6 1_555 1_555
O2 C6 1_555 1_555
C7 C6 1_555 1_555
C8 C7 1_555 1_555
C9 C8 1_555 1_555
N2 Pd1 1_555 1_555
C10 N2 1_555 1_555
C11 C7 1_555 1_555
N3 Pd1 1_555 1_555
C12 N3 1_555 1_555
C13 C12 1_555 1_555
N4 Pd1 1_555 1_555
Cl1 O3 1_555 1_555
O4 Cl1 1_555 1_555
O5 Cl1 1_555 1_555
O6 Cl1 1_555 1_555
Cl2 O7 1_555 1_555
O8 Cl2 1_555 1_555
O9 Cl2 1_555 1_555
O10 Cl2 1_555 1_555
N2A C9 1_555 1_555
Pd1A N2A 1_555 1_555
N1A Pd1A 1_555 1_555
C1A N1A 1_555 1_555
C2A C1A 1_555 1_555
C3A C2A 1_555 1_555
C4A C3A 1_555 1_555
C5A N1A 1_555 1_555
C6A C3A 1_555 1_555
O1A C6A 1_555 1_555
O2A C6A 1_555 1_555
C7A C6A 1_555 1_555
C8A C7A 1_555 1_555
C9A N2 1_555 1_555
C11A C10 1_555 1_555
N3A Pd1A 1_555 1_555
C12A N3A 1_555 1_555
C13A C12A 1_555 1_555
N4A Pd1A 1_555 1_555
C10A C11 1_555 1_555
C13 N4 1_555 1_555
N2A C10A 1_555 1_555
C4A C5A 1_555 1_555
C7A C11A 1_555 1_555
C8A C9A 1_555 1_555
C13A N4A 1_555 1_555

#END
