
#######################################################################
#
#                 Cambridge Crystallographic Data Centre
#                                CCDC 
#
#######################################################################
#
# If this CIF has been generated from an entry in the Cambridge 
# Structural Database, then it will include bibliographic, chemical, 
# crystal, experimental, refinement or atomic coordinate data resulting 
# from the CCDC's data processing and validation procedures.
#
#######################################################################

data_NIKPEF
_chemical_formula_moiety         'C168 H108 Mo12 N12 O60,8(H2 O1)'
_chemical_name_systematic        
'dodecakis(\m-9H-carbazole-3,6-dicarboxylato)-dodeca-aqua-dodeca-molybdenum octahydrate'
_symmetry_cell_setting           monoclinic
_symmetry_space_group_name_H-M   'P 21/n'
_symmetry_Int_Tables_number      14
_space_group_name_Hall           '-P 2yn'
loop_
_symmetry_equiv_pos_site_id
_symmetry_equiv_pos_as_xyz
1 x,y,z
2 1/2-x,1/2+y,1/2-z
3 -x,-y,-z
4 1/2+x,1/2-y,1/2+z
_cell_length_a                   24.1875(5)
_cell_length_b                   28.6009(7)
_cell_length_c                   24.5462(5)
_cell_angle_alpha                90
_cell_angle_beta                 97.1210(10)
_cell_angle_gamma                90
_cell_volume                     16849.7
_exptl_crystal_colour            orange
_exptl_crystal_description       block
_cell_formula_units_Z            2
loop_
_atom_site_label
_atom_site_type_symbol
_atom_site_fract_x
_atom_site_fract_y
_atom_site_fract_z
Mo1 Mo 0.21688(3) 0.41594(2) 0.54218(3)
Mo2 Mo 0.13597(3) 0.39589(2) 0.55598(3)
Mo3 Mo 0.56666(3) 0.25303(2) 0.44237(3)
Mo4 Mo 0.59121(3) 0.18463(2) 0.42445(3)
Mo5 Mo 0.59779(3) 0.46266(3) 0.79431(3)
Mo6 Mo 0.37475(3) 0.54805(2) 0.12190(3)
O1 O 0.23710(17) 0.34725(17) 0.5210(2)
O2 O 0.1524(2) 0.32652(17) 0.5345(2)
O3 O 0.4859(2) 0.23069(15) 0.4527(2)
O4 O 0.5115(2) 0.15892(16) 0.4339(2)
O5 O 0.24673(17) 0.40412(19) 0.62511(18)
O6 O 0.16288(17) 0.38225(19) 0.63924(18)
O7 O 0.51765(19) 0.43868(17) 0.80509(17)
O8 O 0.54635(19) 0.42685(16) 0.89164(16)
O9 O 0.18997(16) 0.43017(19) 0.45973(18)
O10 O 0.10545(17) 0.4097(2) 0.47365(19)
O11 O 0.32273(19) 0.51234(17) 0.21897(16)
O12 O 0.2945(2) 0.52421(17) 0.13167(17)
O13 O 0.59222(19) 0.24380(18) 0.52649(19)
O14 O 0.6180(2) 0.17195(17) 0.50863(19)
O15 O 0.6229(2) 0.39405(17) 0.77437(18)
O16 O 0.6516(2) 0.38380(17) 0.86205(17)
O17 O 0.5415(2) 0.26595(16) 0.35815(19)
O18 O 0.5671(2) 0.19398(17) 0.34004(19)
O19 O 0.4287(2) 0.46925(17) 0.18946(18)
O20 O 0.4012(2) 0.48029(16) 0.10231(18)
O21 O 0.6458(2) 0.27936(16) 0.4307(2)
O22 O 0.6706(2) 0.20832(15) 0.41127(19)
O23 O 0.7994(2) 0.51452(18) 0.4372(2)
O24 O 0.88358(18) 0.53547(16) 0.4212(2)
O25 O 0.3165(6) 0.4410(6) 0.5315(7)
O26 O 0.0392(3) 0.3711(3) 0.5698(3)
O27 O 0.5344(7) 0.3340(4) 0.4640(6)
O28 O 0.5596(6) 0.4781(6) 0.6962(5)
N1 N 0.2547(4) 0.1344(3) 0.4661(4)
H1 H 0.235811 0.108073 0.462163
N2 N 0.2923(3) 0.3723(3) 0.8810(3)
H2 H 0.276442 0.364781 0.910227
N3 N 0.0687(4) 0.4720(4) 0.2227(4)
H3 H 0.035774 0.473400 0.203002
N4 N 0.6981(5) 0.1855(4) 0.7638(4)
H4 H 0.712157 0.161988 0.784114
N5 N 0.5075(4) 0.2778(3) 0.1011(3)
H5 H 0.512147 0.262571 0.070809
N6 N 0.8734(4) 0.3240(3) 0.3437(5)
H6 H 0.898868 0.311482 0.325516
C1 C 0.1985(4) 0.3167(3) 0.5208(4)
C2 C 0.2758(4) 0.2108(3) 0.4828(4)
C3 C 0.2633(4) 0.2567(3) 0.4957(4)
H7 H 0.291065 0.280257 0.496671
C4 C 0.2102(4) 0.2678(3) 0.5072(4)
C5 C 0.1692(4) 0.2343(4) 0.5057(4)
H8 H 0.133241 0.242770 0.514237
C6 C 0.1799(4) 0.1869(4) 0.4914(4)
H9 H 0.151369 0.163854 0.489142
C7 C 0.2344(4) 0.1756(3) 0.4809(4)
C8 C 0.3249(4) 0.1873(3) 0.4680(4)
C9 C 0.3788(4) 0.2025(3) 0.4638(4)
H10 H 0.388845 0.234326 0.470332
C10 C 0.4180(4) 0.1703(3) 0.4497(4)
C11 C 0.4024(4) 0.1244(3) 0.4399(4)
H11 H 0.429100 0.102890 0.429572
C12 C 0.3488(4) 0.1084(3) 0.4446(4)
H12 H 0.339281 0.076468 0.438576
C13 C 0.3100(4) 0.1400(3) 0.4583(4)
C14 C 0.4744(4) 0.1870(3) 0.4443(4)
C15 C 0.2133(3) 0.3892(3) 0.6556(4)
C16 C 0.3040(4) 0.3893(3) 0.7927(3)
C17 C 0.2866(4) 0.3939(3) 0.7355(3)
H13 H 0.312260 0.403529 0.711356
C18 C 0.2324(4) 0.3843(3) 0.7157(4)
C19 C 0.1948(4) 0.3687(3) 0.7510(4)
H14 H 0.157761 0.361151 0.735958
C20 C 0.2097(4) 0.3641(4) 0.8064(4)
H15 H 0.183631 0.354101 0.829948
C21 C 0.2658(4) 0.3749(4) 0.8274(4)
C22 C 0.3564(4) 0.3953(3) 0.8272(4)
C23 C 0.4102(4) 0.4090(3) 0.8177(3)
H16 H 0.417450 0.417569 0.781831
C24 C 0.4521(4) 0.4100(3) 0.8606(3)
C25 C 0.4420(4) 0.3950(4) 0.9130(4)
H17 H 0.472050 0.393416 0.941785
C26 C 0.3891(4) 0.3825(4) 0.9232(4)
H18 H 0.382050 0.373586 0.959032
C27 C 0.3470(4) 0.3833(3) 0.8803(4)
C28 C 0.5091(4) 0.4250(3) 0.8516(3)
C29 C 0.1392(4) 0.4273(3) 0.4442(4)
C30 C 0.1359(4) 0.4620(4) 0.2950(4)
C31 C 0.1558(4) 0.4516(3) 0.3498(4)
H19 H 0.194627 0.452503 0.362122
C32 C 0.1183(3) 0.4402(4) 0.3851(4)
C33 C 0.0605(4) 0.4377(4) 0.3665(4)
H20 H 0.035434 0.427525 0.390893
C34 C 0.0408(4) 0.4496(5) 0.3152(5)
H21 H 0.001833 0.450437 0.303846
C35 C 0.0791(4) 0.4608(4) 0.2780(5)
C36 C 0.1619(4) 0.4763(4) 0.2481(4)
C37 C 0.2169(3) 0.4851(3) 0.2394(4)
H22 H 0.246225 0.482812 0.268830
C38 C 0.2282(4) 0.4973(3) 0.1872(3)
C39 C 0.1851(4) 0.4995(4) 0.1442(4)
H23 H 0.193540 0.507024 0.108428
C40 C 0.1303(4) 0.4912(4) 0.1518(4)
H24 H 0.101408 0.492698 0.121896
C41 C 0.1185(4) 0.4805(4) 0.2043(4)
C42 C 0.2842(4) 0.5107(3) 0.1786(3)
C43 C 0.6124(4) 0.2046(3) 0.5424(4)
C44 C 0.6554(5) 0.2260(4) 0.6913(4)
C45 C 0.6326(4) 0.2333(3) 0.6373(4)
H25 H 0.616538 0.262558 0.625919
C46 C 0.6338(5) 0.1979(4) 0.6013(4)
C47 C 0.6546(5) 0.1530(4) 0.6189(4)
H26 H 0.653470 0.128002 0.593286
C48 C 0.6765(6) 0.1456(4) 0.6729(5)
H27 H 0.689487 0.115681 0.685329
C49 C 0.6788(5) 0.1834(4) 0.7080(5)
C50 C 0.6639(5) 0.2564(4) 0.7391(4)
C51 C 0.6495(4) 0.3032(3) 0.7486(4)
H28 H 0.631443 0.321980 0.719838
C52 C 0.6626(4) 0.3210(4) 0.8016(4)
C53 C 0.6902(5) 0.2945(4) 0.8438(4)
H29 H 0.698562 0.307792 0.879395
C54 C 0.7060(5) 0.2483(4) 0.8344(5)
H30 H 0.725664 0.230139 0.862853
C55 C 0.6918(5) 0.2296(4) 0.7816(4)
C56 C 0.6448(4) 0.3700(3) 0.8128(3)
C57 C 0.5503(4) 0.2345(3) 0.3243(4)
C58 C 0.5075(5) 0.2956(4) 0.1904(4)
C59 C 0.5157(4) 0.2864(3) 0.2474(4)
H31 H 0.505021 0.308435 0.273158
C60 C 0.5397(4) 0.2442(3) 0.2644(4)
C61 C 0.5509(5) 0.2100(3) 0.2267(4)
H32 H 0.564239 0.180220 0.239623
C62 C 0.5429(5) 0.2187(4) 0.1702(5)
H33 H 0.552848 0.196033 0.144799
C63 C 0.5206(5) 0.2605(4) 0.1527(4)
C64 C 0.4855(5) 0.3352(4) 0.1580(4)
C65 C 0.4674(4) 0.3790(3) 0.1703(3)
H34 H 0.470027 0.389203 0.207395
C66 C 0.4454(4) 0.4082(4) 0.1281(4)
C67 C 0.4446(5) 0.3944(4) 0.0741(4)
H35 H 0.429873 0.415142 0.045714
C68 C 0.4649(5) 0.3511(4) 0.0602(4)
H36 H 0.464234 0.342042 0.022895
C69 C 0.4861(5) 0.3217(4) 0.1024(4)
C70 C 0.4247(4) 0.4561(3) 0.1402(3)
C71 C 0.6793(4) 0.2529(3) 0.4137(4)
C72 C 0.7959(4) 0.3329(4) 0.3852(5)
C73 C 0.7477(4) 0.3167(3) 0.4057(4)
H37 H 0.726971 0.337170 0.425895
C74 C 0.7308(4) 0.2722(3) 0.3969(4)
C75 C 0.7632(5) 0.2412(4) 0.3677(5)
H38 H 0.750827 0.209917 0.361378
C76 C 0.8119(5) 0.2552(4) 0.3483(5)
H39 H 0.833090 0.234190 0.329195
C77 C 0.8287(5) 0.3017(4) 0.3582(5)
C78 C 0.8257(4) 0.3779(4) 0.3873(4)
C79 C 0.8166(4) 0.4217(3) 0.4073(4)
H40 H 0.784419 0.427660 0.424855
C80 C 0.8546(4) 0.4570(3) 0.4018(4)
C81 C 0.9026(5) 0.4475(4) 0.3772(6)
H41 H 0.929468 0.471448 0.375127
C82 C 0.9116(4) 0.4042(4) 0.3560(6)
H42 H 0.943492 0.398250 0.338006
C83 C 0.8734(5) 0.3695(4) 0.3616(5)
C84 C 0.8449(4) 0.5050(4) 0.4207(4)
O29 O 0.3353(4) 0.5635(3) 0.0181(4)
O30 O 0.6430(5) 0.1030(3) 0.4220(5)
Mo1B Mo 0.78312(3) 0.58406(2) 0.45782(3)
Mo2B Mo 0.86403(3) 0.60411(2) 0.44402(3)
Mo3B Mo 0.43334(3) 0.74697(2) 0.55763(3)
Mo4B Mo 0.40879(3) 0.81537(2) 0.57555(3)
Mo5B Mo 0.40221(3) 0.53734(3) 0.20569(3)
Mo6B Mo 0.62525(3) 0.45195(2) 0.87810(3)
O1B O 0.76290(17) 0.65275(17) 0.4790(2)
O2B O 0.8476(2) 0.67348(17) 0.4655(2)
O3B O 0.5141(2) 0.76931(15) 0.5473(2)
O4B O 0.4885(2) 0.84108(16) 0.5661(2)
O5B O 0.75327(17) 0.59588(19) 0.37489(18)
O6B O 0.83712(17) 0.61775(19) 0.36076(18)
O7B O 0.48235(19) 0.56132(17) 0.19491(17)
O8B O 0.45365(19) 0.57315(16) 0.10836(16)
O9B O 0.81003(16) 0.56983(19) 0.54027(18)
O10B O 0.89455(17) 0.5903(2) 0.52635(19)
O11B O 0.67727(19) 0.48766(17) 0.78103(16)
O12B O 0.7055(2) 0.47579(17) 0.86833(17)
O13B O 0.40778(19) 0.75620(18) 0.47351(19)
O14B O 0.3820(2) 0.82805(17) 0.49137(19)
O15B O 0.3771(2) 0.60595(17) 0.22563(18)
O16B O 0.3484(2) 0.61620(17) 0.13795(17)
O17B O 0.4585(2) 0.73405(16) 0.64185(19)
O18B O 0.4329(2) 0.80602(17) 0.65996(19)
O19B O 0.5713(2) 0.53075(17) 0.81054(18)
O20B O 0.5988(2) 0.51971(16) 0.89769(18)
O21B O 0.3542(2) 0.72064(16) 0.5693(2)
O22B O 0.3294(2) 0.79168(15) 0.58873(19)
O23B O 0.2006(2) 0.48548(18) 0.5628(2)
O24B O 0.11642(18) 0.46453(16) 0.5788(2)
O25B O 0.6835(6) 0.5590(6) 0.4685(7)
O26B O 0.9608(3) 0.6289(3) 0.4302(3)
O27B O 0.4656(7) 0.6660(4) 0.5360(6)
O28B O 0.4404(6) 0.5219(6) 0.3038(5)
N1B N 0.7453(4) 0.8656(3) 0.5339(4)
H1B H 0.764189 0.891927 0.537837
N2B N 0.7077(3) 0.6277(3) 0.1190(3)
H2B H 0.723558 0.635219 0.089773
N3B N 0.9313(4) 0.5280(4) 0.7773(4)
H3B H 0.964226 0.526600 0.796998
N4B N 0.3019(5) 0.8145(4) 0.2362(4)
H4B H 0.287843 0.838012 0.215886
N5B N 0.4925(4) 0.7222(3) 0.8989(3)
H5B H 0.487853 0.737429 0.929191
N6B N 0.1266(4) 0.6760(3) 0.6563(5)
H6B H 0.101132 0.688518 0.674484
C1B C 0.8015(4) 0.6833(3) 0.4792(4)
C2B C 0.7242(4) 0.7892(3) 0.5172(4)
C3B C 0.7367(4) 0.7433(3) 0.5043(4)
H7B H 0.708935 0.719743 0.503329
C4B C 0.7898(4) 0.7322(3) 0.4928(4)
C5B C 0.8308(4) 0.7657(4) 0.4943(4)
H8B H 0.866759 0.757230 0.485763
C6B C 0.8201(4) 0.8131(4) 0.5086(4)
H9B H 0.848631 0.836146 0.510858
C7B C 0.7656(4) 0.8244(3) 0.5191(4)
C8B C 0.6751(4) 0.8127(3) 0.5320(4)
C9B C 0.6212(4) 0.7975(3) 0.5362(4)
H10B H 0.611155 0.765674 0.529668
C10B C 0.5820(4) 0.8297(3) 0.5503(4)
C11B C 0.5976(4) 0.8756(3) 0.5601(4)
H11B H 0.570900 0.897110 0.570428
C12B C 0.6512(4) 0.8916(3) 0.5554(4)
H12B H 0.660719 0.923532 0.561424
C13B C 0.6900(4) 0.8600(3) 0.5417(4)
C14B C 0.5256(4) 0.8130(3) 0.5557(4)
C15B C 0.7867(3) 0.6108(3) 0.3444(4)
C16B C 0.6960(4) 0.6107(3) 0.2073(3)
C17B C 0.7134(4) 0.6061(3) 0.2645(3)
H13B H 0.687740 0.596471 0.288644
C18B C 0.7676(4) 0.6157(3) 0.2843(4)
C19B C 0.8052(4) 0.6313(3) 0.2490(4)
H14B H 0.842239 0.638849 0.264042
C20B C 0.7903(4) 0.6359(4) 0.1936(4)
H15B H 0.816369 0.645899 0.170052
C21B C 0.7342(4) 0.6251(4) 0.1726(4)
C22B C 0.6436(4) 0.6047(3) 0.1728(4)
C23B C 0.5898(4) 0.5910(3) 0.1823(3)
H16B H 0.582550 0.582431 0.218169
C24B C 0.5479(4) 0.5900(3) 0.1394(3)
C25B C 0.5580(4) 0.6050(4) 0.0870(4)
H17B H 0.527950 0.606584 0.058215
C26B C 0.6109(4) 0.6175(4) 0.0768(4)
H18B H 0.617950 0.626414 0.040968
C27B C 0.6530(4) 0.6167(3) 0.1197(4)
C28B C 0.4909(4) 0.5750(3) 0.1484(3)
C29B C 0.8608(4) 0.5727(3) 0.5558(4)
C30B C 0.8641(4) 0.5380(4) 0.7050(4)
C31B C 0.8442(4) 0.5484(3) 0.6502(4)
H19B H 0.805373 0.547497 0.637878
C32B C 0.8817(3) 0.5598(4) 0.6149(4)
C33B C 0.9395(4) 0.5623(4) 0.6335(4)
H20B H 0.964566 0.572475 0.609107
C34B C 0.9592(4) 0.5504(5) 0.6848(5)
H21B H 0.998167 0.549563 0.696154
C35B C 0.9209(4) 0.5392(4) 0.7220(5)
C36B C 0.8381(4) 0.5237(4) 0.7519(4)
C37B C 0.7831(3) 0.5149(3) 0.7606(4)
H22B H 0.753775 0.517188 0.731170
C38B C 0.7718(4) 0.5027(3) 0.8128(3)
C39B C 0.8149(4) 0.5005(4) 0.8558(4)
H23B H 0.806460 0.492976 0.891572
C40B C 0.8697(4) 0.5088(4) 0.8482(4)
H24B H 0.898592 0.507302 0.878104
C41B C 0.8815(4) 0.5195(4) 0.7957(4)
C42B C 0.7158(4) 0.4893(3) 0.8214(3)
C43B C 0.3876(4) 0.7954(3) 0.4576(4)
C44B C 0.3446(5) 0.7740(4) 0.3087(4)
C45B C 0.3674(4) 0.7667(3) 0.3627(4)
H25B H 0.383462 0.737442 0.374081
C46B C 0.3662(5) 0.8021(4) 0.3987(4)
C47B C 0.3454(5) 0.8470(4) 0.3811(4)
H26B H 0.346530 0.871998 0.406714
C48B C 0.3235(6) 0.8544(4) 0.3271(5)
H27B H 0.310513 0.884319 0.314671
C49B C 0.3212(5) 0.8166(4) 0.2920(5)
C50B C 0.3361(5) 0.7436(4) 0.2609(4)
C51B C 0.3505(4) 0.6968(3) 0.2514(4)
H28B H 0.368557 0.678020 0.280162
C52B C 0.3374(4) 0.6790(4) 0.1984(4)
C53B C 0.3098(5) 0.7055(4) 0.1562(4)
H29B H 0.301438 0.692208 0.120605
C54B C 0.2940(5) 0.7517(4) 0.1656(5)
H30B H 0.274336 0.769861 0.137147
C55B C 0.3082(5) 0.7704(4) 0.2184(4)
C56B C 0.3552(4) 0.6300(3) 0.1872(3)
C57B C 0.4497(4) 0.7655(3) 0.6757(4)
C58B C 0.4925(5) 0.7044(4) 0.8096(4)
C59B C 0.4843(4) 0.7136(3) 0.7526(4)
H31B H 0.494979 0.691565 0.726842
C60B C 0.4603(4) 0.7558(3) 0.7356(4)
C61B C 0.4491(5) 0.7900(3) 0.7733(4)
H32B H 0.435761 0.819780 0.760377
C62B C 0.4571(5) 0.7813(4) 0.8298(5)
H33B H 0.447152 0.803967 0.855201
C63B C 0.4794(5) 0.7395(4) 0.8473(4)
C64B C 0.5145(5) 0.6648(4) 0.8420(4)
C65B C 0.5326(4) 0.6210(3) 0.8297(3)
H34B H 0.529973 0.610797 0.792605
C66B C 0.5546(4) 0.5918(4) 0.8719(4)
C67B C 0.5554(5) 0.6056(4) 0.9259(4)
H35B H 0.570127 0.584858 0.954286
C68B C 0.5351(5) 0.6489(4) 0.9398(4)
H36B H 0.535766 0.657958 0.977105
C69B C 0.5139(5) 0.6783(4) 0.8976(4)
C70B C 0.5753(4) 0.5439(3) 0.8598(3)
C71B C 0.3207(4) 0.7471(3) 0.5863(4)
C72B C 0.2041(4) 0.6671(4) 0.6148(5)
C73B C 0.2523(4) 0.6833(3) 0.5943(4)
H37B H 0.273029 0.662830 0.574105
C74B C 0.2692(4) 0.7278(3) 0.6031(4)
C75B C 0.2368(5) 0.7588(4) 0.6323(5)
H38B H 0.249173 0.790083 0.638622
C76B C 0.1881(5) 0.7448(4) 0.6517(5)
H39B H 0.166910 0.765810 0.670805
C77B C 0.1713(5) 0.6983(4) 0.6418(5)
C78B C 0.1743(4) 0.6221(4) 0.6127(4)
C79B C 0.1834(4) 0.5783(3) 0.5927(4)
H40B H 0.215581 0.572340 0.575145
C80B C 0.1454(4) 0.5430(3) 0.5982(4)
C81B C 0.0974(5) 0.5525(4) 0.6228(6)
H41B H 0.070532 0.528552 0.624873
C82B C 0.0884(4) 0.5958(4) 0.6440(6)
H42B H 0.056508 0.601750 0.661994
C83B C 0.1266(5) 0.6305(4) 0.6384(5)
C84B C 0.1551(4) 0.4950(4) 0.5793(4)
O29B O 0.6647(4) 0.4365(3) 0.9819(4)
O30B O 0.3570(5) 0.8970(3) 0.5780(5)
O31 O 0.2878(5) 0.3286(5) 0.9850(4)
O32 O 0.7585(7) 0.1243(5) 0.8416(8)
O33 O 0.5130(5) 0.2457(5) -0.0097(5)
O34 O 0.9337(6) 0.3047(5) 0.2527(7)
loop_
_geom_bond_atom_site_label_1
_geom_bond_atom_site_label_2
_geom_bond_site_symmetry_1
_geom_bond_site_symmetry_2
Mo1 Mo2 1_555 1_555
Mo2 O2 1_555 1_555
Mo3 Mo4 1_555 1_555
Mo4 O4 1_555 1_555
Mo5 O7 1_555 1_555
Mo6 O12 1_555 1_555
O1 Mo1 1_555 1_555
O2 C1 1_555 1_555
O3 Mo3 1_555 1_555
O4 C14 1_555 1_555
O5 Mo1 1_555 1_555
O6 Mo2 1_555 1_555
O7 C28 1_555 1_555
O8 C28 1_555 1_555
O9 Mo1 1_555 1_555
O10 Mo2 1_555 1_555
O11 C42 1_555 1_555
O12 C42 1_555 1_555
O13 Mo3 1_555 1_555
O14 Mo4 1_555 1_555
O15 Mo5 1_555 1_555
O16 C56 1_555 1_555
O17 Mo3 1_555 1_555
O18 Mo4 1_555 1_555
O19 C70 1_555 1_555
O20 Mo6 1_555 1_555
O21 Mo3 1_555 1_555
O22 Mo4 1_555 1_555
O23 C84 1_555 1_555
O24 C84 1_555 1_555
O25 Mo1 1_555 1_555
O26 Mo2 1_555 1_555
O27 Mo3 1_555 1_555
O28 Mo5 1_555 1_555
N1 H1 1_555 1_555
N2 H2 1_555 1_555
N3 H3 1_555 1_555
N4 H4 1_555 1_555
N5 H5 1_555 1_555
N6 H6 1_555 1_555
C1 O1 1_555 1_555
C2 C3 1_555 1_555
C3 H7 1_555 1_555
C4 C1 1_555 1_555
C5 C4 1_555 1_555
H8 C5 1_555 1_555
C6 C5 1_555 1_555
H9 C6 1_555 1_555
C7 N1 1_555 1_555
C8 C2 1_555 1_555
C9 C8 1_555 1_555
H10 C9 1_555 1_555
C10 C9 1_555 1_555
C11 C10 1_555 1_555
H11 C11 1_555 1_555
C12 C11 1_555 1_555
H12 C12 1_555 1_555
C13 N1 1_555 1_555
C14 O3 1_555 1_555
C15 O5 1_555 1_555
C16 C17 1_555 1_555
C17 H13 1_555 1_555
C18 C15 1_555 1_555
C19 C18 1_555 1_555
H14 C19 1_555 1_555
C20 C19 1_555 1_555
H15 C20 1_555 1_555
C21 N2 1_555 1_555
C22 C16 1_555 1_555
C23 C22 1_555 1_555
H16 C23 1_555 1_555
C24 C23 1_555 1_555
C25 C24 1_555 1_555
H17 C25 1_555 1_555
C26 C25 1_555 1_555
H18 C26 1_555 1_555
C27 N2 1_555 1_555
C28 C24 1_555 1_555
C29 O9 1_555 1_555
C30 C31 1_555 1_555
C31 H19 1_555 1_555
C32 C29 1_555 1_555
C33 C32 1_555 1_555
H20 C33 1_555 1_555
C34 C33 1_555 1_555
H21 C34 1_555 1_555
C35 N3 1_555 1_555
C36 C30 1_555 1_555
C37 C36 1_555 1_555
H22 C37 1_555 1_555
C38 C37 1_555 1_555
C39 C38 1_555 1_555
H23 C39 1_555 1_555
C40 C39 1_555 1_555
H24 C40 1_555 1_555
C41 N3 1_555 1_555
C42 C38 1_555 1_555
C43 O13 1_555 1_555
C44 C45 1_555 1_555
C45 H25 1_555 1_555
C46 C43 1_555 1_555
C47 C46 1_555 1_555
H26 C47 1_555 1_555
C48 C47 1_555 1_555
H27 C48 1_555 1_555
C49 N4 1_555 1_555
C50 C44 1_555 1_555
C51 C50 1_555 1_555
H28 C51 1_555 1_555
C52 C51 1_555 1_555
C53 C52 1_555 1_555
H29 C53 1_555 1_555
C54 C53 1_555 1_555
H30 C54 1_555 1_555
C55 N4 1_555 1_555
C56 O15 1_555 1_555
C57 O17 1_555 1_555
C58 C59 1_555 1_555
C59 H31 1_555 1_555
C60 C57 1_555 1_555
C61 C60 1_555 1_555
H32 C61 1_555 1_555
C62 C61 1_555 1_555
H33 C62 1_555 1_555
C63 N5 1_555 1_555
C64 C58 1_555 1_555
C65 C64 1_555 1_555
H34 C65 1_555 1_555
C66 C65 1_555 1_555
C67 C66 1_555 1_555
H35 C67 1_555 1_555
C68 C67 1_555 1_555
H36 C68 1_555 1_555
C69 N5 1_555 1_555
C70 O20 1_555 1_555
C71 O21 1_555 1_555
C72 C73 1_555 1_555
C73 H37 1_555 1_555
C74 C71 1_555 1_555
C75 C74 1_555 1_555
H38 C75 1_555 1_555
C76 C75 1_555 1_555
H39 C76 1_555 1_555
C77 N6 1_555 1_555
C78 C72 1_555 1_555
C79 C78 1_555 1_555
H40 C79 1_555 1_555
C80 C79 1_555 1_555
C81 C80 1_555 1_555
H41 C81 1_555 1_555
C82 C81 1_555 1_555
H42 C82 1_555 1_555
C83 N6 1_555 1_555
C84 C80 1_555 1_555
O29 Mo6 1_555 1_555
O30 Mo4 1_555 1_555
Mo1B O23 1_555 1_555
Mo2B O24 1_555 1_555
Mo3B Mo4B 1_555 1_555
Mo4B O4B 1_555 1_555
Mo5B Mo6 1_555 1_555
Mo6B Mo5 1_555 1_555
O1B Mo1B 1_555 1_555
O2B Mo2B 1_555 1_555
O3B Mo3B 1_555 1_555
O4B C14B 1_555 1_555
O5B Mo1B 1_555 1_555
O6B Mo2B 1_555 1_555
O7B Mo5B 1_555 1_555
O8B Mo6 1_555 1_555
O9B Mo1B 1_555 1_555
O10B Mo2B 1_555 1_555
O11B Mo5 1_555 1_555
O12B Mo6B 1_555 1_555
O13B Mo3B 1_555 1_555
O14B Mo4B 1_555 1_555
O15B Mo5B 1_555 1_555
O16B Mo6 1_555 1_555
O17B Mo3B 1_555 1_555
O18B Mo4B 1_555 1_555
O19B Mo5 1_555 1_555
O20B Mo6B 1_555 1_555
O21B Mo3B 1_555 1_555
O22B Mo4B 1_555 1_555
O23B Mo1 1_555 1_555
O24B Mo2 1_555 1_555
O25B Mo1B 1_555 1_555
O26B Mo2B 1_555 1_555
O27B Mo3B 1_555 1_555
O28B Mo5B 1_555 1_555
N1B H1B 1_555 1_555
N2B H2B 1_555 1_555
N3B H3B 1_555 1_555
N4B H4B 1_555 1_555
N5B H5B 1_555 1_555
N6B H6B 1_555 1_555
C1B O1B 1_555 1_555
C2B C3B 1_555 1_555
C3B H7B 1_555 1_555
C4B C1B 1_555 1_555
C5B C4B 1_555 1_555
H8B C5B 1_555 1_555
C6B C5B 1_555 1_555
H9B C6B 1_555 1_555
C7B N1B 1_555 1_555
C8B C2B 1_555 1_555
C9B C8B 1_555 1_555
H10B C9B 1_555 1_555
C10B C9B 1_555 1_555
C11B C10B 1_555 1_555
H11B C11B 1_555 1_555
C12B C11B 1_555 1_555
H12B C12B 1_555 1_555
C13B N1B 1_555 1_555
C14B O3B 1_555 1_555
C15B O5B 1_555 1_555
C16B C17B 1_555 1_555
C17B H13B 1_555 1_555
C18B C15B 1_555 1_555
C19B C18B 1_555 1_555
H14B C19B 1_555 1_555
C20B C19B 1_555 1_555
H15B C20B 1_555 1_555
C21B N2B 1_555 1_555
C22B C16B 1_555 1_555
C23B C22B 1_555 1_555
H16B C23B 1_555 1_555
C24B C23B 1_555 1_555
C25B C24B 1_555 1_555
H17B C25B 1_555 1_555
C26B C25B 1_555 1_555
H18B C26B 1_555 1_555
C27B N2B 1_555 1_555
C28B O7B 1_555 1_555
C29B O9B 1_555 1_555
C30B C31B 1_555 1_555
C31B H19B 1_555 1_555
C32B C29B 1_555 1_555
C33B C32B 1_555 1_555
H20B C33B 1_555 1_555
C34B C33B 1_555 1_555
H21B C34B 1_555 1_555
C35B N3B 1_555 1_555
C36B C30B 1_555 1_555
C37B C36B 1_555 1_555
H22B C37B 1_555 1_555
C38B C37B 1_555 1_555
C39B C38B 1_555 1_555
H23B C39B 1_555 1_555
C40B C39B 1_555 1_555
H24B C40B 1_555 1_555
C41B N3B 1_555 1_555
C42B O11B 1_555 1_555
C43B O13B 1_555 1_555
C44B C45B 1_555 1_555
C45B H25B 1_555 1_555
C46B C43B 1_555 1_555
C47B C46B 1_555 1_555
H26B C47B 1_555 1_555
C48B C47B 1_555 1_555
H27B C48B 1_555 1_555
C49B N4B 1_555 1_555
C50B C44B 1_555 1_555
C51B C50B 1_555 1_555
H28B C51B 1_555 1_555
C52B C51B 1_555 1_555
C53B C52B 1_555 1_555
H29B C53B 1_555 1_555
C54B C53B 1_555 1_555
H30B C54B 1_555 1_555
C55B N4B 1_555 1_555
C56B O15B 1_555 1_555
C57B O17B 1_555 1_555
C58B C59B 1_555 1_555
C59B H31B 1_555 1_555
C60B C57B 1_555 1_555
C61B C60B 1_555 1_555
H32B C61B 1_555 1_555
C62B C61B 1_555 1_555
H33B C62B 1_555 1_555
C63B N5B 1_555 1_555
C64B C58B 1_555 1_555
C65B C64B 1_555 1_555
H34B C65B 1_555 1_555
C66B C65B 1_555 1_555
C67B C66B 1_555 1_555
H35B C67B 1_555 1_555
C68B C67B 1_555 1_555
H36B C68B 1_555 1_555
C69B N5B 1_555 1_555
C70B O19B 1_555 1_555
C71B O21B 1_555 1_555
C72B C73B 1_555 1_555
C73B H37B 1_555 1_555
C74B C71B 1_555 1_555
C75B C74B 1_555 1_555
H38B C75B 1_555 1_555
C76B C75B 1_555 1_555
H39B C76B 1_555 1_555
C77B N6B 1_555 1_555
C78B C72B 1_555 1_555
C79B C78B 1_555 1_555
H40B C79B 1_555 1_555
C80B C79B 1_555 1_555
C81B C80B 1_555 1_555
H41B C81B 1_555 1_555
C82B C81B 1_555 1_555
H42B C82B 1_555 1_555
C83B N6B 1_555 1_555
C84B O23B 1_555 1_555
O29B Mo6B 1_555 1_555
O30B Mo4B 1_555 1_555
O6 C15 1_555 1_555
O8 Mo6B 1_555 1_555
O10 C29 1_555 1_555
O11 Mo5B 1_555 1_555
O14 C43 1_555 1_555
O16 Mo6B 1_555 1_555
O18 C57 1_555 1_555
O19 Mo5B 1_555 1_555
O22 C71 1_555 1_555
C2 C7 1_555 1_555
C3 C4 1_555 1_555
C6 C7 1_555 1_555
C8 C13 1_555 1_555
C10 C14 1_555 1_555
C12 C13 1_555 1_555
C16 C21 1_555 1_555
C17 C18 1_555 1_555
C20 C21 1_555 1_555
C22 C27 1_555 1_555
C26 C27 1_555 1_555
C30 C35 1_555 1_555
C31 C32 1_555 1_555
C34 C35 1_555 1_555
C36 C41 1_555 1_555
C40 C41 1_555 1_555
C44 C49 1_555 1_555
C45 C46 1_555 1_555
C48 C49 1_555 1_555
C50 C55 1_555 1_555
C52 C56 1_555 1_555
C54 C55 1_555 1_555
C58 C63 1_555 1_555
C59 C60 1_555 1_555
C62 C63 1_555 1_555
C64 C69 1_555 1_555
C66 C70 1_555 1_555
C68 C69 1_555 1_555
C72 C77 1_555 1_555
C73 C74 1_555 1_555
C76 C77 1_555 1_555
C78 C83 1_555 1_555
C82 C83 1_555 1_555
Mo1B Mo2B 1_555 1_555
O2B C1B 1_555 1_555
O6B C15B 1_555 1_555
O8B C28B 1_555 1_555
O10B C29B 1_555 1_555
O12B C42B 1_555 1_555
O14B C43B 1_555 1_555
O16B C56B 1_555 1_555
O18B C57B 1_555 1_555
O20B C70B 1_555 1_555
O22B C71B 1_555 1_555
O24B C84B 1_555 1_555
C2B C7B 1_555 1_555
C3B C4B 1_555 1_555
C6B C7B 1_555 1_555
C8B C13B 1_555 1_555
C10B C14B 1_555 1_555
C12B C13B 1_555 1_555
C16B C21B 1_555 1_555
C17B C18B 1_555 1_555
C20B C21B 1_555 1_555
C22B C27B 1_555 1_555
C24B C28B 1_555 1_555
C26B C27B 1_555 1_555
C30B C35B 1_555 1_555
C31B C32B 1_555 1_555
C34B C35B 1_555 1_555
C36B C41B 1_555 1_555
C38B C42B 1_555 1_555
C40B C41B 1_555 1_555
C44B C49B 1_555 1_555
C45B C46B 1_555 1_555
C48B C49B 1_555 1_555
C50B C55B 1_555 1_555
C52B C56B 1_555 1_555
C54B C55B 1_555 1_555
C58B C63B 1_555 1_555
C59B C60B 1_555 1_555
C62B C63B 1_555 1_555
C64B C69B 1_555 1_555
C66B C70B 1_555 1_555
C68B C69B 1_555 1_555
C72B C77B 1_555 1_555
C73B C74B 1_555 1_555
C76B C77B 1_555 1_555
C78B C83B 1_555 1_555
C80B C84B 1_555 1_555
C82B C83B 1_555 1_555

#END
