
#######################################################################
#
#                 Cambridge Crystallographic Data Centre
#                                CCDC 
#
#######################################################################
#
# If this CIF has been generated from an entry in the Cambridge 
# Structural Database, then it will include bibliographic, chemical, 
# crystal, experimental, refinement or atomic coordinate data resulting 
# from the CCDC's data processing and validation procedures.
#
#######################################################################

data_NIKPIJ
_chemical_formula_moiety         'C186 H138 Cr12 N18 O60,8(C3 H7 N1 O1)'
_chemical_name_systematic        
'dodecakis(\m-9H-carbazole-3,6-dicarboxylato)-hexa-aqua-hexakis(dimethylformamide)-dodeca-chromium dimethylformamide solvate'
_symmetry_cell_setting           triclinic
_symmetry_space_group_name_H-M   'P -1'
_symmetry_Int_Tables_number      2
_space_group_name_Hall           '-P 1'
loop_
_symmetry_equiv_pos_site_id
_symmetry_equiv_pos_as_xyz
1 x,y,z
2 -x,-y,-z
_cell_length_a                   21.4077(11)
_cell_length_b                   21.9786(11)
_cell_length_c                   22.0259(12)
_cell_angle_alpha                115.2210(10)
_cell_angle_beta                 116.9280(10)
_cell_angle_gamma                90.4380(10)
_cell_volume                     8096.28
_exptl_crystal_colour            red
_exptl_crystal_description       block
_cell_formula_units_Z            1
loop_
_atom_site_label
_atom_site_type_symbol
_atom_site_fract_x
_atom_site_fract_y
_atom_site_fract_z
Cr1 Cr 0.21545(2) 0.21215(2) 0.85473(3)
Cr2 Cr 0.11677(2) 0.11846(2) 0.79250(3)
Cr3 Cr 0.29454(2) 0.60695(2) 0.71641(3)
Cr4 Cr 0.21874(2) 0.62623(2) 0.61151(3)
Cr5 Cr 0.64089(3) 0.27605(2) 0.77059(3)
Cr6 Cr 0.68118(2) 0.20374(2) 0.68887(3)
O1 O 0.16690(11) 0.27153(11) 0.90995(13)
O2 O 0.07058(11) 0.18280(10) 0.84737(13)
O3 O 0.27239(11) 0.64516(10) 1.17890(12)
O4 O 0.23329(11) 0.71419(10) 1.25643(11)
O5 O 0.16309(11) 0.23691(10) 0.76862(12)
O6 O 0.07161(11) 0.14446(10) 0.70761(12)
O7 O 0.21375(11) 0.52712(11) 0.67577(12)
O8 O 0.14190(11) 0.54705(11) 0.57776(12)
O9 O 0.25769(11) 0.14857(10) 0.79340(12)
O10 O 0.16666(10) 0.05831(10) 0.74016(12)
O11 O 0.55810(11) 0.19385(10) 0.71997(12)
O12 O 0.59743(11) 0.12466(10) 0.64250(12)
O13 O 0.37223(11) 0.68487(11) 0.74856(12)
O14 O 0.30012(11) 0.70431(10) 0.65010(12)
O15 O 0.73722(11) 0.81647(11) 1.06291(12)
O16 O 0.83289(11) 0.90312(11) 1.11874(12)
O17 O 0.32874(11) 0.53818(11) 0.64845(12)
O18 O 0.25570(11) 0.55683(11) 0.54953(12)
O19 O 0.58160(11) 0.30244(10) 0.68746(12)
O20 O 0.61915(11) 0.23144(11) 0.60927(12)
O21 O 0.70249(12) 0.24524(11) 0.84882(13)
O22 O 0.74078(12) 0.17632(11) 0.77050(12)
O23 O 0.74524(11) 0.32597(10) 1.22193(11)
O24 O 0.81649(11) 0.30700(10) 1.32129(11)
O25 O 0.02311(13) 0.02463(13) 0.72797(16)
O26 O 0.36849(15) 0.59002(15) 0.81735(16)
O27 O 0.73101(12) 0.14185(12) 0.61921(13)
N1 N -0.01568(14) 0.43647(13) 1.04781(16)
H1 H -0.056395 0.432900 1.048315
N2 N -0.04503(15) 0.26044(14) 0.46954(16)
H2 H -0.085615 0.238490 0.424635
N3 N 0.33963(14) -0.08611(13) 0.57295(15)
H3 H 0.327950 -0.131113 0.541775
N4 N 0.60443(16) 0.91372(18) 0.81274(18)
H4 H 0.613270 0.940811 0.796010
N5 N 0.3892(2) 0.33043(18) 0.38886(18)
H5 H 0.377688 0.314882 0.340190
N6 N 0.9012(2) 0.13172(19) 1.0662(2)
H6 H 0.931006 0.104539 1.071180
N7 N -0.0326(3) -0.0876(2) 0.6635(3)
N8 N 0.4373(3) 0.5237(3) 0.8616(3)
N9 N 0.83766(19) 0.1146(2) 0.6378(2)
C1 C 0.10431(17) 0.24594(16) 0.89314(18)
C2 C 0.07264(16) 0.40881(16) 1.01818(18)
C3 C 0.10433(16) 0.36405(15) 0.98145(17)
H7 H 0.150128 0.381033 0.990048
C4 C 0.06895(17) 0.29417(16) 0.93193(19)
C5 C 0.00094(18) 0.26987(17) 0.9194(2)
H8 H -0.023211 0.222114 0.884945
C6 C -0.03163(18) 0.31300(18) 0.9555(2)
H9 H -0.077414 0.295730 0.946724
C7 C 0.00459(17) 0.38285(16) 1.00527(19)
C8 C 0.09413(16) 0.48222(16) 1.07193(17)
C9 C 0.15497(16) 0.53431(16) 1.10729(17)
H10 H 0.192683 0.524747 1.095799
C10 C 0.16013(17) 0.60118(16) 1.16015(17)
C11 C 0.10395(18) 0.61442(17) 1.17647(19)
H11 H 0.108696 0.659907 1.213421
C12 C 0.04203(18) 0.56367(17) 1.1407(2)
H12 H 0.003567 0.574073 1.150700
C13 C 0.03788(17) 0.49665(17) 1.08951(19)
C14 C 0.22642(17) 0.65715(15) 1.20087(17)
C15 C 0.10224(16) 0.19751(16) 0.71231(18)
C16 C 0.05016(16) 0.28662(16) 0.58860(18)
C17 C 0.08883(17) 0.27342(16) 0.65050(18)
H13 H 0.133077 0.305023 0.694388
C18 C 0.06234(16) 0.21406(16) 0.64755(19)
C19 C -0.00325(19) 0.16717(18) 0.5824(2)
H14 H -0.020858 0.126873 0.581563
C20 C -0.04231(19) 0.17789(19) 0.5203(2)
H15 H -0.086261 0.145652 0.476526
C21 C -0.01541(17) 0.23796(17) 0.52322(19)
C22 C 0.05913(16) 0.34170(16) 0.57105(18)
C23 C 0.11021(16) 0.40407(16) 0.61008(18)
H16 H 0.151047 0.417914 0.659857
C24 C 0.10080(16) 0.44582(16) 0.57541(18)
C25 C 0.03990(17) 0.42529(17) 0.50195(19)
H17 H 0.034173 0.454683 0.479274
C26 C -0.01125(17) 0.36442(17) 0.46219(19)
H18 H -0.052057 0.351246 0.412602
C27 C -0.00160(17) 0.32230(16) 0.49677(18)
C28 C 0.15571(16) 0.51116(16) 0.61270(18)
C29 C 0.22523(16) 0.08507(15) 0.74943(17)
C30 C 0.34096(16) 0.01940(15) 0.65886(17)
C31 C 0.31527(16) 0.06507(15) 0.70445(17)
H19 H 0.337806 0.113391 0.734858
C32 C 0.25609(16) 0.03812(15) 0.70420(17)
C33 C 0.22407(16) -0.03339(15) 0.66071(18)
H20 H 0.183763 -0.050650 0.661473
C34 C 0.24945(17) -0.07952(16) 0.61674(19)
H21 H 0.228332 -0.128062 0.588825
C35 C 0.30685(17) -0.05244(15) 0.61481(18)
C36 C 0.39689(16) 0.02844(15) 0.64179(18)
C37 C 0.44904(17) 0.08496(15) 0.66755(18)
H22 H 0.452472 0.129831 0.704581
C38 C 0.49660(16) 0.07583(16) 0.63896(18)
C39 C 0.49015(17) 0.00901(16) 0.58370(18)
H23 H 0.521937 0.003321 0.563581
C40 C 0.43959(17) -0.04846(16) 0.55764(18)
H24 H 0.436455 -0.093230 0.520661
C41 C 0.39322(17) -0.03849(15) 0.58753(17)
C42 C 0.55403(17) 0.13516(16) 0.66878(18)
C43 C 0.36066(16) 0.71654(16) 0.70831(17)
C44 C 0.54587(18) 0.83348(18) 0.82099(18)
C45 C 0.48770(18) 0.78407(18) 0.79803(19)
H25 H 0.492690 0.760530 0.826880
C46 C 0.42237(17) 0.76961(17) 0.73255(18)
C47 C 0.41549(18) 0.80553(17) 0.69075(18)
H26 H 0.370046 0.796061 0.646618
C48 C 0.47344(19) 0.85430(18) 0.7125(2)
H27 H 0.468366 0.877789 0.683602
C49 C 0.53925(19) 0.86795(19) 0.7779(2)
C50 C 0.62024(18) 0.86022(18) 0.88544(19)
C51 C 0.65813(18) 0.84670(18) 0.94618(19)
H28 H 0.635558 0.812817 0.950810
C52 C 0.73021(17) 0.88344(17) 1.00095(18)
C53 C 0.76205(19) 0.9341(2) 0.9940(2)
H29 H 0.810476 0.960067 1.032644
C54 C 0.7257(2) 0.9478(2) 0.9330(2)
H30 H 0.748706 0.981438 0.928414
C55 C 0.6535(2) 0.9104(2) 0.8778(2)
C56 C 0.76998(17) 0.86704(17) 1.06536(18)
C57 C 0.30054(16) 0.52589(16) 0.57825(18)
C58 C 0.3916(2) 0.38990(18) 0.50427(19)
C59 C 0.37201(18) 0.43809(17) 0.55380(18)
H31 H 0.392820 0.447070 0.606044
C60 C 0.32198(18) 0.47306(17) 0.52675(18)
C61 C 0.2905(2) 0.45906(19) 0.4488(2)
H32 H 0.255739 0.482989 0.430921
C62 C 0.3088(3) 0.4116(2) 0.3980(2)
H33 H 0.287194 0.402357 0.345587
C63 C 0.3602(2) 0.3778(2) 0.4266(2)
C64 C 0.44219(19) 0.34640(18) 0.51245(19)
C65 C 0.48872(18) 0.33441(16) 0.57272(18)
H34 H 0.491088 0.357085 0.621587
C66 C 0.53175(17) 0.28891(16) 0.56074(18)
C67 C 0.5285(2) 0.25540(18) 0.4883(2)
H35 H 0.558889 0.224995 0.481300
C68 C 0.4824(2) 0.2659(2) 0.4278(2)
H36 H 0.480041 0.242710 0.378953
C69 C 0.4388(2) 0.3116(2) 0.4396(2)
C70 C 0.58085(16) 0.27371(15) 0.62392(18)
C71 C 0.74010(17) 0.20246(16) 0.83343(18)
C72 C 0.82199(19) 0.18836(18) 1.01599(19)
C73 C 0.78144(18) 0.20779(16) 0.96029(17)
H37 H 0.751919 0.238739 0.968817
C74 C 0.78400(18) 0.18222(17) 0.89270(18)
C75 C 0.8283(2) 0.1358(2) 0.8804(2)
H38 H 0.829924 0.118333 0.833688
C76 C 0.8689(2) 0.1156(2) 0.9345(2)
H39 H 0.897774 0.084133 0.925341
C77 C 0.8665(2) 0.1425(2) 1.0033(2)
C78 C 0.83183(19) 0.20580(18) 1.09094(19)
C79 C 0.80273(18) 0.24712(17) 1.13445(18)
H40 H 0.767874 0.269964 1.114230
C80 C 0.82493(18) 0.25460(17) 1.20719(19)
C81 C 0.8767(2) 0.2210(2) 1.2366(2)
H41 H 0.892600 0.227850 1.287433
C82 C 0.9052(3) 0.1785(2) 1.1945(2)
H42 H 0.939606 0.155412 1.215038
C83 C 0.8820(2) 0.1703(2) 1.1204(2)
C84 C 0.79330(17) 0.29873(16) 1.25324(17)
C85 C 0.0256(2) -0.0350(2) 0.7019(3)
H43 H 0.070571 -0.045327 0.708846
C86 C -0.0300(5) -0.1598(3) 0.6255(4)
H44 H -0.072393 -0.184490 0.573067
H45 H -0.029940 -0.181997 0.655756
H46 H 0.014122 -0.161327 0.622074
C87 C -0.1034(4) -0.0769(4) 0.6545(6)
H47 H -0.132860 -0.076671 0.605278
H48 H -0.096398 -0.032373 0.697696
H49 H -0.127970 -0.114572 0.654706
C88 C 0.3854(3) 0.5356(3) 0.8079(3)
H50 H 0.358962 0.497404 0.756779
C89 C 0.4573(4) 0.4583(4) 0.8445(5)
H51 H 0.439782 0.431516 0.788651
H52 H 0.435732 0.431945 0.859618
H53 H 0.510132 0.466964 0.873536
C90 C 0.4784(4) 0.5802(4) 0.9419(4)
H54 H 0.529122 0.592581 0.956614
H55 H 0.475271 0.565142 0.976587
H56 H 0.458208 0.620776 0.946162
C91 C 0.7971(2) 0.1505(2) 0.6595(3)
H57 H 0.820218 0.187242 0.711566
C92 C 0.9145(3) 0.1288(5) 0.6891(4)
H58 H 0.939952 0.124797 0.660650
H59 H 0.923991 0.095319 0.708639
H60 H 0.931761 0.175951 0.732955
C93 C 0.8058(4) 0.0562(4) 0.5597(4)
H61 H 0.821836 0.067381 0.529641
H62 H 0.752942 0.046805 0.534403
H63 H 0.821100 0.015141 0.562509
O28 O 0.31459(13) 0.30080(12) 0.92130(15)
O29 O 0.59672(16) 0.34180(15) 0.84588(16)
O30 O 0.15158(13) 0.63869(14) 0.50609(14)
Cr1A Cr 0.78455(2) 0.78785(2) 1.14527(3)
Cr2A Cr 0.88323(2) 0.88154(2) 1.20750(3)
Cr3A Cr 0.70546(2) 0.39305(2) 1.28359(3)
Cr4A Cr 0.78126(2) 0.37377(2) 1.38849(3)
Cr5A Cr 0.35911(3) 0.72395(2) 1.22941(3)
Cr6A Cr 0.31882(2) 0.79626(2) 1.31113(3)
O1A O 0.83310(11) 0.72847(11) 1.09005(13)
O2A O 0.92942(11) 0.81720(10) 1.15263(13)
O3A O 0.72761(11) 0.35484(10) 0.82110(12)
O4A O 0.76671(11) 0.28581(10) 0.74357(11)
O5A O 0.83691(11) 0.76309(10) 1.23138(12)
O6A O 0.92839(11) 0.85554(10) 1.29239(12)
O7A O 0.78625(11) 0.47288(11) 1.32423(12)
O8A O 0.85810(11) 0.45295(11) 1.42224(12)
O9A O 0.74231(11) 0.85143(10) 1.20660(12)
O10A O 0.83334(10) 0.94169(10) 1.25984(12)
O11A O 0.44190(11) 0.80615(10) 1.28003(12)
O12A O 0.40257(11) 0.87534(10) 1.35750(12)
O13A O 0.62777(11) 0.31513(11) 1.25144(12)
O14A O 0.69988(11) 0.29569(10) 1.34990(12)
O15A O 0.26278(11) 0.18353(11) 0.93709(12)
O16A O 0.16711(11) 0.09688(11) 0.88126(12)
O17A O 0.67126(11) 0.46182(11) 1.35155(12)
O18A O 0.74430(11) 0.44317(11) 1.45047(12)
O19A O 0.41840(11) 0.69756(10) 1.31254(12)
O20A O 0.38085(11) 0.76856(11) 1.39073(12)
O21A O 0.29751(12) 0.75476(11) 1.15118(13)
O22A O 0.25922(12) 0.82368(11) 1.22950(12)
O23A O 0.25476(11) 0.67403(10) 0.77807(11)
O24A O 0.18351(11) 0.69300(10) 0.67871(11)
O25A O 0.97689(13) 0.97537(13) 1.27203(16)
O26A O 0.63151(15) 0.40998(15) 1.18265(16)
O27A O 0.26899(12) 0.85815(12) 1.38079(13)
N1A N 1.01568(14) 0.56353(13) 0.95219(16)
H1A H 1.056395 0.567100 0.951685
N2A N 1.04503(15) 0.73956(14) 1.53046(16)
H2A H 1.085615 0.761510 1.575365
N3A N 0.66037(14) 1.08611(13) 1.42705(15)
H3A H 0.672050 1.131113 1.458225
N4A N 0.39557(16) 0.08628(18) 1.18726(18)
H4A H 0.386730 0.059189 1.203990
N5A N 0.6108(2) 0.66957(18) 1.61114(18)
H5A H 0.622312 0.685118 1.659810
N6A N 0.0988(2) 0.86828(19) 0.9338(2)
H6A H 0.068994 0.895461 0.928820
N7A N 1.0326(3) 1.0876(2) 1.3365(3)
N8A N 0.5627(3) 0.4763(3) 1.1384(3)
N9A N 0.16234(19) 0.8854(2) 1.3622(2)
C1A C 0.89569(17) 0.75406(16) 1.10686(18)
C2A C 0.92736(16) 0.59119(16) 0.98182(18)
C3A C 0.89567(16) 0.63595(15) 1.01855(17)
H7A H 0.849872 0.618967 1.009952
C4A C 0.93105(17) 0.70583(16) 1.06807(19)
C5A C 0.99906(18) 0.73013(17) 1.0806(2)
H8A H 1.023211 0.777886 1.115055
C6A C 1.03163(18) 0.68700(18) 1.0445(2)
H9A H 1.077414 0.704270 1.053276
C7A C 0.99541(17) 0.61715(16) 0.99473(19)
C8A C 0.90587(16) 0.51778(16) 0.92807(17)
C9A C 0.84503(16) 0.46569(16) 0.89271(17)
H10A H 0.807317 0.475253 0.904201
C10A C 0.83987(17) 0.39882(16) 0.83985(17)
C11A C 0.89605(18) 0.38558(17) 0.82353(19)
H11A H 0.891304 0.340093 0.786579
C12A C 0.95797(18) 0.43633(17) 0.8593(2)
H12A H 0.996433 0.425927 0.849300
C13A C 0.96212(17) 0.50335(17) 0.91049(19)
C14A C 0.77358(17) 0.34285(15) 0.79913(17)
C15A C 0.89776(16) 0.80249(16) 1.28769(18)
C16A C 0.94984(16) 0.71338(16) 1.41140(18)
C17A C 0.91117(17) 0.72658(16) 1.34950(18)
H13A H 0.866923 0.694977 1.305612
C18A C 0.93766(16) 0.78594(16) 1.35245(19)
C19A C 1.00325(19) 0.83283(18) 1.4176(2)
H14A H 1.020858 0.873127 1.418437
C20A C 1.04231(19) 0.82211(19) 1.4797(2)
H15A H 1.086261 0.854348 1.523474
C21A C 1.01541(17) 0.76204(17) 1.47678(19)
C22A C 0.94087(16) 0.65830(16) 1.42895(18)
C23A C 0.88979(16) 0.59593(16) 1.38992(18)
H16A H 0.848953 0.582086 1.340143
C24A C 0.89920(16) 0.55418(16) 1.42459(18)
C25A C 0.96010(17) 0.57471(17) 1.49805(19)
H17A H 0.965827 0.545317 1.520726
C26A C 1.01125(17) 0.63558(17) 1.53781(19)
H18A H 1.052057 0.648754 1.587398
C27A C 1.00160(17) 0.67770(16) 1.50323(18)
C28A C 0.84429(16) 0.48884(16) 1.38730(18)
C29A C 0.77477(16) 0.91493(15) 1.25057(17)
C30A C 0.65904(16) 0.98060(15) 1.34114(17)
C31A C 0.68473(16) 0.93493(15) 1.29555(17)
H19A H 0.662194 0.886609 1.265142
C32A C 0.74391(16) 0.96188(15) 1.29580(17)
C33A C 0.77593(16) 1.03339(15) 1.33929(18)
H20A H 0.816237 1.050650 1.338527
C34A C 0.75055(17) 1.07952(16) 1.38326(19)
H21A H 0.771668 1.128062 1.411175
C35A C 0.69315(17) 1.05244(15) 1.38519(18)
C36A C 0.60311(16) 0.97156(15) 1.35821(18)
C37A C 0.55096(17) 0.91504(15) 1.33245(18)
H22A H 0.547528 0.870169 1.295419
C38A C 0.50340(16) 0.92417(16) 1.36104(18)
C39A C 0.50985(17) 0.99099(16) 1.41630(18)
H23A H 0.478063 0.996679 1.436419
C40A C 0.56041(17) 1.04846(16) 1.44236(18)
H24A H 0.563545 1.093230 1.479339
C41A C 0.60678(17) 1.03849(15) 1.41247(17)
C42A C 0.44597(17) 0.86484(16) 1.33122(18)
C43A C 0.63934(16) 0.28346(16) 1.29169(17)
C44A C 0.45413(18) 0.16652(18) 1.17901(18)
C45A C 0.51230(18) 0.21593(18) 1.20197(19)
H25A H 0.507310 0.239470 1.173120
C46A C 0.57763(17) 0.23039(17) 1.26745(18)
C47A C 0.58451(18) 0.19447(17) 1.30925(18)
H26A H 0.629954 0.203939 1.353382
C48A C 0.52656(19) 0.14570(18) 1.2875(2)
H27A H 0.531634 0.122211 1.316398
C49A C 0.46075(19) 0.13205(19) 1.2221(2)
C50A C 0.37976(18) 0.13978(18) 1.11456(19)
C51A C 0.34187(18) 0.15330(18) 1.05382(19)
H28A H 0.364442 0.187183 1.049190
C52A C 0.26979(17) 0.11656(17) 0.99905(18)
C53A C 0.23795(19) 0.0659(2) 1.0060(2)
H29A H 0.189524 0.039933 0.967356
C54A C 0.2743(2) 0.0522(2) 1.0670(2)
H30A H 0.251294 0.018562 1.071586
C55A C 0.3465(2) 0.0896(2) 1.1222(2)
C56A C 0.23002(17) 0.13296(17) 0.93464(18)
C57A C 0.69946(16) 0.47411(16) 1.42175(18)
C58A C 0.6084(2) 0.61010(18) 1.49573(19)
C59A C 0.62799(18) 0.56191(17) 1.44620(18)
H31A H 0.607180 0.552930 1.393956
C60A C 0.67802(18) 0.52694(17) 1.47325(18)
C61A C 0.7095(2) 0.54094(19) 1.5512(2)
H32A H 0.744261 0.517011 1.569079
C62A C 0.6912(3) 0.5884(2) 1.6020(2)
H33A H 0.712806 0.597643 1.654413
C63A C 0.6398(2) 0.6222(2) 1.5734(2)
C64A C 0.55781(19) 0.65360(18) 1.48755(19)
C65A C 0.51128(18) 0.66559(16) 1.42728(18)
H34A H 0.508912 0.642915 1.378413
C66A C 0.46825(17) 0.71109(16) 1.43926(18)
C67A C 0.4715(2) 0.74460(18) 1.5117(2)
H35A H 0.441111 0.775005 1.518700
C68A C 0.5176(2) 0.7341(2) 1.5722(2)
H36A H 0.519959 0.757290 1.621047
C69A C 0.5612(2) 0.6884(2) 1.5604(2)
C70A C 0.41915(16) 0.72629(15) 1.37608(18)
C71A C 0.25990(17) 0.79754(16) 1.16657(18)
C72A C 0.17801(19) 0.81164(18) 0.98401(19)
C73A C 0.21856(18) 0.79221(16) 1.03971(17)
H37A H 0.248081 0.761261 1.031183
C74A C 0.21600(18) 0.81778(17) 1.10730(18)
C75A C 0.1717(2) 0.8642(2) 1.1196(2)
H38A H 0.170076 0.881667 1.166312
C76A C 0.1311(2) 0.8844(2) 1.0655(2)
H39A H 0.102226 0.915867 1.074659
C77A C 0.1335(2) 0.8575(2) 0.9967(2)
C78A C 0.16817(19) 0.79420(18) 0.90906(19)
C79A C 0.19727(18) 0.75288(17) 0.86555(18)
H40A H 0.232126 0.730036 0.885770
C80A C 0.17507(18) 0.74540(17) 0.79281(19)
C81A C 0.1233(2) 0.7790(2) 0.7634(2)
H41A H 0.107400 0.772150 0.712567
C82A C 0.0948(3) 0.8215(2) 0.8055(2)
H42A H 0.060394 0.844588 0.784962
C83A C 0.1180(2) 0.8297(2) 0.8796(2)
C84A C 0.20670(17) 0.70127(16) 0.74676(17)
C85A C 0.9744(2) 1.0350(2) 1.2981(3)
H43A H 0.929429 1.045327 1.291154
C86A C 1.0300(5) 1.1598(3) 1.3745(4)
H44A H 1.072393 1.184490 1.426933
H45A H 1.029940 1.181997 1.344244
H46A H 0.985878 1.161327 1.377926
C87A C 1.1034(4) 1.0769(4) 1.3455(6)
H47A H 1.132860 1.076671 1.394722
H48A H 1.096398 1.032373 1.302304
H49A H 1.127970 1.114572 1.345294
C88A C 0.6146(3) 0.4644(3) 1.1921(3)
H50A H 0.641038 0.502596 1.243221
C89A C 0.5427(4) 0.5417(4) 1.1555(5)
H51A H 0.560218 0.568484 1.211349
H52A H 0.564268 0.568055 1.140382
H53A H 0.489868 0.533036 1.126464
C90A C 0.5216(4) 0.4198(4) 1.0581(4)
H54A H 0.470878 0.407419 1.043386
H55A H 0.524729 0.434858 1.023413
H56A H 0.541792 0.379224 1.053838
C91A C 0.2029(2) 0.8495(2) 1.3405(3)
H57A H 0.179782 0.812758 1.288434
C92A C 0.0855(3) 0.8712(5) 1.3109(4)
H58A H 0.060048 0.875203 1.339350
H59A H 0.076009 0.904681 1.291361
H60A H 0.068239 0.824049 1.267045
C93A C 0.1942(4) 0.9438(4) 1.4403(4)
H61A H 0.178164 0.932619 1.470359
H62A H 0.247058 0.953195 1.465597
H63A H 0.178900 0.984859 1.437491
O28A O 0.68541(13) 0.69920(12) 1.07870(15)
O29A O 0.40328(16) 0.65820(15) 1.15412(16)
O30A O 0.84842(13) 0.36131(14) 1.49391(14)
O31 O -0.12745(19) 0.42529(18) 1.0790(2)
N10 N -0.2258(2) 0.39605(18) 1.0834(2)
C94 C -0.1913(3) 0.3956(2) 1.0469(3)
H64 H -0.217568 0.370538 0.991689
C95 C -0.3022(3) 0.3620(3) 1.0414(4)
H65 H -0.330075 0.397089 1.046919
H66 H -0.309754 0.333275 1.062582
H67 H -0.318227 0.332518 0.986231
C96 C -0.1911(3) 0.4332(3) 1.1670(3)
H68 H -0.216528 0.468414 1.182571
H69 H -0.140697 0.455891 1.189093
H70 H -0.192650 0.400632 1.186100
O32 O -0.16010(14) 0.15681(13) 0.32957(14)
N11 N -0.2631(2) 0.10913(18) 0.2131(2)
C97 C -0.2226(2) 0.15563(19) 0.2883(2)
H71 H -0.243526 0.189737 0.311104
C98 C -0.3341(3) 0.1161(3) 0.1674(3)
H72 H -0.338249 0.114767 0.120630
H73 H -0.340916 0.160459 0.198255
H74 H -0.371194 0.077879 0.152316
C99 C -0.2364(3) 0.0545(2) 0.1742(3)
H75 H -0.272594 0.010172 0.143842
H76 H -0.191488 0.051553 0.212945
H77 H -0.226908 0.064623 0.139528
O33 O 0.29367(17) -0.22978(12) 0.49823(16)
N12 N 0.29080(18) -0.34071(15) 0.42599(17)
C100 C 0.2822(2) -0.27833(18) 0.4362(2)
H78 H 0.266105 -0.270415 0.392965
C101 C 0.2783(3) -0.3957(2) 0.3521(2)
H79 H 0.242775 -0.436452 0.334686
H80 H 0.323883 -0.408266 0.358259
H81 H 0.259980 -0.379656 0.313415
C102 C 0.3162(4) -0.3562(2) 0.4893(3)
H82 H 0.280672 -0.395157 0.475326
H83 H 0.322740 -0.315337 0.535828
H84 H 0.362498 -0.368613 0.499774
O34 O 0.6355(3) 0.9650(4) 0.7298(4)
N13 N 0.6523(4) 0.9520(5) 0.6313(7)
C103 C 0.6562(5) 0.9913(6) 0.7035(7)
H85 H 0.675963 1.040102 0.731494
C104 C 0.6824(5) 0.9899(5) 0.6145(7)
H86 H 0.675679 0.971435 0.563695
H87 H 0.710930 1.035748 0.653025
C105 C 0.6103(6) 0.8849(7) 0.5768(8)
H88 H 0.602608 0.865112 0.525568
H89 H 0.589087 0.858681 0.590664
loop_
_geom_bond_atom_site_label_1
_geom_bond_atom_site_label_2
_geom_bond_site_symmetry_1
_geom_bond_site_symmetry_2
Cr1 Cr2 1_555 1_555
Cr2 O2 1_555 1_555
Cr3 Cr4 1_555 1_555
Cr4 O8 1_555 1_555
Cr5 Cr6 1_555 1_555
Cr6 O12 1_555 1_555
O1 Cr1 1_555 1_555
O2 C1 1_555 1_555
O3 C14 1_555 1_555
O4 C14 1_555 1_555
O5 Cr1 1_555 1_555
O6 Cr2 1_555 1_555
O7 Cr3 1_555 1_555
O8 C28 1_555 1_555
O9 Cr1 1_555 1_555
O10 Cr2 1_555 1_555
O11 Cr5 1_555 1_555
O12 C42 1_555 1_555
O13 Cr3 1_555 1_555
O14 Cr4 1_555 1_555
O15 C56 1_555 1_555
O16 C56 1_555 1_555
O17 Cr3 1_555 1_555
O18 Cr4 1_555 1_555
O19 Cr5 1_555 1_555
O20 Cr6 1_555 1_555
O21 Cr5 1_555 1_555
O22 Cr6 1_555 1_555
O23 C84 1_555 1_555
O24 C84 1_555 1_555
O25 Cr2 1_555 1_555
O26 Cr3 1_555 1_555
O27 Cr6 1_555 1_555
N1 H1 1_555 1_555
N2 H2 1_555 1_555
N3 H3 1_555 1_555
N4 H4 1_555 1_555
N5 H5 1_555 1_555
N6 H6 1_555 1_555
N7 C85 1_555 1_555
N8 C88 1_555 1_555
N9 C91 1_555 1_555
C1 O1 1_555 1_555
C2 C3 1_555 1_555
C3 H7 1_555 1_555
C4 C1 1_555 1_555
C5 C4 1_555 1_555
H8 C5 1_555 1_555
C6 C5 1_555 1_555
H9 C6 1_555 1_555
C7 N1 1_555 1_555
C8 C2 1_555 1_555
C9 C8 1_555 1_555
H10 C9 1_555 1_555
C10 C9 1_555 1_555
C11 C10 1_555 1_555
H11 C11 1_555 1_555
C12 C11 1_555 1_555
H12 C12 1_555 1_555
C13 N1 1_555 1_555
C14 C10 1_555 1_555
C15 O5 1_555 1_555
C16 C17 1_555 1_555
C17 H13 1_555 1_555
C18 C15 1_555 1_555
C19 C18 1_555 1_555
H14 C19 1_555 1_555
C20 C19 1_555 1_555
H15 C20 1_555 1_555
C21 N2 1_555 1_555
C22 C16 1_555 1_555
C23 C22 1_555 1_555
H16 C23 1_555 1_555
C24 C23 1_555 1_555
C25 C24 1_555 1_555
H17 C25 1_555 1_555
C26 C25 1_555 1_555
H18 C26 1_555 1_555
C27 N2 1_555 1_555
C28 O7 1_555 1_555
C29 O9 1_555 1_555
C30 C31 1_555 1_555
C31 H19 1_555 1_555
C32 C29 1_555 1_555
C33 C32 1_555 1_555
H20 C33 1_555 1_555
C34 C33 1_555 1_555
H21 C34 1_555 1_555
C35 N3 1_555 1_555
C36 C30 1_555 1_555
C37 C36 1_555 1_555
H22 C37 1_555 1_555
C38 C37 1_555 1_555
C39 C38 1_555 1_555
H23 C39 1_555 1_555
C40 C39 1_555 1_555
H24 C40 1_555 1_555
C41 N3 1_555 1_555
C42 O11 1_555 1_555
C43 O13 1_555 1_555
C44 C45 1_555 1_555
C45 H25 1_555 1_555
C46 C43 1_555 1_555
C47 C46 1_555 1_555
H26 C47 1_555 1_555
C48 C47 1_555 1_555
H27 C48 1_555 1_555
C49 N4 1_555 1_555
C50 C44 1_555 1_555
C51 C50 1_555 1_555
H28 C51 1_555 1_555
C52 C51 1_555 1_555
C53 C52 1_555 1_555
H29 C53 1_555 1_555
C54 C53 1_555 1_555
H30 C54 1_555 1_555
C55 N4 1_555 1_555
C56 C52 1_555 1_555
C57 O17 1_555 1_555
C58 C59 1_555 1_555
C59 H31 1_555 1_555
C60 C57 1_555 1_555
C61 C60 1_555 1_555
H32 C61 1_555 1_555
C62 C61 1_555 1_555
H33 C62 1_555 1_555
C63 N5 1_555 1_555
C64 C58 1_555 1_555
C65 C64 1_555 1_555
H34 C65 1_555 1_555
C66 C65 1_555 1_555
C67 C66 1_555 1_555
H35 C67 1_555 1_555
C68 C67 1_555 1_555
H36 C68 1_555 1_555
C69 N5 1_555 1_555
C70 O19 1_555 1_555
C71 O21 1_555 1_555
C72 C73 1_555 1_555
C73 H37 1_555 1_555
C74 C71 1_555 1_555
C75 C74 1_555 1_555
H38 C75 1_555 1_555
C76 C75 1_555 1_555
H39 C76 1_555 1_555
C77 N6 1_555 1_555
C78 C72 1_555 1_555
C79 C78 1_555 1_555
H40 C79 1_555 1_555
C80 C79 1_555 1_555
C81 C80 1_555 1_555
H41 C81 1_555 1_555
C82 C81 1_555 1_555
H42 C82 1_555 1_555
C83 N6 1_555 1_555
C84 C80 1_555 1_555
C85 O25 1_555 1_555
H43 C85 1_555 1_555
C86 N7 1_555 1_555
H44 C86 1_555 1_555
H45 C86 1_555 1_555
H46 C86 1_555 1_555
C87 N7 1_555 1_555
H47 C87 1_555 1_555
H48 C87 1_555 1_555
H49 C87 1_555 1_555
C88 O26 1_555 1_555
H50 C88 1_555 1_555
C89 N8 1_555 1_555
H51 C89 1_555 1_555
H52 C89 1_555 1_555
H53 C89 1_555 1_555
C90 N8 1_555 1_555
H54 C90 1_555 1_555
H55 C90 1_555 1_555
H56 C90 1_555 1_555
C91 O27 1_555 1_555
H57 C91 1_555 1_555
C92 N9 1_555 1_555
H58 C92 1_555 1_555
H59 C92 1_555 1_555
H60 C92 1_555 1_555
C93 N9 1_555 1_555
H61 C93 1_555 1_555
H62 C93 1_555 1_555
H63 C93 1_555 1_555
O28 Cr1 1_555 1_555
O29 Cr5 1_555 1_555
O30 Cr4 1_555 1_555
O31 C94 1_555 1_555
N10 C94 1_555 1_555
C94 H64 1_555 1_555
C95 N10 1_555 1_555
H65 C95 1_555 1_555
H66 C95 1_555 1_555
H67 C95 1_555 1_555
C96 N10 1_555 1_555
H68 C96 1_555 1_555
H69 C96 1_555 1_555
H70 C96 1_555 1_555
O32 C97 1_555 1_555
N11 C97 1_555 1_555
C97 H71 1_555 1_555
C98 N11 1_555 1_555
H72 C98 1_555 1_555
H73 C98 1_555 1_555
H74 C98 1_555 1_555
C99 N11 1_555 1_555
H75 C99 1_555 1_555
H76 C99 1_555 1_555
H77 C99 1_555 1_555
O33 C100 1_555 1_555
N12 C100 1_555 1_555
C100 H78 1_555 1_555
C101 N12 1_555 1_555
H79 C101 1_555 1_555
H80 C101 1_555 1_555
H81 C101 1_555 1_555
C102 N12 1_555 1_555
H82 C102 1_555 1_555
H83 C102 1_555 1_555
H84 C102 1_555 1_555
O34 C103 1_555 1_555
N13 C103 1_555 1_555
C103 H85 1_555 1_555
C104 N13 1_555 1_555
H86 C104 1_555 1_555
H87 C104 1_555 1_555
C105 N13 1_555 1_555
H88 C105 1_555 1_555
H89 C105 1_555 1_555
Cr1A O15 1_555 1_555
Cr2A O16 1_555 1_555
Cr3A O23 1_555 1_555
Cr4A O24 1_555 1_555
Cr5A O3 1_555 1_555
Cr6A O4 1_555 1_555
O1A Cr1A 1_555 1_555
O2A Cr2A 1_555 1_555
O3A Cr5 1_555 1_555
O4A Cr6 1_555 1_555
O5A Cr1A 1_555 1_555
O6A Cr2A 1_555 1_555
O7A Cr3A 1_555 1_555
O8A Cr4A 1_555 1_555
O9A Cr1A 1_555 1_555
O10A Cr2A 1_555 1_555
O11A Cr5A 1_555 1_555
O12A Cr6A 1_555 1_555
O13A Cr3A 1_555 1_555
O14A Cr4A 1_555 1_555
O15A Cr1 1_555 1_555
O16A Cr2 1_555 1_555
O17A Cr3A 1_555 1_555
O18A Cr4A 1_555 1_555
O19A Cr5A 1_555 1_555
O20A Cr6A 1_555 1_555
O21A Cr5A 1_555 1_555
O22A Cr6A 1_555 1_555
O23A Cr3 1_555 1_555
O24A Cr4 1_555 1_555
O25A Cr2A 1_555 1_555
O26A Cr3A 1_555 1_555
O27A Cr6A 1_555 1_555
N1A H1A 1_555 1_555
N2A H2A 1_555 1_555
N3A H3A 1_555 1_555
N4A H4A 1_555 1_555
N5A H5A 1_555 1_555
N6A H6A 1_555 1_555
N7A C85A 1_555 1_555
N8A C88A 1_555 1_555
N9A C91A 1_555 1_555
C1A O1A 1_555 1_555
C2A C3A 1_555 1_555
C3A H7A 1_555 1_555
C4A C1A 1_555 1_555
C5A C4A 1_555 1_555
H8A C5A 1_555 1_555
C6A C5A 1_555 1_555
H9A C6A 1_555 1_555
C7A N1A 1_555 1_555
C8A C2A 1_555 1_555
C9A C8A 1_555 1_555
H10A C9A 1_555 1_555
C10A C9A 1_555 1_555
C11A C10A 1_555 1_555
H11A C11A 1_555 1_555
C12A C11A 1_555 1_555
H12A C12A 1_555 1_555
C13A N1A 1_555 1_555
C14A O3A 1_555 1_555
C15A O5A 1_555 1_555
C16A C17A 1_555 1_555
C17A H13A 1_555 1_555
C18A C15A 1_555 1_555
C19A C18A 1_555 1_555
H14A C19A 1_555 1_555
C20A C19A 1_555 1_555
H15A C20A 1_555 1_555
C21A N2A 1_555 1_555
C22A C16A 1_555 1_555
C23A C22A 1_555 1_555
H16A C23A 1_555 1_555
C24A C23A 1_555 1_555
C25A C24A 1_555 1_555
H17A C25A 1_555 1_555
C26A C25A 1_555 1_555
H18A C26A 1_555 1_555
C27A N2A 1_555 1_555
C28A O7A 1_555 1_555
C29A O9A 1_555 1_555
C30A C31A 1_555 1_555
C31A H19A 1_555 1_555
C32A C29A 1_555 1_555
C33A C32A 1_555 1_555
H20A C33A 1_555 1_555
C34A C33A 1_555 1_555
H21A C34A 1_555 1_555
C35A N3A 1_555 1_555
C36A C30A 1_555 1_555
C37A C36A 1_555 1_555
H22A C37A 1_555 1_555
C38A C37A 1_555 1_555
C39A C38A 1_555 1_555
H23A C39A 1_555 1_555
C40A C39A 1_555 1_555
H24A C40A 1_555 1_555
C41A N3A 1_555 1_555
C42A O11A 1_555 1_555
C43A O13A 1_555 1_555
C44A C45A 1_555 1_555
C45A H25A 1_555 1_555
C46A C43A 1_555 1_555
C47A C46A 1_555 1_555
H26A C47A 1_555 1_555
C48A C47A 1_555 1_555
H27A C48A 1_555 1_555
C49A N4A 1_555 1_555
C50A C44A 1_555 1_555
C51A C50A 1_555 1_555
H28A C51A 1_555 1_555
C52A C51A 1_555 1_555
C53A C52A 1_555 1_555
H29A C53A 1_555 1_555
C54A C53A 1_555 1_555
H30A C54A 1_555 1_555
C55A N4A 1_555 1_555
C56A O15A 1_555 1_555
C57A O17A 1_555 1_555
C58A C59A 1_555 1_555
C59A H31A 1_555 1_555
C60A C57A 1_555 1_555
C61A C60A 1_555 1_555
H32A C61A 1_555 1_555
C62A C61A 1_555 1_555
H33A C62A 1_555 1_555
C63A N5A 1_555 1_555
C64A C58A 1_555 1_555
C65A C64A 1_555 1_555
H34A C65A 1_555 1_555
C66A C65A 1_555 1_555
C67A C66A 1_555 1_555
H35A C67A 1_555 1_555
C68A C67A 1_555 1_555
H36A C68A 1_555 1_555
C69A N5A 1_555 1_555
C70A O19A 1_555 1_555
C71A O21A 1_555 1_555
C72A C73A 1_555 1_555
C73A H37A 1_555 1_555
C74A C71A 1_555 1_555
C75A C74A 1_555 1_555
H38A C75A 1_555 1_555
C76A C75A 1_555 1_555
H39A C76A 1_555 1_555
C77A N6A 1_555 1_555
C78A C72A 1_555 1_555
C79A C78A 1_555 1_555
H40A C79A 1_555 1_555
C80A C79A 1_555 1_555
C81A C80A 1_555 1_555
H41A C81A 1_555 1_555
C82A C81A 1_555 1_555
H42A C82A 1_555 1_555
C83A N6A 1_555 1_555
C84A O23A 1_555 1_555
C85A O25A 1_555 1_555
H43A C85A 1_555 1_555
C86A N7A 1_555 1_555
H44A C86A 1_555 1_555
H45A C86A 1_555 1_555
H46A C86A 1_555 1_555
C87A N7A 1_555 1_555
H47A C87A 1_555 1_555
H48A C87A 1_555 1_555
H49A C87A 1_555 1_555
C88A O26A 1_555 1_555
H50A C88A 1_555 1_555
C89A N8A 1_555 1_555
H51A C89A 1_555 1_555
H52A C89A 1_555 1_555
H53A C89A 1_555 1_555
C90A N8A 1_555 1_555
H54A C90A 1_555 1_555
H55A C90A 1_555 1_555
H56A C90A 1_555 1_555
C91A O27A 1_555 1_555
H57A C91A 1_555 1_555
C92A N9A 1_555 1_555
H58A C92A 1_555 1_555
H59A C92A 1_555 1_555
H60A C92A 1_555 1_555
C93A N9A 1_555 1_555
H61A C93A 1_555 1_555
H62A C93A 1_555 1_555
H63A C93A 1_555 1_555
O28A Cr1A 1_555 1_555
O29A Cr5A 1_555 1_555
O30A Cr4A 1_555 1_555
O6 C15 1_555 1_555
O10 C29 1_555 1_555
O14 C43 1_555 1_555
O18 C57 1_555 1_555
O20 C70 1_555 1_555
O22 C71 1_555 1_555
C2 C7 1_555 1_555
C3 C4 1_555 1_555
C6 C7 1_555 1_555
C8 C13 1_555 1_555
C12 C13 1_555 1_555
C16 C21 1_555 1_555
C17 C18 1_555 1_555
C20 C21 1_555 1_555
C22 C27 1_555 1_555
C24 C28 1_555 1_555
C26 C27 1_555 1_555
C30 C35 1_555 1_555
C31 C32 1_555 1_555
C34 C35 1_555 1_555
C36 C41 1_555 1_555
C38 C42 1_555 1_555
C40 C41 1_555 1_555
C44 C49 1_555 1_555
C45 C46 1_555 1_555
C48 C49 1_555 1_555
C50 C55 1_555 1_555
C54 C55 1_555 1_555
C58 C63 1_555 1_555
C59 C60 1_555 1_555
C62 C63 1_555 1_555
C64 C69 1_555 1_555
C66 C70 1_555 1_555
C68 C69 1_555 1_555
C72 C77 1_555 1_555
C73 C74 1_555 1_555
C76 C77 1_555 1_555
C78 C83 1_555 1_555
C82 C83 1_555 1_555
Cr1A Cr2A 1_555 1_555
Cr3A Cr4A 1_555 1_555
Cr5A Cr6A 1_555 1_555
O2A C1A 1_555 1_555
O4A C14A 1_555 1_555
O6A C15A 1_555 1_555
O8A C28A 1_555 1_555
O10A C29A 1_555 1_555
O12A C42A 1_555 1_555
O14A C43A 1_555 1_555
O16A C56A 1_555 1_555
O18A C57A 1_555 1_555
O20A C70A 1_555 1_555
O22A C71A 1_555 1_555
O24A C84A 1_555 1_555
C2A C7A 1_555 1_555
C3A C4A 1_555 1_555
C6A C7A 1_555 1_555
C8A C13A 1_555 1_555
C10A C14A 1_555 1_555
C12A C13A 1_555 1_555
C16A C21A 1_555 1_555
C17A C18A 1_555 1_555
C20A C21A 1_555 1_555
C22A C27A 1_555 1_555
C24A C28A 1_555 1_555
C26A C27A 1_555 1_555
C30A C35A 1_555 1_555
C31A C32A 1_555 1_555
C34A C35A 1_555 1_555
C36A C41A 1_555 1_555
C38A C42A 1_555 1_555
C40A C41A 1_555 1_555
C44A C49A 1_555 1_555
C45A C46A 1_555 1_555
C48A C49A 1_555 1_555
C50A C55A 1_555 1_555
C52A C56A 1_555 1_555
C54A C55A 1_555 1_555
C58A C63A 1_555 1_555
C59A C60A 1_555 1_555
C62A C63A 1_555 1_555
C64A C69A 1_555 1_555
C66A C70A 1_555 1_555
C68A C69A 1_555 1_555
C72A C77A 1_555 1_555
C73A C74A 1_555 1_555
C76A C77A 1_555 1_555
C78A C83A 1_555 1_555
C80A C84A 1_555 1_555
C82A C83A 1_555 1_555

#END
