# generated using pymatgen
data_Cu6H88C102(N4O11)3
_symmetry_space_group_name_H-M   'P 1'
_cell_length_a   23.34500000
_cell_length_b   23.95900000
_cell_length_c   27.43500000
_cell_angle_alpha   90.00000000
_cell_angle_beta   90.00000000
_cell_angle_gamma   99.00000000
_symmetry_Int_Tables_number   1
_chemical_formula_structural   Cu6H88C102(N4O11)3
_chemical_formula_sum   'Cu24 H352 C408 N48 O132'
_cell_volume   15156.09983601
_cell_formula_units_Z   4
loop_
 _symmetry_equiv_pos_site_id
 _symmetry_equiv_pos_as_xyz
  1  'x, y, z'
loop_
 _atom_site_type_symbol
 _atom_site_label
 _atom_site_symmetry_multiplicity
 _atom_site_fract_x
 _atom_site_fract_y
 _atom_site_fract_z
 _atom_site_occupancy
  Cu  Cu1  1  0.218450  0.537500  0.426310  1.0
  Cu  Cu2  1  0.281550  0.962500  0.926310  1.0
  Cu  Cu3  1  0.781550  0.462500  0.573690  1.0
  Cu  Cu4  1  0.718450  0.037500  0.073690  1.0
  Cu  Cu5  1  0.111570  0.547880  0.404360  1.0
  Cu  Cu6  1  0.388430  0.952120  0.904360  1.0
  Cu  Cu7  1  0.888430  0.452120  0.595640  1.0
  Cu  Cu8  1  0.611570  0.047880  0.095640  1.0
  Cu  Cu9  1  0.447890  0.551110  0.744350  1.0
  Cu  Cu10  1  0.052110  0.948890  0.244350  1.0
  Cu  Cu11  1  0.552110  0.448890  0.255650  1.0
  Cu  Cu12  1  0.947890  0.051110  0.755650  1.0
  Cu  Cu13  1  0.420120  0.570840  0.834500  1.0
  Cu  Cu14  1  0.079880  0.929160  0.334500  1.0
  Cu  Cu15  1  0.579880  0.429160  0.165500  1.0
  Cu  Cu16  1  0.920120  0.070840  0.665500  1.0
  Cu  Cu17  1  0.414730  0.212640  0.536530  1.0
  Cu  Cu18  1  0.085270  0.287360  0.036530  1.0
  Cu  Cu19  1  0.585270  0.787360  0.463470  1.0
  Cu  Cu20  1  0.914730  0.712640  0.963470  1.0
  Cu  Cu21  1  0.378970  0.105200  0.548480  1.0
  Cu  Cu22  1  0.121030  0.394800  0.048480  1.0
  Cu  Cu23  1  0.621030  0.894800  0.451520  1.0
  Cu  Cu24  1  0.878970  0.605200  0.951520  1.0
  H  H25  1  0.220394  0.019997  0.310677  1
  H  H26  1  0.279606  0.480003  0.810677  1
  H  H27  1  0.779606  0.980003  0.689323  1
  H  H28  1  0.720394  0.519997  0.189323  1
  H  H29  1  0.221328  0.052965  0.235045  1
  H  H30  1  0.278672  0.447035  0.735045  1
  H  H31  1  0.778672  0.947035  0.764955  1
  H  H32  1  0.721328  0.552965  0.264955  1
  H  H33  1  0.267766  0.033048  0.198663  1
  H  H34  1  0.232234  0.466952  0.698663  1
  H  H35  1  0.732234  0.966952  0.801337  1
  H  H36  1  0.767766  0.533048  0.301337  1
  H  H37  1  0.281458  0.093367  0.224818  1
  H  H38  1  0.218542  0.406633  0.724818  1
  H  H39  1  0.718542  0.906633  0.775182  1
  H  H40  1  0.781458  0.593367  0.275182  1
  H  H41  1  0.363520  0.996457  0.289409  1
  H  H42  1  0.136480  0.503543  0.789409  1
  H  H43  1  0.636480  0.003543  0.710591  1
  H  H44  1  0.863520  0.496457  0.210591  1
  H  H45  1  0.367650  0.026723  0.235415  1
  H  H46  1  0.132350  0.473277  0.735415  1
  H  H47  1  0.632350  0.973277  0.764585  1
  H  H48  1  0.867650  0.526723  0.264585  1
  H  H49  1  0.478083  0.029525  0.817068  1
  H  H50  1  0.021917  0.470475  0.317068  1
  H  H51  1  0.521917  0.970475  0.182932  1
  H  H52  1  0.978083  0.529525  0.682932  1
  H  H53  1  0.462014  0.159046  0.801301  1
  H  H54  1  0.037986  0.340954  0.301301  1
  H  H55  1  0.537986  0.840954  0.198699  1
  H  H56  1  0.962014  0.659046  0.698699  1
  H  H57  1  0.433623  0.103542  0.830212  1
  H  H58  1  0.066377  0.396458  0.330212  1
  H  H59  1  0.566377  0.896458  0.169788  1
  H  H60  1  0.933623  0.603542  0.669788  1
  H  H61  1  0.402910  0.122678  0.782215  1
  H  H62  1  0.097090  0.377322  0.282215  1
  H  H63  1  0.597090  0.877322  0.217785  1
  H  H64  1  0.902910  0.622678  0.717785  1
  H  H65  1  0.481377  0.144474  0.714019  1
  H  H66  1  0.018623  0.355526  0.214019  1
  H  H67  1  0.518623  0.855526  0.285981  1
  H  H68  1  0.981377  0.644474  0.785981  1
  H  H69  1  0.458975  0.081373  0.695820  1
  H  H70  1  0.041025  0.418627  0.195820  1
  H  H71  1  0.541025  0.918627  0.304180  1
  H  H72  1  0.958975  0.581373  0.804180  1
  H  H73  1  0.525790  0.100153  0.709711  1
  H  H74  1  0.974210  0.399847  0.209711  1
  H  H75  1  0.474210  0.899847  0.290289  1
  H  H76  1  0.025790  0.600153  0.790289  1
  H  H77  1  0.158459  0.279142  0.921604  1
  H  H78  1  0.341541  0.220858  0.421604  1
  H  H79  1  0.841541  0.720858  0.078396  1
  H  H80  1  0.658459  0.779142  0.578396  1
  H  H81  1  0.232385  0.384785  0.880893  1
  H  H82  1  0.267615  0.115215  0.380893  1
  H  H83  1  0.767615  0.615215  0.119107  1
  H  H84  1  0.732385  0.884785  0.619107  1
  H  H85  1  0.178246  0.370469  0.917008  1
  H  H86  1  0.321754  0.129531  0.417008  1
  H  H87  1  0.821754  0.629531  0.082992  1
  H  H88  1  0.678246  0.870469  0.582992  1
  H  H89  1  0.170784  0.401059  0.866061  1
  H  H90  1  0.329216  0.098941  0.366061  1
  H  H91  1  0.829216  0.598941  0.133939  1
  H  H92  1  0.670784  0.901059  0.633939  1
  H  H93  1  0.139010  0.332658  0.794635  1
  H  H94  1  0.360990  0.167342  0.294635  1
  H  H95  1  0.860990  0.667342  0.205365  1
  H  H96  1  0.639010  0.832658  0.705365  1
  H  H97  1  0.167545  0.276122  0.795171  1
  H  H98  1  0.332455  0.223878  0.295171  1
  H  H99  1  0.832455  0.723878  0.204829  1
  H  H100  1  0.667545  0.776122  0.704829  1
  H  H101  1  0.208024  0.336472  0.792622  1
  H  H102  1  0.291976  0.163528  0.292622  1
  H  H103  1  0.791976  0.663528  0.207378  1
  H  H104  1  0.708024  0.836472  0.707378  1
  H  H105  1  0.336166  0.569879  0.444381  1.0
  H  H106  1  0.163834  0.930121  0.944381  1.0
  H  H107  1  0.663834  0.430121  0.555619  1.0
  H  H108  1  0.836166  0.069879  0.055619  1.0
  H  H109  1  0.321515  0.501126  0.452799  1.0
  H  H110  1  0.178485  0.998874  0.952799  1.0
  H  H111  1  0.678485  0.498874  0.547201  1.0
  H  H112  1  0.821515  0.001126  0.047201  1.0
  H  H113  1  0.509215  0.526028  0.663463  1.0
  H  H114  1  0.990785  0.973972  0.163463  1.0
  H  H115  1  0.490785  0.473972  0.336537  1.0
  H  H116  1  0.009215  0.026028  0.836537  1.0
  H  H117  1  0.444962  0.536873  0.644589  1.0
  H  H118  1  0.055038  0.963127  0.144589  1.0
  H  H119  1  0.555038  0.463127  0.355411  1.0
  H  H120  1  0.944962  0.036873  0.855411  1.0
  H  H121  1  0.444089  0.327181  0.554035  1.0
  H  H122  1  0.055911  0.172819  0.054035  1.0
  H  H123  1  0.555911  0.672819  0.445965  1.0
  H  H124  1  0.944089  0.827181  0.945965  1.0
  H  H125  1  0.462416  0.315829  0.497402  1.0
  H  H126  1  0.037584  0.184171  0.997402  1.0
  H  H127  1  0.537584  0.684171  0.502598  1.0
  H  H128  1  0.962416  0.815829  0.002598  1.0
  H  H129  1  0.104152  0.664734  0.708035  1.0
  H  H130  1  0.395848  0.835266  0.208035  1.0
  H  H131  1  0.895848  0.335266  0.291965  1.0
  H  H132  1  0.604152  0.164734  0.791965  1.0
  H  H133  1  0.257523  0.910889  0.384558  1.0
  H  H134  1  0.242477  0.589111  0.884558  1.0
  H  H135  1  0.742477  0.089111  0.615442  1.0
  H  H136  1  0.757523  0.410889  0.115442  1.0
  H  H137  1  0.040359  0.180854  0.453713  1.0
  H  H138  1  0.459641  0.319146  0.953713  1.0
  H  H139  1  0.959641  0.819146  0.546287  1.0
  H  H140  1  0.540359  0.680854  0.046287  1.0
  H  H141  1  0.281962  0.206953  0.841836  1.0
  H  H142  1  0.218038  0.293047  0.341836  1.0
  H  H143  1  0.718038  0.793047  0.158164  1.0
  H  H144  1  0.781962  0.706953  0.658164  1.0
  H  H145  1  0.499639  0.927543  0.752560  1.0
  H  H146  1  0.000361  0.572457  0.252560  1.0
  H  H147  1  0.500361  0.072457  0.247440  1.0
  H  H148  1  0.999639  0.427543  0.747440  1.0
  H  H149  1  0.777943  0.512199  0.896060  1.0
  H  H150  1  0.722057  0.987801  0.396060  1.0
  H  H151  1  0.222057  0.487801  0.103940  1.0
  H  H152  1  0.277943  0.012199  0.603940  1.0
  H  H153  1  0.048244  0.643321  0.620343  1.0
  H  H154  1  0.451756  0.856679  0.120343  1.0
  H  H155  1  0.951756  0.356679  0.379657  1.0
  H  H156  1  0.548244  0.143321  0.879657  1.0
  H  H157  1  0.059274  0.607837  0.542894  1.0
  H  H158  1  0.440726  0.892163  0.042894  1.0
  H  H159  1  0.940726  0.392163  0.457106  1.0
  H  H160  1  0.559274  0.107837  0.957106  1.0
  H  H161  1  0.215512  0.565649  0.580873  1.0
  H  H162  1  0.284488  0.934351  0.080873  1.0
  H  H163  1  0.784488  0.434351  0.419127  1.0
  H  H164  1  0.715512  0.065649  0.919127  1.0
  H  H165  1  0.182357  0.669800  0.782166  1.0
  H  H166  1  0.317643  0.830200  0.282166  1.0
  H  H167  1  0.817643  0.330200  0.217834  1.0
  H  H168  1  0.682357  0.169800  0.717834  1.0
  H  H169  1  0.270937  0.640970  0.802577  1.0
  H  H170  1  0.229063  0.859030  0.302577  1.0
  H  H171  1  0.729063  0.359030  0.197423  1.0
  H  H172  1  0.770937  0.140970  0.697423  1.0
  H  H173  1  0.283714  0.572986  0.668783  1.0
  H  H174  1  0.216286  0.927014  0.168783  1.0
  H  H175  1  0.716286  0.427014  0.331217  1.0
  H  H176  1  0.783714  0.072986  0.831217  1.0
  H  H177  1  0.159781  0.827765  0.379392  1.0
  H  H178  1  0.340219  0.672235  0.879392  1.0
  H  H179  1  0.840219  0.172235  0.620608  1.0
  H  H180  1  0.659781  0.327765  0.120608  1.0
  H  H181  1  0.132400  0.730458  0.384906  1.0
  H  H182  1  0.367600  0.769542  0.884906  1.0
  H  H183  1  0.867600  0.269542  0.615094  1.0
  H  H184  1  0.632400  0.230458  0.115094  1.0
  H  H185  1  0.298510  0.709215  0.414488  1.0
  H  H186  1  0.201490  0.790785  0.914488  1.0
  H  H187  1  0.701490  0.290785  0.585512  1.0
  H  H188  1  0.798510  0.209215  0.085512  1.0
  H  H189  1  0.370202  0.965098  0.387853  1.0
  H  H190  1  0.129798  0.534902  0.887853  1.0
  H  H191  1  0.629798  0.034902  0.612147  1.0
  H  H192  1  0.870202  0.465098  0.112147  1.0
  H  H193  1  0.464410  0.946806  0.401085  1.0
  H  H194  1  0.035590  0.553194  0.901085  1.0
  H  H195  1  0.535590  0.053194  0.598915  1.0
  H  H196  1  0.964410  0.446806  0.098915  1.0
  H  H197  1  0.407058  0.780923  0.422511  1.0
  H  H198  1  0.092942  0.719077  0.922511  1.0
  H  H199  1  0.592942  0.219077  0.577489  1.0
  H  H200  1  0.907058  0.280923  0.077489  1.0
  H  H201  1  0.001799  0.280893  0.428310  1.0
  H  H202  1  0.498201  0.219107  0.928310  1.0
  H  H203  1  0.998201  0.719107  0.571690  1.0
  H  H204  1  0.501799  0.780893  0.071690  1.0
  H  H205  1  0.035553  0.376503  0.417585  1.0
  H  H206  1  0.464447  0.123497  0.917585  1.0
  H  H207  1  0.964447  0.623497  0.582415  1.0
  H  H208  1  0.535553  0.876503  0.082415  1.0
  H  H209  1  0.198659  0.357009  0.455698  1.0
  H  H210  1  0.301341  0.142991  0.955698  1.0
  H  H211  1  0.801341  0.642991  0.544302  1.0
  H  H212  1  0.698659  0.857009  0.044302  1.0
  H  H213  1  0.107857  0.102310  0.479861  1.0
  H  H214  1  0.392143  0.397690  0.979861  1.0
  H  H215  1  0.892143  0.897690  0.520139  1.0
  H  H216  1  0.607857  0.602310  0.020139  1.0
  H  H217  1  0.202534  0.094614  0.502194  1.0
  H  H218  1  0.297466  0.405386  0.002194  1.0
  H  H219  1  0.797466  0.905386  0.497806  1.0
  H  H220  1  0.702534  0.594614  0.997806  1.0
  H  H221  1  0.253577  0.263163  0.488422  1.0
  H  H222  1  0.246423  0.236837  0.988422  1.0
  H  H223  1  0.746423  0.736837  0.511578  1.0
  H  H224  1  0.753577  0.763163  0.011578  1.0
  H  H225  1  0.303240  0.309880  0.888406  1.0
  H  H226  1  0.196760  0.190120  0.388406  1.0
  H  H227  1  0.696760  0.690120  0.111594  1.0
  H  H228  1  0.803240  0.809880  0.611594  1.0
  H  H229  1  0.344595  0.404144  0.876631  1.0
  H  H230  1  0.155405  0.095856  0.376631  1.0
  H  H231  1  0.655405  0.595856  0.123369  1.0
  H  H232  1  0.844595  0.904144  0.623369  1.0
  H  H233  1  0.388055  0.371082  0.737405  1.0
  H  H234  1  0.111945  0.128918  0.237405  1.0
  H  H235  1  0.611945  0.628918  0.262595  1.0
  H  H236  1  0.888055  0.871082  0.762595  1.0
  H  H237  1  0.276914  0.123253  0.771418  1.0
  H  H238  1  0.223086  0.376747  0.271418  1.0
  H  H239  1  0.723086  0.876747  0.228582  1.0
  H  H240  1  0.776914  0.623253  0.728582  1.0
  H  H241  1  0.306453  0.107232  0.692401  1.0
  H  H242  1  0.193547  0.392768  0.192401  1.0
  H  H243  1  0.693547  0.892768  0.307599  1.0
  H  H244  1  0.806453  0.607232  0.807599  1.0
  H  H245  1  0.379221  0.271854  0.678340  1.0
  H  H246  1  0.120779  0.228146  0.178340  1.0
  H  H247  1  0.620779  0.728146  0.321660  1.0
  H  H248  1  0.879221  0.771854  0.821660  1.0
  H  H249  1  0.471456  0.849157  0.825977  1.0
  H  H250  1  0.028544  0.650843  0.325977  1.0
  H  H251  1  0.528544  0.150843  0.174023  1.0
  H  H252  1  0.971456  0.349157  0.674023  1.0
  H  H253  1  0.460761  0.752689  0.840817  1.0
  H  H254  1  0.039239  0.747311  0.340817  1.0
  H  H255  1  0.539239  0.247311  0.159183  1.0
  H  H256  1  0.960761  0.252689  0.659183  1.0
  H  H257  1  0.503649  0.722313  0.700317  1.0
  H  H258  1  0.996351  0.777687  0.200317  1.0
  H  H259  1  0.496351  0.277687  0.299683  1.0
  H  H260  1  0.003649  0.222313  0.799683  1.0
  H  H261  1  0.532029  0.977340  0.663866  1.0
  H  H262  1  0.967971  0.522660  0.163866  1.0
  H  H263  1  0.467971  0.022660  0.336134  1.0
  H  H264  1  0.032029  0.477340  0.836134  1.0
  H  H265  1  0.558332  0.956651  0.585991  1.0
  H  H266  1  0.941668  0.543349  0.085991  1.0
  H  H267  1  0.441668  0.043349  0.414009  1.0
  H  H268  1  0.058332  0.456651  0.914009  1.0
  H  H269  1  0.536180  0.789187  0.616427  1.0
  H  H270  1  0.963820  0.710813  0.116427  1.0
  H  H271  1  0.463820  0.210813  0.383573  1.0
  H  H272  1  0.036180  0.289187  0.883573  1.0
  H  H273  1  0.674631  0.539840  0.931043  1.0
  H  H274  1  0.825369  0.960160  0.431043  1.0
  H  H275  1  0.325369  0.460160  0.068957  1.0
  H  H276  1  0.174631  0.039840  0.568957  1.0
  H  H277  1  0.581893  0.552377  0.906429  1.0
  H  H278  1  0.918107  0.947623  0.406429  1.0
  H  H279  1  0.418107  0.447623  0.093571  1.0
  H  H280  1  0.081893  0.052377  0.593571  1.0
  H  H281  1  0.618819  0.517213  0.766361  1.0
  H  H282  1  0.881181  0.982787  0.266361  1.0
  H  H283  1  0.381181  0.482787  0.233639  1.0
  H  H284  1  0.118819  0.017213  0.733639  1.0
  H  H285  1  0.864523  0.489446  0.834293  1.0
  H  H286  1  0.635477  0.010554  0.334293  1.0
  H  H287  1  0.135477  0.510554  0.165707  1.0
  H  H288  1  0.364523  0.989446  0.665707  1.0
  H  H289  1  0.882668  0.474600  0.753402  1.0
  H  H290  1  0.617332  0.025400  0.253402  1.0
  H  H291  1  0.117332  0.525400  0.246598  1.0
  H  H292  1  0.382668  0.974600  0.746598  1.0
  H  H293  1  0.718454  0.492894  0.715785  1.0
  H  H294  1  0.781546  0.007106  0.215785  1.0
  H  H295  1  0.281546  0.507106  0.284215  1.0
  H  H296  1  0.218454  0.992894  0.784215  1.0
  H  H297  1  0.999216  0.560145  0.450250  1.0
  H  H298  1  0.500784  0.939855  0.950250  1.0
  H  H299  1  0.000784  0.439855  0.549750  1.0
  H  H300  1  0.499216  0.060145  0.049750  1.0
  H  H301  1  0.907785  0.564198  0.478096  1.0
  H  H302  1  0.592215  0.935802  0.978096  1.0
  H  H303  1  0.092215  0.435802  0.521904  1.0
  H  H304  1  0.407785  0.064198  0.021904  1.0
  H  H305  1  0.854421  0.548686  0.441359  1.0
  H  H306  1  0.645579  0.951314  0.941359  1.0
  H  H307  1  0.145579  0.451314  0.558641  1.0
  H  H308  1  0.354421  0.048686  0.058641  1.0
  H  H309  1  0.886746  0.612533  0.445479  1.0
  H  H310  1  0.613254  0.887467  0.945479  1.0
  H  H311  1  0.113254  0.387467  0.554521  1.0
  H  H312  1  0.386746  0.112533  0.054521  1.0
  H  H313  1  0.900202  0.592640  0.348252  1.0
  H  H314  1  0.599798  0.907360  0.848252  1.0
  H  H315  1  0.099798  0.407360  0.651748  1.0
  H  H316  1  0.400202  0.092640  0.151748  1.0
  H  H317  1  0.873759  0.528177  0.359363  1.0
  H  H318  1  0.626241  0.971823  0.859363  1.0
  H  H319  1  0.126241  0.471823  0.640637  1.0
  H  H320  1  0.373759  0.028177  0.140637  1.0
  H  H321  1  0.937901  0.543636  0.337639  1.0
  H  H322  1  0.562099  0.956364  0.837639  1.0
  H  H323  1  0.062099  0.456364  0.662361  1.0
  H  H324  1  0.437901  0.043636  0.162361  1.0
  H  H325  1  0.324957  0.516724  0.896820  1.0
  H  H326  1  0.175043  0.983276  0.396820  1.0
  H  H327  1  0.675043  0.483276  0.103180  1.0
  H  H328  1  0.824957  0.016724  0.603180  1.0
  H  H329  1  0.224222  0.538524  0.971311  1.0
  H  H330  1  0.275778  0.961476  0.471311  1.0
  H  H331  1  0.775778  0.461476  0.028689  1.0
  H  H332  1  0.724222  0.038524  0.528689  1.0
  H  H333  1  0.256816  0.493469  0.998585  1.0
  H  H334  1  0.243184  0.006531  0.498585  1.0
  H  H335  1  0.743184  0.506531  0.001415  1.0
  H  H336  1  0.756816  0.993469  0.501415  1.0
  H  H337  1  0.245219  0.488240  0.941151  1.0
  H  H338  1  0.254781  0.011760  0.441151  1.0
  H  H339  1  0.754781  0.511760  0.058849  1.0
  H  H340  1  0.745219  0.988240  0.558849  1.0
  H  H341  1  0.363757  0.617480  0.981927  1.0
  H  H342  1  0.136243  0.882520  0.481927  1.0
  H  H343  1  0.636243  0.382520  0.018073  1.0
  H  H344  1  0.863757  0.117480  0.518073  1.0
  H  H345  1  0.336124  0.577524  0.025388  1.0
  H  H346  1  0.163876  0.922476  0.525388  1.0
  H  H347  1  0.663876  0.422476  0.974612  1.0
  H  H348  1  0.836124  0.077524  0.474612  1.0
  H  H349  1  0.297894  0.617759  0.997964  1.0
  H  H350  1  0.202106  0.882241  0.497964  1.0
  H  H351  1  0.702106  0.382241  0.002036  1.0
  H  H352  1  0.797894  0.117759  0.502036  1.0
  H  H353  1  0.420804  0.999701  0.539126  1.0
  H  H354  1  0.079196  0.500299  0.039126  1.0
  H  H355  1  0.579196  0.000299  0.460874  1.0
  H  H356  1  0.920804  0.499701  0.960874  1.0
  H  H357  1  0.454955  0.907031  0.533381  1.0
  H  H358  1  0.045045  0.592969  0.033381  1.0
  H  H359  1  0.545045  0.092969  0.466619  1.0
  H  H360  1  0.954955  0.407031  0.966619  1.0
  H  H361  1  0.404163  0.852276  0.542829  1.0
  H  H362  1  0.095837  0.647724  0.042829  1.0
  H  H363  1  0.595837  0.147724  0.457171  1.0
  H  H364  1  0.904163  0.352276  0.957171  1.0
  H  H365  1  0.291627  0.924659  0.572496  1.0
  H  H366  1  0.208373  0.575341  0.072496  1.0
  H  H367  1  0.708373  0.075341  0.427504  1.0
  H  H368  1  0.791627  0.424659  0.927504  1.0
  H  H369  1  0.321475  0.873439  0.592528  1.0
  H  H370  1  0.178525  0.626561  0.092528  1.0
  H  H371  1  0.678525  0.126561  0.407472  1.0
  H  H372  1  0.821475  0.373439  0.907472  1.0
  H  H373  1  0.300061  0.873462  0.537116  1.0
  H  H374  1  0.199939  0.626538  0.037116  1.0
  H  H375  1  0.699939  0.126538  0.462884  1.0
  H  H376  1  0.800061  0.373462  0.962884  1.0
  C  C377  1  0.259300  0.012800  0.310200  1
  C  C378  1  0.240700  0.487200  0.810200  1
  C  C379  1  0.740700  0.987200  0.689800  1
  C  C380  1  0.759300  0.512800  0.189800  1
  C  C381  1  0.262800  0.054000  0.228600  1
  C  C382  1  0.237200  0.446000  0.728600  1
  C  C383  1  0.737200  0.946000  0.771400  1
  C  C384  1  0.762800  0.554000  0.271400  1
  C  C385  1  0.346500  0.015700  0.264300  1
  C  C386  1  0.153500  0.484300  0.764300  1
  C  C387  1  0.653500  0.984300  0.735700  1
  C  C388  1  0.846500  0.515700  0.235700  1
  C  C389  1  0.488600  0.040300  0.784600  1
  C  C390  1  0.011400  0.459700  0.284600  1
  C  C391  1  0.511400  0.959700  0.215400  1
  C  C392  1  0.988600  0.540300  0.715400  1
  C  C393  1  0.440300  0.120800  0.797900  1
  C  C394  1  0.059700  0.379200  0.297900  1
  C  C395  1  0.559700  0.879200  0.202100  1
  C  C396  1  0.940300  0.620800  0.702100  1
  C  C397  1  0.485900  0.104700  0.717800  1
  C  C398  1  0.014100  0.395300  0.217800  1
  C  C399  1  0.514100  0.895300  0.282200  1
  C  C400  1  0.985900  0.604700  0.782200  1
  C  C401  1  0.157400  0.273500  0.887300  1
  C  C402  1  0.342600  0.226500  0.387300  1
  C  C403  1  0.842600  0.726500  0.112700  1
  C  C404  1  0.657400  0.773500  0.612700  1
  C  C405  1  0.190300  0.373100  0.882800  1
  C  C406  1  0.309700  0.126900  0.382800  1
  C  C407  1  0.809700  0.626900  0.117200  1
  C  C408  1  0.690300  0.873100  0.617200  1
  C  C409  1  0.172100  0.315500  0.806000  1
  C  C410  1  0.327900  0.184500  0.306000  1
  C  C411  1  0.827900  0.684500  0.194000  1
  C  C412  1  0.672100  0.815500  0.694000  1
  C  C413  1  0.146400  0.562940  0.503830  1.0
  C  C414  1  0.353600  0.937060  0.003830  1.0
  C  C415  1  0.853600  0.437060  0.496170  1.0
  C  C416  1  0.646400  0.062940  0.996170  1.0
  C  C417  1  0.125800  0.626900  0.645880  1.0
  C  C418  1  0.374200  0.873100  0.145880  1.0
  C  C419  1  0.874200  0.373100  0.354120  1.0
  C  C420  1  0.625800  0.126900  0.854120  1.0
  C  C421  1  0.082200  0.628000  0.612100  1.0
  C  C422  1  0.417800  0.872000  0.112100  1.0
  C  C423  1  0.917800  0.372000  0.387900  1.0
  C  C424  1  0.582200  0.128000  0.887900  1.0
  C  C425  1  0.088700  0.606800  0.566640  1.0
  C  C426  1  0.411300  0.893200  0.066640  1.0
  C  C427  1  0.911300  0.393200  0.433360  1.0
  C  C428  1  0.588700  0.106800  0.933360  1.0
  C  C429  1  0.138170  0.583300  0.554510  1.0
  C  C430  1  0.361830  0.916700  0.054510  1.0
  C  C431  1  0.861830  0.416700  0.445490  1.0
  C  C432  1  0.638170  0.083300  0.945490  1.0
  C  C433  1  0.181880  0.581380  0.589120  1.0
  C  C434  1  0.318120  0.918620  0.089120  1.0
  C  C435  1  0.818120  0.418620  0.410880  1.0
  C  C436  1  0.681880  0.081380  0.910880  1.0
  C  C437  1  0.175700  0.602600  0.635420  1.0
  C  C438  1  0.324300  0.897400  0.135420  1.0
  C  C439  1  0.824300  0.397400  0.364580  1.0
  C  C440  1  0.675700  0.102600  0.864580  1.0
  C  C441  1  0.181600  0.636300  0.713180  1.0
  C  C442  1  0.318400  0.863700  0.213180  1.0
  C  C443  1  0.818400  0.363700  0.286820  1.0
  C  C444  1  0.681600  0.136300  0.786820  1.0
  C  C445  1  0.202500  0.649800  0.759600  1.0
  C  C446  1  0.297500  0.850200  0.259600  1.0
  C  C447  1  0.797500  0.350200  0.240400  1.0
  C  C448  1  0.702500  0.149800  0.740400  1.0
  C  C449  1  0.254900  0.632300  0.771200  1.0
  C  C450  1  0.245100  0.867700  0.271200  1.0
  C  C451  1  0.745100  0.367700  0.228800  1.0
  C  C452  1  0.754900  0.132300  0.728800  1.0
  C  C453  1  0.285200  0.602400  0.738690  1.0
  C  C454  1  0.214800  0.897600  0.238690  1.0
  C  C455  1  0.714800  0.397600  0.261310  1.0
  C  C456  1  0.785200  0.102400  0.761310  1.0
  C  C457  1  0.262970  0.591650  0.691840  1.0
  C  C458  1  0.237030  0.908350  0.191840  1.0
  C  C459  1  0.737030  0.408350  0.308160  1.0
  C  C460  1  0.762970  0.091650  0.808160  1.0
  C  C461  1  0.211500  0.607900  0.679030  1.0
  C  C462  1  0.288500  0.892100  0.179030  1.0
  C  C463  1  0.788500  0.392100  0.320970  1.0
  C  C464  1  0.711500  0.107900  0.820970  1.0
  C  C465  1  0.338760  0.583100  0.756110  1.0
  C  C466  1  0.161240  0.916900  0.256110  1.0
  C  C467  1  0.661240  0.416900  0.243890  1.0
  C  C468  1  0.838760  0.083100  0.743890  1.0
  C  C469  1  0.193100  0.647800  0.405010  1.0
  C  C470  1  0.306900  0.852200  0.905010  1.0
  C  C471  1  0.806900  0.352200  0.594990  1.0
  C  C472  1  0.693100  0.147800  0.094990  1.0
  C  C473  1  0.246200  0.826080  0.392290  1.0
  C  C474  1  0.253800  0.673920  0.892290  1.0
  C  C475  1  0.753800  0.173920  0.607710  1.0
  C  C476  1  0.746200  0.326080  0.107710  1.0
  C  C477  1  0.187700  0.803880  0.386080  1.0
  C  C478  1  0.312300  0.696120  0.886080  1.0
  C  C479  1  0.812300  0.196120  0.613920  1.0
  C  C480  1  0.687700  0.303880  0.113920  1.0
  C  C481  1  0.171800  0.746400  0.389940  1.0
  C  C482  1  0.328200  0.753600  0.889940  1.0
  C  C483  1  0.828200  0.253600  0.610060  1.0
  C  C484  1  0.671800  0.246400  0.110060  1.0
  C  C485  1  0.212100  0.710400  0.401100  1.0
  C  C486  1  0.287900  0.789600  0.901100  1.0
  C  C487  1  0.787900  0.289600  0.598900  1.0
  C  C488  1  0.712100  0.210400  0.098900  1.0
  C  C489  1  0.270660  0.733050  0.407410  1.0
  C  C490  1  0.229340  0.766950  0.907410  1.0
  C  C491  1  0.729340  0.266950  0.592590  1.0
  C  C492  1  0.770660  0.233050  0.092590  1.0
  C  C493  1  0.287010  0.790610  0.403140  1.0
  C  C494  1  0.212990  0.709390  0.903140  1.0
  C  C495  1  0.712990  0.209390  0.596860  1.0
  C  C496  1  0.787010  0.290610  0.096860  1.0
  C  C497  1  0.332100  0.882310  0.395860  1.0
  C  C498  1  0.167900  0.617690  0.895860  1.0
  C  C499  1  0.667900  0.117690  0.604140  1.0
  C  C500  1  0.832100  0.382310  0.104140  1.0
  C  C501  1  0.377200  0.927840  0.394400  1.0
  C  C502  1  0.122800  0.572160  0.894400  1.0
  C  C503  1  0.622800  0.072160  0.605600  1.0
  C  C504  1  0.877200  0.427840  0.105600  1.0
  C  C505  1  0.432800  0.916630  0.403000  1.0
  C  C506  1  0.067200  0.583370  0.903000  1.0
  C  C507  1  0.567200  0.083370  0.597000  1.0
  C  C508  1  0.932800  0.416630  0.097000  1.0
  C  C509  1  0.444000  0.863120  0.414240  1.0
  C  C510  1  0.056000  0.636880  0.914240  1.0
  C  C511  1  0.556000  0.136880  0.585760  1.0
  C  C512  1  0.944000  0.363120  0.085760  1.0
  C  C513  1  0.399420  0.817850  0.415340  1.0
  C  C514  1  0.100580  0.682150  0.915340  1.0
  C  C515  1  0.600580  0.182150  0.584660  1.0
  C  C516  1  0.899420  0.317850  0.084660  1.0
  C  C517  1  0.343120  0.827200  0.405770  1.0
  C  C518  1  0.156880  0.672800  0.905770  1.0
  C  C519  1  0.656880  0.172800  0.594230  1.0
  C  C520  1  0.843120  0.327200  0.094230  1.0
  C  C521  1  0.503200  0.854870  0.427400  1.0
  C  C522  1  0.996800  0.645130  0.927400  1.0
  C  C523  1  0.496800  0.145130  0.572600  1.0
  C  C524  1  0.003200  0.354870  0.072600  1.0
  C  C525  1  0.138390  0.437520  0.428210  1.0
  C  C526  1  0.361610  0.062480  0.928210  1.0
  C  C527  1  0.861610  0.562480  0.571790  1.0
  C  C528  1  0.638390  0.937520  0.071790  1.0
  C  C529  1  0.081800  0.260800  0.447960  1.0
  C  C530  1  0.418200  0.239200  0.947960  1.0
  C  C531  1  0.918200  0.739200  0.552040  1.0
  C  C532  1  0.581800  0.760800  0.052040  1.0
  C  C533  1  0.041500  0.295800  0.433600  1.0
  C  C534  1  0.458500  0.204200  0.933600  1.0
  C  C535  1  0.958500  0.704200  0.566400  1.0
  C  C536  1  0.541500  0.795800  0.066400  1.0
  C  C537  1  0.061900  0.352200  0.427640  1.0
  C  C538  1  0.438100  0.147800  0.927640  1.0
  C  C539  1  0.938100  0.647800  0.572360  1.0
  C  C540  1  0.561900  0.852200  0.072360  1.0
  C  C541  1  0.119900  0.375570  0.435770  1.0
  C  C542  1  0.380100  0.124430  0.935770  1.0
  C  C543  1  0.880100  0.624430  0.564230  1.0
  C  C544  1  0.619900  0.875570  0.064230  1.0
  C  C545  1  0.159190  0.341340  0.450450  1.0
  C  C546  1  0.340810  0.158660  0.950450  1.0
  C  C547  1  0.840810  0.658660  0.549550  1.0
  C  C548  1  0.659190  0.841340  0.049550  1.0
  C  C549  1  0.140600  0.283740  0.457540  1.0
  C  C550  1  0.359400  0.216260  0.957540  1.0
  C  C551  1  0.859400  0.716260  0.542460  1.0
  C  C552  1  0.640600  0.783740  0.042460  1.0
  C  C553  1  0.125100  0.188540  0.471040  1.0
  C  C554  1  0.374900  0.311460  0.971040  1.0
  C  C555  1  0.874900  0.811460  0.528960  1.0
  C  C556  1  0.625100  0.688540  0.028960  1.0
  C  C557  1  0.137000  0.134700  0.481600  1.0
  C  C558  1  0.363000  0.365300  0.981600  1.0
  C  C559  1  0.863000  0.865300  0.518400  1.0
  C  C560  1  0.637000  0.634700  0.018400  1.0
  C  C561  1  0.193100  0.130800  0.494770  1.0
  C  C562  1  0.306900  0.369200  0.994770  1.0
  C  C563  1  0.806900  0.869200  0.505230  1.0
  C  C564  1  0.693100  0.630800  0.005230  1.0
  C  C565  1  0.237300  0.178370  0.497710  1.0
  C  C566  1  0.262700  0.321630  0.997710  1.0
  C  C567  1  0.762700  0.821630  0.502290  1.0
  C  C568  1  0.737300  0.678370  0.002290  1.0
  C  C569  1  0.224240  0.230900  0.486860  1.0
  C  C570  1  0.275760  0.269100  0.986860  1.0
  C  C571  1  0.775760  0.769100  0.513140  1.0
  C  C572  1  0.724240  0.730900  0.013140  1.0
  C  C573  1  0.168000  0.236800  0.473590  1.0
  C  C574  1  0.332000  0.263200  0.973590  1.0
  C  C575  1  0.832000  0.763200  0.526410  1.0
  C  C576  1  0.668000  0.736800  0.026410  1.0
  C  C577  1  0.296700  0.171020  0.513120  1.0
  C  C578  1  0.203300  0.328980  0.013120  1.0
  C  C579  1  0.703300  0.828980  0.486880  1.0
  C  C580  1  0.796700  0.671020  0.986880  1.0
  C  C581  1  0.394590  0.456580  0.798970  1.0
  C  C582  1  0.105410  0.043420  0.298970  1.0
  C  C583  1  0.605410  0.543420  0.201030  1.0
  C  C584  1  0.894590  0.956580  0.701030  1.0
  C  C585  1  0.320900  0.284100  0.820100  1.0
  C  C586  1  0.179100  0.215900  0.320100  1.0
  C  C587  1  0.679100  0.715900  0.179900  1.0
  C  C588  1  0.820900  0.784100  0.679900  1.0
  C  C589  1  0.320200  0.321900  0.857960  1.0
  C  C590  1  0.179800  0.178100  0.357960  1.0
  C  C591  1  0.679800  0.678100  0.142040  1.0
  C  C592  1  0.820200  0.821900  0.642040  1.0
  C  C593  1  0.344700  0.377800  0.850810  1.0
  C  C594  1  0.155300  0.122200  0.350810  1.0
  C  C595  1  0.655300  0.622200  0.149190  1.0
  C  C596  1  0.844700  0.877800  0.649190  1.0
  C  C597  1  0.369800  0.395830  0.806060  1.0
  C  C598  1  0.130200  0.104170  0.306060  1.0
  C  C599  1  0.630200  0.604170  0.193940  1.0
  C  C600  1  0.869800  0.895830  0.693940  1.0
  C  C601  1  0.371100  0.358530  0.767750  1.0
  C  C602  1  0.128900  0.141470  0.267750  1.0
  C  C603  1  0.628900  0.641470  0.232250  1.0
  C  C604  1  0.871100  0.858530  0.732250  1.0
  C  C605  1  0.347100  0.302250  0.774700  1.0
  C  C606  1  0.152900  0.197750  0.274700  1.0
  C  C607  1  0.652900  0.697750  0.225300  1.0
  C  C608  1  0.847100  0.802250  0.725300  1.0
  C  C609  1  0.311000  0.207870  0.772310  1.0
  C  C610  1  0.189000  0.292130  0.272310  1.0
  C  C611  1  0.689000  0.792130  0.227690  1.0
  C  C612  1  0.811000  0.707870  0.727690  1.0
  C  C613  1  0.297600  0.153200  0.752700  1.0
  C  C614  1  0.202400  0.346800  0.252700  1.0
  C  C615  1  0.702400  0.846800  0.247300  1.0
  C  C616  1  0.797600  0.653200  0.747300  1.0
  C  C617  1  0.314900  0.144070  0.706000  1.0
  C  C618  1  0.185100  0.355930  0.206000  1.0
  C  C619  1  0.685100  0.855930  0.294000  1.0
  C  C620  1  0.814900  0.644070  0.794000  1.0
  C  C621  1  0.345100  0.188520  0.677790  1.0
  C  C622  1  0.154900  0.311480  0.177790  1.0
  C  C623  1  0.654900  0.811480  0.322210  1.0
  C  C624  1  0.845100  0.688520  0.822210  1.0
  C  C625  1  0.358200  0.242170  0.697110  1.0
  C  C626  1  0.141800  0.257830  0.197110  1.0
  C  C627  1  0.641800  0.757830  0.302890  1.0
  C  C628  1  0.858200  0.742170  0.802890  1.0
  C  C629  1  0.340600  0.252530  0.743980  1.0
  C  C630  1  0.159400  0.247470  0.243980  1.0
  C  C631  1  0.659400  0.747470  0.256020  1.0
  C  C632  1  0.840600  0.752530  0.756020  1.0
  C  C633  1  0.364300  0.176390  0.627660  1.0
  C  C634  1  0.135700  0.323610  0.127660  1.0
  C  C635  1  0.635700  0.823610  0.372340  1.0
  C  C636  1  0.864300  0.676390  0.872340  1.0
  C  C637  1  0.466680  0.665670  0.781010  1.0
  C  C638  1  0.033320  0.834330  0.281010  1.0
  C  C639  1  0.533320  0.334330  0.218990  1.0
  C  C640  1  0.966680  0.165670  0.718990  1.0
  C  C641  1  0.494700  0.843240  0.753920  1.0
  C  C642  1  0.005300  0.656760  0.253920  1.0
  C  C643  1  0.505300  0.156760  0.246080  1.0
  C  C644  1  0.994700  0.343240  0.746080  1.0
  C  C645  1  0.477900  0.823600  0.800790  1.0
  C  C646  1  0.022100  0.676400  0.300790  1.0
  C  C647  1  0.522100  0.176400  0.199210  1.0
  C  C648  1  0.977900  0.323600  0.699210  1.0
  C  C649  1  0.471000  0.766700  0.809080  1.0
  C  C650  1  0.029000  0.733300  0.309080  1.0
  C  C651  1  0.529000  0.233300  0.190920  1.0
  C  C652  1  0.971000  0.266700  0.690920  1.0
  C  C653  1  0.478900  0.727840  0.771410  1.0
  C  C654  1  0.021100  0.772160  0.271410  1.0
  C  C655  1  0.521100  0.272160  0.228590  1.0
  C  C656  1  0.978900  0.227840  0.728590  1.0
  C  C657  1  0.496660  0.747870  0.725300  1.0
  C  C658  1  0.003340  0.752130  0.225300  1.0
  C  C659  1  0.503340  0.252130  0.274700  1.0
  C  C660  1  0.996660  0.247870  0.774700  1.0
  C  C661  1  0.504000  0.804900  0.716320  1.0
  C  C662  1  0.996000  0.695100  0.216320  1.0
  C  C663  1  0.496000  0.195100  0.283680  1.0
  C  C664  1  0.004000  0.304900  0.783680  1.0
  C  C665  1  0.518700  0.895710  0.687270  1.0
  C  C666  1  0.981300  0.604290  0.187270  1.0
  C  C667  1  0.481300  0.104290  0.312730  1.0
  C  C668  1  0.018700  0.395710  0.812730  1.0
  C  C669  1  0.533000  0.939320  0.654510  1.0
  C  C670  1  0.967000  0.560680  0.154510  1.0
  C  C671  1  0.467000  0.060680  0.345490  1.0
  C  C672  1  0.033000  0.439320  0.845490  1.0
  C  C673  1  0.548400  0.926700  0.608630  1.0
  C  C674  1  0.951600  0.573300  0.108630  1.0
  C  C675  1  0.451600  0.073300  0.391370  1.0
  C  C676  1  0.048400  0.426700  0.891370  1.0
  C  C677  1  0.550200  0.870730  0.593180  1.0
  C  C678  1  0.949800  0.629270  0.093180  1.0
  C  C679  1  0.449800  0.129270  0.406820  1.0
  C  C680  1  0.050200  0.370730  0.906820  1.0
  C  C681  1  0.535500  0.827140  0.626100  1.0
  C  C682  1  0.964500  0.672860  0.126100  1.0
  C  C683  1  0.464500  0.172860  0.373900  1.0
  C  C684  1  0.035500  0.327140  0.873900  1.0
  C  C685  1  0.519700  0.838870  0.673040  1.0
  C  C686  1  0.980300  0.661130  0.173040  1.0
  C  C687  1  0.480300  0.161130  0.326960  1.0
  C  C688  1  0.019700  0.338870  0.826960  1.0
  C  C689  1  0.569400  0.859680  0.542870  1.0
  C  C690  1  0.930600  0.640320  0.042870  1.0
  C  C691  1  0.430600  0.140320  0.457130  1.0
  C  C692  1  0.069400  0.359680  0.957130  1.0
  C  C693  1  0.532640  0.545430  0.818480  1.0
  C  C694  1  0.967360  0.954570  0.318480  1.0
  C  C695  1  0.467360  0.454570  0.181520  1.0
  C  C696  1  0.032640  0.045430  0.681520  1.0
  C  C697  1  0.701670  0.520500  0.863750  1.0
  C  C698  1  0.798330  0.979500  0.363750  1.0
  C  C699  1  0.298330  0.479500  0.136250  1.0
  C  C700  1  0.201670  0.020500  0.636250  1.0
  C  C701  1  0.663500  0.535000  0.897820  1.0
  C  C702  1  0.836500  0.965000  0.397820  1.0
  C  C703  1  0.336500  0.465000  0.102180  1.0
  C  C704  1  0.163500  0.035000  0.602180  1.0
  C  C705  1  0.608600  0.542400  0.883090  1.0
  C  C706  1  0.891400  0.957600  0.383090  1.0
  C  C707  1  0.391400  0.457600  0.116910  1.0
  C  C708  1  0.108600  0.042400  0.616910  1.0
  C  C709  1  0.591940  0.535480  0.834540  1.0
  C  C710  1  0.908060  0.964520  0.334540  1.0
  C  C711  1  0.408060  0.464520  0.165460  1.0
  C  C712  1  0.091940  0.035480  0.665460  1.0
  C  C713  1  0.630290  0.521320  0.799560  1.0
  C  C714  1  0.869710  0.978680  0.299560  1.0
  C  C715  1  0.369710  0.478680  0.200440  1.0
  C  C716  1  0.130290  0.021320  0.700440  1.0
  C  C717  1  0.685340  0.513250  0.813600  1.0
  C  C718  1  0.814660  0.986750  0.313600  1.0
  C  C719  1  0.314660  0.486750  0.186400  1.0
  C  C720  1  0.185340  0.013250  0.686400  1.0
  C  C721  1  0.780400  0.499470  0.823420  1.0
  C  C722  1  0.719600  0.000530  0.323420  1.0
  C  C723  1  0.219600  0.500530  0.176580  1.0
  C  C724  1  0.280400  0.999470  0.676580  1.0
  C  C725  1  0.835000  0.490000  0.810510  1.0
  C  C726  1  0.665000  0.010000  0.310510  1.0
  C  C727  1  0.165000  0.510000  0.189490  1.0
  C  C728  1  0.335000  0.990000  0.689490  1.0
  C  C729  1  0.845200  0.481500  0.762810  1.0
  C  C730  1  0.654800  0.018500  0.262810  1.0
  C  C731  1  0.154800  0.518500  0.237190  1.0
  C  C732  1  0.345200  0.981500  0.737190  1.0
  C  C733  1  0.802480  0.482310  0.726110  1.0
  C  C734  1  0.697520  0.017690  0.226110  1.0
  C  C735  1  0.197520  0.517690  0.273890  1.0
  C  C736  1  0.302480  0.982310  0.773890  1.0
  C  C737  1  0.747770  0.491950  0.739650  1.0
  C  C738  1  0.752230  0.008050  0.239650  1.0
  C  C739  1  0.252230  0.508050  0.260350  1.0
  C  C740  1  0.247770  0.991950  0.760350  1.0
  C  C741  1  0.736290  0.500170  0.788290  1.0
  C  C742  1  0.763710  0.999830  0.288290  1.0
  C  C743  1  0.263710  0.499830  0.211710  1.0
  C  C744  1  0.236290  0.000170  0.711710  1.0
  C  C745  1  0.815570  0.473420  0.673610  1.0
  C  C746  1  0.684430  0.026580  0.173610  1.0
  C  C747  1  0.184430  0.526580  0.326390  1.0
  C  C748  1  0.315570  0.973420  0.826390  1.0
  C  C749  1  0.986900  0.557900  0.417200  1.0
  C  C750  1  0.513100  0.942100  0.917200  1.0
  C  C751  1  0.013100  0.442100  0.582800  1.0
  C  C752  1  0.486900  0.057900  0.082800  1.0
  C  C753  1  0.891900  0.572700  0.446400  1.0
  C  C754  1  0.608100  0.927300  0.946400  1.0
  C  C755  1  0.108100  0.427300  0.553600  1.0
  C  C756  1  0.391900  0.072700  0.053600  1.0
  C  C757  1  0.909200  0.556200  0.359500  1.0
  C  C758  1  0.590800  0.943800  0.859500  1.0
  C  C759  1  0.090800  0.443800  0.640500  1.0
  C  C760  1  0.409200  0.056200  0.140500  1.0
  C  C761  1  0.339200  0.546100  0.918930  1.0
  C  C762  1  0.160800  0.953900  0.418930  1.0
  C  C763  1  0.660800  0.453900  0.081070  1.0
  C  C764  1  0.839200  0.046100  0.581070  1.0
  C  C765  1  0.254500  0.514700  0.968300  1.0
  C  C766  1  0.245500  0.985300  0.468300  1.0
  C  C767  1  0.745500  0.485300  0.031700  1.0
  C  C768  1  0.754500  0.014700  0.531700  1.0
  C  C769  1  0.328300  0.594200  0.993900  1.0
  C  C770  1  0.171700  0.905800  0.493900  1.0
  C  C771  1  0.671700  0.405800  0.006100  1.0
  C  C772  1  0.828300  0.094200  0.506100  1.0
  C  C773  1  0.383000  0.982100  0.548200  1.0
  C  C774  1  0.117000  0.517900  0.048200  1.0
  C  C775  1  0.617000  0.017900  0.451800  1.0
  C  C776  1  0.883000  0.482100  0.951800  1.0
  C  C777  1  0.415900  0.892000  0.540900  1.0
  C  C778  1  0.084100  0.608000  0.040900  1.0
  C  C779  1  0.584100  0.108000  0.459100  1.0
  C  C780  1  0.915900  0.392000  0.959100  1.0
  C  C781  1  0.317100  0.897200  0.564100  1.0
  C  C782  1  0.182900  0.602800  0.064100  1.0
  C  C783  1  0.682900  0.102800  0.435900  1.0
  C  C784  1  0.817100  0.397200  0.935900  1.0
  N  N785  1  0.289700  0.027900  0.270000  1
  N  N786  1  0.210300  0.472100  0.770000  1
  N  N787  1  0.710300  0.972100  0.730000  1
  N  N788  1  0.789700  0.527900  0.230000  1
  N  N789  1  0.473200  0.087000  0.768320  1
  N  N790  1  0.026800  0.413000  0.268320  1
  N  N791  1  0.526800  0.913000  0.231680  1
  N  N792  1  0.973200  0.587000  0.731680  1
  N  N793  1  0.174400  0.317500  0.859100  1
  N  N794  1  0.325600  0.182500  0.359100  1
  N  N795  1  0.825600  0.682500  0.140900  1
  N  N796  1  0.674400  0.817500  0.640900  1
  N  N797  1  0.129900  0.647500  0.693200  1.0
  N  N798  1  0.370100  0.852500  0.193200  1.0
  N  N799  1  0.870100  0.352500  0.306800  1.0
  N  N800  1  0.629900  0.147500  0.806800  1.0
  N  N801  1  0.274470  0.881070  0.389600  1.0
  N  N802  1  0.225530  0.618930  0.889600  1.0
  N  N803  1  0.725530  0.118930  0.610400  1.0
  N  N804  1  0.774470  0.381070  0.110400  1.0
  N  N805  1  0.073450  0.203860  0.456740  1.0
  N  N806  1  0.426550  0.296140  0.956740  1.0
  N  N807  1  0.926550  0.796140  0.543260  1.0
  N  N808  1  0.573450  0.703860  0.043260  1.0
  N  N809  1  0.299720  0.227380  0.818030  1.0
  N  N810  1  0.200280  0.272620  0.318030  1.0
  N  N811  1  0.700280  0.772620  0.181970  1.0
  N  N812  1  0.799720  0.727380  0.681970  1.0
  N  N813  1  0.503330  0.896930  0.735890  1.0
  N  N814  1  0.996670  0.603070  0.235890  1.0
  N  N815  1  0.496670  0.103070  0.264110  1.0
  N  N816  1  0.003330  0.396930  0.764110  1.0
  N  N817  1  0.758610  0.511030  0.868450  1.0
  N  N818  1  0.741390  0.988970  0.368450  1.0
  N  N819  1  0.241390  0.488970  0.131550  1.0
  N  N820  1  0.258610  0.011030  0.631550  1.0
  N  N821  1  0.932110  0.562000  0.407730  1.0
  N  N822  1  0.567890  0.938000  0.907730  1.0
  N  N823  1  0.067890  0.438000  0.592270  1.0
  N  N824  1  0.432110  0.062000  0.092270  1.0
  N  N825  1  0.309300  0.549630  0.959260  1.0
  N  N826  1  0.190700  0.950370  0.459260  1.0
  N  N827  1  0.690700  0.450370  0.040740  1.0
  N  N828  1  0.809300  0.049630  0.540740  1.0
  N  N829  1  0.375800  0.928180  0.549110  1.0
  N  N830  1  0.124200  0.571820  0.049110  1.0
  N  N831  1  0.624200  0.071820  0.450890  1.0
  N  N832  1  0.875800  0.428180  0.950890  1.0
  O  O833  1  0.276020  0.990630  0.346890  1
  O  O834  1  0.223980  0.509370  0.846890  1
  O  O835  1  0.723980  0.009370  0.653110  1
  O  O836  1  0.776020  0.490630  0.153110  1
  O  O837  1  0.515500  0.009280  0.761510  1
  O  O838  1  0.984500  0.490720  0.261510  1
  O  O839  1  0.484500  0.990720  0.238490  1
  O  O840  1  0.015500  0.509280  0.738490  1
  O  O841  1  0.140400  0.225700  0.871900  1
  O  O842  1  0.359600  0.274300  0.371900  1
  O  O843  1  0.859600  0.774300  0.128100  1
  O  O844  1  0.640400  0.725700  0.628100  1
  O  O845  1  0.195530  0.551420  0.492990  1.0
  O  O846  1  0.304470  0.948580  0.992990  1.0
  O  O847  1  0.804470  0.448580  0.507010  1.0
  O  O848  1  0.695530  0.051420  0.007010  1.0
  O  O849  1  0.103390  0.561410  0.474760  1.0
  O  O850  1  0.396610  0.938590  0.974760  1.0
  O  O851  1  0.896610  0.438590  0.525240  1.0
  O  O852  1  0.603390  0.061410  0.025240  1.0
  O  O853  1  0.370420  0.564870  0.724510  1.0
  O  O854  1  0.129580  0.935130  0.224510  1.0
  O  O855  1  0.629580  0.435130  0.275490  1.0
  O  O856  1  0.870420  0.064870  0.775490  1.0
  O  O857  1  0.348770  0.585820  0.801450  1.0
  O  O858  1  0.151230  0.914180  0.301450  1.0
  O  O859  1  0.651230  0.414180  0.198550  1.0
  O  O860  1  0.848770  0.085820  0.698550  1.0
  O  O861  1  0.232440  0.618870  0.415680  1.0
  O  O862  1  0.267560  0.881130  0.915680  1.0
  O  O863  1  0.767560  0.381130  0.584320  1.0
  O  O864  1  0.732440  0.118870  0.084320  1.0
  O  O865  1  0.140390  0.628610  0.397640  1.0
  O  O866  1  0.359610  0.871390  0.897640  1.0
  O  O867  1  0.859610  0.371390  0.602360  1.0
  O  O868  1  0.640390  0.128610  0.102360  1.0
  O  O869  1  0.510620  0.805710  0.441230  1.0
  O  O870  1  0.989380  0.694290  0.941230  1.0
  O  O871  1  0.489380  0.194290  0.558770  1.0
  O  O872  1  0.010620  0.305710  0.058770  1.0
  O  O873  1  0.543180  0.897240  0.425600  1.0
  O  O874  1  0.956820  0.602760  0.925600  1.0
  O  O875  1  0.456820  0.102760  0.574400  1.0
  O  O876  1  0.043180  0.397240  0.074400  1.0
  O  O877  1  0.191240  0.456750  0.435190  1.0
  O  O878  1  0.308760  0.043250  0.935190  1.0
  O  O879  1  0.808760  0.543250  0.564810  1.0
  O  O880  1  0.691240  0.956750  0.064810  1.0
  O  O881  1  0.099840  0.465790  0.415220  1.0
  O  O882  1  0.400160  0.034210  0.915220  1.0
  O  O883  1  0.900160  0.534210  0.584780  1.0
  O  O884  1  0.599840  0.965790  0.084780  1.0
  O  O885  1  0.334280  0.214460  0.515820  1.0
  O  O886  1  0.165720  0.285540  0.015820  1.0
  O  O887  1  0.665720  0.785540  0.484180  1.0
  O  O888  1  0.834280  0.714460  0.984180  1.0
  O  O889  1  0.305590  0.120790  0.521690  1.0
  O  O890  1  0.194410  0.379210  0.021690  1.0
  O  O891  1  0.694410  0.879210  0.478310  1.0
  O  O892  1  0.805590  0.620790  0.978310  1.0
  O  O893  1  0.416250  0.471820  0.758030  1.0
  O  O894  1  0.083750  0.028180  0.258030  1.0
  O  O895  1  0.583750  0.528180  0.241970  1.0
  O  O896  1  0.916250  0.971820  0.741970  1.0
  O  O897  1  0.391500  0.489580  0.835010  1.0
  O  O898  1  0.108500  0.010420  0.335010  1.0
  O  O899  1  0.608500  0.510420  0.164990  1.0
  O  O900  1  0.891500  0.989580  0.664990  1.0
  O  O901  1  0.390430  0.218110  0.603830  1.0
  O  O902  1  0.109570  0.281890  0.103830  1.0
  O  O903  1  0.609570  0.781890  0.396170  1.0
  O  O904  1  0.890430  0.718110  0.896170  1.0
  O  O905  1  0.353950  0.126510  0.612820  1.0
  O  O906  1  0.146050  0.373490  0.112820  1.0
  O  O907  1  0.646050  0.873490  0.387180  1.0
  O  O908  1  0.853950  0.626510  0.887180  1.0
  O  O909  1  0.472110  0.633720  0.746010  1.0
  O  O910  1  0.027890  0.866280  0.246010  1.0
  O  O911  1  0.527890  0.366280  0.253990  1.0
  O  O912  1  0.972110  0.133720  0.753990  1.0
  O  O913  1  0.450560  0.649780  0.823740  1.0
  O  O914  1  0.049440  0.850220  0.323740  1.0
  O  O915  1  0.549440  0.350220  0.176260  1.0
  O  O916  1  0.950560  0.149780  0.676260  1.0
  O  O917  1  0.565230  0.808490  0.529620  1.0
  O  O918  1  0.934770  0.691510  0.029620  1.0
  O  O919  1  0.434770  0.191510  0.470380  1.0
  O  O920  1  0.065230  0.308490  0.970380  1.0
  O  O921  1  0.589300  0.902110  0.517140  1.0
  O  O922  1  0.910700  0.597890  0.017140  1.0
  O  O923  1  0.410700  0.097890  0.482860  1.0
  O  O924  1  0.089300  0.402110  0.982860  1.0
  O  O925  1  0.520980  0.540000  0.774090  1.0
  O  O926  1  0.979020  0.960000  0.274090  1.0
  O  O927  1  0.479020  0.460000  0.225910  1.0
  O  O928  1  0.020980  0.040000  0.725910  1.0
  O  O929  1  0.498470  0.555920  0.851400  1.0
  O  O930  1  0.001530  0.944080  0.351400  1.0
  O  O931  1  0.501530  0.444080  0.148600  1.0
  O  O932  1  0.998470  0.055920  0.648600  1.0
  O  O933  1  0.774660  0.475040  0.643910  1.0
  O  O934  1  0.725340  0.024960  0.143910  1.0
  O  O935  1  0.225340  0.524960  0.356090  1.0
  O  O936  1  0.274660  0.975040  0.856090  1.0
  O  O937  1  0.866010  0.464710  0.663020  1.0
  O  O938  1  0.633990  0.035290  0.163020  1.0
  O  O939  1  0.133990  0.535290  0.336980  1.0
  O  O940  1  0.366010  0.964710  0.836980  1.0
  O  O941  1  0.022750  0.551240  0.385920  1.0
  O  O942  1  0.477250  0.948760  0.885920  1.0
  O  O943  1  0.977250  0.448760  0.614080  1.0
  O  O944  1  0.522750  0.051240  0.114080  1.0
  O  O945  1  0.385080  0.578330  0.907080  1.0
  O  O946  1  0.114920  0.921670  0.407080  1.0
  O  O947  1  0.614920  0.421670  0.092920  1.0
  O  O948  1  0.885080  0.078330  0.592920  1.0
  O  O949  1  0.349160  0.014580  0.557090  1.0
  O  O950  1  0.150840  0.485420  0.057090  1.0
  O  O951  1  0.650840  0.985420  0.442910  1.0
  O  O952  1  0.849160  0.514580  0.942910  1.0
  O  O953  1  0.309100  0.535860  0.444610  1.0
  O  O954  1  0.190900  0.964140  0.944610  1.0
  O  O955  1  0.690900  0.464140  0.555390  1.0
  O  O956  1  0.809100  0.035860  0.055390  1.0
  O  O957  1  0.471820  0.535000  0.670330  1.0
  O  O958  1  0.028180  0.965000  0.170330  1.0
  O  O959  1  0.528180  0.465000  0.329670  1.0
  O  O960  1  0.971820  0.035000  0.829670  1.0
  O  O961  1  0.446320  0.301910  0.527660  1.0
  O  O962  1  0.053680  0.198090  0.027660  1.0
  O  O963  1  0.553680  0.698090  0.472340  1.0
  O  O964  1  0.946320  0.801910  0.972340  1.0
