
#######################################################################
#
#                 Cambridge Crystallographic Data Centre
#                                CCDC 
#
#######################################################################
#
# If this CIF has been generated from an entry in the Cambridge 
# Structural Database, then it will include bibliographic, chemical, 
# crystal, experimental, refinement or atomic coordinate data resulting 
# from the CCDC's data processing and validation procedures.
#
#######################################################################

data_NIKPOP
_chemical_formula_moiety         'C186 H138 Cu12 N18 O60,6(C3 H7 N1 O1)'
_chemical_name_systematic        
'dodecakis(\m-9H-carbazole-3,6-dicarboxylato)-hexa-aqua-hexakis(dimethylformamide)-dodeca-copper dimethylformamide solvate'
_symmetry_cell_setting           monoclinic
_symmetry_space_group_name_H-M   'P 21/n'
_symmetry_Int_Tables_number      14
_space_group_name_Hall           '-P 2yn'
loop_
_symmetry_equiv_pos_site_id
_symmetry_equiv_pos_as_xyz
1 x,y,z
2 1/2-x,1/2+y,1/2-z
3 -x,-y,-z
4 1/2+x,1/2-y,1/2+z
_cell_length_a                   23.345(2)
_cell_length_b                   27.435(3)
_cell_length_c                   23.959(2)
_cell_angle_alpha                90
_cell_angle_beta                 99.000(3)
_cell_angle_gamma                90
_cell_volume                     15156.1
_exptl_crystal_colour            green
_exptl_crystal_description       Block
_cell_formula_units_Z            2
loop_
_atom_site_label
_atom_site_type_symbol
_atom_site_fract_x
_atom_site_fract_y
_atom_site_fract_z
Cu1 Cu 0.78155(2) 0.57369(2) 0.46250(2)
Cu2 Cu 0.88843(2) 0.59564(2) 0.45212(2)
Cu3 Cu 0.55211(2) 0.25565(2) 0.44889(2)
Cu4 Cu 0.57988(2) 0.16550(2) 0.42916(2)
Cu5 Cu 0.58527(2) 0.46347(2) 0.78736(2)
Cu6 Cu 0.62103(2) 0.45152(2) 0.89480(2)
O1 O 0.80447(13) 0.50701(11) 0.44858(14)
O2 O 0.89661(13) 0.52524(12) 0.43859(14)
O3 O 0.62958(14) 0.27549(11) 0.43513(14)
O4 O 0.65123(14) 0.19855(11) 0.41418(14)
O5 O 0.76756(13) 0.58432(13) 0.38113(13)
O6 O 0.85961(13) 0.60236(13) 0.37139(13)
O7 O 0.48938(13) 0.55877(12) 0.19429(12)
O8 O 0.45682(13) 0.57440(12) 0.10276(12)
O9 O 0.80876(13) 0.56481(12) 0.54325(13)
O10 O 0.90016(13) 0.58478(12) 0.53421(12)
O11 O 0.66572(13) 0.48418(12) 0.78554(13)
O12 O 0.69441(13) 0.47831(12) 0.87921(13)
O13 O 0.58375(14) 0.24197(11) 0.52818(12)
O14 O 0.60850(14) 0.16499(11) 0.51042(12)
O15 O 0.60957(14) 0.39617(12) 0.78189(13)
O16 O 0.64605(14) 0.38718(12) 0.87349(12)
O17 O 0.52789(14) 0.25399(11) 0.36628(12)
O18 O 0.54944(14) 0.17626(11) 0.35022(12)
O19 O 0.43477(14) 0.47038(11) 0.19151(12)
O20 O 0.41070(15) 0.48286(12) 0.09789(13)
O21 O 0.47902(13) 0.22591(11) 0.46000(13)
O22 O 0.50153(13) 0.14860(10) 0.44408(13)
O23 O 0.22534(13) 0.35609(11) 0.52496(14)
O24 O 0.13399(13) 0.33698(11) 0.53529(14)
O25 O 0.97725(12) 0.61408(11) 0.44876(13)
O26 O 0.61492(14) 0.09292(11) 0.42167(13)
O27 O 0.65084(12) 0.44291(11) 0.98542(11)
O28 O 0.69090(16) 0.55539(16) 0.46414(18)
H1 H 0.663834 0.555619 0.430121
H2 H 0.678485 0.547201 0.498874
O29 O 0.52818(19) 0.32967(13) 0.46500(18)
H3 H 0.490785 0.336537 0.473972
H4 H 0.555038 0.355411 0.463127
O30 O 0.55368(17) 0.47234(14) 0.69809(14)
H5 H 0.555911 0.445965 0.672819
H6 H 0.537584 0.502598 0.684171
N1 N 0.87010(18) 0.30680(16) 0.3525(2)
H7 H 0.895848 0.291965 0.335266
N2 N 0.72553(16) 0.61040(15) 0.11893(16)
H8 H 0.742477 0.615442 0.089111
N3 N 0.92655(17) 0.54326(16) 0.79614(16)
H9 H 0.959641 0.546287 0.819146
N4 N 0.70028(19) 0.18197(15) 0.77262(16)
H10 H 0.718038 0.158164 0.793047
N5 N 0.49667(19) 0.26411(15) 0.10307(16)
H11 H 0.500361 0.247440 0.072457
N6 N 0.24139(17) 0.13155(14) 0.48897(16)
H12 H 0.222057 0.103940 0.487801
N7 N 1.06789(18) 0.59227(15) 0.43800(18)
N8 N 0.69070(18) 0.04074(14) 0.45037(18)
N9 N 0.6242(2) 0.45089(17) 1.07182(18)
C1 C 0.8536(2) 0.49617(17) 0.43706(19)
C2 C 0.8742(2) 0.35412(18) 0.3731(2)
C3 C 0.9178(2) 0.3879(2) 0.3720(3)
H13 H 0.951756 0.379657 0.356679
C4 C 0.9113(2) 0.43336(19) 0.3932(2)
H14 H 0.940726 0.457106 0.392163
C5 C 0.86183(19) 0.44549(17) 0.4167(2)
C6 C 0.81812(19) 0.41088(17) 0.41862(19)
H15 H 0.784488 0.419127 0.434351
C7 C 0.8243(2) 0.36458(17) 0.3974(2)
C8 C 0.8184(2) 0.28682(19) 0.3637(2)
C9 C 0.7975(3) 0.2404(2) 0.3502(3)
H16 H 0.817643 0.217834 0.330200
C10 C 0.7451(2) 0.2288(2) 0.3677(3)
H17 H 0.729063 0.197423 0.359030
C11 C 0.7148(2) 0.26131(17) 0.3976(2)
C12 C 0.73703(19) 0.30816(17) 0.40835(19)
H18 H 0.716286 0.331217 0.427014
C13 C 0.7885(2) 0.32097(17) 0.3921(2)
C14 C 0.66124(19) 0.24389(17) 0.4169(2)
C15 C 0.8069(2) 0.59499(17) 0.35220(19)
C16 C 0.7538(2) 0.60771(16) 0.17392(18)
C17 C 0.8123(2) 0.61392(17) 0.19612(19)
H19 H 0.840219 0.620608 0.172235
C18 C 0.8282(2) 0.61006(17) 0.25360(19)
H20 H 0.867600 0.615094 0.269542
C19 C 0.78790(19) 0.59890(17) 0.28960(19)
C20 C 0.72934(19) 0.59259(17) 0.26695(18)
H21 H 0.701490 0.585512 0.290785
C21 C 0.71299(19) 0.59686(16) 0.20939(18)
C22 C 0.6679(2) 0.60414(17) 0.11769(19)
C23 C 0.6228(2) 0.6056(2) 0.07216(19)
H22 H 0.629798 0.612147 0.034902
C24 C 0.5672(2) 0.59700(19) 0.08337(19)
H23 H 0.535590 0.598915 0.053194
C25 C 0.5560(2) 0.58576(17) 0.13688(18)
C26 C 0.60058(19) 0.58466(16) 0.18215(18)
H24 H 0.592942 0.577489 0.219077
C27 C 0.65688(19) 0.59423(17) 0.17280(17)
C28 C 0.4968(2) 0.57260(17) 0.14513(18)
C29 C 0.86161(19) 0.57179(16) 0.56248(19)
C30 C 0.9182(2) 0.55204(18) 0.7392(2)
C31 C 0.9585(2) 0.5664(2) 0.7042(2)
H25 H 0.998201 0.571690 0.719107
C32 C 0.9381(2) 0.57236(18) 0.6478(2)
H26 H 0.964447 0.582415 0.623497
C33 C 0.88010(18) 0.56423(16) 0.62443(19)
C34 C 0.84081(19) 0.54955(16) 0.65866(18)
H27 H 0.801341 0.544302 0.642991
C35 C 0.8594(2) 0.54246(16) 0.71626(19)
C36 C 0.8749(2) 0.52896(17) 0.81146(19)
C37 C 0.8630(2) 0.5184(2) 0.8653(2)
H28 H 0.892143 0.520139 0.897690
C38 C 0.8069(2) 0.50523(19) 0.8692(2)
H29 H 0.797466 0.497806 0.905386
C39 C 0.7627(2) 0.50229(17) 0.82163(18)
C40 C 0.77576(19) 0.51314(16) 0.76910(18)
H30 H 0.746423 0.511578 0.736837
C41 C 0.83200(19) 0.52641(16) 0.76320(18)
C42 C 0.7033(2) 0.48688(17) 0.82898(19)
C43 C 0.60541(19) 0.20103(17) 0.54342(18)
C44 C 0.6791(2) 0.17990(17) 0.71590(19)
C45 C 0.6798(2) 0.14204(18) 0.6781(2)
H31 H 0.696760 0.111594 0.690120
C46 C 0.6553(2) 0.14919(17) 0.6222(2)
H32 H 0.655405 0.123369 0.595856
C47 C 0.6302(2) 0.19394(16) 0.60417(18)
C48 C 0.6289(2) 0.23225(17) 0.64147(19)
H33 H 0.611945 0.262595 0.628918
C49 C 0.6529(2) 0.22530(17) 0.69775(19)
C50 C 0.6890(2) 0.22769(18) 0.79213(19)
C51 C 0.7024(2) 0.2473(2) 0.8468(2)
H34 H 0.723086 0.228582 0.876747
C52 C 0.6851(2) 0.29400(18) 0.85593(19)
H35 H 0.693547 0.307599 0.892768
C53 C 0.6549(2) 0.32221(17) 0.81148(19)
C54 C 0.6418(2) 0.30289(17) 0.75783(18)
H36 H 0.620779 0.321660 0.728146
C55 C 0.6594(2) 0.25602(17) 0.74747(19)
C56 C 0.6357(2) 0.37234(17) 0.82361(18)
C57 C 0.53332(19) 0.21899(17) 0.33433(19)
C58 C 0.5053(2) 0.24608(17) 0.15676(18)
C59 C 0.5221(2) 0.19921(18) 0.1764(2)
H37 H 0.528544 0.174023 0.150843
C60 C 0.5290(2) 0.19092(16) 0.2333(2)
H38 H 0.539239 0.159183 0.247311
C61 C 0.5211(2) 0.22859(16) 0.27216(18)
C62 C 0.50334(19) 0.27470(16) 0.25213(19)
H39 H 0.496351 0.299683 0.277687
C63 C 0.4960(2) 0.28368(17) 0.19510(18)
C64 C 0.4813(2) 0.31273(18) 0.10429(19)
C65 C 0.4670(2) 0.34549(18) 0.06068(19)
H40 H 0.467971 0.336134 0.022660
C66 C 0.4516(2) 0.39137(18) 0.07330(19)
H41 H 0.441668 0.414009 0.043349
C67 C 0.4498(2) 0.40682(17) 0.12927(18)
C68 C 0.4645(2) 0.37390(16) 0.17286(18)
H42 H 0.463820 0.383573 0.210813
C69 C 0.4803(2) 0.32696(17) 0.16113(18)
C70 C 0.4306(2) 0.45713(17) 0.14032(19)
C71 C 0.46736(18) 0.18152(15) 0.45457(18)
C72 C 0.29833(19) 0.13625(16) 0.4795(2)
C73 C 0.3365(2) 0.10218(18) 0.4650(2)
H43 H 0.325369 0.068957 0.460160
C74 C 0.3914(2) 0.11691(18) 0.4576(2)
H44 H 0.418107 0.093571 0.447623
C75 C 0.40806(19) 0.16546(16) 0.46452(18)
C76 C 0.36971(18) 0.20044(16) 0.47868(18)
H45 H 0.381181 0.233639 0.482787
C77 C 0.31466(19) 0.18640(16) 0.48675(18)
C78 C 0.2196(2) 0.17658(17) 0.50053(19)
C79 C 0.1650(2) 0.18949(18) 0.5100(2)
H46 H 0.135477 0.165707 0.510554
C80 C 0.1548(2) 0.23719(18) 0.5185(2)
H47 H 0.117332 0.246598 0.525400
C81 C 0.19752(19) 0.27389(17) 0.51769(18)
C82 C 0.25223(19) 0.26035(16) 0.50805(18)
H48 H 0.281546 0.284215 0.507106
C83 C 0.26371(19) 0.21171(16) 0.49983(18)
C84 C 0.18443(19) 0.32639(17) 0.52658(18)
C85 C 1.0131(2) 0.58280(19) 0.4421(2)
H49 H 1.000784 0.549750 0.439855
C86 C 1.1081(3) 0.5536(3) 0.4273(3)
H50 H 1.092215 0.521904 0.435802
H51 H 1.145579 0.558641 0.451314
H52 H 1.113254 0.554521 0.387467
C87 C 1.0908(2) 0.6405(2) 0.4438(3)
H53 H 1.099798 0.651748 0.407360
H54 H 1.126241 0.640637 0.471823
H55 H 1.062099 0.662361 0.456364
C88 C 0.6608(2) 0.08107(18) 0.4539(2)
H56 H 0.675043 0.103180 0.483276
C89 C 0.7455(2) 0.0317(2) 0.4853(2)
H57 H 0.775778 0.028689 0.461476
H58 H 0.743184 0.001415 0.506531
H59 H 0.754781 0.058849 0.511760
C90 C 0.6717(3) 0.0061(2) 0.4058(3)
H60 H 0.636243 0.018073 0.382520
H61 H 0.663876 -0.025388 0.422476
H62 H 0.702106 0.002036 0.382241
C91 C 0.6170(3) 0.45180(19) 1.0179(2)
H63 H 0.579196 0.460874 1.000299
C92 C 0.5841(3) 0.4591(3) 1.1080(3)
H64 H 0.545045 0.466619 1.092969
H65 H 0.595837 0.457171 1.147724
C93 C 0.6829(3) 0.4359(3) 1.1028(3)
H66 H 0.708373 0.427504 1.075341
H67 H 0.678525 0.407472 1.126561
H68 H 0.699939 0.462884 1.126538
Cu1B Cu 0.21845(2) 0.42631(2) 0.53750(2)
Cu2B Cu 0.11157(2) 0.40436(2) 0.54788(2)
Cu3B Cu 0.44789(2) 0.74435(2) 0.55111(2)
Cu4B Cu 0.42012(2) 0.83450(2) 0.57084(2)
Cu5B Cu 0.41473(2) 0.53653(2) 0.21264(2)
Cu6B Cu 0.37897(2) 0.54848(2) 0.10520(2)
O1B O 0.19553(13) 0.49299(11) 0.55142(14)
O2B O 0.10339(13) 0.47476(12) 0.56141(14)
O3B O 0.37042(14) 0.72451(11) 0.56487(14)
O4B O 0.34877(14) 0.80145(11) 0.58582(14)
O5B O 0.23244(13) 0.41568(13) 0.61887(13)
O6B O 0.14039(13) 0.39764(13) 0.62861(13)
O7B O 0.51062(13) 0.44123(12) 0.80571(12)
O8B O 0.54318(13) 0.42560(12) 0.89724(12)
O9B O 0.19124(13) 0.43519(12) 0.45675(13)
O10B O 0.09984(13) 0.41522(12) 0.46579(12)
O11B O 0.33428(13) 0.51582(12) 0.21446(13)
O12B O 0.30559(13) 0.52169(12) 0.12079(13)
O13B O 0.41625(14) 0.75803(11) 0.47182(12)
O14B O 0.39150(14) 0.83501(11) 0.48958(12)
O15B O 0.39043(14) 0.60383(12) 0.21811(13)
O16B O 0.35395(14) 0.61282(12) 0.12651(12)
O17B O 0.47211(14) 0.74601(11) 0.63372(12)
O18B O 0.45056(14) 0.82374(11) 0.64978(12)
O19B O 0.56523(14) 0.52962(11) 0.80849(12)
O20B O 0.58930(15) 0.51714(12) 0.90211(13)
O21B O 0.52098(13) 0.77409(11) 0.54000(13)
O22B O 0.49847(13) 0.85140(10) 0.55592(13)
O23B O 0.77466(13) 0.64391(11) 0.47504(14)
O24B O 0.86601(13) 0.66302(11) 0.46471(14)
O25B O 0.02275(12) 0.38592(11) 0.55124(13)
O26B O 0.38508(14) 0.90708(11) 0.57833(13)
O27B O 0.34916(12) 0.55709(11) 0.01458(11)
O28B O 0.30910(16) 0.44461(16) 0.53586(18)
H1B H 0.336166 0.444381 0.569879
H2B H 0.321515 0.452799 0.501126
O29B O 0.47182(19) 0.67033(13) 0.53500(18)
H3B H 0.509215 0.663463 0.526028
H4B H 0.444962 0.644589 0.536873
O30B O 0.44632(17) 0.52766(14) 0.30191(14)
H5B H 0.444089 0.554035 0.327181
H6B H 0.462416 0.497402 0.315829
N1B N 0.12990(18) 0.69320(16) 0.6475(2)
H7B H 0.104152 0.708035 0.664734
N2B N 0.27447(16) 0.38960(15) 0.88107(16)
H8B H 0.257523 0.384558 0.910889
N3B N 0.07345(17) 0.45674(16) 0.20386(16)
H9B H 0.040359 0.453713 0.180854
N4B N 0.29972(19) 0.81803(15) 0.22738(16)
H10B H 0.281962 0.841836 0.206953
N5B N 0.50333(19) 0.73589(15) 0.89693(16)
H11B H 0.499639 0.752560 0.927543
N6B N 0.75861(17) 0.86845(14) 0.51103(16)
H12B H 0.777943 0.896060 0.512199
N7B N -0.06789(18) 0.40773(15) 0.56200(18)
N8B N 0.30930(18) 0.95926(14) 0.54963(18)
N9B N 0.3758(2) 0.54911(17) -0.07182(18)
C1B C 0.1464(2) 0.50383(17) 0.56294(19)
C2B C 0.1258(2) 0.64588(18) 0.6269(2)
C3B C 0.0822(2) 0.6121(2) 0.6280(3)
H13B H 0.048244 0.620343 0.643321
C4B C 0.0887(2) 0.56664(19) 0.6068(2)
H14B H 0.059274 0.542894 0.607837
C5B C 0.13817(19) 0.55451(17) 0.5833(2)
C6B C 0.18188(19) 0.58912(17) 0.58138(19)
H15B H 0.215512 0.580873 0.565649
C7B C 0.1757(2) 0.63542(17) 0.6026(2)
C8B C 0.1816(2) 0.71318(19) 0.6363(2)
C9B C 0.2025(3) 0.7596(2) 0.6498(3)
H16B H 0.182357 0.782166 0.669800
C10B C 0.2549(2) 0.7712(2) 0.6323(3)
H17B H 0.270937 0.802577 0.640970
C11B C 0.2852(2) 0.73869(17) 0.6024(2)
C12B C 0.26297(19) 0.69184(17) 0.59165(19)
H18B H 0.283714 0.668783 0.572986
C13B C 0.2115(2) 0.67903(17) 0.6079(2)
C14B C 0.33876(19) 0.75611(17) 0.5831(2)
C15B C 0.1931(2) 0.40501(17) 0.64780(19)
C16B C 0.2462(2) 0.39229(16) 0.82608(18)
C17B C 0.1877(2) 0.38608(17) 0.80388(19)
H19B H 0.159781 0.379392 0.827765
C18B C 0.1718(2) 0.38994(17) 0.74640(19)
H20B H 0.132400 0.384906 0.730458
C19B C 0.21210(19) 0.40110(17) 0.71040(19)
C20B C 0.27066(19) 0.40741(17) 0.73305(18)
H21B H 0.298510 0.414488 0.709215
C21B C 0.28701(19) 0.40314(16) 0.79061(18)
C22B C 0.3321(2) 0.39586(17) 0.88231(19)
C23B C 0.3772(2) 0.3944(2) 0.92784(19)
H22B H 0.370202 0.387853 0.965098
C24B C 0.4328(2) 0.40300(19) 0.91663(19)
H23B H 0.464410 0.401085 0.946806
C25B C 0.4440(2) 0.41424(17) 0.86312(18)
C26B C 0.39942(19) 0.41534(16) 0.81785(18)
H24B H 0.407058 0.422511 0.780923
C27B C 0.34312(19) 0.40577(17) 0.82720(17)
C28B C 0.5032(2) 0.42740(17) 0.85487(18)
C29B C 0.13839(19) 0.42821(16) 0.43752(19)
C30B C 0.0818(2) 0.44796(18) 0.2608(2)
C31B C 0.0415(2) 0.4336(2) 0.2958(2)
H25B H 0.001799 0.428310 0.280893
C32B C 0.0619(2) 0.42764(18) 0.3522(2)
H26B H 0.035553 0.417585 0.376503
C33B C 0.11990(18) 0.43577(16) 0.37557(19)
C34B C 0.15919(19) 0.45045(16) 0.34134(18)
H27B H 0.198659 0.455698 0.357009
C35B C 0.1406(2) 0.45754(16) 0.28374(19)
C36B C 0.1251(2) 0.47104(17) 0.18854(19)
C37B C 0.1370(2) 0.4816(2) 0.1347(2)
H28B H 0.107857 0.479861 0.102310
C38B C 0.1931(2) 0.49477(19) 0.1308(2)
H29B H 0.202534 0.502194 0.094614
C39B C 0.2373(2) 0.49771(17) 0.17837(18)
C40B C 0.22424(19) 0.48686(16) 0.23090(18)
H30B H 0.253577 0.488422 0.263163
C41B C 0.16800(19) 0.47359(16) 0.23680(18)
C42B C 0.2967(2) 0.51312(17) 0.17102(19)
C43B C 0.39459(19) 0.79897(17) 0.45658(18)
C44B C 0.3209(2) 0.82010(17) 0.28410(19)
C45B C 0.3202(2) 0.85796(18) 0.3219(2)
H31B H 0.303240 0.888406 0.309880
C46B C 0.3447(2) 0.85081(17) 0.3778(2)
H32B H 0.344595 0.876631 0.404144
C47B C 0.3698(2) 0.80606(16) 0.39583(18)
C48B C 0.3711(2) 0.76775(17) 0.35853(19)
H33B H 0.388055 0.737405 0.371082
C49B C 0.3471(2) 0.77470(17) 0.30225(19)
C50B C 0.3110(2) 0.77231(18) 0.20787(19)
C51B C 0.2976(2) 0.7527(2) 0.1532(2)
H34B H 0.276914 0.771418 0.123253
C52B C 0.3149(2) 0.70600(18) 0.14407(19)
H35B H 0.306453 0.692401 0.107232
C53B C 0.3451(2) 0.67779(17) 0.18852(19)
C54B C 0.3582(2) 0.69711(17) 0.24217(18)
H36B H 0.379221 0.678340 0.271854
C55B C 0.3406(2) 0.74398(17) 0.25253(19)
C56B C 0.3643(2) 0.62766(17) 0.17639(18)
C57B C 0.46668(19) 0.78101(17) 0.66567(19)
C58B C 0.4947(2) 0.75392(17) 0.84324(18)
C59B C 0.4779(2) 0.80079(18) 0.8236(2)
H37B H 0.471456 0.825977 0.849157
C60B C 0.4710(2) 0.80908(16) 0.7667(2)
H38B H 0.460761 0.840817 0.752689
C61B C 0.4789(2) 0.77141(16) 0.72784(18)
C62B C 0.49666(19) 0.72530(16) 0.74787(19)
H39B H 0.503649 0.700317 0.722313
C63B C 0.5040(2) 0.71632(17) 0.80490(18)
C64B C 0.5187(2) 0.68727(18) 0.89571(19)
C65B C 0.5330(2) 0.65451(18) 0.93932(19)
H40B H 0.532029 0.663866 0.977340
C66B C 0.5484(2) 0.60863(18) 0.92670(19)
H41B H 0.558332 0.585991 0.956651
C67B C 0.5502(2) 0.59318(17) 0.87073(18)
C68B C 0.5355(2) 0.62610(16) 0.82714(18)
H42B H 0.536180 0.616427 0.789187
C69B C 0.5197(2) 0.67304(17) 0.83887(18)
C70B C 0.5694(2) 0.54287(17) 0.85968(19)
C71B C 0.53264(18) 0.81848(15) 0.54543(18)
C72B C 0.70167(19) 0.86375(16) 0.5205(2)
C73B C 0.6635(2) 0.89782(18) 0.5350(2)
H43B H 0.674631 0.931043 0.539840
C74B C 0.6086(2) 0.88309(18) 0.5424(2)
H44B H 0.581893 0.906429 0.552377
C75B C 0.59194(19) 0.83454(16) 0.53548(18)
C76B C 0.63029(18) 0.79956(16) 0.52132(18)
H45B H 0.618819 0.766361 0.517213
C77B C 0.68534(19) 0.81360(16) 0.51325(18)
C78B C 0.7804(2) 0.82342(17) 0.49947(19)
C79B C 0.8350(2) 0.81051(18) 0.4900(2)
H46B H 0.864523 0.834293 0.489446
C80B C 0.8452(2) 0.76281(18) 0.4815(2)
H47B H 0.882668 0.753402 0.474600
C81B C 0.80248(19) 0.72611(17) 0.48231(18)
C82B C 0.74777(19) 0.73965(16) 0.49195(18)
H48B H 0.718454 0.715785 0.492894
C83B C 0.73629(19) 0.78829(16) 0.50017(18)
C84B C 0.81557(19) 0.67361(17) 0.47342(18)
C85B C -0.0131(2) 0.41720(19) 0.5579(2)
H49B H -0.000784 0.450250 0.560145
C86B C -0.1081(3) 0.4464(3) 0.5727(3)
H50B H -0.092215 0.478096 0.564198
H51B H -0.145579 0.441359 0.548686
H52B H -0.113254 0.445479 0.612533
C87B C -0.0908(2) 0.3595(2) 0.5562(3)
H53B H -0.099798 0.348252 0.592640
H54B H -0.126241 0.359363 0.528177
H55B H -0.062099 0.337639 0.543636
C88B C 0.3392(2) 0.91893(18) 0.5461(2)
H56B H 0.324957 0.896820 0.516724
C89B C 0.2545(2) 0.9683(2) 0.5147(2)
H57B H 0.224222 0.971311 0.538524
H58B H 0.256816 0.998585 0.493469
H59B H 0.245219 0.941151 0.488240
C90B C 0.3283(3) 0.9939(2) 0.5942(3)
H60B H 0.363757 0.981927 0.617480
H61B H 0.336124 1.025388 0.577524
H62B H 0.297894 0.997964 0.617759
C91B C 0.3830(3) 0.54820(19) -0.0179(2)
H63B H 0.420804 0.539126 -0.000299
C92B C 0.4159(3) 0.5409(3) -0.1080(3)
H64B H 0.454955 0.533381 -0.092969
H65B H 0.404163 0.542829 -0.147724
C93B C 0.3171(3) 0.5641(3) -0.1028(3)
H66B H 0.291627 0.572496 -0.075341
H67B H 0.321475 0.592528 -0.126561
H68B H 0.300061 0.537116 -0.126538
O31 O 0.72398(16) 0.65311(15) 0.00937(15)
N10 N 0.7103(2) 0.7300(2) -0.0279(2)
C94 C 0.7407(3) 0.6898(3) -0.0128(2)
H69 H 0.779606 0.689323 -0.019997
C95 C 0.7372(3) 0.7714(3) -0.0540(3)
H70 H 0.778672 0.764955 -0.052965
H71 H 0.732234 0.801337 -0.033048
H72 H 0.718542 0.775182 -0.093367
C96 C 0.6535(3) 0.7357(3) -0.0157(4)
H73 H 0.636480 0.710591 0.003543
H74 H 0.632350 0.764585 -0.026723
O32 O 0.4845(2) 0.23849(16) -0.00928(16)
N11 N 0.5268(2) 0.23168(19) -0.0870(2)
C97 C 0.5114(2) 0.2154(2) -0.0403(2)
H75 H 0.521917 0.182932 -0.029525
C98 C 0.5597(3) 0.2021(3) -0.1208(3)
H76 H 0.537986 0.198699 -0.159046
H77 H 0.566377 0.169788 -0.103542
H78 H 0.597090 0.217785 -0.122678
C99 C 0.5141(4) 0.2822(3) -0.1047(3)
H79 H 0.518623 0.285981 -0.144474
H80 H 0.541025 0.304180 -0.081373
H81 H 0.474210 0.290289 -0.100153
O33 O 0.8596(3) 0.1281(3) 0.7743(3)
N12 N 0.8256(3) 0.1409(2) 0.6825(3)
C100 C 0.8426(4) 0.1127(3) 0.7265(4)
H82 H 0.841541 0.078396 0.720858
C101 C 0.8097(3) 0.1172(4) 0.6269(3)
H83 H 0.767615 0.119107 0.615215
H84 H 0.821754 0.082992 0.629531
H85 H 0.829216 0.133939 0.598941
C102 C 0.8279(4) 0.1940(3) 0.6845(5)
H86 H 0.860990 0.205365 0.667342
H87 H 0.832455 0.204829 0.723878
H88 H 0.791976 0.207378 0.663528
loop_
_geom_bond_atom_site_label_1
_geom_bond_atom_site_label_2
_geom_bond_site_symmetry_1
_geom_bond_site_symmetry_2
Cu1 Cu2 1_555 1_555
Cu2 O2 1_555 1_555
Cu3 Cu4 1_555 1_555
Cu4 O4 1_555 1_555
Cu5 Cu6 1_555 1_555
Cu6 O12 1_555 1_555
O1 Cu1 1_555 1_555
O2 C1 1_555 1_555
O3 Cu3 1_555 1_555
O4 C14 1_555 1_555
O5 Cu1 1_555 1_555
O6 Cu2 1_555 1_555
O7 C28 1_555 1_555
O8 C28 1_555 1_555
O9 Cu1 1_555 1_555
O10 Cu2 1_555 1_555
O11 Cu5 1_555 1_555
O12 C42 1_555 1_555
O13 Cu3 1_555 1_555
O14 Cu4 1_555 1_555
O15 Cu5 1_555 1_555
O16 Cu6 1_555 1_555
O17 Cu3 1_555 1_555
O18 Cu4 1_555 1_555
O19 C70 1_555 1_555
O20 C70 1_555 1_555
O21 Cu3 1_555 1_555
O22 Cu4 1_555 1_555
O23 C84 1_555 1_555
O24 C84 1_555 1_555
O25 Cu2 1_555 1_555
O26 Cu4 1_555 1_555
O27 Cu6 1_555 1_555
O28 Cu1 1_555 1_555
H1 O28 1_555 1_555
H2 O28 1_555 1_555
O29 Cu3 1_555 1_555
H3 O29 1_555 1_555
H4 O29 1_555 1_555
O30 Cu5 1_555 1_555
H5 O30 1_555 1_555
H6 O30 1_555 1_555
N1 H7 1_555 1_555
N2 H8 1_555 1_555
N3 H9 1_555 1_555
N4 H10 1_555 1_555
N5 H11 1_555 1_555
N6 H12 1_555 1_555
N7 C85 1_555 1_555
N8 C88 1_555 1_555
N9 C91 1_555 1_555
C1 O1 1_555 1_555
C2 N1 1_555 1_555
C3 C2 1_555 1_555
H13 C3 1_555 1_555
C4 C3 1_555 1_555
H14 C4 1_555 1_555
C5 C1 1_555 1_555
C6 C5 1_555 1_555
H15 C6 1_555 1_555
C7 C2 1_555 1_555
C8 N1 1_555 1_555
C9 C8 1_555 1_555
H16 C9 1_555 1_555
C10 C9 1_555 1_555
H17 C10 1_555 1_555
C11 C10 1_555 1_555
C12 C11 1_555 1_555
H18 C12 1_555 1_555
C13 C7 1_555 1_555
C14 O3 1_555 1_555
C15 O5 1_555 1_555
C16 N2 1_555 1_555
C17 C16 1_555 1_555
H19 C17 1_555 1_555
C18 C17 1_555 1_555
H20 C18 1_555 1_555
C19 C15 1_555 1_555
C20 C19 1_555 1_555
H21 C20 1_555 1_555
C21 C16 1_555 1_555
C22 N2 1_555 1_555
C23 C22 1_555 1_555
H22 C23 1_555 1_555
C24 C23 1_555 1_555
H23 C24 1_555 1_555
C25 C24 1_555 1_555
C26 C25 1_555 1_555
H24 C26 1_555 1_555
C27 C21 1_555 1_555
C28 C25 1_555 1_555
C29 O9 1_555 1_555
C30 N3 1_555 1_555
C31 C30 1_555 1_555
H25 C31 1_555 1_555
C32 C31 1_555 1_555
H26 C32 1_555 1_555
C33 C29 1_555 1_555
C34 C33 1_555 1_555
H27 C34 1_555 1_555
C35 C30 1_555 1_555
C36 N3 1_555 1_555
C37 C36 1_555 1_555
H28 C37 1_555 1_555
C38 C37 1_555 1_555
H29 C38 1_555 1_555
C39 C38 1_555 1_555
C40 C39 1_555 1_555
H30 C40 1_555 1_555
C41 C35 1_555 1_555
C42 O11 1_555 1_555
C43 O13 1_555 1_555
C44 N4 1_555 1_555
C45 C44 1_555 1_555
H31 C45 1_555 1_555
C46 C45 1_555 1_555
H32 C46 1_555 1_555
C47 C43 1_555 1_555
C48 C47 1_555 1_555
H33 C48 1_555 1_555
C49 C44 1_555 1_555
C50 N4 1_555 1_555
C51 C50 1_555 1_555
H34 C51 1_555 1_555
C52 C51 1_555 1_555
H35 C52 1_555 1_555
C53 C52 1_555 1_555
C54 C53 1_555 1_555
H36 C54 1_555 1_555
C55 C49 1_555 1_555
C56 O15 1_555 1_555
C57 O17 1_555 1_555
C58 N5 1_555 1_555
C59 C58 1_555 1_555
H37 C59 1_555 1_555
C60 C59 1_555 1_555
H38 C60 1_555 1_555
C61 C57 1_555 1_555
C62 C61 1_555 1_555
H39 C62 1_555 1_555
C63 C58 1_555 1_555
C64 N5 1_555 1_555
C65 C64 1_555 1_555
H40 C65 1_555 1_555
C66 C65 1_555 1_555
H41 C66 1_555 1_555
C67 C66 1_555 1_555
C68 C67 1_555 1_555
H42 C68 1_555 1_555
C69 C63 1_555 1_555
C70 C67 1_555 1_555
C71 O21 1_555 1_555
C72 N6 1_555 1_555
C73 C72 1_555 1_555
H43 C73 1_555 1_555
C74 C73 1_555 1_555
H44 C74 1_555 1_555
C75 C71 1_555 1_555
C76 C75 1_555 1_555
H45 C76 1_555 1_555
C77 C72 1_555 1_555
C78 N6 1_555 1_555
C79 C78 1_555 1_555
H46 C79 1_555 1_555
C80 C79 1_555 1_555
H47 C80 1_555 1_555
C81 C80 1_555 1_555
C82 C81 1_555 1_555
H48 C82 1_555 1_555
C83 C77 1_555 1_555
C84 C81 1_555 1_555
C85 O25 1_555 1_555
H49 C85 1_555 1_555
C86 N7 1_555 1_555
H50 C86 1_555 1_555
H51 C86 1_555 1_555
H52 C86 1_555 1_555
C87 N7 1_555 1_555
H53 C87 1_555 1_555
H54 C87 1_555 1_555
H55 C87 1_555 1_555
C88 O26 1_555 1_555
H56 C88 1_555 1_555
C89 N8 1_555 1_555
H57 C89 1_555 1_555
H58 C89 1_555 1_555
H59 C89 1_555 1_555
C90 N8 1_555 1_555
H60 C90 1_555 1_555
H61 C90 1_555 1_555
H62 C90 1_555 1_555
C91 O27 1_555 1_555
H63 C91 1_555 1_555
C92 N9 1_555 1_555
H64 C92 1_555 1_555
H65 C92 1_555 1_555
C93 N9 1_555 1_555
H66 C93 1_555 1_555
H67 C93 1_555 1_555
H68 C93 1_555 1_555
O31 C94 1_555 1_555
N10 C94 1_555 1_555
C94 H69 1_555 1_555
C95 N10 1_555 1_555
H70 C95 1_555 1_555
H71 C95 1_555 1_555
H72 C95 1_555 1_555
C96 N10 1_555 1_555
H73 C96 1_555 1_555
H74 C96 1_555 1_555
O32 C97 1_555 1_555
N11 C97 1_555 1_555
C97 H75 1_555 1_555
C98 N11 1_555 1_555
H76 C98 1_555 1_555
H77 C98 1_555 1_555
H78 C98 1_555 1_555
C99 N11 1_555 1_555
H79 C99 1_555 1_555
H80 C99 1_555 1_555
H81 C99 1_555 1_555
O33 C100 1_555 1_555
N12 C100 1_555 1_555
C100 H82 1_555 1_555
C101 N12 1_555 1_555
H83 C101 1_555 1_555
H84 C101 1_555 1_555
H85 C101 1_555 1_555
C102 N12 1_555 1_555
H86 C102 1_555 1_555
H87 C102 1_555 1_555
H88 C102 1_555 1_555
Cu1B O23 1_555 1_555
Cu2B O24 1_555 1_555
Cu3B Cu4B 1_555 1_555
Cu4B O4B 1_555 1_555
Cu5B O7 1_555 1_555
Cu6B O8 1_555 1_555
O1B Cu1B 1_555 1_555
O2B Cu2B 1_555 1_555
O3B Cu3B 1_555 1_555
O4B C14B 1_555 1_555
O5B Cu1B 1_555 1_555
O6B Cu2B 1_555 1_555
O7B Cu5 1_555 1_555
O8B Cu6 1_555 1_555
O9B Cu1B 1_555 1_555
O10B Cu2B 1_555 1_555
O11B Cu5B 1_555 1_555
O12B Cu6B 1_555 1_555
O13B Cu3B 1_555 1_555
O14B Cu4B 1_555 1_555
O15B Cu5B 1_555 1_555
O16B Cu6B 1_555 1_555
O17B Cu3B 1_555 1_555
O18B Cu4B 1_555 1_555
O19B Cu5 1_555 1_555
O20B Cu6 1_555 1_555
O21B Cu3B 1_555 1_555
O22B Cu4B 1_555 1_555
O23B Cu1 1_555 1_555
O24B Cu2 1_555 1_555
O25B Cu2B 1_555 1_555
O26B Cu4B 1_555 1_555
O27B Cu6B 1_555 1_555
O28B Cu1B 1_555 1_555
H1B O28B 1_555 1_555
H2B O28B 1_555 1_555
O29B Cu3B 1_555 1_555
H3B O29B 1_555 1_555
H4B O29B 1_555 1_555
O30B Cu5B 1_555 1_555
H5B O30B 1_555 1_555
H6B O30B 1_555 1_555
N1B H7B 1_555 1_555
N2B H8B 1_555 1_555
N3B H9B 1_555 1_555
N4B H10B 1_555 1_555
N5B H11B 1_555 1_555
N6B H12B 1_555 1_555
N7B C85B 1_555 1_555
N8B C88B 1_555 1_555
N9B C91B 1_555 1_555
C1B O1B 1_555 1_555
C2B N1B 1_555 1_555
C3B C2B 1_555 1_555
H13B C3B 1_555 1_555
C4B C3B 1_555 1_555
H14B C4B 1_555 1_555
C5B C1B 1_555 1_555
C6B C5B 1_555 1_555
H15B C6B 1_555 1_555
C7B C2B 1_555 1_555
C8B N1B 1_555 1_555
C9B C8B 1_555 1_555
H16B C9B 1_555 1_555
C10B C9B 1_555 1_555
H17B C10B 1_555 1_555
C11B C10B 1_555 1_555
C12B C11B 1_555 1_555
H18B C12B 1_555 1_555
C13B C7B 1_555 1_555
C14B O3B 1_555 1_555
C15B O5B 1_555 1_555
C16B N2B 1_555 1_555
C17B C16B 1_555 1_555
H19B C17B 1_555 1_555
C18B C17B 1_555 1_555
H20B C18B 1_555 1_555
C19B C15B 1_555 1_555
C20B C19B 1_555 1_555
H21B C20B 1_555 1_555
C21B C16B 1_555 1_555
C22B N2B 1_555 1_555
C23B C22B 1_555 1_555
H22B C23B 1_555 1_555
C24B C23B 1_555 1_555
H23B C24B 1_555 1_555
C25B C24B 1_555 1_555
C26B C25B 1_555 1_555
H24B C26B 1_555 1_555
C27B C21B 1_555 1_555
C28B O7B 1_555 1_555
C29B O9B 1_555 1_555
C30B N3B 1_555 1_555
C31B C30B 1_555 1_555
H25B C31B 1_555 1_555
C32B C31B 1_555 1_555
H26B C32B 1_555 1_555
C33B C29B 1_555 1_555
C34B C33B 1_555 1_555
H27B C34B 1_555 1_555
C35B C30B 1_555 1_555
C36B N3B 1_555 1_555
C37B C36B 1_555 1_555
H28B C37B 1_555 1_555
C38B C37B 1_555 1_555
H29B C38B 1_555 1_555
C39B C38B 1_555 1_555
C40B C39B 1_555 1_555
H30B C40B 1_555 1_555
C41B C35B 1_555 1_555
C42B O11B 1_555 1_555
C43B O13B 1_555 1_555
C44B N4B 1_555 1_555
C45B C44B 1_555 1_555
H31B C45B 1_555 1_555
C46B C45B 1_555 1_555
H32B C46B 1_555 1_555
C47B C43B 1_555 1_555
C48B C47B 1_555 1_555
H33B C48B 1_555 1_555
C49B C44B 1_555 1_555
C50B N4B 1_555 1_555
C51B C50B 1_555 1_555
H34B C51B 1_555 1_555
C52B C51B 1_555 1_555
H35B C52B 1_555 1_555
C53B C52B 1_555 1_555
C54B C53B 1_555 1_555
H36B C54B 1_555 1_555
C55B C49B 1_555 1_555
C56B O15B 1_555 1_555
C57B O17B 1_555 1_555
C58B N5B 1_555 1_555
C59B C58B 1_555 1_555
H37B C59B 1_555 1_555
C60B C59B 1_555 1_555
H38B C60B 1_555 1_555
C61B C57B 1_555 1_555
C62B C61B 1_555 1_555
H39B C62B 1_555 1_555
C63B C58B 1_555 1_555
C64B N5B 1_555 1_555
C65B C64B 1_555 1_555
H40B C65B 1_555 1_555
C66B C65B 1_555 1_555
H41B C66B 1_555 1_555
C67B C66B 1_555 1_555
C68B C67B 1_555 1_555
H42B C68B 1_555 1_555
C69B C63B 1_555 1_555
C70B O19B 1_555 1_555
C71B O21B 1_555 1_555
C72B N6B 1_555 1_555
C73B C72B 1_555 1_555
H43B C73B 1_555 1_555
C74B C73B 1_555 1_555
H44B C74B 1_555 1_555
C75B C71B 1_555 1_555
C76B C75B 1_555 1_555
H45B C76B 1_555 1_555
C77B C72B 1_555 1_555
C78B N6B 1_555 1_555
C79B C78B 1_555 1_555
H46B C79B 1_555 1_555
C80B C79B 1_555 1_555
H47B C80B 1_555 1_555
C81B C80B 1_555 1_555
C82B C81B 1_555 1_555
H48B C82B 1_555 1_555
C83B C77B 1_555 1_555
C84B O23B 1_555 1_555
C85B O25B 1_555 1_555
H49B C85B 1_555 1_555
C86B N7B 1_555 1_555
H50B C86B 1_555 1_555
H51B C86B 1_555 1_555
H52B C86B 1_555 1_555
C87B N7B 1_555 1_555
H53B C87B 1_555 1_555
H54B C87B 1_555 1_555
H55B C87B 1_555 1_555
C88B O26B 1_555 1_555
H56B C88B 1_555 1_555
C89B N8B 1_555 1_555
H57B C89B 1_555 1_555
H58B C89B 1_555 1_555
H59B C89B 1_555 1_555
C90B N8B 1_555 1_555
H60B C90B 1_555 1_555
H61B C90B 1_555 1_555
H62B C90B 1_555 1_555
C91B O27B 1_555 1_555
H63B C91B 1_555 1_555
C92B N9B 1_555 1_555
H64B C92B 1_555 1_555
H65B C92B 1_555 1_555
C93B N9B 1_555 1_555
H66B C93B 1_555 1_555
H67B C93B 1_555 1_555
H68B C93B 1_555 1_555
O6 C15 1_555 1_555
O10 C29 1_555 1_555
O14 C43 1_555 1_555
O16 C56 1_555 1_555
O18 C57 1_555 1_555
O19 Cu5B 1_555 1_555
O20 Cu6B 1_555 1_555
O22 C71 1_555 1_555
C4 C5 1_555 1_555
C6 C7 1_555 1_555
C8 C13 1_555 1_555
C11 C14 1_555 1_555
C12 C13 1_555 1_555
C18 C19 1_555 1_555
C20 C21 1_555 1_555
C22 C27 1_555 1_555
C26 C27 1_555 1_555
C32 C33 1_555 1_555
C34 C35 1_555 1_555
C36 C41 1_555 1_555
C39 C42 1_555 1_555
C40 C41 1_555 1_555
C46 C47 1_555 1_555
C48 C49 1_555 1_555
C50 C55 1_555 1_555
C53 C56 1_555 1_555
C54 C55 1_555 1_555
C60 C61 1_555 1_555
C62 C63 1_555 1_555
C64 C69 1_555 1_555
C68 C69 1_555 1_555
C74 C75 1_555 1_555
C76 C77 1_555 1_555
C78 C83 1_555 1_555
C82 C83 1_555 1_555
Cu1B Cu2B 1_555 1_555
Cu5B Cu6B 1_555 1_555
O2B C1B 1_555 1_555
O6B C15B 1_555 1_555
O8B C28B 1_555 1_555
O10B C29B 1_555 1_555
O12B C42B 1_555 1_555
O14B C43B 1_555 1_555
O16B C56B 1_555 1_555
O18B C57B 1_555 1_555
O20B C70B 1_555 1_555
O22B C71B 1_555 1_555
O24B C84B 1_555 1_555
C4B C5B 1_555 1_555
C6B C7B 1_555 1_555
C8B C13B 1_555 1_555
C11B C14B 1_555 1_555
C12B C13B 1_555 1_555
C18B C19B 1_555 1_555
C20B C21B 1_555 1_555
C22B C27B 1_555 1_555
C25B C28B 1_555 1_555
C26B C27B 1_555 1_555
C32B C33B 1_555 1_555
C34B C35B 1_555 1_555
C36B C41B 1_555 1_555
C39B C42B 1_555 1_555
C40B C41B 1_555 1_555
C46B C47B 1_555 1_555
C48B C49B 1_555 1_555
C50B C55B 1_555 1_555
C53B C56B 1_555 1_555
C54B C55B 1_555 1_555
C60B C61B 1_555 1_555
C62B C63B 1_555 1_555
C64B C69B 1_555 1_555
C67B C70B 1_555 1_555
C68B C69B 1_555 1_555
C74B C75B 1_555 1_555
C76B C77B 1_555 1_555
C78B C83B 1_555 1_555
C81B C84B 1_555 1_555
C82B C83B 1_555 1_555

#END
