
#######################################################################
#
#                 Cambridge Crystallographic Data Centre
#                                CCDC 
#
#######################################################################
#
# If this CIF has been generated from an entry in the Cambridge 
# Structural Database, then it will include bibliographic, chemical, 
# crystal, experimental, refinement or atomic coordinate data resulting 
# from the CCDC's data processing and validation procedures.
#
#######################################################################

data_NOFFAQ
_chemical_formula_moiety         'C34 H32 Cl4 N4 Pd2 Si2,C3 H6 O1'
_chemical_name_systematic        
"bis(\m~2~-bis(3-pyridyl)methylphenylsilane-N,N')-tetrachloro-di-palladium(ii) acetone solvate"
_symmetry_cell_setting           monoclinic
_symmetry_space_group_name_H-M   'P 21/n'
_symmetry_Int_Tables_number      14
_space_group_name_Hall           '-P 2yn'
loop_
_symmetry_equiv_pos_site_id
_symmetry_equiv_pos_as_xyz
1 x,y,z
2 1/2-x,1/2+y,1/2-z
3 -x,-y,-z
4 1/2+x,1/2-y,1/2+z
_cell_length_a                   13.9305(10)
_cell_length_b                   13.3510(9)
_cell_length_c                   22.3537(15)
_cell_angle_alpha                90
_cell_angle_beta                 106.618(2)
_cell_angle_gamma                90
_cell_volume                     3983.83
_exptl_crystal_colour            yellow
_exptl_crystal_description       plate
_cell_formula_units_Z            4
loop_
_atom_site_label
_atom_site_type_symbol
_atom_site_fract_x
_atom_site_fract_y
_atom_site_fract_z
Pd1 Pd 1.04456(5) -0.05848(5) 0.93104(3)
Pd2 Pd 1.00682(5) 0.07261(5) 0.68215(3)
Cl1 Cl 0.95648(16) 0.09017(17) 0.91656(10)
Cl2 Cl 1.13319(17) -0.20617(17) 0.94260(11)
Cl3 Cl 0.9612(2) 0.1674(2) 0.59346(12)
Cl4 Cl 1.05513(17) -0.02978(17) 0.76829(10)
Si1 Si 0.67527(19) -0.1077(2) 0.73911(12)
Si2 Si 1.29293(18) 0.26082(19) 0.89209(11)
N1 N 0.9138(4) -0.1365(5) 0.8968(3)
N2 N 0.8787(5) -0.0105(6) 0.6508(3)
N3 N 1.1348(5) 0.1556(5) 0.7167(3)
N4 N 1.1761(4) 0.0196(5) 0.9620(3)
C1 C 0.5688(7) -0.1964(9) 0.7117(5)
H1 H 0.5388 -0.2093 0.7456
H2 H 0.5931 -0.2595 0.6990
H3 H 0.5183 -0.1672 0.6761
C2 C 0.6360(7) 0.0190(8) 0.7537(4)
C3 C 0.6576(8) 0.0629(8) 0.8124(5)
H4 H 0.6964 0.0257 0.8471
C4 C 0.6258(9) 0.1574(9) 0.8230(6)
H5 H 0.6413 0.1833 0.8642
C5 C 0.5714(8) 0.2138(9) 0.7732(7)
H6 H 0.5494 0.2791 0.7798
C6 C 0.5494(8) 0.1747(10) 0.7143(7)
H7 H 0.5127 0.2137 0.6797
C7 C 0.5801(8) 0.0789(8) 0.7044(5)
H8 H 0.5628 0.0531 0.6630
C8 C 0.7625(6) -0.1560(6) 0.8138(4)
C9 C 0.8537(6) -0.1072(7) 0.8429(4)
H9 H 0.8725 -0.0509 0.8227
C10 C 0.8886(6) -0.2118(7) 0.9276(4)
H10 H 0.9322 -0.2304 0.9671
C11 C 0.8011(7) -0.2635(8) 0.9041(5)
H11 H 0.7844 -0.3178 0.9268
C12 C 0.7379(7) -0.2361(8) 0.8475(5)
H12 H 0.6769 -0.2715 0.8308
C13 C 0.7435(7) -0.0909(7) 0.6778(4)
C14 C 0.8233(7) -0.0263(7) 0.6891(4)
H13 H 0.8400 0.0098 0.7274
C15 C 0.8527(7) -0.0577(7) 0.5950(5)
H14 H 0.8903 -0.0457 0.5664
C16 C 0.7740(8) -0.1220(9) 0.5791(5)
H15 H 0.7566 -0.1542 0.5395
C17 C 0.7200(7) -0.1403(8) 0.6202(4)
H16 H 0.6662 -0.1868 0.6096
C18 C 1.4261(7) 0.3039(8) 0.9135(5)
H17 H 1.4321 0.3609 0.8872
H18 H 1.4689 0.2490 0.9071
H19 H 1.4472 0.3243 0.9574
C19 C 1.2117(7) 0.3622(7) 0.9084(4)
C20 C 1.1345(7) 0.3445(8) 0.9336(4)
H20 H 1.1178 0.2773 0.9403
C21 C 1.0801(8) 0.4213(8) 0.9494(5)
H21 H 1.0277 0.4063 0.9674
C22 C 1.1015(8) 0.5203(8) 0.9393(5)
H22 H 1.0641 0.5734 0.9499
C23 C 1.1770(10) 0.5394(9) 0.9139(7)
H23 H 1.1929 0.6066 0.9067
C24 C 1.2316(9) 0.4614(9) 0.8984(6)
H24 H 1.2839 0.4766 0.8804
C25 C 1.2519(6) 0.2283(6) 0.8060(4)
C26 C 1.1634(7) 0.1804(7) 0.7775(4)
H25 H 1.1201 0.1640 0.8021
C27 C 1.1931(7) 0.1784(7) 0.6814(4)
H26 H 1.1724 0.1606 0.6384
C28 C 1.2831(7) 0.2273(8) 0.7051(4)
H27 H 1.3236 0.2442 0.6789
C29 C 1.3134(7) 0.2514(8) 0.7680(5)
H28 H 1.3760 0.2837 0.7855
C30 C 1.2781(6) 0.1500(6) 0.9407(4)
C31 C 1.1928(6) 0.0943(7) 0.9254(4)
H29 H 1.1429 0.1084 0.8875
C32 C 1.2438(7) -0.0028(7) 1.0143(4)
H30 H 1.2316 -0.0563 1.0392
C33 C 1.3331(7) 0.0503(8) 1.0340(4)
H31 H 1.3817 0.0343 1.0722
C34 C 1.3491(7) 0.1267(7) 0.9968(4)
H32 H 1.4096 0.1641 1.0094
O1 O 0.4467(7) 1.0640(6) 0.8774(5)
C35 C 0.4000(8) 0.9893(9) 0.8566(6)
C36 C 0.3759(10) 0.9127(9) 0.8988(6)
H33 H 0.4009 0.9354 0.9422
H34 H 0.4079 0.8490 0.8940
H35 H 0.3032 0.9034 0.8879
C37 C 0.3646(10) 0.9708(10) 0.7875(6)
H36 H 0.2912 0.9722 0.7733
H37 H 0.3883 0.9051 0.7782
H38 H 0.3912 1.0229 0.7657
loop_
_geom_bond_atom_site_label_1
_geom_bond_atom_site_label_2
_geom_bond_site_symmetry_1
_geom_bond_site_symmetry_2
Pd1 Cl1 1_555 1_555
Pd2 Cl3 1_555 1_555
Cl2 Pd1 1_555 1_555
Cl4 Pd2 1_555 1_555
Si1 C1 1_555 1_555
Si2 C18 1_555 1_555
N1 Pd1 1_555 1_555
N2 Pd2 1_555 1_555
N3 Pd2 1_555 1_555
N4 Pd1 1_555 1_555
C1 H1 1_555 1_555
H2 C1 1_555 1_555
H3 C1 1_555 1_555
C2 Si1 1_555 1_555
C3 C2 1_555 1_555
H4 C3 1_555 1_555
C4 C3 1_555 1_555
H5 C4 1_555 1_555
C5 C4 1_555 1_555
H6 C5 1_555 1_555
C6 C5 1_555 1_555
H7 C6 1_555 1_555
C7 C2 1_555 1_555
H8 C7 1_555 1_555
C8 Si1 1_555 1_555
C9 N1 1_555 1_555
H9 C9 1_555 1_555
C10 N1 1_555 1_555
H10 C10 1_555 1_555
C11 C10 1_555 1_555
H11 C11 1_555 1_555
C12 C8 1_555 1_555
H12 C12 1_555 1_555
C13 Si1 1_555 1_555
C14 N2 1_555 1_555
H13 C14 1_555 1_555
C15 N2 1_555 1_555
H14 C15 1_555 1_555
C16 C15 1_555 1_555
H15 C16 1_555 1_555
C17 C13 1_555 1_555
H16 C17 1_555 1_555
C18 H17 1_555 1_555
H18 C18 1_555 1_555
H19 C18 1_555 1_555
C19 Si2 1_555 1_555
C20 C19 1_555 1_555
H20 C20 1_555 1_555
C21 C20 1_555 1_555
H21 C21 1_555 1_555
C22 C21 1_555 1_555
H22 C22 1_555 1_555
C23 C22 1_555 1_555
H23 C23 1_555 1_555
C24 C19 1_555 1_555
H24 C24 1_555 1_555
C25 Si2 1_555 1_555
C26 N3 1_555 1_555
H25 C26 1_555 1_555
C27 N3 1_555 1_555
H26 C27 1_555 1_555
C28 C27 1_555 1_555
H27 C28 1_555 1_555
C29 C25 1_555 1_555
H28 C29 1_555 1_555
C30 Si2 1_555 1_555
C31 N4 1_555 1_555
H29 C31 1_555 1_555
C32 N4 1_555 1_555
H30 C32 1_555 1_555
C33 C32 1_555 1_555
H31 C33 1_555 1_555
C34 C30 1_555 1_555
H32 C34 1_555 1_555
O1 C35 1_555 1_555
C35 C36 1_555 1_555
C36 H33 1_555 1_555
H34 C36 1_555 1_555
H35 C36 1_555 1_555
C37 C35 1_555 1_555
H36 C37 1_555 1_555
H37 C37 1_555 1_555
H38 C37 1_555 1_555
C6 C7 1_555 1_555
C8 C9 1_555 1_555
C11 C12 1_555 1_555
C13 C14 1_555 1_555
C16 C17 1_555 1_555
C23 C24 1_555 1_555
C25 C26 1_555 1_555
C28 C29 1_555 1_555
C30 C31 1_555 1_555
C33 C34 1_555 1_555

#END
