
#######################################################################
#
#                 Cambridge Crystallographic Data Centre
#                                CCDC 
#
#######################################################################
#
# If this CIF has been generated from an entry in the Cambridge 
# Structural Database, then it will include bibliographic, chemical, 
# crystal, experimental, refinement or atomic coordinate data resulting 
# from the CCDC's data processing and validation procedures.
#
#######################################################################

data_NOLTUE
_chemical_formula_moiety         
'C384 H288 N72 Zn8 16+,16(B1 F4 1-),C4 H10 O1,15(C1 H3 N1 O2)'
_chemical_name_systematic        
'mer-dodecakis(\m~2~-9,10-bis(3-(2-Pyridyl)-1-pyrazolylmethyl)anthracene)-octa-zinc(ii) hexadecakis(tetrafluoroborate) diethyl ether nitromethane unknown solvate'
_symmetry_cell_setting           triclinic
_symmetry_space_group_name_H-M   'P -1'
_symmetry_Int_Tables_number      2
_space_group_name_Hall           '-P 1'
loop_
_symmetry_equiv_pos_site_id
_symmetry_equiv_pos_as_xyz
1 x,y,z
2 -x,-y,-z
_cell_length_a                   26.5388(14)
_cell_length_b                   26.5941(13)
_cell_length_c                   30.384(2)
_cell_angle_alpha                99.664(3)
_cell_angle_beta                 113.727(3)
_cell_angle_gamma                110.117(2)
_cell_volume                     17224.3
_exptl_crystal_colour            yellow
_exptl_crystal_description       needle
_cell_formula_units_Z            1
_chemical_properties_physical    air-sensitive
loop_
_atom_site_label
_atom_site_type_symbol
_atom_site_fract_x
_atom_site_fract_y
_atom_site_fract_z
F1 F 0.13792(17) 0.16531(15) -0.00116(15)
F2 F 0.1771(2) 0.20396(19) 0.08367(17)
F3 F 0.12618(18) 0.10802(18) 0.0445(2)
F4 F 0.21844(17) 0.15597(17) 0.05340(16)
B1 B 0.16463(18) 0.15859(17) 0.04506(16)
F5 F 0.8316(3) 0.7288(3) 0.3233(3)
F6 F 0.7696(2) 0.6817(2) 0.35054(19)
F7 F 0.7470(2) 0.73953(19) 0.30669(18)
F8 F 0.8235(3) 0.7759(2) 0.3862(2)
B2 B 0.7921(7) 0.7303(5) 0.3426(5)
F9 F 0.39873(18) 0.33594(16) 0.05350(15)
F10 F 0.33513(16) 0.36321(16) -0.00024(14)
F11 F 0.3785(2) 0.40561(19) 0.08561(16)
F12 F 0.43781(18) 0.42177(19) 0.04830(17)
B3 B 0.3876(4) 0.3837(4) 0.0479(3)
F13 F 0.0980(3) -0.0088(3) 0.3384(3)
F14 F 0.1685(2) 0.0783(2) 0.35229(18)
F15 F 0.06845(19) 0.0576(2) 0.30933(16)
F16 F 0.1102(2) 0.0640(3) 0.38849(19)
B4 B 0.1125(5) 0.0484(5) 0.3456(5)
F17 F 0.5535(5) 0.1063(5) -0.0045(5)
F18 F 0.6502(6) 0.1543(5) 0.0429(5)
F19 F 0.6197(5) 0.0650(5) 0.0147(5)
F20 F 0.6105(5) 0.1048(5) -0.0387(6)
B5 B 0.6090(15) 0.1089(13) 0.0049(15)
O1 O 0.4501(3) 0.5254(3) 0.1872(3)
O2 O 0.3981(5) 0.5710(4) 0.1736(4)
N37 N 0.4221(4) 0.5443(4) 0.1581(3)
C193 C 0.4228(5) 0.5441(4) 0.1124(3)
H145 H 0.4622 0.5745 0.1202
H146 H 0.3888 0.5507 0.0902
H147 H 0.4179 0.5069 0.0947
O3 O 0.1618(4) 0.2361(3) 0.1902(3)
O4 O 0.1033(5) 0.2753(4) 0.1740(4)
N38 N 0.1142(5) 0.2342(4) 0.1607(4)
C194 C 0.0682(5) 0.1866(4) 0.1159(4)
H148 H 0.0870 0.1740 0.0974
H149 H 0.0379 0.1973 0.0939
H150 H 0.0474 0.1554 0.1252
O5 O 0.3894(8) 0.2811(7) 0.4157(6)
O6 O 0.3070(4) 0.2037(4) 0.3548(3)
N39 N 0.3502(7) 0.2508(6) 0.3716(5)
C195 C 0.3430(7) 0.2798(6) 0.3358(5)
H151 H 0.3564 0.2673 0.3122
H152 H 0.3681 0.3213 0.3545
H153 H 0.2994 0.2710 0.3161
O7 O 0.0578(3) 0.0490(2) 0.1381(2)
O8 O 0.0749(3) 0.1174(2) 0.1984(2)
N40 N 0.0791(3) 0.0755(3) 0.1821(2)
C196 C 0.1133(4) 0.0558(4) 0.2196(3)
H154 H 0.1448 0.0884 0.2516
H155 H 0.1334 0.0379 0.2062
H156 H 0.0849 0.0276 0.2264
O9 O 0.2372(7) -0.0340(6) 0.3123(6)
O10 O 0.2890(7) 0.0580(6) 0.3544(6)
N41 N 0.2492(8) 0.0139(7) 0.3133(6)
C197 C 0.2116(6) 0.0216(6) 0.2729(5)
H157 H 0.2137 0.0055 0.2426
H158 H 0.2245 0.0627 0.2803
H159 H 0.1691 0.0024 0.2662
O11 O 0.4227(2) 0.3788(2) 0.8019(2)
O12 O 0.4134(3) 0.4201(2) 0.8627(2)
N42 N 0.3972(3) 0.3980(2) 0.8172(2)
C198 C 0.3387(3) 0.3944(3) 0.7797(3)
H160 H 0.3444 0.4329 0.7801
H161 H 0.3067 0.3775 0.7886
H162 H 0.3260 0.3704 0.7452
O13 O 0.1825(3) 0.2572(2) 0.9400(2)
O14 O 0.2279(2) 0.29481(19) 1.02159(18)
N43 N 0.2194(3) 0.2645(2) 0.9832(2)
C199 C 0.2541(3) 0.2320(3) 0.9857(3)
H163 H 0.2397 0.2078 0.9508
H164 H 0.2478 0.2079 1.0059
H165 H 0.2982 0.2585 1.0020
O15 O 0.0627(4) 0.1856(4) 0.8155(4)
O16 O 0.1363(5) 0.2483(4) 0.8204(4)
N44 N 0.0944(3) 0.2342(3) 0.8282(3)
C200 C 0.0837(8) 0.2764(6) 0.8526(6)
H166 H 0.0470 0.2774 0.8274
H167 H 0.1196 0.3139 0.8671
H168 H 0.0769 0.2670 0.8802
O17 O 0.2081(4) 0.4450(4) 0.9301(3)
O18 O 0.2911(4) 0.5017(3) 1.0022(3)
N45 N 0.2434(4) 0.4568(4) 0.9751(3)
C201 C 0.2355(5) 0.4098(4) 0.9931(4)
H169 H 0.2348 0.3786 0.9702
H170 H 0.1964 0.3962 0.9935
H171 H 0.2698 0.4223 1.0280
O19 O 0.0019(4) 0.2111(4) 1.0035(3)
O20 O -0.0136(4) 0.2258(4) 0.9333(3)
N46 N 0.0195(4) 0.2339(4) 0.9788(4)
C202 C 0.0848(4) 0.2593(4) 0.9969(4)
H172 H 0.1055 0.2496 1.0266
H173 H 0.1014 0.3011 1.0070
H174 H 0.0921 0.2446 0.9694
O21 O -0.0327(7) 0.9542(7) 0.4524(7)
O22 O 0.0503(6) 0.9754(5) 0.4540(5)
N47 N 0.0064(4) 0.9421(4) 0.4511(3)
C203 C -0.0088(9) 0.8841(6) 0.4408(8)
H175 H -0.0326 0.8635 0.4035
H176 H -0.0336 0.8681 0.4563
H177 H 0.0292 0.8798 0.4554
O23 O 0.6928(5) 0.8843(5) 0.1508(4)
O24 O 0.7821(9) 0.9343(9) 0.2198(6)
N48 N 0.7457(7) 0.9272(6) 0.1753(6)
C204 C 0.7661(6) 0.9589(5) 0.1499(5)
H178 H 0.7759 0.9988 0.1655
H179 H 0.7339 0.9436 0.1137
H180 H 0.8034 0.9572 0.1522
O25 O 0.7211(7) 0.2903(6) 0.8251(6)
C205 C 0.7433(8) 0.2656(8) 0.8632(7)
H181 H 0.7845 0.2937 0.8926
H182 H 0.7458 0.2312 0.8481
C206 C 0.6948(7) 0.2503(7) 0.8797(6)
H183 H 0.7101 0.2797 0.9124
H184 H 0.6863 0.2131 0.8841
H185 H 0.6567 0.2481 0.8534
C207 C 0.7606(10) 0.3037(9) 0.8018(8)
H186 H 0.7585 0.2680 0.7833
H187 H 0.8040 0.3291 0.8290
C208 C 0.7393(10) 0.3335(9) 0.7641(8)
H188 H 0.6961 0.3084 0.7373
H189 H 0.7653 0.3415 0.7481
H190 H 0.7428 0.3695 0.7826
Zn1 Zn 0.64393(3) 0.41780(3) 0.11727(3)
Zn2 Zn 1.03261(3) 0.23099(3) 0.36421(3)
Zn3 Zn 0.37226(4) 0.17278(3) -0.36196(3)
Zn4 Zn 0.19747(3) -0.02842(3) 0.11482(3)
N1 N 0.6037(2) 0.43611(18) 0.16178(18)
C1 C 0.6281(3) 0.4346(3) 0.2102(3)
C2 C 0.6045(4) 0.4424(3) 0.2417(3)
H1 H 0.6225 0.4404 0.2750
C3 C 0.5530(4) 0.4534(4) 0.2238(3)
H2 H 0.5355 0.4597 0.2447
C4 C 0.5285(3) 0.4550(3) 0.1738(3)
H3 H 0.4935 0.4620 0.1602
C5 C 0.5541(3) 0.4465(2) 0.1457(3)
H4 H 0.5365 0.4479 0.1121
N2 N 0.7534(2) 0.4087(2) 0.2195(2)
N3 N 0.7079(2) 0.4209(2) 0.19504(19)
C6 C 0.6830(3) 0.4233(3) 0.2254(3)
C7 C 0.7134(5) 0.4122(5) 0.2689(3)
H5 H 0.7051 0.4110 0.2964
C8 C 0.7575(5) 0.4034(5) 0.2630(4)
H6 H 0.7869 0.3947 0.2864
C9 C 0.7931(3) 0.4053(3) 0.1974(3)
H7 H 0.8159 0.4428 0.1960
H8 H 0.7682 0.3762 0.1622
C10 C 0.7661(2) 0.2891(2) 0.1865(2)
H9 H 0.7355 0.2991 0.1669
C11 C 0.7513(3) 0.23190(19) 0.1800(2)
H10 H 0.7104 0.2029 0.1560
C12 C 0.7962(3) 0.21719(16) 0.2087(3)
H11 H 0.7860 0.1781 0.2043
C13 C 0.8559(3) 0.25967(17) 0.2439(2)
H12 H 0.8866 0.2496 0.2635
C14 C 0.8708(2) 0.31686(16) 0.25036(17)
C15 C 0.82591(19) 0.33157(17) 0.22167(15)
C16 C 1.0082(2) 0.4605(2) 0.3289(2)
H13 H 1.0391 0.4506 0.3486
C17 C 1.0226(2) 0.51760(19) 0.3355(2)
H14 H 1.0634 0.5468 0.3596
C18 C 0.9775(3) 0.53201(16) 0.3067(3)
H15 H 0.9874 0.5711 0.3111
C19 C 0.9179(2) 0.48929(17) 0.2714(2)
H16 H 0.8871 0.4991 0.2517
C20 C 0.9035(2) 0.43215(16) 0.26484(17)
C21 C 0.94861(19) 0.41774(17) 0.29362(16)
C22 C 0.8424(5) 0.3894(4) 0.2286(4)
C23 C 0.9328(5) 0.3594(4) 0.2868(4)
N4 N 1.0967(2) 0.2274(2) 0.3416(2)
C24 C 1.1077(3) 0.2594(3) 0.3134(3)
C25 C 1.1480(4) 0.2598(3) 0.2953(3)
H17 H 1.1542 0.2824 0.2750
C26 C 1.1789(4) 0.2280(4) 0.3064(4)
H18 H 1.2063 0.2278 0.2938
C27 C 1.1698(4) 0.1964(3) 0.3361(3)
H19 H 1.1925 0.1755 0.3462
C28 C 1.1271(3) 0.1954(3) 0.3508(3)
H20 H 1.1183 0.1706 0.3687
N5 N 1.0109(3) 0.3261(3) 0.3040(3)
N6 N 1.0409(3) 0.2941(2) 0.3231(2)
C29 C 1.0736(3) 0.2920(3) 0.3005(3)
C30 C 1.0652(3) 0.3220(3) 0.2672(3)
H21 H 1.0829 0.3269 0.2457
C31 C 1.0264(5) 0.3432(3) 0.2715(4)
H22 H 1.0131 0.3664 0.2537
C32 C 0.9763(4) 0.3421(3) 0.3245(3)
H23 H 1.0068 0.3753 0.3570
H24 H 0.9570 0.3101 0.3342
N7 N 0.6846(2) 0.3854(2) 0.08053(18)
C33 C 0.6679(3) 0.3272(3) 0.0692(2)
C34 C 0.6952(3) 0.3023(3) 0.0486(3)
H25 H 0.6864 0.2634 0.0437
C35 C 0.7363(4) 0.3362(4) 0.0352(3)
H26 H 0.7532 0.3193 0.0186
C36 C 0.7516(3) 0.3908(4) 0.0453(3)
H27 H 0.7806 0.4138 0.0373
C37 C 0.7250(3) 0.4146(3) 0.0677(3)
H28 H 0.7364 0.4543 0.0744
N8 N 0.5525(2) 0.28451(19) 0.10321(19)
N9 N 0.5921(2) 0.32371(19) 0.09524(17)
C38 C 0.6217(3) 0.2969(3) 0.0814(2)
C39 C 0.6005(3) 0.2421(3) 0.0817(3)
H29 H 0.6134 0.2143 0.0738
C40 C 0.5572(3) 0.2362(3) 0.0958(3)
H30 H 0.5339 0.2028 0.0997
C41 C 0.5089(3) 0.2974(2) 0.1163(2)
H31 H 0.4877 0.3131 0.0916
H32 H 0.5325 0.3272 0.1511
C42 C 0.5281(4) 0.2690(3) 0.2091(3)
H33 H 0.5606 0.3003 0.2106
C43 C 0.5371(4) 0.2585(4) 0.2515(3)
H34 H 0.5744 0.2832 0.2828
C44 C 0.4912(6) 0.2105(5) 0.2509(4)
H35 H 0.4997 0.2013 0.2811
C45 C 0.4370(4) 0.1785(4) 0.2088(3)
H36 H 0.4059 0.1488 0.2104
C46 C 0.4230(3) 0.1870(3) 0.1596(3)
C47 C 0.4715(3) 0.2356(2) 0.1599(3)
C48 C 0.3086(3) 0.1217(3) 0.0194(3)
H37 H 0.2766 0.0899 0.0180
C49 C 0.3038(4) 0.1302(4) -0.0245(3)
H38 H 0.2679 0.1042 -0.0563
C50 C 0.3476(4) 0.1735(3) -0.0248(3)
H39 H 0.3427 0.1776 -0.0566
C51 C 0.4000(3) 0.2127(3) 0.0208(3)
H40 H 0.4309 0.2436 0.0201
C52 C 0.4080(3) 0.2074(2) 0.0679(2)
C53 C 0.3611(3) 0.1601(2) 0.0672(2)
C54 C 0.4615(3) 0.2457(2) 0.1151(2)
C55 C 0.3689(3) 0.1528(2) 0.1150(2)
N10 N 0.1945(2) -0.10530(19) 0.0776(2)
C56 C 0.2406(3) -0.1002(3) 0.0661(2)
C57 C 0.2463(3) -0.1450(3) 0.0461(3)
H41 H 0.2804 -0.1396 0.0409
C58 C 0.2000(4) -0.2018(3) 0.0325(3)
H42 H 0.2015 -0.2346 0.0163
C59 C 0.1541(4) -0.2072(3) 0.0435(3)
H43 H 0.1236 -0.2443 0.0356
C60 C 0.1513(3) -0.1587(3) 0.0662(3)
H44 H 0.1189 -0.1631 0.0737
N11 N 0.3159(2) 0.0495(2) 0.1006(2)
N12 N 0.2699(2) 0.00125(19) 0.09238(17)
C61 C 0.2843(3) -0.0400(3) 0.0790(2)
C62 C 0.3408(3) -0.0178(3) 0.0811(3)
H45 H 0.3614 -0.0385 0.0743
C63 C 0.3603(3) 0.0378(3) 0.0944(3)
H46 H 0.3979 0.0652 0.0989
C64 C 0.3159(3) 0.1052(2) 0.1142(3)
H47 H 0.3194 0.1150 0.1486
H48 H 0.2762 0.1024 0.0891
N13 N 0.69778(19) 0.50580(13) 0.13155(17)
C65 C 0.66827(17) 0.52795(16) 0.09687(16)
C66 C 0.6964(2) 0.58608(18) 0.1053(2)
H49 H 0.6762 0.6012 0.0816
C67 C 0.7541(2) 0.62206(14) 0.1484(2)
H50 H 0.7733 0.6618 0.1542
C68 C 0.78359(19) 0.59991(18) 0.1831(2)
H51 H 0.8230 0.6245 0.2126
C69 C 0.7554(2) 0.54178(19) 0.17466(17)
H52 H 0.7756 0.5266 0.1984
N14 N 0.5325(2) 0.4046(2) 0.00619(18)
N15 N 0.5862(2) 0.4313(2) 0.05012(19)
C70 C 0.6097(3) 0.4878(2) 0.0546(2)
C71 C 0.5726(4) 0.4944(3) 0.0119(3)
H53 H 0.5795 0.5288 0.0048
C72 C 0.5231(4) 0.4413(3) -0.0189(3)
H54 H 0.4888 0.4319 -0.0514
C73 C 0.4935(3) 0.3428(2) -0.0126(2)
H55 H 0.4610 0.3356 -0.0029
H56 H 0.5191 0.3248 0.0043
C74 C 0.5680(3) 0.3387(3) -0.0595(3)
H57 H 0.5868 0.3581 -0.0235
C75 C 0.6033(4) 0.3346(4) -0.0805(3)
H58 H 0.6469 0.3510 -0.0593
C76 C 0.5753(4) 0.3056(4) -0.1346(3)
H59 H 0.6001 0.3016 -0.1491
C77 C 0.5154(4) 0.2845(3) -0.1642(3)
H60 H 0.4979 0.2668 -0.2002
C78 C 0.4753(3) 0.2869(3) -0.1449(2)
C79 C 0.5033(3) 0.3144(3) -0.0906(2)
C80 C 0.3060(3) 0.2452(3) -0.1878(3)
H61 H 0.2870 0.2290 -0.2241
C81 C 0.2713(3) 0.2471(3) -0.1673(3)
H62 H 0.2279 0.2308 -0.1895
C82 C 0.2949(3) 0.2720(3) -0.1145(3)
H63 H 0.2685 0.2728 -0.1009
C83 C 0.3592(3) 0.2957(3) -0.0824(2)
H64 H 0.3762 0.3139 -0.0466
C84 C 0.4010(3) 0.2935(3) -0.1016(2)
C85 C 0.3733(3) 0.2673(3) -0.1562(2)
C86 C 0.4635(3) 0.3154(3) -0.0699(2)
C87 C 0.4123(3) 0.2656(3) -0.1768(2)
N16 N 0.3633(3) 0.0877(2) -0.3754(2)
C88 C 0.3601(3) 0.0657(3) -0.3382(3)
C89 C 0.3536(4) 0.0099(3) -0.3425(3)
H65 H 0.3528 -0.0049 -0.3163
C90 C 0.3483(5) -0.0229(4) -0.3867(4)
H66 H 0.3416 -0.0614 -0.3918
C91 C 0.3529(5) 0.0003(4) -0.4221(3)
H67 H 0.3520 -0.0214 -0.4508
C92 C 0.3588(4) 0.0557(4) -0.4173(3)
H68 H 0.3597 0.0705 -0.4435
N17 N 0.3762(3) 0.1809(2) -0.24970(19)
N18 N 0.3750(2) 0.1564(2) -0.29284(19)
C93 C 0.3646(3) 0.1029(3) -0.2956(2)
C94 C 0.3596(4) 0.0923(3) -0.2529(3)
H69 H 0.3546 0.0586 -0.2448
C95 C 0.3635(3) 0.1416(3) -0.2260(3)
H70 H 0.3584 0.1477 -0.1967
C96 C 0.3850(3) 0.2396(3) -0.2345(2)
H71 H 0.3448 0.2400 -0.2525
H72 H 0.4131 0.2631 -0.2449
N19 N 0.9599(3) 0.2351(3) 0.3786(2)
C97 C 0.9036(4) 0.1974(4) 0.3419(3)
C98 C 0.8519(4) 0.1958(4) 0.3451(4)
H73 H 0.8113 0.1694 0.3180
C99 C 0.8604(5) 0.2320(5) 0.3870(4)
H74 H 0.8261 0.2307 0.3907
C100 C 0.9210(6) 0.2717(5) 0.4252(4)
H75 H 0.9288 0.2986 0.4549
C101 C 0.9686(4) 0.2705(4) 0.4183(4)
H76 H 1.0098 0.2971 0.4441
N20 N 0.9288(2) 0.1230(2) 0.2526(2)
N21 N 0.9467(2) 0.1646(2) 0.2942(2)
C102 C 0.8971(4) 0.1574(3) 0.2970(3)
C103 C 0.8437(3) 0.1089(3) 0.2561(3)
H77 H 0.8024 0.0938 0.2499
C104 C 0.8668(3) 0.0888(3) 0.2271(3)
H78 H 0.8436 0.0572 0.1956
C105 C 0.9726(3) 0.1158(3) 0.2353(2)
H79 H 1.0066 0.1540 0.2455
H80 H 0.9909 0.0932 0.2527
C106 C 0.9474(3) 0.1780(3) 0.1670(3)
H81 H 0.9651 0.1960 0.2030
C107 C 0.9391(4) 0.2090(3) 0.1371(3)
H82 H 0.9504 0.2483 0.1517
C108 C 0.9139(4) 0.1835(3) 0.0844(3)
H83 H 0.9086 0.2062 0.0635
C109 C 0.8957(3) 0.1251(3) 0.0608(3)
H84 H 0.8798 0.1086 0.0249
C110 C 0.9023(3) 0.0921(3) 0.0931(2)
C111 C 0.9308(3) 0.1186(3) 0.1470(3)
C112 C 0.8759(3) -0.0592(3) 0.0843(3)
H85 H 0.8559 -0.0787 0.0483
C113 C 0.8869(3) -0.0887(3) 0.1162(3)
H86 H 0.8762 -0.1279 0.1020
C114 C 0.9128(3) -0.0640(3) 0.1683(3)
H87 H 0.9192 -0.0862 0.1896
C115 C 0.9294(3) -0.0078(3) 0.1895(3)
H88 H 0.9460 0.0087 0.2256
C116 C 0.9223(3) 0.0271(3) 0.1584(3)
C117 C 0.8935(2) -0.0002(2) 0.1031(2)
C118 C 0.9417(3) 0.0873(3) 0.1800(2)
C119 C 0.8839(2) 0.0321(3) 0.0713(2)
N22 N 1.1064(3) 0.2886(3) 0.4403(2)
C120 C 1.1193(3) 0.2638(4) 0.4758(3)
C121 C 1.1693(4) 0.2952(4) 0.5252(4)
H89 H 1.1804 0.2771 0.5494
C122 C 1.2033(5) 0.3551(5) 0.5388(4)
H90 H 1.2376 0.3778 0.5724
C123 C 1.1858(5) 0.3802(4) 0.5025(4)
H91 H 1.2070 0.4203 0.5109
C124 C 1.1352(4) 0.3439(4) 0.4524(4)
H92 H 1.1221 0.3603 0.4271
N23 N 1.0189(2) 0.1174(2) 0.4039(2)
N24 N 1.0428(2) 0.1736(2) 0.4083(2)
C125 C 1.0872(3) 0.2030(3) 0.4578(3)
C126 C 1.0893(4) 0.1668(4) 0.4863(3)
H93 H 1.1158 0.1768 0.5221
C127 C 1.0427(4) 0.1113(4) 0.4495(3)
H94 H 1.0308 0.0766 0.4561
C128 C 0.9700(3) 0.0740(3) 0.3541(3)
H95 H 0.9888 0.0598 0.3360
H96 H 0.9472 0.0919 0.3334
C129 C 0.8961(4) 0.0901(3) 0.3968(3)
H97 H 0.9263 0.1217 0.3963
C130 C 0.8602(4) 0.0988(4) 0.4171(3)
H98 H 0.8683 0.1371 0.4320
C131 C 0.8120(5) 0.0536(4) 0.4168(3)
H99 H 0.7869 0.0608 0.4297
C132 C 0.8028(4) -0.0031(3) 0.3964(3)
H100 H 0.7714 -0.0342 0.3961
C133 C 0.8390(3) -0.0142(3) 0.3765(2)
C134 C 0.8879(3) 0.0341(3) 0.3771(2)
C135 C 0.8611(3) -0.1364(3) 0.3182(2)
H101 H 0.8308 -0.1679 0.3187
C136 C 0.8967(4) -0.1463(3) 0.2989(3)
H102 H 0.8897 -0.1844 0.2854
C137 C 0.9433(3) -0.1011(3) 0.2985(3)
H103 H 0.9675 -0.1080 0.2846
C138 C 0.9527(3) -0.0450(3) 0.3195(2)
H104 H 0.9856 -0.0140 0.3211
C139 C 0.9164(3) -0.0326(3) 0.3383(2)
C140 C 0.8680(3) -0.0805(3) 0.3376(2)
C141 C 0.9244(3) 0.0235(3) 0.3571(2)
N25 N 0.3554(2) 0.1707(2) -0.43701(13)
C142 C 0.2937(2) 0.1498(2) -0.47387(18)
C143 C 0.2780(3) 0.1487(3) -0.52366(15)
H105 H 0.2359 0.1344 -0.5489
C144 C 0.3240(4) 0.1685(3) -0.53658(17)
H106 H 0.3132 0.1677 -0.5706
C145 C 0.3856(3) 0.1893(3) -0.4997(2)
H107 H 0.4171 0.2029 -0.5085
C146 C 0.4013(2) 0.1905(2) -0.4499(2)
H108 H 0.4435 0.2047 -0.4247
N26 N 0.2181(3) 0.1185(2) -0.4019(2)
N27 N 0.2705(3) 0.1385(3) -0.40613(19)
C147 C 0.2499(4) 0.1330(3) -0.4556(3)
C148 C 0.1855(4) 0.1060(4) -0.4838(3)
H109 H 0.1600 0.0961 -0.5196
C149 C 0.1665(4) 0.0967(4) -0.4480(3)
H110 H 0.1251 0.0785 -0.4548
C150 C 0.2242(3) 0.1190(3) -0.3525(2)
H111 H 0.2277 0.1557 -0.3343
H112 H 0.2629 0.1170 -0.3317
C151 C 0.8300(3) -0.0695(3) 0.3562(2)
N28 N 0.3916(3) 0.2603(3) -0.3382(2)
C152 C 0.4522(4) 0.2998(4) -0.3097(3)
C153 C 0.4709(4) 0.3574(4) -0.2941(3)
H113 H 0.5135 0.3841 -0.2745
C154 C 0.4259(5) 0.3754(4) -0.3076(4)
H114 H 0.4377 0.4153 -0.2973
C155 C 0.3655(5) 0.3377(4) -0.3351(3)
H115 H 0.3348 0.3507 -0.3438
C156 C 0.3487(4) 0.2795(3) -0.3506(3)
H116 H 0.3061 0.2527 -0.3704
N29 N 0.5276(3) 0.2111(3) -0.3008(2)
N30 N 0.4746(3) 0.2211(3) -0.3214(2)
C157 C 0.4969(4) 0.2764(4) -0.2987(3)
C158 C 0.5605(4) 0.3014(3) -0.2647(3)
H117 H 0.5865 0.3409 -0.2443
C159 C 0.5777(4) 0.2626(4) -0.2659(3)
H118 H 0.6186 0.2681 -0.2458
C160 C 0.5219(4) 0.1552(4) -0.3212(3)
H119 H 0.5202 0.1498 -0.3549
H120 H 0.4830 0.1253 -0.3266
N31 N 0.2237(2) 0.0561(2) 0.1600(2)
C161 C 0.2716(3) 0.0777(3) 0.2076(3)
C162 C 0.2946(4) 0.1334(4) 0.2396(3)
H121 H 0.3290 0.1484 0.2733
C163 C 0.2669(4) 0.1665(3) 0.2218(3)
H122 H 0.2817 0.2047 0.2430
C164 C 0.2158(4) 0.1426(3) 0.1713(3)
H123 H 0.1960 0.1643 0.1573
C165 C 0.1966(3) 0.0881(3) 0.1439(3)
H124 H 0.1610 0.0712 0.1106
N32 N 0.3059(3) -0.0380(3) 0.2172(2)
N33 N 0.2700(2) -0.0159(2) 0.1920(2)
C166 C 0.2991(3) 0.0400(3) 0.2241(3)
C167 C 0.3511(4) 0.0504(4) 0.2685(3)
H125 H 0.3789 0.0853 0.2971
C168 C 0.3533(4) 0.0020(4) 0.2626(3)
H126 H 0.3843 -0.0044 0.2870
C169 C 0.2875(3) -0.1002(3) 0.1937(3)
H127 H 0.2829 -0.1079 0.1589
H128 H 0.2469 -0.1238 0.1900
C170 C 0.2772(3) -0.1500(3) 0.2697(3)
H129 H 0.2472 -0.1390 0.2504
C171 C 0.2707(3) -0.1748(4) 0.3051(3)
H130 H 0.2362 -0.1808 0.3100
C172 C 0.3146(4) -0.1908(4) 0.3332(3)
H131 H 0.3101 -0.2078 0.3574
C173 C 0.3650(3) -0.1820(3) 0.3259(3)
H132 H 0.3949 -0.1930 0.3452
C174 C 0.3714(3) -0.1572(2) 0.2905(2)
C175 C 0.3276(3) -0.1412(2) 0.2624(2)
C176 C 0.4808(4) -0.1148(4) 0.2407(3)
H133 H 0.5108 -0.1259 0.2596
C177 C 0.4869(3) -0.0898(4) 0.2053(3)
H134 H 0.5211 -0.0838 0.2000
C178 C 0.4430(4) -0.0735(4) 0.1776(3)
H135 H 0.4472 -0.0564 0.1534
C179 C 0.3929(3) -0.0823(3) 0.1854(3)
H136 H 0.3629 -0.0712 0.1665
C180 C 0.3868(3) -0.1073(3) 0.2208(3)
C181 C 0.4307(4) -0.1235(3) 0.2484(3)
C182 C 0.3342(5) -0.1172(4) 0.2257(4)
C183 C 0.5763(6) 0.1492(5) -0.2844(4)
N34 N 0.1225(2) -0.0686(2) 0.1285(2)
C184 C 0.0685(3) -0.0729(3) 0.0957(3)
C185 C 0.0170(4) -0.0936(3) 0.1016(4)
H137 H -0.0198 -0.0930 0.0788
C186 C 0.0185(5) -0.1139(5) 0.1382(5)
H138 H -0.0181 -0.1337 0.1394
C187 C 0.0798(5) -0.1046(5) 0.1779(5)
H139 H 0.0857 -0.1126 0.2085
C188 C 0.1256(4) -0.0845(4) 0.1682(4)
H140 H 0.1643 -0.0812 0.1919
N35 N 0.1007(2) -0.02704(19) 0.00378(19)
N36 N 0.1183(2) -0.0365(2) 0.0475(2)
C189 C 0.0647(3) -0.0565(3) 0.0520(3)
C190 C 0.0171(3) -0.0592(3) 0.0094(3)
H141 H -0.0245 -0.0714 0.0020
C191 C 0.0406(3) -0.0413(3) -0.0202(3)
H142 H 0.0180 -0.0393 -0.0528
C192 C 0.8555(3) 0.0066(3) 0.0146(2)
H143 H 0.8210 0.0159 -0.0021
H144 H 0.8380 -0.0356 0.0043
Zn1A Zn 0.35607(3) -0.41780(3) -0.11727(3)
Zn2A Zn -0.03261(3) -0.23099(3) -0.36421(3)
Zn3A Zn 0.62774(4) -0.17278(3) 0.36196(3)
Zn4A Zn 0.80253(3) 0.02842(3) -0.11482(3)
N1A N 0.3963(2) -0.43611(18) -0.16178(18)
C1A C 0.3719(3) -0.4346(3) -0.2102(3)
C2A C 0.3955(4) -0.4424(3) -0.2417(3)
H1A H 0.3775 -0.4404 -0.2750
C3A C 0.4470(4) -0.4534(4) -0.2238(3)
H2A H 0.4645 -0.4597 -0.2447
C4A C 0.4715(3) -0.4550(3) -0.1738(3)
H3A H 0.5065 -0.4620 -0.1602
C5A C 0.4459(3) -0.4465(2) -0.1457(3)
H4A H 0.4635 -0.4479 -0.1121
N2A N 0.2466(2) -0.4087(2) -0.2195(2)
N3A N 0.2921(2) -0.4209(2) -0.19504(19)
C6A C 0.3170(3) -0.4233(3) -0.2254(3)
C7A C 0.2866(5) -0.4122(5) -0.2689(3)
H5A H 0.2949 -0.4110 -0.2964
C8A C 0.2425(5) -0.4034(5) -0.2630(4)
H6A H 0.2131 -0.3947 -0.2864
C9A C 0.2069(3) -0.4053(3) -0.1974(3)
H7A H 0.1841 -0.4428 -0.1960
H8A H 0.2318 -0.3762 -0.1622
C10A C 0.2339(2) -0.2891(2) -0.1865(2)
H9A H 0.2645 -0.2991 -0.1669
C11A C 0.2487(3) -0.23190(19) -0.1800(2)
H10A H 0.2896 -0.2029 -0.1560
C12A C 0.2038(3) -0.21719(16) -0.2087(3)
H11A H 0.2140 -0.1781 -0.2043
C13A C 0.1441(3) -0.25967(17) -0.2439(2)
H12A H 0.1134 -0.2496 -0.2635
C14A C 0.1292(2) -0.31686(16) -0.25036(17)
C15A C 0.17409(19) -0.33157(17) -0.22167(15)
C16A C -0.0082(2) -0.4605(2) -0.3289(2)
H13A H -0.0391 -0.4506 -0.3486
C17A C -0.0226(2) -0.51760(19) -0.3355(2)
H14A H -0.0634 -0.5468 -0.3596
C18A C 0.0225(3) -0.53201(16) -0.3067(3)
H15A H 0.0126 -0.5711 -0.3111
C19A C 0.0821(2) -0.48929(17) -0.2714(2)
H16A H 0.1129 -0.4991 -0.2517
C20A C 0.0965(2) -0.43215(16) -0.26484(17)
C21A C 0.05139(19) -0.41774(17) -0.29362(16)
C22A C 0.1576(5) -0.3894(4) -0.2286(4)
C23A C 0.0672(5) -0.3594(4) -0.2868(4)
N4A N -0.0967(2) -0.2274(2) -0.3416(2)
C24A C -0.1077(3) -0.2594(3) -0.3134(3)
C25A C -0.1480(4) -0.2598(3) -0.2953(3)
H17A H -0.1542 -0.2824 -0.2750
C26A C -0.1789(4) -0.2280(4) -0.3064(4)
H18A H -0.2063 -0.2278 -0.2938
C27A C -0.1698(4) -0.1964(3) -0.3361(3)
H19A H -0.1925 -0.1755 -0.3462
C28A C -0.1271(3) -0.1954(3) -0.3508(3)
H20A H -0.1183 -0.1706 -0.3687
N5A N -0.0109(3) -0.3261(3) -0.3040(3)
N6A N -0.0409(3) -0.2941(2) -0.3231(2)
C29A C -0.0736(3) -0.2920(3) -0.3005(3)
C30A C -0.0652(3) -0.3220(3) -0.2672(3)
H21A H -0.0829 -0.3269 -0.2457
C31A C -0.0264(5) -0.3432(3) -0.2715(4)
H22A H -0.0131 -0.3664 -0.2537
C32A C 0.0237(4) -0.3421(3) -0.3245(3)
H23A H -0.0068 -0.3753 -0.3570
H24A H 0.0430 -0.3101 -0.3342
N7A N 0.3154(2) -0.3854(2) -0.08053(18)
C33A C 0.3321(3) -0.3272(3) -0.0692(2)
C34A C 0.3048(3) -0.3023(3) -0.0486(3)
H25A H 0.3136 -0.2634 -0.0437
C35A C 0.2637(4) -0.3362(4) -0.0352(3)
H26A H 0.2468 -0.3193 -0.0186
C36A C 0.2484(3) -0.3908(4) -0.0453(3)
H27A H 0.2194 -0.4138 -0.0373
C37A C 0.2750(3) -0.4146(3) -0.0677(3)
H28A H 0.2636 -0.4543 -0.0744
N8A N 0.4475(2) -0.28451(19) -0.10321(19)
N9A N 0.4079(2) -0.32371(19) -0.09524(17)
C38A C 0.3783(3) -0.2969(3) -0.0814(2)
C39A C 0.3995(3) -0.2421(3) -0.0817(3)
H29A H 0.3866 -0.2143 -0.0738
C40A C 0.4428(3) -0.2362(3) -0.0958(3)
H30A H 0.4661 -0.2028 -0.0997
C41A C 0.4911(3) -0.2974(2) -0.1163(2)
H31A H 0.5123 -0.3131 -0.0916
H32A H 0.4675 -0.3272 -0.1511
C42A C 0.4719(4) -0.2690(3) -0.2091(3)
H33A H 0.4394 -0.3003 -0.2106
C43A C 0.4629(4) -0.2585(4) -0.2515(3)
H34A H 0.4256 -0.2832 -0.2828
C44A C 0.5088(6) -0.2105(5) -0.2509(4)
H35A H 0.5003 -0.2013 -0.2811
C45A C 0.5630(4) -0.1785(4) -0.2088(3)
H36A H 0.5941 -0.1488 -0.2104
C46A C 0.5770(3) -0.1870(3) -0.1596(3)
C47A C 0.5285(3) -0.2356(2) -0.1599(3)
C48A C 0.6914(3) -0.1217(3) -0.0194(3)
H37A H 0.7234 -0.0899 -0.0180
C49A C 0.6962(4) -0.1302(4) 0.0245(3)
H38A H 0.7321 -0.1042 0.0563
C50A C 0.6524(4) -0.1735(3) 0.0248(3)
H39A H 0.6573 -0.1776 0.0566
C51A C 0.6000(3) -0.2127(3) -0.0208(3)
H40A H 0.5691 -0.2436 -0.0201
C52A C 0.5920(3) -0.2074(2) -0.0679(2)
C53A C 0.6389(3) -0.1601(2) -0.0672(2)
C54A C 0.5385(3) -0.2457(2) -0.1151(2)
C55A C 0.6311(3) -0.1528(2) -0.1150(2)
N10A N 0.8055(2) 0.10530(19) -0.0776(2)
C56A C 0.7594(3) 0.1002(3) -0.0661(2)
C57A C 0.7537(3) 0.1450(3) -0.0461(3)
H41A H 0.7196 0.1396 -0.0409
C58A C 0.8000(4) 0.2018(3) -0.0325(3)
H42A H 0.7985 0.2346 -0.0163
C59A C 0.8459(4) 0.2072(3) -0.0435(3)
H43A H 0.8764 0.2443 -0.0356
C60A C 0.8487(3) 0.1587(3) -0.0662(3)
H44A H 0.8811 0.1631 -0.0737
N11A N 0.6841(2) -0.0495(2) -0.1006(2)
N12A N 0.7301(2) -0.00125(19) -0.09238(17)
C61A C 0.7157(3) 0.0400(3) -0.0790(2)
C62A C 0.6592(3) 0.0178(3) -0.0811(3)
H45A H 0.6386 0.0385 -0.0743
C63A C 0.6397(3) -0.0378(3) -0.0944(3)
H46A H 0.6021 -0.0652 -0.0989
C64A C 0.6841(3) -0.1052(2) -0.1142(3)
H47A H 0.6806 -0.1150 -0.1486
H48A H 0.7238 -0.1024 -0.0891
N13A N 0.30222(19) -0.50580(13) -0.13155(17)
C65A C 0.33173(17) -0.52795(16) -0.09687(16)
C66A C 0.3036(2) -0.58608(18) -0.1053(2)
H49A H 0.3238 -0.6012 -0.0816
C67A C 0.2459(2) -0.62206(14) -0.1484(2)
H50A H 0.2267 -0.6618 -0.1542
C68A C 0.21641(19) -0.59991(18) -0.1831(2)
H51A H 0.1770 -0.6245 -0.2126
C69A C 0.2446(2) -0.54178(19) -0.17466(17)
H52A H 0.2244 -0.5266 -0.1984
N14A N 0.4675(2) -0.4046(2) -0.00619(18)
N15A N 0.4138(2) -0.4313(2) -0.05012(19)
C70A C 0.3903(3) -0.4878(2) -0.0546(2)
C71A C 0.4274(4) -0.4944(3) -0.0119(3)
H53A H 0.4205 -0.5288 -0.0048
C72A C 0.4769(4) -0.4413(3) 0.0189(3)
H54A H 0.5112 -0.4319 0.0514
C73A C 0.5065(3) -0.3428(2) 0.0126(2)
H55A H 0.5390 -0.3356 0.0029
H56A H 0.4809 -0.3248 -0.0043
C74A C 0.4320(3) -0.3387(3) 0.0595(3)
H57A H 0.4132 -0.3581 0.0235
C75A C 0.3967(4) -0.3346(4) 0.0805(3)
H58A H 0.3531 -0.3510 0.0593
C76A C 0.4247(4) -0.3056(4) 0.1346(3)
H59A H 0.3999 -0.3016 0.1491
C77A C 0.4846(4) -0.2845(3) 0.1642(3)
H60A H 0.5021 -0.2668 0.2002
C78A C 0.5247(3) -0.2869(3) 0.1449(2)
C79A C 0.4967(3) -0.3144(3) 0.0906(2)
C80A C 0.6940(3) -0.2452(3) 0.1878(3)
H61A H 0.7130 -0.2290 0.2241
C81A C 0.7287(3) -0.2471(3) 0.1673(3)
H62A H 0.7721 -0.2308 0.1895
C82A C 0.7051(3) -0.2720(3) 0.1145(3)
H63A H 0.7315 -0.2728 0.1009
C83A C 0.6408(3) -0.2957(3) 0.0824(2)
H64A H 0.6238 -0.3139 0.0466
C84A C 0.5990(3) -0.2935(3) 0.1016(2)
C85A C 0.6267(3) -0.2673(3) 0.1562(2)
C86A C 0.5365(3) -0.3154(3) 0.0699(2)
C87A C 0.5877(3) -0.2656(3) 0.1768(2)
N16A N 0.6367(3) -0.0877(2) 0.3754(2)
C88A C 0.6399(3) -0.0657(3) 0.3382(3)
C89A C 0.6464(4) -0.0099(3) 0.3425(3)
H65A H 0.6472 0.0049 0.3163
C90A C 0.6517(5) 0.0229(4) 0.3867(4)
H66A H 0.6584 0.0614 0.3918
C91A C 0.6471(5) -0.0003(4) 0.4221(3)
H67A H 0.6480 0.0214 0.4508
C92A C 0.6412(4) -0.0557(4) 0.4173(3)
H68A H 0.6403 -0.0705 0.4435
N17A N 0.6238(3) -0.1809(2) 0.24970(19)
N18A N 0.6250(2) -0.1564(2) 0.29284(19)
C93A C 0.6354(3) -0.1029(3) 0.2956(2)
C94A C 0.6404(4) -0.0923(3) 0.2529(3)
H69A H 0.6454 -0.0586 0.2448
C95A C 0.6365(3) -0.1416(3) 0.2260(3)
H70A H 0.6416 -0.1477 0.1967
C96A C 0.6150(3) -0.2396(3) 0.2345(2)
H71A H 0.6552 -0.2400 0.2525
H72A H 0.5869 -0.2631 0.2449
N19A N 0.0401(3) -0.2351(3) -0.3786(2)
C97A C 0.0964(4) -0.1974(4) -0.3419(3)
C98A C 0.1481(4) -0.1958(4) -0.3451(4)
H73A H 0.1887 -0.1694 -0.3180
C99A C 0.1396(5) -0.2320(5) -0.3870(4)
H74A H 0.1739 -0.2307 -0.3907
C100A C 0.0790(6) -0.2717(5) -0.4252(4)
H75A H 0.0712 -0.2986 -0.4549
C101A C 0.0314(4) -0.2705(4) -0.4183(4)
H76A H -0.0098 -0.2971 -0.4441
N20A N 0.0712(2) -0.1230(2) -0.2526(2)
N21A N 0.0533(2) -0.1646(2) -0.2942(2)
C102A C 0.1029(4) -0.1574(3) -0.2970(3)
C103A C 0.1563(3) -0.1089(3) -0.2561(3)
H77A H 0.1976 -0.0938 -0.2499
C104A C 0.1332(3) -0.0888(3) -0.2271(3)
H78A H 0.1564 -0.0572 -0.1956
C105A C 0.0274(3) -0.1158(3) -0.2353(2)
H79A H -0.0066 -0.1540 -0.2455
H80A H 0.0091 -0.0932 -0.2527
C106A C 0.0526(3) -0.1780(3) -0.1670(3)
H81A H 0.0349 -0.1960 -0.2030
C107A C 0.0609(4) -0.2090(3) -0.1371(3)
H82A H 0.0496 -0.2483 -0.1517
C108A C 0.0861(4) -0.1835(3) -0.0844(3)
H83A H 0.0914 -0.2062 -0.0635
C109A C 0.1043(3) -0.1251(3) -0.0608(3)
H84A H 0.1202 -0.1086 -0.0249
C110A C 0.0977(3) -0.0921(3) -0.0931(2)
C111A C 0.0692(3) -0.1186(3) -0.1470(3)
C112A C 0.1241(3) 0.0592(3) -0.0843(3)
H85A H 0.1441 0.0787 -0.0483
C113A C 0.1131(3) 0.0887(3) -0.1162(3)
H86A H 0.1238 0.1279 -0.1020
C114A C 0.0872(3) 0.0640(3) -0.1683(3)
H87A H 0.0808 0.0862 -0.1896
C115A C 0.0706(3) 0.0078(3) -0.1895(3)
H88A H 0.0540 -0.0087 -0.2256
C116A C 0.0777(3) -0.0271(3) -0.1584(3)
C117A C 0.1065(2) 0.0002(2) -0.1031(2)
C118A C 0.0583(3) -0.0873(3) -0.1800(2)
C119A C 0.1161(2) -0.0321(3) -0.0713(2)
N22A N -0.1064(3) -0.2886(3) -0.4403(2)
C120A C -0.1193(3) -0.2638(4) -0.4758(3)
C121A C -0.1693(4) -0.2952(4) -0.5252(4)
H89A H -0.1804 -0.2771 -0.5494
C122A C -0.2033(5) -0.3551(5) -0.5388(4)
H90A H -0.2376 -0.3778 -0.5724
C123A C -0.1858(5) -0.3802(4) -0.5025(4)
H91A H -0.2070 -0.4203 -0.5109
C124A C -0.1352(4) -0.3439(4) -0.4524(4)
H92A H -0.1221 -0.3603 -0.4271
N23A N -0.0189(2) -0.1174(2) -0.4039(2)
N24A N -0.0428(2) -0.1736(2) -0.4083(2)
C125A C -0.0872(3) -0.2030(3) -0.4578(3)
C126A C -0.0893(4) -0.1668(4) -0.4863(3)
H93A H -0.1158 -0.1768 -0.5221
C127A C -0.0427(4) -0.1113(4) -0.4495(3)
H94A H -0.0308 -0.0766 -0.4561
C128A C 0.0300(3) -0.0740(3) -0.3541(3)
H95A H 0.0112 -0.0598 -0.3360
H96A H 0.0528 -0.0919 -0.3334
C129A C 0.1039(4) -0.0901(3) -0.3968(3)
H97A H 0.0737 -0.1217 -0.3963
C130A C 0.1398(4) -0.0988(4) -0.4171(3)
H98A H 0.1317 -0.1371 -0.4320
C131A C 0.1880(5) -0.0536(4) -0.4168(3)
H99A H 0.2131 -0.0608 -0.4297
C132A C 0.1972(4) 0.0031(3) -0.3964(3)
H100A H 0.2286 0.0342 -0.3961
C133A C 0.1610(3) 0.0142(3) -0.3765(2)
C134A C 0.1121(3) -0.0341(3) -0.3771(2)
C135A C 0.1389(3) 0.1364(3) -0.3182(2)
H101A H 0.1692 0.1679 -0.3187
C136A C 0.1033(4) 0.1463(3) -0.2989(3)
H102A H 0.1103 0.1844 -0.2854
C137A C 0.0567(3) 0.1011(3) -0.2985(3)
H103A H 0.0325 0.1080 -0.2846
C138A C 0.0473(3) 0.0450(3) -0.3195(2)
H104A H 0.0144 0.0140 -0.3211
C139A C 0.0836(3) 0.0326(3) -0.3383(2)
C140A C 0.1320(3) 0.0805(3) -0.3376(2)
C141A C 0.0756(3) -0.0235(3) -0.3571(2)
N25A N 0.6446(2) -0.1707(2) 0.43701(13)
C142A C 0.7063(2) -0.1498(2) 0.47387(18)
C143A C 0.7220(3) -0.1487(3) 0.52366(15)
H105A H 0.7641 -0.1344 0.5489
C144A C 0.6760(4) -0.1685(3) 0.53658(17)
H106A H 0.6868 -0.1677 0.5706
C145A C 0.6144(3) -0.1893(3) 0.4997(2)
H107A H 0.5829 -0.2029 0.5085
C146A C 0.5987(2) -0.1905(2) 0.4499(2)
H108A H 0.5565 -0.2047 0.4247
N26A N 0.7819(3) -0.1185(2) 0.4019(2)
N27A N 0.7295(3) -0.1385(3) 0.40613(19)
C147A C 0.7501(4) -0.1330(3) 0.4556(3)
C148A C 0.8145(4) -0.1060(4) 0.4838(3)
H109A H 0.8400 -0.0961 0.5196
C149A C 0.8335(4) -0.0967(4) 0.4480(3)
H110A H 0.8749 -0.0785 0.4548
C150A C 0.7758(3) -0.1190(3) 0.3525(2)
H111A H 0.7723 -0.1557 0.3343
H112A H 0.7371 -0.1170 0.3317
C151A C 0.1700(3) 0.0695(3) -0.3562(2)
N28A N 0.6084(3) -0.2603(3) 0.3382(2)
C152A C 0.5478(4) -0.2998(4) 0.3097(3)
C153A C 0.5291(4) -0.3574(4) 0.2941(3)
H113A H 0.4865 -0.3841 0.2745
C154A C 0.5741(5) -0.3754(4) 0.3076(4)
H114A H 0.5623 -0.4153 0.2973
C155A C 0.6345(5) -0.3377(4) 0.3351(3)
H115A H 0.6652 -0.3507 0.3438
C156A C 0.6513(4) -0.2795(3) 0.3506(3)
H116A H 0.6939 -0.2527 0.3704
N29A N 0.4724(3) -0.2111(3) 0.3008(2)
N30A N 0.5254(3) -0.2211(3) 0.3214(2)
C157A C 0.5031(4) -0.2764(4) 0.2987(3)
C158A C 0.4395(4) -0.3014(3) 0.2647(3)
H117A H 0.4135 -0.3409 0.2443
C159A C 0.4223(4) -0.2626(4) 0.2659(3)
H118A H 0.3814 -0.2681 0.2458
C160A C 0.4781(4) -0.1552(4) 0.3212(3)
H119A H 0.4798 -0.1498 0.3549
H120A H 0.5170 -0.1253 0.3266
N31A N 0.7763(2) -0.0561(2) -0.1600(2)
C161A C 0.7284(3) -0.0777(3) -0.2076(3)
C162A C 0.7054(4) -0.1334(4) -0.2396(3)
H121A H 0.6710 -0.1484 -0.2733
C163A C 0.7331(4) -0.1665(3) -0.2218(3)
H122A H 0.7183 -0.2047 -0.2430
C164A C 0.7842(4) -0.1426(3) -0.1713(3)
H123A H 0.8040 -0.1643 -0.1573
C165A C 0.8034(3) -0.0881(3) -0.1439(3)
H124A H 0.8390 -0.0712 -0.1106
N32A N 0.6941(3) 0.0380(3) -0.2172(2)
N33A N 0.7300(2) 0.0159(2) -0.1920(2)
C166A C 0.7009(3) -0.0400(3) -0.2241(3)
C167A C 0.6489(4) -0.0504(4) -0.2685(3)
H125A H 0.6211 -0.0853 -0.2971
C168A C 0.6467(4) -0.0020(4) -0.2626(3)
H126A H 0.6157 0.0044 -0.2870
C169A C 0.7125(3) 0.1002(3) -0.1937(3)
H127A H 0.7171 0.1079 -0.1589
H128A H 0.7531 0.1238 -0.1900
C170A C 0.7228(3) 0.1500(3) -0.2697(3)
H129A H 0.7528 0.1390 -0.2504
C171A C 0.7293(3) 0.1748(4) -0.3051(3)
H130A H 0.7638 0.1808 -0.3100
C172A C 0.6854(4) 0.1908(4) -0.3332(3)
H131A H 0.6899 0.2078 -0.3574
C173A C 0.6350(3) 0.1820(3) -0.3259(3)
H132A H 0.6051 0.1930 -0.3452
C174A C 0.6286(3) 0.1572(2) -0.2905(2)
C175A C 0.6724(3) 0.1412(2) -0.2624(2)
C176A C 0.5192(4) 0.1148(4) -0.2407(3)
H133A H 0.4892 0.1259 -0.2596
C177A C 0.5131(3) 0.0898(4) -0.2053(3)
H134A H 0.4789 0.0838 -0.2000
C178A C 0.5570(4) 0.0735(4) -0.1776(3)
H135A H 0.5528 0.0564 -0.1534
C179A C 0.6071(3) 0.0823(3) -0.1854(3)
H136A H 0.6371 0.0712 -0.1665
C180A C 0.6132(3) 0.1073(3) -0.2208(3)
C181A C 0.5693(4) 0.1235(3) -0.2484(3)
C182A C 0.6658(5) 0.1172(4) -0.2257(4)
C183A C 0.4237(6) -0.1492(5) 0.2844(4)
N34A N 0.8775(2) 0.0686(2) -0.1285(2)
C184A C 0.9315(3) 0.0729(3) -0.0957(3)
C185A C 0.9830(4) 0.0936(3) -0.1016(4)
H137A H 1.0198 0.0930 -0.0788
C186A C 0.9815(5) 0.1139(5) -0.1382(5)
H138A H 1.0181 0.1337 -0.1394
C187A C 0.9202(5) 0.1046(5) -0.1779(5)
H139A H 0.9143 0.1126 -0.2085
C188A C 0.8744(4) 0.0845(4) -0.1682(4)
H140A H 0.8357 0.0812 -0.1919
N35A N 0.8993(2) 0.02704(19) -0.00378(19)
N36A N 0.8817(2) 0.0365(2) -0.0475(2)
C189A C 0.9353(3) 0.0565(3) -0.0520(3)
C190A C 0.9829(3) 0.0592(3) -0.0094(3)
H141A H 1.0245 0.0714 -0.0020
C191A C 0.9594(3) 0.0413(3) 0.0202(3)
H142A H 0.9820 0.0393 0.0528
C192A C 0.1445(3) -0.0066(3) -0.0146(2)
H143A H 0.1790 -0.0159 0.0021
H144A H 0.1620 0.0356 -0.0043
loop_
_geom_bond_atom_site_label_1
_geom_bond_atom_site_label_2
_geom_bond_site_symmetry_1
_geom_bond_site_symmetry_2
Zn1 N1 1_555 1_555
Zn2 N4 1_555 1_555
Zn3 N16 1_555 1_555
Zn4 N10 1_555 1_555
N1 C1 1_555 1_555
C1 C2 1_555 1_555
C2 H1 1_555 1_555
C3 C2 1_555 1_555
H2 C3 1_555 1_555
C4 C3 1_555 1_555
H3 C4 1_555 1_555
C5 N1 1_555 1_555
H4 C5 1_555 1_555
N2 N3 1_555 1_555
N3 Zn1 1_555 1_555
C6 C1 1_555 1_555
C7 C6 1_555 1_555
H5 C7 1_555 1_555
C8 N2 1_555 1_555
H6 C8 1_555 1_555
C9 N2 1_555 1_555
H7 C9 1_555 1_555
H8 C9 1_555 1_555
C10 H9 1_555 1_555
C11 C10 1_555 1_555
H10 C11 1_555 1_555
C12 C11 1_555 1_555
H11 C12 1_555 1_555
C13 C12 1_555 1_555
H12 C13 1_555 1_555
C14 C13 1_555 1_555
C15 C10 1_555 1_555
C16 H13 1_555 1_555
C17 C16 1_555 1_555
H14 C17 1_555 1_555
C18 C17 1_555 1_555
H15 C18 1_555 1_555
C19 C18 1_555 1_555
H16 C19 1_555 1_555
C20 C19 1_555 1_555
C21 C16 1_555 1_555
C22 C9 1_555 1_555
C23 C14 1_555 1_555
N4 C24 1_555 1_555
C24 C25 1_555 1_555
C25 H17 1_555 1_555
C26 C25 1_555 1_555
H18 C26 1_555 1_555
C27 C26 1_555 1_555
H19 C27 1_555 1_555
C28 N4 1_555 1_555
H20 C28 1_555 1_555
N5 N6 1_555 1_555
N6 Zn2 1_555 1_555
C29 C24 1_555 1_555
C30 C29 1_555 1_555
H21 C30 1_555 1_555
C31 N5 1_555 1_555
H22 C31 1_555 1_555
C32 C23 1_555 1_555
H23 C32 1_555 1_555
H24 C32 1_555 1_555
N7 Zn1 1_555 1_555
C33 N7 1_555 1_555
C34 C33 1_555 1_555
H25 C34 1_555 1_555
C35 C34 1_555 1_555
H26 C35 1_555 1_555
C36 C35 1_555 1_555
H27 C36 1_555 1_555
C37 N7 1_555 1_555
H28 C37 1_555 1_555
N8 N9 1_555 1_555
N9 Zn1 1_555 1_555
C38 C33 1_555 1_555
C39 C38 1_555 1_555
H29 C39 1_555 1_555
C40 N8 1_555 1_555
H30 C40 1_555 1_555
C41 N8 1_555 1_555
H31 C41 1_555 1_555
H32 C41 1_555 1_555
C42 H33 1_555 1_555
C43 C42 1_555 1_555
H34 C43 1_555 1_555
C44 C43 1_555 1_555
H35 C44 1_555 1_555
C45 C44 1_555 1_555
H36 C45 1_555 1_555
C46 C45 1_555 1_555
C47 C42 1_555 1_555
C48 H37 1_555 1_555
C49 C48 1_555 1_555
H38 C49 1_555 1_555
C50 C49 1_555 1_555
H39 C50 1_555 1_555
C51 C50 1_555 1_555
H40 C51 1_555 1_555
C52 C51 1_555 1_555
C53 C48 1_555 1_555
C54 C41 1_555 1_555
C55 C46 1_555 1_555
N10 C56 1_555 1_555
C56 C57 1_555 1_555
C57 H41 1_555 1_555
C58 C57 1_555 1_555
H42 C58 1_555 1_555
C59 C58 1_555 1_555
H43 C59 1_555 1_555
C60 N10 1_555 1_555
H44 C60 1_555 1_555
N11 N12 1_555 1_555
N12 Zn4 1_555 1_555
C61 C56 1_555 1_555
C62 C61 1_555 1_555
H45 C62 1_555 1_555
C63 N11 1_555 1_555
H46 C63 1_555 1_555
C64 C55 1_555 1_555
H47 C64 1_555 1_555
H48 C64 1_555 1_555
N13 Zn1 1_555 1_555
C65 N13 1_555 1_555
C66 C65 1_555 1_555
H49 C66 1_555 1_555
C67 C66 1_555 1_555
H50 C67 1_555 1_555
C68 C67 1_555 1_555
H51 C68 1_555 1_555
C69 N13 1_555 1_555
H52 C69 1_555 1_555
N14 N15 1_555 1_555
N15 Zn1 1_555 1_555
C70 C65 1_555 1_555
C71 C70 1_555 1_555
H53 C71 1_555 1_555
C72 N14 1_555 1_555
H54 C72 1_555 1_555
C73 N14 1_555 1_555
H55 C73 1_555 1_555
H56 C73 1_555 1_555
C74 H57 1_555 1_555
C75 C74 1_555 1_555
H58 C75 1_555 1_555
C76 C75 1_555 1_555
H59 C76 1_555 1_555
C77 C76 1_555 1_555
H60 C77 1_555 1_555
C78 C77 1_555 1_555
C79 C74 1_555 1_555
C80 H61 1_555 1_555
C81 C80 1_555 1_555
H62 C81 1_555 1_555
C82 C81 1_555 1_555
H63 C82 1_555 1_555
C83 C82 1_555 1_555
H64 C83 1_555 1_555
C84 C83 1_555 1_555
C85 C80 1_555 1_555
C86 C73 1_555 1_555
C87 C78 1_555 1_555
N16 C88 1_555 1_555
C88 C89 1_555 1_555
C89 H65 1_555 1_555
C90 C89 1_555 1_555
H66 C90 1_555 1_555
C91 C90 1_555 1_555
H67 C91 1_555 1_555
C92 N16 1_555 1_555
H68 C92 1_555 1_555
N17 N18 1_555 1_555
N18 Zn3 1_555 1_555
C93 C88 1_555 1_555
C94 C93 1_555 1_555
H69 C94 1_555 1_555
C95 N17 1_555 1_555
H70 C95 1_555 1_555
C96 C87 1_555 1_555
H71 C96 1_555 1_555
H72 C96 1_555 1_555
N19 Zn2 1_555 1_555
C97 N19 1_555 1_555
C98 C97 1_555 1_555
H73 C98 1_555 1_555
C99 C98 1_555 1_555
H74 C99 1_555 1_555
C100 C99 1_555 1_555
H75 C100 1_555 1_555
C101 N19 1_555 1_555
H76 C101 1_555 1_555
N20 N21 1_555 1_555
N21 Zn2 1_555 1_555
C102 C97 1_555 1_555
C103 C102 1_555 1_555
H77 C103 1_555 1_555
C104 N20 1_555 1_555
H78 C104 1_555 1_555
C105 N20 1_555 1_555
H79 C105 1_555 1_555
H80 C105 1_555 1_555
C106 H81 1_555 1_555
C107 C106 1_555 1_555
H82 C107 1_555 1_555
C108 C107 1_555 1_555
H83 C108 1_555 1_555
C109 C108 1_555 1_555
H84 C109 1_555 1_555
C110 C109 1_555 1_555
C111 C106 1_555 1_555
C112 H85 1_555 1_555
C113 C112 1_555 1_555
H86 C113 1_555 1_555
C114 C113 1_555 1_555
H87 C114 1_555 1_555
C115 C114 1_555 1_555
H88 C115 1_555 1_555
C116 C115 1_555 1_555
C117 C112 1_555 1_555
C118 C105 1_555 1_555
C119 C110 1_555 1_555
N22 Zn2 1_555 1_555
C120 N22 1_555 1_555
C121 C120 1_555 1_555
H89 C121 1_555 1_555
C122 C121 1_555 1_555
H90 C122 1_555 1_555
C123 C122 1_555 1_555
H91 C123 1_555 1_555
C124 N22 1_555 1_555
H92 C124 1_555 1_555
N23 N24 1_555 1_555
N24 Zn2 1_555 1_555
C125 C120 1_555 1_555
C126 C125 1_555 1_555
H93 C126 1_555 1_555
C127 N23 1_555 1_555
H94 C127 1_555 1_555
C128 N23 1_555 1_555
H95 C128 1_555 1_555
H96 C128 1_555 1_555
C129 H97 1_555 1_555
C130 C129 1_555 1_555
H98 C130 1_555 1_555
C131 C130 1_555 1_555
H99 C131 1_555 1_555
C132 C131 1_555 1_555
H100 C132 1_555 1_555
C133 C132 1_555 1_555
C134 C129 1_555 1_555
C135 H101 1_555 1_555
C136 C135 1_555 1_555
H102 C136 1_555 1_555
C137 C136 1_555 1_555
H103 C137 1_555 1_555
C138 C137 1_555 1_555
H104 C138 1_555 1_555
C139 C138 1_555 1_555
C140 C135 1_555 1_555
C141 C128 1_555 1_555
N25 Zn3 1_555 1_555
C142 N25 1_555 1_555
C143 C142 1_555 1_555
H105 C143 1_555 1_555
C144 C143 1_555 1_555
H106 C144 1_555 1_555
C145 C144 1_555 1_555
H107 C145 1_555 1_555
C146 N25 1_555 1_555
H108 C146 1_555 1_555
N26 N27 1_555 1_555
N27 Zn3 1_555 1_555
C147 C142 1_555 1_555
C148 C147 1_555 1_555
H109 C148 1_555 1_555
C149 N26 1_555 1_555
H110 C149 1_555 1_555
C150 N26 1_555 1_555
H111 C150 1_555 1_555
H112 C150 1_555 1_555
C151 C133 1_555 1_555
N28 Zn3 1_555 1_555
C152 N28 1_555 1_555
C153 C152 1_555 1_555
H113 C153 1_555 1_555
C154 C153 1_555 1_555
H114 C154 1_555 1_555
C155 C154 1_555 1_555
H115 C155 1_555 1_555
C156 N28 1_555 1_555
H116 C156 1_555 1_555
N29 N30 1_555 1_555
N30 Zn3 1_555 1_555
C157 C152 1_555 1_555
C158 C157 1_555 1_555
H117 C158 1_555 1_555
C159 N29 1_555 1_555
H118 C159 1_555 1_555
C160 N29 1_555 1_555
H119 C160 1_555 1_555
H120 C160 1_555 1_555
N31 Zn4 1_555 1_555
C161 N31 1_555 1_555
C162 C161 1_555 1_555
H121 C162 1_555 1_555
C163 C162 1_555 1_555
H122 C163 1_555 1_555
C164 C163 1_555 1_555
H123 C164 1_555 1_555
C165 N31 1_555 1_555
H124 C165 1_555 1_555
N32 N33 1_555 1_555
N33 Zn4 1_555 1_555
C166 C161 1_555 1_555
C167 C166 1_555 1_555
H125 C167 1_555 1_555
C168 N32 1_555 1_555
H126 C168 1_555 1_555
C169 N32 1_555 1_555
H127 C169 1_555 1_555
H128 C169 1_555 1_555
C170 H129 1_555 1_555
C171 C170 1_555 1_555
H130 C171 1_555 1_555
C172 C171 1_555 1_555
H131 C172 1_555 1_555
C173 C172 1_555 1_555
H132 C173 1_555 1_555
C174 C173 1_555 1_555
C175 C170 1_555 1_555
C176 H133 1_555 1_555
C177 C176 1_555 1_555
H134 C177 1_555 1_555
C178 C177 1_555 1_555
H135 C178 1_555 1_555
C179 C178 1_555 1_555
H136 C179 1_555 1_555
C180 C179 1_555 1_555
C181 C176 1_555 1_555
C182 C169 1_555 1_555
C183 C160 1_555 1_555
N34 Zn4 1_555 1_555
C184 N34 1_555 1_555
C185 C184 1_555 1_555
H137 C185 1_555 1_555
C186 C185 1_555 1_555
H138 C186 1_555 1_555
C187 C186 1_555 1_555
H139 C187 1_555 1_555
C188 N34 1_555 1_555
H140 C188 1_555 1_555
N35 N36 1_555 1_555
N36 Zn4 1_555 1_555
C189 C184 1_555 1_555
C190 C189 1_555 1_555
H141 C190 1_555 1_555
C191 N35 1_555 1_555
H142 C191 1_555 1_555
C192 C119 1_555 1_555
H143 C192 1_555 1_555
H144 C192 1_555 1_555
F1 B1 1_555 1_555
F2 B1 1_555 1_555
F3 B1 1_555 1_555
F4 B1 1_555 1_555
F5 B2 1_555 1_555
F6 B2 1_555 1_555
F7 B2 1_555 1_555
F8 B2 1_555 1_555
F9 B3 1_555 1_555
F10 B3 1_555 1_555
F11 B3 1_555 1_555
F12 B3 1_555 1_555
F13 B4 1_555 1_555
F14 B4 1_555 1_555
F15 B4 1_555 1_555
F16 B4 1_555 1_555
F17 B5 1_555 1_555
F18 B5 1_555 1_555
F19 B5 1_555 1_555
F20 B5 1_555 1_555
O1 N37 1_555 1_555
O2 N37 1_555 1_555
N37 C193 1_555 1_555
C193 H145 1_555 1_555
H146 C193 1_555 1_555
H147 C193 1_555 1_555
O3 N38 1_555 1_555
O4 N38 1_555 1_555
N38 C194 1_555 1_555
C194 H148 1_555 1_555
H149 C194 1_555 1_555
H150 C194 1_555 1_555
O5 N39 1_555 1_555
O6 N39 1_555 1_555
N39 C195 1_555 1_555
C195 H151 1_555 1_555
H152 C195 1_555 1_555
H153 C195 1_555 1_555
O7 N40 1_555 1_555
O8 N40 1_555 1_555
N40 C196 1_555 1_555
C196 H154 1_555 1_555
H155 C196 1_555 1_555
H156 C196 1_555 1_555
O9 N41 1_555 1_555
O10 N41 1_555 1_555
N41 C197 1_555 1_555
C197 H157 1_555 1_555
H158 C197 1_555 1_555
H159 C197 1_555 1_555
O11 N42 1_555 1_555
O12 N42 1_555 1_555
N42 C198 1_555 1_555
C198 H160 1_555 1_555
H161 C198 1_555 1_555
H162 C198 1_555 1_555
O13 N43 1_555 1_555
O14 N43 1_555 1_555
N43 C199 1_555 1_555
C199 H163 1_555 1_555
H164 C199 1_555 1_555
H165 C199 1_555 1_555
O15 N44 1_555 1_555
O16 N44 1_555 1_555
N44 C200 1_555 1_555
C200 H166 1_555 1_555
H167 C200 1_555 1_555
H168 C200 1_555 1_555
O17 N45 1_555 1_555
O18 N45 1_555 1_555
N45 C201 1_555 1_555
C201 H169 1_555 1_555
H170 C201 1_555 1_555
H171 C201 1_555 1_555
O19 N46 1_555 1_555
O20 N46 1_555 1_555
N46 C202 1_555 1_555
C202 H172 1_555 1_555
H173 C202 1_555 1_555
H174 C202 1_555 1_555
O21 N47 1_555 1_555
O22 N47 1_555 1_555
N47 C203 1_555 1_555
C203 H175 1_555 1_555
H176 C203 1_555 1_555
H177 C203 1_555 1_555
O23 N48 1_555 1_555
O24 N48 1_555 1_555
N48 C204 1_555 1_555
C204 H178 1_555 1_555
H179 C204 1_555 1_555
H180 C204 1_555 1_555
O25 C205 1_555 1_555
C205 H181 1_555 1_555
H182 C205 1_555 1_555
C206 C205 1_555 1_555
H183 C206 1_555 1_555
H184 C206 1_555 1_555
H185 C206 1_555 1_555
C207 O25 1_555 1_555
H186 C207 1_555 1_555
H187 C207 1_555 1_555
C208 C207 1_555 1_555
H188 C208 1_555 1_555
H189 C208 1_555 1_555
H190 C208 1_555 1_555
Zn1A N1A 1_555 1_555
Zn2A N4A 1_555 1_555
Zn3A N16A 1_555 1_555
Zn4A N10A 1_555 1_555
N1A C1A 1_555 1_555
C1A C2A 1_555 1_555
C2A H1A 1_555 1_555
C3A C2A 1_555 1_555
H2A C3A 1_555 1_555
C4A C3A 1_555 1_555
H3A C4A 1_555 1_555
C5A N1A 1_555 1_555
H4A C5A 1_555 1_555
N2A N3A 1_555 1_555
N3A Zn1A 1_555 1_555
C6A C1A 1_555 1_555
C7A C6A 1_555 1_555
H5A C7A 1_555 1_555
C8A N2A 1_555 1_555
H6A C8A 1_555 1_555
C9A N2A 1_555 1_555
H7A C9A 1_555 1_555
H8A C9A 1_555 1_555
C10A H9A 1_555 1_555
C11A C10A 1_555 1_555
H10A C11A 1_555 1_555
C12A C11A 1_555 1_555
H11A C12A 1_555 1_555
C13A C12A 1_555 1_555
H12A C13A 1_555 1_555
C14A C13A 1_555 1_555
C15A C10A 1_555 1_555
C16A H13A 1_555 1_555
C17A C16A 1_555 1_555
H14A C17A 1_555 1_555
C18A C17A 1_555 1_555
H15A C18A 1_555 1_555
C19A C18A 1_555 1_555
H16A C19A 1_555 1_555
C20A C19A 1_555 1_555
C21A C16A 1_555 1_555
C22A C9A 1_555 1_555
C23A C14A 1_555 1_555
N4A C24A 1_555 1_555
C24A C25A 1_555 1_555
C25A H17A 1_555 1_555
C26A C25A 1_555 1_555
H18A C26A 1_555 1_555
C27A C26A 1_555 1_555
H19A C27A 1_555 1_555
C28A N4A 1_555 1_555
H20A C28A 1_555 1_555
N5A N6A 1_555 1_555
N6A Zn2A 1_555 1_555
C29A C24A 1_555 1_555
C30A C29A 1_555 1_555
H21A C30A 1_555 1_555
C31A N5A 1_555 1_555
H22A C31A 1_555 1_555
C32A C23A 1_555 1_555
H23A C32A 1_555 1_555
H24A C32A 1_555 1_555
N7A Zn1A 1_555 1_555
C33A N7A 1_555 1_555
C34A C33A 1_555 1_555
H25A C34A 1_555 1_555
C35A C34A 1_555 1_555
H26A C35A 1_555 1_555
C36A C35A 1_555 1_555
H27A C36A 1_555 1_555
C37A N7A 1_555 1_555
H28A C37A 1_555 1_555
N8A N9A 1_555 1_555
N9A Zn1A 1_555 1_555
C38A C33A 1_555 1_555
C39A C38A 1_555 1_555
H29A C39A 1_555 1_555
C40A N8A 1_555 1_555
H30A C40A 1_555 1_555
C41A N8A 1_555 1_555
H31A C41A 1_555 1_555
H32A C41A 1_555 1_555
C42A H33A 1_555 1_555
C43A C42A 1_555 1_555
H34A C43A 1_555 1_555
C44A C43A 1_555 1_555
H35A C44A 1_555 1_555
C45A C44A 1_555 1_555
H36A C45A 1_555 1_555
C46A C45A 1_555 1_555
C47A C42A 1_555 1_555
C48A H37A 1_555 1_555
C49A C48A 1_555 1_555
H38A C49A 1_555 1_555
C50A C49A 1_555 1_555
H39A C50A 1_555 1_555
C51A C50A 1_555 1_555
H40A C51A 1_555 1_555
C52A C51A 1_555 1_555
C53A C48A 1_555 1_555
C54A C41A 1_555 1_555
C55A C46A 1_555 1_555
N10A C56A 1_555 1_555
C56A C57A 1_555 1_555
C57A H41A 1_555 1_555
C58A C57A 1_555 1_555
H42A C58A 1_555 1_555
C59A C58A 1_555 1_555
H43A C59A 1_555 1_555
C60A N10A 1_555 1_555
H44A C60A 1_555 1_555
N11A N12A 1_555 1_555
N12A Zn4A 1_555 1_555
C61A C56A 1_555 1_555
C62A C61A 1_555 1_555
H45A C62A 1_555 1_555
C63A N11A 1_555 1_555
H46A C63A 1_555 1_555
C64A C55A 1_555 1_555
H47A C64A 1_555 1_555
H48A C64A 1_555 1_555
N13A Zn1A 1_555 1_555
C65A N13A 1_555 1_555
C66A C65A 1_555 1_555
H49A C66A 1_555 1_555
C67A C66A 1_555 1_555
H50A C67A 1_555 1_555
C68A C67A 1_555 1_555
H51A C68A 1_555 1_555
C69A N13A 1_555 1_555
H52A C69A 1_555 1_555
N14A N15A 1_555 1_555
N15A Zn1A 1_555 1_555
C70A C65A 1_555 1_555
C71A C70A 1_555 1_555
H53A C71A 1_555 1_555
C72A N14A 1_555 1_555
H54A C72A 1_555 1_555
C73A N14A 1_555 1_555
H55A C73A 1_555 1_555
H56A C73A 1_555 1_555
C74A H57A 1_555 1_555
C75A C74A 1_555 1_555
H58A C75A 1_555 1_555
C76A C75A 1_555 1_555
H59A C76A 1_555 1_555
C77A C76A 1_555 1_555
H60A C77A 1_555 1_555
C78A C77A 1_555 1_555
C79A C74A 1_555 1_555
C80A H61A 1_555 1_555
C81A C80A 1_555 1_555
H62A C81A 1_555 1_555
C82A C81A 1_555 1_555
H63A C82A 1_555 1_555
C83A C82A 1_555 1_555
H64A C83A 1_555 1_555
C84A C83A 1_555 1_555
C85A C80A 1_555 1_555
C86A C73A 1_555 1_555
C87A C78A 1_555 1_555
N16A C88A 1_555 1_555
C88A C89A 1_555 1_555
C89A H65A 1_555 1_555
C90A C89A 1_555 1_555
H66A C90A 1_555 1_555
C91A C90A 1_555 1_555
H67A C91A 1_555 1_555
C92A N16A 1_555 1_555
H68A C92A 1_555 1_555
N17A N18A 1_555 1_555
N18A Zn3A 1_555 1_555
C93A C88A 1_555 1_555
C94A C93A 1_555 1_555
H69A C94A 1_555 1_555
C95A N17A 1_555 1_555
H70A C95A 1_555 1_555
C96A C87A 1_555 1_555
H71A C96A 1_555 1_555
H72A C96A 1_555 1_555
N19A Zn2A 1_555 1_555
C97A N19A 1_555 1_555
C98A C97A 1_555 1_555
H73A C98A 1_555 1_555
C99A C98A 1_555 1_555
H74A C99A 1_555 1_555
C100A C99A 1_555 1_555
H75A C100A 1_555 1_555
C101A N19A 1_555 1_555
H76A C101A 1_555 1_555
N20A N21A 1_555 1_555
N21A Zn2A 1_555 1_555
C102A C97A 1_555 1_555
C103A C102A 1_555 1_555
H77A C103A 1_555 1_555
C104A N20A 1_555 1_555
H78A C104A 1_555 1_555
C105A N20A 1_555 1_555
H79A C105A 1_555 1_555
H80A C105A 1_555 1_555
C106A H81A 1_555 1_555
C107A C106A 1_555 1_555
H82A C107A 1_555 1_555
C108A C107A 1_555 1_555
H83A C108A 1_555 1_555
C109A C108A 1_555 1_555
H84A C109A 1_555 1_555
C110A C109A 1_555 1_555
C111A C106A 1_555 1_555
C112A H85A 1_555 1_555
C113A C112A 1_555 1_555
H86A C113A 1_555 1_555
C114A C113A 1_555 1_555
H87A C114A 1_555 1_555
C115A C114A 1_555 1_555
H88A C115A 1_555 1_555
C116A C115A 1_555 1_555
C117A C112A 1_555 1_555
C118A C105A 1_555 1_555
C119A C110A 1_555 1_555
N22A Zn2A 1_555 1_555
C120A N22A 1_555 1_555
C121A C120A 1_555 1_555
H89A C121A 1_555 1_555
C122A C121A 1_555 1_555
H90A C122A 1_555 1_555
C123A C122A 1_555 1_555
H91A C123A 1_555 1_555
C124A N22A 1_555 1_555
H92A C124A 1_555 1_555
N23A N24A 1_555 1_555
N24A Zn2A 1_555 1_555
C125A C120A 1_555 1_555
C126A C125A 1_555 1_555
H93A C126A 1_555 1_555
C127A N23A 1_555 1_555
H94A C127A 1_555 1_555
C128A N23A 1_555 1_555
H95A C128A 1_555 1_555
H96A C128A 1_555 1_555
C129A H97A 1_555 1_555
C130A C129A 1_555 1_555
H98A C130A 1_555 1_555
C131A C130A 1_555 1_555
H99A C131A 1_555 1_555
C132A C131A 1_555 1_555
H100A C132A 1_555 1_555
C133A C132A 1_555 1_555
C134A C129A 1_555 1_555
C135A H101A 1_555 1_555
C136A C135A 1_555 1_555
H102A C136A 1_555 1_555
C137A C136A 1_555 1_555
H103A C137A 1_555 1_555
C138A C137A 1_555 1_555
H104A C138A 1_555 1_555
C139A C138A 1_555 1_555
C140A C135A 1_555 1_555
C141A C128A 1_555 1_555
N25A Zn3A 1_555 1_555
C142A N25A 1_555 1_555
C143A C142A 1_555 1_555
H105A C143A 1_555 1_555
C144A C143A 1_555 1_555
H106A C144A 1_555 1_555
C145A C144A 1_555 1_555
H107A C145A 1_555 1_555
C146A N25A 1_555 1_555
H108A C146A 1_555 1_555
N26A N27A 1_555 1_555
N27A Zn3A 1_555 1_555
C147A C142A 1_555 1_555
C148A C147A 1_555 1_555
H109A C148A 1_555 1_555
C149A N26A 1_555 1_555
H110A C149A 1_555 1_555
C150A C151 1_555 1_555
H111A C150A 1_555 1_555
H112A C150A 1_555 1_555
C151A C150 1_555 1_555
N28A Zn3A 1_555 1_555
C152A N28A 1_555 1_555
C153A C152A 1_555 1_555
H113A C153A 1_555 1_555
C154A C153A 1_555 1_555
H114A C154A 1_555 1_555
C155A C154A 1_555 1_555
H115A C155A 1_555 1_555
C156A N28A 1_555 1_555
H116A C156A 1_555 1_555
N29A N30A 1_555 1_555
N30A Zn3A 1_555 1_555
C157A C152A 1_555 1_555
C158A C157A 1_555 1_555
H117A C158A 1_555 1_555
C159A N29A 1_555 1_555
H118A C159A 1_555 1_555
C160A N29A 1_555 1_555
H119A C160A 1_555 1_555
H120A C160A 1_555 1_555
N31A Zn4A 1_555 1_555
C161A N31A 1_555 1_555
C162A C161A 1_555 1_555
H121A C162A 1_555 1_555
C163A C162A 1_555 1_555
H122A C163A 1_555 1_555
C164A C163A 1_555 1_555
H123A C164A 1_555 1_555
C165A N31A 1_555 1_555
H124A C165A 1_555 1_555
N32A N33A 1_555 1_555
N33A Zn4A 1_555 1_555
C166A C161A 1_555 1_555
C167A C166A 1_555 1_555
H125A C167A 1_555 1_555
C168A N32A 1_555 1_555
H126A C168A 1_555 1_555
C169A N32A 1_555 1_555
H127A C169A 1_555 1_555
H128A C169A 1_555 1_555
C170A H129A 1_555 1_555
C171A C170A 1_555 1_555
H130A C171A 1_555 1_555
C172A C171A 1_555 1_555
H131A C172A 1_555 1_555
C173A C172A 1_555 1_555
H132A C173A 1_555 1_555
C174A C183 1_555 1_555
C175A C170A 1_555 1_555
C176A H133A 1_555 1_555
C177A C176A 1_555 1_555
H134A C177A 1_555 1_555
C178A C177A 1_555 1_555
H135A C178A 1_555 1_555
C179A C178A 1_555 1_555
H136A C179A 1_555 1_555
C180A C179A 1_555 1_555
C181A C183 1_555 1_555
C182A C169A 1_555 1_555
C183A C174 1_555 1_555
N34A Zn4A 1_555 1_555
C184A N34A 1_555 1_555
C185A C184A 1_555 1_555
H137A C185A 1_555 1_555
C186A C185A 1_555 1_555
H138A C186A 1_555 1_555
C187A C186A 1_555 1_555
H139A C187A 1_555 1_555
C188A N34A 1_555 1_555
H140A C188A 1_555 1_555
N35A C192 1_555 1_555
N36A Zn4A 1_555 1_555
C189A C184A 1_555 1_555
C190A C189A 1_555 1_555
H141A C190A 1_555 1_555
C191A N35A 1_555 1_555
H142A C191A 1_555 1_555
C192A N35 1_555 1_555
H143A C192A 1_555 1_555
H144A C192A 1_555 1_555
C4 C5 1_555 1_555
N3 C6 1_555 1_555
C7 C8 1_555 1_555
C14 C15 1_555 1_555
C15 C22 1_555 1_555
C20 C21 1_555 1_555
C20 C22 1_555 1_555
C21 C23 1_555 1_555
C27 C28 1_555 1_555
N5 C32 1_555 1_555
N6 C29 1_555 1_555
C30 C31 1_555 1_555
C36 C37 1_555 1_555
N9 C38 1_555 1_555
C39 C40 1_555 1_555
C46 C47 1_555 1_555
C47 C54 1_555 1_555
C52 C53 1_555 1_555
C52 C54 1_555 1_555
C53 C55 1_555 1_555
C59 C60 1_555 1_555
N11 C64 1_555 1_555
N12 C61 1_555 1_555
C62 C63 1_555 1_555
C68 C69 1_555 1_555
N15 C70 1_555 1_555
C71 C72 1_555 1_555
C78 C79 1_555 1_555
C79 C86 1_555 1_555
C84 C85 1_555 1_555
C84 C86 1_555 1_555
C85 C87 1_555 1_555
C91 C92 1_555 1_555
N17 C96 1_555 1_555
N18 C93 1_555 1_555
C94 C95 1_555 1_555
C100 C101 1_555 1_555
N21 C102 1_555 1_555
C103 C104 1_555 1_555
C110 C111 1_555 1_555
C111 C118 1_555 1_555
C116 C117 1_555 1_555
C116 C118 1_555 1_555
C117 C119 1_555 1_555
C123 C124 1_555 1_555
N24 C125 1_555 1_555
C126 C127 1_555 1_555
C133 C134 1_555 1_555
C134 C141 1_555 1_555
C139 C140 1_555 1_555
C139 C141 1_555 1_555
C140 C151 1_555 1_555
C145 C146 1_555 1_555
N27 C147 1_555 1_555
C148 C149 1_555 1_555
C155 C156 1_555 1_555
N30 C157 1_555 1_555
C158 C159 1_555 1_555
C164 C165 1_555 1_555
N33 C166 1_555 1_555
C167 C168 1_555 1_555
C174 C175 1_555 1_555
C175 C182 1_555 1_555
C180 C181 1_555 1_555
C180 C182 1_555 1_555
C181 C183A 1_555 1_555
C187 C188 1_555 1_555
N36 C189 1_555 1_555
C190 C191 1_555 1_555
C4A C5A 1_555 1_555
N3A C6A 1_555 1_555
C7A C8A 1_555 1_555
C14A C15A 1_555 1_555
C15A C22A 1_555 1_555
C20A C21A 1_555 1_555
C20A C22A 1_555 1_555
C21A C23A 1_555 1_555
C27A C28A 1_555 1_555
N5A C32A 1_555 1_555
N6A C29A 1_555 1_555
C30A C31A 1_555 1_555
C36A C37A 1_555 1_555
N9A C38A 1_555 1_555
C39A C40A 1_555 1_555
C46A C47A 1_555 1_555
C47A C54A 1_555 1_555
C52A C53A 1_555 1_555
C52A C54A 1_555 1_555
C53A C55A 1_555 1_555
C59A C60A 1_555 1_555
N11A C64A 1_555 1_555
N12A C61A 1_555 1_555
C62A C63A 1_555 1_555
C68A C69A 1_555 1_555
N15A C70A 1_555 1_555
C71A C72A 1_555 1_555
C78A C79A 1_555 1_555
C79A C86A 1_555 1_555
C84A C85A 1_555 1_555
C84A C86A 1_555 1_555
C85A C87A 1_555 1_555
C91A C92A 1_555 1_555
N17A C96A 1_555 1_555
N18A C93A 1_555 1_555
C94A C95A 1_555 1_555
C100A C101A 1_555 1_555
N21A C102A 1_555 1_555
C103A C104A 1_555 1_555
C110A C111A 1_555 1_555
C111A C118A 1_555 1_555
C116A C117A 1_555 1_555
C116A C118A 1_555 1_555
C117A C119A 1_555 1_555
C119A C192A 1_555 1_555
C123A C124A 1_555 1_555
N24A C125A 1_555 1_555
C126A C127A 1_555 1_555
C133A C134A 1_555 1_555
C133A C151A 1_555 1_555
C134A C141A 1_555 1_555
C139A C140A 1_555 1_555
C139A C141A 1_555 1_555
C140A C151A 1_555 1_555
C145A C146A 1_555 1_555
N26A C150A 1_555 1_555
N27A C147A 1_555 1_555
C148A C149A 1_555 1_555
C155A C156A 1_555 1_555
N30A C157A 1_555 1_555
C158A C159A 1_555 1_555
C160A C183A 1_555 1_555
C164A C165A 1_555 1_555
N33A C166A 1_555 1_555
C167A C168A 1_555 1_555
C173A C174A 1_555 1_555
C174A C175A 1_555 1_555
C175A C182A 1_555 1_555
C176A C181A 1_555 1_555
C180A C181A 1_555 1_555
C180A C182A 1_555 1_555
C187A C188A 1_555 1_555
N35A N36A 1_555 1_555
N36A C189A 1_555 1_555
C190A C191A 1_555 1_555

#END
