# generated using pymatgen
data_Zn4B5H206C236N48(O5F4)5
_symmetry_space_group_name_H-M   'P 1'
_cell_length_a   26.53880000
_cell_length_b   26.59410000
_cell_length_c   30.38400000
_cell_angle_alpha   99.66400000
_cell_angle_beta   113.72700000
_cell_angle_gamma   110.11700000
_symmetry_Int_Tables_number   1
_chemical_formula_structural   Zn4B5H206C236N48(O5F4)5
_chemical_formula_sum   'Zn8 B10 H412 C472 N96 O50 F40'
_cell_volume   17224.34873611
_cell_formula_units_Z   2
loop_
 _symmetry_equiv_pos_site_id
 _symmetry_equiv_pos_as_xyz
  1  'x, y, z'
loop_
 _atom_site_type_symbol
 _atom_site_label
 _atom_site_symmetry_multiplicity
 _atom_site_fract_x
 _atom_site_fract_y
 _atom_site_fract_z
 _atom_site_occupancy
  Zn  Zn1  1  0.643930  0.417800  0.117270  1.0
  Zn  Zn2  1  0.356070  0.582200  0.882730  1.0
  Zn  Zn3  1  0.032610  0.230990  0.364210  1.0
  Zn  Zn4  1  0.967390  0.769010  0.635790  1.0
  Zn  Zn5  1  0.372260  0.172780  0.638040  1.0
  Zn  Zn6  1  0.627740  0.827220  0.361960  1.0
  Zn  Zn7  1  0.197470  0.971580  0.114820  1.0
  Zn  Zn8  1  0.802530  0.028420  0.885180  1.0
  B  B9  1  0.164630  0.158590  0.045060  1
  B  B10  1  0.835370  0.841410  0.954940  1
  B  B11  1  0.792100  0.730300  0.342600  1
  B  B12  1  0.207900  0.269700  0.657400  1
  B  B13  1  0.387600  0.383700  0.047900  1
  B  B14  1  0.612400  0.616300  0.952100  1
  B  B15  1  0.112500  0.048400  0.345600  1
  B  B16  1  0.887500  0.951600  0.654400  1
  B  B17  1  0.609000  0.108900  0.004900  1
  B  B18  1  0.391000  0.891100  0.995100  1
  H  H19  1  0.462200  0.574500  0.120200  1
  H  H20  1  0.537800  0.425500  0.879800  1
  H  H21  1  0.388800  0.550700  0.090200  1
  H  H22  1  0.611200  0.449300  0.909800  1
  H  H23  1  0.417900  0.506900  0.094700  1
  H  H24  1  0.582100  0.493100  0.905300  1
  H  H25  1  0.087000  0.174000  0.097400  1
  H  H26  1  0.913000  0.826000  0.902600  1
  H  H27  1  0.037900  0.197300  0.093900  1
  H  H28  1  0.962100  0.802700  0.906100  1
  H  H29  1  0.047400  0.155400  0.125200  1
  H  H30  1  0.952600  0.844600  0.874800  1
  H  H31  1  0.356400  0.267300  0.312200  1
  H  H32  1  0.643600  0.732700  0.687800  1
  H  H33  1  0.368100  0.321300  0.354500  1
  H  H34  1  0.631900  0.678700  0.645500  1
  H  H35  1  0.299400  0.271000  0.316100  1
  H  H36  1  0.700600  0.729000  0.683900  1
  H  H37  1  0.144800  0.088400  0.251600  1
  H  H38  1  0.855200  0.911600  0.748400  1
  H  H39  1  0.133400  0.037900  0.206200  1
  H  H40  1  0.866600  0.962100  0.793800  1
  H  H41  1  0.084900  0.027600  0.226400  1
  H  H42  1  0.915100  0.972400  0.773600  1
  H  H43  1  0.213700  0.005500  0.242600  1
  H  H44  1  0.786300  0.994500  0.757400  1
  H  H45  1  0.224500  0.062700  0.280300  1
  H  H46  1  0.775500  0.937300  0.719700  1
  H  H47  1  0.169100  0.002400  0.266200  1
  H  H48  1  0.830900  0.997600  0.733800  1
  H  H49  1  0.344400  0.432900  0.780100  1
  H  H50  1  0.655600  0.567100  0.219900  1
  H  H51  1  0.306700  0.377500  0.788600  1
  H  H52  1  0.693300  0.622500  0.211400  1
  H  H53  1  0.326000  0.370400  0.745200  1
  H  H54  1  0.674000  0.629600  0.254800  1
  H  H55  1  0.239700  0.207800  0.950800  1
  H  H56  1  0.760300  0.792200  0.049200  1
  H  H57  1  0.247800  0.207900  0.005900  1
  H  H58  1  0.752200  0.792100  0.994100  1
  H  H59  1  0.298200  0.258500  0.002000  1
  H  H60  1  0.701800  0.741500  0.998000  1
  H  H61  1  0.047000  0.277400  0.827400  1
  H  H62  1  0.953000  0.722600  0.172600  1
  H  H63  1  0.119600  0.313900  0.867100  1
  H  H64  1  0.880400  0.686100  0.132900  1
  H  H65  1  0.076900  0.267000  0.880200  1
  H  H66  1  0.923100  0.733000  0.119800  1
  H  H67  1  0.234800  0.378600  0.970200  1
  H  H68  1  0.765200  0.621400  0.029800  1
  H  H69  1  0.196400  0.396200  0.993500  1
  H  H70  1  0.803600  0.603800  0.006500  1
  H  H71  1  0.269800  0.422300  0.028000  1
  H  H72  1  0.730200  0.577700  0.972000  1
  H  H73  1  0.105500  0.249600  0.026600  1
  H  H74  1  0.894500  0.750400  0.973400  1
  H  H75  1  0.101400  0.301100  0.007000  1
  H  H76  1  0.898600  0.698900  0.993000  1
  H  H77  1  0.092100  0.244600  0.969400  1
  H  H78  1  0.907900  0.755400  0.030600  1
  H  H79  1  0.967400  0.863500  0.403500  1
  H  H80  1  0.032600  0.136500  0.596500  1
  H  H81  1  0.966400  0.868100  0.456300  1
  H  H82  1  0.033600  0.131900  0.543700  1
  H  H83  1  0.029200  0.879800  0.455400  1
  H  H84  1  0.970800  0.120200  0.544600  1
  H  H85  1  0.775900  0.998800  0.165500  1
  H  H86  1  0.224100  0.001200  0.834500  1
  H  H87  1  0.733900  0.943600  0.113700  1
  H  H88  1  0.266100  0.056400  0.886300  1
  H  H89  1  0.803400  0.957200  0.152200  1
  H  H90  1  0.196600  0.042800  0.847800  1
  H  H91  1  0.784500  0.293700  0.892600  1
  H  H92  1  0.215500  0.706300  0.107400  1
  H  H93  1  0.745800  0.231200  0.848100  1
  H  H94  1  0.254200  0.768800  0.151900  1
  H  H95  1  0.710100  0.279700  0.912400  1
  H  H96  1  0.289900  0.720300  0.087600  1
  H  H97  1  0.686300  0.213100  0.884100  1
  H  H98  1  0.313700  0.786900  0.115900  1
  H  H99  1  0.656700  0.248100  0.853400  1
  H  H100  1  0.343300  0.751900  0.146600  1
  H  H101  1  0.758500  0.268000  0.783300  1
  H  H102  1  0.241500  0.732000  0.216700  1
  H  H103  1  0.804000  0.329100  0.829000  1
  H  H104  1  0.196000  0.670900  0.171000  1
  H  H105  1  0.696100  0.308400  0.737300  1
  H  H106  1  0.303900  0.691600  0.262700  1
  H  H107  1  0.765300  0.341500  0.748100  1
  H  H108  1  0.234700  0.658500  0.251900  1
  H  H109  1  0.742800  0.369500  0.782600  1
  H  H110  1  0.257200  0.630500  0.217400  1
  H  H111  1  0.269100  0.888400  0.267800  1
  H  H112  1  0.730900  0.111600  0.732200  1
  H  H113  1  0.745000  0.298500  0.157400  1
  H  H114  1  0.255000  0.701500  0.842600  1
  H  H115  1  0.266700  0.863800  0.337600  1
  H  H116  1  0.733300  0.136200  0.662400  1
  H  H117  1  0.727300  0.203100  0.134000  1
  H  H118  1  0.272700  0.796900  0.866000  1
  H  H119  1  0.339200  0.836200  0.386400  1
  H  H120  1  0.660800  0.163800  0.613600  1
  H  H121  1  0.801100  0.177600  0.184100  1
  H  H122  1  0.198900  0.822400  0.815900  1
  H  H123  1  0.414100  0.833300  0.365400  1
  H  H124  1  0.585900  0.166700  0.634600  1
  H  H125  1  0.892600  0.247500  0.257600  1
  H  H126  1  0.107400  0.752500  0.742400  1
  H  H127  1  0.505000  0.860900  0.252300  1
  H  H128  1  0.495000  0.139100  0.747700  1
  H  H129  1  0.024300  0.446600  0.374800  1
  H  H130  1  0.975700  0.553400  0.625200  1
  H  H131  1  0.508200  0.885700  0.182800  1
  H  H132  1  0.491800  0.114300  0.817200  1
  H  H133  1  0.041700  0.541900  0.397800  1
  H  H134  1  0.958300  0.458100  0.602200  1
  H  H135  1  0.436000  0.913300  0.133600  1
  H  H136  1  0.564000  0.086700  0.866400  1
  H  H137  1  0.967800  0.567100  0.347400  1
  H  H138  1  0.032200  0.432900  0.652600  1
  H  H139  1  0.360600  0.916100  0.154000  1
  H  H140  1  0.639400  0.083900  0.846000  1
  H  H141  1  0.876400  0.496900  0.274000  1
  H  H142  1  0.123600  0.503100  0.726000  1
  H  H143  1  0.622500  0.440400  0.275000  1.0
  H  H144  1  0.377500  0.559600  0.725000  1.0
  H  H145  1  0.535500  0.459700  0.244700  1.0
  H  H146  1  0.464500  0.540300  0.755300  1.0
  H  H147  1  0.493500  0.462000  0.160200  1.0
  H  H148  1  0.506500  0.538000  0.839800  1.0
  H  H149  1  0.536500  0.447900  0.112100  1.0
  H  H150  1  0.463500  0.552100  0.887900  1.0
  H  H151  1  0.705100  0.411000  0.296400  1.0
  H  H152  1  0.294900  0.589000  0.703600  1.0
  H  H153  1  0.786900  0.394700  0.286400  1.0
  H  H154  1  0.213100  0.605300  0.713600  1.0
  H  H155  1  0.815900  0.442800  0.196000  1.0
  H  H156  1  0.184100  0.557200  0.804000  1.0
  H  H157  1  0.768200  0.376200  0.162200  1.0
  H  H158  1  0.231800  0.623800  0.837800  1.0
  H  H159  1  0.735500  0.299100  0.166900  1.0
  H  H160  1  0.264500  0.700900  0.833100  1.0
  H  H161  1  0.710400  0.202900  0.156000  1.0
  H  H162  1  0.289600  0.797100  0.844000  1.0
  H  H163  1  0.786000  0.178100  0.204300  1.0
  H  H164  1  0.214000  0.821900  0.795700  1.0
  H  H165  1  0.886600  0.249600  0.263500  1.0
  H  H166  1  0.113400  0.750400  0.736500  1.0
  H  H167  1  0.039100  0.450600  0.348600  1.0
  H  H168  1  0.960900  0.549400  0.651400  1.0
  H  H169  1  0.063400  0.546800  0.359600  1.0
  H  H170  1  0.936600  0.453200  0.640400  1.0
  H  H171  1  0.987400  0.571100  0.311100  1.0
  H  H172  1  0.012600  0.428900  0.688900  1.0
  H  H173  1  0.887100  0.499100  0.251700  1.0
  H  H174  1  0.112900  0.500900  0.748300  1.0
  H  H175  1  0.154200  0.282400  0.275000  1.0
  H  H176  1  0.845800  0.717600  0.725000  1.0
  H  H177  1  0.206300  0.227800  0.293800  1.0
  H  H178  1  0.793700  0.772200  0.706200  1.0
  H  H179  1  0.192500  0.175500  0.346200  1.0
  H  H180  1  0.807500  0.824500  0.653800  1.0
  H  H181  1  0.118300  0.170600  0.368700  1.0
  H  H182  1  0.881700  0.829400  0.631300  1.0
  H  H183  1  0.082900  0.326900  0.245700  1.0
  H  H184  1  0.917100  0.673100  0.754300  1.0
  H  H185  1  0.013100  0.366400  0.253700  1.0
  H  H186  1  0.986900  0.633600  0.746300  1.0
  H  H187  1  0.006800  0.375300  0.357000  1.0
  H  H188  1  0.993200  0.624700  0.643000  1.0
  H  H189  1  0.957000  0.310100  0.334200  1.0
  H  H190  1  0.043000  0.689900  0.665800  1.0
  H  H191  1  0.686400  0.263400  0.043700  1.0
  H  H192  1  0.313600  0.736600  0.956300  1.0
  H  H193  1  0.753200  0.319300  0.018600  1.0
  H  H194  1  0.246800  0.680700  0.981400  1.0
  H  H195  1  0.780600  0.413800  0.037300  1.0
  H  H196  1  0.219400  0.586200  0.962700  1.0
  H  H197  1  0.736400  0.454300  0.074400  1.0
  H  H198  1  0.263600  0.545700  0.925600  1.0
  H  H199  1  0.613400  0.214300  0.073800  1.0
  H  H200  1  0.386600  0.785700  0.926200  1.0
  H  H201  1  0.533900  0.202800  0.099700  1.0
  H  H202  1  0.466100  0.797200  0.900300  1.0
  H  H203  1  0.487700  0.313100  0.091600  1.0
  H  H204  1  0.512300  0.686900  0.908400  1.0
  H  H205  1  0.532500  0.327200  0.151100  1.0
  H  H206  1  0.467500  0.672800  0.848900  1.0
  H  H207  1  0.560600  0.300300  0.210600  1.0
  H  H208  1  0.439400  0.699700  0.789400  1.0
  H  H209  1  0.574400  0.283200  0.282800  1.0
  H  H210  1  0.425600  0.716800  0.717200  1.0
  H  H211  1  0.499700  0.201300  0.281100  1.0
  H  H212  1  0.500300  0.798700  0.718900  1.0
  H  H213  1  0.405900  0.148800  0.210400  1.0
  H  H214  1  0.594100  0.851200  0.789600  1.0
  H  H215  1  0.276600  0.089900  0.018000  1.0
  H  H216  1  0.723400  0.910100  0.982000  1.0
  H  H217  1  0.267900  0.104200  0.943700  1.0
  H  H218  1  0.732100  0.895800  0.056300  1.0
  H  H219  1  0.342700  0.177600  0.943400  1.0
  H  H220  1  0.657300  0.822400  0.056600  1.0
  H  H221  1  0.430900  0.243600  0.020100  1.0
  H  H222  1  0.569100  0.756400  0.979900  1.0
  H  H223  1  0.280400  0.860400  0.040900  1.0
  H  H224  1  0.719600  0.139600  0.959100  1.0
  H  H225  1  0.201500  0.765400  0.016300  1.0
  H  H226  1  0.798500  0.234600  0.983700  1.0
  H  H227  1  0.123600  0.755700  0.035600  1.0
  H  H228  1  0.876400  0.244300  0.964400  1.0
  H  H229  1  0.118900  0.836900  0.073700  1.0
  H  H230  1  0.881100  0.163100  0.926300  1.0
  H  H231  1  0.361400  0.961500  0.074300  1.0
  H  H232  1  0.638600  0.038500  0.925700  1.0
  H  H233  1  0.397900  0.065200  0.098900  1.0
  H  H234  1  0.602100  0.934800  0.901100  1.0
  H  H235  1  0.319400  0.115000  0.148600  1.0
  H  H236  1  0.680600  0.885000  0.851400  1.0
  H  H237  1  0.276200  0.102400  0.089100  1.0
  H  H238  1  0.723800  0.897600  0.910900  1.0
  H  H239  1  0.676200  0.601200  0.081600  1.0
  H  H240  1  0.323800  0.398800  0.918400  1.0
  H  H241  1  0.773300  0.661800  0.154200  1.0
  H  H242  1  0.226700  0.338200  0.845800  1.0
  H  H243  1  0.823000  0.624500  0.212600  1.0
  H  H244  1  0.177000  0.375500  0.787400  1.0
  H  H245  1  0.775600  0.526600  0.198400  1.0
  H  H246  1  0.224400  0.473400  0.801600  1.0
  H  H247  1  0.579500  0.528800  0.004800  1.0
  H  H248  1  0.420500  0.471200  0.995200  1.0
  H  H249  1  0.488800  0.431900  0.948600  1.0
  H  H250  1  0.511200  0.568100  0.051400  1.0
  H  H251  1  0.461000  0.335600  0.997100  1.0
  H  H252  1  0.539000  0.664400  0.002900  1.0
  H  H253  1  0.519100  0.324800  0.004300  1.0
  H  H254  1  0.480900  0.675200  0.995700  1.0
  H  H255  1  0.586800  0.358100  0.976500  1.0
  H  H256  1  0.413200  0.641900  0.023500  1.0
  H  H257  1  0.646900  0.351000  0.940700  1.0
  H  H258  1  0.353100  0.649000  0.059300  1.0
  H  H259  1  0.600100  0.301600  0.850900  1.0
  H  H260  1  0.399900  0.698400  0.149100  1.0
  H  H261  1  0.497900  0.266800  0.799800  1.0
  H  H262  1  0.502100  0.733200  0.200200  1.0
  H  H263  1  0.287000  0.229000  0.775900  1.0
  H  H264  1  0.713000  0.771000  0.224100  1.0
  H  H265  1  0.227900  0.230800  0.810500  1.0
  H  H266  1  0.772100  0.769200  0.189500  1.0
  H  H267  1  0.268500  0.272800  0.899100  1.0
  H  H268  1  0.731500  0.727200  0.100900  1.0
  H  H269  1  0.376200  0.313900  0.953400  1.0
  H  H270  1  0.623800  0.686100  0.046600  1.0
  H  H271  1  0.352800  0.995100  0.683700  1.0
  H  H272  1  0.647200  0.004900  0.316300  1.0
  H  H273  1  0.341600  0.938600  0.608200  1.0
  H  H274  1  0.658400  0.061400  0.391800  1.0
  H  H275  1  0.352000  0.978600  0.549200  1.0
  H  H276  1  0.648000  0.021400  0.450800  1.0
  H  H277  1  0.359700  0.070500  0.556500  1.0
  H  H278  1  0.640300  0.929500  0.443500  1.0
  H  H279  1  0.354600  0.058600  0.755200  1.0
  H  H280  1  0.645400  0.941400  0.244800  1.0
  H  H281  1  0.358400  0.147700  0.803300  1.0
  H  H282  1  0.641600  0.852300  0.196700  1.0
  H  H283  1  0.344800  0.240000  0.747500  1.0
  H  H284  1  0.655200  0.760000  0.252500  1.0
  H  H285  1  0.413100  0.263100  0.755100  1.0
  H  H286  1  0.586900  0.736900  0.244900  1.0
  H  H287  1  0.811300  0.169400  0.318000  1.0
  H  H288  1  0.188700  0.830600  0.682000  1.0
  H  H289  1  0.826100  0.230700  0.390700  1.0
  H  H290  1  0.173900  0.769300  0.609300  1.0
  H  H291  1  0.928800  0.298600  0.454900  1.0
  H  H292  1  0.071200  0.701400  0.545100  1.0
  H  H293  1  0.009800  0.297100  0.444100  1.0
  H  H294  1  0.990200  0.702900  0.555900  1.0
  H  H295  1  0.802400  0.093800  0.249900  1.0
  H  H296  1  0.197600  0.906200  0.750100  1.0
  H  H297  1  0.843600  0.057200  0.195600  1.0
  H  H298  1  0.156400  0.942800  0.804400  1.0
  H  H299  1  0.006600  0.154000  0.245500  1.0
  H  H300  1  0.993400  0.846000  0.754500  1.0
  H  H301  1  0.990900  0.093200  0.252700  1.0
  H  H302  1  0.009100  0.906800  0.747300  1.0
  H  H303  1  0.965100  0.196000  0.203000  1.0
  H  H304  1  0.034900  0.804000  0.797000  1.0
  H  H305  1  0.950400  0.248300  0.151700  1.0
  H  H306  1  0.049600  0.751700  0.848300  1.0
  H  H307  1  0.908600  0.206200  0.063500  1.0
  H  H308  1  0.091400  0.793800  0.936500  1.0
  H  H309  1  0.879800  0.108600  0.024900  1.0
  H  H310  1  0.120200  0.891400  0.975100  1.0
  H  H311  1  0.855900  0.921300  0.048300  1.0
  H  H312  1  0.144100  0.078700  0.951700  1.0
  H  H313  1  0.876200  0.872100  0.102000  1.0
  H  H314  1  0.123800  0.127900  0.898000  1.0
  H  H315  1  0.919200  0.913800  0.189600  1.0
  H  H316  1  0.080800  0.086200  0.810400  1.0
  H  H317  1  0.946000  0.008700  0.225600  1.0
  H  H318  1  0.054000  0.991300  0.774400  1.0
  H  H319  1  0.180400  0.277100  0.549400  1.0
  H  H320  1  0.819600  0.722900  0.450600  1.0
  H  H321  1  0.237600  0.377800  0.572400  1.0
  H  H322  1  0.762400  0.622200  0.427600  1.0
  H  H323  1  0.207000  0.420300  0.510900  1.0
  H  H324  1  0.793000  0.579700  0.489100  1.0
  H  H325  1  0.122100  0.360300  0.427100  1.0
  H  H326  1  0.877900  0.639700  0.572900  1.0
  H  H327  1  0.115800  0.176800  0.522100  1.0
  H  H328  1  0.884200  0.823200  0.477900  1.0
  H  H329  1  0.030800  0.076600  0.456100  1.0
  H  H330  1  0.969200  0.923400  0.543900  1.0
  H  H331  1  0.988800  0.059800  0.336000  1.0
  H  H332  1  0.011200  0.940200  0.664000  1.0
  H  H333  1  0.947200  0.091900  0.333400  1.0
  H  H334  1  0.052800  0.908100  0.666600  1.0
  H  H335  1  0.926300  0.121700  0.396300  1.0
  H  H336  1  0.073700  0.878300  0.603700  1.0
  H  H337  1  0.868300  0.137100  0.432000  1.0
  H  H338  1  0.131700  0.862900  0.568000  1.0
  H  H339  1  0.786900  0.060800  0.429700  1.0
  H  H340  1  0.213100  0.939200  0.570300  1.0
  H  H341  1  0.771400  0.965800  0.396100  1.0
  H  H342  1  0.228600  0.034200  0.603900  1.0
  H  H343  1  0.830800  0.832100  0.318700  1.0
  H  H344  1  0.169200  0.167900  0.681300  1.0
  H  H345  1  0.889700  0.815600  0.285400  1.0
  H  H346  1  0.110300  0.184400  0.714600  1.0
  H  H347  1  0.967500  0.892000  0.284600  1.0
  H  H348  1  0.032500  0.108000  0.715400  1.0
  H  H349  1  0.985600  0.986000  0.321100  1.0
  H  H350  1  0.014400  0.014000  0.678900  1.0
  H  H351  1  0.235900  0.134400  0.451100  1.0
  H  H352  1  0.764100  0.865600  0.548900  1.0
  H  H353  1  0.313200  0.167700  0.429400  1.0
  H  H354  1  0.686800  0.832300  0.570600  1.0
  H  H355  1  0.417100  0.202900  0.491500  1.0
  H  H356  1  0.582900  0.797100  0.508500  1.0
  H  H357  1  0.443500  0.204700  0.575300  1.0
  H  H358  1  0.556500  0.795300  0.424700  1.0
  H  H359  1  0.160000  0.096100  0.480400  1.0
  H  H360  1  0.840000  0.903900  0.519600  1.0
  H  H361  1  0.125100  0.078500  0.545200  1.0
  H  H362  1  0.874900  0.921500  0.454800  1.0
  H  H363  1  0.227700  0.155700  0.665700  1.0
  H  H364  1  0.772300  0.844300  0.334300  1.0
  H  H365  1  0.262900  0.117000  0.668300  1.0
  H  H366  1  0.737100  0.883000  0.331700  1.0
  H  H367  1  0.513500  0.384100  0.725500  1.0
  H  H368  1  0.486500  0.615900  0.274500  1.0
  H  H369  1  0.437700  0.415300  0.702700  1.0
  H  H370  1  0.562300  0.584700  0.297300  1.0
  H  H371  1  0.334800  0.350700  0.656200  1.0
  H  H372  1  0.665200  0.649300  0.343800  1.0
  H  H373  1  0.306100  0.252700  0.629600  1.0
  H  H374  1  0.693900  0.747300  0.370400  1.0
  H  H375  1  0.586500  0.340900  0.755700  1.0
  H  H376  1  0.413500  0.659100  0.244300  1.0
  H  H377  1  0.618600  0.268100  0.754200  1.0
  H  H378  1  0.381400  0.731900  0.245800  1.0
  H  H379  1  0.520200  0.149800  0.645100  1.0
  H  H380  1  0.479800  0.850200  0.354900  1.0
  H  H381  1  0.483000  0.125300  0.673400  1.0
  H  H382  1  0.517000  0.874700  0.326600  1.0
  H  H383  1  0.329000  0.148400  0.273300  1.0
  H  H384  1  0.671000  0.851600  0.726700  1.0
  H  H385  1  0.281700  0.204700  0.243000  1.0
  H  H386  1  0.718300  0.795300  0.757000  1.0
  H  H387  1  0.196000  0.164300  0.157300  1.0
  H  H388  1  0.804000  0.835700  0.842700  1.0
  H  H389  1  0.161000  0.071200  0.110600  1.0
  H  H390  1  0.839000  0.928800  0.889400  1.0
  H  H391  1  0.378900  0.085300  0.297100  1.0
  H  H392  1  0.621100  0.914700  0.702900  1.0
  H  H393  1  0.384300  0.995600  0.287000  1.0
  H  H394  1  0.615700  0.004400  0.713000  1.0
  H  H395  1  0.282900  0.892100  0.158900  1.0
  H  H396  1  0.717100  0.107900  0.841100  1.0
  H  H397  1  0.246900  0.876200  0.190000  1.0
  H  H398  1  0.753100  0.123800  0.810000  1.0
  H  H399  1  0.247200  0.861000  0.250400  1.0
  H  H400  1  0.752800  0.139000  0.749600  1.0
  H  H401  1  0.236200  0.819200  0.310000  1.0
  H  H402  1  0.763800  0.180800  0.690000  1.0
  H  H403  1  0.310100  0.792200  0.357400  1.0
  H  H404  1  0.689900  0.207800  0.642600  1.0
  H  H405  1  0.394900  0.807000  0.345200  1.0
  H  H406  1  0.605100  0.193000  0.654800  1.0
  H  H407  1  0.510800  0.874100  0.259600  1.0
  H  H408  1  0.489200  0.125900  0.740400  1.0
  H  H409  1  0.521100  0.916200  0.200000  1.0
  H  H410  1  0.478900  0.083800  0.800000  1.0
  H  H411  1  0.447200  0.943600  0.153400  1.0
  H  H412  1  0.552800  0.056400  0.846600  1.0
  H  H413  1  0.362900  0.928800  0.166500  1.0
  H  H414  1  0.637100  0.071200  0.833500  1.0
  H  H415  1  0.980200  0.907000  0.078800  1.0
  H  H416  1  0.019800  0.093000  0.921200  1.0
  H  H417  1  0.981900  0.866300  0.139400  1.0
  H  H418  1  0.018100  0.133700  0.860600  1.0
  H  H419  1  0.085700  0.887400  0.208500  1.0
  H  H420  1  0.914300  0.112600  0.791500  1.0
  H  H421  1  0.164300  0.918800  0.191900  1.0
  H  H422  1  0.835700  0.081200  0.808100  1.0
  H  H423  1  0.975500  0.928600  0.002000  1.0
  H  H424  1  0.024500  0.071400  0.998000  1.0
  H  H425  1  0.018000  0.960700  0.947200  1.0
  H  H426  1  0.982000  0.039300  0.052800  1.0
  H  H427  1  0.821000  0.015900  0.997900  1.0
  H  H428  1  0.179000  0.984100  0.002100  1.0
  H  H429  1  0.838000  0.964400  0.004300  1.0
  H  H430  1  0.162000  0.035600  0.995700  1.0
  C  C431  1  0.422800  0.544100  0.112400  1
  C  C432  1  0.577200  0.455900  0.887600  1
  C  C433  1  0.068200  0.186600  0.115900  1
  C  C434  1  0.931800  0.813400  0.884100  1
  C  C435  1  0.343000  0.279800  0.335800  1
  C  C436  1  0.657000  0.720200  0.664200  1
  C  C437  1  0.113300  0.055800  0.219600  1
  C  C438  1  0.886700  0.944200  0.780400  1
  C  C439  1  0.211600  0.021600  0.272900  1
  C  C440  1  0.788400  0.978400  0.727100  1
  C  C441  1  0.338700  0.394400  0.779700  1
  C  C442  1  0.661300  0.605600  0.220300  1
  C  C443  1  0.254100  0.232000  0.985700  1
  C  C444  1  0.745900  0.768000  0.014300  1
  C  C445  1  0.083700  0.276400  0.852600  1
  C  C446  1  0.916300  0.723600  0.147400  1
  C  C447  1  0.235500  0.409800  0.993100  1
  C  C448  1  0.764500  0.590200  0.006900  1
  C  C449  1  0.084800  0.259300  0.996900  1
  C  C450  1  0.915200  0.740700  0.003100  1
  C  C451  1  0.991200  0.884100  0.440800  1
  C  C452  1  0.008800  0.115900  0.559200  1
  C  C453  1  0.766100  0.958900  0.149900  1
  C  C454  1  0.233900  0.041100  0.850100  1
  C  C455  1  0.743300  0.265600  0.863200  1
  C  C456  1  0.256700  0.734400  0.136800  1
  C  C457  1  0.694800  0.250300  0.879700  1
  C  C458  1  0.305200  0.749700  0.120300  1
  C  C459  1  0.760600  0.303700  0.801800  1
  C  C460  1  0.239400  0.696300  0.198200  1
  C  C461  1  0.739300  0.333500  0.764100  1
  C  C462  1  0.260700  0.666500  0.235900  1
  C  C463  1  0.298500  0.877200  0.287600  1
  C  C464  1  0.701500  0.122800  0.712400  1
  C  C465  1  0.775000  0.288200  0.177700  1
  C  C466  1  0.225000  0.711800  0.822300  1
  C  C467  1  0.297100  0.862600  0.329000  1
  C  C468  1  0.702900  0.137400  0.671000  1
  C  C469  1  0.764500  0.231500  0.163800  1
  C  C470  1  0.235500  0.768500  0.836200  1
  C  C471  1  0.340200  0.846200  0.358000  1
  C  C472  1  0.659800  0.153800  0.642000  1
  C  C473  1  0.808300  0.216300  0.193600  1
  C  C474  1  0.191700  0.783700  0.806400  1
  C  C475  1  0.384700  0.844500  0.345500  1
  C  C476  1  0.615300  0.155500  0.654500  1
  C  C477  1  0.862600  0.257800  0.237300  1
  C  C478  1  0.137400  0.742200  0.762700  1
  C  C479  1  0.386100  0.859100  0.304100  1
  C  C480  1  0.613900  0.140900  0.695900  1
  C  C481  1  0.873100  0.314500  0.251200  1
  C  C482  1  0.126900  0.685500  0.748800  1
  C  C483  1  0.343000  0.875400  0.275100  1
  C  C484  1  0.657000  0.124600  0.724900  1
  C  C485  1  0.829300  0.329700  0.221400  1
  C  C486  1  0.170700  0.670300  0.778600  1
  C  C487  1  0.475700  0.872100  0.232300  1
  C  C488  1  0.524300  0.127900  0.767700  1
  C  C489  1  0.994300  0.456800  0.354300  1
  C  C490  1  0.005700  0.543200  0.645700  1
  C  C491  1  0.477600  0.886800  0.191100  1
  C  C492  1  0.522400  0.113200  0.808900  1
  C  C493  1  0.004600  0.513400  0.368000  1
  C  C494  1  0.995400  0.486600  0.632000  1
  C  C495  1  0.434700  0.903200  0.161800  1
  C  C496  1  0.565300  0.096800  0.838200  1
  C  C497  1  0.960700  0.528400  0.338000  1
  C  C498  1  0.039300  0.471600  0.662000  1
  C  C499  1  0.389900  0.904900  0.173900  1
  C  C500  1  0.610100  0.095100  0.826100  1
  C  C501  1  0.906400  0.486700  0.294400  1
  C  C502  1  0.093600  0.513300  0.705600  1
  C  C503  1  0.388000  0.890100  0.215200  1
  C  C504  1  0.612000  0.109900  0.784800  1
  C  C505  1  0.896100  0.430000  0.280800  1
  C  C506  1  0.103900  0.570000  0.719200  1
  C  C507  1  0.430900  0.873800  0.244400  1
  C  C508  1  0.569100  0.126200  0.755600  1
  C  C509  1  0.940000  0.415100  0.310700  1
  C  C510  1  0.060000  0.584900  0.689300  1
  C  C511  1  0.345600  0.889600  0.232500  1
  C  C512  1  0.654400  0.110400  0.767500  1
  C  C513  1  0.840900  0.386800  0.236400  1
  C  C514  1  0.159100  0.613200  0.763600  1
  C  C515  1  0.428700  0.860100  0.286900  1
  C  C516  1  0.571300  0.139900  0.713100  1
  C  C517  1  0.926600  0.357300  0.295000  1
  C  C518  1  0.073400  0.642700  0.705000  1
  C  C519  1  0.628100  0.434600  0.210200  1.0
  C  C520  1  0.371900  0.565400  0.789800  1.0
  C  C521  1  0.604500  0.442400  0.241700  1.0
  C  C522  1  0.395500  0.557600  0.758300  1.0
  C  C523  1  0.553000  0.453400  0.223800  1.0
  C  C524  1  0.447000  0.546600  0.776200  1.0
  C  C525  1  0.528500  0.455000  0.173800  1.0
  C  C526  1  0.471500  0.545000  0.826200  1.0
  C  C527  1  0.554100  0.446500  0.145700  1.0
  C  C528  1  0.445900  0.553500  0.854300  1.0
  C  C529  1  0.683000  0.423300  0.225400  1.0
  C  C530  1  0.317000  0.576700  0.774600  1.0
  C  C531  1  0.713400  0.412200  0.268900  1.0
  C  C532  1  0.286600  0.587800  0.731100  1.0
  C  C533  1  0.757500  0.403400  0.263000  1.0
  C  C534  1  0.242500  0.596600  0.737000  1.0
  C  C535  1  0.793100  0.405300  0.197400  1.0
  C  C536  1  0.206900  0.594700  0.802600  1.0
  C  C537  1  0.766100  0.289100  0.186500  1.0
  C  C538  1  0.233900  0.710900  0.813500  1.0
  C  C539  1  0.751300  0.231900  0.180000  1.0
  C  C540  1  0.248700  0.768100  0.820000  1.0
  C  C541  1  0.796200  0.217190  0.208700  1.0
  C  C542  1  0.203800  0.782810  0.791300  1.0
  C  C543  1  0.855900  0.259670  0.243900  1.0
  C  C544  1  0.144100  0.740330  0.756100  1.0
  C  C545  1  0.870800  0.316860  0.250360  1.0
  C  C546  1  0.129200  0.683140  0.749640  1.0
  C  C547  1  0.825910  0.331570  0.221670  1.0
  C  C548  1  0.174090  0.668430  0.778330  1.0
  C  C549  1  0.008200  0.460500  0.328900  1.0
  C  C550  1  0.991800  0.539500  0.671100  1.0
  C  C551  1  0.022600  0.517600  0.335500  1.0
  C  C552  1  0.977400  0.482400  0.664500  1.0
  C  C553  1  0.977500  0.532010  0.306700  1.0
  C  C554  1  0.022500  0.467990  0.693300  1.0
  C  C555  1  0.917900  0.489290  0.271400  1.0
  C  C556  1  0.082100  0.510710  0.728600  1.0
  C  C557  1  0.903500  0.432150  0.264840  1.0
  C  C558  1  0.096500  0.567850  0.735160  1.0
  C  C559  1  0.948610  0.417740  0.293620  1.0
  C  C560  1  0.051390  0.582260  0.706380  1.0
  C  C561  1  0.842400  0.389400  0.228600  1.0
  C  C562  1  0.157600  0.610600  0.771400  1.0
  C  C563  1  0.932800  0.359400  0.286800  1.0
  C  C564  1  0.067200  0.640600  0.713200  1.0
  C  C565  1  0.107700  0.259400  0.313400  1.0
  C  C566  1  0.892300  0.740600  0.686600  1.0
  C  C567  1  0.148000  0.259800  0.295300  1.0
  C  C568  1  0.852000  0.740200  0.704700  1.0
  C  C569  1  0.178900  0.228000  0.306400  1.0
  C  C570  1  0.821100  0.772000  0.693600  1.0
  C  C571  1  0.169800  0.196400  0.336100  1.0
  C  C572  1  0.830200  0.803600  0.663900  1.0
  C  C573  1  0.127100  0.195400  0.350800  1.0
  C  C574  1  0.872900  0.804600  0.649200  1.0
  C  C575  1  0.073600  0.292000  0.300500  1.0
  C  C576  1  0.926400  0.708000  0.699500  1.0
  C  C577  1  0.065200  0.322000  0.267200  1.0
  C  C578  1  0.934800  0.678000  0.732800  1.0
  C  C579  1  0.026400  0.343200  0.271500  1.0
  C  C580  1  0.973600  0.656800  0.728500  1.0
  C  C581  1  0.976300  0.342100  0.324500  1.0
  C  C582  1  0.023700  0.657900  0.675500  1.0
  C  C583  1  0.667900  0.327200  0.069200  1.0
  C  C584  1  0.332100  0.672800  0.930800  1.0
  C  C585  1  0.695200  0.302300  0.048600  1.0
  C  C586  1  0.304800  0.697700  0.951400  1.0
  C  C587  1  0.736300  0.336200  0.035200  1.0
  C  C588  1  0.263700  0.663800  0.964800  1.0
  C  C589  1  0.751600  0.390800  0.045300  1.0
  C  C590  1  0.248400  0.609200  0.954700  1.0
  C  C591  1  0.725000  0.414600  0.067700  1.0
  C  C592  1  0.275000  0.585400  0.932300  1.0
  C  C593  1  0.621700  0.296900  0.081400  1.0
  C  C594  1  0.378300  0.703100  0.918600  1.0
  C  C595  1  0.600500  0.242100  0.081700  1.0
  C  C596  1  0.399500  0.757900  0.918300  1.0
  C  C597  1  0.557200  0.236200  0.095800  1.0
  C  C598  1  0.442800  0.763800  0.904200  1.0
  C  C599  1  0.508900  0.297400  0.116300  1.0
  C  C600  1  0.491100  0.702600  0.883700  1.0
  C  C601  1  0.528100  0.269000  0.209100  1.0
  C  C602  1  0.471900  0.731000  0.790900  1.0
  C  C603  1  0.537100  0.258500  0.251500  1.0
  C  C604  1  0.462900  0.741500  0.748500  1.0
  C  C605  1  0.491200  0.210500  0.250900  1.0
  C  C606  1  0.508800  0.789500  0.749100  1.0
  C  C607  1  0.437000  0.178500  0.208800  1.0
  C  C608  1  0.563000  0.821500  0.791200  1.0
  C  C609  1  0.423000  0.187000  0.159600  1.0
  C  C610  1  0.577000  0.813000  0.840400  1.0
  C  C611  1  0.471500  0.235600  0.159900  1.0
  C  C612  1  0.528500  0.764400  0.840100  1.0
  C  C613  1  0.308600  0.121700  0.019400  1.0
  C  C614  1  0.691400  0.878300  0.980600  1.0
  C  C615  1  0.303800  0.130200  0.975500  1.0
  C  C616  1  0.696200  0.869800  0.024500  1.0
  C  C617  1  0.347600  0.173500  0.975200  1.0
  C  C618  1  0.652400  0.826500  0.024800  1.0
  C  C619  1  0.400000  0.212700  0.020800  1.0
  C  C620  1  0.600000  0.787300  0.979200  1.0
  C  C621  1  0.408000  0.207400  0.067900  1.0
  C  C622  1  0.592000  0.792600  0.932100  1.0
  C  C623  1  0.361100  0.160100  0.067200  1.0
  C  C624  1  0.638900  0.839900  0.932800  1.0
  C  C625  1  0.461500  0.245700  0.115100  1.0
  C  C626  1  0.538500  0.754300  0.884900  1.0
  C  C627  1  0.368900  0.152800  0.115000  1.0
  C  C628  1  0.631100  0.847200  0.885000  1.0
  C  C629  1  0.240600  0.899800  0.066100  1.0
  C  C630  1  0.759400  0.100200  0.933900  1.0
  C  C631  1  0.246300  0.855000  0.046100  1.0
  C  C632  1  0.753700  0.145000  0.953900  1.0
  C  C633  1  0.200000  0.798200  0.032500  1.0
  C  C634  1  0.800000  0.201800  0.967500  1.0
  C  C635  1  0.154100  0.792800  0.043500  1.0
  C  C636  1  0.845900  0.207200  0.956500  1.0
  C  C637  1  0.151300  0.841300  0.066200  1.0
  C  C638  1  0.848700  0.158700  0.933800  1.0
  C  C639  1  0.284300  0.960000  0.079000  1.0
  C  C640  1  0.715700  0.040000  0.921000  1.0
  C  C641  1  0.340800  0.982200  0.081100  1.0
  C  C642  1  0.659200  0.017800  0.918900  1.0
  C  C643  1  0.360300  0.037800  0.094400  1.0
  C  C644  1  0.639700  0.962200  0.905600  1.0
  C  C645  1  0.315900  0.105200  0.114200  1.0
  C  C646  1  0.684100  0.894800  0.885800  1.0
  C  C647  1  0.668270  0.527950  0.096870  1.0
  C  C648  1  0.331730  0.472050  0.903130  1.0
  C  C649  1  0.696400  0.586080  0.105300  1.0
  C  C650  1  0.303600  0.413920  0.894700  1.0
  C  C651  1  0.754100  0.622060  0.148400  1.0
  C  C652  1  0.245900  0.377940  0.851600  1.0
  C  C653  1  0.783590  0.599910  0.183100  1.0
  C  C654  1  0.216410  0.400090  0.816900  1.0
  C  C655  1  0.755400  0.541780  0.174660  1.0
  C  C656  1  0.244600  0.458220  0.825340  1.0
  C  C657  1  0.609700  0.487800  0.054600  1.0
  C  C658  1  0.390300  0.512200  0.945400  1.0
  C  C659  1  0.572600  0.494400  0.011900  1.0
  C  C660  1  0.427400  0.505600  0.988100  1.0
  C  C661  1  0.523100  0.441300  0.981100  1.0
  C  C662  1  0.476900  0.558700  0.018900  1.0
  C  C663  1  0.493500  0.342800  0.987400  1.0
  C  C664  1  0.506500  0.657200  0.012600  1.0
  C  C665  1  0.568000  0.338700  0.940500  1.0
  C  C666  1  0.432000  0.661300  0.059500  1.0
  C  C667  1  0.603300  0.334600  0.919500  1.0
  C  C668  1  0.396700  0.665400  0.080500  1.0
  C  C669  1  0.575300  0.305600  0.865400  1.0
  C  C670  1  0.424700  0.694400  0.134600  1.0
  C  C671  1  0.515400  0.284500  0.835800  1.0
  C  C672  1  0.484600  0.715500  0.164200  1.0
  C  C673  1  0.475300  0.286900  0.855100  1.0
  C  C674  1  0.524700  0.713100  0.144900  1.0
  C  C675  1  0.503300  0.314400  0.909400  1.0
  C  C676  1  0.496700  0.685600  0.090600  1.0
  C  C677  1  0.306000  0.245200  0.812200  1.0
  C  C678  1  0.694000  0.754800  0.187800  1.0
  C  C679  1  0.271300  0.247100  0.832700  1.0
  C  C680  1  0.728700  0.752900  0.167300  1.0
  C  C681  1  0.294900  0.272000  0.885500  1.0
  C  C682  1  0.705100  0.728000  0.114500  1.0
  C  C683  1  0.359200  0.295700  0.917600  1.0
  C  C684  1  0.640800  0.704300  0.082400  1.0
  C  C685  1  0.401000  0.293500  0.898400  1.0
  C  C686  1  0.599000  0.706500  0.101600  1.0
  C  C687  1  0.373300  0.267300  0.843800  1.0
  C  C688  1  0.626700  0.732700  0.156200  1.0
  C  C689  1  0.463500  0.315400  0.930100  1.0
  C  C690  1  0.536500  0.684600  0.069900  1.0
  C  C691  1  0.412300  0.265600  0.823200  1.0
  C  C692  1  0.587700  0.734400  0.176800  1.0
  C  C693  1  0.360100  0.065700  0.661800  1.0
  C  C694  1  0.639900  0.934300  0.338200  1.0
  C  C695  1  0.353600  0.009900  0.657500  1.0
  C  C696  1  0.646400  0.990100  0.342500  1.0
  C  C697  1  0.348300  0.977100  0.613300  1.0
  C  C698  1  0.651700  0.022900  0.386700  1.0
  C  C699  1  0.352900  0.000300  0.577900  1.0
  C  C700  1  0.647100  0.999700  0.422100  1.0
  C  C701  1  0.358800  0.055700  0.582700  1.0
  C  C702  1  0.641200  0.944300  0.417300  1.0
  C  C703  1  0.364600  0.102900  0.704400  1.0
  C  C704  1  0.635400  0.897100  0.295600  1.0
  C  C705  1  0.359600  0.092300  0.747100  1.0
  C  C706  1  0.640400  0.907700  0.252900  1.0
  C  C707  1  0.363500  0.141600  0.774000  1.0
  C  C708  1  0.636500  0.858400  0.226000  1.0
  C  C709  1  0.385000  0.239600  0.765500  1.0
  C  C710  1  0.615000  0.760400  0.234500  1.0
  C  C711  1  0.903600  0.197400  0.341900  1.0
  C  C712  1  0.096400  0.802600  0.658100  1.0
  C  C713  1  0.851900  0.195800  0.345100  1.0
  C  C714  1  0.148100  0.804200  0.654900  1.0
  C  C715  1  0.860400  0.232000  0.387000  1.0
  C  C716  1  0.139600  0.768000  0.613000  1.0
  C  C717  1  0.921000  0.271700  0.425200  1.0
  C  C718  1  0.079000  0.728300  0.574800  1.0
  C  C719  1  0.968600  0.270500  0.418300  1.0
  C  C720  1  0.031400  0.729500  0.581700  1.0
  C  C721  1  0.897100  0.157400  0.297000  1.0
  C  C722  1  0.102900  0.842600  0.703000  1.0
  C  C723  1  0.843700  0.108900  0.256100  1.0
  C  C724  1  0.156300  0.891100  0.743900  1.0
  C  C725  1  0.866800  0.088800  0.227100  1.0
  C  C726  1  0.133200  0.911200  0.772900  1.0
  C  C727  1  0.972600  0.115800  0.235300  1.0
  C  C728  1  0.027400  0.884200  0.764700  1.0
  C  C729  1  0.947400  0.178000  0.167000  1.0
  C  C730  1  0.052600  0.822000  0.833000  1.0
  C  C731  1  0.939100  0.209000  0.137100  1.0
  C  C732  1  0.060900  0.791000  0.862900  1.0
  C  C733  1  0.913900  0.183500  0.084400  1.0
  C  C734  1  0.086100  0.816500  0.915600  1.0
  C  C735  1  0.895700  0.125100  0.060800  1.0
  C  C736  1  0.104300  0.874900  0.939200  1.0
  C  C737  1  0.902300  0.092100  0.093100  1.0
  C  C738  1  0.097700  0.907900  0.906900  1.0
  C  C739  1  0.930800  0.118600  0.147000  1.0
  C  C740  1  0.069200  0.881400  0.853000  1.0
  C  C741  1  0.875900  0.940800  0.084300  1.0
  C  C742  1  0.124100  0.059200  0.915700  1.0
  C  C743  1  0.886900  0.911300  0.116200  1.0
  C  C744  1  0.113100  0.088700  0.883800  1.0
  C  C745  1  0.912800  0.936000  0.168300  1.0
  C  C746  1  0.087200  0.064000  0.831700  1.0
  C  C747  1  0.929400  0.992200  0.189500  1.0
  C  C748  1  0.070600  0.007800  0.810500  1.0
  C  C749  1  0.922300  0.027100  0.158400  1.0
  C  C750  1  0.077700  0.972900  0.841600  1.0
  C  C751  1  0.893500  0.999800  0.103100  1.0
  C  C752  1  0.106500  0.000200  0.896900  1.0
  C  C753  1  0.941700  0.087300  0.180000  1.0
  C  C754  1  0.058300  0.912700  0.820000  1.0
  C  C755  1  0.883900  0.032100  0.071300  1.0
  C  C756  1  0.116100  0.967900  0.928700  1.0
  C  C757  1  0.119300  0.263800  0.475800  1.0
  C  C758  1  0.880700  0.736200  0.524200  1.0
  C  C759  1  0.169300  0.295200  0.525200  1.0
  C  C760  1  0.830700  0.704800  0.474800  1.0
  C  C761  1  0.203300  0.355100  0.538800  1.0
  C  C762  1  0.796700  0.644900  0.461200  1.0
  C  C763  1  0.185800  0.380200  0.502500  1.0
  C  C764  1  0.814200  0.619800  0.497500  1.0
  C  C765  1  0.135200  0.343900  0.452400  1.0
  C  C766  1  0.864800  0.656100  0.547600  1.0
  C  C767  1  0.087200  0.203000  0.457800  1.0
  C  C768  1  0.912800  0.797000  0.542200  1.0
  C  C769  1  0.089300  0.166800  0.486300  1.0
  C  C770  1  0.910700  0.833200  0.513700  1.0
  C  C771  1  0.042700  0.111300  0.449500  1.0
  C  C772  1  0.957300  0.888700  0.550500  1.0
  C  C773  1  0.970000  0.074000  0.354100  1.0
  C  C774  1  0.030000  0.926000  0.645900  1.0
  C  C775  1  0.896100  0.090100  0.396800  1.0
  C  C776  1  0.103900  0.909900  0.603200  1.0
  C  C777  1  0.860200  0.098800  0.417100  1.0
  C  C778  1  0.139800  0.901200  0.582900  1.0
  C  C779  1  0.812000  0.053600  0.416800  1.0
  C  C780  1  0.188000  0.946400  0.583200  1.0
  C  C781  1  0.802800  0.996900  0.396400  1.0
  C  C782  1  0.197200  0.003100  0.603600  1.0
  C  C783  1  0.839000  0.985800  0.376500  1.0
  C  C784  1  0.161000  0.014200  0.623500  1.0
  C  C785  1  0.887900  0.034100  0.377100  1.0
  C  C786  1  0.112100  0.965900  0.622900  1.0
  C  C787  1  0.861100  0.863600  0.318200  1.0
  C  C788  1  0.138900  0.136400  0.681800  1.0
  C  C789  1  0.896700  0.853700  0.298900  1.0
  C  C790  1  0.103300  0.146300  0.701100  1.0
  C  C791  1  0.943300  0.898900  0.298500  1.0
  C  C792  1  0.056700  0.101100  0.701500  1.0
  C  C793  1  0.952700  0.955000  0.319500  1.0
  C  C794  1  0.047300  0.045000  0.680500  1.0
  C  C795  1  0.916400  0.967400  0.338300  1.0
  C  C796  1  0.083600  0.032600  0.661700  1.0
  C  C797  1  0.868000  0.919500  0.337600  1.0
  C  C798  1  0.132000  0.080500  0.662400  1.0
  C  C799  1  0.924400  0.023500  0.357100  1.0
  C  C800  1  0.075600  0.976500  0.642900  1.0
  C  C801  1  0.293700  0.149800  0.526130  1.0
  C  C802  1  0.706300  0.850200  0.473870  1.0
  C  C803  1  0.278000  0.148700  0.476340  1.0
  C  C804  1  0.722000  0.851300  0.523660  1.0
  C  C805  1  0.324000  0.168500  0.463420  1.0
  C  C806  1  0.676000  0.831500  0.536580  1.0
  C  C807  1  0.385600  0.189300  0.500300  1.0
  C  C808  1  0.614400  0.810700  0.499700  1.0
  C  C809  1  0.401300  0.190500  0.550100  1.0
  C  C810  1  0.598700  0.809500  0.449900  1.0
  C  C811  1  0.249900  0.133000  0.544400  1.0
  C  C812  1  0.750100  0.867000  0.455600  1.0
  C  C813  1  0.185500  0.106000  0.516200  1.0
  C  C814  1  0.814500  0.894000  0.483800  1.0
  C  C815  1  0.166500  0.096700  0.552000  1.0
  C  C816  1  0.833500  0.903300  0.448000  1.0
  C  C817  1  0.224200  0.119000  0.647500  1.0
  C  C818  1  0.775800  0.881000  0.352500  1.0
  C  C819  1  0.830000  0.930500  0.356200  1.0
  C  C820  1  0.170000  0.069500  0.643800  1.0
  C  C821  1  0.452200  0.299800  0.690300  1.0
  C  C822  1  0.547800  0.700200  0.309700  1.0
  C  C823  1  0.470900  0.357400  0.705900  1.0
  C  C824  1  0.529100  0.642600  0.294100  1.0
  C  C825  1  0.425900  0.375400  0.692400  1.0
  C  C826  1  0.574100  0.624600  0.307600  1.0
  C  C827  1  0.365500  0.337700  0.664900  1.0
  C  C828  1  0.634500  0.662300  0.335100  1.0
  C  C829  1  0.348700  0.279500  0.649400  1.0
  C  C830  1  0.651300  0.720500  0.350600  1.0
  C  C831  1  0.496900  0.276400  0.701300  1.0
  C  C832  1  0.503100  0.723600  0.298700  1.0
  C  C833  1  0.560500  0.301400  0.735300  1.0
  C  C834  1  0.439500  0.698600  0.264700  1.0
  C  C835  1  0.577700  0.262600  0.734100  1.0
  C  C836  1  0.422300  0.737400  0.265900  1.0
  C  C837  1  0.521900  0.155200  0.678800  1.0
  C  C838  1  0.478100  0.844800  0.321200  1.0
  C  C839  1  0.271600  0.077700  0.207600  1.0
  C  C840  1  0.728400  0.922300  0.792400  1.0
  C  C841  1  0.294600  0.133400  0.239600  1.0
  C  C842  1  0.705400  0.866600  0.760400  1.0
  C  C843  1  0.266900  0.166500  0.221800  1.0
  C  C844  1  0.733100  0.833500  0.778200  1.0
  C  C845  1  0.215800  0.142600  0.171300  1.0
  C  C846  1  0.784200  0.857400  0.828700  1.0
  C  C847  1  0.196600  0.088100  0.143900  1.0
  C  C848  1  0.803400  0.911900  0.856100  1.0
  C  C849  1  0.299100  0.040000  0.224100  1.0
  C  C850  1  0.700900  0.960000  0.775900  1.0
  C  C851  1  0.351100  0.050400  0.268500  1.0
  C  C852  1  0.648900  0.949600  0.731500  1.0
  C  C853  1  0.353300  0.002000  0.262600  1.0
  C  C854  1  0.646700  0.998000  0.737400  1.0
  C  C855  1  0.287500  0.899800  0.193700  1.0
  C  C856  1  0.712500  0.100200  0.806300  1.0
  C  C857  1  0.277200  0.850000  0.269700  1.0
  C  C858  1  0.722800  0.150000  0.730300  1.0
  C  C859  1  0.270700  0.825200  0.305100  1.0
  C  C860  1  0.729300  0.174800  0.694900  1.0
  C  C861  1  0.314600  0.809200  0.333200  1.0
  C  C862  1  0.685400  0.190800  0.666800  1.0
  C  C863  1  0.365000  0.818000  0.325900  1.0
  C  C864  1  0.635000  0.182000  0.674100  1.0
  C  C865  1  0.371400  0.842800  0.290500  1.0
  C  C866  1  0.628600  0.157200  0.709500  1.0
  C  C867  1  0.327600  0.858800  0.262400  1.0
  C  C868  1  0.672400  0.141200  0.737600  1.0
  C  C869  1  0.480800  0.885200  0.240700  1.0
  C  C870  1  0.519200  0.114800  0.759300  1.0
  C  C871  1  0.486900  0.910200  0.205300  1.0
  C  C872  1  0.513100  0.089800  0.794700  1.0
  C  C873  1  0.443000  0.926500  0.177600  1.0
  C  C874  1  0.557000  0.073500  0.822400  1.0
  C  C875  1  0.392900  0.917700  0.185400  1.0
  C  C876  1  0.607100  0.082300  0.814600  1.0
  C  C877  1  0.386800  0.892700  0.220800  1.0
  C  C878  1  0.613200  0.107300  0.779200  1.0
  C  C879  1  0.430700  0.876500  0.248400  1.0
  C  C880  1  0.569300  0.123500  0.751600  1.0
  C  C881  1  0.334200  0.882800  0.225700  1.0
  C  C882  1  0.665800  0.117200  0.774300  1.0
  C  C883  1  0.576300  0.149200  0.715600  1.0
  C  C884  1  0.423700  0.850800  0.284400  1.0
  C  C885  1  0.068500  0.927100  0.095700  1.0
  C  C886  1  0.931500  0.072900  0.904300  1.0
  C  C887  1  0.017000  0.906400  0.101600  1.0
  C  C888  1  0.983000  0.093600  0.898400  1.0
  C  C889  1  0.018500  0.886100  0.138200  1.0
  C  C890  1  0.981500  0.113900  0.861800  1.0
  C  C891  1  0.079800  0.895400  0.177900  1.0
  C  C892  1  0.920200  0.104600  0.822100  1.0
  C  C893  1  0.125600  0.915500  0.168200  1.0
  C  C894  1  0.874400  0.084500  0.831800  1.0
  C  C895  1  0.064700  0.943500  0.052000  1.0
  C  C896  1  0.935300  0.056500  0.948000  1.0
  C  C897  1  0.017100  0.940800  0.009400  1.0
  C  C898  1  0.982900  0.059200  0.990600  1.0
  C  C899  1  0.040600  0.958700  0.979800  1.0
  C  C900  1  0.959400  0.041300  0.020200  1.0
  C  C901  1  0.855500  0.006600  0.014600  1.0
  C  C902  1  0.144500  0.993400  0.985400  1.0
  N  N903  1  0.422100  0.544300  0.158100  1
  N  N904  1  0.577900  0.455700  0.841900  1
  N  N905  1  0.114200  0.234200  0.160700  1
  N  N906  1  0.885800  0.765800  0.839300  1
  N  N907  1  0.350200  0.250800  0.371600  1
  N  N908  1  0.649800  0.749200  0.628400  1
  N  N909  1  0.079100  0.075500  0.182100  1
  N  N910  1  0.920900  0.924500  0.817900  1
  N  N911  1  0.249200  0.013900  0.313300  1
  N  N912  1  0.750800  0.986100  0.686700  1
  N  N913  1  0.397200  0.398000  0.817200  1
  N  N914  1  0.602800  0.602000  0.182800  1
  N  N915  1  0.219400  0.264500  0.983200  1
  N  N916  1  0.780600  0.735500  0.016800  1
  N  N917  1  0.094400  0.234200  0.828200  1
  N  N918  1  0.905600  0.765800  0.171800  1
  N  N919  1  0.243400  0.456800  0.975100  1
  N  N920  1  0.756600  0.543200  0.024900  1
  N  N921  1  0.019500  0.233900  0.978800  1
  N  N922  1  0.980500  0.766100  0.021200  1
  N  N923  1  0.006400  0.942100  0.451100  1
  N  N924  1  0.993600  0.057900  0.548900  1
  N  N925  1  0.745700  0.927200  0.175300  1
  N  N926  1  0.254300  0.072800  0.824700  1
  N  N927  1  0.603700  0.436110  0.161780  1.0
  N  N928  1  0.396300  0.563890  0.838220  1.0
  N  N929  1  0.753400  0.408700  0.219500  1.0
  N  N930  1  0.246600  0.591300  0.780500  1.0
  N  N931  1  0.707900  0.420900  0.195040  1.0
  N  N932  1  0.292100  0.579100  0.804960  1.0
  N  N933  1  0.096700  0.227400  0.341600  1.0
  N  N934  1  0.903300  0.772600  0.658400  1.0
  N  N935  1  0.010900  0.326100  0.304000  1.0
  N  N936  1  0.989100  0.673900  0.696000  1.0
  N  N937  1  0.040900  0.294100  0.323100  1.0
  N  N938  1  0.959100  0.705900  0.676900  1.0
  N  N939  1  0.684600  0.385400  0.080530  1.0
  N  N940  1  0.315400  0.614600  0.919470  1.0
  N  N941  1  0.552500  0.284510  0.103210  1.0
  N  N942  1  0.447500  0.715490  0.896790  1.0
  N  N943  1  0.592100  0.323710  0.095240  1.0
  N  N944  1  0.407900  0.676290  0.904760  1.0
  N  N945  1  0.194500  0.894700  0.077600  1.0
  N  N946  1  0.805500  0.105300  0.922400  1.0
  N  N947  1  0.315900  0.049500  0.100600  1.0
  N  N948  1  0.684100  0.950500  0.899400  1.0
  N  N949  1  0.269900  0.001250  0.092380  1.0
  N  N950  1  0.730100  0.998750  0.907620  1.0
  N  N951  1  0.697780  0.505800  0.131550  1.0
  N  N952  1  0.302220  0.494200  0.868450  1.0
  N  N953  1  0.532500  0.404600  0.006190  1.0
  N  N954  1  0.467500  0.595400  0.993810  1.0
  N  N955  1  0.586200  0.431300  0.050120  1.0
  N  N956  1  0.413800  0.568700  0.949880  1.0
  N  N957  1  0.363300  0.087700  0.624600  1.0
  N  N958  1  0.636700  0.912300  0.375400  1.0
  N  N959  1  0.376200  0.180900  0.750300  1.0
  N  N960  1  0.623800  0.819100  0.249700  1.0
  N  N961  1  0.375000  0.156400  0.707160  1.0
  N  N962  1  0.625000  0.843600  0.292840  1.0
  N  N963  1  0.959900  0.235100  0.378600  1.0
  N  N964  1  0.040100  0.764900  0.621400  1.0
  N  N965  1  0.928800  0.123000  0.252600  1.0
  N  N966  1  0.071200  0.877000  0.747400  1.0
  N  N967  1  0.946700  0.164600  0.294200  1.0
  N  N968  1  0.053300  0.835400  0.705800  1.0
  N  N969  1  0.106400  0.288600  0.440300  1.0
  N  N970  1  0.893600  0.711400  0.559700  1.0
  N  N971  1  0.018900  0.117400  0.403900  1.0
  N  N972  1  0.981100  0.882600  0.596100  1.0
  N  N973  1  0.042800  0.173600  0.408300  1.0
  N  N974  1  0.957200  0.826400  0.591700  1.0
  N  N975  1  0.355400  0.170700  0.562990  1.0
  N  N976  1  0.644600  0.829300  0.437010  1.0
  N  N977  1  0.218100  0.118500  0.598100  1.0
  N  N978  1  0.781900  0.881500  0.401900  1.0
  N  N979  1  0.270500  0.138500  0.593870  1.0
  N  N980  1  0.729500  0.861500  0.406130  1.0
  N  N981  1  0.391600  0.260300  0.661800  1.0
  N  N982  1  0.608400  0.739700  0.338200  1.0
  N  N983  1  0.527600  0.211100  0.699200  1.0
  N  N984  1  0.472400  0.788900  0.300800  1.0
  N  N985  1  0.474600  0.221100  0.678600  1.0
  N  N986  1  0.525400  0.778900  0.321400  1.0
  N  N987  1  0.223700  0.056100  0.160000  1.0
  N  N988  1  0.776300  0.943900  0.840000  1.0
  N  N989  1  0.305900  0.962000  0.217200  1.0
  N  N990  1  0.694100  0.038000  0.782800  1.0
  N  N991  1  0.270000  0.984100  0.192000  1.0
  N  N992  1  0.730000  0.015900  0.808000  1.0
  N  N993  1  0.122500  0.931400  0.128500  1.0
  N  N994  1  0.877500  0.068600  0.871500  1.0
  N  N995  1  0.100700  0.972960  0.003780  1.0
  N  N996  1  0.899300  0.027040  0.996220  1.0
  N  N997  1  0.118300  0.963500  0.047500  1.0
  N  N998  1  0.881700  0.036500  0.952500  1.0
  O  O999  1  0.450100  0.525400  0.187200  1
  O  O1000  1  0.549900  0.474600  0.812800  1
  O  O1001  1  0.398100  0.571000  0.173600  1
  O  O1002  1  0.601900  0.429000  0.826400  1
  O  O1003  1  0.161800  0.236100  0.190200  1
  O  O1004  1  0.838200  0.763900  0.809800  1
  O  O1005  1  0.103300  0.275300  0.174000  1
  O  O1006  1  0.896700  0.724700  0.826000  1
  O  O1007  1  0.389400  0.281100  0.415700  1
  O  O1008  1  0.610600  0.718900  0.584300  1
  O  O1009  1  0.307000  0.203700  0.354800  1
  O  O1010  1  0.693000  0.796300  0.645200  1
  O  O1011  1  0.057800  0.049000  0.138100  1
  O  O1012  1  0.942200  0.951000  0.861900  1
  O  O1013  1  0.074900  0.117400  0.198400  1
  O  O1014  1  0.925100  0.882600  0.801600  1
  O  O1015  1  0.237200  0.966000  0.312300  1
  O  O1016  1  0.762800  0.034000  0.687700  1
  O  O1017  1  0.289000  0.058000  0.354400  1
  O  O1018  1  0.711000  0.942000  0.645600  1
  O  O1019  1  0.422700  0.378800  0.801900  1
  O  O1020  1  0.577300  0.621200  0.198100  1
  O  O1021  1  0.413400  0.420100  0.862700  1
  O  O1022  1  0.586600  0.579900  0.137300  1
  O  O1023  1  0.182500  0.257200  0.940000  1
  O  O1024  1  0.817500  0.742800  0.060000  1
  O  O1025  1  0.227900  0.294810  0.021590  1
  O  O1026  1  0.772100  0.705190  0.978410  1
  O  O1027  1  0.062700  0.185600  0.815500  1
  O  O1028  1  0.937300  0.814400  0.184500  1
  O  O1029  1  0.136300  0.248300  0.820400  1
  O  O1030  1  0.863700  0.751700  0.179600  1
  O  O1031  1  0.208100  0.445000  0.930100  1
  O  O1032  1  0.791900  0.555000  0.069900  1
  O  O1033  1  0.291100  0.501700  0.002200  1
  O  O1034  1  0.708900  0.498300  0.997800  1
  O  O1035  1  0.001900  0.211100  0.003500  1
  O  O1036  1  0.998100  0.788900  0.996500  1
  O  O1037  1  0.986400  0.225800  0.933300  1
  O  O1038  1  0.013600  0.774200  0.066700  1
  O  O1039  1  0.967300  0.954200  0.452400  1
  O  O1040  1  0.032700  0.045800  0.547600  1
  O  O1041  1  0.050300  0.975400  0.454000  1
  O  O1042  1  0.949700  0.024600  0.546000  1
  O  O1043  1  0.692800  0.884300  0.150800  1
  O  O1044  1  0.307200  0.115700  0.849200  1
  O  O1045  1  0.782100  0.934300  0.219800  1
  O  O1046  1  0.217900  0.065700  0.780200  1
  O  O1047  1  0.721100  0.290300  0.825100  1
  O  O1048  1  0.278900  0.709700  0.174900  1
  F  F1049  1  0.137920  0.165310  0.998840  1
  F  F1050  1  0.862080  0.834690  0.001160  1
  F  F1051  1  0.177100  0.203960  0.083670  1
  F  F1052  1  0.822900  0.796040  0.916330  1
  F  F1053  1  0.126180  0.108020  0.044500  1
  F  F1054  1  0.873820  0.891980  0.955500  1
  F  F1055  1  0.218440  0.155970  0.053400  1
  F  F1056  1  0.781560  0.844030  0.946600  1
  F  F1057  1  0.831600  0.728800  0.323300  1
  F  F1058  1  0.168400  0.271200  0.676700  1
  F  F1059  1  0.769600  0.681700  0.350540  1
  F  F1060  1  0.230400  0.318300  0.649460  1
  F  F1061  1  0.747000  0.739530  0.306690  1
  F  F1062  1  0.253000  0.260470  0.693310  1
  F  F1063  1  0.823500  0.775900  0.386200  1
  F  F1064  1  0.176500  0.224100  0.613800  1
  F  F1065  1  0.398730  0.335940  0.053500  1
  F  F1066  1  0.601270  0.664060  0.946500  1
  F  F1067  1  0.335130  0.363210  0.999760  1
  F  F1068  1  0.664870  0.636790  0.000240  1
  F  F1069  1  0.378500  0.405610  0.085610  1
  F  F1070  1  0.621500  0.594390  0.914390  1
  F  F1071  1  0.437810  0.421770  0.048300  1
  F  F1072  1  0.562190  0.578230  0.951700  1
  F  F1073  1  0.098000  0.991200  0.338400  1
  F  F1074  1  0.902000  0.008800  0.661600  1
  F  F1075  1  0.168500  0.078300  0.352290  1
  F  F1076  1  0.831500  0.921700  0.647710  1
  F  F1077  1  0.068450  0.057600  0.309330  1
  F  F1078  1  0.931550  0.942400  0.690670  1
  F  F1079  1  0.110200  0.064000  0.388490  1
  F  F1080  1  0.889800  0.936000  0.611510  1
  F  F1081  1  0.553500  0.106300  0.995500  1
  F  F1082  1  0.446500  0.893700  0.004500  1
  F  F1083  1  0.650200  0.154300  0.042900  1
  F  F1084  1  0.349800  0.845700  0.957100  1
  F  F1085  1  0.619700  0.065000  0.014700  1
  F  F1086  1  0.380300  0.935000  0.985300  1
  F  F1087  1  0.610500  0.104800  0.961300  1
  F  F1088  1  0.389500  0.895200  0.038700  1
