
#######################################################################
#
#                 Cambridge Crystallographic Data Centre
#                                CCDC 
#
#######################################################################
#
# If this CIF has been generated from an entry in the Cambridge 
# Structural Database, then it will include bibliographic, chemical, 
# crystal, experimental, refinement or atomic coordinate data resulting 
# from the CCDC's data processing and validation procedures.
#
#######################################################################

data_NOLVAM
_chemical_formula_moiety         
'C384 H288 Cu8 N72 16+,16(B1 F4 1-),10(C1 H3 N1 O2)'
_chemical_name_systematic        
'mer-dodecakis(\m~2~-9,10-bis(3-(2-Pyridyl)-1-pyrazolylmethyl)anthracene)-octa-copper(ii) hexadecakis(tetrafluoroborate) nitromethane unknown solvate'
_symmetry_cell_setting           monoclinic
_symmetry_space_group_name_H-M   'C 2/m'
_symmetry_Int_Tables_number      12
_space_group_name_Hall           '-C 2y'
loop_
_symmetry_equiv_pos_site_id
_symmetry_equiv_pos_as_xyz
1 x,y,z
2 -x,y,-z
3 1/2+x,1/2+y,z
4 1/2-x,1/2+y,-z
5 -x,-y,-z
6 x,-y,z
7 1/2-x,1/2-y,-z
8 1/2+x,1/2-y,z
_cell_length_a                   44.45(2)
_cell_length_b                   30.288(15)
_cell_length_c                   31.745(16)
_cell_angle_alpha                90
_cell_angle_beta                 124.280(6)
_cell_angle_gamma                90
_cell_volume                     35314.5
_exptl_crystal_colour            green
_exptl_crystal_description       block
_cell_formula_units_Z            2
_chemical_properties_physical    air-sensitive
_exptl_crystal_recrystallization_method 'diethyl ether/nitromethane'
loop_
_atom_site_label
_atom_site_type_symbol
_atom_site_fract_x
_atom_site_fract_y
_atom_site_fract_z
F1 F 0.23979(16) 0.15416(14) 0.4594(3)
F2 F 0.25998(10) 0.08944(12) 0.45217(15)
F3 F 0.24707(12) 0.09688(15) 0.5112(2)
F4 F 0.20182(14) 0.09726(16) 0.4254(2)
B1 B 0.2364(2) 0.1093(3) 0.4620(4)
O1 O 0.2548(2) 0.0000 0.5703(4)
O2 O 0.2180(3) 0.0000 0.4871(4)
N19 N 0.2495(3) 0.0000 0.5274(5)
C97 C 0.2799(3) 0.0000 0.5231(4)
O3 O 0.07794(17) 0.1505(2) 0.3282(2)
O4 O 0.12140(18) 0.1469(2) 0.3135(3)
N20 N 0.1114(3) 0.1541(3) 0.3441(4)
C98 C 0.1369(2) 0.1758(3) 0.3893(3)
H76 H 0.1244 0.1972 0.3975
H77 H 0.1545 0.1912 0.3852
H78 H 0.1497 0.1542 0.4170
O5 O 0.18365(16) 0.25820(19) 0.3550(2)
O6 O 0.12534(19) 0.2488(2) 0.3020(3)
N21 N 0.1570(2) 0.2584(2) 0.3128(3)
C99 C 0.1588(2) 0.2668(3) 0.2702(3)
H79 H 0.1559 0.2985 0.2627
H80 H 0.1394 0.2506 0.2404
H81 H 0.1825 0.2571 0.2780
Cu1 Cu 0.30184(2) -0.21881(2) 0.38782(3)
Cu2 Cu 0.53530(3) -0.20675(3) 0.86396(3)
N1 N 0.27531(13) -0.27627(14) 0.3793(3)
C1 C 0.26932(16) -0.29007(19) 0.4157(2)
C2 C 0.25019(17) -0.3288(2) 0.4084(3)
H1 H 0.2461 -0.3383 0.4333
C3 C 0.23706(16) -0.35379(16) 0.3646(3)
H2 H 0.2240 -0.3803 0.3595
C4 C 0.24305(17) -0.3400(2) 0.3281(3)
H3 H 0.2341 -0.3570 0.2982
C5 C 0.26218(16) -0.3012(2) 0.3355(2)
H4 H 0.2663 -0.2918 0.3106
N2 N 0.31423(17) -0.2081(2) 0.5076(3)
N3 N 0.30160(16) -0.2260(2) 0.4606(3)
C6 C 0.2860(2) -0.2628(3) 0.4576(4)
C7 C 0.2881(2) -0.2677(3) 0.5053(4)
H5 H 0.2788 -0.2915 0.5141
C8 C 0.3047(3) -0.2344(3) 0.5321(4)
H6 H 0.3097 -0.2288 0.5649
C9 C 0.3360(2) -0.1667(2) 0.5256(3)
H7 H 0.3197 -0.1412 0.5180
H8 H 0.3481 -0.1623 0.5076
C10 C 0.3328(2) -0.1108(3) 0.5992(3)
H9 H 0.3142 -0.1072 0.5640
C11 C 0.3317(3) -0.0866(3) 0.6330(4)
H10 H 0.3117 -0.0672 0.6214
C12 C 0.3590(3) -0.0885(3) 0.6849(4)
H11 H 0.3579 -0.0693 0.7077
C13 C 0.3870(2) -0.1173(3) 0.7033(3)
H12 H 0.4047 -0.1190 0.7390
C14 C 0.3904(2) -0.1453(3) 0.6699(3)
C15 C 0.3614(2) -0.1427(3) 0.6142(3)
C16 C 0.4498(2) -0.2317(3) 0.6670(3)
H13 H 0.4692 -0.2331 0.7021
C17 C 0.4513(2) -0.2570(3) 0.6352(3)
H14 H 0.4711 -0.2768 0.6472
C18 C 0.4233(2) -0.2551(3) 0.5823(3)
H15 H 0.4237 -0.2745 0.5591
C19 C 0.3970(2) -0.2264(3) 0.5659(3)
H16 H 0.3794 -0.2236 0.5302
C20 C 0.3939(2) -0.1989(3) 0.6005(3)
C21 C 0.4201(2) -0.2015(2) 0.6516(3)
C22 C 0.3633(2) -0.1696(2) 0.5805(3)
C23 C 0.4179(2) -0.1754(2) 0.6864(3)
N4 N 0.57810(17) -0.17050(18) 0.8802(3)
C24 C 0.57169(15) -0.1394(2) 0.8438(2)
C25 C 0.6002(2) -0.11366(19) 0.8511(3)
H17 H 0.5958 -0.0924 0.8263
C26 C 0.63503(18) -0.1190(2) 0.8948(3)
H18 H 0.6545 -0.1014 0.8998
C27 C 0.64145(15) -0.1501(3) 0.9312(2)
H19 H 0.6653 -0.1538 0.9611
C28 C 0.6130(2) -0.1758(2) 0.9239(2)
H20 H 0.6174 -0.1971 0.9488
N5 N 0.4797(2) -0.1574(2) 0.7571(3)
N6 N 0.5124(2) -0.1682(2) 0.8000(2)
C29 C 0.5360(3) -0.1387(3) 0.8037(3)
C30 C 0.5161(3) -0.1102(3) 0.7583(3)
H21 H 0.5262 -0.0877 0.7489
C31 C 0.4810(3) -0.1221(3) 0.7327(4)
H22 H 0.4610 -0.1083 0.7032
C32 C 0.4466(2) -0.1826(3) 0.7420(3)
H23 H 0.4525 -0.2144 0.7485
H24 H 0.4374 -0.1727 0.7625
N7 N 0.25487(16) -0.18708(17) 0.3413(3)
C33 C 0.2438(2) -0.1750(3) 0.2920(4)
C34 C 0.2137(2) -0.1517(3) 0.2644(3)
H25 H 0.2054 -0.1450 0.2303
C35 C 0.1925(2) -0.1359(3) 0.2827(4)
H26 H 0.1717 -0.1177 0.2625
C36 C 0.2037(2) -0.1483(3) 0.3292(4)
H27 H 0.1901 -0.1399 0.3426
C37 C 0.2343(2) -0.1730(2) 0.3581(3)
H28 H 0.2416 -0.1808 0.3916
N8 N 0.30992(18) -0.2258(2) 0.2812(3)
N9 N 0.29445(18) -0.21855(19) 0.3064(2)
C38 C 0.2677(2) -0.1904(3) 0.2781(4)
C39 C 0.2648(3) -0.1786(3) 0.2329(4)
H29 H 0.2473 -0.1604 0.2055
C40 C 0.2944(3) -0.2009(4) 0.2393(4)
H30 H 0.3024 -0.1988 0.2173
C41 C 0.3406(2) -0.2565(3) 0.3020(3)
H31 H 0.3596 -0.2482 0.3377
H32 H 0.3322 -0.2867 0.3022
C42 C 0.32277(18) -0.3240(3) 0.2278(3)
H33 H 0.3114 -0.3230 0.2456
C43 C 0.31582(18) -0.3589(2) 0.1951(3)
H34 H 0.2997 -0.3818 0.1906
C44 C 0.3325(2) -0.3604(2) 0.1690(2)
H35 H 0.3278 -0.3843 0.1467
C45 C 0.35615(19) -0.3269(2) 0.1756(2)
H36 H 0.3676 -0.3278 0.1577
C46 C 0.36311(16) -0.29189(19) 0.2082(2)
C47 C 0.34642(18) -0.2904(2) 0.2344(2)
C48 C 0.42326(16) -0.1926(2) 0.2598(2)
H37 H 0.4339 -0.1934 0.2409
C49 C 0.43302(14) -0.15960(18) 0.2957(2)
H38 H 0.4503 -0.1378 0.3013
C50 C 0.41750(17) -0.15845(17) 0.3234(2)
H39 H 0.4242 -0.1359 0.3479
C51 C 0.39223(16) -0.1903(2) 0.3152(2)
H40 H 0.3816 -0.1895 0.3341
C52 C 0.38246(14) -0.22335(17) 0.2792(2)
C53 C 0.39798(16) -0.22451(17) 0.25155(19)
C54 C 0.3569(2) -0.2560(3) 0.2710(3)
C55 C 0.3862(2) -0.2579(3) 0.2114(3)
C56 C 0.3999(3) -0.2559(3) 0.1776(3)
H41 H 0.3826 -0.2722 0.1458
H42 H 0.3998 -0.2247 0.1684
N10 N 0.35123(14) -0.24897(17) 0.42148(19)
C57 C 0.37832(19) -0.2208(2) 0.4318(2)
C58 C 0.41397(19) -0.2371(2) 0.4512(3)
H43 H 0.4327 -0.2177 0.4570
C59 C 0.4206(2) -0.2813(3) 0.4612(3)
H44 H 0.4441 -0.2930 0.4739
C60 C 0.3919(2) -0.3097(2) 0.4522(3)
H45 H 0.3964 -0.3402 0.4605
C61 C 0.3583(2) -0.2926(2) 0.4316(3)
H46 H 0.3390 -0.3118 0.4240
N11 N 0.33518(13) -0.16419(15) 0.40737(18)
C62 C 0.36821(17) -0.17468(19) 0.4209(2)
C63 C 0.38679(17) -0.1382(2) 0.4207(2)
H47 H 0.4107 -0.1372 0.4282
C64 C 0.36280(18) -0.1035(2) 0.4070(3)
H48 H 0.3670 -0.0734 0.4033
N12 N 0.33224(14) -0.12070(17) 0.3998(2)
C65 C 0.29941(16) -0.09567(18) 0.3881(2)
H49 H 0.2937 -0.1043 0.4130
H50 H 0.2784 -0.1043 0.3538
C66 C 0.27756(19) -0.0460(2) 0.2978(3)
H51 H 0.2781 -0.0773 0.2970
C67 C 0.2634(2) -0.0229(3) 0.2539(3)
H52 H 0.2533 -0.0383 0.2227
C68 C 0.29139(15) -0.02439(19) 0.3443(2)
C69 C 0.35601(18) -0.0223(2) 0.5282(3)
H53 H 0.3677 -0.0376 0.5597
C70 C 0.33924(16) -0.0464(2) 0.4831(2)
H54 H 0.3401 -0.0777 0.4840
C71 C 0.32085(14) -0.02394(19) 0.43553(19)
C72 C 0.30380(15) -0.04677(18) 0.3897(2)
N13 N 0.56087(16) -0.23211(19) 0.93473(15)
C73 C 0.56034(18) -0.20865(17) 0.9719(2)
C74 C 0.5774(2) -0.2257(2) 1.02091(19)
H55 H 0.5771 -0.2097 1.0463
C75 C 0.5950(2) -0.2663(2) 1.03269(18)
H56 H 0.6067 -0.2780 1.0662
C76 C 0.5956(2) -0.2898(2) 0.9955(3)
H57 H 0.6076 -0.3175 1.0035
C77 C 0.5785(2) -0.2727(2) 0.9465(2)
H58 H 0.5789 -0.2887 0.9211
N14 N 0.5035(2) -0.1179(2) 0.9022(3)
N15 N 0.5217(2) -0.1571(2) 0.9066(3)
C78 C 0.5395(3) -0.1687(3) 0.9560(3)
C79 C 0.5307(3) -0.1409(4) 0.9805(4)
H59 H 0.5383 -0.1440 1.0150
C80 C 0.5095(3) -0.1076(3) 0.9490(4)
H60 H 0.5006 -0.0828 0.9571
C81 C 0.4821(3) -0.0971(2) 0.8548(3)
H61 H 0.4922 -0.1039 0.8345
H62 H 0.4572 -0.1093 0.8364
C82 C 0.4152(2) -0.0465(3) 0.8277(3)
H63 H 0.4156 -0.0778 0.8303
C83 C 0.3825(3) -0.0240(3) 0.8099(4)
H64 H 0.3607 -0.0399 0.7980
C84 C 0.4476(2) -0.0238(3) 0.8419(3)
C85 C 0.5783(3) -0.0259(3) 0.9089(4)
H65 H 0.5996 -0.0423 0.9192
C86 C 0.5459(3) -0.0466(3) 0.8934(3)
H66 H 0.5456 -0.0780 0.8931
C87 C 0.5133(2) -0.0248(3) 0.8779(3)
C88 C 0.4802(2) -0.0466(3) 0.8585(3)
N16 N 0.49369(18) -0.24830(19) 0.8386(2)
C89 C 0.4892(3) -0.2831(3) 0.8093(3)
C90 C 0.4600(3) -0.3131(3) 0.7911(3)
H67 H 0.4577 -0.3378 0.7710
C91 C 0.4355(3) -0.3062(3) 0.8029(3)
H68 H 0.4154 -0.3258 0.7896
C92 C 0.4388(3) -0.2719(3) 0.8335(3)
H69 H 0.4214 -0.2673 0.8415
C93 C 0.4694(3) -0.2432(3) 0.8526(3)
H70 H 0.4733 -0.2201 0.8754
N17 N 0.4377(2) -0.2747(3) 0.2007(3)
N18 N 0.5449(2) -0.2625(2) 0.8210(2)
C94 C 0.5162(3) -0.2891(3) 0.7971(3)
C95 C 0.5152(3) -0.3154(3) 0.7601(3)
H71 H 0.4967 -0.3355 0.7374
C96 C 0.4548(3) -0.3063(3) 0.2365(4)
H72 H 0.4466 -0.3195 0.2555
Cu1E Cu 0.30184(2) 0.21881(2) 0.38782(3)
Cu1A Cu 0.69816(2) -0.21881(2) 0.61218(3)
Cu1D Cu 0.69816(2) 0.21881(2) 0.61218(3)
Cu2D Cu 0.46470(3) 0.20675(3) 0.13604(3)
Cu2A Cu 0.46470(3) -0.20675(3) 0.13604(3)
Cu2E Cu 0.53530(3) 0.20675(3) 0.86396(3)
N1E N 0.27531(13) 0.27627(14) 0.3793(3)
N1A N 0.72469(13) -0.27627(14) 0.6207(3)
N1D N 0.72469(13) 0.27627(14) 0.6207(3)
C1E C 0.26932(16) 0.29007(19) 0.4157(2)
C1A C 0.73068(16) -0.29007(19) 0.5843(2)
C1D C 0.73068(16) 0.29007(19) 0.5843(2)
C2E C 0.25019(17) 0.3288(2) 0.4084(3)
C2A C 0.74981(17) -0.3288(2) 0.5916(3)
C2D C 0.74981(17) 0.3288(2) 0.5916(3)
H1E H 0.2461 0.3383 0.4333
H1A H 0.7539 -0.3383 0.5667
H1D H 0.7539 0.3383 0.5667
C3E C 0.23706(16) 0.35379(16) 0.3646(3)
C3A C 0.76294(16) -0.35379(16) 0.6354(3)
C3D C 0.76294(16) 0.35379(16) 0.6354(3)
H2E H 0.2240 0.3803 0.3595
H2A H 0.7760 -0.3803 0.6405
H2D H 0.7760 0.3803 0.6405
C4E C 0.24305(17) 0.3400(2) 0.3281(3)
C4A C 0.75695(17) -0.3400(2) 0.6719(3)
C4D C 0.75695(17) 0.3400(2) 0.6719(3)
H3E H 0.2341 0.3570 0.2982
H3A H 0.7659 -0.3570 0.7018
H3D H 0.7659 0.3570 0.7018
C5E C 0.26218(16) 0.3012(2) 0.3355(2)
C5A C 0.73782(16) -0.3012(2) 0.6645(2)
C5D C 0.73782(16) 0.3012(2) 0.6645(2)
H4E H 0.2663 0.2918 0.3106
H4A H 0.7337 -0.2918 0.6894
H4D H 0.7337 0.2918 0.6894
N2A N 0.68577(17) -0.2081(2) 0.4924(3)
N2E N 0.31423(17) 0.2081(2) 0.5076(3)
N2D N 0.68577(17) 0.2081(2) 0.4924(3)
N3E N 0.30160(16) 0.2260(2) 0.4606(3)
N3A N 0.69840(16) -0.2260(2) 0.5394(3)
N3D N 0.69840(16) 0.2260(2) 0.5394(3)
C6E C 0.2860(2) 0.2628(3) 0.4576(4)
C6A C 0.7140(2) -0.2628(3) 0.5424(4)
C6D C 0.7140(2) 0.2628(3) 0.5424(4)
C7A C 0.7119(2) -0.2677(3) 0.4947(4)
C7E C 0.2881(2) 0.2677(3) 0.5053(4)
C7D C 0.7119(2) 0.2677(3) 0.4947(4)
H5A H 0.7212 -0.2915 0.4859
H5E H 0.2788 0.2915 0.5141
H5D H 0.7212 0.2915 0.4859
C8A C 0.6953(3) -0.2344(3) 0.4679(4)
C8E C 0.3047(3) 0.2344(3) 0.5321(4)
C8D C 0.6953(3) 0.2344(3) 0.4679(4)
H6A H 0.6903 -0.2288 0.4351
H6E H 0.3097 0.2288 0.5649
H6D H 0.6903 0.2288 0.4351
C9A C 0.6640(2) -0.1667(2) 0.4744(3)
C9E C 0.3360(2) 0.1667(2) 0.5256(3)
C9D C 0.6640(2) 0.1667(2) 0.4744(3)
H7E H 0.3197 0.1412 0.5180
H7D H 0.6803 0.1412 0.4820
H7A H 0.6803 -0.1412 0.4820
H8E H 0.3481 0.1623 0.5076
H8D H 0.6519 0.1623 0.4924
H8A H 0.6519 -0.1623 0.4924
C10A C 0.6672(2) -0.1108(3) 0.4008(3)
C10E C 0.3328(2) 0.1108(3) 0.5992(3)
C10D C 0.6672(2) 0.1108(3) 0.4008(3)
H9A H 0.6858 -0.1072 0.4360
H9E H 0.3142 0.1072 0.5640
H9D H 0.6858 0.1072 0.4360
C11A C 0.6683(3) -0.0866(3) 0.3670(4)
C11E C 0.3317(3) 0.0866(3) 0.6330(4)
C11D C 0.6683(3) 0.0866(3) 0.3670(4)
H10E H 0.3117 0.0672 0.6214
H10D H 0.6883 0.0672 0.3786
H10A H 0.6883 -0.0672 0.3786
C12A C 0.6410(3) -0.0885(3) 0.3151(4)
C12E C 0.3590(3) 0.0885(3) 0.6849(4)
C12D C 0.6410(3) 0.0885(3) 0.3151(4)
H11E H 0.3579 0.0693 0.7077
H11D H 0.6421 0.0693 0.2923
H11A H 0.6421 -0.0693 0.2923
C13A C 0.6130(2) -0.1173(3) 0.2967(3)
C13E C 0.3870(2) 0.1173(3) 0.7033(3)
C13D C 0.6130(2) 0.1173(3) 0.2967(3)
H12E H 0.4047 0.1190 0.7390
H12D H 0.5953 0.1190 0.2610
H12A H 0.5953 -0.1190 0.2610
C14A C 0.6096(2) -0.1453(3) 0.3301(3)
C14E C 0.3904(2) 0.1453(3) 0.6699(3)
C14D C 0.6096(2) 0.1453(3) 0.3301(3)
C15A C 0.6386(2) -0.1427(3) 0.3858(3)
C15E C 0.3614(2) 0.1427(3) 0.6142(3)
C15D C 0.6386(2) 0.1427(3) 0.3858(3)
C16E C 0.4498(2) 0.2317(3) 0.6670(3)
C16D C 0.5502(2) 0.2317(3) 0.3330(3)
C16A C 0.5502(2) -0.2317(3) 0.3330(3)
H13E H 0.4692 0.2331 0.7021
H13D H 0.5308 0.2331 0.2979
H13A H 0.5308 -0.2331 0.2979
C17E C 0.4513(2) 0.2570(3) 0.6352(3)
C17D C 0.5487(2) 0.2570(3) 0.3648(3)
C17A C 0.5487(2) -0.2570(3) 0.3648(3)
H14E H 0.4711 0.2768 0.6472
H14D H 0.5289 0.2768 0.3528
H14A H 0.5289 -0.2768 0.3528
C18E C 0.4233(2) 0.2551(3) 0.5823(3)
C18D C 0.5767(2) 0.2551(3) 0.4177(3)
C18A C 0.5767(2) -0.2551(3) 0.4177(3)
H15E H 0.4237 0.2745 0.5591
H15D H 0.5763 0.2745 0.4409
H15A H 0.5763 -0.2745 0.4409
C19E C 0.3970(2) 0.2264(3) 0.5659(3)
C19D C 0.6030(2) 0.2264(3) 0.4341(3)
C19A C 0.6030(2) -0.2264(3) 0.4341(3)
H16E H 0.3794 0.2236 0.5302
H16D H 0.6206 0.2236 0.4698
H16A H 0.6206 -0.2236 0.4698
C20E C 0.3939(2) 0.1989(3) 0.6005(3)
C20D C 0.6061(2) 0.1989(3) 0.3995(3)
C20A C 0.6061(2) -0.1989(3) 0.3995(3)
C21E C 0.4201(2) 0.2015(2) 0.6516(3)
C21D C 0.5799(2) 0.2015(2) 0.3484(3)
C21A C 0.5799(2) -0.2015(2) 0.3484(3)
C22A C 0.6367(2) -0.1696(2) 0.4195(3)
C22E C 0.3633(2) 0.1696(2) 0.5805(3)
C22D C 0.6367(2) 0.1696(2) 0.4195(3)
C23A C 0.5821(2) -0.1754(2) 0.3136(3)
C23E C 0.4179(2) 0.1754(2) 0.6864(3)
C23D C 0.5821(2) 0.1754(2) 0.3136(3)
N4D N 0.42190(17) 0.17050(18) 0.1198(3)
N4A N 0.42190(17) -0.17050(18) 0.1198(3)
N4E N 0.57810(17) 0.17050(18) 0.8802(3)
C24D C 0.42831(15) 0.1394(2) 0.1562(2)
C24A C 0.42831(15) -0.1394(2) 0.1562(2)
C24E C 0.57169(15) 0.1394(2) 0.8438(2)
C25D C 0.3998(2) 0.11366(19) 0.1489(3)
C25A C 0.3998(2) -0.11366(19) 0.1489(3)
C25E C 0.6002(2) 0.11366(19) 0.8511(3)
H17D H 0.4042 0.0924 0.1737
H17A H 0.4042 -0.0924 0.1737
H17E H 0.5958 0.0924 0.8263
C26D C 0.36497(18) 0.1190(2) 0.1052(3)
C26A C 0.36497(18) -0.1190(2) 0.1052(3)
C26E C 0.63503(18) 0.1190(2) 0.8948(3)
H18D H 0.3455 0.1014 0.1002
H18A H 0.3455 -0.1014 0.1002
H18E H 0.6545 0.1014 0.8998
C27D C 0.35855(15) 0.1501(3) 0.0688(2)
C27A C 0.35855(15) -0.1501(3) 0.0688(2)
C27E C 0.64145(15) 0.1501(3) 0.9312(2)
H19D H 0.3347 0.1538 0.0389
H19A H 0.3347 -0.1538 0.0389
H19E H 0.6653 0.1538 0.9611
C28D C 0.3870(2) 0.1758(2) 0.0761(2)
C28A C 0.3870(2) -0.1758(2) 0.0761(2)
C28E C 0.6130(2) 0.1758(2) 0.9239(2)
H20D H 0.3826 0.1971 0.0512
H20A H 0.3826 -0.1971 0.0512
H20E H 0.6174 0.1971 0.9488
N5A N 0.5203(2) -0.1574(2) 0.2429(3)
N5E N 0.4797(2) 0.1574(2) 0.7571(3)
N5D N 0.5203(2) 0.1574(2) 0.2429(3)
N6D N 0.4876(2) 0.1682(2) 0.2000(2)
N6A N 0.4876(2) -0.1682(2) 0.2000(2)
N6E N 0.5124(2) 0.1682(2) 0.8000(2)
C29D C 0.4640(3) 0.1387(3) 0.1963(3)
C29A C 0.4640(3) -0.1387(3) 0.1963(3)
C29E C 0.5360(3) 0.1387(3) 0.8037(3)
C30A C 0.4839(3) -0.1102(3) 0.2417(3)
C30E C 0.5161(3) 0.1102(3) 0.7583(3)
C30D C 0.4839(3) 0.1102(3) 0.2417(3)
H21A H 0.4738 -0.0877 0.2511
H21E H 0.5262 0.0877 0.7489
H21D H 0.4738 0.0877 0.2511
C31A C 0.5190(3) -0.1221(3) 0.2673(4)
C31E C 0.4810(3) 0.1221(3) 0.7327(4)
C31D C 0.5190(3) 0.1221(3) 0.2673(4)
H22A H 0.5390 -0.1083 0.2968
H22E H 0.4610 0.1083 0.7032
H22D H 0.5390 0.1083 0.2968
C32A C 0.5534(2) -0.1826(3) 0.2580(3)
C32E C 0.4466(2) 0.1826(3) 0.7420(3)
C32D C 0.5534(2) 0.1826(3) 0.2580(3)
H23E H 0.4525 0.2144 0.7485
H23D H 0.5475 0.2144 0.2515
H23A H 0.5475 -0.2144 0.2515
H24E H 0.4374 0.1727 0.7625
H24D H 0.5626 0.1727 0.2375
H24A H 0.5626 -0.1727 0.2375
N7E N 0.25487(16) 0.18708(17) 0.3413(3)
N7A N 0.74513(16) -0.18708(17) 0.6587(3)
N7D N 0.74513(16) 0.18708(17) 0.6587(3)
C33E C 0.2438(2) 0.1750(3) 0.2920(4)
C33A C 0.7562(2) -0.1750(3) 0.7080(4)
C33D C 0.7562(2) 0.1750(3) 0.7080(4)
C34E C 0.2137(2) 0.1517(3) 0.2644(3)
C34A C 0.7863(2) -0.1517(3) 0.7356(3)
C34D C 0.7863(2) 0.1517(3) 0.7356(3)
H25E H 0.2054 0.1450 0.2303
H25A H 0.7946 -0.1450 0.7697
H25D H 0.7946 0.1450 0.7697
C35E C 0.1925(2) 0.1359(3) 0.2827(4)
C35A C 0.8075(2) -0.1359(3) 0.7173(4)
C35D C 0.8075(2) 0.1359(3) 0.7173(4)
H26E H 0.1717 0.1177 0.2625
H26A H 0.8283 -0.1177 0.7375
H26D H 0.8283 0.1177 0.7375
C36E C 0.2037(2) 0.1483(3) 0.3292(4)
C36A C 0.7963(2) -0.1483(3) 0.6708(4)
C36D C 0.7963(2) 0.1483(3) 0.6708(4)
H27E H 0.1901 0.1399 0.3426
H27A H 0.8099 -0.1399 0.6574
H27D H 0.8099 0.1399 0.6574
C37E C 0.2343(2) 0.1730(2) 0.3581(3)
C37A C 0.7657(2) -0.1730(2) 0.6419(3)
C37D C 0.7657(2) 0.1730(2) 0.6419(3)
H28E H 0.2416 0.1808 0.3916
H28A H 0.7584 -0.1808 0.6084
H28D H 0.7584 0.1808 0.6084
N8E N 0.30992(18) 0.2258(2) 0.2812(3)
N8D N 0.69008(18) 0.2258(2) 0.7188(3)
N8A N 0.69008(18) -0.2258(2) 0.7188(3)
N9E N 0.29445(18) 0.21855(19) 0.3064(2)
N9A N 0.70555(18) -0.21855(19) 0.6936(2)
N9D N 0.70555(18) 0.21855(19) 0.6936(2)
C38E C 0.2677(2) 0.1904(3) 0.2781(4)
C38A C 0.7323(2) -0.1904(3) 0.7219(4)
C38D C 0.7323(2) 0.1904(3) 0.7219(4)
C39E C 0.2648(3) 0.1786(3) 0.2329(4)
C39D C 0.7352(3) 0.1786(3) 0.7671(4)
C39A C 0.7352(3) -0.1786(3) 0.7671(4)
H29E H 0.2473 0.1604 0.2055
H29D H 0.7527 0.1604 0.7945
H29A H 0.7527 -0.1604 0.7945
C40E C 0.2944(3) 0.2009(4) 0.2393(4)
C40D C 0.7056(3) 0.2009(4) 0.7607(4)
C40A C 0.7056(3) -0.2009(4) 0.7607(4)
H30E H 0.3024 0.1988 0.2173
H30D H 0.6976 0.1988 0.7827
H30A H 0.6976 -0.1988 0.7827
C41E C 0.3406(2) 0.2565(3) 0.3020(3)
C41D C 0.6594(2) 0.2565(3) 0.6980(3)
C41A C 0.6594(2) -0.2565(3) 0.6980(3)
H31E H 0.3596 0.2482 0.3377
H31D H 0.6404 0.2482 0.6623
H31A H 0.6404 -0.2482 0.6623
H32E H 0.3322 0.2867 0.3022
H32D H 0.6678 0.2867 0.6978
H32A H 0.6678 -0.2867 0.6978
C42E C 0.32277(18) 0.3240(3) 0.2278(3)
C42D C 0.67723(18) 0.3240(3) 0.7722(3)
C42A C 0.67723(18) -0.3240(3) 0.7722(3)
H33E H 0.3114 0.3230 0.2456
H33D H 0.6886 0.3230 0.7544
H33A H 0.6886 -0.3230 0.7544
C43E C 0.31582(18) 0.3589(2) 0.1951(3)
C43D C 0.68418(18) 0.3589(2) 0.8049(3)
C43A C 0.68418(18) -0.3589(2) 0.8049(3)
H34E H 0.2997 0.3818 0.1906
H34D H 0.7003 0.3818 0.8094
H34A H 0.7003 -0.3818 0.8094
C44E C 0.3325(2) 0.3604(2) 0.1690(2)
C44D C 0.6675(2) 0.3604(2) 0.8310(2)
C44A C 0.6675(2) -0.3604(2) 0.8310(2)
H35E H 0.3278 0.3843 0.1467
H35D H 0.6722 0.3843 0.8533
H35A H 0.6722 -0.3843 0.8533
C45E C 0.35615(19) 0.3269(2) 0.1756(2)
C45D C 0.64385(19) 0.3269(2) 0.8244(2)
C45A C 0.64385(19) -0.3269(2) 0.8244(2)
H36E H 0.3676 0.3278 0.1577
H36D H 0.6324 0.3278 0.8423
H36A H 0.6324 -0.3278 0.8423
C46E C 0.36311(16) 0.29189(19) 0.2082(2)
C46D C 0.63689(16) 0.29189(19) 0.7918(2)
C46A C 0.63689(16) -0.29189(19) 0.7918(2)
C47E C 0.34642(18) 0.2904(2) 0.2344(2)
C47D C 0.65358(18) 0.2904(2) 0.7656(2)
C47A C 0.65358(18) -0.2904(2) 0.7656(2)
C48E C 0.42326(16) 0.1926(2) 0.2598(2)
C48D C 0.57674(16) 0.1926(2) 0.7402(2)
C48A C 0.57674(16) -0.1926(2) 0.7402(2)
H37E H 0.4339 0.1934 0.2409
H37D H 0.5661 0.1934 0.7591
H37A H 0.5661 -0.1934 0.7591
C49E C 0.43302(14) 0.15960(18) 0.2957(2)
C49D C 0.56698(14) 0.15960(18) 0.7043(2)
C49A C 0.56698(14) -0.15960(18) 0.7043(2)
H38E H 0.4503 0.1378 0.3013
H38D H 0.5497 0.1378 0.6987
H38A H 0.5497 -0.1378 0.6987
C50E C 0.41750(17) 0.15845(17) 0.3234(2)
C50D C 0.58250(17) 0.15845(17) 0.6766(2)
C50A C 0.58250(17) -0.15845(17) 0.6766(2)
H39E H 0.4242 0.1359 0.3479
H39D H 0.5758 0.1359 0.6521
H39A H 0.5758 -0.1359 0.6521
C51E C 0.39223(16) 0.1903(2) 0.3152(2)
C51D C 0.60777(16) 0.1903(2) 0.6848(2)
C51A C 0.60777(16) -0.1903(2) 0.6848(2)
H40E H 0.3816 0.1895 0.3341
H40D H 0.6184 0.1895 0.6659
H40A H 0.6184 -0.1895 0.6659
C52E C 0.38246(14) 0.22335(17) 0.2792(2)
C52D C 0.61754(14) 0.22335(17) 0.7208(2)
C52A C 0.61754(14) -0.22335(17) 0.7208(2)
C53E C 0.39798(16) 0.22451(17) 0.25155(19)
C53D C 0.60202(16) 0.22451(17) 0.74845(19)
C53A C 0.60202(16) -0.22451(17) 0.74845(19)
C54E C 0.3569(2) 0.2560(3) 0.2710(3)
C54D C 0.6431(2) 0.2560(3) 0.7290(3)
C54A C 0.6431(2) -0.2560(3) 0.7290(3)
C55E C 0.3862(2) 0.2579(3) 0.2114(3)
C55D C 0.6138(2) 0.2579(3) 0.7886(3)
C55A C 0.6138(2) -0.2579(3) 0.7886(3)
C56E C 0.3999(3) 0.2559(3) 0.1776(3)
C56D C 0.6001(3) 0.2559(3) 0.8224(3)
C56A C 0.6001(3) -0.2559(3) 0.8224(3)
H41E H 0.3826 0.2722 0.1458
H41D H 0.6174 0.2722 0.8542
H41A H 0.6174 -0.2722 0.8542
H42E H 0.3998 0.2247 0.1684
H42D H 0.6002 0.2247 0.8316
H42A H 0.6002 -0.2247 0.8316
N10E N 0.35123(14) 0.24897(17) 0.42148(19)
N10A N 0.64877(14) -0.24897(17) 0.57852(19)
N10D N 0.64877(14) 0.24897(17) 0.57852(19)
C57E C 0.37832(19) 0.2208(2) 0.4318(2)
C57A C 0.62168(19) -0.2208(2) 0.5682(2)
C57D C 0.62168(19) 0.2208(2) 0.5682(2)
C58E C 0.41397(19) 0.2371(2) 0.4512(3)
C58A C 0.58603(19) -0.2371(2) 0.5488(3)
C58D C 0.58603(19) 0.2371(2) 0.5488(3)
H43E H 0.4327 0.2177 0.4570
H43A H 0.5673 -0.2177 0.5430
H43D H 0.5673 0.2177 0.5430
C59E C 0.4206(2) 0.2813(3) 0.4612(3)
C59A C 0.5794(2) -0.2813(3) 0.5388(3)
C59D C 0.5794(2) 0.2813(3) 0.5388(3)
H44E H 0.4441 0.2930 0.4739
H44A H 0.5559 -0.2930 0.5261
H44D H 0.5559 0.2930 0.5261
C60E C 0.3919(2) 0.3097(2) 0.4522(3)
C60A C 0.6081(2) -0.3097(2) 0.5478(3)
C60D C 0.6081(2) 0.3097(2) 0.5478(3)
H45E H 0.3964 0.3402 0.4605
H45A H 0.6036 -0.3402 0.5395
H45D H 0.6036 0.3402 0.5395
C61E C 0.3583(2) 0.2926(2) 0.4316(3)
C61A C 0.6417(2) -0.2926(2) 0.5684(3)
C61D C 0.6417(2) 0.2926(2) 0.5684(3)
H46E H 0.3390 0.3118 0.4240
H46A H 0.6610 -0.3118 0.5760
H46D H 0.6610 0.3118 0.5760
N11E N 0.33518(13) 0.16419(15) 0.40737(18)
N11A N 0.66482(13) -0.16419(15) 0.59263(18)
N11D N 0.66482(13) 0.16419(15) 0.59263(18)
C62E C 0.36821(17) 0.17468(19) 0.4209(2)
C62A C 0.63179(17) -0.17468(19) 0.5791(2)
C62D C 0.63179(17) 0.17468(19) 0.5791(2)
C63E C 0.38679(17) 0.1382(2) 0.4207(2)
C63A C 0.61321(17) -0.1382(2) 0.5793(2)
C63D C 0.61321(17) 0.1382(2) 0.5793(2)
H47E H 0.4107 0.1372 0.4282
H47A H 0.5893 -0.1372 0.5718
H47D H 0.5893 0.1372 0.5718
C64E C 0.36280(18) 0.1035(2) 0.4070(3)
C64A C 0.63720(18) -0.1035(2) 0.5930(3)
C64D C 0.63720(18) 0.1035(2) 0.5930(3)
H48E H 0.3670 0.0734 0.4033
H48A H 0.6330 -0.0734 0.5967
H48D H 0.6330 0.0734 0.5967
N12E N 0.33224(14) 0.12070(17) 0.3998(2)
N12A N 0.66776(14) -0.12070(17) 0.6002(2)
N12D N 0.66776(14) 0.12070(17) 0.6002(2)
C65E C 0.29941(16) 0.09567(18) 0.3881(2)
C65A C 0.70059(16) -0.09567(18) 0.6119(2)
C65D C 0.70059(16) 0.09567(18) 0.6119(2)
H49A H 0.7063 -0.1043 0.5870
H49D H 0.7063 0.1043 0.5870
H49E H 0.2937 0.1043 0.4130
H50A H 0.7216 -0.1043 0.6462
H50D H 0.7216 0.1043 0.6462
H50E H 0.2784 0.1043 0.3538
C66E C 0.27756(19) 0.0460(2) 0.2978(3)
C66A C 0.72244(19) -0.0460(2) 0.7022(3)
C66D C 0.72244(19) 0.0460(2) 0.7022(3)
H51E H 0.2781 0.0773 0.2970
H51A H 0.7219 -0.0773 0.7030
H51D H 0.7219 0.0773 0.7030
C67E C 0.2634(2) 0.0229(3) 0.2539(3)
C67A C 0.7366(2) -0.0229(3) 0.7461(3)
C67D C 0.7366(2) 0.0229(3) 0.7461(3)
H52A H 0.7467 -0.0383 0.7773
H52D H 0.7467 0.0383 0.7773
H52E H 0.2533 0.0383 0.2227
C68E C 0.29139(15) 0.02439(19) 0.3443(2)
C68A C 0.70861(15) -0.02439(19) 0.6557(2)
C68D C 0.70861(15) 0.02439(19) 0.6557(2)
C69D C 0.64399(18) 0.0223(2) 0.4718(3)
C69A C 0.64399(18) -0.0223(2) 0.4718(3)
C69E C 0.35601(18) 0.0223(2) 0.5282(3)
H53A H 0.6323 -0.0376 0.4403
H53D H 0.6323 0.0376 0.4403
H53E H 0.3677 0.0376 0.5597
C70D C 0.66076(16) 0.0464(2) 0.5169(2)
C70A C 0.66076(16) -0.0464(2) 0.5169(2)
C70E C 0.33924(16) 0.0464(2) 0.4831(2)
H54A H 0.6599 -0.0777 0.5160
H54D H 0.6599 0.0777 0.5160
H54E H 0.3401 0.0777 0.4840
C71D C 0.67915(14) 0.02394(19) 0.56447(19)
C71A C 0.67915(14) -0.02394(19) 0.56447(19)
C71E C 0.32085(14) 0.02394(19) 0.43553(19)
C72E C 0.30380(15) 0.04677(18) 0.3897(2)
C72A C 0.69620(15) -0.04677(18) 0.6103(2)
C72D C 0.69620(15) 0.04677(18) 0.6103(2)
N13D N 0.43913(16) 0.23211(19) 0.06527(15)
N13A N 0.43913(16) -0.23211(19) 0.06527(15)
N13E N 0.56087(16) 0.23211(19) 0.93473(15)
C73D C 0.43966(18) 0.20865(17) 0.0281(2)
C73A C 0.43966(18) -0.20865(17) 0.0281(2)
C73E C 0.56034(18) 0.20865(17) 0.9719(2)
C74D C 0.4226(2) 0.2257(2) -0.02091(19)
C74A C 0.4226(2) -0.2257(2) -0.02091(19)
C74E C 0.5774(2) 0.2257(2) 1.02091(19)
H55D H 0.4229 0.2097 -0.0463
H55A H 0.4229 -0.2097 -0.0463
H55E H 0.5771 0.2097 1.0463
C75D C 0.4050(2) 0.2663(2) -0.03269(18)
C75A C 0.4050(2) -0.2663(2) -0.03269(18)
C75E C 0.5950(2) 0.2663(2) 1.03269(18)
H56D H 0.3933 0.2780 -0.0662
H56A H 0.3933 -0.2780 -0.0662
H56E H 0.6067 0.2780 1.0662
C76D C 0.4044(2) 0.2898(2) 0.0045(3)
C76A C 0.4044(2) -0.2898(2) 0.0045(3)
C76E C 0.5956(2) 0.2898(2) 0.9955(3)
H57D H 0.3924 0.3175 -0.0035
H57A H 0.3924 -0.3175 -0.0035
H57E H 0.6076 0.3175 1.0035
C77D C 0.4215(2) 0.2727(2) 0.0535(2)
C77A C 0.4215(2) -0.2727(2) 0.0535(2)
C77E C 0.5785(2) 0.2727(2) 0.9465(2)
H58D H 0.4211 0.2887 0.0789
H58A H 0.4211 -0.2887 0.0789
H58E H 0.5789 0.2887 0.9211
N14D N 0.4965(2) 0.1179(2) 0.0978(3)
N14A N 0.4965(2) -0.1179(2) 0.0978(3)
N14E N 0.5035(2) 0.1179(2) 0.9022(3)
N15D N 0.4783(2) 0.1571(2) 0.0934(3)
N15A N 0.4783(2) -0.1571(2) 0.0934(3)
N15E N 0.5217(2) 0.1571(2) 0.9066(3)
C78D C 0.4605(3) 0.1687(3) 0.0440(3)
C78A C 0.4605(3) -0.1687(3) 0.0440(3)
C78E C 0.5395(3) 0.1687(3) 0.9560(3)
C79D C 0.4693(3) 0.1409(4) 0.0195(4)
C79A C 0.4693(3) -0.1409(4) 0.0195(4)
C79E C 0.5307(3) 0.1409(4) 0.9805(4)
H59D H 0.4617 0.1440 -0.0150
H59A H 0.4617 -0.1440 -0.0150
H59E H 0.5383 0.1440 1.0150
C80D C 0.4905(3) 0.1076(3) 0.0510(4)
C80A C 0.4905(3) -0.1076(3) 0.0510(4)
C80E C 0.5095(3) 0.1076(3) 0.9490(4)
H60D H 0.4994 0.0828 0.0429
H60A H 0.4994 -0.0828 0.0429
H60E H 0.5006 0.0828 0.9571
C81D C 0.5179(3) 0.0971(2) 0.1452(3)
C81A C 0.5179(3) -0.0971(2) 0.1452(3)
C81E C 0.4821(3) 0.0971(2) 0.8548(3)
H61D H 0.5078 0.1039 0.1655
H61E H 0.4922 0.1039 0.8345
H61A H 0.5078 -0.1039 0.1655
H62D H 0.5428 0.1093 0.1636
H62E H 0.4572 0.1093 0.8364
H62A H 0.5428 -0.1093 0.1636
C82D C 0.5848(2) 0.0465(3) 0.1723(3)
C82A C 0.5848(2) -0.0465(3) 0.1723(3)
C82E C 0.4152(2) 0.0465(3) 0.8277(3)
H63D H 0.5844 0.0778 0.1697
H63A H 0.5844 -0.0778 0.1697
H63E H 0.4156 0.0778 0.8303
C83D C 0.6175(3) 0.0240(3) 0.1901(4)
C83A C 0.6175(3) -0.0240(3) 0.1901(4)
C83E C 0.3825(3) 0.0240(3) 0.8099(4)
H64E H 0.3607 0.0399 0.7980
H64A H 0.6393 -0.0399 0.2020
H64D H 0.6393 0.0399 0.2020
C84D C 0.5524(2) 0.0238(3) 0.1581(3)
C84A C 0.5524(2) -0.0238(3) 0.1581(3)
C84E C 0.4476(2) 0.0238(3) 0.8419(3)
C85E C 0.5783(3) 0.0259(3) 0.9089(4)
C85A C 0.4217(3) -0.0259(3) 0.0911(4)
C85D C 0.4217(3) 0.0259(3) 0.0911(4)
H65E H 0.5996 0.0423 0.9192
H65A H 0.4004 -0.0423 0.0808
H65D H 0.4004 0.0423 0.0808
C86E C 0.5459(3) 0.0466(3) 0.8934(3)
C86A C 0.4541(3) -0.0466(3) 0.1066(3)
C86D C 0.4541(3) 0.0466(3) 0.1066(3)
H66E H 0.5456 0.0780 0.8931
H66A H 0.4544 -0.0780 0.1069
H66D H 0.4544 0.0780 0.1069
C87E C 0.5133(2) 0.0248(3) 0.8779(3)
C87A C 0.4867(2) -0.0248(3) 0.1221(3)
C87D C 0.4867(2) 0.0248(3) 0.1221(3)
C88D C 0.5198(2) 0.0466(3) 0.1415(3)
C88A C 0.5198(2) -0.0466(3) 0.1415(3)
C88E C 0.4802(2) 0.0466(3) 0.8585(3)
N16D N 0.50631(18) 0.24830(19) 0.1614(2)
N16A N 0.50631(18) -0.24830(19) 0.1614(2)
N16E N 0.49369(18) 0.24830(19) 0.8386(2)
C89D C 0.5108(3) 0.2831(3) 0.1907(3)
C89A C 0.5108(3) -0.2831(3) 0.1907(3)
C89E C 0.4892(3) 0.2831(3) 0.8093(3)
C90D C 0.5400(3) 0.3131(3) 0.2089(3)
C90A C 0.5400(3) -0.3131(3) 0.2089(3)
C90E C 0.4600(3) 0.3131(3) 0.7911(3)
H67D H 0.5423 0.3378 0.2290
H67A H 0.5423 -0.3378 0.2290
H67E H 0.4577 0.3378 0.7710
C91D C 0.5645(3) 0.3062(3) 0.1971(3)
C91A C 0.5645(3) -0.3062(3) 0.1971(3)
C91E C 0.4355(3) 0.3062(3) 0.8029(3)
H68D H 0.5846 0.3258 0.2104
H68A H 0.5846 -0.3258 0.2104
H68E H 0.4154 0.3258 0.7896
C92D C 0.5612(3) 0.2719(3) 0.1665(3)
C92A C 0.5612(3) -0.2719(3) 0.1665(3)
C92E C 0.4388(3) 0.2719(3) 0.8335(3)
H69D H 0.5786 0.2673 0.1585
H69A H 0.5786 -0.2673 0.1585
H69E H 0.4214 0.2673 0.8415
C93D C 0.5306(3) 0.2432(3) 0.1474(3)
C93A C 0.5306(3) -0.2432(3) 0.1474(3)
C93E C 0.4694(3) 0.2432(3) 0.8526(3)
H70D H 0.5267 0.2201 0.1246
H70A H 0.5267 -0.2201 0.1246
H70E H 0.4733 0.2201 0.8754
N17E N 0.4377(2) 0.2747(3) 0.2007(3)
N17D N 0.5623(2) 0.2747(3) 0.7993(3)
N17A N 0.5623(2) -0.2747(3) 0.7993(3)
N18D N 0.4551(2) 0.2625(2) 0.1790(2)
N18A N 0.4551(2) -0.2625(2) 0.1790(2)
N18E N 0.5449(2) 0.2625(2) 0.8210(2)
C94D C 0.4838(3) 0.2891(3) 0.2029(3)
C94A C 0.4838(3) -0.2891(3) 0.2029(3)
C94E C 0.5162(3) 0.2891(3) 0.7971(3)
C95D C 0.4848(3) 0.3154(3) 0.2399(3)
C95A C 0.4848(3) -0.3154(3) 0.2399(3)
C95E C 0.5152(3) 0.3154(3) 0.7601(3)
H71D H 0.5033 0.3355 0.2626
H71A H 0.5033 -0.3355 0.2626
H71E H 0.4967 0.3355 0.7374
C96E C 0.4548(3) 0.3063(3) 0.2365(4)
C96D C 0.5452(3) 0.3063(3) 0.7635(4)
C96A C 0.5452(3) -0.3063(3) 0.7635(4)
H72E H 0.4466 0.3195 0.2555
H72D H 0.5534 0.3195 0.7445
H72A H 0.5534 -0.3195 0.7445
loop_
_geom_bond_atom_site_label_1
_geom_bond_atom_site_label_2
_geom_bond_site_symmetry_1
_geom_bond_site_symmetry_2
Cu1 N1 1_555 1_555
Cu2 N4 1_555 1_555
N1 C1 1_555 1_555
C1 C2 1_555 1_555
C2 H1 1_555 1_555
C3 C2 1_555 1_555
H2 C3 1_555 1_555
C4 C3 1_555 1_555
H3 C4 1_555 1_555
C5 N1 1_555 1_555
H4 C5 1_555 1_555
N2 N3 1_555 1_555
N3 Cu1 1_555 1_555
C6 C1 1_555 1_555
C7 C6 1_555 1_555
H5 C7 1_555 1_555
C8 N2 1_555 1_555
H6 C8 1_555 1_555
C9 N2 1_555 1_555
H7 C9 1_555 1_555
H8 C9 1_555 1_555
C10 H9 1_555 1_555
C11 C10 1_555 1_555
H10 C11 1_555 1_555
C12 C11 1_555 1_555
H11 C12 1_555 1_555
C13 C12 1_555 1_555
H12 C13 1_555 1_555
C14 C13 1_555 1_555
C15 C10 1_555 1_555
C16 H13 1_555 1_555
C17 C16 1_555 1_555
H14 C17 1_555 1_555
C18 C17 1_555 1_555
H15 C18 1_555 1_555
C19 C18 1_555 1_555
H16 C19 1_555 1_555
C20 C19 1_555 1_555
C21 C16 1_555 1_555
C22 C9 1_555 1_555
C23 C14 1_555 1_555
N4 C24 1_555 1_555
C24 C25 1_555 1_555
C25 H17 1_555 1_555
C26 C25 1_555 1_555
H18 C26 1_555 1_555
C27 C26 1_555 1_555
H19 C27 1_555 1_555
C28 N4 1_555 1_555
H20 C28 1_555 1_555
N5 N6 1_555 1_555
N6 Cu2 1_555 1_555
C29 C24 1_555 1_555
C30 C29 1_555 1_555
H21 C30 1_555 1_555
C31 N5 1_555 1_555
H22 C31 1_555 1_555
C32 C23 1_555 1_555
H23 C32 1_555 1_555
H24 C32 1_555 1_555
N7 Cu1 1_555 1_555
C33 N7 1_555 1_555
C34 C33 1_555 1_555
H25 C34 1_555 1_555
C35 C34 1_555 1_555
H26 C35 1_555 1_555
C36 C35 1_555 1_555
H27 C36 1_555 1_555
C37 N7 1_555 1_555
H28 C37 1_555 1_555
N8 N9 1_555 1_555
N9 Cu1 1_555 1_555
C38 C33 1_555 1_555
C39 C38 1_555 1_555
H29 C39 1_555 1_555
C40 N8 1_555 1_555
H30 C40 1_555 1_555
C41 N8 1_555 1_555
H31 C41 1_555 1_555
H32 C41 1_555 1_555
C42 H33 1_555 1_555
C43 C42 1_555 1_555
H34 C43 1_555 1_555
C44 C43 1_555 1_555
H35 C44 1_555 1_555
C45 C44 1_555 1_555
H36 C45 1_555 1_555
C46 C45 1_555 1_555
C47 C42 1_555 1_555
C48 H37 1_555 1_555
C49 C48 1_555 1_555
H38 C49 1_555 1_555
C50 C49 1_555 1_555
H39 C50 1_555 1_555
C51 C50 1_555 1_555
H40 C51 1_555 1_555
C52 C51 1_555 1_555
C53 C48 1_555 1_555
C54 C41 1_555 1_555
C55 C46 1_555 1_555
C56 C55 1_555 1_555
H41 C56 1_555 1_555
H42 C56 1_555 1_555
N10 Cu1 1_555 1_555
C57 N10 1_555 1_555
C58 C57 1_555 1_555
H43 C58 1_555 1_555
C59 C58 1_555 1_555
H44 C59 1_555 1_555
C60 C59 1_555 1_555
H45 C60 1_555 1_555
C61 N10 1_555 1_555
H46 C61 1_555 1_555
N11 Cu1 1_555 1_555
C62 C57 1_555 1_555
C63 C62 1_555 1_555
H47 C63 1_555 1_555
C64 C63 1_555 1_555
H48 C64 1_555 1_555
N12 N11 1_555 1_555
C65 N12 1_555 1_555
H49 C65 1_555 1_555
H50 C65 1_555 1_555
C66 H51 1_555 1_555
C67 C66 1_555 1_555
H52 C67 1_555 1_555
C68 C66 1_555 1_555
C69 H53 1_555 1_555
C70 C69 1_555 1_555
H54 C70 1_555 1_555
C71 C70 1_555 1_555
C72 C65 1_555 1_555
N13 Cu2 1_555 1_555
C73 N13 1_555 1_555
C74 C73 1_555 1_555
H55 C74 1_555 1_555
C75 C74 1_555 1_555
H56 C75 1_555 1_555
C76 C75 1_555 1_555
H57 C76 1_555 1_555
C77 N13 1_555 1_555
H58 C77 1_555 1_555
N14 N15 1_555 1_555
N15 Cu2 1_555 1_555
C78 C73 1_555 1_555
C79 C78 1_555 1_555
H59 C79 1_555 1_555
C80 N14 1_555 1_555
H60 C80 1_555 1_555
C81 N14 1_555 1_555
H61 C81 1_555 1_555
H62 C81 1_555 1_555
C82 H63 1_555 1_555
C83 C82 1_555 1_555
H64 C83 1_555 1_555
C84 C82 1_555 1_555
C85 H65 1_555 1_555
C86 C85 1_555 1_555
H66 C86 1_555 1_555
C87 C86 1_555 1_555
C88 C81 1_555 1_555
N16 Cu2 1_555 1_555
C89 N16 1_555 1_555
C90 C89 1_555 1_555
H67 C90 1_555 1_555
C91 C90 1_555 1_555
H68 C91 1_555 1_555
C92 C91 1_555 1_555
H69 C92 1_555 1_555
C93 N16 1_555 1_555
H70 C93 1_555 1_555
N17 C56 1_555 1_555
N18 Cu2 1_555 1_555
C94 C89 1_555 1_555
C95 C94 1_555 1_555
H71 C95 1_555 1_555
C96 N17 1_555 1_555
H72 C96 1_555 1_555
F1 B1 1_555 1_555
F2 B1 1_555 1_555
F3 B1 1_555 1_555
F4 B1 1_555 1_555
O1 N19 1_555 1_555
O2 N19 1_555 1_555
N19 C97 1_555 1_555
O3 N20 1_555 1_555
O4 N20 1_555 1_555
N20 C98 1_555 1_555
C98 H76 1_555 1_555
H77 C98 1_555 1_555
H78 C98 1_555 1_555
O5 N21 1_555 1_555
O6 N21 1_555 1_555
N21 C99 1_555 1_555
C99 H79 1_555 1_555
H80 C99 1_555 1_555
H81 C99 1_555 1_555
Cu1E N1E 1_555 1_555
Cu1A N1A 1_555 1_555
Cu1D N1D 1_555 1_555
Cu2D N4D 1_555 1_555
Cu2A N4A 1_555 1_555
Cu2E N4E 1_555 1_555
N1E C1E 1_555 1_555
N1A C1A 1_555 1_555
N1D C1D 1_555 1_555
C1E C2E 1_555 1_555
C1A C2A 1_555 1_555
C1D C2D 1_555 1_555
C2E H1E 1_555 1_555
C2A H1A 1_555 1_555
C2D H1D 1_555 1_555
C3E C2E 1_555 1_555
C3A C2A 1_555 1_555
C3D C2D 1_555 1_555
H2E C3E 1_555 1_555
H2A C3A 1_555 1_555
H2D C3D 1_555 1_555
C4E C3E 1_555 1_555
C4A C3A 1_555 1_555
C4D C3D 1_555 1_555
H3E C4E 1_555 1_555
H3A C4A 1_555 1_555
H3D C4D 1_555 1_555
C5E N1E 1_555 1_555
C5A N1A 1_555 1_555
C5D N1D 1_555 1_555
H4E C5E 1_555 1_555
H4A C5A 1_555 1_555
H4D C5D 1_555 1_555
N2A N3A 1_555 1_555
N2E N3E 1_555 1_555
N2D N3D 1_555 1_555
N3E Cu1E 1_555 1_555
N3A Cu1A 1_555 1_555
N3D Cu1D 1_555 1_555
C6E C1E 1_555 1_555
C6A C1A 1_555 1_555
C6D C1D 1_555 1_555
C7A C6A 1_555 1_555
C7E C6E 1_555 1_555
C7D C6D 1_555 1_555
H5A C7A 1_555 1_555
H5E C7E 1_555 1_555
H5D C7D 1_555 1_555
C8A N2A 1_555 1_555
C8E N2E 1_555 1_555
C8D N2D 1_555 1_555
H6A C8A 1_555 1_555
H6E C8E 1_555 1_555
H6D C8D 1_555 1_555
C9A N2A 1_555 1_555
C9E N2E 1_555 1_555
C9D N2D 1_555 1_555
H7E C9E 1_555 1_555
H7D C9D 1_555 1_555
H7A C9A 1_555 1_555
H8E C9E 1_555 1_555
H8D C9D 1_555 1_555
H8A C9A 1_555 1_555
C10A H9A 1_555 1_555
C10E H9E 1_555 1_555
C10D H9D 1_555 1_555
C11A C10A 1_555 1_555
C11E C10E 1_555 1_555
C11D C10D 1_555 1_555
H10E C11E 1_555 1_555
H10D C11D 1_555 1_555
H10A C11A 1_555 1_555
C12A C11A 1_555 1_555
C12E C11E 1_555 1_555
C12D C11D 1_555 1_555
H11E C12E 1_555 1_555
H11D C12D 1_555 1_555
H11A C12A 1_555 1_555
C13A C12A 1_555 1_555
C13E C12E 1_555 1_555
C13D C12D 1_555 1_555
H12E C13E 1_555 1_555
H12D C13D 1_555 1_555
H12A C13A 1_555 1_555
C14A C13A 1_555 1_555
C14E C13E 1_555 1_555
C14D C13D 1_555 1_555
C15A C10A 1_555 1_555
C15E C10E 1_555 1_555
C15D C10D 1_555 1_555
C16E H13E 1_555 1_555
C16D H13D 1_555 1_555
C16A H13A 1_555 1_555
C17E C16E 1_555 1_555
C17D C16D 1_555 1_555
C17A C16A 1_555 1_555
H14E C17E 1_555 1_555
H14D C17D 1_555 1_555
H14A C17A 1_555 1_555
C18E C17E 1_555 1_555
C18D C17D 1_555 1_555
C18A C17A 1_555 1_555
H15E C18E 1_555 1_555
H15D C18D 1_555 1_555
H15A C18A 1_555 1_555
C19E C18E 1_555 1_555
C19D C18D 1_555 1_555
C19A C18A 1_555 1_555
H16E C19E 1_555 1_555
H16D C19D 1_555 1_555
H16A C19A 1_555 1_555
C20E C19E 1_555 1_555
C20D C19D 1_555 1_555
C20A C19A 1_555 1_555
C21E C16E 1_555 1_555
C21D C16D 1_555 1_555
C21A C16A 1_555 1_555
C22A C9A 1_555 1_555
C22E C9E 1_555 1_555
C22D C9D 1_555 1_555
C23A C14A 1_555 1_555
C23E C14E 1_555 1_555
C23D C14D 1_555 1_555
N4D C24D 1_555 1_555
N4A C24A 1_555 1_555
N4E C24E 1_555 1_555
C24D C25D 1_555 1_555
C24A C25A 1_555 1_555
C24E C25E 1_555 1_555
C25D H17D 1_555 1_555
C25A H17A 1_555 1_555
C25E H17E 1_555 1_555
C26D C25D 1_555 1_555
C26A C25A 1_555 1_555
C26E C25E 1_555 1_555
H18D C26D 1_555 1_555
H18A C26A 1_555 1_555
H18E C26E 1_555 1_555
C27D C26D 1_555 1_555
C27A C26A 1_555 1_555
C27E C26E 1_555 1_555
H19D C27D 1_555 1_555
H19A C27A 1_555 1_555
H19E C27E 1_555 1_555
C28D N4D 1_555 1_555
C28A N4A 1_555 1_555
C28E N4E 1_555 1_555
H20D C28D 1_555 1_555
H20A C28A 1_555 1_555
H20E C28E 1_555 1_555
N5A N6A 1_555 1_555
N5E N6E 1_555 1_555
N5D N6D 1_555 1_555
N6D Cu2D 1_555 1_555
N6A Cu2A 1_555 1_555
N6E Cu2E 1_555 1_555
C29D C24D 1_555 1_555
C29A C24A 1_555 1_555
C29E C24E 1_555 1_555
C30A C29A 1_555 1_555
C30E C29E 1_555 1_555
C30D C29D 1_555 1_555
H21A C30A 1_555 1_555
H21E C30E 1_555 1_555
H21D C30D 1_555 1_555
C31A N5A 1_555 1_555
C31E N5E 1_555 1_555
C31D N5D 1_555 1_555
H22A C31A 1_555 1_555
H22E C31E 1_555 1_555
H22D C31D 1_555 1_555
C32A C23A 1_555 1_555
C32E C23E 1_555 1_555
C32D C23D 1_555 1_555
H23E C32E 1_555 1_555
H23D C32D 1_555 1_555
H23A C32A 1_555 1_555
H24E C32E 1_555 1_555
H24D C32D 1_555 1_555
H24A C32A 1_555 1_555
N7E Cu1E 1_555 1_555
N7A Cu1A 1_555 1_555
N7D Cu1D 1_555 1_555
C33E N7E 1_555 1_555
C33A N7A 1_555 1_555
C33D N7D 1_555 1_555
C34E C33E 1_555 1_555
C34A C33A 1_555 1_555
C34D C33D 1_555 1_555
H25E C34E 1_555 1_555
H25A C34A 1_555 1_555
H25D C34D 1_555 1_555
C35E C34E 1_555 1_555
C35A C34A 1_555 1_555
C35D C34D 1_555 1_555
H26E C35E 1_555 1_555
H26A C35A 1_555 1_555
H26D C35D 1_555 1_555
C36E C35E 1_555 1_555
C36A C35A 1_555 1_555
C36D C35D 1_555 1_555
H27E C36E 1_555 1_555
H27A C36A 1_555 1_555
H27D C36D 1_555 1_555
C37E N7E 1_555 1_555
C37A N7A 1_555 1_555
C37D N7D 1_555 1_555
H28E C37E 1_555 1_555
H28A C37A 1_555 1_555
H28D C37D 1_555 1_555
N8E N9E 1_555 1_555
N8D N9D 1_555 1_555
N8A N9A 1_555 1_555
N9E Cu1E 1_555 1_555
N9A Cu1A 1_555 1_555
N9D Cu1D 1_555 1_555
C38E C33E 1_555 1_555
C38A C33A 1_555 1_555
C38D C33D 1_555 1_555
C39E C38E 1_555 1_555
C39D C38D 1_555 1_555
C39A C38A 1_555 1_555
H29E C39E 1_555 1_555
H29D C39D 1_555 1_555
H29A C39A 1_555 1_555
C40E N8E 1_555 1_555
C40D N8D 1_555 1_555
C40A N8A 1_555 1_555
H30E C40E 1_555 1_555
H30D C40D 1_555 1_555
H30A C40A 1_555 1_555
C41E N8E 1_555 1_555
C41D N8D 1_555 1_555
C41A N8A 1_555 1_555
H31E C41E 1_555 1_555
H31D C41D 1_555 1_555
H31A C41A 1_555 1_555
H32E C41E 1_555 1_555
H32D C41D 1_555 1_555
H32A C41A 1_555 1_555
C42E H33E 1_555 1_555
C42D H33D 1_555 1_555
C42A H33A 1_555 1_555
C43E C42E 1_555 1_555
C43D C42D 1_555 1_555
C43A C42A 1_555 1_555
H34E C43E 1_555 1_555
H34D C43D 1_555 1_555
H34A C43A 1_555 1_555
C44E C43E 1_555 1_555
C44D C43D 1_555 1_555
C44A C43A 1_555 1_555
H35E C44E 1_555 1_555
H35D C44D 1_555 1_555
H35A C44A 1_555 1_555
C45E C44E 1_555 1_555
C45D C44D 1_555 1_555
C45A C44A 1_555 1_555
H36E C45E 1_555 1_555
H36D C45D 1_555 1_555
H36A C45A 1_555 1_555
C46E C45E 1_555 1_555
C46D C45D 1_555 1_555
C46A C45A 1_555 1_555
C47E C42E 1_555 1_555
C47D C42D 1_555 1_555
C47A C42A 1_555 1_555
C48E H37E 1_555 1_555
C48D H37D 1_555 1_555
C48A H37A 1_555 1_555
C49E C48E 1_555 1_555
C49D C48D 1_555 1_555
C49A C48A 1_555 1_555
H38E C49E 1_555 1_555
H38D C49D 1_555 1_555
H38A C49A 1_555 1_555
C50E C49E 1_555 1_555
C50D C49D 1_555 1_555
C50A C49A 1_555 1_555
H39E C50E 1_555 1_555
H39D C50D 1_555 1_555
H39A C50A 1_555 1_555
C51E C50E 1_555 1_555
C51D C50D 1_555 1_555
C51A C50A 1_555 1_555
H40E C51E 1_555 1_555
H40D C51D 1_555 1_555
H40A C51A 1_555 1_555
C52E C51E 1_555 1_555
C52D C51D 1_555 1_555
C52A C51A 1_555 1_555
C53E C48E 1_555 1_555
C53D C48D 1_555 1_555
C53A C48A 1_555 1_555
C54E C41E 1_555 1_555
C54D C41D 1_555 1_555
C54A C41A 1_555 1_555
C55E C46E 1_555 1_555
C55D C46D 1_555 1_555
C55A C46A 1_555 1_555
C56E C55E 1_555 1_555
C56D C55D 1_555 1_555
C56A C55A 1_555 1_555
H41E C56E 1_555 1_555
H41D C56D 1_555 1_555
H41A C56A 1_555 1_555
H42E C56E 1_555 1_555
H42D C56D 1_555 1_555
H42A C56A 1_555 1_555
N10E Cu1E 1_555 1_555
N10A Cu1A 1_555 1_555
N10D Cu1D 1_555 1_555
C57E N10E 1_555 1_555
C57A N10A 1_555 1_555
C57D N10D 1_555 1_555
C58E C57E 1_555 1_555
C58A C57A 1_555 1_555
C58D C57D 1_555 1_555
H43E C58E 1_555 1_555
H43A C58A 1_555 1_555
H43D C58D 1_555 1_555
C59E C58E 1_555 1_555
C59A C58A 1_555 1_555
C59D C58D 1_555 1_555
H44E C59E 1_555 1_555
H44A C59A 1_555 1_555
H44D C59D 1_555 1_555
C60E C59E 1_555 1_555
C60A C59A 1_555 1_555
C60D C59D 1_555 1_555
H45E C60E 1_555 1_555
H45A C60A 1_555 1_555
H45D C60D 1_555 1_555
C61E N10E 1_555 1_555
C61A N10A 1_555 1_555
C61D N10D 1_555 1_555
H46E C61E 1_555 1_555
H46A C61A 1_555 1_555
H46D C61D 1_555 1_555
N11E Cu1E 1_555 1_555
N11A Cu1A 1_555 1_555
N11D Cu1D 1_555 1_555
C62E C57E 1_555 1_555
C62A C57A 1_555 1_555
C62D C57D 1_555 1_555
C63E C62E 1_555 1_555
C63A C62A 1_555 1_555
C63D C62D 1_555 1_555
H47E C63E 1_555 1_555
H47A C63A 1_555 1_555
H47D C63D 1_555 1_555
C64E C63E 1_555 1_555
C64A C63A 1_555 1_555
C64D C63D 1_555 1_555
H48E C64E 1_555 1_555
H48A C64A 1_555 1_555
H48D C64D 1_555 1_555
N12E N11E 1_555 1_555
N12A N11A 1_555 1_555
N12D N11D 1_555 1_555
C65E N12E 1_555 1_555
C65A N12A 1_555 1_555
C65D N12D 1_555 1_555
H49A C65A 1_555 1_555
H49D C65D 1_555 1_555
H49E C65E 1_555 1_555
H50A C65A 1_555 1_555
H50D C65D 1_555 1_555
H50E C65E 1_555 1_555
C66E H51E 1_555 1_555
C66A H51A 1_555 1_555
C66D H51D 1_555 1_555
C67E C67 1_555 1_555
C67A C66A 1_555 1_555
C67D C66D 1_555 1_555
H52A C67A 1_555 1_555
H52D C67D 1_555 1_555
H52E C67E 1_555 1_555
C68E C68 1_555 1_555
C68A C66A 1_555 1_555
C68D C66D 1_555 1_555
C69D C69A 1_555 1_555
C69A H53A 1_555 1_555
C69E C69 1_555 1_555
H53D C69D 1_555 1_555
H53E C69E 1_555 1_555
C70D C69D 1_555 1_555
C70A C69A 1_555 1_555
C70E C69E 1_555 1_555
H54A C70A 1_555 1_555
H54D C70D 1_555 1_555
H54E C70E 1_555 1_555
C71D C70D 1_555 1_555
C71A C70A 1_555 1_555
C71E C71 1_555 1_555
C72E C65E 1_555 1_555
C72A C65A 1_555 1_555
C72D C65D 1_555 1_555
N13D Cu2D 1_555 1_555
N13A Cu2A 1_555 1_555
N13E Cu2E 1_555 1_555
C73D N13D 1_555 1_555
C73A N13A 1_555 1_555
C73E N13E 1_555 1_555
C74D C73D 1_555 1_555
C74A C73A 1_555 1_555
C74E C73E 1_555 1_555
H55D C74D 1_555 1_555
H55A C74A 1_555 1_555
H55E C74E 1_555 1_555
C75D C74D 1_555 1_555
C75A C74A 1_555 1_555
C75E C74E 1_555 1_555
H56D C75D 1_555 1_555
H56A C75A 1_555 1_555
H56E C75E 1_555 1_555
C76D C75D 1_555 1_555
C76A C75A 1_555 1_555
C76E C75E 1_555 1_555
H57D C76D 1_555 1_555
H57A C76A 1_555 1_555
H57E C76E 1_555 1_555
C77D N13D 1_555 1_555
C77A N13A 1_555 1_555
C77E N13E 1_555 1_555
H58D C77D 1_555 1_555
H58A C77A 1_555 1_555
H58E C77E 1_555 1_555
N14D N15D 1_555 1_555
N14A N15A 1_555 1_555
N14E N15E 1_555 1_555
N15D Cu2D 1_555 1_555
N15A Cu2A 1_555 1_555
N15E Cu2E 1_555 1_555
C78D C73D 1_555 1_555
C78A C73A 1_555 1_555
C78E C73E 1_555 1_555
C79D C78D 1_555 1_555
C79A C78A 1_555 1_555
C79E C78E 1_555 1_555
H59D C79D 1_555 1_555
H59A C79A 1_555 1_555
H59E C79E 1_555 1_555
C80D N14D 1_555 1_555
C80A N14A 1_555 1_555
C80E N14E 1_555 1_555
H60D C80D 1_555 1_555
H60A C80A 1_555 1_555
H60E C80E 1_555 1_555
C81D N14D 1_555 1_555
C81A N14A 1_555 1_555
C81E N14E 1_555 1_555
H61D C81D 1_555 1_555
H61E C81E 1_555 1_555
H61A C81A 1_555 1_555
H62D C81D 1_555 1_555
H62E C81E 1_555 1_555
H62A C81A 1_555 1_555
C82D H63D 1_555 1_555
C82A H63A 1_555 1_555
C82E H63E 1_555 1_555
C83D C82D 1_555 1_555
C83A C82A 1_555 1_555
C83E C83 1_555 1_555
H64E C83E 1_555 1_555
H64A C83A 1_555 1_555
H64D C83D 1_555 1_555
C84D C82D 1_555 1_555
C84A C82A 1_555 1_555
C84E C84 1_555 1_555
C85E C85 1_555 1_555
C85A C85D 1_555 1_555
C85D H65D 1_555 1_555
H65E C85E 1_555 1_555
H65A C85A 1_555 1_555
C86E C85E 1_555 1_555
C86A C85A 1_555 1_555
C86D C85D 1_555 1_555
H66E C86E 1_555 1_555
H66A C86A 1_555 1_555
H66D C86D 1_555 1_555
C87E C87 1_555 1_555
C87A C86A 1_555 1_555
C87D C86D 1_555 1_555
C88D C81D 1_555 1_555
C88A C81A 1_555 1_555
C88E C81E 1_555 1_555
N16D Cu2D 1_555 1_555
N16A Cu2A 1_555 1_555
N16E Cu2E 1_555 1_555
C89D N16D 1_555 1_555
C89A N16A 1_555 1_555
C89E N16E 1_555 1_555
C90D C89D 1_555 1_555
C90A C89A 1_555 1_555
C90E C89E 1_555 1_555
H67D C90D 1_555 1_555
H67A C90A 1_555 1_555
H67E C90E 1_555 1_555
C91D C90D 1_555 1_555
C91A C90A 1_555 1_555
C91E C90E 1_555 1_555
H68D C91D 1_555 1_555
H68A C91A 1_555 1_555
H68E C91E 1_555 1_555
C92D C91D 1_555 1_555
C92A C91A 1_555 1_555
C92E C91E 1_555 1_555
H69D C92D 1_555 1_555
H69A C92A 1_555 1_555
H69E C92E 1_555 1_555
C93D N16D 1_555 1_555
C93A N16A 1_555 1_555
C93E N16E 1_555 1_555
H70D C93D 1_555 1_555
H70A C93A 1_555 1_555
H70E C93E 1_555 1_555
N17E C56E 1_555 1_555
N17D C56D 1_555 1_555
N17A N18 1_555 1_555
N18D Cu2D 1_555 1_555
N18A N17 1_555 1_555
N18E Cu2E 1_555 1_555
C94D C89D 1_555 1_555
C94A C89A 1_555 1_555
C94E C89E 1_555 1_555
C95D C94D 1_555 1_555
C95A C96 1_555 1_555
C95E C94E 1_555 1_555
H71D C95D 1_555 1_555
H71A C95A 1_555 1_555
H71E C95E 1_555 1_555
C96E N17E 1_555 1_555
C96D N17D 1_555 1_555
C96A C95 1_555 1_555
H72E C96E 1_555 1_555
H72D C96D 1_555 1_555
H72A C96A 1_555 1_555
C4 C5 1_555 1_555
N3 C6 1_555 1_555
C7 C8 1_555 1_555
C14 C15 1_555 1_555
C15 C22 1_555 1_555
C20 C21 1_555 1_555
C20 C22 1_555 1_555
C21 C23 1_555 1_555
C27 C28 1_555 1_555
N5 C32 1_555 1_555
N6 C29 1_555 1_555
C30 C31 1_555 1_555
C36 C37 1_555 1_555
N9 C38 1_555 1_555
C39 C40 1_555 1_555
C46 C47 1_555 1_555
C47 C54 1_555 1_555
C52 C53 1_555 1_555
C52 C54 1_555 1_555
C53 C55 1_555 1_555
C60 C61 1_555 1_555
N11 C62 1_555 1_555
C64 N12 1_555 1_555
C68 C72 1_555 1_555
C71 C72 1_555 1_555
C76 C77 1_555 1_555
N15 C78 1_555 1_555
C79 C80 1_555 1_555
C84 C88 1_555 1_555
C87 C88 1_555 1_555
C92 C93 1_555 1_555
N18 C94 1_555 1_555
Cu2A N18A 1_555 1_555
C4E C5E 1_555 1_555
C4A C5A 1_555 1_555
C4D C5D 1_555 1_555
N3E C6E 1_555 1_555
N3A C6A 1_555 1_555
N3D C6D 1_555 1_555
C7A C8A 1_555 1_555
C7E C8E 1_555 1_555
C7D C8D 1_555 1_555
C14A C15A 1_555 1_555
C14E C15E 1_555 1_555
C14D C15D 1_555 1_555
C15A C22A 1_555 1_555
C15E C22E 1_555 1_555
C15D C22D 1_555 1_555
C20E C21E 1_555 1_555
C20E C22E 1_555 1_555
C20D C21D 1_555 1_555
C20D C22D 1_555 1_555
C20A C21A 1_555 1_555
C20A C22A 1_555 1_555
C21E C23E 1_555 1_555
C21D C23D 1_555 1_555
C21A C23A 1_555 1_555
C27D C28D 1_555 1_555
C27A C28A 1_555 1_555
C27E C28E 1_555 1_555
N5A C32A 1_555 1_555
N5E C32E 1_555 1_555
N5D C32D 1_555 1_555
N6D C29D 1_555 1_555
N6A C29A 1_555 1_555
N6E C29E 1_555 1_555
C30A C31A 1_555 1_555
C30E C31E 1_555 1_555
C30D C31D 1_555 1_555
C36E C37E 1_555 1_555
C36A C37A 1_555 1_555
C36D C37D 1_555 1_555
N9E C38E 1_555 1_555
N9A C38A 1_555 1_555
N9D C38D 1_555 1_555
C39E C40E 1_555 1_555
C39D C40D 1_555 1_555
C39A C40A 1_555 1_555
C46E C47E 1_555 1_555
C46D C47D 1_555 1_555
C46A C47A 1_555 1_555
C47E C54E 1_555 1_555
C47D C54D 1_555 1_555
C47A C54A 1_555 1_555
C52E C53E 1_555 1_555
C52E C54E 1_555 1_555
C52D C53D 1_555 1_555
C52D C54D 1_555 1_555
C52A C53A 1_555 1_555
C52A C54A 1_555 1_555
C53E C55E 1_555 1_555
C53D C55D 1_555 1_555
C53A C55A 1_555 1_555
C56A N17A 1_555 1_555
C60E C61E 1_555 1_555
C60A C61A 1_555 1_555
C60D C61D 1_555 1_555
N11E C62E 1_555 1_555
N11A C62A 1_555 1_555
N11D C62D 1_555 1_555
C64E N12E 1_555 1_555
C64A N12A 1_555 1_555
C64D N12D 1_555 1_555
C66E C67E 1_555 1_555
C66E C68E 1_555 1_555
C67A C67D 1_555 1_555
C68E C72E 1_555 1_555
C68A C68D 1_555 1_555
C68A C72A 1_555 1_555
C68D C72D 1_555 1_555
C70E C71E 1_555 1_555
C71D C71A 1_555 1_555
C71D C72D 1_555 1_555
C71A C72A 1_555 1_555
C71E C72E 1_555 1_555
C76D C77D 1_555 1_555
C76A C77A 1_555 1_555
C76E C77E 1_555 1_555
N15D C78D 1_555 1_555
N15A C78A 1_555 1_555
N15E C78E 1_555 1_555
C79D C80D 1_555 1_555
C79A C80A 1_555 1_555
C79E C80E 1_555 1_555
C82E C83E 1_555 1_555
C82E C84E 1_555 1_555
C83D C83A 1_555 1_555
C84D C84A 1_555 1_555
C84D C88D 1_555 1_555
C84A C88A 1_555 1_555
C84E C88E 1_555 1_555
C86E C87E 1_555 1_555
C87E C88E 1_555 1_555
C87A C87D 1_555 1_555
C87A C88A 1_555 1_555
C87D C88D 1_555 1_555
C92D C93D 1_555 1_555
C92A C93A 1_555 1_555
C92E C93E 1_555 1_555
N17E N18D 1_555 1_555
N17D N18E 1_555 1_555
N17A C96A 1_555 1_555
N18D C94D 1_555 1_555
N18A C94A 1_555 1_555
N18E C94E 1_555 1_555
C94A C95A 1_555 1_555
C95D C96E 1_555 1_555
C95E C96D 1_555 1_555

#END
