
#######################################################################
#
#                 Cambridge Crystallographic Data Centre
#                                CCDC 
#
#######################################################################
#
# If this CIF has been generated from an entry in the Cambridge 
# Structural Database, then it will include bibliographic, chemical, 
# crystal, experimental, refinement or atomic coordinate data resulting 
# from the CCDC's data processing and validation procedures.
#
#######################################################################

data_NOLVEQ
_chemical_formula_moiety         
'C336 H264 Co8 N72 16+,16(B1 F4 1-),6(C1 H4 O1)'
_chemical_name_systematic        
'dodecakis(\m~2~-1,5-bis(3-(2-Pyridyl)-1-pyrazolylmethyl)naphthalene)-octa-cobalt(ii) hexadecakis(tetrafluoroborate) methanol unknown solvate'
_symmetry_cell_setting           monoclinic
_symmetry_space_group_name_H-M   'C 2/c'
_symmetry_Int_Tables_number      15
_space_group_name_Hall           '-C 2yn'
loop_
_symmetry_equiv_pos_site_id
_symmetry_equiv_pos_as_xyz
1 x,y,z
2 -x,y,1/2-z
3 1/2+x,1/2+y,z
4 1/2-x,1/2+y,1/2-z
5 -x,-y,-z
6 x,-y,1/2+z
7 1/2-x,1/2-y,-z
8 1/2+x,1/2-y,1/2+z
_cell_length_a                   32.9366(13)
_cell_length_b                   29.9278(12)
_cell_length_c                   39.8346(15)
_cell_angle_alpha                90
_cell_angle_beta                 96.502(2)
_cell_angle_gamma                90
_cell_volume                     39013.2
_exptl_crystal_colour            orange
_exptl_crystal_description       block
_cell_formula_units_Z            4
loop_
_atom_site_label
_atom_site_type_symbol
_atom_site_fract_x
_atom_site_fract_y
_atom_site_fract_z
B2 B 0.13181(16) 0.33662(18) 0.04994(14)
F5 F 0.13203(15) 0.29204(15) 0.05872(13)
F6 F 0.16505(13) 0.34194(17) 0.02898(12)
F7 F 0.09657(13) 0.34609(16) 0.02853(11)
F8 F 0.13779(15) 0.36391(17) 0.07588(12)
B3 B 0.99033(18) 0.0601(2) 0.15236(15)
F9 F 1.02329(9) 0.05693(11) 0.13410(8)
F10 F 1.00265(9) 0.08040(10) 0.18376(7)
F11 F 0.97595(10) 0.01690(10) 0.15869(8)
F12 F 0.95916(10) 0.08468(12) 0.13528(9)
B4 B 0.5582(3) 0.0390(3) 0.2163(2)
F13 F 0.5695(5) 0.0796(4) 0.2334(3)
F14 F 0.5228(3) 0.0215(4) 0.2284(3)
F15 F 0.5484(3) 0.0495(3) 0.1808(2)
F16 F 0.5901(3) 0.0084(4) 0.2200(3)
B5 B 0.3553(2) 0.2746(3) 0.16142(19)
F17 F 0.3363(2) 0.2463(2) 0.14014(16)
F18 F 0.39409(16) 0.2585(2) 0.17431(16)
F19 F 0.36100(16) 0.31578(17) 0.14753(13)
F20 F 0.33407(18) 0.2811(2) 0.18958(14)
O1 O 0.15484(15) 0.20101(18) 0.98642(13)
C1 C 0.1764(4) 0.2414(4) 0.9978(3)
H1 H 0.1567 0.2641 1.0031
H2 H 0.1919 0.2525 0.9799
H3 H 0.1953 0.2348 1.0180
O2 O 0.2510(4) 0.1582(4) 0.0235(3)
C2 C 0.2105(2) 0.1375(2) 0.01428(18)
H4 H 0.2050 0.1159 0.0317
H5 H 0.2102 0.1223 -0.0075
H6 H 0.1894 0.1608 0.0126
O3 O 0.9227(3) 0.3030(4) 0.1286(3)
C3 C 0.9441(5) 0.3434(5) 0.1239(4)
H7 H 0.9271 0.3629 0.1083
H8 H 0.9696 0.3365 0.1144
H9 H 0.9504 0.3586 0.1456
Co1 Co 0.14458(2) 0.21568(3) 0.223635(19)
Co2 Co -0.01358(2) 0.15824(3) -0.036427(19)
Co3 Co 0.40155(2) 0.01770(3) 0.13830(2)
Co4 Co 0.26621(2) 0.54207(3) 0.11517(2)
N1 N 0.18872(14) 0.17297(17) 0.25061(12)
C4 C 0.18675(16) 0.1290(2) 0.24138(14)
C5 C 0.21545(18) 0.0971(2) 0.25488(15)
H10 H 0.2136 0.0667 0.2481
C6 C 0.2463(2) 0.1120(3) 0.27839(16)
H11 H 0.2661 0.0915 0.2883
C7 C 0.24871(18) 0.1565(2) 0.28770(16)
H12 H 0.2704 0.1668 0.3036
C8 C 0.21939(18) 0.1855(2) 0.27367(15)
H13 H 0.2209 0.2159 0.2806
N2 N 0.10028(14) 0.13083(18) 0.18049(12)
N3 N 0.13056(14) 0.15105(16) 0.20149(12)
C9 C 0.15332(18) 0.1171(2) 0.21587(15)
C10 C 0.1388(2) 0.0762(2) 0.20458(16)
H14 H 0.1495 0.0476 0.2109
C11 C 0.1044(2) 0.0862(2) 0.18149(17)
H15 H 0.0873 0.0652 0.1689
C12 C 0.07079(17) 0.1559(2) 0.15884(14)
H16 H 0.0641 0.1836 0.1707
H17 H 0.0454 0.1381 0.1545
N4 N -0.05760(14) 0.18967(17) -0.07279(12)
C13 C -0.05804(17) 0.2351(2) -0.07199(16)
C14 C -0.08699(19) 0.2592(2) -0.09229(18)
H18 H -0.0874 0.2909 -0.0910
C15 C -0.1150(2) 0.2372(3) -0.1143(2)
H19 H -0.1348 0.2537 -0.1285
C16 C -0.1147(2) 0.1912(3) -0.11612(19)
H20 H -0.1336 0.1756 -0.1317
C17 C -0.08611(19) 0.1686(2) -0.09459(17)
H21 H -0.0863 0.1369 -0.0950
N5 N 0.02664(14) 0.25624(16) -0.01218(12)
N6 N 0.00044(13) 0.22786(16) -0.03095(11)
C18 C -0.02711(17) 0.2552(2) -0.04868(15)
C19 C -0.01869(18) 0.2997(2) -0.04099(16)
H22 H -0.0335 0.3251 -0.0499
C20 C 0.0158(2) 0.2994(2) -0.01753(16)
H23 H 0.0292 0.3248 -0.0072
C21 C 0.05913(17) 0.2398(2) 0.01229(14)
H24 H 0.0813 0.2623 0.0151
H25 H 0.0705 0.2122 0.0034
C22 C 0.08513(17) 0.1685(2) 0.12532(15)
C23 C 0.12244(18) 0.1549(2) 0.11668(15)
H26 H 0.1395 0.1367 0.1319
C24 C 0.13572(17) 0.1673(2) 0.08634(15)
H27 H 0.1619 0.1581 0.0813
C25 C 0.11177(16) 0.1925(2) 0.06368(15)
H28 H 0.1218 0.2013 0.0432
C26 C 0.07237(15) 0.20568(19) 0.07001(14)
C27 C 0.05890(16) 0.1947(2) 0.10239(14)
C28 C 0.04548(17) 0.22977(19) 0.04660(14)
C29 C 0.00758(18) 0.2437(2) 0.05419(15)
H29 H -0.0103 0.2596 0.0380
C30 C -0.00407(18) 0.2339(2) 0.08628(16)
H30 H -0.0298 0.2439 0.0919
C31 C 0.02071(17) 0.2104(2) 0.10934(15)
H31 H 0.0119 0.2044 0.1308
N7 N 0.10528(13) 0.25667(16) 0.19033(11)
C32 C 0.12075(17) 0.27205(19) 0.16263(14)
C33 C 0.09899(18) 0.2970(2) 0.13814(16)
H32 H 0.1110 0.3070 0.1189
C34 C 0.0583(2) 0.3073(2) 0.14242(18)
H33 H 0.0419 0.3240 0.1258
C35 C 0.0426(2) 0.2929(2) 0.17122(17)
H34 H 0.0154 0.3005 0.1750
C36 C 0.06641(17) 0.2675(2) 0.19438(16)
H35 H 0.0552 0.2571 0.2139
N8 N 0.22353(14) 0.23528(16) 0.17822(12)
N9 N 0.18469(14) 0.23752(15) 0.18629(12)
C37 C 0.16414(18) 0.26071(19) 0.16133(14)
C38 C 0.1896(2) 0.2719(2) 0.13647(16)
H36 H 0.1825 0.2879 0.1161
C39 C 0.22587(19) 0.2549(2) 0.14797(15)
H37 H 0.2497 0.2564 0.1367
C40 C 0.25522(16) 0.20848(19) 0.19644(15)
H38 H 0.2528 0.2105 0.2209
H39 H 0.2822 0.2207 0.1925
N10 N 0.45390(10) -0.02272(13) 0.15797(10)
C41 C 0.44737(10) -0.04854(16) 0.18587(10)
C42 C 0.47730(12) -0.07819(16) 0.19948(11)
H40 H 0.4728 -0.0958 0.2185
C43 C 0.51374(11) -0.08203(16) 0.18521(13)
H41 H 0.5342 -0.1023 0.1945
C44 C 0.52026(10) -0.05620(18) 0.15731(12)
H42 H 0.5452 -0.0588 0.1476
C45 C 0.49034(11) -0.02655(16) 0.14369(10)
H43 H 0.4948 -0.0089 0.1246
N11 N 0.34701(14) -0.02051(16) 0.19704(12)
N12 N 0.38192(14) -0.01455(16) 0.18182(12)
C46 C 0.40872(17) -0.0447(2) 0.19693(15)
C47 C 0.39062(18) -0.0692(2) 0.22119(15)
H44 H 0.4028 -0.0925 0.2350
C48 C 0.3520(2) -0.0529(2) 0.22097(15)
H45 H 0.3322 -0.0624 0.2350
C49 C 0.31114(16) 0.00670(19) 0.18768(15)
H46 H 0.2874 -0.0078 0.1963
H47 H 0.3058 0.0075 0.1627
C50 C 0.25289(16) 0.1599(2) 0.18580(14)
C51 C 0.22149(17) 0.1451(2) 0.16317(15)
H48 H 0.2014 0.1656 0.1536
C52 C 0.21874(17) 0.0992(2) 0.15393(16)
H49 H 0.1962 0.0892 0.1388
C53 C 0.24771(16) 0.0695(2) 0.16641(14)
H50 H 0.2451 0.0388 0.1604
C54 C 0.28184(17) 0.08441(19) 0.18848(14)
C55 C 0.28419(16) 0.1292(2) 0.19896(14)
C56 C 0.31429(17) 0.0542(2) 0.20067(14)
C57 C 0.34587(17) 0.0687(2) 0.22229(14)
H51 H 0.3670 0.0484 0.2302
C58 C 0.34819(18) 0.1140(2) 0.23368(14)
H52 H 0.3705 0.1234 0.2493
C59 C 0.31815(17) 0.1442(2) 0.22207(15)
H53 H 0.3199 0.1745 0.2292
N13 N 0.09840(14) 0.20173(18) 0.25817(12)
C60 C 0.09756(18) 0.2304(2) 0.28390(16)
C61 C 0.07130(19) 0.2253(2) 0.30806(16)
H54 H 0.0708 0.2466 0.3257
C62 C 0.0455(2) 0.1886(3) 0.30637(18)
H55 H 0.0276 0.1845 0.3232
C63 C 0.0457(2) 0.1577(3) 0.28028(17)
H56 H 0.0286 0.1321 0.2787
C64 C 0.07268(18) 0.1668(3) 0.25647(16)
H57 H 0.0728 0.1469 0.2379
N14 N 0.17785(15) 0.30318(18) 0.26880(13)
N15 N 0.15277(14) 0.26744(17) 0.26041(12)
C65 C 0.12743(18) 0.2666(2) 0.28470(15)
C66 C 0.1360(2) 0.3008(2) 0.30804(16)
H58 H 0.1224 0.3071 0.3273
C67 C 0.1681(2) 0.3235(2) 0.29726(15)
H59 H 0.1813 0.3489 0.3078
C68 C 0.20684(17) 0.3185(2) 0.24618(15)
H60 H 0.2188 0.2924 0.2357
H61 H 0.2293 0.3351 0.2594
N16 N 0.30037(14) 0.54439(18) 0.07262(12)
C69 C 0.29482(17) 0.5095(2) 0.05137(15)
C70 C 0.31264(18) 0.5070(2) 0.02148(15)
H62 H 0.3084 0.4815 0.0073
C71 C 0.3362(2) 0.5416(3) 0.01287(17)
H63 H 0.3490 0.5405 -0.0074
C72 C 0.3414(2) 0.5780(3) 0.03377(18)
H64 H 0.3568 0.6030 0.0278
C73 C 0.3236(2) 0.5777(3) 0.06403(17)
H65 H 0.3283 0.6024 0.0790
N17 N 0.22051(14) 0.44601(17) 0.08673(12)
N18 N 0.24606(13) 0.48224(16) 0.08731(11)
C74 C 0.26601(17) 0.4754(2) 0.06035(14)
C75 C 0.25378(18) 0.4363(2) 0.04324(16)
H66 H 0.2634 0.4247 0.0234
C76 C 0.22483(18) 0.4183(2) 0.06120(15)
H67 H 0.2105 0.3911 0.0564
C77 C 0.19410(17) 0.4374(2) 0.11386(15)
H68 H 0.1684 0.4231 0.1038
H69 H 0.1869 0.4662 0.1238
C78 C 0.18595(17) 0.3490(2) 0.21830(15)
C79 C 0.14608(18) 0.3601(2) 0.21770(16)
H70 H 0.1302 0.3480 0.2340
C80 C 0.12847(18) 0.3894(2) 0.19304(16)
H71 H 0.1008 0.3981 0.1935
C81 C 0.14963(17) 0.4061(2) 0.16810(16)
H72 H 0.1370 0.4261 0.1516
C82 C 0.19118(17) 0.3926(2) 0.16753(15)
C83 C 0.20997(17) 0.3645(2) 0.19326(15)
C84 C 0.21449(17) 0.4075(2) 0.14168(15)
C85 C 0.25421(18) 0.3948(2) 0.14236(16)
H73 H 0.2697 0.4048 0.1251
C86 C 0.27252(19) 0.3673(2) 0.16803(17)
H74 H 0.3004 0.3589 0.1682
C87 C 0.25118(17) 0.3525(2) 0.19241(17)
H75 H 0.2641 0.3336 0.2095
N19 N -0.05305(14) 0.16416(16) 0.00383(12)
C88 C -0.03878(16) 0.1444(2) 0.03364(15)
C89 C -0.05977(18) 0.1460(2) 0.06170(15)
H76 H -0.0495 0.1311 0.0820
C90 C -0.0958(2) 0.1694(2) 0.05970(18)
H77 H -0.1106 0.1710 0.0788
C91 C -0.11044(19) 0.1904(2) 0.03024(19)
H78 H -0.1349 0.2074 0.0290
C92 C -0.08866(18) 0.1865(2) 0.00178(17)
H79 H -0.0993 0.1997 -0.0190
N20 N 0.00187(16) 0.12452(19) 0.03436(14)
N21 N 0.02187(13) 0.13057(15) 0.00700(11)
C93 C 0.05931(13) 0.11168(15) 0.01550(11)
C94 C 0.06204(17) 0.09389(19) 0.04647(15)
H80 H 0.0851 0.0787 0.0575
C95 C 0.02566(18) 0.1014(2) 0.05960(15)
H81 H 0.0185 0.0927 0.0811
C96 C 0.08964(16) 0.11123(19) -0.00743(14)
H82 H 0.1171 0.1113 0.0056
H83 H 0.0871 0.1388 -0.0213
C97 C 0.08593(15) 0.07020(19) -0.03107(14)
C98 C 0.06087(17) 0.03529(19) -0.02678(15)
H84 H 0.0449 0.0353 -0.0083
C99 C 0.05824(17) -0.0003(2) -0.04899(16)
H85 H 0.0410 -0.0249 -0.0452
C100 C 0.07980(17) -0.0010(2) -0.07620(15)
H86 H 0.0769 -0.0255 -0.0915
C101 C 0.10655(15) 0.0348(2) -0.08189(15)
C102 C 0.11000(15) 0.07098(19) -0.05902(14)
C103 C 0.12854(17) 0.0366(2) -0.11061(15)
C104 C 0.15196(17) 0.0729(2) -0.11586(16)
H87 H 0.1660 0.0742 -0.1354
C105 C 0.15550(17) 0.1087(2) -0.09248(16)
H88 H 0.1717 0.1339 -0.0967
C106 C 0.13607(15) 0.10753(19) -0.06412(15)
H89 H 0.1399 0.1309 -0.0479
C107 C 0.12561(18) -0.0020(2) -0.13488(17)
H90 H 0.1313 -0.0301 -0.1221
H91 H 0.0974 -0.0037 -0.1464
N22 N -0.03401(13) 0.09252(16) -0.05183(11)
C108 C -0.01989(17) 0.07625(19) -0.07983(14)
C109 C -0.03394(17) 0.0367(2) -0.09440(15)
H92 H -0.0231 0.0259 -0.1140
C110 C -0.06357(17) 0.0128(2) -0.08067(15)
H93 H -0.0740 -0.0141 -0.0909
C111 C -0.07777(18) 0.0289(2) -0.05180(15)
H94 H -0.0978 0.0128 -0.0414
C112 C -0.06276(17) 0.0681(2) -0.03829(15)
H95 H -0.0729 0.0789 -0.0184
N23 N 0.05078(13) 0.15930(16) -0.09605(12)
N24 N 0.02259(13) 0.14206(15) -0.07733(11)
C113 C 0.01072(17) 0.1040(2) -0.09365(14)
C114 C 0.03069(16) 0.0978(2) -0.12214(14)
H96 H 0.0275 0.0739 -0.1379
C115 C 0.05563(18) 0.1336(2) -0.12252(15)
H97 H 0.0737 0.1394 -0.1390
C116 C 0.07078(17) 0.2016(2) -0.08641(16)
H98 H 0.0984 0.2016 -0.0939
H99 H 0.0740 0.2041 -0.0615
C117 C 0.04750(16) 0.2420(2) -0.10124(15)
C118 C 0.01364(18) 0.2382(2) -0.12570(16)
H100 H 0.0045 0.2095 -0.1335
C119 C -0.00670(18) 0.2764(2) -0.13859(15)
H101 H -0.0286 0.2735 -0.1561
C120 C 0.00417(17) 0.3177(2) -0.12665(15)
H102 H -0.0113 0.3430 -0.1350
C121 C 0.03797(17) 0.3237(2) -0.10206(14)
C122 C 0.06038(17) 0.2855(2) -0.08978(14)
C123 C 0.04847(17) 0.3662(2) -0.08775(15)
C124 C 0.08166(18) 0.3695(2) -0.06370(16)
H103 H 0.0885 0.3978 -0.0539
C125 C 0.10590(18) 0.3319(2) -0.05318(17)
H104 H 0.1295 0.3355 -0.0373
C126 C 0.09556(18) 0.2911(2) -0.06568(15)
H105 H 0.1118 0.2659 -0.0584
N25 N 0.42080(14) 0.07627(18) 0.16509(12)
C127 C 0.39779(17) 0.1134(2) 0.15835(14)
C128 C 0.4088(2) 0.1544(2) 0.17178(16)
H106 H 0.3925 0.1799 0.1658
C129 C 0.4430(2) 0.1582(3) 0.19357(19)
H107 H 0.4508 0.1862 0.2034
C130 C 0.4669(2) 0.1202(3) 0.20148(18)
H108 H 0.4913 0.1221 0.2166
C131 C 0.45478(19) 0.0810(3) 0.18733(16)
H109 H 0.4709 0.0553 0.1932
N26 N 0.31443(13) 0.06672(16) 0.10627(12)
N27 N 0.35207(13) 0.06433(16) 0.12389(12)
C132 C 0.36034(17) 0.1060(2) 0.13533(14)
C133 C 0.32894(19) 0.1350(2) 0.12489(15)
H110 H 0.3275 0.1661 0.1295
C134 C 0.29979(19) 0.1088(2) 0.10599(16)
H111 H 0.2743 0.1187 0.0950
C135 C 0.29668(17) 0.0304(2) 0.08582(14)
H112 H 0.2666 0.0338 0.0830
H113 H 0.3033 0.0019 0.0978
C136 C 0.31170(16) 0.0281(2) 0.05086(15)
C137 C 0.33576(17) 0.0606(2) 0.04008(15)
H114 H 0.3417 0.0861 0.0539
C138 C 0.35213(18) 0.0579(2) 0.00929(16)
H115 H 0.3686 0.0814 0.0023
C139 C 0.34415(17) 0.0209(2) -0.01077(15)
H116 H 0.3562 0.0185 -0.0312
C140 C 0.31810(17) -0.0138(2) -0.00150(15)
C141 C 0.30050(16) -0.0098(2) 0.02989(14)
C142 C 0.30851(18) -0.0508(2) -0.02207(15)
C143 C 0.2834(2) -0.0833(2) -0.01289(15)
H117 H 0.2779 -0.1088 -0.0269
C144 C 0.26468(18) -0.0791(2) 0.01850(19)
H118 H 0.2462 -0.1012 0.0247
C145 C 0.27405(18) -0.0431(2) 0.03872(16)
H119 H 0.2623 -0.0406 0.0593
N28 N 0.38024(14) -0.03759(16) 0.10694(13)
C146 C 0.39531(17) -0.0403(2) 0.07694(16)
C147 C 0.38414(19) -0.0750(2) 0.05483(17)
H120 H 0.3947 -0.0758 0.0336
C148 C 0.3589(2) -0.1074(2) 0.06262(19)
H121 H 0.3517 -0.1312 0.0474
C149 C 0.3436(2) -0.1053(2) 0.09357(18)
H122 H 0.3258 -0.1279 0.1001
C150 C 0.35453(18) -0.0696(2) 0.11480(18)
H123 H 0.3434 -0.0678 0.1357
N29 N 0.46127(14) 0.05318(17) 0.08198(13)
N30 N 0.43116(13) 0.02780(17) 0.09364(13)
C151 C 0.42399(18) -0.0049(2) 0.07047(15)
C152 C 0.4480(2) -0.0001(2) 0.04464(17)
H124 H 0.4481 -0.0185 0.0252
C153 C 0.4715(2) 0.0362(2) 0.05255(16)
H125 H 0.4917 0.0478 0.0397
C154 C 0.02379(18) 0.4067(2) -0.09869(16)
H126 H -0.0048 0.4018 -0.0942
H127 H 0.0238 0.4106 -0.1234
N31 N 0.29169(16) 0.60473(19) 0.13611(12)
C155 C 0.2692(2) 0.6409(2) 0.12648(17)
C156 C 0.2849(2) 0.6847(2) 0.13412(18)
H128 H 0.2698 0.7101 0.1257
C157 C 0.3212(3) 0.6899(3) 0.1533(2)
H129 H 0.3317 0.7188 0.1591
C158 C 0.3425(2) 0.6515(3) 0.16423(18)
H130 H 0.3679 0.6540 0.1780
C159 C 0.3273(2) 0.6104(2) 0.15528(17)
H131 H 0.3426 0.5847 0.1630
N32 N 0.18661(18) 0.5922(2) 0.07483(14)
N33 N 0.22472(16) 0.59144(19) 0.09279(13)
C160 C 0.2308(2) 0.6336(2) 0.10515(17)
C161 C 0.1980(2) 0.6602(3) 0.0946(2)
H132 H 0.1948 0.6910 0.0994
C162 C 0.1706(3) 0.6332(3) 0.07564(19)
H133 H 0.1447 0.6421 0.0649
C163 C 0.32780(19) -0.0547(2) -0.05454(15)
H134 H 0.3578 -0.0572 -0.0491
H135 H 0.3222 -0.0270 -0.0679
N34 N 0.22841(14) 0.53125(18) 0.15485(12)
C164 C 0.24495(17) 0.5079(2) 0.18159(15)
C165 C 0.22251(19) 0.4948(2) 0.20714(16)
H136 H 0.2346 0.4770 0.2253
C166 C 0.1835(2) 0.5077(2) 0.20587(17)
H137 H 0.1678 0.4989 0.2234
C167 C 0.1657(2) 0.5334(2) 0.17968(17)
H138 H 0.1383 0.5435 0.1790
C168 C 0.18925(18) 0.5439(2) 0.15453(15)
H139 H 0.1772 0.5610 0.1359
N35 N 0.15431(15) 0.00221(19) -0.16025(13)
N36 N 0.30600(14) 0.50788(17) 0.15297(12)
C169 C 0.28868(18) 0.4970(2) 0.18066(15)
C170 C 0.31751(19) 0.4797(2) 0.20552(17)
H140 H 0.3134 0.4692 0.2274
C171 C 0.1472(2) 0.0186(3) -0.19100(19)
H141 H 0.1212 0.0279 -0.2015
Co1F Co 0.35542(2) 0.28432(3) -0.223635(19)
Co2F Co 0.51358(2) 0.34176(3) 0.036427(19)
Co3F Co 0.09845(2) 0.48230(3) -0.13830(2)
Co4F Co 0.23379(2) -0.04207(3) -0.11517(2)
N1F N 0.31128(14) 0.32703(17) -0.25061(12)
C4F C 0.31325(16) 0.3710(2) -0.24138(14)
C5F C 0.28455(18) 0.4029(2) -0.25488(15)
H10F H 0.2864 0.4333 -0.2481
C6F C 0.2537(2) 0.3880(3) -0.27839(16)
H11F H 0.2339 0.4085 -0.2883
C7F C 0.25129(18) 0.3435(2) -0.28770(16)
H12F H 0.2296 0.3332 -0.3036
C8F C 0.28061(18) 0.3145(2) -0.27367(15)
H13F H 0.2791 0.2841 -0.2806
N2F N 0.39972(14) 0.36917(18) -0.18049(12)
N3F N 0.36944(14) 0.34895(16) -0.20149(12)
C9F C 0.34668(18) 0.3829(2) -0.21587(15)
C10F C 0.3612(2) 0.4238(2) -0.20458(16)
H14F H 0.3505 0.4524 -0.2109
C11F C 0.3956(2) 0.4138(2) -0.18149(17)
H15F H 0.4127 0.4348 -0.1689
C12F C 0.42921(17) 0.3441(2) -0.15884(14)
H16F H 0.4359 0.3164 -0.1707
H17F H 0.4546 0.3619 -0.1545
N4F N 0.55760(14) 0.31033(17) 0.07279(12)
C13F C 0.55804(17) 0.2649(2) 0.07199(16)
C14F C 0.58699(19) 0.2408(2) 0.09229(18)
H18F H 0.5874 0.2091 0.0910
C15F C 0.6150(2) 0.2628(3) 0.1143(2)
H19F H 0.6348 0.2463 0.1285
C16F C 0.6147(2) 0.3088(3) 0.11612(19)
H20F H 0.6336 0.3244 0.1317
C17F C 0.58611(19) 0.3314(2) 0.09459(17)
H21F H 0.5863 0.3631 0.0950
N5F N 0.47336(14) 0.24376(16) 0.01218(12)
N6F N 0.49956(13) 0.27214(16) 0.03095(11)
C18F C 0.52711(17) 0.2448(2) 0.04868(15)
C19F C 0.51869(18) 0.2003(2) 0.04099(16)
H22F H 0.5335 0.1749 0.0499
C20F C 0.4842(2) 0.2006(2) 0.01753(16)
H23F H 0.4708 0.1752 0.0072
C21F C 0.44087(17) 0.2602(2) -0.01229(14)
H24F H 0.4187 0.2377 -0.0151
H25F H 0.4295 0.2878 -0.0034
C22F C 0.41487(17) 0.3315(2) -0.12532(15)
C23F C 0.37756(18) 0.3451(2) -0.11668(15)
H26F H 0.3605 0.3633 -0.1319
C24F C 0.36428(17) 0.3327(2) -0.08634(15)
H27F H 0.3381 0.3419 -0.0813
C25F C 0.38823(16) 0.3075(2) -0.06368(15)
H28F H 0.3782 0.2987 -0.0432
C26F C 0.42763(15) 0.29432(19) -0.07001(14)
C27F C 0.44110(16) 0.3053(2) -0.10239(14)
C28F C 0.45452(17) 0.27023(19) -0.04660(14)
C29F C 0.49242(18) 0.2563(2) -0.05419(15)
H29F H 0.5103 0.2404 -0.0380
C30F C 0.50407(18) 0.2661(2) -0.08628(16)
H30F H 0.5298 0.2561 -0.0919
C31F C 0.47929(17) 0.2896(2) -0.10934(15)
H31F H 0.4881 0.2956 -0.1308
N7F N 0.39472(13) 0.24333(16) -0.19033(11)
C32F C 0.37925(17) 0.22795(19) -0.16263(14)
C33F C 0.40101(18) 0.2030(2) -0.13814(16)
H32F H 0.3890 0.1930 -0.1189
C34F C 0.4417(2) 0.1927(2) -0.14242(18)
H33F H 0.4581 0.1760 -0.1258
C35F C 0.4574(2) 0.2071(2) -0.17122(17)
H34F H 0.4846 0.1995 -0.1750
C36F C 0.43359(17) 0.2325(2) -0.19438(16)
H35F H 0.4448 0.2429 -0.2139
N8F N 0.27647(14) 0.26472(16) -0.17822(12)
N9F N 0.31531(14) 0.26248(15) -0.18629(12)
C37F C 0.33586(18) 0.23929(19) -0.16133(14)
C38F C 0.3104(2) 0.2281(2) -0.13647(16)
H36F H 0.3175 0.2121 -0.1161
C39F C 0.27413(19) 0.2451(2) -0.14797(15)
H37F H 0.2503 0.2436 -0.1367
C40F C 0.24478(16) 0.29152(19) -0.19644(15)
H38F H 0.2472 0.2895 -0.2209
H39F H 0.2178 0.2793 -0.1925
N10F N 0.04610(10) 0.52272(13) -0.15797(10)
C41F C 0.05263(10) 0.54854(16) -0.18587(10)
C42F C 0.02270(12) 0.57819(16) -0.19948(11)
H40F H 0.0272 0.5958 -0.2185
C43F C -0.01374(11) 0.58203(16) -0.18521(13)
H41F H -0.0342 0.6023 -0.1945
C44F C -0.02026(10) 0.55620(18) -0.15731(12)
H42F H -0.0452 0.5588 -0.1476
C45F C 0.00966(11) 0.52655(16) -0.14369(10)
H43F H 0.0052 0.5089 -0.1246
N11F N 0.15299(14) 0.52051(16) -0.19704(12)
N12F N 0.11808(14) 0.51455(16) -0.18182(12)
C46F C 0.09128(17) 0.5447(2) -0.19693(15)
C47F C 0.10938(18) 0.5692(2) -0.22119(15)
H44F H 0.0972 0.5925 -0.2350
C48F C 0.1480(2) 0.5529(2) -0.22097(15)
H45F H 0.1678 0.5624 -0.2350
C49F C 0.18886(16) 0.49330(19) -0.18768(15)
H46F H 0.2126 0.5078 -0.1963
H47F H 0.1942 0.4925 -0.1627
C50F C 0.24711(16) 0.3401(2) -0.18580(14)
C51F C 0.27851(17) 0.3549(2) -0.16317(15)
H48F H 0.2986 0.3344 -0.1536
C52F C 0.28126(17) 0.4008(2) -0.15393(16)
H49F H 0.3038 0.4108 -0.1388
C53F C 0.25229(16) 0.4305(2) -0.16641(14)
H50F H 0.2549 0.4612 -0.1604
C54F C 0.21816(17) 0.41559(19) -0.18848(14)
C55F C 0.21581(16) 0.3708(2) -0.19896(14)
C56F C 0.18571(17) 0.4458(2) -0.20067(14)
C57F C 0.15413(17) 0.4313(2) -0.22229(14)
H51F H 0.1330 0.4516 -0.2302
C58F C 0.15181(18) 0.3860(2) -0.23368(14)
H52F H 0.1295 0.3766 -0.2493
C59F C 0.18185(17) 0.3558(2) -0.22207(15)
H53F H 0.1801 0.3255 -0.2292
N13F N 0.40160(14) 0.29827(18) -0.25817(12)
C60F C 0.40244(18) 0.2696(2) -0.28390(16)
C61F C 0.42870(19) 0.2747(2) -0.30806(16)
H54F H 0.4292 0.2534 -0.3257
C62F C 0.4545(2) 0.3114(3) -0.30637(18)
H55F H 0.4724 0.3155 -0.3232
C63F C 0.4543(2) 0.3423(3) -0.28028(17)
H56F H 0.4714 0.3679 -0.2787
C64F C 0.42732(18) 0.3332(3) -0.25647(16)
H57F H 0.4272 0.3531 -0.2379
N14F N 0.32215(15) 0.19682(18) -0.26880(13)
N15F N 0.34723(14) 0.23256(17) -0.26041(12)
C65F C 0.37257(18) 0.2334(2) -0.28470(15)
C66F C 0.3640(2) 0.1992(2) -0.30804(16)
H58F H 0.3776 0.1929 -0.3273
C67F C 0.3319(2) 0.1765(2) -0.29726(15)
H59F H 0.3187 0.1511 -0.3078
C68F C 0.29316(17) 0.1815(2) -0.24618(15)
H60F H 0.2812 0.2076 -0.2357
H61F H 0.2707 0.1649 -0.2594
N16F N 0.19963(14) -0.04439(18) -0.07262(12)
C69F C 0.20518(17) -0.0095(2) -0.05137(15)
C70F C 0.18736(18) -0.0070(2) -0.02148(15)
H62F H 0.1916 0.0185 -0.0073
C71F C 0.1638(2) -0.0416(3) -0.01287(17)
H63F H 0.1510 -0.0405 0.0074
C72F C 0.1586(2) -0.0780(3) -0.03377(18)
H64F H 0.1432 -0.1030 -0.0278
C73F C 0.1764(2) -0.0777(3) -0.06403(17)
H65F H 0.1717 -0.1024 -0.0790
N17F N 0.27949(14) 0.05399(17) -0.08673(12)
N18F N 0.25394(13) 0.01776(16) -0.08731(11)
C74F C 0.23399(17) 0.0246(2) -0.06035(14)
C75F C 0.24622(18) 0.0637(2) -0.04324(16)
H66F H 0.2366 0.0753 -0.0234
C76F C 0.27517(18) 0.0817(2) -0.06120(15)
H67F H 0.2895 0.1089 -0.0564
C77F C 0.30590(17) 0.0626(2) -0.11386(15)
H68F H 0.3316 0.0769 -0.1038
H69F H 0.3131 0.0338 -0.1238
C78F C 0.31405(17) 0.1510(2) -0.21830(15)
C79F C 0.35392(18) 0.1399(2) -0.21770(16)
H70F H 0.3698 0.1520 -0.2340
C80F C 0.37153(18) 0.1106(2) -0.19304(16)
H71F H 0.3992 0.1019 -0.1935
C81F C 0.35037(17) 0.0939(2) -0.16810(16)
H72F H 0.3630 0.0739 -0.1516
C82F C 0.30882(17) 0.1074(2) -0.16753(15)
C83F C 0.29003(17) 0.1355(2) -0.19326(15)
C84F C 0.28551(17) 0.0925(2) -0.14168(15)
C85F C 0.24579(18) 0.1052(2) -0.14236(16)
H73F H 0.2303 0.0952 -0.1251
C86F C 0.22748(19) 0.1327(2) -0.16803(17)
H74F H 0.1996 0.1411 -0.1682
C87F C 0.24882(17) 0.1475(2) -0.19241(17)
H75F H 0.2359 0.1664 -0.2095
N19F N 0.55305(14) 0.33584(16) -0.00383(12)
C88F C 0.53878(16) 0.3556(2) -0.03364(15)
C89F C 0.55977(18) 0.3540(2) -0.06170(15)
H76F H 0.5495 0.3689 -0.0820
C90F C 0.5958(2) 0.3306(2) -0.05970(18)
H77F H 0.6106 0.3290 -0.0788
C91F C 0.61044(19) 0.3096(2) -0.03024(19)
H78F H 0.6349 0.2926 -0.0290
C92F C 0.58866(18) 0.3135(2) -0.00178(17)
H79F H 0.5993 0.3003 0.0190
N20F N 0.49813(16) 0.37548(19) -0.03436(14)
N21F N 0.47813(13) 0.36943(15) -0.00700(11)
C93F C 0.44069(13) 0.38832(15) -0.01550(11)
C94F C 0.43796(17) 0.40611(19) -0.04647(15)
H80F H 0.4149 0.4213 -0.0575
C95F C 0.47434(18) 0.3986(2) -0.05960(15)
H81F H 0.4815 0.4073 -0.0811
C96F C 0.41036(16) 0.38877(19) 0.00743(14)
H82F H 0.3829 0.3887 -0.0056
H83F H 0.4129 0.3612 0.0213
C97F C 0.41407(15) 0.42980(19) 0.03107(14)
C98F C 0.43913(17) 0.46471(19) 0.02678(15)
H84F H 0.4551 0.4647 0.0083
C99F C 0.44176(17) 0.5003(2) 0.04899(16)
H85F H 0.4590 0.5249 0.0452
C100F C 0.42020(17) 0.5010(2) 0.07620(15)
H86F H 0.4231 0.5255 0.0915
C101F C 0.39345(15) 0.4652(2) 0.08189(15)
C102F C 0.39000(15) 0.42902(19) 0.05902(14)
C103F C 0.37146(17) 0.4634(2) 0.11061(15)
C104F C 0.34804(17) 0.4271(2) 0.11586(16)
H87F H 0.3340 0.4258 0.1354
C105F C 0.34450(17) 0.3913(2) 0.09248(16)
H88F H 0.3283 0.3661 0.0967
C106F C 0.36393(15) 0.39247(19) 0.06412(15)
H89F H 0.3601 0.3691 0.0479
C107F C 0.37439(18) 0.5020(2) 0.13488(17)
H90F H 0.3687 0.5301 0.1221
H91F H 0.4026 0.5037 0.1464
N22F N 0.53401(13) 0.40748(16) 0.05183(11)
C108F C 0.51989(17) 0.42375(19) 0.07983(14)
C109F C 0.53394(17) 0.4633(2) 0.09440(15)
H92F H 0.5231 0.4741 0.1140
C110F C 0.56357(17) 0.4872(2) 0.08067(15)
H93F H 0.5740 0.5141 0.0909
C111F C 0.57777(18) 0.4711(2) 0.05180(15)
H94F H 0.5978 0.4872 0.0414
C112F C 0.56276(17) 0.4319(2) 0.03829(15)
H95F H 0.5729 0.4211 0.0184
N23F N 0.44922(13) 0.34070(16) 0.09605(12)
N24F N 0.47741(13) 0.35794(15) 0.07733(11)
C113F C 0.48928(17) 0.3960(2) 0.09365(14)
C114F C 0.46931(16) 0.4022(2) 0.12214(14)
H96F H 0.4725 0.4261 0.1379
C115F C 0.44437(18) 0.3664(2) 0.12252(15)
H97F H 0.4263 0.3606 0.1390
C116F C 0.42922(17) 0.2984(2) 0.08641(16)
H98F H 0.4016 0.2984 0.0939
H99F H 0.4260 0.2959 0.0615
C117F C 0.45250(16) 0.2580(2) 0.10124(15)
C118F C 0.48636(18) 0.2618(2) 0.12570(16)
H100F H 0.4955 0.2905 0.1335
C119F C 0.50670(18) 0.2236(2) 0.13859(15)
H101F H 0.5286 0.2265 0.1561
C120F C 0.49583(17) 0.1823(2) 0.12665(15)
H102F H 0.5113 0.1570 0.1350
C121F C 0.46203(17) 0.1763(2) 0.10206(14)
C122F C 0.43962(17) 0.2145(2) 0.08978(14)
C123F C 0.45153(17) 0.1338(2) 0.08775(15)
C124F C 0.41834(18) 0.1305(2) 0.06370(16)
H103F H 0.4115 0.1022 0.0539
C125F C 0.39410(18) 0.1681(2) 0.05318(17)
H104F H 0.3705 0.1645 0.0373
C126F C 0.40444(18) 0.2089(2) 0.06568(15)
H105F H 0.3882 0.2341 0.0584
N25F N 0.07920(14) 0.42373(18) -0.16509(12)
C127F C 0.10221(17) 0.3866(2) -0.15835(14)
C128F C 0.0912(2) 0.3456(2) -0.17178(16)
H106F H 0.1075 0.3201 -0.1658
C129F C 0.0570(2) 0.3418(3) -0.19357(19)
H107F H 0.0492 0.3138 -0.2034
C130F C 0.0331(2) 0.3798(3) -0.20148(18)
H108F H 0.0087 0.3779 -0.2166
C131F C 0.04522(19) 0.4190(3) -0.18733(16)
H109F H 0.0291 0.4447 -0.1932
N26F N 0.18557(13) 0.43328(16) -0.10627(12)
N27F N 0.14793(13) 0.43567(16) -0.12389(12)
C132F C 0.13966(17) 0.3940(2) -0.13533(14)
C133F C 0.17106(19) 0.3650(2) -0.12489(15)
H110F H 0.1725 0.3339 -0.1295
C134F C 0.20021(19) 0.3912(2) -0.10599(16)
H111F H 0.2257 0.3813 -0.0950
C135F C 0.20332(17) 0.4696(2) -0.08582(14)
H112F H 0.2334 0.4662 -0.0830
H113F H 0.1967 0.4981 -0.0978
C136F C 0.18830(16) 0.4719(2) -0.05086(15)
C137F C 0.16424(17) 0.4394(2) -0.04008(15)
H114F H 0.1583 0.4139 -0.0539
C138F C 0.14787(18) 0.4421(2) -0.00929(16)
H115F H 0.1314 0.4186 -0.0023
C139F C 0.15585(17) 0.4791(2) 0.01077(15)
H116F H 0.1438 0.4815 0.0312
C140F C 0.18190(17) 0.5138(2) 0.00150(15)
C141F C 0.19950(16) 0.5098(2) -0.02989(14)
C142F C 0.19149(18) 0.5508(2) 0.02207(15)
C143F C 0.2166(2) 0.5833(2) 0.01289(15)
H117F H 0.2221 0.6088 0.0269
C144F C 0.23532(18) 0.5791(2) -0.01850(19)
H118F H 0.2538 0.6012 -0.0247
C145F C 0.22595(18) 0.5431(2) -0.03872(16)
H119F H 0.2377 0.5406 -0.0593
N28F N 0.11976(14) 0.53759(16) -0.10694(13)
C146F C 0.10469(17) 0.5403(2) -0.07694(16)
C147F C 0.11586(19) 0.5750(2) -0.05483(17)
H120F H 0.1053 0.5758 -0.0336
C148F C 0.1411(2) 0.6074(2) -0.06262(19)
H121F H 0.1483 0.6312 -0.0474
C149F C 0.1564(2) 0.6053(2) -0.09357(18)
H122F H 0.1742 0.6279 -0.1001
C150F C 0.14547(18) 0.5696(2) -0.11480(18)
H123F H 0.1566 0.5678 -0.1357
N29F N 0.03873(14) 0.44682(17) -0.08198(13)
N30F N 0.06884(13) 0.47220(17) -0.09364(13)
C151F C 0.07601(18) 0.5049(2) -0.07047(15)
C152F C 0.0520(2) 0.5001(2) -0.04464(17)
H124F H 0.0519 0.5185 -0.0252
C153F C 0.0285(2) 0.4638(2) -0.05255(16)
H125F H 0.0083 0.4522 -0.0397
C154F C 0.47621(18) 0.0933(2) 0.09869(16)
H126F H 0.5048 0.0982 0.0942
H127F H 0.4762 0.0894 0.1234
N31F N 0.20831(16) -0.10473(19) -0.13611(12)
C155F C 0.2308(2) -0.1409(2) -0.12648(17)
C156F C 0.2151(2) -0.1847(2) -0.13412(18)
H128F H 0.2302 -0.2101 -0.1257
C157F C 0.1788(3) -0.1899(3) -0.1533(2)
H129F H 0.1683 -0.2188 -0.1591
C158F C 0.1575(2) -0.1515(3) -0.16423(18)
H130F H 0.1321 -0.1540 -0.1780
C159F C 0.1727(2) -0.1104(2) -0.15528(17)
H131F H 0.1574 -0.0847 -0.1630
N32F N 0.31339(18) -0.0922(2) -0.07483(14)
N33F N 0.27528(16) -0.09144(19) -0.09279(13)
C160F C 0.2692(2) -0.1336(2) -0.10515(17)
C161F C 0.3020(2) -0.1602(3) -0.0946(2)
H132F H 0.3052 -0.1910 -0.0994
C162F C 0.3294(3) -0.1332(3) -0.07564(19)
H133F H 0.3553 -0.1421 -0.0649
C163F C 0.17220(19) 0.5547(2) 0.05454(15)
H134F H 0.1422 0.5572 0.0491
H135F H 0.1778 0.5270 0.0679
N34F N 0.27159(14) -0.03125(18) -0.15485(12)
C164F C 0.25505(17) -0.0079(2) -0.18159(15)
C165F C 0.27749(19) 0.0052(2) -0.20714(16)
H136F H 0.2654 0.0230 -0.2253
C166F C 0.3165(2) -0.0077(2) -0.20587(17)
H137F H 0.3322 0.0011 -0.2234
C167F C 0.3343(2) -0.0334(2) -0.17968(17)
H138F H 0.3617 -0.0435 -0.1790
C168F C 0.31075(18) -0.0439(2) -0.15453(15)
H139F H 0.3228 -0.0610 -0.1359
N35F N 0.34569(15) 0.49779(19) 0.16025(13)
N36F N 0.19400(14) -0.00788(17) -0.15297(12)
C169F C 0.21132(18) 0.0030(2) -0.18066(15)
C170F C 0.18249(19) 0.0203(2) -0.20552(17)
H140F H 0.1866 0.0308 -0.2274
C171F C 0.3528(2) 0.4814(3) 0.19100(19)
H141F H 0.3788 0.4721 0.2015
B1 B 0.17470(17) 0.0483(2) 0.06784(14)
F1 F 0.15268(9) 0.04872(11) 0.03629(7)
F2 F 0.20347(9) 0.08295(10) 0.07061(8)
F3 F 0.19544(10) 0.00748(10) 0.07313(9)
F4 F 0.14848(9) 0.05367(10) 0.09285(7)
loop_
_geom_bond_atom_site_label_1
_geom_bond_atom_site_label_2
_geom_bond_site_symmetry_1
_geom_bond_site_symmetry_2
B1 F1 1_555 1_555
F2 B1 1_555 1_555
F3 B1 1_555 1_555
F4 B1 1_555 1_555
B2 F5 1_555 1_555
F6 B2 1_555 1_555
F7 B2 1_555 1_555
F8 B2 1_555 1_555
B3 F9 1_555 1_555
F10 B3 1_555 1_555
F11 B3 1_555 1_555
F12 B3 1_555 1_555
B4 F13 1_555 1_555
F14 B4 1_555 1_555
F15 B4 1_555 1_555
F16 B4 1_555 1_555
B5 F17 1_555 1_555
F18 B5 1_555 1_555
F19 B5 1_555 1_555
F20 B5 1_555 1_555
O1 C1 1_555 1_555
C1 H1 1_555 1_555
H2 C1 1_555 1_555
H3 C1 1_555 1_555
O2 C2 1_555 1_555
C2 H4 1_555 1_555
H5 C2 1_555 1_555
H6 C2 1_555 1_555
O3 C3 1_555 1_555
C3 H7 1_555 1_555
H8 C3 1_555 1_555
H9 C3 1_555 1_555
Co1 N1 1_555 1_555
Co2 N4 1_555 1_555
Co3 N10 1_555 1_555
Co4 N16 1_555 1_555
N1 C4 1_555 1_555
C4 C5 1_555 1_555
C5 H10 1_555 1_555
C6 C5 1_555 1_555
H11 C6 1_555 1_555
C7 C6 1_555 1_555
H12 C7 1_555 1_555
C8 N1 1_555 1_555
H13 C8 1_555 1_555
N2 N3 1_555 1_555
N3 Co1 1_555 1_555
C9 C4 1_555 1_555
C10 C9 1_555 1_555
H14 C10 1_555 1_555
C11 N2 1_555 1_555
H15 C11 1_555 1_555
C12 N2 1_555 1_555
H16 C12 1_555 1_555
H17 C12 1_555 1_555
N4 C13 1_555 1_555
C13 C14 1_555 1_555
C14 H18 1_555 1_555
C15 C14 1_555 1_555
H19 C15 1_555 1_555
C16 C15 1_555 1_555
H20 C16 1_555 1_555
C17 N4 1_555 1_555
H21 C17 1_555 1_555
N5 N6 1_555 1_555
N6 Co2 1_555 1_555
C18 C13 1_555 1_555
C19 C18 1_555 1_555
H22 C19 1_555 1_555
C20 N5 1_555 1_555
H23 C20 1_555 1_555
C21 N5 1_555 1_555
H24 C21 1_555 1_555
H25 C21 1_555 1_555
C22 C12 1_555 1_555
C23 C22 1_555 1_555
H26 C23 1_555 1_555
C24 C23 1_555 1_555
H27 C24 1_555 1_555
C25 C24 1_555 1_555
H28 C25 1_555 1_555
C26 C25 1_555 1_555
C27 C22 1_555 1_555
C28 C21 1_555 1_555
C29 C28 1_555 1_555
H29 C29 1_555 1_555
C30 C29 1_555 1_555
H30 C30 1_555 1_555
C31 C27 1_555 1_555
H31 C31 1_555 1_555
N7 Co1 1_555 1_555
C32 N7 1_555 1_555
C33 C32 1_555 1_555
H32 C33 1_555 1_555
C34 C33 1_555 1_555
H33 C34 1_555 1_555
C35 C34 1_555 1_555
H34 C35 1_555 1_555
C36 N7 1_555 1_555
H35 C36 1_555 1_555
N8 N9 1_555 1_555
N9 Co1 1_555 1_555
C37 C32 1_555 1_555
C38 C37 1_555 1_555
H36 C38 1_555 1_555
C39 N8 1_555 1_555
H37 C39 1_555 1_555
C40 N8 1_555 1_555
H38 C40 1_555 1_555
H39 C40 1_555 1_555
N10 C41 1_555 1_555
C41 C42 1_555 1_555
C42 H40 1_555 1_555
C43 C42 1_555 1_555
H41 C43 1_555 1_555
C44 C43 1_555 1_555
H42 C44 1_555 1_555
C45 N10 1_555 1_555
H43 C45 1_555 1_555
N11 N12 1_555 1_555
N12 Co3 1_555 1_555
C46 C41 1_555 1_555
C47 C46 1_555 1_555
H44 C47 1_555 1_555
C48 N11 1_555 1_555
H45 C48 1_555 1_555
C49 N11 1_555 1_555
H46 C49 1_555 1_555
H47 C49 1_555 1_555
C50 C40 1_555 1_555
C51 C50 1_555 1_555
H48 C51 1_555 1_555
C52 C51 1_555 1_555
H49 C52 1_555 1_555
C53 C52 1_555 1_555
H50 C53 1_555 1_555
C54 C53 1_555 1_555
C55 C50 1_555 1_555
C56 C49 1_555 1_555
C57 C56 1_555 1_555
H51 C57 1_555 1_555
C58 C57 1_555 1_555
H52 C58 1_555 1_555
C59 C55 1_555 1_555
H53 C59 1_555 1_555
N13 Co1 1_555 1_555
C60 N13 1_555 1_555
C61 C60 1_555 1_555
H54 C61 1_555 1_555
C62 C61 1_555 1_555
H55 C62 1_555 1_555
C63 C62 1_555 1_555
H56 C63 1_555 1_555
C64 N13 1_555 1_555
H57 C64 1_555 1_555
N14 N15 1_555 1_555
N15 Co1 1_555 1_555
C65 C60 1_555 1_555
C66 C65 1_555 1_555
H58 C66 1_555 1_555
C67 N14 1_555 1_555
H59 C67 1_555 1_555
C68 N14 1_555 1_555
H60 C68 1_555 1_555
H61 C68 1_555 1_555
N16 C69 1_555 1_555
C69 C70 1_555 1_555
C70 H62 1_555 1_555
C71 C70 1_555 1_555
H63 C71 1_555 1_555
C72 C71 1_555 1_555
H64 C72 1_555 1_555
C73 N16 1_555 1_555
H65 C73 1_555 1_555
N17 N18 1_555 1_555
N18 Co4 1_555 1_555
C74 C69 1_555 1_555
C75 C74 1_555 1_555
H66 C75 1_555 1_555
C76 N17 1_555 1_555
H67 C76 1_555 1_555
C77 N17 1_555 1_555
H68 C77 1_555 1_555
H69 C77 1_555 1_555
C78 C68 1_555 1_555
C79 C78 1_555 1_555
H70 C79 1_555 1_555
C80 C79 1_555 1_555
H71 C80 1_555 1_555
C81 C80 1_555 1_555
H72 C81 1_555 1_555
C82 C81 1_555 1_555
C83 C78 1_555 1_555
C84 C77 1_555 1_555
C85 C84 1_555 1_555
H73 C85 1_555 1_555
C86 C85 1_555 1_555
H74 C86 1_555 1_555
C87 C83 1_555 1_555
H75 C87 1_555 1_555
N19 Co2 1_555 1_555
C88 N19 1_555 1_555
C89 C88 1_555 1_555
H76 C89 1_555 1_555
C90 C89 1_555 1_555
H77 C90 1_555 1_555
C91 C90 1_555 1_555
H78 C91 1_555 1_555
C92 N19 1_555 1_555
H79 C92 1_555 1_555
N20 C88 1_555 1_555
N21 Co2 1_555 1_555
C93 N21 1_555 1_555
C94 C93 1_555 1_555
H80 C94 1_555 1_555
C95 N20 1_555 1_555
H81 C95 1_555 1_555
C96 C93 1_555 1_555
H82 C96 1_555 1_555
H83 C96 1_555 1_555
C97 C96 1_555 1_555
C98 C97 1_555 1_555
H84 C98 1_555 1_555
C99 C98 1_555 1_555
H85 C99 1_555 1_555
C100 C99 1_555 1_555
H86 C100 1_555 1_555
C101 C100 1_555 1_555
C102 C97 1_555 1_555
C103 C101 1_555 1_555
C104 C103 1_555 1_555
H87 C104 1_555 1_555
C105 C104 1_555 1_555
H88 C105 1_555 1_555
C106 C102 1_555 1_555
H89 C106 1_555 1_555
C107 C103 1_555 1_555
H90 C107 1_555 1_555
H91 C107 1_555 1_555
N22 Co2 1_555 1_555
C108 N22 1_555 1_555
C109 C108 1_555 1_555
H92 C109 1_555 1_555
C110 C109 1_555 1_555
H93 C110 1_555 1_555
C111 C110 1_555 1_555
H94 C111 1_555 1_555
C112 N22 1_555 1_555
H95 C112 1_555 1_555
N23 N24 1_555 1_555
N24 Co2 1_555 1_555
C113 C108 1_555 1_555
C114 C113 1_555 1_555
H96 C114 1_555 1_555
C115 N23 1_555 1_555
H97 C115 1_555 1_555
C116 N23 1_555 1_555
H98 C116 1_555 1_555
H99 C116 1_555 1_555
C117 C116 1_555 1_555
C118 C117 1_555 1_555
H100 C118 1_555 1_555
C119 C118 1_555 1_555
H101 C119 1_555 1_555
C120 C119 1_555 1_555
H102 C120 1_555 1_555
C121 C120 1_555 1_555
C122 C117 1_555 1_555
C123 C121 1_555 1_555
C124 C123 1_555 1_555
H103 C124 1_555 1_555
C125 C124 1_555 1_555
H104 C125 1_555 1_555
C126 C122 1_555 1_555
H105 C126 1_555 1_555
N25 Co3 1_555 1_555
C127 N25 1_555 1_555
C128 C127 1_555 1_555
H106 C128 1_555 1_555
C129 C128 1_555 1_555
H107 C129 1_555 1_555
C130 C129 1_555 1_555
H108 C130 1_555 1_555
C131 N25 1_555 1_555
H109 C131 1_555 1_555
N26 N27 1_555 1_555
N27 Co3 1_555 1_555
C132 C127 1_555 1_555
C133 C132 1_555 1_555
H110 C133 1_555 1_555
C134 N26 1_555 1_555
H111 C134 1_555 1_555
C135 N26 1_555 1_555
H112 C135 1_555 1_555
H113 C135 1_555 1_555
C136 C135 1_555 1_555
C137 C136 1_555 1_555
H114 C137 1_555 1_555
C138 C137 1_555 1_555
H115 C138 1_555 1_555
C139 C138 1_555 1_555
H116 C139 1_555 1_555
C140 C139 1_555 1_555
C141 C136 1_555 1_555
C142 C140 1_555 1_555
C143 C142 1_555 1_555
H117 C143 1_555 1_555
C144 C143 1_555 1_555
H118 C144 1_555 1_555
C145 C141 1_555 1_555
H119 C145 1_555 1_555
N28 Co3 1_555 1_555
C146 N28 1_555 1_555
C147 C146 1_555 1_555
H120 C147 1_555 1_555
C148 C147 1_555 1_555
H121 C148 1_555 1_555
C149 C148 1_555 1_555
H122 C149 1_555 1_555
C150 N28 1_555 1_555
H123 C150 1_555 1_555
N29 N30 1_555 1_555
N30 Co3 1_555 1_555
C151 C146 1_555 1_555
C152 C151 1_555 1_555
H124 C152 1_555 1_555
C153 N29 1_555 1_555
H125 C153 1_555 1_555
C154 C123 1_555 1_555
H126 C154 1_555 1_555
H127 C154 1_555 1_555
N31 Co4 1_555 1_555
C155 N31 1_555 1_555
C156 C155 1_555 1_555
H128 C156 1_555 1_555
C157 C156 1_555 1_555
H129 C157 1_555 1_555
C158 C157 1_555 1_555
H130 C158 1_555 1_555
C159 N31 1_555 1_555
H131 C159 1_555 1_555
N32 N33 1_555 1_555
N33 Co4 1_555 1_555
C160 C155 1_555 1_555
C161 C160 1_555 1_555
H132 C161 1_555 1_555
C162 N32 1_555 1_555
H133 C162 1_555 1_555
C163 C142 1_555 1_555
H134 C163 1_555 1_555
H135 C163 1_555 1_555
N34 Co4 1_555 1_555
C164 N34 1_555 1_555
C165 C164 1_555 1_555
H136 C165 1_555 1_555
C166 C165 1_555 1_555
H137 C166 1_555 1_555
C167 C166 1_555 1_555
H138 C167 1_555 1_555
C168 N34 1_555 1_555
H139 C168 1_555 1_555
N35 C107 1_555 1_555
N36 Co4 1_555 1_555
C169 C164 1_555 1_555
C170 C169 1_555 1_555
H140 C170 1_555 1_555
C171 N35 1_555 1_555
H141 C171 1_555 1_555
Co1F N1F 1_555 1_555
Co2F N4F 1_555 1_555
Co3F N10F 1_555 1_555
Co4F N16F 1_555 1_555
N1F C4F 1_555 1_555
C4F C5F 1_555 1_555
C5F H10F 1_555 1_555
C6F C5F 1_555 1_555
H11F C6F 1_555 1_555
C7F C6F 1_555 1_555
H12F C7F 1_555 1_555
C8F N1F 1_555 1_555
H13F C8F 1_555 1_555
N2F N3F 1_555 1_555
N3F Co1F 1_555 1_555
C9F C4F 1_555 1_555
C10F C9F 1_555 1_555
H14F C10F 1_555 1_555
C11F N2F 1_555 1_555
H15F C11F 1_555 1_555
C12F N2F 1_555 1_555
H16F C12F 1_555 1_555
H17F C12F 1_555 1_555
N4F C13F 1_555 1_555
C13F C14F 1_555 1_555
C14F H18F 1_555 1_555
C15F C14F 1_555 1_555
H19F C15F 1_555 1_555
C16F C15F 1_555 1_555
H20F C16F 1_555 1_555
C17F N4F 1_555 1_555
H21F C17F 1_555 1_555
N5F N6F 1_555 1_555
N6F Co2F 1_555 1_555
C18F C13F 1_555 1_555
C19F C18F 1_555 1_555
H22F C19F 1_555 1_555
C20F N5F 1_555 1_555
H23F C20F 1_555 1_555
C21F N5F 1_555 1_555
H24F C21F 1_555 1_555
H25F C21F 1_555 1_555
C22F C12F 1_555 1_555
C23F C22F 1_555 1_555
H26F C23F 1_555 1_555
C24F C23F 1_555 1_555
H27F C24F 1_555 1_555
C25F C24F 1_555 1_555
H28F C25F 1_555 1_555
C26F C25F 1_555 1_555
C27F C22F 1_555 1_555
C28F C21F 1_555 1_555
C29F C28F 1_555 1_555
H29F C29F 1_555 1_555
C30F C29F 1_555 1_555
H30F C30F 1_555 1_555
C31F C27F 1_555 1_555
H31F C31F 1_555 1_555
N7F Co1F 1_555 1_555
C32F N7F 1_555 1_555
C33F C32F 1_555 1_555
H32F C33F 1_555 1_555
C34F C33F 1_555 1_555
H33F C34F 1_555 1_555
C35F C34F 1_555 1_555
H34F C35F 1_555 1_555
C36F N7F 1_555 1_555
H35F C36F 1_555 1_555
N8F N9F 1_555 1_555
N9F Co1F 1_555 1_555
C37F C32F 1_555 1_555
C38F C37F 1_555 1_555
H36F C38F 1_555 1_555
C39F N8F 1_555 1_555
H37F C39F 1_555 1_555
C40F N8F 1_555 1_555
H38F C40F 1_555 1_555
H39F C40F 1_555 1_555
N10F C41F 1_555 1_555
C41F C42F 1_555 1_555
C42F H40F 1_555 1_555
C43F C42F 1_555 1_555
H41F C43F 1_555 1_555
C44F C43F 1_555 1_555
H42F C44F 1_555 1_555
C45F N10F 1_555 1_555
H43F C45F 1_555 1_555
N11F N12F 1_555 1_555
N12F Co3F 1_555 1_555
C46F C41F 1_555 1_555
C47F C46F 1_555 1_555
H44F C47F 1_555 1_555
C48F N11F 1_555 1_555
H45F C48F 1_555 1_555
C49F N11F 1_555 1_555
H46F C49F 1_555 1_555
H47F C49F 1_555 1_555
C50F C40F 1_555 1_555
C51F C50F 1_555 1_555
H48F C51F 1_555 1_555
C52F C51F 1_555 1_555
H49F C52F 1_555 1_555
C53F C52F 1_555 1_555
H50F C53F 1_555 1_555
C54F C53F 1_555 1_555
C55F C50F 1_555 1_555
C56F C49F 1_555 1_555
C57F C56F 1_555 1_555
H51F C57F 1_555 1_555
C58F C57F 1_555 1_555
H52F C58F 1_555 1_555
C59F C55F 1_555 1_555
H53F C59F 1_555 1_555
N13F Co1F 1_555 1_555
C60F N13F 1_555 1_555
C61F C60F 1_555 1_555
H54F C61F 1_555 1_555
C62F C61F 1_555 1_555
H55F C62F 1_555 1_555
C63F C62F 1_555 1_555
H56F C63F 1_555 1_555
C64F N13F 1_555 1_555
H57F C64F 1_555 1_555
N14F N15F 1_555 1_555
N15F Co1F 1_555 1_555
C65F C60F 1_555 1_555
C66F C65F 1_555 1_555
H58F C66F 1_555 1_555
C67F N14F 1_555 1_555
H59F C67F 1_555 1_555
C68F N14F 1_555 1_555
H60F C68F 1_555 1_555
H61F C68F 1_555 1_555
N16F C69F 1_555 1_555
C69F C70F 1_555 1_555
C70F H62F 1_555 1_555
C71F C70F 1_555 1_555
H63F C71F 1_555 1_555
C72F C71F 1_555 1_555
H64F C72F 1_555 1_555
C73F N16F 1_555 1_555
H65F C73F 1_555 1_555
N17F N18F 1_555 1_555
N18F Co4F 1_555 1_555
C74F C69F 1_555 1_555
C75F C74F 1_555 1_555
H66F C75F 1_555 1_555
C76F N17F 1_555 1_555
H67F C76F 1_555 1_555
C77F N17F 1_555 1_555
H68F C77F 1_555 1_555
H69F C77F 1_555 1_555
C78F C68F 1_555 1_555
C79F C78F 1_555 1_555
H70F C79F 1_555 1_555
C80F C79F 1_555 1_555
H71F C80F 1_555 1_555
C81F C80F 1_555 1_555
H72F C81F 1_555 1_555
C82F C81F 1_555 1_555
C83F C78F 1_555 1_555
C84F C77F 1_555 1_555
C85F C84F 1_555 1_555
H73F C85F 1_555 1_555
C86F C85F 1_555 1_555
H74F C86F 1_555 1_555
C87F C83F 1_555 1_555
H75F C87F 1_555 1_555
N19F Co2F 1_555 1_555
C88F N19F 1_555 1_555
C89F C88F 1_555 1_555
H76F C89F 1_555 1_555
C90F C89F 1_555 1_555
H77F C90F 1_555 1_555
C91F C90F 1_555 1_555
H78F C91F 1_555 1_555
C92F N19F 1_555 1_555
H79F C92F 1_555 1_555
N20F C88F 1_555 1_555
N21F Co2F 1_555 1_555
C93F N21F 1_555 1_555
C94F C93F 1_555 1_555
H80F C94F 1_555 1_555
C95F N20F 1_555 1_555
H81F C95F 1_555 1_555
C96F C93F 1_555 1_555
H82F C96F 1_555 1_555
H83F C96F 1_555 1_555
C97F C96F 1_555 1_555
C98F C97F 1_555 1_555
H84F C98F 1_555 1_555
C99F C98F 1_555 1_555
H85F C99F 1_555 1_555
C100F C99F 1_555 1_555
H86F C100F 1_555 1_555
C101F C100F 1_555 1_555
C102F C97F 1_555 1_555
C103F C101F 1_555 1_555
C104F C103F 1_555 1_555
H87F C104F 1_555 1_555
C105F C104F 1_555 1_555
H88F C105F 1_555 1_555
C106F C102F 1_555 1_555
H89F C106F 1_555 1_555
C107F C103F 1_555 1_555
H90F C107F 1_555 1_555
H91F C107F 1_555 1_555
N22F Co2F 1_555 1_555
C108F N22F 1_555 1_555
C109F C108F 1_555 1_555
H92F C109F 1_555 1_555
C110F C109F 1_555 1_555
H93F C110F 1_555 1_555
C111F C110F 1_555 1_555
H94F C111F 1_555 1_555
C112F N22F 1_555 1_555
H95F C112F 1_555 1_555
N23F N24F 1_555 1_555
N24F Co2F 1_555 1_555
C113F C108F 1_555 1_555
C114F C113F 1_555 1_555
H96F C114F 1_555 1_555
C115F N23F 1_555 1_555
H97F C115F 1_555 1_555
C116F N23F 1_555 1_555
H98F C116F 1_555 1_555
H99F C116F 1_555 1_555
C117F C116F 1_555 1_555
C118F C117F 1_555 1_555
H100F C118F 1_555 1_555
C119F C118F 1_555 1_555
H101F C119F 1_555 1_555
C120F C119F 1_555 1_555
H102F C120F 1_555 1_555
C121F C120F 1_555 1_555
C122F C117F 1_555 1_555
C123F C121F 1_555 1_555
C124F C123F 1_555 1_555
H103F C124F 1_555 1_555
C125F C124F 1_555 1_555
H104F C125F 1_555 1_555
C126F C122F 1_555 1_555
H105F C126F 1_555 1_555
N25F Co3F 1_555 1_555
C127F N25F 1_555 1_555
C128F C127F 1_555 1_555
H106F C128F 1_555 1_555
C129F C128F 1_555 1_555
H107F C129F 1_555 1_555
C130F C129F 1_555 1_555
H108F C130F 1_555 1_555
C131F N25F 1_555 1_555
H109F C131F 1_555 1_555
N26F N27F 1_555 1_555
N27F Co3F 1_555 1_555
C132F C127F 1_555 1_555
C133F C132F 1_555 1_555
H110F C133F 1_555 1_555
C134F N26F 1_555 1_555
H111F C134F 1_555 1_555
C135F N26F 1_555 1_555
H112F C135F 1_555 1_555
H113F C135F 1_555 1_555
C136F C135F 1_555 1_555
C137F C136F 1_555 1_555
H114F C137F 1_555 1_555
C138F C137F 1_555 1_555
H115F C138F 1_555 1_555
C139F C138F 1_555 1_555
H116F C139F 1_555 1_555
C140F C139F 1_555 1_555
C141F C136F 1_555 1_555
C142F C140F 1_555 1_555
C143F C142F 1_555 1_555
H117F C143F 1_555 1_555
C144F C143F 1_555 1_555
H118F C144F 1_555 1_555
C145F C141F 1_555 1_555
H119F C145F 1_555 1_555
N28F Co3F 1_555 1_555
C146F N28F 1_555 1_555
C147F C146F 1_555 1_555
H120F C147F 1_555 1_555
C148F C147F 1_555 1_555
H121F C148F 1_555 1_555
C149F C148F 1_555 1_555
H122F C149F 1_555 1_555
C150F N28F 1_555 1_555
H123F C150F 1_555 1_555
N29F C154 1_555 1_555
N30F Co3F 1_555 1_555
C151F C146F 1_555 1_555
C152F C151F 1_555 1_555
H124F C152F 1_555 1_555
C153F N29F 1_555 1_555
H125F C153F 1_555 1_555
C154F N29 1_555 1_555
H126F C154F 1_555 1_555
H127F C154F 1_555 1_555
N31F Co4F 1_555 1_555
C155F N31F 1_555 1_555
C156F C155F 1_555 1_555
H128F C156F 1_555 1_555
C157F C156F 1_555 1_555
H129F C157F 1_555 1_555
C158F C157F 1_555 1_555
H130F C158F 1_555 1_555
C159F N31F 1_555 1_555
H131F C159F 1_555 1_555
N32F C163 1_555 1_555
N33F Co4F 1_555 1_555
C160F C155F 1_555 1_555
C161F C160F 1_555 1_555
H132F C161F 1_555 1_555
C162F N32F 1_555 1_555
H133F C162F 1_555 1_555
C163F N32 1_555 1_555
H134F C163F 1_555 1_555
H135F C163F 1_555 1_555
N34F Co4F 1_555 1_555
C164F N34F 1_555 1_555
C165F C164F 1_555 1_555
H136F C165F 1_555 1_555
C166F C165F 1_555 1_555
H137F C166F 1_555 1_555
C167F C166F 1_555 1_555
H138F C167F 1_555 1_555
C168F N34F 1_555 1_555
H139F C168F 1_555 1_555
N35F N36 1_555 1_555
N36F N35 1_555 1_555
C169F C164F 1_555 1_555
C170F C171 1_555 1_555
H140F C170F 1_555 1_555
C171F C170 1_555 1_555
H141F C171F 1_555 1_555
C7 C8 1_555 1_555
N3 C9 1_555 1_555
C10 C11 1_555 1_555
C16 C17 1_555 1_555
N6 C18 1_555 1_555
C19 C20 1_555 1_555
C26 C27 1_555 1_555
C26 C28 1_555 1_555
C30 C31 1_555 1_555
C35 C36 1_555 1_555
N9 C37 1_555 1_555
C38 C39 1_555 1_555
C44 C45 1_555 1_555
N12 C46 1_555 1_555
C47 C48 1_555 1_555
C54 C55 1_555 1_555
C54 C56 1_555 1_555
C58 C59 1_555 1_555
C63 C64 1_555 1_555
N15 C65 1_555 1_555
C66 C67 1_555 1_555
C72 C73 1_555 1_555
N18 C74 1_555 1_555
C75 C76 1_555 1_555
C82 C83 1_555 1_555
C82 C84 1_555 1_555
C86 C87 1_555 1_555
C91 C92 1_555 1_555
N20 N21 1_555 1_555
C94 C95 1_555 1_555
C101 C102 1_555 1_555
C105 C106 1_555 1_555
C111 C112 1_555 1_555
N24 C113 1_555 1_555
C114 C115 1_555 1_555
C121 C122 1_555 1_555
C125 C126 1_555 1_555
C130 C131 1_555 1_555
N27 C132 1_555 1_555
C133 C134 1_555 1_555
C140 C141 1_555 1_555
C144 C145 1_555 1_555
C149 C150 1_555 1_555
N30 C151 1_555 1_555
C152 C153 1_555 1_555
C158 C159 1_555 1_555
N33 C160 1_555 1_555
C161 C162 1_555 1_555
C167 C168 1_555 1_555
N36 C169 1_555 1_555
Co4F N36F 1_555 1_555
C7F C8F 1_555 1_555
N3F C9F 1_555 1_555
C10F C11F 1_555 1_555
C16F C17F 1_555 1_555
N6F C18F 1_555 1_555
C19F C20F 1_555 1_555
C26F C27F 1_555 1_555
C26F C28F 1_555 1_555
C30F C31F 1_555 1_555
C35F C36F 1_555 1_555
N9F C37F 1_555 1_555
C38F C39F 1_555 1_555
C44F C45F 1_555 1_555
N12F C46F 1_555 1_555
C47F C48F 1_555 1_555
C54F C55F 1_555 1_555
C54F C56F 1_555 1_555
C58F C59F 1_555 1_555
C63F C64F 1_555 1_555
N15F C65F 1_555 1_555
C66F C67F 1_555 1_555
C72F C73F 1_555 1_555
N18F C74F 1_555 1_555
C75F C76F 1_555 1_555
C82F C83F 1_555 1_555
C82F C84F 1_555 1_555
C86F C87F 1_555 1_555
C91F C92F 1_555 1_555
N20F N21F 1_555 1_555
C94F C95F 1_555 1_555
C101F C102F 1_555 1_555
C105F C106F 1_555 1_555
C107F N35F 1_555 1_555
C111F C112F 1_555 1_555
N24F C113F 1_555 1_555
C114F C115F 1_555 1_555
C121F C122F 1_555 1_555
C123F C154F 1_555 1_555
C125F C126F 1_555 1_555
C130F C131F 1_555 1_555
N27F C132F 1_555 1_555
C133F C134F 1_555 1_555
C140F C141F 1_555 1_555
C142F C163F 1_555 1_555
C144F C145F 1_555 1_555
C149F C150F 1_555 1_555
N29F N30F 1_555 1_555
N30F C151F 1_555 1_555
C152F C153F 1_555 1_555
C158F C159F 1_555 1_555
N32F N33F 1_555 1_555
N33F C160F 1_555 1_555
C161F C162F 1_555 1_555
C167F C168F 1_555 1_555
N35F C171F 1_555 1_555
N36F C169F 1_555 1_555
C169F C170F 1_555 1_555

#END
