
#######################################################################
#
#                 Cambridge Crystallographic Data Centre
#                                CCDC 
#
#######################################################################
#
# If this CIF has been generated from an entry in the Cambridge 
# Structural Database, then it will include bibliographic, chemical, 
# crystal, experimental, refinement or atomic coordinate data resulting 
# from the CCDC's data processing and validation procedures.
#
#######################################################################

data_NOLVIU
_chemical_formula_moiety         
'C336 H264 N72 Ni8 16+,16(B1 F4 1-),5(C1 H4 O1)'
_chemical_name_systematic        
'dodecakis(\m~2~-1,5-bis(3-(2-Pyridyl)-1-pyrazolylmethyl)naphthalene)-octa-nickel(ii) hexadecakis(tetrafluoroborate) methanol unknown solvate'
_symmetry_cell_setting           monoclinic
_symmetry_space_group_name_H-M   'C 2/c'
_symmetry_Int_Tables_number      15
_space_group_name_Hall           '-C 2yn'
loop_
_symmetry_equiv_pos_site_id
_symmetry_equiv_pos_as_xyz
1 x,y,z
2 -x,y,1/2-z
3 1/2+x,1/2+y,z
4 1/2-x,1/2+y,1/2-z
5 -x,-y,-z
6 x,-y,1/2+z
7 1/2-x,1/2-y,-z
8 1/2+x,1/2-y,1/2+z
_cell_length_a                   33.0351(15)
_cell_length_b                   29.5646(14)
_cell_length_c                   39.8684(18)
_cell_angle_alpha                90
_cell_angle_beta                 97.011(2)
_cell_angle_gamma                90
_cell_volume                     38647.1
_exptl_crystal_colour            purple
_exptl_crystal_description       block
_cell_formula_units_Z            4
loop_
_atom_site_label
_atom_site_type_symbol
_atom_site_fract_x
_atom_site_fract_y
_atom_site_fract_z
B1 B 0.20261(11) 0.23410(13) 0.19352(9)
F1 F 0.24199(14) 0.22146(18) 0.18772(14)
F2 F 0.20293(18) 0.2465(2) 0.22744(12)
F3 F 0.17592(15) 0.19766(17) 0.18620(14)
F4 F 0.18964(16) 0.27075(16) 0.17271(13)
B2 B 0.35258(9) 0.72519(10) 0.16115(8)
F5 F 0.38974(13) 0.74482(16) 0.17304(13)
F6 F 0.35944(13) 0.68530(13) 0.14445(10)
F7 F 0.33119(13) 0.71573(15) 0.18824(10)
F8 F 0.33004(14) 0.75473(15) 0.13927(11)
B3 B 0.13409(7) 0.66024(8) 0.04759(6)
F9 F 0.16755(9) 0.65416(12) 0.02993(9)
F10 F 0.13348(11) 0.70459(11) 0.05894(10)
F11 F 0.09865(10) 0.65156(12) 0.02598(9)
F12 F 0.13683(12) 0.63089(13) 0.07482(9)
B4 B 0.67556(6) 0.45219(7) 0.06540(5)
F13 F 0.69489(8) 0.49400(8) 0.07042(7)
F14 F 0.70470(6) 0.41783(7) 0.06889(6)
F15 F 0.64839(7) 0.44616(8) 0.08923(6)
F16 F 0.65412(8) 0.45080(9) 0.03305(6)
B5 B 0.78563(11) 0.04905(12) 0.28870(9)
F17 F 0.81983(15) 0.0700(2) 0.28149(17)
F18 F 0.78440(19) 0.0497(2) 0.32242(12)
F19 F 0.78571(16) 0.00585(15) 0.27786(14)
F20 F 0.75274(10) 0.07065(11) 0.27313(9)
B6 B 0.98969(6) 0.06286(6) 0.65099(5)
F21 F 1.02325(6) 0.05774(7) 0.63329(5)
F22 F 1.00200(6) 0.08370(7) 0.68188(5)
F23 F 0.96042(7) 0.08948(9) 0.63218(6)
F24 F 0.97325(7) 0.02054(7) 0.65648(6)
O1 O 0.71157(17) 0.36353(19) 0.01243(14)
C169 C 0.7519(2) 0.3473(3) 0.0205(2)
H133 H 0.7692 0.3716 0.0310
H134 H 0.7625 0.3373 -0.0002
H135 H 0.7519 0.3218 0.0362
O2 O 0.0603(3) 0.4764(4) 0.2140(3)
C170 C 0.0486(4) 0.4565(4) 0.1811(3)
H136 H 0.0512 0.4236 0.1827
H137 H 0.0663 0.4681 0.1651
H138 H 0.0202 0.4645 0.1733
O3 O 0.65799(12) 0.29786(13) 0.98540(10)
C171 C 0.6784(2) 0.2584(3) 0.9993(2)
H139 H 0.7022 0.2523 0.9875
H140 H 0.6597 0.2325 0.9965
H141 H 0.6874 0.2632 1.0234
Ni1 Ni 1.013575(12) 0.159607(14) 0.038654(10)
Ni2 Ni 0.736216(14) 0.551798(17) -0.114005(11)
Ni3 Ni 0.900472(13) 0.485693(14) 0.138458(11)
Ni4 Ni 0.643909(12) 0.282831(15) 0.222297(10)
N1 N 1.05236(9) 0.16885(10) 0.00038(8)
C1 C 1.03896(11) 0.14937(12) -0.02961(9)
C2 C 1.06072(12) 0.15313(14) -0.05776(10)
H1 H 1.0516 0.1379 -0.0783
C3 C 1.09532(13) 0.17918(16) -0.05501(12)
H2 H 1.1100 0.1830 -0.0738
C4 C 1.10848(13) 0.19970(15) -0.02470(12)
H3 H 1.1320 0.2185 -0.0225
C5 C 1.08688(11) 0.19263(13) 0.00285(11)
H4 H 1.0972 0.2052 0.0241
N2 N 0.94181(9) 0.11358(9) -0.01423(7)
N3 N 0.97854(8) 0.13261(9) -0.00480(7)
C6 C 0.99961(10) 0.12768(11) -0.03156(8)
C7 C 0.97624(11) 0.10442(12) -0.05781(9)
H5 H 0.9841 0.0963 -0.0791
C8 C 0.93993(11) 0.09593(12) -0.04622(9)
H6 H 0.9173 0.0805 -0.0581
C9 C 0.91112(10) 0.11111(12) 0.00820(9)
H7 H 0.8839 0.1116 -0.0053
H8 H 0.9132 0.1383 0.0229
N4 N 0.72769(9) -0.04002(11) 0.15284(7)
C10 C 0.74514(11) -0.01447(13) 0.17850(9)
C11 C 0.72381(14) 0.00017(15) 0.20429(10)
H9 H 0.7367 0.0185 0.2220
C12 C 0.68334(13) -0.01250(16) 0.20369(11)
H10 H 0.6680 -0.0026 0.2209
C13 C 0.66557(12) -0.03968(17) 0.17785(11)
H11 H 0.6380 -0.0492 0.1772
C14 C 0.68878(12) -0.05265(15) 0.15294(10)
H12 H 0.6766 -0.0713 0.1351
N5 N 0.84493(10) -0.00613(14) 0.15669(9)
N6 N 0.80464(9) -0.01593(12) 0.14961(8)
C15 C 0.78830(12) -0.00451(14) 0.17763(10)
C16 C 0.81736(15) 0.01383(17) 0.20253(11)
H13 H 0.8134 0.0251 0.2242
C17 C 0.85295(15) 0.0116(2) 0.18797(13)
H14 H 0.8790 0.0210 0.1983
C18 C 0.87253(12) -0.01070(18) 0.13092(12)
H15 H 0.8654 -0.0384 0.1175
H16 H 0.9008 -0.0141 0.1421
C19 C 0.91425(10) 0.06913(12) 0.03045(9)
C20 C 0.93955(11) 0.03403(12) 0.02540(9)
H17 H 0.9556 0.0352 0.0072
C21 C 0.94215(11) -0.00424(13) 0.04710(10)
H18 H 0.9600 -0.0284 0.0433
C22 C 0.91955(11) -0.00655(13) 0.07307(10)
H19 H 0.9213 -0.0326 0.0871
C23 C 0.89277(10) 0.03002(13) 0.07972(10)
C24 C 0.88987(10) 0.06786(12) 0.05731(9)
C25 C 0.87034(11) 0.02983(15) 0.10746(11)
C26 C 0.84701(11) 0.06751(16) 0.11383(11)
H20 H 0.8335 0.0682 0.1336
C27 C 0.84323(11) 0.10387(16) 0.09172(11)
H21 H 0.8265 0.1288 0.0960
C28 C 0.86340(10) 0.10419(12) 0.06375(10)
H22 H 0.8598 0.1289 0.0484
N7 N 1.03553(9) 0.09425(10) 0.05202(7)
C29 C 1.02071(10) 0.07523(11) 0.07859(8)
C30 C 1.03505(12) 0.03458(12) 0.09274(9)
H23 H 1.0239 0.0223 0.1116
C31 C 1.06584(13) 0.01226(13) 0.07881(10)
H24 H 1.0766 -0.0154 0.0882
C32 C 1.08061(13) 0.03087(15) 0.05113(11)
H25 H 1.1014 0.0159 0.0409
C33 C 1.06489(11) 0.07169(13) 0.03820(10)
H26 H 1.0752 0.0842 0.0190
N8 N 0.94808(8) 0.15676(10) 0.09550(7)
N9 N 0.97678(8) 0.14067(9) 0.07736(7)
C34 C 0.98919(10) 0.10174(11) 0.09266(8)
C35 C 0.96890(11) 0.09358(13) 0.12100(9)
H27 H 0.9725 0.0688 0.1362
C36 C 0.94281(11) 0.12937(13) 0.12182(9)
H28 H 0.9243 0.1341 0.1379
C37 C 0.92741(10) 0.19955(12) 0.08722(9)
H29 H 0.9000 0.1984 0.0948
H30 H 0.9237 0.2033 0.0624
N10 N 0.87896(9) 0.54043(10) 0.10801(9)
C38 C 0.89412(12) 0.54303(13) 0.07816(10)
C39 C 0.88441(14) 0.57829(14) 0.05547(12)
H31 H 0.8954 0.5793 0.0345
C40 C 0.85808(15) 0.61228(15) 0.06413(14)
H32 H 0.8508 0.6366 0.0490
C41 C 0.84300(14) 0.61020(14) 0.09449(14)
H33 H 0.8254 0.6332 0.1009
C42 C 0.85394(12) 0.57329(13) 0.11619(12)
H34 H 0.8432 0.5717 0.1372
N11 N 0.95853(9) 0.44795(11) 0.08368(8)
N12 N 0.92866(9) 0.47358(10) 0.09448(8)
C43 C 0.92192(12) 0.50732(13) 0.07153(10)
C44 C 0.94668(13) 0.50223(16) 0.04575(12)
H35 H 0.9474 0.5210 0.0265
C45 C 0.96985(13) 0.46421(15) 0.05425(11)
H36 H 0.9900 0.4517 0.0419
C46 C 0.97319(11) 0.40701(13) 0.10071(10)
H37 H 0.9731 0.4110 0.1253
H38 H 1.0018 0.4018 0.0965
C47 C 0.94984(10) 0.24017(12) 0.10303(8)
C48 C 0.98218(11) 0.23600(13) 0.12753(9)
H39 H 0.9906 0.2068 0.1356
C49 C 1.00323(12) 0.27441(14) 0.14105(10)
H40 H 1.0252 0.2709 0.1586
C50 C 0.99242(11) 0.31735(13) 0.12920(9)
H41 H 1.0073 0.3430 0.1383
C51 C 0.95906(10) 0.32284(12) 0.10345(9)
C52 C 0.93621(10) 0.28344(12) 0.09125(9)
C53 C 0.94789(10) 0.36549(13) 0.08931(9)
C54 C 0.91511(11) 0.36939(12) 0.06458(10)
H42 H 0.9084 0.3981 0.0547
C55 C 0.89127(11) 0.33113(13) 0.05379(10)
H43 H 0.8678 0.3345 0.0377
C56 C 0.90201(10) 0.28916(12) 0.06650(9)
H44 H 0.8863 0.2635 0.0586
N13 N 1.05590(9) 0.19012(10) 0.07603(8)
C57 C 0.81339(10) 0.13178(12) -0.24061(9)
C58 C 0.78421(12) 0.10105(14) -0.25484(10)
H45 H 0.7859 0.0700 -0.2487
C59 C 0.75294(11) 0.11655(15) -0.27795(10)
H46 H 0.7322 0.0964 -0.2874
C60 C 0.75176(12) 0.16123(16) -0.28735(11)
H47 H 0.7307 0.1722 -0.3036
C61 C 0.78215(11) 0.19022(14) -0.27250(9)
H48 H 0.7813 0.2212 -0.2790
C62 C 1.05632(11) 0.23516(14) 0.07572(9)
C63 C 1.08422(12) 0.26015(15) 0.09694(11)
H49 H 1.0842 0.2923 0.0960
C64 C 1.11215(13) 0.23727(18) 0.11960(13)
H50 H 1.1314 0.2536 0.1346
C65 C 1.11191(13) 0.19068(17) 0.12022(12)
H51 H 1.1308 0.1745 0.1356
C66 C 1.08332(12) 0.16793(15) 0.09781(10)
H52 H 1.0832 0.1358 0.0979
N14 N 0.97196(9) 0.25720(10) 0.01513(7)
N15 N 0.99802(8) 0.22906(10) 0.03391(7)
C67 C 1.02443(10) 0.25628(12) 0.05180(9)
C68 C 1.01675(11) 0.30162(13) 0.04429(9)
H53 H 1.0317 0.3272 0.0534
C69 C 0.98257(11) 0.30112(12) 0.02060(9)
H54 H 0.9690 0.3267 0.0101
C70 C 0.93995(10) 0.24081(12) -0.00981(8)
H55 H 0.9175 0.2632 -0.0123
H56 H 0.9290 0.2123 -0.0015
N16 N 0.81220(8) 0.17614(10) -0.24964(7)
N17 N 0.89918(9) 0.13209(11) -0.17917(7)
N18 N 0.86930(8) 0.15326(10) -0.19952(7)
C71 C 0.84680(11) 0.11935(12) -0.21510(9)
C72 C 0.86192(12) 0.07734(13) -0.20383(10)
H57 H 0.8514 0.0484 -0.2106
C73 C 0.89522(12) 0.08680(14) -0.18085(10)
H58 H 0.9124 0.0653 -0.1684
C74 C 0.92931(10) 0.15694(12) -0.15695(9)
H59 H 0.9369 0.1847 -0.1687
H60 H 0.9541 0.1381 -0.1521
C75 C 0.95322(10) 0.23223(11) -0.04413(8)
C76 C 0.99017(10) 0.24738(12) -0.05191(9)
H61 H 1.0073 0.2644 -0.0357
C77 C 1.00307(11) 0.23798(12) -0.08361(9)
H62 H 1.0285 0.2492 -0.0888
C78 C 0.97879(11) 0.21254(12) -0.10695(9)
H63 H 0.9882 0.2052 -0.1279
C79 C 0.94008(10) 0.19712(11) -0.10026(8)
C80 C 0.92689(10) 0.20794(11) -0.06836(8)
C81 C 0.91408(10) 0.17022(12) -0.12366(8)
C82 C 0.87754(10) 0.15513(12) -0.11535(9)
H64 H 0.8611 0.1361 -0.1306
C83 C 0.86384(10) 0.16735(12) -0.08453(9)
H65 H 0.8378 0.1575 -0.0797
C84 C 0.88738(10) 0.19294(12) -0.06163(8)
H66 H 0.8776 0.2010 -0.0410
N19 N 0.70258(12) 0.55597(15) -0.07265(9)
C85 C 0.70674(11) 0.52057(17) -0.05134(9)
C86 C 0.68735(12) 0.5191(2) -0.02197(10)
H67 H 0.6899 0.4930 -0.0079
C87 C 0.66537(15) 0.5541(3) -0.01378(12)
H68 H 0.6518 0.5533 0.0059
C88 C 0.66271(19) 0.5916(3) -0.03444(14)
H69 H 0.6488 0.6179 -0.0284
C89 C 0.68050(18) 0.5906(2) -0.06409(12)
H70 H 0.6767 0.6158 -0.0789
N20 N 0.78009(10) 0.45458(11) -0.08578(8)
N21 N 0.75523(8) 0.49148(11) -0.08605(8)
C90 C 0.73400(11) 0.48500(15) -0.05952(9)
C91 C 0.74508(13) 0.44445(15) -0.04301(10)
H71 H 0.7343 0.4321 -0.0240
C92 C 0.77450(13) 0.42626(15) -0.05984(11)
H72 H 0.7886 0.3987 -0.0545
C93 C 0.80630(11) 0.44528(14) -0.11167(10)
H73 H 0.8317 0.4309 -0.1011
H74 H 0.8137 0.4742 -0.1218
C94 C 0.78632(11) 0.41490(13) -0.13906(10)
C95 C 0.74687(12) 0.40124(14) -0.13977(11)
H75 H 0.7317 0.4111 -0.1223
C96 C 0.72767(12) 0.37292(15) -0.16559(12)
H76 H 0.6999 0.3646 -0.1657
C97 C 0.74926(11) 0.35767(14) -0.19025(11)
H77 H 0.7362 0.3389 -0.2076
C98 C 0.79082(11) 0.36931(12) -0.19047(9)
C99 C 0.80944(10) 0.39866(12) -0.16455(9)
C100 C 0.81457(11) 0.35251(12) -0.21531(10)
C101 C 0.85486(11) 0.36422(12) -0.21422(10)
H78 H 0.8708 0.3521 -0.2304
C102 C 0.87276(11) 0.39428(13) -0.18904(10)
H79 H 0.9005 0.4030 -0.1890
C103 C 0.85114(10) 0.41100(12) -0.16487(10)
H80 H 0.8639 0.4310 -0.1481
N22 N 0.71209(12) 0.61286(13) -0.13544(9)
C104 C 0.73332(18) 0.65013(17) -0.12585(11)
C105 C 0.7205(2) 0.69382(18) -0.13423(12)
H81 H 0.7368 0.7196 -0.1277
C106 C 0.6807(2) 0.6974(2) -0.15358(13)
H82 H 0.6693 0.7265 -0.1587
C107 C 0.65970(18) 0.66006(19) -0.16442(12)
H83 H 0.6342 0.6626 -0.1782
C108 C 0.67575(14) 0.61780(17) -0.15521(11)
H84 H 0.6609 0.5915 -0.1630
N23 N 0.81535(13) 0.60154(14) -0.07299(10)
N24 N 0.77824(12) 0.59987(12) -0.09181(8)
C109 C 0.77178(19) 0.64207(16) -0.10383(12)
C110 C 0.8046(2) 0.6698(2) -0.09296(15)
H85 H 0.8083 0.7006 -0.0987
C111 C 0.8304(2) 0.6433(2) -0.07222(15)
H86 H 0.8549 0.6530 -0.0594
C112 C 0.82974(15) 0.56272(16) -0.05222(10)
H87 H 0.8596 0.5655 -0.0459
H88 H 0.8246 0.5348 -0.0657
C113 C 0.80945(13) 0.55856(14) -0.02056(10)
C114 C 0.78414(15) 0.59120(16) -0.01037(11)
H89 H 0.7786 0.6174 -0.0239
C115 C 0.76629(14) 0.58672(15) 0.01951(11)
H90 H 0.7484 0.6096 0.0257
C116 C 0.77431(12) 0.54987(14) 0.03997(10)
H91 H 0.7622 0.5473 0.0603
C117 C 0.81849(12) 0.51966(13) 0.00023(9)
C118 C 0.85151(12) 0.44681(14) 0.01022(10)
H92 H 0.8677 0.4229 0.0031
C119 C 0.84446(12) 0.48462(14) -0.00961(10)
H93 H 0.8568 0.4875 -0.0298
N25 N 0.95212(9) 0.52579(11) 0.15670(8)
C120 C 0.94740(11) 0.55152(14) 0.18364(11)
C121 C 0.97669(12) 0.58178(16) 0.19754(13)
H94 H 0.9727 0.5986 0.2172
C122 C 1.01207(13) 0.58728(18) 0.18231(15)
H95 H 1.0324 0.6083 0.1911
C123 C 1.01732(13) 0.56171(17) 0.15414(14)
H96 H 1.0409 0.5653 0.1429
C124 C 0.98706(12) 0.53054(16) 0.14266(12)
H97 H 0.9912 0.5117 0.1241
N26 N 0.84763(9) 0.52115(10) 0.19774(8)
N27 N 0.88125(9) 0.51654(10) 0.18157(8)
C125 C 0.90834(11) 0.54603(12) 0.19711(10)
C126 C 0.89206(12) 0.56910(13) 0.22295(10)
H98 H 0.9050 0.5914 0.2377
C127 C 0.85321(12) 0.55228(13) 0.22224(10)
H99 H 0.8337 0.5612 0.2366
C128 C 0.81097(11) 0.49418(12) 0.18769(10)
H100 H 0.8058 0.4933 0.1627
H101 H 0.7873 0.5092 0.1960
C129 C 0.81411(10) 0.44633(12) 0.20102(9)
C130 C 0.84613(11) 0.43066(12) 0.22283(9)
H102 H 0.8678 0.4506 0.2307
C131 C 0.84757(11) 0.38538(14) 0.23384(9)
H103 H 0.8698 0.3754 0.2494
C132 C 0.81730(10) 0.35546(13) 0.22240(9)
H104 H 0.8187 0.3250 0.2300
C133 C 0.78391(10) 0.37003(11) 0.19927(8)
C134 C 0.78149(10) 0.41654(11) 0.18916(9)
C135 C 0.75206(10) 0.33936(11) 0.18536(8)
C136 C 0.72112(10) 0.35518(12) 0.16255(9)
H105 H 0.7011 0.3346 0.1525
C137 C 0.71808(10) 0.40140(13) 0.15349(10)
H106 H 0.6957 0.4118 0.1382
C138 C 0.74751(10) 0.43119(12) 0.16682(9)
H107 H 0.7450 0.4623 0.1609
N28 N 0.92037(9) 0.42782(11) 0.16572(8)
C139 C 0.89755(11) 0.39076(13) 0.15902(9)
C140 C 0.90805(14) 0.34897(15) 0.17354(10)
H108 H 0.8914 0.3231 0.1684
C141 C 0.94401(16) 0.34638(17) 0.19607(11)
H109 H 0.9525 0.3184 0.2063
C142 C 0.96694(16) 0.38488(19) 0.20327(11)
H110 H 0.9914 0.3837 0.2185
C143 C 0.95407(13) 0.42502(17) 0.18813(10)
H111 H 0.9695 0.4516 0.1937
N29 N 0.81459(9) 0.43658(10) 0.10611(8)
N30 N 0.85153(8) 0.43934(9) 0.12463(7)
C144 C 0.85970(11) 0.39726(11) 0.13611(9)
C145 C 0.82884(12) 0.36724(13) 0.12516(10)
H112 H 0.8277 0.3358 0.1298
C146 C 0.79998(11) 0.39346(13) 0.10595(10)
H113 H 0.7746 0.3833 0.0947
C147 C 0.79600(10) 0.47350(12) 0.08595(9)
H114 H 0.8019 0.5023 0.0983
H115 H 0.7661 0.4693 0.0826
C148 C 0.81144(10) 0.47656(12) 0.05175(9)
C149 C 0.80084(11) 0.51533(12) 0.03074(9)
C150 C 0.83499(11) 0.44310(13) 0.04087(10)
H116 H 0.8403 0.4167 0.0543
N31 N 0.90013(9) 0.20197(12) -0.25581(8)
C151 C 0.90138(11) 0.23229(16) -0.28119(9)
C152 C 0.92832(13) 0.22623(19) -0.30555(11)
H117 H 0.9295 0.2482 -0.3228
C153 C 0.95269(14) 0.1890(2) -0.30451(12)
H118 H 0.9701 0.1842 -0.3215
C154 C 0.95185(13) 0.1581(2) -0.27848(12)
H119 H 0.9689 0.1321 -0.2770
C155 C 0.92558(12) 0.16607(18) -0.25472(10)
H120 H 0.9254 0.1452 -0.2366
N32 N 0.82235(10) 0.30602(11) -0.26541(8)
N33 N 0.84711(9) 0.27021(11) -0.25741(8)
C156 C 0.87262(12) 0.26930(14) -0.28182(9)
C157 C 0.86362(14) 0.30428(16) -0.30497(11)
H121 H 0.8769 0.3110 -0.3242
C158 C 0.83149(15) 0.32684(15) -0.29388(11)
H122 H 0.8180 0.3525 -0.3043
C159 C 0.79408(12) 0.32162(14) -0.24277(10)
H123 H 0.7714 0.3381 -0.2560
H124 H 0.7824 0.2952 -0.2321
N34 N 0.60457(9) 0.24301(10) 0.18961(7)
C160 C 0.62011(11) 0.22713(11) 0.16226(9)
C161 C 0.59734(13) 0.20088(12) 0.13776(9)
H125 H 0.6090 0.1905 0.1185
C162 C 0.55780(13) 0.19033(14) 0.14196(10)
H126 H 0.5416 0.1726 0.1256
C163 C 0.54153(13) 0.20613(15) 0.17087(11)
H127 H 0.5143 0.1991 0.1744
C164 C 0.56610(12) 0.23206(15) 0.19399(10)
H128 H 0.5554 0.2425 0.2137
N35 N 0.72227(9) 0.26350(10) 0.17767(7)
N36 N 0.68362(8) 0.26126(10) 0.18577(7)
C165 C 0.66305(11) 0.23811(11) 0.16016(8)
C166 C 0.68771(12) 0.22652(13) 0.13579(9)
H129 H 0.6801 0.2106 0.1153
C167 C 0.72562(12) 0.24301(13) 0.14767(10)
H130 H 0.7497 0.2405 0.1369
C168 C 0.75441(10) 0.29039(11) 0.19641(9)
H131 H 0.7813 0.2778 0.1928
H132 H 0.7519 0.2886 0.2209
Ni1F Ni 0.486425(12) 0.340393(14) -0.038654(10)
Ni2F Ni 0.763784(14) -0.051798(17) 0.114005(11)
Ni3F Ni 0.599528(13) 0.014307(14) -0.138458(11)
Ni4F Ni 0.856091(12) 0.217169(15) -0.222297(10)
N1F N 0.44764(9) 0.33115(10) -0.00038(8)
C1F C 0.46104(11) 0.35063(12) 0.02961(9)
C2F C 0.43928(12) 0.34687(14) 0.05776(10)
H1F H 0.4484 0.3621 0.0783
C3F C 0.40468(13) 0.32082(16) 0.05501(12)
H2F H 0.3900 0.3170 0.0738
C4F C 0.39152(13) 0.30030(15) 0.02470(12)
H3F H 0.3680 0.2815 0.0225
C5F C 0.41312(11) 0.30737(13) -0.00285(11)
H4F H 0.4028 0.2948 -0.0241
N2F N 0.55819(9) 0.38642(9) 0.01423(7)
N3F N 0.52146(8) 0.36739(9) 0.00480(7)
C6F C 0.50039(10) 0.37232(11) 0.03156(8)
C7F C 0.52376(11) 0.39558(12) 0.05781(9)
H5F H 0.5159 0.4037 0.0791
C8F C 0.56007(11) 0.40407(12) 0.04622(9)
H6F H 0.5827 0.4195 0.0581
C9F C 0.58888(10) 0.38889(12) -0.00820(9)
H7F H 0.6161 0.3884 0.0053
H8F H 0.5868 0.3617 -0.0229
N4F N 0.77231(9) 0.54002(11) -0.15284(7)
C10F C 0.75486(11) 0.51447(13) -0.17850(9)
C11F C 0.77619(14) 0.49983(15) -0.20429(10)
H9F H 0.7633 0.4815 -0.2220
C12F C 0.81666(13) 0.51250(16) -0.20369(11)
H10F H 0.8320 0.5026 -0.2209
C13F C 0.83443(12) 0.53968(17) -0.17785(11)
H11F H 0.8620 0.5492 -0.1772
C14F C 0.81122(12) 0.55265(15) -0.15294(10)
H12F H 0.8234 0.5713 -0.1351
N5F N 0.65507(10) 0.50613(14) -0.15669(9)
N6F N 0.69536(9) 0.51593(12) -0.14961(8)
C15F C 0.71170(12) 0.50451(14) -0.17763(10)
C16F C 0.68264(15) 0.48617(17) -0.20253(11)
H13F H 0.6866 0.4749 -0.2242
C17F C 0.64705(15) 0.4884(2) -0.18797(13)
H14F H 0.6210 0.4790 -0.1983
C18F C 0.62747(12) 0.51070(18) -0.13092(12)
H15F H 0.6346 0.5384 -0.1175
H16F H 0.5992 0.5141 -0.1421
C19F C 0.58575(10) 0.43087(12) -0.03045(9)
C20F C 0.56045(11) 0.46597(12) -0.02540(9)
H17F H 0.5444 0.4648 -0.0072
C21F C 0.55785(11) 0.50424(13) -0.04710(10)
H18F H 0.5400 0.5284 -0.0433
C22F C 0.58045(11) 0.50655(13) -0.07307(10)
H19F H 0.5787 0.5326 -0.0871
C23F C 0.60723(10) 0.46998(13) -0.07972(10)
C24F C 0.61013(10) 0.43214(12) -0.05731(9)
C25F C 0.62966(11) 0.47017(15) -0.10746(11)
C26F C 0.65299(11) 0.43249(16) -0.11383(11)
H20F H 0.6665 0.4318 -0.1336
C27F C 0.65677(11) 0.39613(16) -0.09172(11)
H21F H 0.6735 0.3712 -0.0960
C28F C 0.63660(10) 0.39581(12) -0.06375(10)
H22F H 0.6402 0.3711 -0.0484
N7F N 0.46447(9) 0.40575(10) -0.05202(7)
C29F C 0.47929(10) 0.42477(11) -0.07859(8)
C30F C 0.46495(12) 0.46542(12) -0.09274(9)
H23F H 0.4761 0.4777 -0.1116
C31F C 0.43416(13) 0.48774(13) -0.07881(10)
H24F H 0.4234 0.5154 -0.0882
C32F C 0.41939(13) 0.46913(15) -0.05113(11)
H25F H 0.3986 0.4841 -0.0409
C33F C 0.43511(11) 0.42831(13) -0.03820(10)
H26F H 0.4248 0.4158 -0.0190
N8F N 0.55192(8) 0.34324(10) -0.09550(7)
N9F N 0.52322(8) 0.35933(9) -0.07736(7)
C34F C 0.51081(10) 0.39826(11) -0.09266(8)
C35F C 0.53110(11) 0.40642(13) -0.12100(9)
H27F H 0.5275 0.4312 -0.1362
C36F C 0.55719(11) 0.37063(13) -0.12182(9)
H28F H 0.5757 0.3659 -0.1379
C37F C 0.57259(10) 0.30045(12) -0.08722(9)
H29F H 0.6000 0.3016 -0.0948
H30F H 0.5763 0.2967 -0.0624
N10F N 0.62104(9) -0.04043(10) -0.10801(9)
C38F C 0.60588(12) -0.04303(13) -0.07816(10)
C39F C 0.61559(14) -0.07829(14) -0.05547(12)
H31F H 0.6046 -0.0793 -0.0345
C40F C 0.64192(15) -0.11228(15) -0.06413(14)
H32F H 0.6492 -0.1366 -0.0490
C41F C 0.65700(14) -0.11020(14) -0.09449(14)
H33F H 0.6746 -0.1332 -0.1009
C42F C 0.64606(12) -0.07329(13) -0.11619(12)
H34F H 0.6568 -0.0717 -0.1372
N11F N 0.54147(9) 0.05205(11) -0.08368(8)
N12F N 0.57134(9) 0.02642(10) -0.09448(8)
C43F C 0.57808(12) -0.00732(13) -0.07153(10)
C44F C 0.55332(13) -0.00223(16) -0.04575(12)
H35F H 0.5526 -0.0210 -0.0265
C45F C 0.53015(13) 0.03579(15) -0.05425(11)
H36F H 0.5100 0.0483 -0.0419
C46F C 0.52681(11) 0.09299(13) -0.10071(10)
H37F H 0.5269 0.0890 -0.1253
H38F H 0.4982 0.0982 -0.0965
C47F C 0.55016(10) 0.25983(12) -0.10303(8)
C48F C 0.51782(11) 0.26400(13) -0.12753(9)
H39F H 0.5094 0.2932 -0.1356
C49F C 0.49677(12) 0.22559(14) -0.14105(10)
H40F H 0.4748 0.2291 -0.1586
C50F C 0.50758(11) 0.18265(13) -0.12920(9)
H41F H 0.4927 0.1570 -0.1383
C51F C 0.54094(10) 0.17716(12) -0.10345(9)
C52F C 0.56379(10) 0.21656(12) -0.09125(9)
C53F C 0.55211(10) 0.13451(13) -0.08931(9)
C54F C 0.58489(11) 0.13061(12) -0.06458(10)
H42F H 0.5916 0.1019 -0.0547
C55F C 0.60873(11) 0.16887(13) -0.05379(10)
H43F H 0.6322 0.1655 -0.0377
C56F C 0.59799(10) 0.21084(12) -0.06650(9)
H44F H 0.6137 0.2365 -0.0586
N13F N 0.44410(9) 0.30988(10) -0.07603(8)
C57F C 0.68661(10) 0.36822(12) 0.24061(9)
C58F C 0.71579(12) 0.39895(14) 0.25484(10)
H45F H 0.7141 0.4300 0.2487
C59F C 0.74706(11) 0.38345(15) 0.27795(10)
H46F H 0.7678 0.4036 0.2874
C60F C 0.74824(12) 0.33877(16) 0.28735(11)
H47F H 0.7693 0.3278 0.3036
C61F C 0.71785(11) 0.30978(14) 0.27250(9)
H48F H 0.7187 0.2788 0.2790
C62F C 0.44368(11) 0.26484(14) -0.07572(9)
C63F C 0.41578(12) 0.23985(15) -0.09694(11)
H49F H 0.4158 0.2077 -0.0960
C64F C 0.38785(13) 0.26273(18) -0.11960(13)
H50F H 0.3686 0.2464 -0.1346
C65F C 0.38809(13) 0.30932(17) -0.12022(12)
H51F H 0.3692 0.3255 -0.1356
C66F C 0.41668(12) 0.33207(15) -0.09781(10)
H52F H 0.4168 0.3642 -0.0979
N14F N 0.52804(9) 0.24280(10) -0.01513(7)
N15F N 0.50198(8) 0.27094(10) -0.03391(7)
C67F C 0.47557(10) 0.24372(12) -0.05180(9)
C68F C 0.48325(11) 0.19838(13) -0.04429(9)
H53F H 0.4683 0.1728 -0.0534
C69F C 0.51743(11) 0.19888(12) -0.02060(9)
H54F H 0.5310 0.1733 -0.0101
C70F C 0.56005(10) 0.25919(12) 0.00981(8)
H55F H 0.5825 0.2368 0.0123
H56F H 0.5710 0.2877 0.0015
N16F N 0.68780(8) 0.32386(10) 0.24964(7)
N17F N 0.60082(9) 0.36791(11) 0.17917(7)
N18F N 0.63070(8) 0.34674(10) 0.19952(7)
C71F C 0.65320(11) 0.38065(12) 0.21510(9)
C72F C 0.63808(12) 0.42266(13) 0.20383(10)
H57F H 0.6486 0.4516 0.2106
C73F C 0.60478(12) 0.41320(14) 0.18085(10)
H58F H 0.5876 0.4347 0.1684
C74F C 0.57069(10) 0.34306(12) 0.15695(9)
H59F H 0.5631 0.3153 0.1687
H60F H 0.5459 0.3619 0.1521
C75F C 0.54678(10) 0.26777(11) 0.04413(8)
C76F C 0.50983(10) 0.25262(12) 0.05191(9)
H61F H 0.4927 0.2356 0.0357
C77F C 0.49693(11) 0.26202(12) 0.08361(9)
H62F H 0.4715 0.2508 0.0888
C78F C 0.52121(11) 0.28746(12) 0.10695(9)
H63F H 0.5118 0.2948 0.1279
C79F C 0.55992(10) 0.30288(11) 0.10026(8)
C80F C 0.57311(10) 0.29206(11) 0.06836(8)
C81F C 0.58592(10) 0.32978(12) 0.12366(8)
C82F C 0.62246(10) 0.34487(12) 0.11535(9)
H64F H 0.6389 0.3639 0.1306
C83F C 0.63616(10) 0.33265(12) 0.08453(9)
H65F H 0.6622 0.3425 0.0797
C84F C 0.61262(10) 0.30706(12) 0.06163(8)
H66F H 0.6224 0.2990 0.0410
N19F N 0.79742(12) -0.05597(15) 0.07265(9)
C85F C 0.79326(11) -0.02057(17) 0.05134(9)
C86F C 0.81265(12) -0.0191(2) 0.02197(10)
H67F H 0.8101 0.0070 0.0079
C87F C 0.83463(15) -0.0541(3) 0.01378(12)
H68F H 0.8482 -0.0533 -0.0059
C88F C 0.83729(19) -0.0916(3) 0.03444(14)
H69F H 0.8512 -0.1179 0.0284
C89F C 0.81950(18) -0.0906(2) 0.06409(12)
H70F H 0.8233 -0.1158 0.0789
N20F N 0.71991(10) 0.04542(11) 0.08578(8)
N21F N 0.74477(8) 0.00852(11) 0.08605(8)
C90F C 0.76600(11) 0.01500(15) 0.05952(9)
C91F C 0.75492(13) 0.05555(15) 0.04301(10)
H71F H 0.7657 0.0679 0.0240
C92F C 0.72550(13) 0.07374(15) 0.05984(11)
H72F H 0.7114 0.1013 0.0545
C93F C 0.69370(11) 0.05472(14) 0.11167(10)
H73F H 0.6683 0.0691 0.1011
H74F H 0.6863 0.0258 0.1218
C94F C 0.71368(11) 0.08510(13) 0.13906(10)
C95F C 0.75313(12) 0.09876(14) 0.13977(11)
H75F H 0.7683 0.0889 0.1223
C96F C 0.77233(12) 0.12708(15) 0.16559(12)
H76F H 0.8001 0.1354 0.1657
C97F C 0.75074(11) 0.14233(14) 0.19025(11)
H77F H 0.7638 0.1611 0.2076
C98F C 0.70918(11) 0.13069(12) 0.19047(9)
C99F C 0.69056(10) 0.10134(12) 0.16455(9)
C100F C 0.68543(11) 0.14749(12) 0.21531(10)
C101F C 0.64514(11) 0.13578(12) 0.21422(10)
H78F H 0.6292 0.1479 0.2304
C102F C 0.62724(11) 0.10572(13) 0.18904(10)
H79F H 0.5995 0.0970 0.1890
C103F C 0.64886(10) 0.08900(12) 0.16487(10)
H80F H 0.6361 0.0690 0.1481
N22F N 0.78791(12) -0.11286(13) 0.13544(9)
C104F C 0.76668(18) -0.15013(17) 0.12585(11)
C105F C 0.7795(2) -0.19382(18) 0.13423(12)
H81F H 0.7632 -0.2196 0.1277
C106F C 0.8193(2) -0.1974(2) 0.15358(13)
H82F H 0.8307 -0.2265 0.1587
C107F C 0.84030(18) -0.16006(19) 0.16442(12)
H83F H 0.8658 -0.1626 0.1782
C108F C 0.82425(14) -0.11780(17) 0.15521(11)
H84F H 0.8391 -0.0915 0.1630
N23F N 0.68465(13) -0.10154(14) 0.07299(10)
N24F N 0.72176(12) -0.09987(12) 0.09181(8)
C109F C 0.72822(19) -0.14207(16) 0.10383(12)
C110F C 0.6954(2) -0.1698(2) 0.09296(15)
H85F H 0.6917 -0.2006 0.0987
C111F C 0.6696(2) -0.1433(2) 0.07222(15)
H86F H 0.6451 -0.1530 0.0594
C112F C 0.67026(15) -0.06272(16) 0.05222(10)
H87F H 0.6404 -0.0655 0.0459
H88F H 0.6754 -0.0348 0.0657
C113F C 0.69055(13) -0.05856(14) 0.02056(10)
C114F C 0.71586(15) -0.09120(16) 0.01037(11)
H89F H 0.7214 -0.1174 0.0239
C115F C 0.73371(14) -0.08672(15) -0.01951(11)
H90F H 0.7516 -0.1096 -0.0257
C116F C 0.72569(12) -0.04987(14) -0.03997(10)
H91F H 0.7378 -0.0473 -0.0603
C117F C 0.68151(12) -0.01966(13) -0.00023(9)
C118F C 0.64849(12) 0.05319(14) -0.01022(10)
H92F H 0.6323 0.0771 -0.0031
C119F C 0.65554(12) 0.01538(14) 0.00961(10)
H93F H 0.6432 0.0125 0.0298
N25F N 0.54788(9) -0.02579(11) -0.15670(8)
C120F C 0.55260(11) -0.05152(14) -0.18364(11)
C121F C 0.52331(12) -0.08178(16) -0.19754(13)
H94F H 0.5273 -0.0986 -0.2172
C122F C 0.48793(13) -0.08728(18) -0.18231(15)
H95F H 0.4676 -0.1083 -0.1911
C123F C 0.48268(13) -0.06171(17) -0.15414(14)
H96F H 0.4591 -0.0653 -0.1429
C124F C 0.51294(12) -0.03054(16) -0.14266(12)
H97F H 0.5088 -0.0117 -0.1241
N26F N 0.65237(9) -0.02115(10) -0.19774(8)
N27F N 0.61875(9) -0.01654(10) -0.18157(8)
C125F C 0.59166(11) -0.04603(12) -0.19711(10)
C126F C 0.60794(12) -0.06910(13) -0.22295(10)
H98F H 0.5950 -0.0914 -0.2377
C127F C 0.64679(12) -0.05228(13) -0.22224(10)
H99F H 0.6663 -0.0612 -0.2366
C128F C 0.68903(11) 0.00582(12) -0.18769(10)
H100F H 0.6942 0.0067 -0.1627
H101F H 0.7127 -0.0092 -0.1960
C129F C 0.68589(10) 0.05367(12) -0.20102(9)
C130F C 0.65387(11) 0.06934(12) -0.22283(9)
H102F H 0.6322 0.0494 -0.2307
C131F C 0.65243(11) 0.11462(14) -0.23384(9)
H103F H 0.6302 0.1246 -0.2494
C132F C 0.68270(10) 0.14454(13) -0.22240(9)
H104F H 0.6813 0.1750 -0.2300
C133F C 0.71609(10) 0.12997(11) -0.19927(8)
C134F C 0.71851(10) 0.08346(11) -0.18916(9)
C135F C 0.74794(10) 0.16064(11) -0.18536(8)
C136F C 0.77888(10) 0.14482(12) -0.16255(9)
H105F H 0.7989 0.1654 -0.1525
C137F C 0.78192(10) 0.09860(13) -0.15349(10)
H106F H 0.8043 0.0882 -0.1382
C138F C 0.75249(10) 0.06881(12) -0.16682(9)
H107F H 0.7550 0.0377 -0.1609
N28F N 0.57963(9) 0.07218(11) -0.16572(8)
C139F C 0.60245(11) 0.10924(13) -0.15902(9)
C140F C 0.59195(14) 0.15103(15) -0.17354(10)
H108F H 0.6086 0.1769 -0.1684
C141F C 0.55599(16) 0.15362(17) -0.19607(11)
H109F H 0.5475 0.1816 -0.2063
C142F C 0.53306(16) 0.11512(19) -0.20327(11)
H110F H 0.5086 0.1163 -0.2185
C143F C 0.54593(13) 0.07498(17) -0.18813(10)
H111F H 0.5305 0.0484 -0.1937
N29F N 0.68541(9) 0.06342(10) -0.10611(8)
N30F N 0.64847(8) 0.06066(9) -0.12463(7)
C144F C 0.64030(11) 0.10274(11) -0.13611(9)
C145F C 0.67116(12) 0.13276(13) -0.12516(10)
H112F H 0.6723 0.1642 -0.1298
C146F C 0.70002(11) 0.10654(13) -0.10595(10)
H113F H 0.7254 0.1167 -0.0947
C147F C 0.70400(10) 0.02650(12) -0.08595(9)
H114F H 0.6981 -0.0023 -0.0983
H115F H 0.7339 0.0307 -0.0826
C148F C 0.68856(10) 0.02344(12) -0.05175(9)
C149F C 0.69916(11) -0.01533(12) -0.03074(9)
C150F C 0.66501(11) 0.05690(13) -0.04087(10)
H116F H 0.6597 0.0833 -0.0543
N31F N 0.59987(9) 0.29803(12) 0.25581(8)
C151F C 0.59862(11) 0.26771(16) 0.28119(9)
C152F C 0.57168(13) 0.27377(19) 0.30555(11)
H117F H 0.5705 0.2518 0.3228
C153F C 0.54731(14) 0.3110(2) 0.30451(12)
H118F H 0.5299 0.3158 0.3215
C154F C 0.54815(13) 0.3419(2) 0.27848(12)
H119F H 0.5311 0.3679 0.2770
C155F C 0.57442(12) 0.33393(18) 0.25472(10)
H120F H 0.5746 0.3548 0.2366
N32F N 0.67765(10) 0.19398(11) 0.26541(8)
N33F N 0.65289(9) 0.22979(11) 0.25741(8)
C156F C 0.62738(12) 0.23070(14) 0.28182(9)
C157F C 0.63638(14) 0.19572(16) 0.30497(11)
H121F H 0.6231 0.1890 0.3242
C158F C 0.66851(15) 0.17316(15) 0.29388(11)
H122F H 0.6820 0.1475 0.3043
C159F C 0.70592(12) 0.17838(14) 0.24277(10)
H123F H 0.7286 0.1619 0.2560
H124F H 0.7176 0.2048 0.2321
N34F N 0.89543(9) 0.25699(10) -0.18961(7)
C160F C 0.87989(11) 0.27287(11) -0.16226(9)
C161F C 0.90266(13) 0.29912(12) -0.13776(9)
H125F H 0.8910 0.3095 -0.1185
C162F C 0.94220(13) 0.30967(14) -0.14196(10)
H126F H 0.9584 0.3274 -0.1256
C163F C 0.95847(13) 0.29387(15) -0.17087(11)
H127F H 0.9857 0.3009 -0.1744
C164F C 0.93390(12) 0.26794(15) -0.19399(10)
H128F H 0.9446 0.2575 -0.2137
N35F N 0.77773(9) 0.23650(10) -0.17767(7)
N36F N 0.81638(8) 0.23874(10) -0.18577(7)
C165F C 0.83695(11) 0.26189(11) -0.16016(8)
C166F C 0.81229(12) 0.27348(13) -0.13579(9)
H129F H 0.8199 0.2894 -0.1153
C167F C 0.77438(12) 0.25699(13) -0.14767(10)
H130F H 0.7503 0.2595 -0.1369
C168F C 0.74559(10) 0.20961(11) -0.19641(9)
H131F H 0.7187 0.2222 -0.1928
H132F H 0.7481 0.2114 -0.2209
loop_
_geom_bond_atom_site_label_1
_geom_bond_atom_site_label_2
_geom_bond_site_symmetry_1
_geom_bond_site_symmetry_2
Ni1 N1 1_555 1_555
Ni2 N19 1_555 1_555
Ni3 N10 1_555 1_555
Ni4 N34 1_555 1_555
N1 C1 1_555 1_555
C1 C2 1_555 1_555
C2 H1 1_555 1_555
C3 C2 1_555 1_555
H2 C3 1_555 1_555
C4 C3 1_555 1_555
H3 C4 1_555 1_555
C5 N1 1_555 1_555
H4 C5 1_555 1_555
N2 N3 1_555 1_555
N3 Ni1 1_555 1_555
C6 C1 1_555 1_555
C7 C6 1_555 1_555
H5 C7 1_555 1_555
C8 N2 1_555 1_555
H6 C8 1_555 1_555
C9 N2 1_555 1_555
H7 C9 1_555 1_555
H8 C9 1_555 1_555
N4 C10 1_555 1_555
C10 C11 1_555 1_555
C11 H9 1_555 1_555
C12 C11 1_555 1_555
H10 C12 1_555 1_555
C13 C12 1_555 1_555
H11 C13 1_555 1_555
C14 N4 1_555 1_555
H12 C14 1_555 1_555
N5 N6 1_555 1_555
N6 C15 1_555 1_555
C15 C10 1_555 1_555
C16 C15 1_555 1_555
H13 C16 1_555 1_555
C17 N5 1_555 1_555
H14 C17 1_555 1_555
C18 N5 1_555 1_555
H15 C18 1_555 1_555
H16 C18 1_555 1_555
C19 C9 1_555 1_555
C20 C19 1_555 1_555
H17 C20 1_555 1_555
C21 C20 1_555 1_555
H18 C21 1_555 1_555
C22 C21 1_555 1_555
H19 C22 1_555 1_555
C23 C22 1_555 1_555
C24 C19 1_555 1_555
C25 C18 1_555 1_555
C26 C25 1_555 1_555
H20 C26 1_555 1_555
C27 C26 1_555 1_555
H21 C27 1_555 1_555
C28 C24 1_555 1_555
H22 C28 1_555 1_555
N7 Ni1 1_555 1_555
C29 N7 1_555 1_555
C30 C29 1_555 1_555
H23 C30 1_555 1_555
C31 C30 1_555 1_555
H24 C31 1_555 1_555
C32 C31 1_555 1_555
H25 C32 1_555 1_555
C33 N7 1_555 1_555
H26 C33 1_555 1_555
N8 N9 1_555 1_555
N9 Ni1 1_555 1_555
C34 C29 1_555 1_555
C35 C34 1_555 1_555
H27 C35 1_555 1_555
C36 N8 1_555 1_555
H28 C36 1_555 1_555
C37 N8 1_555 1_555
H29 C37 1_555 1_555
H30 C37 1_555 1_555
N10 C38 1_555 1_555
C38 C39 1_555 1_555
C39 H31 1_555 1_555
C40 C39 1_555 1_555
H32 C40 1_555 1_555
C41 C40 1_555 1_555
H33 C41 1_555 1_555
C42 N10 1_555 1_555
H34 C42 1_555 1_555
N11 N12 1_555 1_555
N12 Ni3 1_555 1_555
C43 C38 1_555 1_555
C44 C43 1_555 1_555
H35 C44 1_555 1_555
C45 N11 1_555 1_555
H36 C45 1_555 1_555
C46 N11 1_555 1_555
H37 C46 1_555 1_555
H38 C46 1_555 1_555
C47 C37 1_555 1_555
C48 C47 1_555 1_555
H39 C48 1_555 1_555
C49 C48 1_555 1_555
H40 C49 1_555 1_555
C50 C49 1_555 1_555
H41 C50 1_555 1_555
C51 C50 1_555 1_555
C52 C47 1_555 1_555
C53 C46 1_555 1_555
C54 C53 1_555 1_555
H42 C54 1_555 1_555
C55 C54 1_555 1_555
H43 C55 1_555 1_555
C56 C52 1_555 1_555
H44 C56 1_555 1_555
N13 Ni1 1_555 1_555
C57 C58 1_555 1_555
C58 H45 1_555 1_555
C59 C58 1_555 1_555
H46 C59 1_555 1_555
C60 C59 1_555 1_555
H47 C60 1_555 1_555
C61 C60 1_555 1_555
H48 C61 1_555 1_555
C62 N13 1_555 1_555
C63 C62 1_555 1_555
H49 C63 1_555 1_555
C64 C63 1_555 1_555
H50 C64 1_555 1_555
C65 C64 1_555 1_555
H51 C65 1_555 1_555
C66 N13 1_555 1_555
H52 C66 1_555 1_555
N14 N15 1_555 1_555
N15 Ni1 1_555 1_555
C67 C62 1_555 1_555
C68 C67 1_555 1_555
H53 C68 1_555 1_555
C69 N14 1_555 1_555
H54 C69 1_555 1_555
C70 N14 1_555 1_555
H55 C70 1_555 1_555
H56 C70 1_555 1_555
N16 C57 1_555 1_555
N17 N18 1_555 1_555
N18 C71 1_555 1_555
C71 C57 1_555 1_555
C72 C71 1_555 1_555
H57 C72 1_555 1_555
C73 N17 1_555 1_555
H58 C73 1_555 1_555
C74 N17 1_555 1_555
H59 C74 1_555 1_555
H60 C74 1_555 1_555
C75 C70 1_555 1_555
C76 C75 1_555 1_555
H61 C76 1_555 1_555
C77 C76 1_555 1_555
H62 C77 1_555 1_555
C78 C77 1_555 1_555
H63 C78 1_555 1_555
C79 C78 1_555 1_555
C80 C75 1_555 1_555
C81 C74 1_555 1_555
C82 C81 1_555 1_555
H64 C82 1_555 1_555
C83 C82 1_555 1_555
H65 C83 1_555 1_555
C84 C80 1_555 1_555
H66 C84 1_555 1_555
N19 C85 1_555 1_555
C85 C86 1_555 1_555
C86 H67 1_555 1_555
C87 C86 1_555 1_555
H68 C87 1_555 1_555
C88 C87 1_555 1_555
H69 C88 1_555 1_555
C89 N19 1_555 1_555
H70 C89 1_555 1_555
N20 N21 1_555 1_555
N21 Ni2 1_555 1_555
C90 C85 1_555 1_555
C91 C90 1_555 1_555
H71 C91 1_555 1_555
C92 N20 1_555 1_555
H72 C92 1_555 1_555
C93 N20 1_555 1_555
H73 C93 1_555 1_555
H74 C93 1_555 1_555
C94 C93 1_555 1_555
C95 C94 1_555 1_555
H75 C95 1_555 1_555
C96 C95 1_555 1_555
H76 C96 1_555 1_555
C97 C96 1_555 1_555
H77 C97 1_555 1_555
C98 C97 1_555 1_555
C99 C94 1_555 1_555
C100 C98 1_555 1_555
C101 C100 1_555 1_555
H78 C101 1_555 1_555
C102 C101 1_555 1_555
H79 C102 1_555 1_555
C103 C99 1_555 1_555
H80 C103 1_555 1_555
N22 Ni2 1_555 1_555
C104 N22 1_555 1_555
C105 C104 1_555 1_555
H81 C105 1_555 1_555
C106 C105 1_555 1_555
H82 C106 1_555 1_555
C107 C106 1_555 1_555
H83 C107 1_555 1_555
C108 N22 1_555 1_555
H84 C108 1_555 1_555
N23 N24 1_555 1_555
N24 Ni2 1_555 1_555
C109 C104 1_555 1_555
C110 C109 1_555 1_555
H85 C110 1_555 1_555
C111 N23 1_555 1_555
H86 C111 1_555 1_555
C112 N23 1_555 1_555
H87 C112 1_555 1_555
H88 C112 1_555 1_555
C113 C112 1_555 1_555
C114 C113 1_555 1_555
H89 C114 1_555 1_555
C115 C114 1_555 1_555
H90 C115 1_555 1_555
C116 C115 1_555 1_555
H91 C116 1_555 1_555
C117 C113 1_555 1_555
C118 H92 1_555 1_555
C119 C117 1_555 1_555
H93 C119 1_555 1_555
N25 Ni3 1_555 1_555
C120 N25 1_555 1_555
C121 C120 1_555 1_555
H94 C121 1_555 1_555
C122 C121 1_555 1_555
H95 C122 1_555 1_555
C123 C122 1_555 1_555
H96 C123 1_555 1_555
C124 N25 1_555 1_555
H97 C124 1_555 1_555
N26 N27 1_555 1_555
N27 Ni3 1_555 1_555
C125 C120 1_555 1_555
C126 C125 1_555 1_555
H98 C126 1_555 1_555
C127 N26 1_555 1_555
H99 C127 1_555 1_555
C128 N26 1_555 1_555
H100 C128 1_555 1_555
H101 C128 1_555 1_555
C129 C128 1_555 1_555
C130 C129 1_555 1_555
H102 C130 1_555 1_555
C131 C130 1_555 1_555
H103 C131 1_555 1_555
C132 C131 1_555 1_555
H104 C132 1_555 1_555
C133 C132 1_555 1_555
C134 C129 1_555 1_555
C135 C133 1_555 1_555
C136 C135 1_555 1_555
H105 C136 1_555 1_555
C137 C136 1_555 1_555
H106 C137 1_555 1_555
C138 C134 1_555 1_555
H107 C138 1_555 1_555
N28 Ni3 1_555 1_555
C139 N28 1_555 1_555
C140 C139 1_555 1_555
H108 C140 1_555 1_555
C141 C140 1_555 1_555
H109 C141 1_555 1_555
C142 C141 1_555 1_555
H110 C142 1_555 1_555
C143 N28 1_555 1_555
H111 C143 1_555 1_555
N29 N30 1_555 1_555
N30 Ni3 1_555 1_555
C144 C139 1_555 1_555
C145 C144 1_555 1_555
H112 C145 1_555 1_555
C146 N29 1_555 1_555
H113 C146 1_555 1_555
C147 N29 1_555 1_555
H114 C147 1_555 1_555
H115 C147 1_555 1_555
C148 C147 1_555 1_555
C149 C116 1_555 1_555
C150 C118 1_555 1_555
H116 C150 1_555 1_555
N31 C151 1_555 1_555
C151 C152 1_555 1_555
C152 H117 1_555 1_555
C153 C152 1_555 1_555
H118 C153 1_555 1_555
C154 C153 1_555 1_555
H119 C154 1_555 1_555
C155 N31 1_555 1_555
H120 C155 1_555 1_555
N32 N33 1_555 1_555
N33 C156 1_555 1_555
C156 C151 1_555 1_555
C157 C156 1_555 1_555
H121 C157 1_555 1_555
C158 N32 1_555 1_555
H122 C158 1_555 1_555
C159 C100 1_555 1_555
H123 C159 1_555 1_555
H124 C159 1_555 1_555
N34 C160 1_555 1_555
C160 C161 1_555 1_555
C161 H125 1_555 1_555
C162 C161 1_555 1_555
H126 C162 1_555 1_555
C163 C162 1_555 1_555
H127 C163 1_555 1_555
C164 N34 1_555 1_555
H128 C164 1_555 1_555
N35 N36 1_555 1_555
N36 Ni4 1_555 1_555
C165 C160 1_555 1_555
C166 C165 1_555 1_555
H129 C166 1_555 1_555
C167 N35 1_555 1_555
H130 C167 1_555 1_555
C168 C135 1_555 1_555
H131 C168 1_555 1_555
H132 C168 1_555 1_555
B1 F1 1_555 1_555
F2 B1 1_555 1_555
F3 B1 1_555 1_555
F4 B1 1_555 1_555
B2 F5 1_555 1_555
F6 B2 1_555 1_555
F7 B2 1_555 1_555
F8 B2 1_555 1_555
B3 F9 1_555 1_555
F10 B3 1_555 1_555
F11 B3 1_555 1_555
F12 B3 1_555 1_555
B4 F13 1_555 1_555
F14 B4 1_555 1_555
F15 B4 1_555 1_555
F16 B4 1_555 1_555
B5 F17 1_555 1_555
F18 B5 1_555 1_555
F19 B5 1_555 1_555
F20 B5 1_555 1_555
B6 F21 1_555 1_555
F22 B6 1_555 1_555
F23 B6 1_555 1_555
F24 B6 1_555 1_555
O1 C169 1_555 1_555
C169 H133 1_555 1_555
H134 C169 1_555 1_555
H135 C169 1_555 1_555
O2 C170 1_555 1_555
C170 H136 1_555 1_555
H137 C170 1_555 1_555
H138 C170 1_555 1_555
O3 C171 1_555 1_555
C171 H139 1_555 1_555
H140 C171 1_555 1_555
H141 C171 1_555 1_555
Ni1F N1F 1_555 1_555
Ni2F N4 1_555 1_555
Ni3F N10F 1_555 1_555
Ni4F N16 1_555 1_555
N1F C1F 1_555 1_555
C1F C2F 1_555 1_555
C2F H1F 1_555 1_555
C3F C2F 1_555 1_555
H2F C3F 1_555 1_555
C4F C3F 1_555 1_555
H3F C4F 1_555 1_555
C5F N1F 1_555 1_555
H4F C5F 1_555 1_555
N2F N3F 1_555 1_555
N3F Ni1F 1_555 1_555
C6F C1F 1_555 1_555
C7F C6F 1_555 1_555
H5F C7F 1_555 1_555
C8F N2F 1_555 1_555
H6F C8F 1_555 1_555
C9F N2F 1_555 1_555
H7F C9F 1_555 1_555
H8F C9F 1_555 1_555
N4F Ni2 1_555 1_555
C10F N4F 1_555 1_555
C11F C10F 1_555 1_555
H9F C11F 1_555 1_555
C12F C11F 1_555 1_555
H10F C12F 1_555 1_555
C13F C12F 1_555 1_555
H11F C13F 1_555 1_555
C14F N4F 1_555 1_555
H12F C14F 1_555 1_555
N5F N6F 1_555 1_555
N6F Ni2 1_555 1_555
C15F C10F 1_555 1_555
C16F C15F 1_555 1_555
H13F C16F 1_555 1_555
C17F N5F 1_555 1_555
H14F C17F 1_555 1_555
C18F N5F 1_555 1_555
H15F C18F 1_555 1_555
H16F C18F 1_555 1_555
C19F C9F 1_555 1_555
C20F C19F 1_555 1_555
H17F C20F 1_555 1_555
C21F C20F 1_555 1_555
H18F C21F 1_555 1_555
C22F C21F 1_555 1_555
H19F C22F 1_555 1_555
C23F C22F 1_555 1_555
C24F C19F 1_555 1_555
C25F C18F 1_555 1_555
C26F C25F 1_555 1_555
H20F C26F 1_555 1_555
C27F C26F 1_555 1_555
H21F C27F 1_555 1_555
C28F C24F 1_555 1_555
H22F C28F 1_555 1_555
N7F Ni1F 1_555 1_555
C29F N7F 1_555 1_555
C30F C29F 1_555 1_555
H23F C30F 1_555 1_555
C31F C30F 1_555 1_555
H24F C31F 1_555 1_555
C32F C31F 1_555 1_555
H25F C32F 1_555 1_555
C33F N7F 1_555 1_555
H26F C33F 1_555 1_555
N8F N9F 1_555 1_555
N9F Ni1F 1_555 1_555
C34F C29F 1_555 1_555
C35F C34F 1_555 1_555
H27F C35F 1_555 1_555
C36F N8F 1_555 1_555
H28F C36F 1_555 1_555
C37F N8F 1_555 1_555
H29F C37F 1_555 1_555
H30F C37F 1_555 1_555
N10F C38F 1_555 1_555
C38F C39F 1_555 1_555
C39F H31F 1_555 1_555
C40F C39F 1_555 1_555
H32F C40F 1_555 1_555
C41F C40F 1_555 1_555
H33F C41F 1_555 1_555
C42F N10F 1_555 1_555
H34F C42F 1_555 1_555
N11F N12F 1_555 1_555
N12F Ni3F 1_555 1_555
C43F C38F 1_555 1_555
C44F C43F 1_555 1_555
H35F C44F 1_555 1_555
C45F N11F 1_555 1_555
H36F C45F 1_555 1_555
C46F N11F 1_555 1_555
H37F C46F 1_555 1_555
H38F C46F 1_555 1_555
C47F C37F 1_555 1_555
C48F C47F 1_555 1_555
H39F C48F 1_555 1_555
C49F C48F 1_555 1_555
H40F C49F 1_555 1_555
C50F C49F 1_555 1_555
H41F C50F 1_555 1_555
C51F C50F 1_555 1_555
C52F C47F 1_555 1_555
C53F C46F 1_555 1_555
C54F C53F 1_555 1_555
H42F C54F 1_555 1_555
C55F C54F 1_555 1_555
H43F C55F 1_555 1_555
C56F C52F 1_555 1_555
H44F C56F 1_555 1_555
N13F Ni1F 1_555 1_555
C57F C58F 1_555 1_555
C58F H45F 1_555 1_555
C59F C58F 1_555 1_555
H46F C59F 1_555 1_555
C60F C59F 1_555 1_555
H47F C60F 1_555 1_555
C61F C60F 1_555 1_555
H48F C61F 1_555 1_555
C62F N13F 1_555 1_555
C63F C62F 1_555 1_555
H49F C63F 1_555 1_555
C64F C63F 1_555 1_555
H50F C64F 1_555 1_555
C65F C64F 1_555 1_555
H51F C65F 1_555 1_555
C66F N13F 1_555 1_555
H52F C66F 1_555 1_555
N14F N15F 1_555 1_555
N15F Ni1F 1_555 1_555
C67F C62F 1_555 1_555
C68F C67F 1_555 1_555
H53F C68F 1_555 1_555
C69F N14F 1_555 1_555
H54F C69F 1_555 1_555
C70F N14F 1_555 1_555
H55F C70F 1_555 1_555
H56F C70F 1_555 1_555
N16F Ni4 1_555 1_555
N17F N18F 1_555 1_555
N18F Ni4 1_555 1_555
C71F C57F 1_555 1_555
C72F C71F 1_555 1_555
H57F C72F 1_555 1_555
C73F N17F 1_555 1_555
H58F C73F 1_555 1_555
C74F N17F 1_555 1_555
H59F C74F 1_555 1_555
H60F C74F 1_555 1_555
C75F C70F 1_555 1_555
C76F C75F 1_555 1_555
H61F C76F 1_555 1_555
C77F C76F 1_555 1_555
H62F C77F 1_555 1_555
C78F C77F 1_555 1_555
H63F C78F 1_555 1_555
C79F C78F 1_555 1_555
C80F C75F 1_555 1_555
C81F C74F 1_555 1_555
C82F C81F 1_555 1_555
H64F C82F 1_555 1_555
C83F C82F 1_555 1_555
H65F C83F 1_555 1_555
C84F C80F 1_555 1_555
H66F C84F 1_555 1_555
N19F Ni2F 1_555 1_555
C85F N19F 1_555 1_555
C86F C85F 1_555 1_555
H67F C86F 1_555 1_555
C87F C86F 1_555 1_555
H68F C87F 1_555 1_555
C88F C87F 1_555 1_555
H69F C88F 1_555 1_555
C89F N19F 1_555 1_555
H70F C89F 1_555 1_555
N20F N21F 1_555 1_555
N21F Ni2F 1_555 1_555
C90F C85F 1_555 1_555
C91F C90F 1_555 1_555
H71F C91F 1_555 1_555
C92F N20F 1_555 1_555
H72F C92F 1_555 1_555
C93F N20F 1_555 1_555
H73F C93F 1_555 1_555
H74F C93F 1_555 1_555
C94F C93F 1_555 1_555
C95F C94F 1_555 1_555
H75F C95F 1_555 1_555
C96F C95F 1_555 1_555
H76F C96F 1_555 1_555
C97F C96F 1_555 1_555
H77F C97F 1_555 1_555
C98F C97F 1_555 1_555
C99F C94F 1_555 1_555
C100F C98F 1_555 1_555
C101F C100F 1_555 1_555
H78F C101F 1_555 1_555
C102F C101F 1_555 1_555
H79F C102F 1_555 1_555
C103F C99F 1_555 1_555
H80F C103F 1_555 1_555
N22F Ni2F 1_555 1_555
C104F N22F 1_555 1_555
C105F C104F 1_555 1_555
H81F C105F 1_555 1_555
C106F C105F 1_555 1_555
H82F C106F 1_555 1_555
C107F C106F 1_555 1_555
H83F C107F 1_555 1_555
C108F N22F 1_555 1_555
H84F C108F 1_555 1_555
N23F N24F 1_555 1_555
N24F Ni2F 1_555 1_555
C109F C104F 1_555 1_555
C110F C109F 1_555 1_555
H85F C110F 1_555 1_555
C111F N23F 1_555 1_555
H86F C111F 1_555 1_555
C112F N23F 1_555 1_555
H87F C112F 1_555 1_555
H88F C112F 1_555 1_555
C113F C112F 1_555 1_555
C114F C113F 1_555 1_555
H89F C114F 1_555 1_555
C115F C114F 1_555 1_555
H90F C115F 1_555 1_555
C116F C115F 1_555 1_555
H91F C116F 1_555 1_555
C117F C113F 1_555 1_555
C118F H92F 1_555 1_555
C119F C117F 1_555 1_555
H93F C119F 1_555 1_555
N25F Ni3F 1_555 1_555
C120F N25F 1_555 1_555
C121F C120F 1_555 1_555
H94F C121F 1_555 1_555
C122F C121F 1_555 1_555
H95F C122F 1_555 1_555
C123F C122F 1_555 1_555
H96F C123F 1_555 1_555
C124F N25F 1_555 1_555
H97F C124F 1_555 1_555
N26F N27F 1_555 1_555
N27F Ni3F 1_555 1_555
C125F C120F 1_555 1_555
C126F C125F 1_555 1_555
H98F C126F 1_555 1_555
C127F N26F 1_555 1_555
H99F C127F 1_555 1_555
C128F N26F 1_555 1_555
H100F C128F 1_555 1_555
H101F C128F 1_555 1_555
C129F C128F 1_555 1_555
C130F C129F 1_555 1_555
H102F C130F 1_555 1_555
C131F C130F 1_555 1_555
H103F C131F 1_555 1_555
C132F C131F 1_555 1_555
H104F C132F 1_555 1_555
C133F C132F 1_555 1_555
C134F C129F 1_555 1_555
C135F C133F 1_555 1_555
C136F C135F 1_555 1_555
H105F C136F 1_555 1_555
C137F C136F 1_555 1_555
H106F C137F 1_555 1_555
C138F C134F 1_555 1_555
H107F C138F 1_555 1_555
N28F Ni3F 1_555 1_555
C139F N28F 1_555 1_555
C140F C139F 1_555 1_555
H108F C140F 1_555 1_555
C141F C140F 1_555 1_555
H109F C141F 1_555 1_555
C142F C141F 1_555 1_555
H110F C142F 1_555 1_555
C143F N28F 1_555 1_555
H111F C143F 1_555 1_555
N29F N30F 1_555 1_555
N30F Ni3F 1_555 1_555
C144F C139F 1_555 1_555
C145F C144F 1_555 1_555
H112F C145F 1_555 1_555
C146F N29F 1_555 1_555
H113F C146F 1_555 1_555
C147F N29F 1_555 1_555
H114F C147F 1_555 1_555
H115F C147F 1_555 1_555
C148F C147F 1_555 1_555
C149F C116F 1_555 1_555
C150F C118F 1_555 1_555
H116F C150F 1_555 1_555
N31F Ni4 1_555 1_555
C151F N31F 1_555 1_555
C152F C151F 1_555 1_555
H117F C152F 1_555 1_555
C153F C152F 1_555 1_555
H118F C153F 1_555 1_555
C154F C153F 1_555 1_555
H119F C154F 1_555 1_555
C155F N31F 1_555 1_555
H120F C155F 1_555 1_555
N32F N33F 1_555 1_555
N33F Ni4 1_555 1_555
C156F C151F 1_555 1_555
C157F C156F 1_555 1_555
H121F C157F 1_555 1_555
C158F N32F 1_555 1_555
H122F C158F 1_555 1_555
C159F C100F 1_555 1_555
H123F C159F 1_555 1_555
H124F C159F 1_555 1_555
N34F Ni4F 1_555 1_555
C160F N34F 1_555 1_555
C161F C160F 1_555 1_555
H125F C161F 1_555 1_555
C162F C161F 1_555 1_555
H126F C162F 1_555 1_555
C163F C162F 1_555 1_555
H127F C163F 1_555 1_555
C164F N34F 1_555 1_555
H128F C164F 1_555 1_555
N35F N36F 1_555 1_555
N36F Ni4F 1_555 1_555
C165F C160F 1_555 1_555
C166F C165F 1_555 1_555
H129F C166F 1_555 1_555
C167F N35F 1_555 1_555
H130F C167F 1_555 1_555
C168F C135F 1_555 1_555
H131F C168F 1_555 1_555
H132F C168F 1_555 1_555
C4 C5 1_555 1_555
N3 C6 1_555 1_555
C7 C8 1_555 1_555
C13 C14 1_555 1_555
N6 Ni2F 1_555 1_555
C16 C17 1_555 1_555
C23 C24 1_555 1_555
C23 C25 1_555 1_555
C27 C28 1_555 1_555
C32 C33 1_555 1_555
N9 C34 1_555 1_555
C35 C36 1_555 1_555
C41 C42 1_555 1_555
N12 C43 1_555 1_555
C44 C45 1_555 1_555
C51 C52 1_555 1_555
C51 C53 1_555 1_555
C55 C56 1_555 1_555
C61 N16 1_555 1_555
C65 C66 1_555 1_555
N15 C67 1_555 1_555
C68 C69 1_555 1_555
N18 Ni4F 1_555 1_555
C72 C73 1_555 1_555
C79 C80 1_555 1_555
C79 C81 1_555 1_555
C83 C84 1_555 1_555
C88 C89 1_555 1_555
N21 C90 1_555 1_555
C91 C92 1_555 1_555
C98 C99 1_555 1_555
C102 C103 1_555 1_555
C107 C108 1_555 1_555
N24 C109 1_555 1_555
C110 C111 1_555 1_555
C117 C149 1_555 1_555
C118 C119 1_555 1_555
C123 C124 1_555 1_555
N27 C125 1_555 1_555
C126 C127 1_555 1_555
C133 C134 1_555 1_555
C137 C138 1_555 1_555
C142 C143 1_555 1_555
N30 C144 1_555 1_555
C145 C146 1_555 1_555
C148 C149 1_555 1_555
C148 C150 1_555 1_555
N31 Ni4F 1_555 1_555
C154 C155 1_555 1_555
N32 C159 1_555 1_555
N33 Ni4F 1_555 1_555
C157 C158 1_555 1_555
C163 C164 1_555 1_555
N35 C168 1_555 1_555
N36 C165 1_555 1_555
C166 C167 1_555 1_555
C4F C5F 1_555 1_555
N3F C6F 1_555 1_555
C7F C8F 1_555 1_555
C13F C14F 1_555 1_555
N6F C15F 1_555 1_555
C16F C17F 1_555 1_555
C23F C24F 1_555 1_555
C23F C25F 1_555 1_555
C27F C28F 1_555 1_555
C32F C33F 1_555 1_555
N9F C34F 1_555 1_555
C35F C36F 1_555 1_555
C41F C42F 1_555 1_555
N12F C43F 1_555 1_555
C44F C45F 1_555 1_555
C51F C52F 1_555 1_555
C51F C53F 1_555 1_555
C55F C56F 1_555 1_555
C57F N16F 1_555 1_555
C61F N16F 1_555 1_555
C65F C66F 1_555 1_555
N15F C67F 1_555 1_555
C68F C69F 1_555 1_555
N18F C71F 1_555 1_555
C72F C73F 1_555 1_555
C79F C80F 1_555 1_555
C79F C81F 1_555 1_555
C83F C84F 1_555 1_555
C88F C89F 1_555 1_555
N21F C90F 1_555 1_555
C91F C92F 1_555 1_555
C98F C99F 1_555 1_555
C102F C103F 1_555 1_555
C107F C108F 1_555 1_555
N24F C109F 1_555 1_555
C110F C111F 1_555 1_555
C117F C149F 1_555 1_555
C118F C119F 1_555 1_555
C123F C124F 1_555 1_555
N27F C125F 1_555 1_555
C126F C127F 1_555 1_555
C133F C134F 1_555 1_555
C137F C138F 1_555 1_555
C142F C143F 1_555 1_555
N30F C144F 1_555 1_555
C145F C146F 1_555 1_555
C148F C149F 1_555 1_555
C148F C150F 1_555 1_555
C154F C155F 1_555 1_555
N32F C159F 1_555 1_555
N33F C156F 1_555 1_555
C157F C158F 1_555 1_555
C163F C164F 1_555 1_555
N35F C168F 1_555 1_555
N36F C165F 1_555 1_555
C166F C167F 1_555 1_555

#END
