# generated using pymatgen
data_Co4B5H141C171N36O3F20
_symmetry_space_group_name_H-M   'P 1'
_cell_length_a   22.25136419
_cell_length_b   22.25136419
_cell_length_c   39.83460000
_cell_angle_alpha   85.19253357
_cell_angle_beta   85.19253357
_cell_angle_gamma   84.51962997
_symmetry_Int_Tables_number   1
_chemical_formula_structural   Co4B5H141C171N36O3F20
_chemical_formula_sum   'Co16 B20 H564 C684 N144 O12 F80'
_cell_volume   19506.59992613
_cell_formula_units_Z   4
loop_
 _symmetry_equiv_pos_site_id
 _symmetry_equiv_pos_as_xyz
  1  'x, y, z'
loop_
 _atom_site_type_symbol
 _atom_site_label
 _atom_site_symmetry_multiplicity
 _atom_site_fract_x
 _atom_site_fract_y
 _atom_site_fract_z
 _atom_site_occupancy
  B  B1  1  0.468430  0.795190  0.950060  1
  B  B2  1  0.204810  0.531570  0.549940  1
  B  B3  1  0.531570  0.204810  0.049940  1
  B  B4  1  0.795190  0.468430  0.450060  1
  B  B5  1  0.050430  0.930230  0.847640  1
  B  B6  1  0.069770  0.949570  0.652360  1
  B  B7  1  0.949570  0.069770  0.152360  1
  B  B8  1  0.930230  0.050430  0.347640  1
  B  B9  1  0.597200  0.519200  0.783700  1
  B  B10  1  0.480800  0.402800  0.716300  1
  B  B11  1  0.402800  0.480800  0.216300  1
  B  B12  1  0.519200  0.597200  0.283700  1
  B  B13  1  0.629900  0.080700  0.838580  1
  B  B14  1  0.919300  0.370100  0.661420  1
  B  B15  1  0.370100  0.919300  0.161420  1
  B  B16  1  0.080700  0.629900  0.338580  1
  B  B17  1  0.223000  0.126400  0.932160  1
  B  B18  1  0.873600  0.777000  0.567840  1
  B  B19  1  0.777000  0.873600  0.067840  1
  B  B20  1  0.126400  0.223000  0.432160  1
  C  C21  1  0.417800  0.935000  0.002200  1
  C  C22  1  0.065000  0.582200  0.497800  1
  C  C23  1  0.582200  0.065000  0.997800  1
  C  C24  1  0.935000  0.417800  0.502200  1
  C  C25  1  0.348000  0.073000  0.985720  1
  C  C26  1  0.927000  0.652000  0.514280  1
  C  C27  1  0.652000  0.927000  0.014280  1
  C  C28  1  0.073000  0.348000  0.485720  1
  C  C29  1  0.287500  0.600700  0.876100  1
  C  C30  1  0.399300  0.712500  0.623900  1
  C  C31  1  0.712500  0.399300  0.123900  1
  C  C32  1  0.600700  0.287500  0.376100  1
  C  C33  1  0.315750  0.057750  0.758620  1.0
  C  C34  1  0.942250  0.684250  0.741380  1.0
  C  C35  1  0.684250  0.942250  0.241380  1.0
  C  C36  1  0.057750  0.315750  0.258620  1.0
  C  C37  1  0.312550  0.118350  0.745120  1.0
  C  C38  1  0.881650  0.687450  0.754880  1.0
  C  C39  1  0.687450  0.881650  0.254880  1.0
  C  C40  1  0.118350  0.312550  0.245120  1.0
  C  C41  1  0.358300  0.134300  0.721610  1.0
  C  C42  1  0.865700  0.641700  0.778390  1.0
  C  C43  1  0.641700  0.865700  0.278390  1.0
  C  C44  1  0.134300  0.358300  0.221610  1.0
  C  C45  1  0.405210  0.092210  0.712300  1.0
  C  C46  1  0.907790  0.594790  0.787700  1.0
  C  C47  1  0.594790  0.907790  0.287700  1.0
  C  C48  1  0.092210  0.405210  0.212300  1.0
  C  C49  1  0.404890  0.033890  0.726330  1.0
  C  C50  1  0.966110  0.595110  0.773670  1.0
  C  C51  1  0.595110  0.966110  0.273670  1.0
  C  C52  1  0.033890  0.404890  0.226330  1.0
  C  C53  1  0.270420  0.036220  0.784130  1.0
  C  C54  1  0.963780  0.729580  0.715870  1.0
  C  C55  1  0.729580  0.963780  0.215870  1.0
  C  C56  1  0.036220  0.270420  0.284130  1.0
  C  C57  1  0.215000  0.062600  0.795420  1.0
  C  C58  1  0.937400  0.785000  0.704580  1.0
  C  C59  1  0.785000  0.937400  0.204580  1.0
  C  C60  1  0.062600  0.215000  0.295420  1.0
  C  C61  1  0.190600  0.018200  0.818510  1.0
  C  C62  1  0.981800  0.809400  0.681490  1.0
  C  C63  1  0.809400  0.981800  0.181490  1.0
  C  C64  1  0.018200  0.190600  0.318510  1.0
  C  C65  1  0.226690  0.914890  0.841160  1.0
  C  C66  1  0.085110  0.773310  0.658840  1.0
  C  C67  1  0.773310  0.085110  0.158840  1.0
  C  C68  1  0.914890  0.226690  0.341160  1.0
  C  C69  1  0.177060  0.706860  0.071990  1.0
  C  C70  1  0.293140  0.822940  0.428010  1.0
  C  C71  1  0.822940  0.293140  0.928010  1.0
  C  C72  1  0.706860  0.177060  0.571990  1.0
  C  C73  1  0.172210  0.653810  0.092290  1.0
  C  C74  1  0.346190  0.827790  0.407710  1.0
  C  C75  1  0.827790  0.346190  0.907710  1.0
  C  C76  1  0.653810  0.172210  0.592290  1.0
  C  C77  1  0.122200  0.647800  0.114300  1.0
  C  C78  1  0.352200  0.877800  0.385700  1.0
  C  C79  1  0.877800  0.352200  0.885700  1.0
  C  C80  1  0.647800  0.122200  0.614300  1.0
  C  C81  1  0.076500  0.694100  0.116120  1.0
  C  C82  1  0.305900  0.923500  0.383880  1.0
  C  C83  1  0.923500  0.305900  0.883880  1.0
  C  C84  1  0.694100  0.076500  0.616120  1.0
  C  C85  1  0.082490  0.745290  0.094590  1.0
  C  C86  1  0.254710  0.917510  0.405410  1.0
  C  C87  1  0.917510  0.254710  0.905410  1.0
  C  C88  1  0.745290  0.082490  0.594590  1.0
  C  C89  1  0.228090  0.717690  0.048680  1.0
  C  C90  1  0.282310  0.771910  0.451320  1.0
  C  C91  1  0.771910  0.282310  0.951320  1.0
  C  C92  1  0.717690  0.228090  0.548680  1.0
  C  C93  1  0.281010  0.681610  0.040990  1.0
  C  C94  1  0.318390  0.718990  0.459010  1.0
  C  C95  1  0.718990  0.318390  0.959010  1.0
  C  C96  1  0.681610  0.281010  0.540990  1.0
  C  C97  1  0.315200  0.716400  0.017530  1.0
  C  C98  1  0.283600  0.684800  0.482470  1.0
  C  C99  1  0.684800  0.283600  0.982470  1.0
  C  C100  1  0.716400  0.315200  0.517530  1.0
  C  C101  1  0.298930  0.819330  0.987710  1.0
  C  C102  1  0.180670  0.701070  0.512290  1.0
  C  C103  1  0.701070  0.180670  0.012290  1.0
  C  C104  1  0.819330  0.298930  0.487710  1.0
  C  C105  1  0.253630  0.916630  0.874680  1.0
  C  C106  1  0.083370  0.746370  0.625320  1.0
  C  C107  1  0.746370  0.083370  0.125320  1.0
  C  C108  1  0.916630  0.253630  0.374680  1.0
  C  C109  1  0.277340  0.967540  0.883320  1.0
  C  C110  1  0.032460  0.722660  0.616680  1.0
  C  C111  1  0.722660  0.032460  0.116680  1.0
  C  C112  1  0.967540  0.277340  0.383320  1.0
  C  C113  1  0.303020  0.968420  0.913660  1.0
  C  C114  1  0.031580  0.696980  0.586340  1.0
  C  C115  1  0.696980  0.031580  0.086340  1.0
  C  C116  1  0.968420  0.303020  0.413660  1.0
  C  C117  1  0.304270  0.919270  0.936320  1.0
  C  C118  1  0.080730  0.695730  0.563680  1.0
  C  C119  1  0.695730  0.080730  0.063680  1.0
  C  C120  1  0.919270  0.304270  0.436320  1.0
  C  C121  1  0.278050  0.866690  0.929990  1.0
  C  C122  1  0.133310  0.721950  0.570010  1.0
  C  C123  1  0.721950  0.133310  0.070010  1.0
  C  C124  1  0.866690  0.278050  0.429990  1.0
  C  C125  1  0.253600  0.864200  0.897610  1.0
  C  C126  1  0.135800  0.746400  0.602390  1.0
  C  C127  1  0.746400  0.135800  0.102390  1.0
  C  C128  1  0.864200  0.253600  0.397610  1.0
  C  C129  1  0.275250  0.815710  0.953400  1.0
  C  C130  1  0.184290  0.724750  0.546600  1.0
  C  C131  1  0.724750  0.184290  0.046600  1.0
  C  C132  1  0.815710  0.275250  0.453400  1.0
  C  C133  1  0.251280  0.763880  0.945810  1.0
  C  C134  1  0.236120  0.748720  0.554190  1.0
  C  C135  1  0.748720  0.236120  0.054190  1.0
  C  C136  1  0.763880  0.251280  0.445810  1.0
  C  C137  1  0.229830  0.762030  0.913720  1.0
  C  C138  1  0.237970  0.770170  0.586280  1.0
  C  C139  1  0.770170  0.237970  0.086280  1.0
  C  C140  1  0.762030  0.229830  0.413720  1.0
  C  C141  1  0.231110  0.810310  0.890660  1.0
  C  C142  1  0.189690  0.768890  0.609340  1.0
  C  C143  1  0.768890  0.189690  0.109340  1.0
  C  C144  1  0.810310  0.231110  0.390660  1.0
  C  C145  1  0.392800  0.848700  0.837370  1.0
  C  C146  1  0.151300  0.607200  0.662630  1.0
  C  C147  1  0.607200  0.151300  0.162630  1.0
  C  C148  1  0.848700  0.392800  0.337370  1.0
  C  C149  1  0.395990  0.801990  0.861860  1.0
  C  C150  1  0.198010  0.604010  0.638140  1.0
  C  C151  1  0.604010  0.198010  0.138140  1.0
  C  C152  1  0.801990  0.395990  0.361860  1.0
  C  C153  1  0.365600  0.751000  0.857580  1.0
  C  C154  1  0.249000  0.634400  0.642420  1.0
  C  C155  1  0.634400  0.249000  0.142420  1.0
  C  C156  1  0.751000  0.365600  0.357580  1.0
  C  C157  1  0.335500  0.749700  0.828780  1.0
  C  C158  1  0.250300  0.664500  0.671220  1.0
  C  C159  1  0.664500  0.250300  0.171220  1.0
  C  C160  1  0.749700  0.335500  0.328780  1.0
  C  C161  1  0.333910  0.798910  0.805620  1.0
  C  C162  1  0.201090  0.666090  0.694380  1.0
  C  C163  1  0.666090  0.201090  0.194380  1.0
  C  C164  1  0.798910  0.333910  0.305620  1.0
  C  C165  1  0.424850  0.903430  0.838670  1.0
  C  C166  1  0.096570  0.575150  0.661330  1.0
  C  C167  1  0.575150  0.096570  0.161330  1.0
  C  C168  1  0.903430  0.424850  0.338670  1.0
  C  C169  1  0.461500  0.917700  0.863530  1.0
  C  C170  1  0.082300  0.538500  0.636470  1.0
  C  C171  1  0.538500  0.082300  0.136470  1.0
  C  C172  1  0.917700  0.461500  0.363530  1.0
  C  C173  1  0.480770  0.970970  0.852030  1.0
  C  C174  1  0.029030  0.519230  0.647970  1.0
  C  C175  1  0.519230  0.029030  0.147970  1.0
  C  C176  1  0.970970  0.480770  0.352030  1.0
  C  C177  1  0.463700  0.046740  0.803560  1.0
  C  C178  1  0.953260  0.536300  0.696440  1.0
  C  C179  1  0.536300  0.953260  0.196440  1.0
  C  C180  1  0.046740  0.463700  0.303560  1.0
  C  C181  1  0.398830  0.495910  0.814130  1.0
  C  C182  1  0.504090  0.601170  0.685870  1.0
  C  C183  1  0.601170  0.504090  0.185870  1.0
  C  C184  1  0.495910  0.398830  0.314130  1.0
  C  C185  1  0.399110  0.555490  0.800520  1.0
  C  C186  1  0.444510  0.600890  0.699480  1.0
  C  C187  1  0.600890  0.444510  0.199480  1.0
  C  C188  1  0.555490  0.399110  0.300520  1.0
  C  C189  1  0.431710  0.595770  0.814790  1.0
  C  C190  1  0.404230  0.568290  0.685210  1.0
  C  C191  1  0.568290  0.404230  0.185210  1.0
  C  C192  1  0.595770  0.431710  0.314790  1.0
  C  C193  1  0.464060  0.576460  0.842690  1.0
  C  C194  1  0.423540  0.535940  0.657310  1.0
  C  C195  1  0.535940  0.423540  0.157310  1.0
  C  C196  1  0.576460  0.464060  0.342690  1.0
  C  C197  1  0.463790  0.516890  0.856310  1.0
  C  C198  1  0.483110  0.536210  0.643690  1.0
  C  C199  1  0.536210  0.483110  0.143690  1.0
  C  C200  1  0.516890  0.463790  0.356310  1.0
  C  C201  1  0.364020  0.453420  0.803070  1.0
  C  C202  1  0.546580  0.635980  0.696930  1.0
  C  C203  1  0.635980  0.546580  0.196930  1.0
  C  C204  1  0.453420  0.364020  0.303070  1.0
  C  C205  1  0.321420  0.459820  0.778810  1.0
  C  C206  1  0.540180  0.678580  0.721190  1.0
  C  C207  1  0.678580  0.540180  0.221190  1.0
  C  C208  1  0.459820  0.321420  0.278810  1.0
  C  C209  1  0.299100  0.404900  0.779030  1.0
  C  C210  1  0.595100  0.700900  0.720970  1.0
  C  C211  1  0.700900  0.595100  0.220970  1.0
  C  C212  1  0.404900  0.299100  0.279030  1.0
  C  C213  1  0.317840  0.304440  0.812320  1.0
  C  C214  1  0.695560  0.682160  0.687680  1.0
  C  C215  1  0.682160  0.695560  0.187680  1.0
  C  C216  1  0.304440  0.317840  0.312320  1.0
  C  C217  1  0.412790  0.092990  0.814200  1.0
  C  C218  1  0.907010  0.587210  0.685800  1.0
  C  C219  1  0.587210  0.907010  0.185800  1.0
  C  C220  1  0.092990  0.412790  0.314200  1.0
  C  C221  1  0.366590  0.076390  0.836830  1.0
  C  C222  1  0.923610  0.633410  0.663170  1.0
  C  C223  1  0.633410  0.923610  0.163170  1.0
  C  C224  1  0.076390  0.366590  0.336830  1.0
  C  C225  1  0.317940  0.119540  0.846070  1.0
  C  C226  1  0.880460  0.682060  0.653930  1.0
  C  C227  1  0.682060  0.880460  0.153930  1.0
  C  C228  1  0.119540  0.317940  0.346070  1.0
  C  C229  1  0.317210  0.178210  0.833590  1.0
  C  C230  1  0.821790  0.682790  0.666410  1.0
  C  C231  1  0.682790  0.821790  0.166410  1.0
  C  C232  1  0.178210  0.317210  0.333590  1.0
  C  C233  1  0.366250  0.197430  0.811520  1.0
  C  C234  1  0.802570  0.633750  0.688480  1.0
  C  C235  1  0.633750  0.802570  0.188480  1.0
  C  C236  1  0.197430  0.366250  0.311520  1.0
  C  C237  1  0.413390  0.154990  0.801040  1.0
  C  C238  1  0.845010  0.586610  0.698960  1.0
  C  C239  1  0.586610  0.845010  0.198960  1.0
  C  C240  1  0.154990  0.413390  0.301040  1.0
  C  C241  1  0.368490  0.260090  0.799330  1.0
  C  C242  1  0.739910  0.631510  0.700670  1.0
  C  C243  1  0.631510  0.739910  0.200670  1.0
  C  C244  1  0.260090  0.368490  0.299330  1.0
  C  C245  1  0.414570  0.277170  0.777710  1.0
  C  C246  1  0.722830  0.585430  0.722290  1.0
  C  C247  1  0.585430  0.722830  0.222290  1.0
  C  C248  1  0.277170  0.414570  0.277710  1.0
  C  C249  1  0.462190  0.234190  0.766320  1.0
  C  C250  1  0.765810  0.537810  0.733680  1.0
  C  C251  1  0.537810  0.765810  0.233680  1.0
  C  C252  1  0.234190  0.462190  0.266320  1.0
  C  C253  1  0.462350  0.173950  0.777930  1.0
  C  C254  1  0.826050  0.537650  0.722070  1.0
  C  C255  1  0.537650  0.826050  0.222070  1.0
  C  C256  1  0.173950  0.462350  0.277930  1.0
  C  C257  1  0.327960  0.867160  0.716100  1.0
  C  C258  1  0.132840  0.672040  0.783900  1.0
  C  C259  1  0.672040  0.132840  0.283900  1.0
  C  C260  1  0.867160  0.327960  0.216100  1.0
  C  C261  1  0.296600  0.846000  0.691940  1.0
  C  C262  1  0.154000  0.703400  0.808060  1.0
  C  C263  1  0.703400  0.154000  0.308060  1.0
  C  C264  1  0.846000  0.296600  0.191940  1.0
  C  C265  1  0.234100  0.856900  0.693630  1.0
  C  C266  1  0.143100  0.765900  0.806370  1.0
  C  C267  1  0.765900  0.143100  0.306370  1.0
  C  C268  1  0.856900  0.234100  0.193630  1.0
  C  C269  1  0.203400  0.888000  0.719720  1.0
  C  C270  1  0.112000  0.796600  0.780280  1.0
  C  C271  1  0.796600  0.112000  0.280280  1.0
  C  C272  1  0.888000  0.203400  0.219720  1.0
  C  C273  1  0.239480  0.905880  0.743530  1.0
  C  C274  1  0.094120  0.760520  0.756470  1.0
  C  C275  1  0.760520  0.094120  0.256470  1.0
  C  C276  1  0.905880  0.239480  0.243530  1.0
  C  C277  1  0.394030  0.860830  0.715300  1.0
  C  C278  1  0.139170  0.605970  0.784700  1.0
  C  C279  1  0.605970  0.139170  0.284700  1.0
  C  C280  1  0.860830  0.394030  0.215300  1.0
  C  C281  1  0.436800  0.835200  0.691960  1.0
  C  C282  1  0.164800  0.563200  0.808040  1.0
  C  C283  1  0.563200  0.164800  0.308040  1.0
  C  C284  1  0.835200  0.436800  0.191960  1.0
  C  C285  1  0.491600  0.844600  0.702740  1.0
  C  C286  1  0.155400  0.508400  0.797260  1.0
  C  C287  1  0.508400  0.155400  0.297260  1.0
  C  C288  1  0.844600  0.491600  0.202740  1.0
  C  C289  1  0.525340  0.888340  0.753820  1.0
  C  C290  1  0.111660  0.474660  0.746180  1.0
  C  C291  1  0.474660  0.111660  0.246180  1.0
  C  C292  1  0.888340  0.525340  0.253820  1.0
  C  C293  1  0.804320  0.785320  0.948630  1.0
  C  C294  1  0.214680  0.195680  0.551370  1.0
  C  C295  1  0.195680  0.214680  0.051370  1.0
  C  C296  1  0.785320  0.804320  0.448630  1.0
  C  C297  1  0.819640  0.805640  0.978520  1.0
  C  C298  1  0.194360  0.180360  0.521480  1.0
  C  C299  1  0.180360  0.194360  0.021480  1.0
  C  C300  1  0.805640  0.819640  0.478520  1.0
  C  C301  1  0.877800  0.794600  0.987130  1.0
  C  C302  1  0.205400  0.122200  0.512870  1.0
  C  C303  1  0.122200  0.205400  0.012870  1.0
  C  C304  1  0.794600  0.877800  0.487130  1.0
  C  C305  1  0.919400  0.763400  0.966230  1.0
  C  C306  1  0.236600  0.080600  0.533770  1.0
  C  C307  1  0.080600  0.236600  0.033770  1.0
  C  C308  1  0.763400  0.919400  0.466230  1.0
  C  C309  1  0.901300  0.745900  0.935970  1.0
  C  C310  1  0.254100  0.098700  0.564030  1.0
  C  C311  1  0.098700  0.254100  0.064030  1.0
  C  C312  1  0.745900  0.901300  0.435970  1.0
  C  C313  1  0.741410  0.790610  0.939650  1.0
  C  C314  1  0.209390  0.258590  0.560350  1.0
  C  C315  1  0.258590  0.209390  0.060350  1.0
  C  C316  1  0.790610  0.741410  0.439650  1.0
  C  C317  1  0.690080  0.817480  0.956760  1.0
  C  C318  1  0.182520  0.309920  0.543240  1.0
  C  C319  1  0.309920  0.182520  0.043240  1.0
  C  C320  1  0.817480  0.690080  0.456760  1.0
  C  C321  1  0.643130  0.806530  0.938800  1.0
  C  C322  1  0.193470  0.356870  0.561200  1.0
  C  C323  1  0.356870  0.193470  0.061200  1.0
  C  C324  1  0.806530  0.643130  0.438800  1.0
  C  C325  1  0.631500  0.756700  0.886140  1.0
  C  C326  1  0.243300  0.368500  0.613860  1.0
  C  C327  1  0.368500  0.243300  0.113860  1.0
  C  C328  1  0.756700  0.631500  0.386140  1.0
  C  C329  1  0.534950  0.836950  0.781700  1.0
  C  C330  1  0.163050  0.465050  0.718300  1.0
  C  C331  1  0.465050  0.163050  0.218300  1.0
  C  C332  1  0.836950  0.534950  0.281700  1.0
  C  C333  1  0.506180  0.785980  0.782300  1.0
  C  C334  1  0.214020  0.493820  0.717700  1.0
  C  C335  1  0.493820  0.214020  0.217700  1.0
  C  C336  1  0.785980  0.506180  0.282300  1.0
  C  C337  1  0.517870  0.739070  0.806960  1.0
  C  C338  1  0.260930  0.482130  0.693040  1.0
  C  C339  1  0.482130  0.260930  0.193040  1.0
  C  C340  1  0.739070  0.517870  0.306960  1.0
  C  C341  1  0.555730  0.743530  0.831900  1.0
  C  C342  1  0.256470  0.444270  0.668100  1.0
  C  C343  1  0.444270  0.256470  0.168100  1.0
  C  C344  1  0.743530  0.555730  0.331900  1.0
  C  C345  1  0.583780  0.798580  0.832470  1.0
  C  C346  1  0.201420  0.416220  0.667530  1.0
  C  C347  1  0.416220  0.201420  0.167530  1.0
  C  C348  1  0.798580  0.583780  0.332470  1.0
  C  C349  1  0.574470  0.845470  0.806740  1.0
  C  C350  1  0.154530  0.425530  0.693260  1.0
  C  C351  1  0.425530  0.154530  0.193260  1.0
  C  C352  1  0.845470  0.574470  0.306740  1.0
  C  C353  1  0.621990  0.806990  0.858320  1.0
  C  C354  1  0.193010  0.378010  0.641680  1.0
  C  C355  1  0.378010  0.193010  0.141680  1.0
  C  C356  1  0.806990  0.621990  0.358320  1.0
  C  C357  1  0.649010  0.859410  0.857640  1.0
  C  C358  1  0.140590  0.350990  0.642360  1.0
  C  C359  1  0.350990  0.140590  0.142360  1.0
  C  C360  1  0.859410  0.649010  0.357640  1.0
  C  C361  1  0.639820  0.905220  0.831970  1.0
  C  C362  1  0.094780  0.360180  0.668030  1.0
  C  C363  1  0.360180  0.094780  0.168030  1.0
  C  C364  1  0.905220  0.639820  0.331970  1.0
  C  C365  1  0.603680  0.898680  0.807590  1.0
  C  C366  1  0.101320  0.396320  0.692410  1.0
  C  C367  1  0.396320  0.101320  0.192410  1.0
  C  C368  1  0.898680  0.603680  0.307590  1.0
  C  C369  1  0.105620  0.816820  0.966360  1.0
  C  C370  1  0.183180  0.894380  0.533640  1.0
  C  C371  1  0.894380  0.183180  0.033640  1.0
  C  C372  1  0.816820  0.105620  0.466360  1.0
  C  C373  1  0.086230  0.794230  0.938300  1.0
  C  C374  1  0.205770  0.913770  0.561700  1.0
  C  C375  1  0.913770  0.205770  0.061700  1.0
  C  C376  1  0.794230  0.086230  0.438300  1.0
  C  C377  1  0.073600  0.734800  0.940300  1.0
  C  C378  1  0.265200  0.926400  0.559700  1.0
  C  C379  1  0.926400  0.265200  0.059700  1.0
  C  C380  1  0.734800  0.073600  0.440300  1.0
  C  C381  1  0.079960  0.699160  0.969760  1.0
  C  C382  1  0.300840  0.920040  0.530240  1.0
  C  C383  1  0.920040  0.300840  0.030240  1.0
  C  C384  1  0.699160  0.079960  0.469760  1.0
  C  C385  1  0.097840  0.724840  0.998220  1.0
  C  C386  1  0.275160  0.902160  0.501780  1.0
  C  C387  1  0.902160  0.275160  0.001780  1.0
  C  C388  1  0.724840  0.097840  0.498220  1.0
  C  C389  1  0.170990  0.947630  0.984500  1.0
  C  C390  1  0.052370  0.829010  0.515500  1.0
  C  C391  1  0.829010  0.052370  0.015500  1.0
  C  C392  1  0.947630  0.170990  0.484500  1.0
  C  C393  1  0.155930  0.968150  0.953530  1.0
  C  C394  1  0.031850  0.844070  0.546470  1.0
  C  C395  1  0.844070  0.031850  0.046470  1.0
  C  C396  1  0.968150  0.155930  0.453530  1.0
  C  C397  1  0.127060  0.924260  0.940400  1.0
  C  C398  1  0.075740  0.872940  0.559600  1.0
  C  C399  1  0.872940  0.075740  0.059600  1.0
  C  C400  1  0.924260  0.127060  0.440400  1.0
  C  C401  1  0.200870  0.978410  0.007430  1.0
  C  C402  1  0.021590  0.799130  0.492570  1.0
  C  C403  1  0.799130  0.021590  0.992570  1.0
  C  C404  1  0.978410  0.200870  0.507430  1.0
  C  C405  1  0.156130  0.015730  0.031070  1.0
  C  C406  1  0.984270  0.843870  0.468930  1.0
  C  C407  1  0.843870  0.984270  0.968930  1.0
  C  C408  1  0.015730  0.156130  0.531070  1.0
  C  C409  1  0.096160  0.025580  0.026780  1.0
  C  C410  1  0.974420  0.903840  0.473220  1.0
  C  C411  1  0.903840  0.974420  0.973220  1.0
  C  C412  1  0.025580  0.096160  0.526780  1.0
  C  C413  1  0.057940  0.058540  0.048990  1.0
  C  C414  1  0.941460  0.942060  0.451010  1.0
  C  C415  1  0.942060  0.941460  0.951010  1.0
  C  C416  1  0.058540  0.057940  0.548990  1.0
  C  C417  1  0.078800  0.080800  0.076200  1.0
  C  C418  1  0.919200  0.921200  0.423800  1.0
  C  C419  1  0.921200  0.919200  0.923800  1.0
  C  C420  1  0.080800  0.078800  0.576200  1.0
  C  C421  1  0.141350  0.071750  0.081890  1.0
  C  C422  1  0.928250  0.858650  0.418110  1.0
  C  C423  1  0.858650  0.928250  0.918110  1.0
  C  C424  1  0.071750  0.141350  0.581890  1.0
  C  C425  1  0.180980  0.039020  0.059020  1.0
  C  C426  1  0.960980  0.819020  0.440980  1.0
  C  C427  1  0.819020  0.960980  0.940980  1.0
  C  C428  1  0.039020  0.180980  0.559020  1.0
  C  C429  1  0.165140  0.091940  0.110610  1.0
  C  C430  1  0.908060  0.834860  0.389390  1.0
  C  C431  1  0.834860  0.908060  0.889390  1.0
  C  C432  1  0.091940  0.165140  0.610610  1.0
  C  C433  1  0.224860  0.079060  0.115860  1.0
  C  C434  1  0.920940  0.775140  0.384140  1.0
  C  C435  1  0.775140  0.920940  0.884140  1.0
  C  C436  1  0.079060  0.224860  0.615860  1.0
  C  C437  1  0.264200  0.046800  0.092480  1.0
  C  C438  1  0.953200  0.735800  0.407520  1.0
  C  C439  1  0.735800  0.953200  0.907520  1.0
  C  C440  1  0.046800  0.264200  0.592480  1.0
  C  C441  1  0.243600  0.028540  0.064120  1.0
  C  C442  1  0.971460  0.756400  0.435880  1.0
  C  C443  1  0.756400  0.971460  0.935880  1.0
  C  C444  1  0.028540  0.243600  0.564120  1.0
  C  C445  1  0.123610  0.127610  0.134880  1.0
  C  C446  1  0.872390  0.876390  0.365120  1.0
  C  C447  1  0.876390  0.872390  0.865120  1.0
  C  C448  1  0.127610  0.123610  0.634880  1.0
  C  C449  1  0.056360  0.903860  0.079830  1.0
  C  C450  1  0.096140  0.943640  0.420170  1.0
  C  C451  1  0.943640  0.096140  0.920170  1.0
  C  C452  1  0.903860  0.056360  0.579830  1.0
  C  C453  1  0.002760  0.929360  0.094400  1.0
  C  C454  1  0.070640  0.997240  0.405600  1.0
  C  C455  1  0.997240  0.070640  0.905600  1.0
  C  C456  1  0.929360  0.002760  0.594400  1.0
  C  C457  1  0.949230  0.923630  0.080670  1.0
  C  C458  1  0.076370  0.050770  0.419330  1.0
  C  C459  1  0.050770  0.076370  0.919330  1.0
  C  C460  1  0.923630  0.949230  0.580670  1.0
  C  C461  1  0.951130  0.893330  0.051800  1.0
  C  C462  1  0.106670  0.048870  0.448200  1.0
  C  C463  1  0.048870  0.106670  0.948200  1.0
  C  C464  1  0.893330  0.951130  0.551800  1.0
  C  C465  1  0.005340  0.869140  0.038290  1.0
  C  C466  1  0.130860  0.994660  0.461710  1.0
  C  C467  1  0.994660  0.130860  0.961710  1.0
  C  C468  1  0.869140  0.005340  0.538290  1.0
  C  C469  1  0.114720  0.906720  0.093650  1.0
  C  C470  1  0.093280  0.885280  0.406350  1.0
  C  C471  1  0.885280  0.093280  0.906350  1.0
  C  C472  1  0.906720  0.114720  0.593650  1.0
  C  C473  1  0.128490  0.932890  0.122140  1.0
  C  C474  1  0.067110  0.871510  0.377860  1.0
  C  C475  1  0.871510  0.067110  0.877860  1.0
  C  C476  1  0.932890  0.128490  0.622140  1.0
  C  C477  1  0.189230  0.922030  0.122520  1.0
  C  C478  1  0.077970  0.810770  0.377480  1.0
  C  C479  1  0.810770  0.077970  0.877480  1.0
  C  C480  1  0.922030  0.189230  0.622520  1.0
  C  C481  1  0.272380  0.869180  0.086410  1.0
  C  C482  1  0.130820  0.727620  0.413590  1.0
  C  C483  1  0.727620  0.130820  0.913590  1.0
  C  C484  1  0.869180  0.272380  0.586410  1.0
  C  C485  1  0.289500  0.805500  0.101240  1.0
  C  C486  1  0.194500  0.710500  0.398760  1.0
  C  C487  1  0.710500  0.194500  0.898760  1.0
  C  C488  1  0.805500  0.289500  0.601240  1.0
  C  C489  1  0.251840  0.775440  0.125700  1.0
  C  C490  1  0.224560  0.748160  0.374300  1.0
  C  C491  1  0.748160  0.224560  0.874300  1.0
  C  C492  1  0.775440  0.251840  0.625700  1.0
  C  C493  1  0.269700  0.716900  0.138590  1.0
  C  C494  1  0.283100  0.730300  0.361410  1.0
  C  C495  1  0.730300  0.283100  0.861410  1.0
  C  C496  1  0.716900  0.269700  0.638590  1.0
  C  C497  1  0.321870  0.686470  0.126650  1.0
  C  C498  1  0.313530  0.678130  0.373350  1.0
  C  C499  1  0.678130  0.313530  0.873350  1.0
  C  C500  1  0.686470  0.321870  0.626650  1.0
  C  C501  1  0.361670  0.714270  0.102060  1.0
  C  C502  1  0.285730  0.638330  0.397940  1.0
  C  C503  1  0.638330  0.285730  0.897940  1.0
  C  C504  1  0.714270  0.361670  0.602060  1.0
  C  C505  1  0.345880  0.774880  0.089780  1.0
  C  C506  1  0.225120  0.654120  0.410220  1.0
  C  C507  1  0.654120  0.225120  0.910220  1.0
  C  C508  1  0.774880  0.345880  0.589780  1.0
  C  C509  1  0.414670  0.682270  0.087750  1.0
  C  C510  1  0.317730  0.585330  0.412250  1.0
  C  C511  1  0.585330  0.317730  0.912250  1.0
  C  C512  1  0.682270  0.414670  0.587750  1.0
  C  C513  1  0.451160  0.712160  0.063700  1.0
  C  C514  1  0.287840  0.548840  0.436300  1.0
  C  C515  1  0.548840  0.287840  0.936300  1.0
  C  C516  1  0.712160  0.451160  0.563700  1.0
  C  C517  1  0.437800  0.774000  0.053180  1.0
  C  C518  1  0.226000  0.562200  0.446820  1.0
  C  C519  1  0.562200  0.226000  0.946820  1.0
  C  C520  1  0.774000  0.437800  0.553180  1.0
  C  C521  1  0.386660  0.804460  0.065680  1.0
  C  C522  1  0.195540  0.613340  0.434320  1.0
  C  C523  1  0.613340  0.195540  0.934320  1.0
  C  C524  1  0.804460  0.386660  0.565680  1.0
  C  C525  1  0.511190  0.284390  0.841650  1.0
  C  C526  1  0.715610  0.488810  0.658350  1.0
  C  C527  1  0.488810  0.715610  0.158350  1.0
  C  C528  1  0.284390  0.511190  0.341650  1.0
  C  C529  1  0.563200  0.254400  0.828220  1.0
  C  C530  1  0.745600  0.436800  0.671780  1.0
  C  C531  1  0.436800  0.745600  0.171780  1.0
  C  C532  1  0.254400  0.563200  0.328220  1.0
  C  C533  1  0.601200  0.284800  0.806430  1.0
  C  C534  1  0.715200  0.398800  0.693570  1.0
  C  C535  1  0.398800  0.715200  0.193570  1.0
  C  C536  1  0.284800  0.601200  0.306430  1.0
  C  C537  1  0.587100  0.346700  0.798520  1.0
  C  C538  1  0.653300  0.412900  0.701480  1.0
  C  C539  1  0.412900  0.653300  0.201480  1.0
  C  C540  1  0.346700  0.587100  0.298520  1.0
  C  C541  1  0.535780  0.373780  0.812670  1.0
  C  C542  1  0.626220  0.464220  0.687330  1.0
  C  C543  1  0.464220  0.626220  0.187330  1.0
  C  C544  1  0.373780  0.535780  0.312670  1.0
  C  C545  1  0.466340  0.254340  0.864670  1.0
  C  C546  1  0.745660  0.533660  0.635330  1.0
  C  C547  1  0.533660  0.745660  0.135330  1.0
  C  C548  1  0.254340  0.466340  0.364670  1.0
  C  C549  1  0.463940  0.193940  0.875110  1.0
  C  C550  1  0.806060  0.536060  0.624890  1.0
  C  C551  1  0.536060  0.806060  0.124890  1.0
  C  C552  1  0.193940  0.463940  0.375110  1.0
  C  C553  1  0.408590  0.190990  0.894010  1.0
  C  C554  1  0.809010  0.591410  0.605990  1.0
  C  C555  1  0.591410  0.809010  0.105990  1.0
  C  C556  1  0.190990  0.408590  0.394010  1.0
  C  C557  1  0.327080  0.266280  0.914180  1.0
  C  C558  1  0.733720  0.672920  0.585820  1.0
  C  C559  1  0.672920  0.733720  0.085820  1.0
  C  C560  1  0.266280  0.327080  0.414180  1.0
  C  C561  1  0.339800  0.283600  0.949140  1.0
  C  C562  1  0.716400  0.660200  0.550860  1.0
  C  C563  1  0.660200  0.716400  0.050860  1.0
  C  C564  1  0.283600  0.339800  0.449140  1.0
  C  C565  1  0.396360  0.275160  0.959920  1.0
  C  C566  1  0.724840  0.603640  0.540080  1.0
  C  C567  1  0.603640  0.724840  0.040080  1.0
  C  C568  1  0.275160  0.396360  0.459920  1.0
  C  C569  1  0.410030  0.294230  0.990710  1.0
  C  C570  1  0.705770  0.589970  0.509290  1.0
  C  C571  1  0.589970  0.705770  0.009290  1.0
  C  C572  1  0.294230  0.410030  0.490710  1.0
  C  C573  1  0.365050  0.323250  0.010770  1.0
  C  C574  1  0.676750  0.634950  0.489230  1.0
  C  C575  1  0.634950  0.676750  0.989230  1.0
  C  C576  1  0.323250  0.365050  0.510770  1.0
  C  C577  1  0.304300  0.331900  0.001500  1.0
  C  C578  1  0.668100  0.695700  0.498500  1.0
  C  C579  1  0.695700  0.668100  0.998500  1.0
  C  C580  1  0.331900  0.304300  0.501500  1.0
  C  C581  1  0.290700  0.310300  0.970110  1.0
  C  C582  1  0.689700  0.709300  0.529890  1.0
  C  C583  1  0.709300  0.689700  0.029890  1.0
  C  C584  1  0.310300  0.290700  0.470110  1.0
  C  C585  1  0.257710  0.359310  0.022070  1.0
  C  C586  1  0.640690  0.742290  0.477930  1.0
  C  C587  1  0.742290  0.640690  0.977930  1.0
  C  C588  1  0.359310  0.257710  0.522070  1.0
  C  C589  1  0.200100  0.366700  0.012890  1.0
  C  C590  1  0.633300  0.799900  0.487110  1.0
  C  C591  1  0.799900  0.633300  0.987110  1.0
  C  C592  1  0.366700  0.200100  0.512890  1.0
  C  C593  1  0.185580  0.343780  0.981500  1.0
  C  C594  1  0.656220  0.814420  0.518500  1.0
  C  C595  1  0.814420  0.656220  0.018500  1.0
  C  C596  1  0.343780  0.185580  0.481500  1.0
  C  C597  1  0.230950  0.317150  0.961280  1.0
  C  C598  1  0.682850  0.769050  0.538720  1.0
  C  C599  1  0.769050  0.682850  0.038720  1.0
  C  C600  1  0.317150  0.230950  0.461280  1.0
  C  C601  1  0.355010  0.435610  0.923060  1.0
  C  C602  1  0.564390  0.644990  0.576940  1.0
  C  C603  1  0.644990  0.564390  0.076940  1.0
  C  C604  1  0.435610  0.355010  0.423060  1.0
  C  C605  1  0.309140  0.459140  0.945170  1.0
  C  C606  1  0.540860  0.690860  0.554830  1.0
  C  C607  1  0.690860  0.540860  0.054830  1.0
  C  C608  1  0.459140  0.309140  0.445170  1.0
  C  C609  1  0.251500  0.466300  0.937380  1.0
  C  C610  1  0.533700  0.748500  0.562620  1.0
  C  C611  1  0.748500  0.533700  0.062620  1.0
  C  C612  1  0.466300  0.251500  0.437380  1.0
  C  C613  1  0.238300  0.448900  0.906430  1.0
  C  C614  1  0.551100  0.761700  0.593570  1.0
  C  C615  1  0.761700  0.551100  0.093570  1.0
  C  C616  1  0.448900  0.238300  0.406430  1.0
  C  C617  1  0.284930  0.424130  0.885200  1.0
  C  C618  1  0.575870  0.715070  0.614800  1.0
  C  C619  1  0.715070  0.575870  0.114800  1.0
  C  C620  1  0.424130  0.284930  0.385200  1.0
  C  C621  1  0.419090  0.428890  0.929530  1.0
  C  C622  1  0.571110  0.580910  0.570470  1.0
  C  C623  1  0.580910  0.571110  0.070470  1.0
  C  C624  1  0.428890  0.419090  0.429530  1.0
  C  C625  1  0.447900  0.448100  0.955360  1.0
  C  C626  1  0.551900  0.552100  0.544640  1.0
  C  C627  1  0.552100  0.551900  0.044640  1.0
  C  C628  1  0.448100  0.447900  0.455360  1.0
  C  C629  1  0.507700  0.435300  0.947450  1.0
  C  C630  1  0.564700  0.492300  0.552550  1.0
  C  C631  1  0.492300  0.564700  0.052550  1.0
  C  C632  1  0.435300  0.507700  0.447450  1.0
  C  C633  1  0.430490  0.617090  0.098690  1.0
  C  C634  1  0.382910  0.569510  0.401310  1.0
  C  C635  1  0.569510  0.382910  0.901310  1.0
  C  C636  1  0.617090  0.430490  0.598690  1.0
  C  C637  1  0.910100  0.628300  0.873520  1.0
  C  C638  1  0.371700  0.089900  0.626480  1.0
  C  C639  1  0.089900  0.371700  0.126480  1.0
  C  C640  1  0.628300  0.910100  0.373520  1.0
  C  C641  1  0.969600  0.600200  0.865880  1.0
  C  C642  1  0.399800  0.030400  0.634120  1.0
  C  C643  1  0.030400  0.399800  0.134120  1.0
  C  C644  1  0.600200  0.969600  0.365880  1.0
  C  C645  1  0.011100  0.631300  0.846700  1.0
  C  C646  1  0.368700  0.988900  0.653300  1.0
  C  C647  1  0.988900  0.368700  0.153300  1.0
  C  C648  1  0.631300  0.011100  0.346700  1.0
  C  C649  1  0.994000  0.691000  0.835770  1.0
  C  C650  1  0.309000  0.006000  0.664230  1.0
  C  C651  1  0.006000  0.309000  0.164230  1.0
  C  C652  1  0.691000  0.994000  0.335770  1.0
  C  C653  1  0.937700  0.716900  0.844720  1.0
  C  C654  1  0.283100  0.062300  0.655280  1.0
  C  C655  1  0.062300  0.283100  0.155280  1.0
  C  C656  1  0.716900  0.937700  0.344720  1.0
  C  C657  1  0.864400  0.597200  0.894850  1.0
  C  C658  1  0.402800  0.135600  0.605150  1.0
  C  C659  1  0.135600  0.402800  0.105150  1.0
  C  C660  1  0.597200  0.864400  0.394850  1.0
  C  C661  1  0.858200  0.537800  0.905400  1.0
  C  C662  1  0.462200  0.141800  0.594600  1.0
  C  C663  1  0.141800  0.462200  0.094600  1.0
  C  C664  1  0.537800  0.858200  0.405400  1.0
  C  C665  1  0.803800  0.537400  0.924360  1.0
  C  C666  1  0.462600  0.196200  0.575640  1.0
  C  C667  1  0.196200  0.462600  0.075640  1.0
  C  C668  1  0.537400  0.803800  0.424360  1.0
  C  C669  1  0.273100  0.382500  0.054540  1.0
  C  C670  1  0.617500  0.726900  0.445460  1.0
  C  C671  1  0.726900  0.617500  0.945460  1.0
  C  C672  1  0.382500  0.273100  0.554540  1.0
  C  C673  1  0.752850  0.737050  0.818410  1.0
  C  C674  1  0.262950  0.247150  0.681590  1.0
  C  C675  1  0.247150  0.262950  0.181590  1.0
  C  C676  1  0.737050  0.752850  0.318410  1.0
  C  C677  1  0.717310  0.727710  0.792860  1.0
  C  C678  1  0.272290  0.282690  0.707140  1.0
  C  C679  1  0.282690  0.272290  0.207140  1.0
  C  C680  1  0.727710  0.717310  0.292860  1.0
  C  C681  1  0.691200  0.675800  0.794130  1.0
  C  C682  1  0.324200  0.308800  0.705870  1.0
  C  C683  1  0.308800  0.324200  0.205870  1.0
  C  C684  1  0.675800  0.691200  0.294130  1.0
  C  C685  1  0.699100  0.632300  0.820320  1.0
  C  C686  1  0.367700  0.300900  0.679680  1.0
  C  C687  1  0.300900  0.367700  0.179680  1.0
  C  C688  1  0.632300  0.699100  0.320320  1.0
  C  C689  1  0.733150  0.645350  0.845470  1.0
  C  C690  1  0.354650  0.266850  0.654530  1.0
  C  C691  1  0.266850  0.354650  0.154530  1.0
  C  C692  1  0.645350  0.733150  0.345470  1.0
  C  C693  1  0.785680  0.791680  0.819340  1.0
  C  C694  1  0.208320  0.214320  0.680660  1.0
  C  C695  1  0.214320  0.208320  0.180660  1.0
  C  C696  1  0.791680  0.785680  0.319340  1.0
  C  C697  1  0.797210  0.837810  0.794480  1.0
  C  C698  1  0.162190  0.202790  0.705520  1.0
  C  C699  1  0.202790  0.162190  0.205520  1.0
  C  C700  1  0.837810  0.797210  0.294480  1.0
  C  C701  1  0.165800  0.128600  0.191000  1.0
  C  C702  1  0.871400  0.834200  0.309000  1.0
  C  C703  1  0.834200  0.871400  0.809000  1.0
  C  C704  1  0.128600  0.165800  0.691000  1.0
  Co  Co705  1  0.360260  0.928900  0.776365  1.0
  Co  Co706  1  0.071100  0.639740  0.723635  1.0
  Co  Co707  1  0.639740  0.071100  0.223635  1.0
  Co  Co708  1  0.928900  0.360260  0.276365  1.0
  Co  Co709  1  0.144660  0.828180  0.036427  1.0
  Co  Co710  1  0.171820  0.855340  0.463573  1.0
  Co  Co711  1  0.855340  0.171820  0.963573  1.0
  Co  Co712  1  0.828180  0.144660  0.536427  1.0
  Co  Co713  1  0.419250  0.383850  0.861700  1.0
  Co  Co714  1  0.616150  0.580750  0.638300  1.0
  Co  Co715  1  0.580750  0.616150  0.138300  1.0
  Co  Co716  1  0.383850  0.419250  0.361700  1.0
  Co  Co717  1  0.808280  0.724140  0.884830  1.0
  Co  Co718  1  0.275860  0.191720  0.615170  1.0
  Co  Co719  1  0.191720  0.275860  0.115170  1.0
  Co  Co720  1  0.724140  0.808280  0.384830  1.0
  F  F721  1  0.424070  0.839990  0.941280  1
  F  F722  1  0.160010  0.575930  0.558720  1
  F  F723  1  0.575930  0.160010  0.058720  1
  F  F724  1  0.839990  0.424070  0.441280  1
  F  F725  1  0.506990  0.823110  0.971020  1
  F  F726  1  0.176890  0.493010  0.528980  1
  F  F727  1  0.493010  0.176890  0.028980  1
  F  F728  1  0.823110  0.506990  0.471020  1
  F  F729  1  0.442660  0.750480  0.971470  1
  F  F730  1  0.249520  0.557340  0.528530  1
  F  F731  1  0.557340  0.249520  0.028530  1
  F  F732  1  0.750480  0.442660  0.471470  1
  F  F733  1  0.501700  0.773880  0.924120  1
  F  F734  1  0.226120  0.498300  0.575880  1
  F  F735  1  0.498300  0.226120  0.075880  1
  F  F736  1  0.773880  0.501700  0.424120  1
  F  F737  1  0.080220  0.966360  0.865900  1
  F  F738  1  0.033640  0.919780  0.634100  1
  F  F739  1  0.919780  0.033640  0.134100  1
  F  F740  1  0.966360  0.080220  0.365900  1
  F  F741  1  0.083050  0.922250  0.816240  1
  F  F742  1  0.077750  0.916950  0.683760  1
  F  F743  1  0.916950  0.077750  0.183760  1
  F  F744  1  0.922250  0.083050  0.316240  1
  F  F745  1  0.992850  0.959050  0.841310  1
  F  F746  1  0.040950  0.007150  0.658690  1
  F  F747  1  0.007150  0.040950  0.158690  1
  F  F748  1  0.959050  0.992850  0.341310  1
  F  F749  1  0.043840  0.874480  0.864720  1
  F  F750  1  0.125520  0.956160  0.635280  1
  F  F751  1  0.956160  0.125520  0.135280  1
  F  F752  1  0.874480  0.043840  0.364720  1
  F  F753  1  0.649100  0.489900  0.766600  1
  F  F754  1  0.510100  0.350900  0.733400  1
  F  F755  1  0.350900  0.510100  0.233400  1
  F  F756  1  0.489900  0.649100  0.266600  1
  F  F757  1  0.544300  0.501300  0.771600  1
  F  F758  1  0.498700  0.455700  0.728400  1
  F  F759  1  0.455700  0.498700  0.228400  1
  F  F760  1  0.501300  0.544300  0.271600  1
  F  F761  1  0.597900  0.498900  0.819200  1
  F  F762  1  0.501100  0.402100  0.680800  1
  F  F763  1  0.402100  0.501100  0.180800  1
  F  F764  1  0.498900  0.597900  0.319200  1
  F  F765  1  0.598500  0.581700  0.780000  1
  F  F766  1  0.418300  0.401500  0.720000  1
  F  F767  1  0.401500  0.418300  0.220000  1
  F  F768  1  0.581700  0.598500  0.280000  1
  F  F769  1  0.582600  0.090000  0.859860  1
  F  F770  1  0.910000  0.417400  0.640140  1
  F  F771  1  0.417400  0.910000  0.140140  1
  F  F772  1  0.090000  0.582600  0.359860  1
  F  F773  1  0.652590  0.135590  0.825690  1
  F  F774  1  0.864410  0.347410  0.674310  1
  F  F775  1  0.347410  0.864410  0.174310  1
  F  F776  1  0.135590  0.652590  0.325690  1
  F  F777  1  0.676780  0.045220  0.852470  1
  F  F778  1  0.954780  0.323220  0.647530  1
  F  F779  1  0.323220  0.954780  0.147530  1
  F  F780  1  0.045220  0.676780  0.352470  1
  F  F781  1  0.615170  0.052970  0.810420  1
  F  F782  1  0.947030  0.384830  0.689580  1
  F  F783  1  0.384830  0.947030  0.189580  1
  F  F784  1  0.052970  0.615170  0.310420  1
  F  F785  1  0.201400  0.103960  0.963710  1
  F  F786  1  0.896040  0.798600  0.536290  1
  F  F787  1  0.798600  0.896040  0.036290  1
  F  F788  1  0.103960  0.201400  0.463710  1
  F  F789  1  0.286420  0.120520  0.929390  1
  F  F790  1  0.879480  0.713580  0.570610  1
  F  F791  1  0.713580  0.879480  0.070610  1
  F  F792  1  0.120520  0.286420  0.429390  1
  F  F793  1  0.202920  0.187960  0.926870  1
  F  F794  1  0.812040  0.797080  0.573130  1
  F  F795  1  0.797080  0.812040  0.073130  1
  F  F796  1  0.187960  0.202920  0.426870  1
  F  F797  1  0.202150  0.094810  0.907150  1
  F  F798  1  0.905190  0.797850  0.592850  1
  F  F799  1  0.797850  0.905190  0.092850  1
  F  F800  1  0.094810  0.202150  0.407150  1
  H  H801  1  0.420800  0.892600  0.996900  1
  H  H802  1  0.107400  0.579200  0.503100  1
  H  H803  1  0.579200  0.107400  0.003100  1
  H  H804  1  0.892600  0.420800  0.496900  1
  H  H805  1  0.444400  0.939400  0.020100  1
  H  H806  1  0.060600  0.555600  0.479900  1
  H  H807  1  0.555600  0.060600  0.979900  1
  H  H808  1  0.939400  0.444400  0.520100  1
  H  H809  1  0.430100  0.960500  0.982000  1
  H  H810  1  0.039500  0.569900  0.518000  1
  H  H811  1  0.569900  0.039500  0.018000  1
  H  H812  1  0.960500  0.430100  0.482000  1
  H  H813  1  0.320900  0.089100  0.968300  1
  H  H814  1  0.910900  0.679100  0.531700  1
  H  H815  1  0.679100  0.910900  0.031700  1
  H  H816  1  0.089100  0.320900  0.468300  1
  H  H817  1  0.332500  0.087900  0.007500  1
  H  H818  1  0.912100  0.667500  0.492500  1
  H  H819  1  0.667500  0.912100  0.992500  1
  H  H820  1  0.087900  0.332500  0.507500  1
  H  H821  1  0.350200  0.028600  0.987400  1
  H  H822  1  0.971400  0.649800  0.512600  1
  H  H823  1  0.649800  0.971400  0.012600  1
  H  H824  1  0.028600  0.350200  0.487400  1
  H  H825  1  0.290000  0.564200  0.891700  1
  H  H826  1  0.435800  0.710000  0.608300  1
  H  H827  1  0.710000  0.435800  0.108300  1
  H  H828  1  0.564200  0.290000  0.391700  1
  H  H829  1  0.306100  0.633100  0.885600  1
  H  H830  1  0.366900  0.693900  0.614400  1
  H  H831  1  0.693900  0.366900  0.114400  1
  H  H832  1  0.633100  0.306100  0.385600  1
  H  H833  1  0.309000  0.591800  0.854400  1
  H  H834  1  0.408200  0.691000  0.645600  1
  H  H835  1  0.691000  0.408200  0.145600  1
  H  H836  1  0.591800  0.309000  0.354400  1
  H  H837  1  0.280300  0.146900  0.751900  1.0
  H  H838  1  0.853100  0.719700  0.748100  1.0
  H  H839  1  0.719700  0.853100  0.248100  1.0
  H  H840  1  0.146900  0.280300  0.251900  1.0
  H  H841  1  0.357600  0.174600  0.711700  1.0
  H  H842  1  0.825400  0.642400  0.788300  1.0
  H  H843  1  0.642400  0.825400  0.288300  1.0
  H  H844  1  0.174600  0.357600  0.211700  1.0
  H  H845  1  0.437200  0.103600  0.696400  1.0
  H  H846  1  0.896400  0.562800  0.803600  1.0
  H  H847  1  0.562800  0.896400  0.303600  1.0
  H  H848  1  0.103600  0.437200  0.196400  1.0
  H  H849  1  0.436800  0.005000  0.719400  1.0
  H  H850  1  0.995000  0.563200  0.780600  1.0
  H  H851  1  0.563200  0.995000  0.280600  1.0
  H  H852  1  0.005000  0.436800  0.219400  1.0
  H  H853  1  0.197100  0.101900  0.789100  1.0
  H  H854  1  0.898100  0.802900  0.710900  1.0
  H  H855  1  0.802900  0.898100  0.210900  1.0
  H  H856  1  0.101900  0.197100  0.289100  1.0
  H  H857  1  0.152500  0.022100  0.831100  1.0
  H  H858  1  0.977900  0.847500  0.668900  1.0
  H  H859  1  0.847500  0.977900  0.168900  1.0
  H  H860  1  0.022100  0.152500  0.331100  1.0
  H  H861  1  0.247700  0.880500  0.829300  1.0
  H  H862  1  0.119500  0.752300  0.670700  1.0
  H  H863  1  0.752300  0.119500  0.170700  1.0
  H  H864  1  0.880500  0.247700  0.329300  1.0
  H  H865  1  0.183500  0.907300  0.845500  1.0
  H  H866  1  0.092700  0.816500  0.654500  1.0
  H  H867  1  0.816500  0.092700  0.154500  1.0
  H  H868  1  0.907300  0.183500  0.345500  1.0
  H  H869  1  0.203500  0.621700  0.091000  1.0
  H  H870  1  0.378300  0.796500  0.409000  1.0
  H  H871  1  0.796500  0.378300  0.909000  1.0
  H  H872  1  0.621700  0.203500  0.591000  1.0
  H  H873  1  0.118900  0.611500  0.128500  1.0
  H  H874  1  0.388500  0.881100  0.371500  1.0
  H  H875  1  0.881100  0.388500  0.871500  1.0
  H  H876  1  0.611500  0.118900  0.628500  1.0
  H  H877  1  0.042000  0.690800  0.131700  1.0
  H  H878  1  0.309200  0.958000  0.368300  1.0
  H  H879  1  0.958000  0.309200  0.868300  1.0
  H  H880  1  0.690800  0.042000  0.631700  1.0
  H  H881  1  0.050600  0.776800  0.095000  1.0
  H  H882  1  0.223200  0.949400  0.405000  1.0
  H  H883  1  0.949400  0.223200  0.905000  1.0
  H  H884  1  0.776800  0.050600  0.595000  1.0
  H  H885  1  0.291600  0.641400  0.049900  1.0
  H  H886  1  0.358600  0.708400  0.450100  1.0
  H  H887  1  0.708400  0.358600  0.950100  1.0
  H  H888  1  0.641400  0.291600  0.549900  1.0
  H  H889  1  0.354000  0.704400  0.007200  1.0
  H  H890  1  0.295600  0.646000  0.492800  1.0
  H  H891  1  0.646000  0.295600  0.992800  1.0
  H  H892  1  0.704400  0.354000  0.507200  1.0
  H  H893  1  0.343600  0.819000  0.984900  1.0
  H  H894  1  0.181000  0.656400  0.515100  1.0
  H  H895  1  0.656400  0.181000  0.015100  1.0
  H  H896  1  0.819000  0.343600  0.484900  1.0
  H  H897  1  0.282700  0.858300  0.996600  1.0
  H  H898  1  0.141700  0.717300  0.503400  1.0
  H  H899  1  0.717300  0.141700  0.003400  1.0
  H  H900  1  0.858300  0.282700  0.496600  1.0
  H  H901  1  0.276200  0.002800  0.868100  1.0
  H  H902  1  0.997200  0.723800  0.631900  1.0
  H  H903  1  0.723800  0.997200  0.131900  1.0
  H  H904  1  0.002800  0.276200  0.368100  1.0
  H  H905  1  0.320000  0.003800  0.918700  1.0
  H  H906  1  0.996200  0.680000  0.581300  1.0
  H  H907  1  0.680000  0.996200  0.081300  1.0
  H  H908  1  0.003800  0.320000  0.418700  1.0
  H  H909  1  0.323100  0.920500  0.956800  1.0
  H  H910  1  0.079500  0.676900  0.543200  1.0
  H  H911  1  0.676900  0.079500  0.043200  1.0
  H  H912  1  0.920500  0.323100  0.456800  1.0
  H  H913  1  0.249300  0.730100  0.962000  1.0
  H  H914  1  0.269900  0.750700  0.538000  1.0
  H  H915  1  0.750700  0.269900  0.038000  1.0
  H  H916  1  0.730100  0.249300  0.462000  1.0
  H  H917  1  0.214100  0.726300  0.908100  1.0
  H  H918  1  0.273700  0.785900  0.591900  1.0
  H  H919  1  0.785900  0.273700  0.091900  1.0
  H  H920  1  0.726300  0.214100  0.408100  1.0
  H  H921  1  0.216300  0.807500  0.869200  1.0
  H  H922  1  0.192500  0.783700  0.630800  1.0
  H  H923  1  0.783700  0.192500  0.130800  1.0
  H  H924  1  0.807500  0.216300  0.369200  1.0
  H  H925  1  0.418000  0.804000  0.881100  1.0
  H  H926  1  0.196000  0.582000  0.618900  1.0
  H  H927  1  0.582000  0.196000  0.118900  1.0
  H  H928  1  0.804000  0.418000  0.381100  1.0
  H  H929  1  0.365900  0.717900  0.874200  1.0
  H  H930  1  0.282100  0.634100  0.625800  1.0
  H  H931  1  0.634100  0.282100  0.125800  1.0
  H  H932  1  0.717900  0.365900  0.374200  1.0
  H  H933  1  0.315900  0.714900  0.825000  1.0
  H  H934  1  0.285100  0.684100  0.675000  1.0
  H  H935  1  0.684100  0.285100  0.175000  1.0
  H  H936  1  0.714900  0.315900  0.325000  1.0
  H  H937  1  0.312300  0.798100  0.786100  1.0
  H  H938  1  0.201900  0.687700  0.713900  1.0
  H  H939  1  0.687700  0.201900  0.213900  1.0
  H  H940  1  0.798100  0.312300  0.286100  1.0
  H  H941  1  0.470400  0.894600  0.883900  1.0
  H  H942  1  0.105400  0.529600  0.616100  1.0
  H  H943  1  0.529600  0.105400  0.116100  1.0
  H  H944  1  0.894600  0.470400  0.383900  1.0
  H  H945  1  0.506100  0.993300  0.863300  1.0
  H  H946  1  0.006700  0.493900  0.636700  1.0
  H  H947  1  0.493900  0.006700  0.136700  1.0
  H  H948  1  0.993300  0.506100  0.363300  1.0
  H  H949  1  0.463300  0.042300  0.779100  1.0
  H  H950  1  0.957700  0.536700  0.720900  1.0
  H  H951  1  0.536700  0.957700  0.220900  1.0
  H  H952  1  0.042300  0.463300  0.279100  1.0
  H  H953  1  0.502900  0.061500  0.807500  1.0
  H  H954  1  0.938500  0.497100  0.692500  1.0
  H  H955  1  0.497100  0.938500  0.192500  1.0
  H  H956  1  0.061500  0.502900  0.307500  1.0
  H  H957  1  0.377000  0.568600  0.781500  1.0
  H  H958  1  0.431400  0.623000  0.718500  1.0
  H  H959  1  0.623000  0.431400  0.218500  1.0
  H  H960  1  0.568600  0.377000  0.281500  1.0
  H  H961  1  0.431900  0.636500  0.805500  1.0
  H  H962  1  0.363500  0.568100  0.694500  1.0
  H  H963  1  0.568100  0.363500  0.194500  1.0
  H  H964  1  0.636500  0.431900  0.305500  1.0
  H  H965  1  0.486400  0.604000  0.852400  1.0
  H  H966  1  0.396000  0.513600  0.647600  1.0
  H  H967  1  0.513600  0.396000  0.147600  1.0
  H  H968  1  0.604000  0.486400  0.352400  1.0
  H  H969  1  0.485900  0.503700  0.875400  1.0
  H  H970  1  0.496300  0.514100  0.624600  1.0
  H  H971  1  0.514100  0.496300  0.124600  1.0
  H  H972  1  0.503700  0.485900  0.375400  1.0
  H  H973  1  0.310300  0.495300  0.765000  1.0
  H  H974  1  0.504700  0.689700  0.735000  1.0
  H  H975  1  0.689700  0.504700  0.235000  1.0
  H  H976  1  0.495300  0.310300  0.265000  1.0
  H  H977  1  0.269800  0.394600  0.765000  1.0
  H  H978  1  0.605400  0.730200  0.735000  1.0
  H  H979  1  0.730200  0.605400  0.235000  1.0
  H  H980  1  0.394600  0.269800  0.265000  1.0
  H  H981  1  0.279600  0.295200  0.803700  1.0
  H  H982  1  0.704800  0.720400  0.696300  1.0
  H  H983  1  0.720400  0.704800  0.196300  1.0
  H  H984  1  0.295200  0.279600  0.303700  1.0
  H  H985  1  0.313300  0.298300  0.837300  1.0
  H  H986  1  0.701700  0.686700  0.662700  1.0
  H  H987  1  0.686700  0.701700  0.162700  1.0
  H  H988  1  0.298300  0.313300  0.337300  1.0
  H  H989  1  0.367000  0.035800  0.846400  1.0
  H  H990  1  0.964200  0.633000  0.653600  1.0
  H  H991  1  0.633000  0.964200  0.153600  1.0
  H  H992  1  0.035800  0.367000  0.346400  1.0
  H  H993  1  0.285400  0.107000  0.861200  1.0
  H  H994  1  0.893000  0.714600  0.638800  1.0
  H  H995  1  0.714600  0.893000  0.138800  1.0
  H  H996  1  0.107000  0.285400  0.361200  1.0
  H  H997  1  0.283900  0.206300  0.839600  1.0
  H  H998  1  0.793700  0.716100  0.660400  1.0
  H  H999  1  0.716100  0.793700  0.160400  1.0
  H  H1000  1  0.206300  0.283900  0.339600  1.0
  H  H1001  1  0.415400  0.318600  0.769800  1.0
  H  H1002  1  0.681400  0.584600  0.730200  1.0
  H  H1003  1  0.584600  0.681400  0.230200  1.0
  H  H1004  1  0.318600  0.415400  0.269800  1.0
  H  H1005  1  0.493900  0.247100  0.750700  1.0
  H  H1006  1  0.752900  0.506100  0.749300  1.0
  H  H1007  1  0.506100  0.752900  0.249300  1.0
  H  H1008  1  0.247100  0.493900  0.250700  1.0
  H  H1009  1  0.494400  0.145400  0.770800  1.0
  H  H1010  1  0.854600  0.505600  0.729200  1.0
  H  H1011  1  0.505600  0.854600  0.229200  1.0
  H  H1012  1  0.145400  0.494400  0.270800  1.0
  H  H1013  1  0.317400  0.824200  0.674300  1.0
  H  H1014  1  0.175800  0.682600  0.825700  1.0
  H  H1015  1  0.682600  0.175800  0.325700  1.0
  H  H1016  1  0.824200  0.317400  0.174300  1.0
  H  H1017  1  0.212100  0.843100  0.676800  1.0
  H  H1018  1  0.156900  0.787900  0.823200  1.0
  H  H1019  1  0.787900  0.156900  0.323200  1.0
  H  H1020  1  0.843100  0.212100  0.176800  1.0
  H  H1021  1  0.160700  0.896500  0.721300  1.0
  H  H1022  1  0.103500  0.839300  0.778700  1.0
  H  H1023  1  0.839300  0.103500  0.278700  1.0
  H  H1024  1  0.896500  0.160700  0.221300  1.0
  H  H1025  1  0.219700  0.925900  0.762100  1.0
  H  H1026  1  0.074100  0.780300  0.737900  1.0
  H  H1027  1  0.780300  0.074100  0.237900  1.0
  H  H1028  1  0.925900  0.219700  0.262100  1.0
  H  H1029  1  0.429500  0.815300  0.672700  1.0
  H  H1030  1  0.184700  0.570500  0.827300  1.0
  H  H1031  1  0.570500  0.184700  0.327300  1.0
  H  H1032  1  0.815300  0.429500  0.172700  1.0
  H  H1033  1  0.530200  0.832400  0.692200  1.0
  H  H1034  1  0.167600  0.469800  0.807800  1.0
  H  H1035  1  0.469800  0.167600  0.307800  1.0
  H  H1036  1  0.832400  0.530200  0.192200  1.0
  H  H1037  1  0.511200  0.926400  0.764300  1.0
  H  H1038  1  0.073600  0.488800  0.735700  1.0
  H  H1039  1  0.488800  0.073600  0.235700  1.0
  H  H1040  1  0.926400  0.511200  0.264300  1.0
  H  H1041  1  0.564400  0.894200  0.740600  1.0
  H  H1042  1  0.105800  0.435600  0.759400  1.0
  H  H1043  1  0.435600  0.105800  0.259400  1.0
  H  H1044  1  0.894200  0.564400  0.240600  1.0
  H  H1045  1  0.789900  0.826900  0.992700  1.0
  H  H1046  1  0.173100  0.210100  0.507300  1.0
  H  H1047  1  0.210100  0.173100  0.007300  1.0
  H  H1048  1  0.826900  0.789900  0.492700  1.0
  H  H1049  1  0.889500  0.808500  0.007400  1.0
  H  H1050  1  0.191500  0.110500  0.492600  1.0
  H  H1051  1  0.110500  0.191500  0.992600  1.0
  H  H1052  1  0.808500  0.889500  0.507400  1.0
  H  H1053  1  0.959800  0.753800  0.972200  1.0
  H  H1054  1  0.246200  0.040200  0.527800  1.0
  H  H1055  1  0.040200  0.246200  0.027800  1.0
  H  H1056  1  0.753800  0.959800  0.472200  1.0
  H  H1057  1  0.930700  0.725900  0.921000  1.0
  H  H1058  1  0.274100  0.069300  0.579000  1.0
  H  H1059  1  0.069300  0.274100  0.079000  1.0
  H  H1060  1  0.725900  0.930700  0.421000  1.0
  H  H1061  1  0.688100  0.838700  0.976600  1.0
  H  H1062  1  0.161300  0.311900  0.523400  1.0
  H  H1063  1  0.311900  0.161300  0.023400  1.0
  H  H1064  1  0.838700  0.688100  0.476600  1.0
  H  H1065  1  0.601600  0.819400  0.943600  1.0
  H  H1066  1  0.180600  0.398400  0.556400  1.0
  H  H1067  1  0.398400  0.180600  0.056400  1.0
  H  H1068  1  0.819400  0.601600  0.443600  1.0
  H  H1069  1  0.591500  0.745300  0.896200  1.0
  H  H1070  1  0.254700  0.408500  0.603800  1.0
  H  H1071  1  0.408500  0.254700  0.103800  1.0
  H  H1072  1  0.745300  0.591500  0.396200  1.0
  H  H1073  1  0.653100  0.720700  0.876200  1.0
  H  H1074  1  0.279300  0.346900  0.623800  1.0
  H  H1075  1  0.346900  0.279300  0.123800  1.0
  H  H1076  1  0.720700  0.653100  0.376200  1.0
  H  H1077  1  0.478200  0.782200  0.766000  1.0
  H  H1078  1  0.217800  0.521800  0.734000  1.0
  H  H1079  1  0.521800  0.217800  0.234000  1.0
  H  H1080  1  0.782200  0.478200  0.266000  1.0
  H  H1081  1  0.498900  0.702700  0.806500  1.0
  H  H1082  1  0.297300  0.501100  0.693500  1.0
  H  H1083  1  0.501100  0.297300  0.193500  1.0
  H  H1084  1  0.702700  0.498900  0.306500  1.0
  H  H1085  1  0.563100  0.710900  0.848400  1.0
  H  H1086  1  0.289100  0.436900  0.651600  1.0
  H  H1087  1  0.436900  0.289100  0.151600  1.0
  H  H1088  1  0.710900  0.563100  0.348400  1.0
  H  H1089  1  0.674500  0.864900  0.874900  1.0
  H  H1090  1  0.135100  0.325500  0.625100  1.0
  H  H1091  1  0.325500  0.135100  0.125100  1.0
  H  H1092  1  0.864900  0.674500  0.374900  1.0
  H  H1093  1  0.659300  0.941500  0.831800  1.0
  H  H1094  1  0.058500  0.340700  0.668200  1.0
  H  H1095  1  0.340700  0.058500  0.168200  1.0
  H  H1096  1  0.941500  0.659300  0.331800  1.0
  H  H1097  1  0.597700  0.930500  0.790500  1.0
  H  H1098  1  0.069500  0.402300  0.709500  1.0
  H  H1099  1  0.402300  0.069500  0.209500  1.0
  H  H1100  1  0.930500  0.597700  0.290500  1.0
  H  H1101  1  0.081600  0.819400  0.918000  1.0
  H  H1102  1  0.180600  0.918400  0.582000  1.0
  H  H1103  1  0.918400  0.180600  0.082000  1.0
  H  H1104  1  0.819400  0.081600  0.418000  1.0
  H  H1105  1  0.060400  0.718400  0.921200  1.0
  H  H1106  1  0.281600  0.939600  0.578800  1.0
  H  H1107  1  0.939600  0.281600  0.078800  1.0
  H  H1108  1  0.718400  0.060400  0.421200  1.0
  H  H1109  1  0.072500  0.657700  0.971000  1.0
  H  H1110  1  0.342300  0.927500  0.529000  1.0
  H  H1111  1  0.927500  0.342300  0.029000  1.0
  H  H1112  1  0.657700  0.072500  0.471000  1.0
  H  H1113  1  0.100400  0.701000  0.019000  1.0
  H  H1114  1  0.299000  0.899600  0.481000  1.0
  H  H1115  1  0.899600  0.299000  0.981000  1.0
  H  H1116  1  0.701000  0.100400  0.519000  1.0
  H  H1117  1  0.163800  0.006400  0.942500  1.0
  H  H1118  1  0.993600  0.836200  0.557500  1.0
  H  H1119  1  0.836200  0.993600  0.057500  1.0
  H  H1120  1  0.006400  0.163800  0.442500  1.0
  H  H1121  1  0.111200  0.925800  0.918900  1.0
  H  H1122  1  0.074200  0.888800  0.581100  1.0
  H  H1123  1  0.888800  0.074200  0.081100  1.0
  H  H1124  1  0.925800  0.111200  0.418900  1.0
  H  H1125  1  0.228400  0.005800  0.994400  1.0
  H  H1126  1  0.994200  0.771600  0.505600  1.0
  H  H1127  1  0.771600  0.994200  0.005600  1.0
  H  H1128  1  0.005800  0.228400  0.494400  1.0
  H  H1129  1  0.225900  0.948300  0.021300  1.0
  H  H1130  1  0.051700  0.774100  0.478700  1.0
  H  H1131  1  0.774100  0.051700  0.978700  1.0
  H  H1132  1  0.948300  0.225900  0.521300  1.0
  H  H1133  1  0.080200  0.009600  0.008300  1.0
  H  H1134  1  0.990400  0.919800  0.491700  1.0
  H  H1135  1  0.919800  0.990400  0.991700  1.0
  H  H1136  1  0.009600  0.080200  0.508300  1.0
  H  H1137  1  0.016100  0.065900  0.045200  1.0
  H  H1138  1  0.934100  0.983900  0.454800  1.0
  H  H1139  1  0.983900  0.934100  0.954800  1.0
  H  H1140  1  0.065900  0.016100  0.545200  1.0
  H  H1141  1  0.051400  0.102400  0.091500  1.0
  H  H1142  1  0.897600  0.948600  0.408500  1.0
  H  H1143  1  0.948600  0.897600  0.908500  1.0
  H  H1144  1  0.102400  0.051400  0.591500  1.0
  H  H1145  1  0.240200  0.091800  0.135400  1.0
  H  H1146  1  0.908200  0.759800  0.364600  1.0
  H  H1147  1  0.759800  0.908200  0.864600  1.0
  H  H1148  1  0.091800  0.240200  0.635400  1.0
  H  H1149  1  0.305600  0.037800  0.096700  1.0
  H  H1150  1  0.962200  0.694400  0.403300  1.0
  H  H1151  1  0.694400  0.962200  0.903300  1.0
  H  H1152  1  0.037800  0.305600  0.596700  1.0
  H  H1153  1  0.270800  0.009000  0.047900  1.0
  H  H1154  1  0.991000  0.729200  0.452100  1.0
  H  H1155  1  0.729200  0.991000  0.952100  1.0
  H  H1156  1  0.009000  0.270800  0.547900  1.0
  H  H1157  1  0.101200  0.161400  0.122100  1.0
  H  H1158  1  0.838600  0.898800  0.377900  1.0
  H  H1159  1  0.898800  0.838600  0.877900  1.0
  H  H1160  1  0.161400  0.101200  0.622100  1.0
  H  H1161  1  0.093700  0.101100  0.146400  1.0
  H  H1162  1  0.898900  0.906300  0.353600  1.0
  H  H1163  1  0.906300  0.898900  0.853600  1.0
  H  H1164  1  0.101100  0.093700  0.646400  1.0
  H  H1165  1  0.002800  0.951000  0.114000  1.0
  H  H1166  1  0.049000  0.997200  0.386000  1.0
  H  H1167  1  0.997200  0.049000  0.886000  1.0
  H  H1168  1  0.951000  0.002800  0.614000  1.0
  H  H1169  1  0.911900  0.940100  0.090900  1.0
  H  H1170  1  0.059900  0.088100  0.409100  1.0
  H  H1171  1  0.088100  0.059900  0.909100  1.0
  H  H1172  1  0.940100  0.911900  0.590900  1.0
  H  H1173  1  0.915000  0.889400  0.041400  1.0
  H  H1174  1  0.110600  0.085000  0.458600  1.0
  H  H1175  1  0.085000  0.110600  0.958600  1.0
  H  H1176  1  0.889400  0.915000  0.541400  1.0
  H  H1177  1  0.006000  0.848200  0.018400  1.0
  H  H1178  1  0.151800  0.994000  0.481600  1.0
  H  H1179  1  0.994000  0.151800  0.981600  1.0
  H  H1180  1  0.848200  0.006000  0.518400  1.0
  H  H1181  1  0.101400  0.953600  0.137900  1.0
  H  H1182  1  0.046400  0.898600  0.362100  1.0
  H  H1183  1  0.898600  0.046400  0.862100  1.0
  H  H1184  1  0.953600  0.101400  0.637900  1.0
  H  H1185  1  0.213100  0.934300  0.139000  1.0
  H  H1186  1  0.065700  0.786900  0.361000  1.0
  H  H1187  1  0.786900  0.065700  0.861000  1.0
  H  H1188  1  0.934300  0.213100  0.639000  1.0
  H  H1189  1  0.300000  0.896800  0.093900  1.0
  H  H1190  1  0.103200  0.700000  0.406100  1.0
  H  H1191  1  0.700000  0.103200  0.906100  1.0
  H  H1192  1  0.896800  0.300000  0.593900  1.0
  H  H1193  1  0.278100  0.869900  0.061500  1.0
  H  H1194  1  0.130100  0.721900  0.438500  1.0
  H  H1195  1  0.721900  0.130100  0.938500  1.0
  H  H1196  1  0.869900  0.278100  0.561500  1.0
  H  H1197  1  0.214000  0.795000  0.133500  1.0
  H  H1198  1  0.205000  0.786000  0.366500  1.0
  H  H1199  1  0.786000  0.205000  0.866500  1.0
  H  H1200  1  0.795000  0.214000  0.633500  1.0
  H  H1201  1  0.244900  0.697900  0.156100  1.0
  H  H1202  1  0.302100  0.755100  0.343900  1.0
  H  H1203  1  0.755100  0.302100  0.843900  1.0
  H  H1204  1  0.697900  0.244900  0.656100  1.0
  H  H1205  1  0.331700  0.645700  0.135000  1.0
  H  H1206  1  0.354300  0.668300  0.365000  1.0
  H  H1207  1  0.668300  0.354300  0.865000  1.0
  H  H1208  1  0.645700  0.331700  0.635000  1.0
  H  H1209  1  0.486300  0.690700  0.053900  1.0
  H  H1210  1  0.309300  0.513700  0.446100  1.0
  H  H1211  1  0.513700  0.309300  0.946100  1.0
  H  H1212  1  0.690700  0.486300  0.553900  1.0
  H  H1213  1  0.465000  0.794000  0.037300  1.0
  H  H1214  1  0.206000  0.535000  0.462700  1.0
  H  H1215  1  0.535000  0.206000  0.962700  1.0
  H  H1216  1  0.794000  0.465000  0.537300  1.0
  H  H1217  1  0.377700  0.845900  0.058400  1.0
  H  H1218  1  0.154100  0.622300  0.441600  1.0
  H  H1219  1  0.622300  0.154100  0.941600  1.0
  H  H1220  1  0.845900  0.377700  0.558400  1.0
  H  H1221  1  0.572400  0.212600  0.834200  1.0
  H  H1222  1  0.787400  0.427600  0.665800  1.0
  H  H1223  1  0.427600  0.787400  0.165800  1.0
  H  H1224  1  0.212600  0.572400  0.334200  1.0
  H  H1225  1  0.637000  0.264600  0.796600  1.0
  H  H1226  1  0.735400  0.363000  0.703400  1.0
  H  H1227  1  0.363000  0.735400  0.203400  1.0
  H  H1228  1  0.264600  0.637000  0.296600  1.0
  H  H1229  1  0.613400  0.369200  0.783400  1.0
  H  H1230  1  0.630800  0.386600  0.716600  1.0
  H  H1231  1  0.386600  0.630800  0.216600  1.0
  H  H1232  1  0.369200  0.613400  0.283400  1.0
  H  H1233  1  0.526200  0.415600  0.806800  1.0
  H  H1234  1  0.584400  0.473800  0.693200  1.0
  H  H1235  1  0.473800  0.584400  0.193200  1.0
  H  H1236  1  0.415600  0.526200  0.306800  1.0
  H  H1237  1  0.493600  0.161400  0.870500  1.0
  H  H1238  1  0.838600  0.506400  0.629500  1.0
  H  H1239  1  0.506400  0.838600  0.129500  1.0
  H  H1240  1  0.161400  0.493600  0.370500  1.0
  H  H1241  1  0.393000  0.155600  0.905000  1.0
  H  H1242  1  0.844400  0.607000  0.595000  1.0
  H  H1243  1  0.607000  0.844400  0.095000  1.0
  H  H1244  1  0.155600  0.393000  0.405000  1.0
  H  H1245  1  0.300400  0.232800  0.917000  1.0
  H  H1246  1  0.767200  0.699600  0.583000  1.0
  H  H1247  1  0.699600  0.767200  0.083000  1.0
  H  H1248  1  0.232800  0.300400  0.417000  1.0
  H  H1249  1  0.305200  0.301400  0.902200  1.0
  H  H1250  1  0.698600  0.694800  0.597800  1.0
  H  H1251  1  0.694800  0.698600  0.097800  1.0
  H  H1252  1  0.301400  0.305200  0.402200  1.0
  H  H1253  1  0.427800  0.255600  0.946100  1.0
  H  H1254  1  0.744400  0.572200  0.553900  1.0
  H  H1255  1  0.572200  0.744400  0.053900  1.0
  H  H1256  1  0.255600  0.427800  0.446100  1.0
  H  H1257  1  0.450000  0.287200  0.997700  1.0
  H  H1258  1  0.712800  0.550000  0.502300  1.0
  H  H1259  1  0.550000  0.712800  0.002300  1.0
  H  H1260  1  0.287200  0.450000  0.497700  1.0
  H  H1261  1  0.374700  0.337700  0.031200  1.0
  H  H1262  1  0.662300  0.625300  0.468800  1.0
  H  H1263  1  0.625300  0.662300  0.968800  1.0
  H  H1264  1  0.337700  0.374700  0.531200  1.0
  H  H1265  1  0.169100  0.386700  0.026900  1.0
  H  H1266  1  0.613300  0.830900  0.473100  1.0
  H  H1267  1  0.830900  0.613300  0.973100  1.0
  H  H1268  1  0.386700  0.169100  0.526900  1.0
  H  H1269  1  0.145000  0.347400  0.975300  1.0
  H  H1270  1  0.652600  0.855000  0.524700  1.0
  H  H1271  1  0.855000  0.652600  0.024700  1.0
  H  H1272  1  0.347400  0.145000  0.475300  1.0
  H  H1273  1  0.221700  0.302900  0.940700  1.0
  H  H1274  1  0.697100  0.778300  0.559300  1.0
  H  H1275  1  0.778300  0.697100  0.059300  1.0
  H  H1276  1  0.302900  0.221700  0.440700  1.0
  H  H1277  1  0.318900  0.470500  0.966400  1.0
  H  H1278  1  0.529500  0.681100  0.533600  1.0
  H  H1279  1  0.681100  0.529500  0.033600  1.0
  H  H1280  1  0.470500  0.318900  0.466400  1.0
  H  H1281  1  0.220500  0.482900  0.952600  1.0
  H  H1282  1  0.517100  0.779500  0.547400  1.0
  H  H1283  1  0.779500  0.517100  0.047400  1.0
  H  H1284  1  0.482900  0.220500  0.452600  1.0
  H  H1285  1  0.197900  0.453700  0.899900  1.0
  H  H1286  1  0.546300  0.802100  0.600100  1.0
  H  H1287  1  0.802100  0.546300  0.100100  1.0
  H  H1288  1  0.453700  0.197900  0.399900  1.0
  H  H1289  1  0.275600  0.411200  0.864300  1.0
  H  H1290  1  0.588800  0.724400  0.635700  1.0
  H  H1291  1  0.724400  0.588800  0.135700  1.0
  H  H1292  1  0.411200  0.275600  0.364300  1.0
  H  H1293  1  0.429600  0.466600  0.974800  1.0
  H  H1294  1  0.533400  0.570400  0.525200  1.0
  H  H1295  1  0.570400  0.533400  0.025200  1.0
  H  H1296  1  0.466600  0.429600  0.474800  1.0
  H  H1297  1  0.539500  0.443900  0.960300  1.0
  H  H1298  1  0.556100  0.460500  0.539700  1.0
  H  H1299  1  0.460500  0.556100  0.039700  1.0
  H  H1300  1  0.443900  0.539500  0.460300  1.0
  H  H1301  1  0.397000  0.593400  0.094200  1.0
  H  H1302  1  0.406600  0.603000  0.405800  1.0
  H  H1303  1  0.603000  0.406600  0.905800  1.0
  H  H1304  1  0.593400  0.397000  0.594200  1.0
  H  H1305  1  0.434400  0.613200  0.123400  1.0
  H  H1306  1  0.386800  0.565600  0.376600  1.0
  H  H1307  1  0.565600  0.386800  0.876600  1.0
  H  H1308  1  0.613200  0.434400  0.623400  1.0
  H  H1309  1  0.979900  0.559700  0.874300  1.0
  H  H1310  1  0.440300  0.020100  0.625700  1.0
  H  H1311  1  0.020100  0.440300  0.125700  1.0
  H  H1312  1  0.559700  0.979900  0.374300  1.0
  H  H1313  1  0.050500  0.612900  0.840900  1.0
  H  H1314  1  0.387100  0.949500  0.659100  1.0
  H  H1315  1  0.949500  0.387100  0.159100  1.0
  H  H1316  1  0.612900  0.050500  0.340900  1.0
  H  H1317  1  0.021900  0.713900  0.822000  1.0
  H  H1318  1  0.286100  0.978100  0.678000  1.0
  H  H1319  1  0.978100  0.286100  0.178000  1.0
  H  H1320  1  0.713900  0.021900  0.322000  1.0
  H  H1321  1  0.927300  0.757900  0.837000  1.0
  H  H1322  1  0.242100  0.072700  0.663000  1.0
  H  H1323  1  0.072700  0.242100  0.163000  1.0
  H  H1324  1  0.757900  0.927300  0.337000  1.0
  H  H1325  1  0.885800  0.503800  0.900600  1.0
  H  H1326  1  0.496200  0.114200  0.599400  1.0
  H  H1327  1  0.114200  0.496200  0.099400  1.0
  H  H1328  1  0.503800  0.885800  0.400600  1.0
  H  H1329  1  0.786800  0.502600  0.935100  1.0
  H  H1330  1  0.497400  0.213200  0.564900  1.0
  H  H1331  1  0.213200  0.497400  0.064900  1.0
  H  H1332  1  0.502600  0.786800  0.435100  1.0
  H  H1333  1  0.300600  0.415000  0.049100  1.0
  H  H1334  1  0.585000  0.699400  0.450900  1.0
  H  H1335  1  0.699400  0.585000  0.950900  1.0
  H  H1336  1  0.415000  0.300600  0.549100  1.0
  H  H1337  1  0.295200  0.349200  0.067900  1.0
  H  H1338  1  0.650800  0.704800  0.432100  1.0
  H  H1339  1  0.704800  0.650800  0.932100  1.0
  H  H1340  1  0.349200  0.295200  0.567900  1.0
  H  H1341  1  0.711600  0.757600  0.774700  1.0
  H  H1342  1  0.242400  0.288400  0.725300  1.0
  H  H1343  1  0.288400  0.242400  0.225300  1.0
  H  H1344  1  0.757600  0.711600  0.274700  1.0
  H  H1345  1  0.666700  0.668900  0.776600  1.0
  H  H1346  1  0.331100  0.333300  0.723400  1.0
  H  H1347  1  0.333300  0.331100  0.223400  1.0
  H  H1348  1  0.668900  0.666700  0.276600  1.0
  H  H1349  1  0.681800  0.594800  0.821000  1.0
  H  H1350  1  0.405200  0.318200  0.679000  1.0
  H  H1351  1  0.318200  0.405200  0.179000  1.0
  H  H1352  1  0.594800  0.681800  0.321000  1.0
  H  H1353  1  0.738200  0.616200  0.864100  1.0
  H  H1354  1  0.383800  0.261800  0.635900  1.0
  H  H1355  1  0.261800  0.383800  0.135900  1.0
  H  H1356  1  0.616200  0.738200  0.364100  1.0
  H  H1357  1  0.782600  0.844200  0.772600  1.0
  H  H1358  1  0.155800  0.217400  0.727400  1.0
  H  H1359  1  0.217400  0.155800  0.227400  1.0
  H  H1360  1  0.844200  0.782600  0.272600  1.0
  H  H1361  1  0.149100  0.093300  0.201500  1.0
  H  H1362  1  0.906700  0.850900  0.298500  1.0
  H  H1363  1  0.850900  0.906700  0.798500  1.0
  H  H1364  1  0.093300  0.149100  0.701500  1.0
  N  N1365  1  0.361690  0.015750  0.749390  1.0
  N  N1366  1  0.984250  0.638310  0.750610  1.0
  N  N1367  1  0.638310  0.984250  0.250610  1.0
  N  N1368  1  0.015750  0.361690  0.249390  1.0
  N  N1369  1  0.231110  0.969450  0.819510  1.0
  N  N1370  1  0.030550  0.768890  0.680490  1.0
  N  N1371  1  0.768890  0.030550  0.180490  1.0
  N  N1372  1  0.969450  0.231110  0.319510  1.0
  N  N1373  1  0.281610  0.979510  0.798510  1.0
  N  N1374  1  0.020490  0.718390  0.701490  1.0
  N  N1375  1  0.718390  0.020490  0.201490  1.0
  N  N1376  1  0.979510  0.281610  0.298510  1.0
  N  N1377  1  0.132070  0.752730  0.072790  1.0
  N  N1378  1  0.247270  0.867930  0.427210  1.0
  N  N1379  1  0.867930  0.247270  0.927210  1.0
  N  N1380  1  0.752730  0.132070  0.572790  1.0
  N  N1381  1  0.282880  0.770400  0.012180  1.0
  N  N1382  1  0.229600  0.717120  0.487820  1.0
  N  N1383  1  0.717120  0.229600  0.987820  1.0
  N  N1384  1  0.770400  0.282880  0.512180  1.0
  N  N1385  1  0.228300  0.772580  0.030950  1.0
  N  N1386  1  0.227420  0.771700  0.469050  1.0
  N  N1387  1  0.771700  0.227420  0.969050  1.0
  N  N1388  1  0.772580  0.228300  0.530950  1.0
  N  N1389  1  0.361950  0.848610  0.809670  1.0
  N  N1390  1  0.151390  0.638050  0.690330  1.0
  N  N1391  1  0.638050  0.151390  0.190330  1.0
  N  N1392  1  0.848610  0.361950  0.309670  1.0
  N  N1393  1  0.458810  0.988250  0.821780  1.0
  N  N1394  1  0.011750  0.541190  0.678220  1.0
  N  N1395  1  0.541190  0.011750  0.178220  1.0
  N  N1396  1  0.988250  0.458810  0.321780  1.0
  N  N1397  1  0.422210  0.947170  0.813710  1.0
  N  N1398  1  0.052830  0.577790  0.686290  1.0
  N  N1399  1  0.577790  0.052830  0.186290  1.0
  N  N1400  1  0.947170  0.422210  0.313710  1.0
  N  N1401  1  0.431180  0.476620  0.842030  1.0
  N  N1402  1  0.523380  0.568820  0.657970  1.0
  N  N1403  1  0.568820  0.523380  0.157970  1.0
  N  N1404  1  0.476620  0.431180  0.342030  1.0
  N  N1405  1  0.326500  0.367520  0.802960  1.0
  N  N1406  1  0.632480  0.673500  0.697040  1.0
  N  N1407  1  0.673500  0.632480  0.197040  1.0
  N  N1408  1  0.367520  0.326500  0.302960  1.0
  N  N1409  1  0.367370  0.396470  0.818180  1.0
  N  N1410  1  0.603530  0.632630  0.681820  1.0
  N  N1411  1  0.632630  0.603530  0.181820  1.0
  N  N1412  1  0.396470  0.367370  0.318180  1.0
  N  N1413  1  0.300130  0.896670  0.741830  1.0
  N  N1414  1  0.103330  0.699870  0.758170  1.0
  N  N1415  1  0.699870  0.103330  0.258170  1.0
  N  N1416  1  0.896670  0.300130  0.241830  1.0
  N  N1417  1  0.481030  0.874670  0.731200  1.0
  N  N1418  1  0.125330  0.518970  0.768800  1.0
  N  N1419  1  0.518970  0.125330  0.268800  1.0
  N  N1420  1  0.874670  0.481030  0.231200  1.0
  N  N1421  1  0.420210  0.885330  0.739590  1.0
  N  N1422  1  0.114670  0.579790  0.760410  1.0
  N  N1423  1  0.579790  0.114670  0.260410  1.0
  N  N1424  1  0.885330  0.420210  0.239590  1.0
  N  N1425  1  0.844760  0.755980  0.927380  1.0
  N  N1426  1  0.244020  0.155240  0.572620  1.0
  N  N1427  1  0.155240  0.244020  0.072620  1.0
  N  N1428  1  0.755980  0.844760  0.427380  1.0
  N  N1429  1  0.666520  0.774500  0.913270  1.0
  N  N1430  1  0.225500  0.333480  0.586730  1.0
  N  N1431  1  0.333480  0.225500  0.086730  1.0
  N  N1432  1  0.774500  0.666520  0.413270  1.0
  N  N1433  1  0.728300  0.763820  0.912690  1.0
  N  N1434  1  0.236180  0.271700  0.587310  1.0
  N  N1435  1  0.271700  0.236180  0.087310  1.0
  N  N1436  1  0.763820  0.728300  0.412690  1.0
  N  N1437  1  0.111110  0.782790  0.996170  1.0
  N  N1438  1  0.217210  0.888890  0.503830  1.0
  N  N1439  1  0.888890  0.217210  0.003830  1.0
  N  N1440  1  0.782790  0.111110  0.496170  1.0
  N  N1441  1  0.126390  0.877350  0.965640  1.0
  N  N1442  1  0.122650  0.873610  0.534360  1.0
  N  N1443  1  0.873610  0.122650  0.034360  1.0
  N  N1444  1  0.877350  0.126390  0.465640  1.0
  N  N1445  1  0.152440  0.891300  0.993000  1.0
  N  N1446  1  0.108700  0.847560  0.507000  1.0
  N  N1447  1  0.847560  0.108700  0.007000  1.0
  N  N1448  1  0.891300  0.152440  0.493000  1.0
  N  N1449  1  0.058510  0.873470  0.051830  1.0
  N  N1450  1  0.126530  0.941490  0.448170  1.0
  N  N1451  1  0.941490  0.126530  0.948170  1.0
  N  N1452  1  0.873470  0.058510  0.551830  1.0
  N  N1453  1  0.210080  0.891480  0.096050  1.0
  N  N1454  1  0.108520  0.789920  0.403950  1.0
  N  N1455  1  0.789920  0.108520  0.903950  1.0
  N  N1456  1  0.891480  0.210080  0.596050  1.0
  N  N1457  1  0.164650  0.880530  0.077330  1.0
  N  N1458  1  0.119470  0.835350  0.422670  1.0
  N  N1459  1  0.835350  0.119470  0.922670  1.0
  N  N1460  1  0.880530  0.164650  0.577330  1.0
  N  N1461  1  0.497070  0.344530  0.834910  1.0
  N  N1462  1  0.655470  0.502930  0.665090  1.0
  N  N1463  1  0.502930  0.655470  0.165090  1.0
  N  N1464  1  0.344530  0.497070  0.334910  1.0
  N  N1465  1  0.381150  0.247710  0.893730  1.0
  N  N1466  1  0.752290  0.618850  0.606270  1.0
  N  N1467  1  0.618850  0.752290  0.106270  1.0
  N  N1468  1  0.247710  0.381150  0.393730  1.0
  N  N1469  1  0.416400  0.287740  0.876110  1.0
  N  N1470  1  0.712260  0.583600  0.623890  1.0
  N  N1471  1  0.583600  0.712260  0.123890  1.0
  N  N1472  1  0.287740  0.416400  0.376110  1.0
  N  N1473  1  0.342650  0.417830  0.893060  1.0
  N  N1474  1  0.582170  0.657350  0.606940  1.0
  N  N1475  1  0.657350  0.582170  0.106940  1.0
  N  N1476  1  0.417830  0.342650  0.393060  1.0
  N  N1477  1  0.514450  0.408090  0.918020  1.0
  N  N1478  1  0.591910  0.485550  0.581980  1.0
  N  N1479  1  0.485550  0.591910  0.081980  1.0
  N  N1480  1  0.408090  0.514450  0.418020  1.0
  N  N1481  1  0.458960  0.403360  0.906360  1.0
  N  N1482  1  0.596640  0.541040  0.593640  1.0
  N  N1483  1  0.541040  0.596640  0.093640  1.0
  N  N1484  1  0.403360  0.458960  0.406360  1.0
  N  N1485  1  0.896420  0.686960  0.863890  1.0
  N  N1486  1  0.313040  0.103580  0.636110  1.0
  N  N1487  1  0.103580  0.313040  0.136110  1.0
  N  N1488  1  0.686960  0.896420  0.363890  1.0
  N  N1489  1  0.778810  0.594410  0.925170  1.0
  N  N1490  1  0.405590  0.221190  0.574830  1.0
  N  N1491  1  0.221190  0.405590  0.074830  1.0
  N  N1492  1  0.594410  0.778810  0.425170  1.0
  N  N1493  1  0.816160  0.633280  0.907210  1.0
  N  N1494  1  0.366720  0.183840  0.592790  1.0
  N  N1495  1  0.183840  0.366720  0.092790  1.0
  N  N1496  1  0.633280  0.816160  0.407210  1.0
  N  N1497  1  0.759660  0.697160  0.845150  1.0
  N  N1498  1  0.302840  0.240340  0.654850  1.0
  N  N1499  1  0.240340  0.302840  0.154850  1.0
  N  N1500  1  0.697160  0.759660  0.345150  1.0
  N  N1501  1  0.156520  0.152100  0.160250  1.0
  N  N1502  1  0.847900  0.843480  0.339750  1.0
  N  N1503  1  0.843480  0.847900  0.839750  1.0
  N  N1504  1  0.152100  0.156520  0.660250  1.0
  N  N1505  1  0.813880  0.798120  0.847030  1.0
  N  N1506  1  0.201880  0.186120  0.652970  1.0
  N  N1507  1  0.186120  0.201880  0.152970  1.0
  N  N1508  1  0.798120  0.813880  0.347030  1.0
  O  O1509  1  0.355850  0.953830  0.013580  1
  O  O1510  1  0.046170  0.644150  0.486420  1
  O  O1511  1  0.644150  0.046170  0.986420  1
  O  O1512  1  0.953830  0.355850  0.513580  1
  O  O1513  1  0.409200  0.092800  0.976500  1
  O  O1514  1  0.907200  0.590800  0.523500  1
  O  O1515  1  0.590800  0.907200  0.023500  1
  O  O1516  1  0.092800  0.409200  0.476500  1
  O  O1517  1  0.225700  0.619700  0.871400  1
  O  O1518  1  0.380300  0.774300  0.628600  1
  O  O1519  1  0.774300  0.380300  0.128600  1
  O  O1520  1  0.619700  0.225700  0.371400  1
