# generated using pymatgen
data_Cu4B2H162C197N41(O5F4)2
_symmetry_space_group_name_H-M   'P 1'
_cell_length_a   26.89407669
_cell_length_b   26.89407669
_cell_length_c   30.59855075
_cell_angle_alpha   99.28487889
_cell_angle_beta   113.33082743
_cell_angle_gamma   111.45937008
_symmetry_Int_Tables_number   1
_chemical_formula_structural   Cu4B2H162C197N41(O5F4)2
_chemical_formula_sum   'Cu8 B4 H324 C394 N82 O20 F16'
_cell_volume   17657.23906972
_cell_formula_units_Z   2
loop_
 _symmetry_equiv_pos_site_id
 _symmetry_equiv_pos_as_xyz
  1  'x, y, z'
loop_
 _atom_site_type_symbol
 _atom_site_label
 _atom_site_symmetry_multiplicity
 _atom_site_fract_x
 _atom_site_fract_y
 _atom_site_fract_z
 _atom_site_occupancy
  B  B1  1  0.116300  0.127100  0.462000  1
  B  B2  1  0.665100  0.654300  0.538000  1
  B  B3  1  0.883700  0.872900  0.538000  1
  B  B4  1  0.334900  0.345700  0.462000  1
  C  C5  1  0.243200  0.279900  0.523100  1
  C  C6  1  0.756800  0.720100  0.476900  1
  C  C7  1  0.076600  0.961100  0.389300  1
  C  C8  1  0.571800  0.687300  0.610700  1
  C  C9  1  0.923400  0.038900  0.610700  1
  C  C10  1  0.428200  0.312700  0.389300  1
  C  C11  1  0.844600  0.892000  0.270200  1
  C  C12  1  0.621800  0.574400  0.729800  1
  C  C13  1  0.155400  0.108000  0.729800  1
  C  C14  1  0.378200  0.425600  0.270200  1
  C  C15  1  0.436450  0.559390  0.415700  1.0
  C  C16  1  0.143690  0.020750  0.584300  1.0
  C  C17  1  0.563550  0.440610  0.584300  1.0
  C  C18  1  0.856310  0.979250  0.415700  1.0
  C  C19  1  0.487010  0.578990  0.408400  1.0
  C  C20  1  0.170590  0.078610  0.591600  1.0
  C  C21  1  0.512990  0.421010  0.591600  1.0
  C  C22  1  0.829410  0.921390  0.408400  1.0
  C  C23  1  0.481330  0.590850  0.364600  1.0
  C  C24  1  0.226250  0.116730  0.635400  1.0
  C  C25  1  0.518670  0.409150  0.635400  1.0
  C  C26  1  0.773750  0.883270  0.364600  1.0
  C  C27  1  0.425050  0.583050  0.328100  1.0
  C  C28  1  0.254950  0.096950  0.671900  1.0
  C  C29  1  0.574950  0.416950  0.671900  1.0
  C  C30  1  0.745050  0.903050  0.328100  1.0
  C  C31  1  0.374520  0.563380  0.335500  1.0
  C  C32  1  0.227880  0.039020  0.664500  1.0
  C  C33  1  0.625480  0.436620  0.664500  1.0
  C  C34  1  0.772120  0.960980  0.335500  1.0
  C  C35  1  0.434400  0.548800  0.457600  1.0
  C  C36  1  0.091200  0.976800  0.542400  1.0
  C  C37  1  0.565600  0.451200  0.542400  1.0
  C  C38  1  0.908800  0.023200  0.457600  1.0
  C  C39  1  0.484900  0.555800  0.505300  1.0
  C  C40  1  0.050500  0.979600  0.494700  1.0
  C  C41  1  0.515100  0.444200  0.494700  1.0
  C  C42  1  0.949500  0.020400  0.505300  1.0
  C  C43  1  0.461800  0.539100  0.532100  1.0
  C  C44  1  0.007000  0.929700  0.467900  1.0
  C  C45  1  0.538200  0.460900  0.467900  1.0
  C  C46  1  0.993000  0.070300  0.532100  1.0
  C  C47  1  0.356300  0.502700  0.525600  1.0
  C  C48  1  0.977100  0.830700  0.474400  1.0
  C  C49  1  0.643700  0.497300  0.474400  1.0
  C  C50  1  0.022900  0.169300  0.525600  1.0
  C  C51  1  0.377200  0.443600  0.599200  1.0
  C  C52  1  0.844400  0.778000  0.400800  1.0
  C  C53  1  0.622800  0.556400  0.400800  1.0
  C  C54  1  0.155600  0.222000  0.599200  1.0
  C  C55  1  0.387900  0.418300  0.633000  1.0
  C  C56  1  0.785300  0.754900  0.367000  1.0
  C  C57  1  0.612100  0.581700  0.367000  1.0
  C  C58  1  0.214700  0.245100  0.633000  1.0
  C  C59  1  0.414400  0.447500  0.684900  1.0
  C  C60  1  0.762600  0.729500  0.315100  1.0
  C  C61  1  0.585600  0.552500  0.315100  1.0
  C  C62  1  0.237400  0.270500  0.684900  1.0
  C  C63  1  0.433600  0.504300  0.703300  1.0
  C  C64  1  0.801000  0.730300  0.296700  1.0
  C  C65  1  0.566400  0.495700  0.296700  1.0
  C  C66  1  0.199000  0.269700  0.703300  1.0
  C  C67  1  0.424800  0.535700  0.669900  1.0
  C  C68  1  0.865800  0.754900  0.330100  1.0
  C  C69  1  0.575200  0.464300  0.330100  1.0
  C  C70  1  0.134200  0.245100  0.669900  1.0
  C  C71  1  0.395500  0.504100  0.614200  1.0
  C  C72  1  0.889900  0.781300  0.385800  1.0
  C  C73  1  0.604500  0.495900  0.385800  1.0
  C  C74  1  0.110100  0.218700  0.614200  1.0
  C  C75  1  0.448900  0.681500  0.667000  1.0
  C  C76  1  0.014500  0.781900  0.333000  1.0
  C  C77  1  0.551100  0.318500  0.333000  1.0
  C  C78  1  0.985500  0.218100  0.667000  1.0
  C  C79  1  0.440900  0.708300  0.635200  1.0
  C  C80  1  0.073100  0.805700  0.364800  1.0
  C  C81  1  0.559100  0.291700  0.364800  1.0
  C  C82  1  0.926900  0.194300  0.635200  1.0
  C  C83  1  0.414100  0.678400  0.582300  1.0
  C  C84  1  0.096100  0.831800  0.417700  1.0
  C  C85  1  0.585900  0.321600  0.417700  1.0
  C  C86  1  0.903900  0.168200  0.582300  1.0
  C  C87  1  0.395300  0.623400  0.565900  1.0
  C  C88  1  0.057500  0.829400  0.434100  1.0
  C  C89  1  0.604700  0.376600  0.434100  1.0
  C  C90  1  0.942500  0.170600  0.565900  1.0
  C  C91  1  0.405500  0.592800  0.600500  1.0
  C  C92  1  0.992300  0.805000  0.399500  1.0
  C  C93  1  0.594500  0.407200  0.399500  1.0
  C  C94  1  0.007700  0.195000  0.600500  1.0
  C  C95  1  0.433000  0.621600  0.651600  1.0
  C  C96  1  0.970000  0.781400  0.348400  1.0
  C  C97  1  0.567000  0.378400  0.348400  1.0
  C  C98  1  0.030000  0.218600  0.651600  1.0
  C  C99  1  0.386800  0.532900  0.580500  1.0
  C  C100  1  0.952400  0.806300  0.419500  1.0
  C  C101  1  0.613200  0.467100  0.419500  1.0
  C  C102  1  0.047600  0.193700  0.580500  1.0
  C  C103  1  0.443900  0.593300  0.686400  1.0
  C  C104  1  0.906900  0.757500  0.313600  1.0
  C  C105  1  0.556100  0.406700  0.313600  1.0
  C  C106  1  0.093100  0.242500  0.686400  1.0
  C  C107  1  0.411510  0.711090  0.843800  1.0
  C  C108  1  0.867290  0.567710  0.156200  1.0
  C  C109  1  0.588490  0.288910  0.156200  1.0
  C  C110  1  0.132710  0.432290  0.843800  1.0
  C  C111  1  0.364560  0.713860  0.851100  1.0
  C  C112  1  0.862760  0.513460  0.148900  1.0
  C  C113  1  0.635440  0.286140  0.148900  1.0
  C  C114  1  0.137240  0.486540  0.851100  1.0
  C  C115  1  0.378770  0.754030  0.894800  1.0
  C  C116  1  0.859230  0.483970  0.105200  1.0
  C  C117  1  0.621230  0.245970  0.105200  1.0
  C  C118  1  0.140770  0.516030  0.894800  1.0
  C  C119  1  0.439850  0.791550  0.931200  1.0
  C  C120  1  0.860350  0.508650  0.068800  1.0
  C  C121  1  0.560150  0.208450  0.068800  1.0
  C  C122  1  0.139650  0.491350  0.931200  1.0
  C  C123  1  0.486700  0.788800  0.923900  1.0
  C  C124  1  0.864900  0.562800  0.076100  1.0
  C  C125  1  0.513300  0.211200  0.076100  1.0
  C  C126  1  0.135100  0.437200  0.923900  1.0
  C  C127  1  0.406400  0.674700  0.803700  1.0
  C  C128  1  0.871000  0.602700  0.196300  1.0
  C  C129  1  0.593600  0.325300  0.196300  1.0
  C  C130  1  0.129000  0.397300  0.803700  1.0
  C  C131  1  0.352400  0.626300  0.758300  1.0
  C  C132  1  0.868000  0.594100  0.241700  1.0
  C  C133  1  0.647600  0.373700  0.241700  1.0
  C  C134  1  0.132000  0.405900  0.758300  1.0
  C  C135  1  0.373800  0.603100  0.732700  1.0
  C  C136  1  0.870400  0.641100  0.267300  1.0
  C  C137  1  0.626200  0.396900  0.267300  1.0
  C  C138  1  0.129600  0.358900  0.732700  1.0
  C  C139  1  0.478000  0.629200  0.742000  1.0
  C  C140  1  0.887200  0.736000  0.258000  1.0
  C  C141  1  0.522000  0.370800  0.258000  1.0
  C  C142  1  0.112800  0.264000  0.742000  1.0
  C  C143  1  0.223200  0.418800  0.292000  1.0
  C  C144  1  0.126800  0.931200  0.708000  1.0
  C  C145  1  0.776800  0.581200  0.708000  1.0
  C  C146  1  0.873200  0.068800  0.292000  1.0
  C  C147  1  0.202400  0.365400  0.264400  1.0
  C  C148  1  0.101000  0.938000  0.735600  1.0
  C  C149  1  0.797600  0.634600  0.735600  1.0
  C  C150  1  0.899000  0.062000  0.264400  1.0
  C  C151  1  0.226100  0.328400  0.282700  1.0
  C  C152  1  0.045700  0.943400  0.717300  1.0
  C  C153  1  0.773900  0.671600  0.717300  1.0
  C  C154  1  0.954300  0.056600  0.282700  1.0
  C  C155  1  0.273800  0.352000  0.329200  1.0
  C  C156  1  0.022800  0.944600  0.670800  1.0
  C  C157  1  0.726200  0.648000  0.670800  1.0
  C  C158  1  0.977200  0.055400  0.329200  1.0
  C  C159  1  0.296800  0.407300  0.358100  1.0
  C  C160  1  0.049200  0.938700  0.641900  1.0
  C  C161  1  0.703200  0.592700  0.641900  1.0
  C  C162  1  0.950800  0.061300  0.358100  1.0
  C  C163  1  0.200800  0.458100  0.278100  1.0
  C  C164  1  0.180000  0.922700  0.721900  1.0
  C  C165  1  0.799200  0.541900  0.721900  1.0
  C  C166  1  0.820000  0.077300  0.278100  1.0
  C  C167  1  0.146700  0.443400  0.232900  1.0
  C  C168  1  0.210500  0.913800  0.767100  1.0
  C  C169  1  0.853300  0.556600  0.767100  1.0
  C  C170  1  0.789500  0.086200  0.232900  1.0
  C  C171  1  0.145800  0.495300  0.239300  1.0
  C  C172  1  0.256000  0.906500  0.760700  1.0
  C  C173  1  0.854200  0.504700  0.760700  1.0
  C  C174  1  0.744000  0.093500  0.239300  1.0
  C  C175  1  0.217900  0.597100  0.302000  1.0
  C  C176  1  0.295100  0.915900  0.698000  1.0
  C  C177  1  0.782100  0.402900  0.698000  1.0
  C  C178  1  0.704900  0.084100  0.302000  1.0
  C  C179  1  0.229030  0.646770  0.227800  1.0
  C  C180  1  0.418970  0.001230  0.772200  1.0
  C  C181  1  0.770970  0.353230  0.772200  1.0
  C  C182  1  0.581030  0.998770  0.227800  1.0
  C  C183  1  0.238180  0.674720  0.195100  1.0
  C  C184  1  0.479620  0.043080  0.804900  1.0
  C  C185  1  0.761820  0.325280  0.804900  1.0
  C  C186  1  0.520380  0.956920  0.195100  1.0
  C  C187  1  0.196900  0.692900  0.169000  1.0
  C  C188  1  0.523900  0.027900  0.831000  1.0
  C  C189  1  0.803100  0.307100  0.831000  1.0
  C  C190  1  0.476100  0.972100  0.169000  1.0
  C  C191  1  0.146350  0.683050  0.175600  1.0
  C  C192  1  0.507450  0.970750  0.824400  1.0
  C  C193  1  0.853650  0.316950  0.824400  1.0
  C  C194  1  0.492550  0.029250  0.175600  1.0
  C  C195  1  0.136980  0.655000  0.208200  1.0
  C  C196  1  0.446800  0.928780  0.791800  1.0
  C  C197  1  0.863020  0.345000  0.791800  1.0
  C  C198  1  0.553200  0.071220  0.208200  1.0
  C  C199  1  0.178380  0.636820  0.234400  1.0
  C  C200  1  0.402420  0.943980  0.765600  1.0
  C  C201  1  0.821620  0.363180  0.765600  1.0
  C  C202  1  0.597580  0.056020  0.234400  1.0
  C  C203  1  0.029140  0.615860  0.259800  1.0
  C  C204  1  0.356060  0.769340  0.740200  1.0
  C  C205  1  0.970860  0.384140  0.740200  1.0
  C  C206  1  0.643940  0.230660  0.259800  1.0
  C  C207  1  0.022280  0.592620  0.295700  1.0
  C  C208  1  0.296920  0.726580  0.704300  1.0
  C  C209  1  0.977720  0.407380  0.704300  1.0
  C  C210  1  0.703080  0.273420  0.295700  1.0
  C  C211  1  0.064350  0.575950  0.323400  1.0
  C  C212  1  0.252550  0.740950  0.676600  1.0
  C  C213  1  0.935650  0.424050  0.676600  1.0
  C  C214  1  0.747450  0.259050  0.323400  1.0
  C  C215  1  0.113270  0.582530  0.315200  1.0
  C  C216  1  0.267330  0.798070  0.684800  1.0
  C  C217  1  0.886730  0.417470  0.684800  1.0
  C  C218  1  0.732670  0.201930  0.315200  1.0
  C  C219  1  0.120090  0.605810  0.279200  1.0
  C  C220  1  0.326610  0.840890  0.720800  1.0
  C  C221  1  0.879910  0.394190  0.720800  1.0
  C  C222  1  0.673390  0.159110  0.279200  1.0
  C  C223  1  0.078080  0.622490  0.251550  1.0
  C  C224  1  0.370940  0.826530  0.748450  1.0
  C  C225  1  0.921920  0.377510  0.748450  1.0
  C  C226  1  0.629060  0.173470  0.251550  1.0
  C  C227  1  0.170100  0.612900  0.271000  1.0
  C  C228  1  0.341900  0.899100  0.729000  1.0
  C  C229  1  0.829900  0.387100  0.729000  1.0
  C  C230  1  0.658100  0.100900  0.271000  1.0
  C  C231  1  0.083100  0.644100  0.211400  1.0
  C  C232  1  0.432700  0.871700  0.788600  1.0
  C  C233  1  0.916900  0.355900  0.788600  1.0
  C  C234  1  0.567300  0.128300  0.211400  1.0
  C  C235  1  0.033600  0.655800  0.177600  1.0
  C  C236  1  0.478200  0.856000  0.822400  1.0
  C  C237  1  0.966400  0.344200  0.822400  1.0
  C  C238  1  0.521800  0.144000  0.177600  1.0
  C  C239  1  0.274280  0.599120  0.431800  1.0
  C  C240  1  0.167320  0.842480  0.568200  1.0
  C  C241  1  0.725720  0.400880  0.568200  1.0
  C  C242  1  0.832680  0.157520  0.431800  1.0
  C  C243  1  0.274330  0.651070  0.451200  1.0
  C  C244  1  0.199870  0.823130  0.548800  1.0
  C  C245  1  0.725670  0.348930  0.548800  1.0
  C  C246  1  0.800130  0.176870  0.451200  1.0
  C  C247  1  0.321900  0.701900  0.461200  1.0
  C  C248  1  0.240700  0.860700  0.538800  1.0
  C  C249  1  0.678100  0.298100  0.538800  1.0
  C  C250  1  0.759300  0.139300  0.461200  1.0
  C  C251  1  0.370000  0.701600  0.452200  1.0
  C  C252  1  0.249400  0.917800  0.547800  1.0
  C  C253  1  0.630000  0.298400  0.547800  1.0
  C  C254  1  0.750600  0.082200  0.452200  1.0
  C  C255  1  0.365900  0.650900  0.431600  1.0
  C  C256  1  0.219300  0.934300  0.568400  1.0
  C  C257  1  0.634100  0.349100  0.568400  1.0
  C  C258  1  0.780700  0.065700  0.431600  1.0
  C  C259  1  0.227370  0.542890  0.420900  1.0
  C  C260  1  0.121990  0.806470  0.579100  1.0
  C  C261  1  0.772630  0.457110  0.579100  1.0
  C  C262  1  0.878010  0.193530  0.420900  1.0
  C  C263  1  0.172110  0.524990  0.420700  1.0
  C  C264  1  0.104290  0.751410  0.579300  1.0
  C  C265  1  0.827890  0.475010  0.579300  1.0
  C  C266  1  0.895710  0.248590  0.420700  1.0
  C  C267  1  0.147700  0.466300  0.407000  1.0
  C  C268  1  0.059300  0.740700  0.593000  1.0
  C  C269  1  0.852300  0.533700  0.593000  1.0
  C  C270  1  0.940700  0.259300  0.407000  1.0
  C  C271  1  0.184360  0.395080  0.388100  1.0
  C  C272  1  0.006980  0.796260  0.611900  1.0
  C  C273  1  0.815640  0.604920  0.611900  1.0
  C  C274  1  0.993020  0.203740  0.388100  1.0
  C  C275  1  0.066240  0.323560  0.297800  1.0
  C  C276  1  0.025760  0.768440  0.702200  1.0
  C  C277  1  0.933760  0.676440  0.702200  1.0
  C  C278  1  0.974240  0.231560  0.297800  1.0
  C  C279  1  0.013400  0.286300  0.253900  1.0
  C  C280  1  0.032400  0.759500  0.746100  1.0
  C  C281  1  0.986600  0.713700  0.746100  1.0
  C  C282  1  0.967600  0.240500  0.253900  1.0
  C  C283  1  0.077300  0.315780  0.344300  1.0
  C  C284  1  0.971480  0.733000  0.655700  1.0
  C  C285  1  0.922700  0.684220  0.655700  1.0
  C  C286  1  0.028520  0.267000  0.344300  1.0
  C  C287  1  0.194490  0.378310  0.528200  1.0
  C  C288  1  0.850110  0.666290  0.471800  1.0
  C  C289  1  0.805510  0.621690  0.471800  1.0
  C  C290  1  0.149890  0.333710  0.528200  1.0
  C  C291  1  0.190260  0.385640  0.483100  1.0
  C  C292  1  0.902540  0.707160  0.516900  1.0
  C  C293  1  0.809740  0.614360  0.516900  1.0
  C  C294  1  0.097460  0.292840  0.483100  1.0
  C  C295  1  0.138620  0.344790  0.435530  1.0
  C  C296  1  0.909260  0.703090  0.564470  1.0
  C  C297  1  0.861380  0.655210  0.564470  1.0
  C  C298  1  0.090740  0.296910  0.435530  1.0
  C  C299  1  0.132670  0.350570  0.389700  1.0
  C  C300  1  0.960870  0.742970  0.610300  1.0
  C  C301  1  0.867330  0.649430  0.610300  1.0
  C  C302  1  0.039130  0.257030  0.389700  1.0
  C  C303  1  0.620210  0.768990  0.971900  1.0
  C  C304  1  0.797090  0.648310  0.028100  1.0
  C  C305  1  0.379790  0.231010  0.028100  1.0
  C  C306  1  0.202910  0.351690  0.971900  1.0
  C  C307  1  0.669210  0.803100  0.020910  1.0
  C  C308  1  0.782190  0.648300  0.979090  1.0
  C  C309  1  0.330790  0.196900  0.979090  1.0
  C  C310  1  0.217810  0.351700  0.020910  1.0
  C  C311  1  0.703990  0.861300  0.032690  1.0
  C  C312  1  0.828610  0.671300  0.967310  1.0
  C  C313  1  0.296010  0.138700  0.967310  1.0
  C  C314  1  0.171390  0.328700  0.032690  1.0
  C  C315  1  0.689700  0.885400  0.995500  1.0
  C  C316  1  0.889900  0.694200  0.004500  1.0
  C  C317  1  0.310300  0.114600  0.004500  1.0
  C  C318  1  0.110100  0.305800  0.995500  1.0
  C  C319  1  0.640700  0.851200  0.946500  1.0
  C  C320  1  0.904700  0.694200  0.053500  1.0
  C  C321  1  0.359300  0.148800  0.053500  1.0
  C  C322  1  0.095300  0.305800  0.946500  1.0
  C  C323  1  0.585200  0.708200  0.956000  1.0
  C  C324  1  0.752200  0.629200  0.044000  1.0
  C  C325  1  0.414800  0.291800  0.044000  1.0
  C  C326  1  0.247800  0.370800  0.956000  1.0
  C  C327  1  0.590700  0.671600  0.980500  1.0
  C  C328  1  0.691100  0.610200  0.019500  1.0
  C  C329  1  0.409300  0.328400  0.019500  1.0
  C  C330  1  0.308900  0.389800  0.980500  1.0
  C  C331  1  0.547100  0.617100  0.949000  1.0
  C  C332  1  0.668100  0.598100  0.051000  1.0
  C  C333  1  0.452900  0.382900  0.051000  1.0
  C  C334  1  0.331900  0.401900  0.949000  1.0
  C  C335  1  0.469800  0.579200  0.854800  1.0
  C  C336  1  0.724400  0.615000  0.145200  1.0
  C  C337  1  0.530200  0.420800  0.145200  1.0
  C  C338  1  0.275600  0.385000  0.854800  1.0
  C  C339  1  0.459000  0.461700  0.827700  1.0
  C  C340  1  0.634000  0.631300  0.172300  1.0
  C  C341  1  0.541000  0.538300  0.172300  1.0
  C  C342  1  0.366000  0.368700  0.827700  1.0
  C  C343  1  0.451400  0.406500  0.809900  1.0
  C  C344  1  0.596600  0.641500  0.190100  1.0
  C  C345  1  0.548600  0.593500  0.190100  1.0
  C  C346  1  0.403400  0.358500  0.809900  1.0
  C  C347  1  0.418100  0.471400  0.841900  1.0
  C  C348  1  0.629500  0.576200  0.158100  1.0
  C  C349  1  0.581900  0.528600  0.158100  1.0
  C  C350  1  0.370500  0.423800  0.841900  1.0
  C  C351  1  0.356500  0.604200  0.908900  1.0
  C  C352  1  0.695300  0.447600  0.091100  1.0
  C  C353  1  0.643500  0.395800  0.091100  1.0
  C  C354  1  0.304700  0.552400  0.908900  1.0
  C  C355  1  0.394100  0.592500  0.893400  1.0
  C  C356  1  0.699100  0.500700  0.106600  1.0
  C  C357  1  0.605900  0.407500  0.106600  1.0
  C  C358  1  0.300900  0.499300  0.893400  1.0
  C  C359  1  0.389400  0.538100  0.877900  1.0
  C  C360  1  0.660200  0.511500  0.122100  1.0
  C  C361  1  0.610600  0.461900  0.122100  1.0
  C  C362  1  0.339800  0.488500  0.877900  1.0
  C  C363  1  0.424900  0.526800  0.858500  1.0
  C  C364  1  0.668300  0.566400  0.141500  1.0
  C  C365  1  0.575100  0.473200  0.141500  1.0
  C  C366  1  0.331700  0.433600  0.858500  1.0
  C  C367  1  0.603200  0.772300  0.809300  1.0
  C  C368  1  0.963000  0.793900  0.190700  1.0
  C  C369  1  0.396800  0.227700  0.190700  1.0
  C  C370  1  0.037000  0.206100  0.809300  1.0
  C  C371  1  0.644200  0.773100  0.791100  1.0
  C  C372  1  0.982000  0.853100  0.208900  1.0
  C  C373  1  0.355800  0.226900  0.208900  1.0
  C  C374  1  0.018000  0.146900  0.791100  1.0
  C  C375  1  0.673600  0.741700  0.802900  1.0
  C  C376  1  0.938800  0.870700  0.197100  1.0
  C  C377  1  0.326400  0.258300  0.197100  1.0
  C  C378  1  0.061200  0.129300  0.802900  1.0
  C  C379  1  0.666600  0.710700  0.833500  1.0
  C  C380  1  0.877200  0.833100  0.166500  1.0
  C  C381  1  0.333400  0.289300  0.166500  1.0
  C  C382  1  0.122800  0.166900  0.833500  1.0
  C  C383  1  0.626400  0.712600  0.852600  1.0
  C  C384  1  0.860000  0.773800  0.147400  1.0
  C  C385  1  0.373600  0.287400  0.147400  1.0
  C  C386  1  0.140000  0.226200  0.852600  1.0
  C  C387  1  0.570000  0.805300  0.797100  1.0
  C  C388  1  0.008200  0.772900  0.202900  1.0
  C  C389  1  0.430000  0.194700  0.202900  1.0
  C  C390  1  0.991800  0.227100  0.797100  1.0
  C  C391  1  0.560300  0.830600  0.760100  1.0
  C  C392  1  0.070500  0.800200  0.239900  1.0
  C  C393  1  0.439700  0.169400  0.239900  1.0
  C  C394  1  0.929500  0.199800  0.760100  1.0
  C  C395  1  0.088000  0.761100  0.236500  1.0
  C  C396  1  0.524600  0.851500  0.763500  1.0
  C  C397  1  0.912000  0.238900  0.763500  1.0
  C  C398  1  0.475400  0.148500  0.236500  1.0
  Cu  Cu399  1  0.304790  0.520650  0.387820  1.0
  Cu  Cu400  1  0.132830  0.916970  0.612180  1.0
  Cu  Cu401  1  0.695210  0.479350  0.612180  1.0
  Cu  Cu402  1  0.867170  0.083030  0.387820  1.0
  Cu  Cu403  1  0.535410  0.742050  0.863960  1.0
  Cu  Cu404  1  0.878090  0.671450  0.136040  1.0
  Cu  Cu405  1  0.464590  0.257950  0.136040  1.0
  Cu  Cu406  1  0.121910  0.328550  0.863960  1.0
  F  F407  1  0.065450  0.085630  0.459400  1
  F  F408  1  0.626230  0.606050  0.540600  1
  F  F409  1  0.934550  0.914370  0.540600  1
  F  F410  1  0.373770  0.393950  0.459400  1
  F  F411  1  0.102750  0.170540  0.452170  1
  F  F412  1  0.718370  0.650580  0.547830  1
  F  F413  1  0.897250  0.829460  0.547830  1
  F  F414  1  0.281630  0.349420  0.452170  1
  F  F415  1  0.167250  0.150190  0.511200  1
  F  F416  1  0.638990  0.656050  0.488800  1
  F  F417  1  0.832750  0.849810  0.488800  1
  F  F418  1  0.361010  0.343950  0.511200  1
  F  F419  1  0.126320  0.104560  0.425400  1
  F  F420  1  0.679160  0.700920  0.574600  1
  F  F421  1  0.873680  0.895440  0.574600  1
  F  F422  1  0.320840  0.299080  0.425400  1
  H  H423  1  0.075900  0.927200  0.397500  1
  H  H424  1  0.529700  0.678400  0.602500  1
  H  H425  1  0.924100  0.072800  0.602500  1
  H  H426  1  0.470300  0.321600  0.397500  1
  H  H427  1  0.039500  0.963300  0.385200  1
  H  H428  1  0.578100  0.654300  0.614800  1
  H  H429  1  0.960500  0.036700  0.614800  1
  H  H430  1  0.421900  0.345700  0.385200  1
  H  H431  1  0.113100  0.995500  0.417000  1
  H  H432  1  0.578500  0.696100  0.583000  1
  H  H433  1  0.886900  0.004500  0.583000  1
  H  H434  1  0.421500  0.303900  0.417000  1
  H  H435  1  0.808300  0.857400  0.262700  1
  H  H436  1  0.594700  0.545600  0.737300  1
  H  H437  1  0.191700  0.142600  0.737300  1
  H  H438  1  0.405300  0.454400  0.262700  1
  H  H439  1  0.850400  0.888800  0.240400  1
  H  H440  1  0.648400  0.610000  0.759600  1
  H  H441  1  0.149600  0.111200  0.759600  1
  H  H442  1  0.351600  0.390000  0.240400  1
  H  H443  1  0.838400  0.925400  0.278000  1
  H  H444  1  0.647400  0.560400  0.722000  1
  H  H445  1  0.161600  0.074600  0.722000  1
  H  H446  1  0.352600  0.439600  0.278000  1
  H  H447  1  0.208900  0.264000  0.488100  1
  H  H448  1  0.775900  0.720800  0.511900  1
  H  H449  1  0.791100  0.736000  0.511900  1
  H  H450  1  0.224100  0.279200  0.488100  1
  H  H451  1  0.269800  0.320500  0.531500  1
  H  H452  1  0.789000  0.738300  0.468500  1
  H  H453  1  0.730200  0.679500  0.468500  1
  H  H454  1  0.211000  0.261700  0.531500  1
  H  H455  1  0.227000  0.276100  0.546700  1
  H  H456  1  0.729400  0.680300  0.453300  1
  H  H457  1  0.773000  0.723900  0.453300  1
  H  H458  1  0.270600  0.319700  0.546700  1
  H  H459  1  0.525500  0.584400  0.433300  1.0
  H  H460  1  0.151100  0.092200  0.566700  1.0
  H  H461  1  0.474500  0.415600  0.566700  1.0
  H  H462  1  0.848900  0.907800  0.433300  1.0
  H  H463  1  0.515800  0.604300  0.359500  1.0
  H  H464  1  0.244800  0.156300  0.640500  1.0
  H  H465  1  0.484200  0.395700  0.640500  1.0
  H  H466  1  0.755200  0.843700  0.359500  1.0
  H  H467  1  0.421100  0.591100  0.298200  1.0
  H  H468  1  0.292900  0.122900  0.701800  1.0
  H  H469  1  0.578900  0.408900  0.701800  1.0
  H  H470  1  0.707100  0.877100  0.298200  1.0
  H  H471  1  0.336100  0.558100  0.310600  1.0
  H  H472  1  0.247500  0.025500  0.689400  1.0
  H  H473  1  0.663900  0.441900  0.689400  1.0
  H  H474  1  0.752500  0.974500  0.310600  1.0
  H  H475  1  0.526800  0.570300  0.514100  1.0
  H  H476  1  0.056200  0.012700  0.485900  1.0
  H  H477  1  0.473200  0.429700  0.485900  1.0
  H  H478  1  0.943800  0.987300  0.514100  1.0
  H  H479  1  0.484000  0.538500  0.564900  1.0
  H  H480  1  0.973600  0.919100  0.435100  1.0
  H  H481  1  0.516000  0.461500  0.435100  1.0
  H  H482  1  0.026400  0.080900  0.564900  1.0
  H  H483  1  0.339500  0.460900  0.518000  1.0
  H  H484  1  0.942900  0.821500  0.482000  1.0
  H  H485  1  0.660500  0.539100  0.482000  1.0
  H  H486  1  0.057100  0.178500  0.518000  1.0
  H  H487  1  0.321800  0.510400  0.507600  1.0
  H  H488  1  0.002800  0.814200  0.492400  1.0
  H  H489  1  0.678200  0.489600  0.492400  1.0
  H  H490  1  0.997200  0.185800  0.507600  1.0
  H  H491  1  0.357000  0.421400  0.564000  1.0
  H  H492  1  0.857400  0.793000  0.436000  1.0
  H  H493  1  0.643000  0.578600  0.436000  1.0
  H  H494  1  0.142600  0.207000  0.564000  1.0
  H  H495  1  0.376900  0.378900  0.621400  1.0
  H  H496  1  0.757500  0.755500  0.378600  1.0
  H  H497  1  0.623100  0.621100  0.378600  1.0
  H  H498  1  0.242500  0.244500  0.621400  1.0
  H  H499  1  0.419100  0.427200  0.707700  1.0
  H  H500  1  0.719500  0.711400  0.292300  1.0
  H  H501  1  0.580900  0.572800  0.292300  1.0
  H  H502  1  0.280500  0.288600  0.707700  1.0
  H  H503  1  0.453300  0.523700  0.739000  1.0
  H  H504  1  0.784700  0.714300  0.261000  1.0
  H  H505  1  0.546700  0.476300  0.261000  1.0
  H  H506  1  0.215300  0.285700  0.739000  1.0
  H  H507  1  0.466000  0.702300  0.702100  1.0
  H  H508  1  0.000200  0.763900  0.297900  1.0
  H  H509  1  0.534000  0.297700  0.297900  1.0
  H  H510  1  0.999800  0.236100  0.702100  1.0
  H  H511  1  0.452900  0.747900  0.647200  1.0
  H  H512  1  0.100700  0.805700  0.352800  1.0
  H  H513  1  0.547100  0.252100  0.352800  1.0
  H  H514  1  0.899300  0.194300  0.647200  1.0
  H  H515  1  0.409900  0.698200  0.559100  1.0
  H  H516  1  0.139100  0.850800  0.440900  1.0
  H  H517  1  0.590100  0.301800  0.440900  1.0
  H  H518  1  0.860900  0.149200  0.559100  1.0
  H  H519  1  0.374400  0.603000  0.530200  1.0
  H  H520  1  0.072800  0.844200  0.469800  1.0
  H  H521  1  0.625600  0.397000  0.469800  1.0
  H  H522  1  0.927200  0.155800  0.530200  1.0
  H  H523  1  0.322900  0.688200  0.826300  1.0
  H  H524  1  0.861900  0.496600  0.173700  1.0
  H  H525  1  0.677100  0.311800  0.173700  1.0
  H  H526  1  0.138100  0.503400  0.826300  1.0
  H  H527  1  0.346700  0.755900  0.899800  1.0
  H  H528  1  0.856100  0.446900  0.100200  1.0
  H  H529  1  0.653300  0.244100  0.100200  1.0
  H  H530  1  0.143900  0.553100  0.899800  1.0
  H  H531  1  0.449600  0.819100  0.961100  1.0
  H  H532  1  0.858000  0.488500  0.038900  1.0
  H  H533  1  0.550400  0.180900  0.038900  1.0
  H  H534  1  0.142000  0.511500  0.961100  1.0
  H  H535  1  0.528500  0.814500  0.948800  1.0
  H  H536  1  0.865700  0.579700  0.051200  1.0
  H  H537  1  0.471500  0.185500  0.051200  1.0
  H  H538  1  0.134300  0.420300  0.948800  1.0
  H  H539  1  0.310400  0.613900  0.748900  1.0
  H  H540  1  0.865000  0.561500  0.251100  1.0
  H  H541  1  0.689600  0.386100  0.251100  1.0
  H  H542  1  0.135000  0.438500  0.748900  1.0
  H  H543  1  0.350500  0.569300  0.703200  1.0
  H  H544  1  0.866100  0.647300  0.296800  1.0
  H  H545  1  0.649500  0.430700  0.296800  1.0
  H  H546  1  0.133900  0.352700  0.703200  1.0
  H  H547  1  0.510400  0.666900  0.748500  1.0
  H  H548  1  0.918400  0.761900  0.251500  1.0
  H  H549  1  0.489600  0.333100  0.251500  1.0
  H  H550  1  0.081600  0.238100  0.748500  1.0
  H  H551  1  0.497800  0.610100  0.762500  1.0
  H  H552  1  0.847600  0.735300  0.237500  1.0
  H  H553  1  0.502200  0.389900  0.237500  1.0
  H  H554  1  0.152400  0.264700  0.762500  1.0
  H  H555  1  0.169900  0.350400  0.230300  1.0
  H  H556  1  0.120100  0.939600  0.769700  1.0
  H  H557  1  0.830100  0.649600  0.769700  1.0
  H  H558  1  0.879900  0.060400  0.230300  1.0
  H  H559  1  0.208500  0.289400  0.262500  1.0
  H  H560  1  0.026900  0.946000  0.737500  1.0
  H  H561  1  0.791500  0.710600  0.737500  1.0
  H  H562  1  0.973100  0.054000  0.262500  1.0
  H  H563  1  0.292400  0.330000  0.342600  1.0
  H  H564  1  0.987400  0.949800  0.657400  1.0
  H  H565  1  0.707600  0.670000  0.657400  1.0
  H  H566  1  0.012600  0.050200  0.342600  1.0
  H  H567  1  0.330800  0.422400  0.391600  1.0
  H  H568  1  0.030800  0.939200  0.608400  1.0
  H  H569  1  0.669200  0.577600  0.608400  1.0
  H  H570  1  0.969200  0.060800  0.391600  1.0
  H  H571  1  0.118600  0.407700  0.205500  1.0
  H  H572  1  0.202200  0.913100  0.794500  1.0
  H  H573  1  0.881400  0.592300  0.794500  1.0
  H  H574  1  0.797800  0.086900  0.205500  1.0
  H  H575  1  0.113700  0.501200  0.217300  1.0
  H  H576  1  0.283900  0.896400  0.782700  1.0
  H  H577  1  0.886300  0.498800  0.782700  1.0
  H  H578  1  0.716100  0.103600  0.217300  1.0
  H  H579  1  0.226300  0.607800  0.337700  1.0
  H  H580  1  0.270100  0.888600  0.662300  1.0
  H  H581  1  0.773700  0.392200  0.662300  1.0
  H  H582  1  0.729900  0.111400  0.337700  1.0
  H  H583  1  0.256700  0.618900  0.302200  1.0
  H  H584  1  0.316700  0.954500  0.697800  1.0
  H  H585  1  0.743300  0.381100  0.697800  1.0
  H  H586  1  0.683300  0.045500  0.302200  1.0
  H  H587  1  0.257200  0.634400  0.245600  1.0
  H  H588  1  0.388800  0.011600  0.754400  1.0
  H  H589  1  0.742800  0.365600  0.754400  1.0
  H  H590  1  0.611200  0.988400  0.245600  1.0
  H  H591  1  0.272700  0.681500  0.190600  1.0
  H  H592  1  0.490900  0.082100  0.809400  1.0
  H  H593  1  0.727300  0.318500  0.809400  1.0
  H  H594  1  0.509100  0.917900  0.190600  1.0
  H  H595  1  0.203200  0.712100  0.146700  1.0
  H  H596  1  0.565400  0.056500  0.853300  1.0
  H  H597  1  0.796800  0.287900  0.853300  1.0
  H  H598  1  0.434600  0.943500  0.146700  1.0
  H  H599  1  0.117900  0.695400  0.157700  1.0
  H  H600  1  0.537700  0.960200  0.842300  1.0
  H  H601  1  0.882100  0.304600  0.842300  1.0
  H  H602  1  0.462300  0.039800  0.157700  1.0
  H  H603  1  0.000400  0.627300  0.240900  1.0
  H  H604  1  0.386400  0.759500  0.759100  1.0
  H  H605  1  0.999600  0.372700  0.759100  1.0
  H  H606  1  0.613600  0.240500  0.240900  1.0
  H  H607  1  0.988800  0.588100  0.301300  1.0
  H  H608  1  0.286800  0.687500  0.698700  1.0
  H  H609  1  0.011200  0.411900  0.698700  1.0
  H  H610  1  0.713200  0.312500  0.301300  1.0
  H  H611  1  0.059600  0.560100  0.347900  1.0
  H  H612  1  0.212200  0.711700  0.652100  1.0
  H  H613  1  0.940400  0.439900  0.652100  1.0
  H  H614  1  0.787800  0.288300  0.347900  1.0
  H  H615  1  0.142000  0.571100  0.334100  1.0
  H  H616  1  0.237000  0.807900  0.665900  1.0
  H  H617  1  0.858000  0.428900  0.665900  1.0
  H  H618  1  0.763000  0.192100  0.334100  1.0
  H  H619  1  0.035400  0.654800  0.145800  1.0
  H  H620  1  0.509000  0.889600  0.854200  1.0
  H  H621  1  0.964600  0.345200  0.854200  1.0
  H  H622  1  0.491000  0.110400  0.145800  1.0
  H  H623  1  0.993300  0.624500  0.168400  1.0
  H  H624  1  0.456100  0.824900  0.831600  1.0
  H  H625  1  0.006700  0.375500  0.831600  1.0
  H  H626  1  0.543900  0.175100  0.168400  1.0
  H  H627  1  0.242000  0.650400  0.457000  1.0
  H  H628  1  0.193400  0.785000  0.543000  1.0
  H  H629  1  0.758000  0.349600  0.543000  1.0
  H  H630  1  0.806600  0.215000  0.457000  1.0
  H  H631  1  0.322800  0.737100  0.473900  1.0
  H  H632  1  0.263200  0.848900  0.526100  1.0
  H  H633  1  0.677200  0.262900  0.526100  1.0
  H  H634  1  0.736800  0.151100  0.473900  1.0
  H  H635  1  0.404300  0.736600  0.460500  1.0
  H  H636  1  0.276100  0.943800  0.539500  1.0
  H  H637  1  0.595700  0.263400  0.539500  1.0
  H  H638  1  0.723900  0.056200  0.460500  1.0
  H  H639  1  0.396800  0.650800  0.424000  1.0
  H  H640  1  0.226800  0.972800  0.576000  1.0
  H  H641  1  0.603200  0.349200  0.576000  1.0
  H  H642  1  0.773200  0.027200  0.424000  1.0
  H  H643  1  0.154700  0.547900  0.428200  1.0
  H  H644  1  0.119700  0.726500  0.571800  1.0
  H  H645  1  0.845300  0.452100  0.571800  1.0
  H  H646  1  0.880300  0.273500  0.428200  1.0
  H  H647  1  0.109700  0.440400  0.403300  1.0
  H  H648  1  0.037100  0.706400  0.596700  1.0
  H  H649  1  0.890300  0.559600  0.596700  1.0
  H  H650  1  0.962900  0.293600  0.403300  1.0
  H  H651  1  0.223600  0.398000  0.413000  1.0
  H  H652  1  0.985000  0.810600  0.587000  1.0
  H  H653  1  0.776400  0.602000  0.587000  1.0
  H  H654  1  0.015000  0.189400  0.413000  1.0
  H  H655  1  0.179700  0.382700  0.353800  1.0
  H  H656  1  0.028900  0.825900  0.646200  1.0
  H  H657  1  0.820300  0.617300  0.646200  1.0
  H  H658  1  0.971100  0.174100  0.353800  1.0
  H  H659  1  0.096200  0.355400  0.297000  1.0
  H  H660  1  0.058400  0.799200  0.703000  1.0
  H  H661  1  0.903800  0.644600  0.703000  1.0
  H  H662  1  0.941600  0.200800  0.297000  1.0
  H  H663  1  0.007700  0.291600  0.222700  1.0
  H  H664  1  0.068900  0.785000  0.777300  1.0
  H  H665  1  0.992300  0.708400  0.777300  1.0
  H  H666  1  0.931100  0.215000  0.222700  1.0
  H  H667  1  0.229600  0.405300  0.559700  1.0
  H  H668  1  0.845600  0.669900  0.440300  1.0
  H  H669  1  0.770400  0.594700  0.440300  1.0
  H  H670  1  0.154400  0.330100  0.559700  1.0
  H  H671  1  0.221600  0.417800  0.484000  1.0
  H  H672  1  0.933800  0.737600  0.516000  1.0
  H  H673  1  0.778400  0.582200  0.516000  1.0
  H  H674  1  0.066200  0.262400  0.484000  1.0
  H  H675  1  0.678900  0.786800  0.046300  1.0
  H  H676  1  0.740500  0.632600  0.953700  1.0
  H  H677  1  0.321100  0.213200  0.953700  1.0
  H  H678  1  0.259500  0.367400  0.046300  1.0
  H  H679  1  0.737500  0.884700  0.066200  1.0
  H  H680  1  0.818500  0.671300  0.933800  1.0
  H  H681  1  0.262500  0.115300  0.933800  1.0
  H  H682  1  0.181500  0.328700  0.066200  1.0
  H  H683  1  0.713400  0.925100  0.003500  1.0
  H  H684  1  0.921600  0.709900  0.996500  1.0
  H  H685  1  0.286600  0.074900  0.996500  1.0
  H  H686  1  0.078400  0.290100  0.003500  1.0
  H  H687  1  0.630900  0.867600  0.921100  1.0
  H  H688  1  0.946500  0.709800  0.078900  1.0
  H  H689  1  0.369100  0.132400  0.078900  1.0
  H  H690  1  0.053500  0.290200  0.921100  1.0
  H  H691  1  0.620700  0.682300  0.015000  1.0
  H  H692  1  0.667300  0.605700  0.985000  1.0
  H  H693  1  0.379300  0.317700  0.985000  1.0
  H  H694  1  0.332700  0.394300  0.015000  1.0
  H  H695  1  0.539300  0.583400  0.957100  1.0
  H  H696  1  0.626300  0.582200  0.042900  1.0
  H  H697  1  0.460700  0.416600  0.042900  1.0
  H  H698  1  0.373700  0.417800  0.957100  1.0
  H  H699  1  0.446200  0.596100  0.834500  1.0
  H  H700  1  0.761600  0.611700  0.165500  1.0
  H  H701  1  0.553800  0.403900  0.165500  1.0
  H  H702  1  0.238400  0.388300  0.834500  1.0
  H  H703  1  0.488500  0.566500  0.836400  1.0
  H  H704  1  0.730100  0.652100  0.163600  1.0
  H  H705  1  0.511500  0.433500  0.163600  1.0
  H  H706  1  0.269900  0.347900  0.836400  1.0
  H  H707  1  0.492500  0.493400  0.830300  1.0
  H  H708  1  0.663100  0.662200  0.169700  1.0
  H  H709  1  0.507500  0.506600  0.169700  1.0
  H  H710  1  0.336900  0.337800  0.830300  1.0
  H  H711  1  0.477200  0.400600  0.798000  1.0
  H  H712  1  0.602600  0.679200  0.202000  1.0
  H  H713  1  0.522800  0.599400  0.202000  1.0
  H  H714  1  0.397400  0.320800  0.798000  1.0
  H  H715  1  0.361900  0.641900  0.919200  1.0
  H  H716  1  0.722700  0.442700  0.080800  1.0
  H  H717  1  0.638100  0.358100  0.080800  1.0
  H  H718  1  0.277300  0.557300  0.919200  1.0
  H  H719  1  0.425500  0.623600  0.893100  1.0
  H  H720  1  0.730500  0.532400  0.106900  1.0
  H  H721  1  0.574500  0.376400  0.106900  1.0
  H  H722  1  0.269500  0.467600  0.893100  1.0
  H  H723  1  0.651100  0.795500  0.771000  1.0
  H  H724  1  0.024500  0.880100  0.229000  1.0
  H  H725  1  0.348900  0.204500  0.229000  1.0
  H  H726  1  0.975500  0.119900  0.771000  1.0
  H  H727  1  0.700000  0.741200  0.789600  1.0
  H  H728  1  0.951600  0.910400  0.210400  1.0
  H  H729  1  0.300000  0.258800  0.210400  1.0
  H  H730  1  0.048400  0.089600  0.789600  1.0
  H  H731  1  0.687400  0.688700  0.841500  1.0
  H  H732  1  0.847200  0.845900  0.158500  1.0
  H  H733  1  0.312600  0.311300  0.158500  1.0
  H  H734  1  0.152800  0.154100  0.841500  1.0
  H  H735  1  0.622200  0.693400  0.875400  1.0
  H  H736  1  0.818000  0.746800  0.124600  1.0
  H  H737  1  0.377800  0.306600  0.124600  1.0
  H  H738  1  0.182000  0.253200  0.875400  1.0
  H  H739  1  0.576200  0.832200  0.737400  1.0
  H  H740  1  0.094800  0.838800  0.262600  1.0
  H  H741  1  0.423800  0.167800  0.262600  1.0
  H  H742  1  0.905200  0.161200  0.737400  1.0
  H  H743  1  0.128400  0.766100  0.255500  1.0
  H  H744  1  0.510600  0.872900  0.744500  1.0
  H  H745  1  0.871600  0.233900  0.744500  1.0
  H  H746  1  0.489400  0.127100  0.255500  1.0
  N  N747  1  0.277900  0.249500  0.527400  1
  N  N748  1  0.722100  0.750500  0.472600  1
  N  N749  1  0.078600  0.957300  0.344100  1
  N  N750  1  0.613200  0.734500  0.655900  1
  N  N751  1  0.921400  0.042700  0.655900  1
  N  N752  1  0.386800  0.265500  0.344100  1
  N  N753  1  0.897400  0.898600  0.312800  1
  N  N754  1  0.585800  0.584600  0.687200  1
  N  N755  1  0.102600  0.101400  0.687200  1
  N  N756  1  0.414200  0.415400  0.312800  1
  N  N757  1  0.380260  0.551580  0.379300  1.0
  N  N758  1  0.172280  0.000960  0.620700  1.0
  N  N759  1  0.619740  0.448420  0.620700  1.0
  N  N760  1  0.827720  0.999040  0.379300  1.0
  N  N761  1  0.401470  0.522330  0.507600  1.0
  N  N762  1  0.014730  0.893870  0.492400  1.0
  N  N763  1  0.598530  0.477670  0.492400  1.0
  N  N764  1  0.985270  0.106130  0.507600  1.0
  N  N765  1  0.385000  0.527600  0.460600  1.0
  N  N766  1  0.067000  0.924400  0.539400  1.0
  N  N767  1  0.615000  0.472400  0.539400  1.0
  N  N768  1  0.933000  0.075600  0.460600  1.0
  N  N769  1  0.472600  0.748600  0.880200  1.0
  N  N770  1  0.868400  0.592400  0.119800  1.0
  N  N771  1  0.527400  0.251400  0.119800  1.0
  N  N772  1  0.131600  0.407600  0.880200  1.0
  N  N773  1  0.434800  0.637100  0.757100  1.0
  N  N774  1  0.880000  0.677700  0.242900  1.0
  N  N775  1  0.565200  0.362900  0.242900  1.0
  N  N776  1  0.120000  0.322300  0.757100  1.0
  N  N777  1  0.455800  0.680600  0.800000  1.0
  N  N778  1  0.880600  0.655800  0.200000  1.0
  N  N779  1  0.544200  0.319400  0.200000  1.0
  N  N780  1  0.119400  0.344200  0.800000  1.0
  N  N781  1  0.273510  0.441950  0.341300  1.0
  N  N782  1  0.100650  0.932210  0.658700  1.0
  N  N783  1  0.726490  0.558050  0.658700  1.0
  N  N784  1  0.899350  0.067790  0.341300  1.0
  N  N785  1  0.197080  0.535720  0.281200  1.0
  N  N786  1  0.254520  0.915880  0.718800  1.0
  N  N787  1  0.802920  0.464280  0.718800  1.0
  N  N788  1  0.745480  0.084120  0.281200  1.0
  N  N789  1  0.230500  0.513000  0.306400  1.0
  N  N790  1  0.206600  0.924100  0.693600  1.0
  N  N791  1  0.769500  0.487000  0.693600  1.0
  N  N792  1  0.793400  0.075900  0.306400  1.0
  N  N793  1  0.319220  0.600200  0.421480  1.0
  N  N794  1  0.178720  0.897740  0.578520  1.0
  N  N795  1  0.680780  0.399800  0.578520  1.0
  N  N796  1  0.821280  0.102260  0.421480  1.0
  N  N797  1  0.236380  0.499370  0.407370  1.0
  N  N798  1  0.092000  0.829010  0.592630  1.0
  N  N799  1  0.763620  0.500630  0.592630  1.0
  N  N800  1  0.908000  0.170990  0.407370  1.0
  N  N801  1  0.188260  0.452940  0.399800  1.0
  N  N802  1  0.053140  0.788460  0.600200  1.0
  N  N803  1  0.811740  0.547060  0.600200  1.0
  N  N804  1  0.946860  0.211540  0.399800  1.0
  N  N805  1  0.605970  0.792980  0.934730  1.0
  N  N806  1  0.858250  0.671240  0.065270  1.0
  N  N807  1  0.394030  0.207020  0.065270  1.0
  N  N808  1  0.141750  0.328760  0.934730  1.0
  N  N809  1  0.516600  0.621400  0.902200  1.0
  N  N810  1  0.719200  0.614400  0.097800  1.0
  N  N811  1  0.483400  0.378600  0.097800  1.0
  N  N812  1  0.280800  0.385600  0.902200  1.0
  N  N813  1  0.542000  0.678800  0.906600  1.0
  N  N814  1  0.772200  0.635400  0.093400  1.0
  N  N815  1  0.458000  0.321200  0.093400  1.0
  N  N816  1  0.227800  0.364600  0.906600  1.0
  N  N817  1  0.593210  0.741990  0.838600  1.0
  N  N818  1  0.903390  0.754610  0.161400  1.0
  N  N819  1  0.406790  0.258010  0.161400  1.0
  N  N820  1  0.096610  0.245390  0.838600  1.0
  N  N821  1  0.037700  0.712400  0.200700  1.0
  N  N822  1  0.511700  0.837000  0.799300  1.0
  N  N823  1  0.962300  0.287600  0.799300  1.0
  N  N824  1  0.488300  0.163000  0.200700  1.0
  N  N825  1  0.538600  0.807400  0.821000  1.0
  N  N826  1  0.986400  0.717600  0.179000  1.0
  N  N827  1  0.461400  0.192600  0.179000  1.0
  N  N828  1  0.013600  0.282400  0.821000  1.0
  O  O829  1  0.315500  0.254800  0.570300  1
  O  O830  1  0.684500  0.745200  0.429700  1
  O  O831  1  0.269100  0.218000  0.487100  1
  O  O832  1  0.730900  0.782000  0.512900  1
  O  O833  1  0.099760  0.927440  0.328200  1
  O  O834  1  0.599240  0.771560  0.671800  1
  O  O835  1  0.900240  0.072560  0.671800  1
  O  O836  1  0.400760  0.228440  0.328200  1
  O  O837  1  0.045200  0.974500  0.313500  1
  O  O838  1  0.661000  0.731700  0.686500  1
  O  O839  1  0.954800  0.025500  0.686500  1
  O  O840  1  0.339000  0.268300  0.313500  1
  O  O841  1  0.913150  0.925450  0.355000  1
  O  O842  1  0.570450  0.558150  0.645000  1
  O  O843  1  0.086850  0.074550  0.645000  1
  O  O844  1  0.429550  0.441850  0.355000  1
  O  O845  1  0.927860  0.876540  0.302000  1
  O  O846  1  0.574540  0.625860  0.698000  1
  O  O847  1  0.072140  0.123460  0.698000  1
  O  O848  1  0.425460  0.374140  0.302000  1
