# generated using pymatgen
data_Ni4B6H141C171N36(OF8)3
_symmetry_space_group_name_H-M   'P 1'
_cell_length_a   22.16632246
_cell_length_b   22.16632246
_cell_length_c   39.86840000
_cell_angle_alpha   84.78146934
_cell_angle_beta   84.78146934
_cell_angle_gamma   83.65359074
_symmetry_Int_Tables_number   1
_chemical_formula_structural   Ni4B6H141C171N36(OF8)3
_chemical_formula_sum   'Ni16 B24 H564 C684 N144 O12 F96'
_cell_volume   19323.54970602
_cell_formula_units_Z   4
loop_
 _symmetry_equiv_pos_site_id
 _symmetry_equiv_pos_as_xyz
  1  'x, y, z'
loop_
 _atom_site_type_symbol
 _atom_site_label
 _atom_site_symmetry_multiplicity
 _atom_site_fract_x
 _atom_site_fract_y
 _atom_site_fract_z
 _atom_site_occupancy
  B  B1  1  0.436710  0.968510  0.806480  1
  B  B2  1  0.031490  0.563290  0.693520  1
  B  B3  1  0.563290  0.031490  0.193520  1
  B  B4  1  0.968510  0.436710  0.306480  1
  B  B5  1  0.077770  0.627390  0.838850  1
  B  B6  1  0.372610  0.922230  0.661150  1
  B  B7  1  0.922230  0.372610  0.161150  1
  B  B8  1  0.627390  0.077770  0.338850  1
  B  B9  1  0.794330  0.473850  0.952410  1
  B  B10  1  0.526150  0.205670  0.547590  1
  B  B11  1  0.205670  0.526150  0.047590  1
  B  B12  1  0.473850  0.794330  0.452410  1
  B  B13  1  0.127750  0.223370  0.934600  1
  B  B14  1  0.776630  0.872250  0.565400  1
  B  B15  1  0.872250  0.776630  0.065400  1
  B  B16  1  0.223370  0.127750  0.434600  1
  B  B17  1  0.834680  0.736580  0.711300  1
  B  B18  1  0.263420  0.165320  0.788700  1
  B  B19  1  0.165320  0.263420  0.288700  1
  B  B20  1  0.736580  0.834680  0.211300  1
  B  B21  1  0.052550  0.926830  0.349010  1
  B  B22  1  0.073170  0.947450  0.150990  1
  B  B23  1  0.947450  0.073170  0.650990  1
  B  B24  1  0.926830  0.052550  0.849010  1
  C  C25  1  0.099200  0.404600  0.979500  1
  C  C26  1  0.595400  0.900800  0.520500  1
  C  C27  1  0.900800  0.595400  0.020500  1
  C  C28  1  0.404600  0.099200  0.479500  1
  C  C29  1  0.505100  0.592100  0.818900  1
  C  C30  1  0.407900  0.494900  0.681100  1
  C  C31  1  0.494900  0.407900  0.181100  1
  C  C32  1  0.592100  0.505100  0.318900  1
  C  C33  1  0.936800  0.420000  0.000700  1
  C  C34  1  0.580000  0.063200  0.499300  1
  C  C35  1  0.063200  0.580000  0.999300  1
  C  C36  1  0.420000  0.936800  0.500700  1
  C  C37  1  0.188330  0.889590  0.029610  1.0
  C  C38  1  0.110410  0.811670  0.470390  1.0
  C  C39  1  0.811670  0.110410  0.970390  1.0
  C  C40  1  0.889590  0.188330  0.529610  1.0
  C  C41  1  0.213850  0.907590  0.057760  1.0
  C  C42  1  0.092410  0.786150  0.442240  1.0
  C  C43  1  0.786150  0.092410  0.942240  1.0
  C  C44  1  0.907590  0.213850  0.557760  1.0
  C  C45  1  0.274500  0.916140  0.055010  1.0
  C  C46  1  0.083860  0.725500  0.444990  1.0
  C  C47  1  0.725500  0.083860  0.944990  1.0
  C  C48  1  0.916140  0.274500  0.555010  1.0
  C  C49  1  0.308180  0.908780  0.024700  1.0
  C  C50  1  0.091220  0.691820  0.475300  1.0
  C  C51  1  0.691820  0.091220  0.975300  1.0
  C  C52  1  0.908780  0.308180  0.524700  1.0
  C  C53  1  0.279510  0.894250  0.997150  1.0
  C  C54  1  0.105750  0.720490  0.502850  1.0
  C  C55  1  0.720490  0.105750  0.002850  1.0
  C  C56  1  0.894250  0.279510  0.497150  1.0
  C  C57  1  0.127290  0.871930  0.031560  1.0
  C  C58  1  0.128070  0.872710  0.468440  1.0
  C  C59  1  0.872710  0.128070  0.968440  1.0
  C  C60  1  0.871930  0.127290  0.531560  1.0
  C  C61  1  0.080660  0.871820  0.057810  1.0
  C  C62  1  0.128180  0.919340  0.442190  1.0
  C  C63  1  0.919340  0.128180  0.942190  1.0
  C  C64  1  0.871820  0.080660  0.557810  1.0
  C  C65  1  0.035860  0.844000  0.046220  1.0
  C  C66  1  0.156000  0.964140  0.453780  1.0
  C  C67  1  0.964140  0.156000  0.953780  1.0
  C  C68  1  0.844000  0.035860  0.546220  1.0
  C  C69  1  0.022230  0.800010  0.991800  1.0
  C  C70  1  0.199990  0.977770  0.508200  1.0
  C  C71  1  0.977770  0.199990  0.008200  1.0
  C  C72  1  0.800010  0.022230  0.491800  1.0
  C  C73  1  0.730670  0.759610  0.821500  1.0
  C  C74  1  0.240390  0.269330  0.678500  1.0
  C  C75  1  0.269330  0.240390  0.178500  1.0
  C  C76  1  0.759610  0.730670  0.321500  1.0
  C  C77  1  0.723980  0.723640  0.795710  1.0
  C  C78  1  0.276360  0.276020  0.704290  1.0
  C  C79  1  0.276020  0.276360  0.204290  1.0
  C  C80  1  0.723640  0.723980  0.295710  1.0
  C  C81  1  0.670840  0.695840  0.796310  1.0
  C  C82  1  0.304160  0.329160  0.703690  1.0
  C  C83  1  0.329160  0.304160  0.203690  1.0
  C  C84  1  0.695840  0.670840  0.296310  1.0
  C  C85  1  0.625890  0.705250  0.822150  1.0
  C  C86  1  0.294750  0.374110  0.677850  1.0
  C  C87  1  0.374110  0.294750  0.177850  1.0
  C  C88  1  0.705250  0.625890  0.322150  1.0
  C  C89  1  0.636130  0.741430  0.847060  1.0
  C  C90  1  0.258570  0.363870  0.652940  1.0
  C  C91  1  0.363870  0.258570  0.152940  1.0
  C  C92  1  0.741430  0.636130  0.347060  1.0
  C  C93  1  0.783790  0.792810  0.822370  1.0
  C  C94  1  0.207190  0.216210  0.677630  1.0
  C  C95  1  0.216210  0.207190  0.177630  1.0
  C  C96  1  0.792810  0.783790  0.322370  1.0
  C  C97  1  0.831190  0.803530  0.797470  1.0
  C  C98  1  0.196470  0.168810  0.702530  1.0
  C  C99  1  0.168810  0.196470  0.202530  1.0
  C  C100  1  0.803530  0.831190  0.297470  1.0
  C  C101  1  0.864550  0.841350  0.812030  1.0
  C  C102  1  0.158650  0.135450  0.687970  1.0
  C  C103  1  0.135450  0.158650  0.187970  1.0
  C  C104  1  0.841350  0.864550  0.312030  1.0
  C  C105  1  0.861830  0.883230  0.869080  1.0
  C  C106  1  0.116770  0.138170  0.630920  1.0
  C  C107  1  0.138170  0.116770  0.130920  1.0
  C  C108  1  0.883230  0.861830  0.369080  1.0
  C  C109  1  0.983380  0.845120  0.969550  1.0
  C  C110  1  0.154880  0.016620  0.530450  1.0
  C  C111  1  0.016620  0.154880  0.030450  1.0
  C  C112  1  0.845120  0.983380  0.469550  1.0
  C  C113  1  0.973580  0.905520  0.974600  1.0
  C  C114  1  0.094480  0.026420  0.525400  1.0
  C  C115  1  0.026420  0.094480  0.025400  1.0
  C  C116  1  0.905520  0.973580  0.474600  1.0
  C  C117  1  0.937910  0.946390  0.952900  1.0
  C  C118  1  0.053610  0.062090  0.547100  1.0
  C  C119  1  0.062090  0.053610  0.047100  1.0
  C  C120  1  0.946390  0.937910  0.452900  1.0
  C  C121  1  0.913000  0.926100  0.926930  1.0
  C  C122  1  0.073900  0.087000  0.573070  1.0
  C  C123  1  0.087000  0.073900  0.073070  1.0
  C  C124  1  0.926100  0.913000  0.426930  1.0
  C  C125  1  0.922790  0.862750  0.920280  1.0
  C  C126  1  0.137250  0.077210  0.579720  1.0
  C  C127  1  0.077210  0.137250  0.079720  1.0
  C  C128  1  0.862750  0.922790  0.420280  1.0
  C  C129  1  0.957730  0.822010  0.942690  1.0
  C  C130  1  0.177990  0.042270  0.557310  1.0
  C  C131  1  0.042270  0.177990  0.057310  1.0
  C  C132  1  0.822010  0.957730  0.442690  1.0
  C  C133  1  0.900170  0.840510  0.892540  1.0
  C  C134  1  0.159490  0.099830  0.607460  1.0
  C  C135  1  0.099830  0.159490  0.107460  1.0
  C  C136  1  0.840510  0.900170  0.392540  1.0
  C  C137  1  0.914520  0.779500  0.886170  1.0
  C  C138  1  0.220500  0.085480  0.613830  1.0
  C  C139  1  0.085480  0.220500  0.113830  1.0
  C  C140  1  0.779500  0.914520  0.386170  1.0
  C  C141  1  0.947100  0.739360  0.908280  1.0
  C  C142  1  0.260640  0.052900  0.591720  1.0
  C  C143  1  0.052900  0.260640  0.091720  1.0
  C  C144  1  0.739360  0.947100  0.408280  1.0
  C  C145  1  0.967590  0.759210  0.936250  1.0
  C  C146  1  0.240790  0.032410  0.563750  1.0
  C  C147  1  0.032410  0.240790  0.063750  1.0
  C  C148  1  0.759210  0.967590  0.436250  1.0
  C  C149  1  0.095940  0.945480  0.921410  1.0
  C  C150  1  0.054520  0.904060  0.578590  1.0
  C  C151  1  0.904060  0.054520  0.078590  1.0
  C  C152  1  0.945480  0.095940  0.421410  1.0
  C  C153  1  0.069630  0.000470  0.907260  1.0
  C  C154  1  0.999530  0.930370  0.592740  1.0
  C  C155  1  0.930370  0.999530  0.092740  1.0
  C  C156  1  0.000470  0.069630  0.407260  1.0
  C  C157  1  0.078100  0.053580  0.921190  1.0
  C  C158  1  0.946420  0.921900  0.578810  1.0
  C  C159  1  0.921900  0.946420  0.078810  1.0
  C  C160  1  0.053580  0.078100  0.421190  1.0
  C  C161  1  0.111480  0.049740  0.948870  1.0
  C  C162  1  0.950260  0.888520  0.551130  1.0
  C  C163  1  0.888520  0.950260  0.051130  1.0
  C  C164  1  0.049740  0.111480  0.448870  1.0
  C  C165  1  0.136580  0.993200  0.961800  1.0
  C  C166  1  0.006800  0.863420  0.538200  1.0
  C  C167  1  0.863420  0.006800  0.038200  1.0
  C  C168  1  0.993200  0.136580  0.461800  1.0
  C  C169  1  0.090930  0.887450  0.907340  1.0
  C  C170  1  0.112550  0.909070  0.592660  1.0
  C  C171  1  0.909070  0.112550  0.092660  1.0
  C  C172  1  0.887450  0.090930  0.407340  1.0
  C  C173  1  0.062480  0.875320  0.879000  1.0
  C  C174  1  0.124680  0.937520  0.621000  1.0
  C  C175  1  0.937520  0.124680  0.121000  1.0
  C  C176  1  0.875320  0.062480  0.379000  1.0
  C  C177  1  0.072180  0.813440  0.878180  1.0
  C  C178  1  0.186560  0.927820  0.621820  1.0
  C  C179  1  0.927820  0.186560  0.121820  1.0
  C  C180  1  0.813440  0.072180  0.378180  1.0
  C  C181  1  0.126960  0.727860  0.912780  1.0
  C  C182  1  0.272140  0.873040  0.587220  1.0
  C  C183  1  0.873040  0.272140  0.087220  1.0
  C  C184  1  0.727860  0.126960  0.412780  1.0
  C  C185  1  0.437150  0.351090  0.921840  1.0
  C  C186  1  0.648910  0.562850  0.578160  1.0
  C  C187  1  0.562850  0.648910  0.078160  1.0
  C  C188  1  0.351090  0.437150  0.421840  1.0
  C  C189  1  0.462700  0.306120  0.944530  1.0
  C  C190  1  0.693880  0.537300  0.555470  1.0
  C  C191  1  0.537300  0.693880  0.055470  1.0
  C  C192  1  0.306120  0.462700  0.444530  1.0
  C  C193  1  0.470360  0.245800  0.935870  1.0
  C  C194  1  0.754200  0.529640  0.564130  1.0
  C  C195  1  0.529640  0.754200  0.064130  1.0
  C  C196  1  0.245800  0.470360  0.435870  1.0
  C  C197  1  0.453200  0.232800  0.905510  1.0
  C  C198  1  0.767200  0.546800  0.594490  1.0
  C  C199  1  0.546800  0.767200  0.094490  1.0
  C  C200  1  0.232800  0.453200  0.405510  1.0
  C  C201  1  0.427230  0.280650  0.883810  1.0
  C  C202  1  0.719350  0.572770  0.616190  1.0
  C  C203  1  0.572770  0.719350  0.116190  1.0
  C  C204  1  0.280650  0.427230  0.383810  1.0
  C  C205  1  0.429240  0.414600  0.928470  1.0
  C  C206  1  0.585400  0.570760  0.571530  1.0
  C  C207  1  0.570760  0.585400  0.071530  1.0
  C  C208  1  0.414600  0.429240  0.428470  1.0
  C  C209  1  0.448910  0.444450  0.954250  1.0
  C  C210  1  0.555550  0.551090  0.545750  1.0
  C  C211  1  0.551090  0.555550  0.045750  1.0
  C  C212  1  0.444450  0.448910  0.454250  1.0
  C  C213  1  0.434060  0.505640  0.945750  1.0
  C  C214  1  0.494360  0.565940  0.554250  1.0
  C  C215  1  0.565940  0.494360  0.054250  1.0
  C  C216  1  0.505640  0.434060  0.445750  1.0
  C  C217  1  0.380200  0.566180  0.899290  1.0
  C  C218  1  0.433820  0.619800  0.600710  1.0
  C  C219  1  0.619800  0.433820  0.100710  1.0
  C  C220  1  0.566180  0.380200  0.399290  1.0
  C  C221  1  0.190010  0.709670  0.896970  1.0
  C  C222  1  0.290330  0.809990  0.603030  1.0
  C  C223  1  0.809990  0.290330  0.103030  1.0
  C  C224  1  0.709670  0.190010  0.396970  1.0
  C  C225  1  0.218180  0.746180  0.872470  1.0
  C  C226  1  0.253820  0.781820  0.627530  1.0
  C  C227  1  0.781820  0.253820  0.127530  1.0
  C  C228  1  0.746180  0.218180  0.372470  1.0
  C  C229  1  0.277640  0.728820  0.858950  1.0
  C  C230  1  0.271180  0.722360  0.641050  1.0
  C  C231  1  0.722360  0.271180  0.141050  1.0
  C  C232  1  0.728820  0.277640  0.358950  1.0
  C  C233  1  0.309770  0.675070  0.870800  1.0
  C  C234  1  0.324930  0.690230  0.629200  1.0
  C  C235  1  0.690230  0.324930  0.129200  1.0
  C  C236  1  0.675070  0.309770  0.370800  1.0
  C  C237  1  0.281900  0.636220  0.896550  1.0
  C  C238  1  0.363780  0.718100  0.603450  1.0
  C  C239  1  0.718100  0.363780  0.103450  1.0
  C  C240  1  0.636220  0.281900  0.396550  1.0
  C  C241  1  0.219650  0.652770  0.908750  1.0
  C  C242  1  0.347230  0.780350  0.591250  1.0
  C  C243  1  0.780350  0.347230  0.091250  1.0
  C  C244  1  0.652770  0.219650  0.408750  1.0
  C  C245  1  0.313380  0.582400  0.910690  1.0
  C  C246  1  0.417600  0.686620  0.589310  1.0
  C  C247  1  0.686620  0.417600  0.089310  1.0
  C  C248  1  0.582400  0.313380  0.410690  1.0
  C  C249  1  0.284500  0.545720  0.935420  1.0
  C  C250  1  0.454280  0.715500  0.564580  1.0
  C  C251  1  0.715500  0.454280  0.064580  1.0
  C  C252  1  0.545720  0.284500  0.435420  1.0
  C  C253  1  0.222400  0.560140  0.946210  1.0
  C  C254  1  0.439860  0.777600  0.553790  1.0
  C  C255  1  0.777600  0.439860  0.053790  1.0
  C  C256  1  0.560140  0.222400  0.446210  1.0
  C  C257  1  0.191170  0.612850  0.933500  1.0
  C  C258  1  0.387150  0.808830  0.566500  1.0
  C  C259  1  0.808830  0.387150  0.066500  1.0
  C  C260  1  0.612850  0.191170  0.433500  1.0
  C  C261  1  0.945170  0.681610  0.240610  1.0
  C  C262  1  0.318390  0.054830  0.259390  1.0
  C  C263  1  0.054830  0.318390  0.759390  1.0
  C  C264  1  0.681610  0.945170  0.740610  1.0
  C  C265  1  0.885260  0.683160  0.254840  1.0
  C  C266  1  0.316840  0.114740  0.245160  1.0
  C  C267  1  0.114740  0.316840  0.745160  1.0
  C  C268  1  0.683160  0.885260  0.754840  1.0
  C  C269  1  0.869490  0.636390  0.277950  1.0
  C  C270  1  0.363610  0.130510  0.222050  1.0
  C  C271  1  0.130510  0.363610  0.722050  1.0
  C  C272  1  0.636390  0.869490  0.777950  1.0
  C  C273  1  0.912990  0.590530  0.287350  1.0
  C  C274  1  0.409470  0.087010  0.212650  1.0
  C  C275  1  0.087010  0.409470  0.712650  1.0
  C  C276  1  0.590530  0.912990  0.787350  1.0
  C  C277  1  0.972370  0.591930  0.272500  1.0
  C  C278  1  0.408070  0.027630  0.227500  1.0
  C  C279  1  0.027630  0.408070  0.727500  1.0
  C  C280  1  0.591930  0.972370  0.772500  1.0
  C  C281  1  0.291480  0.821160  0.924280  1.0
  C  C282  1  0.178840  0.708520  0.575720  1.0
  C  C283  1  0.708520  0.178840  0.075720  1.0
  C  C284  1  0.821160  0.291480  0.424280  1.0
  C  C285  1  0.344370  0.824070  0.903060  1.0
  C  C286  1  0.175930  0.655630  0.596940  1.0
  C  C287  1  0.655630  0.175930  0.096940  1.0
  C  C288  1  0.824070  0.344370  0.403060  1.0
  C  C289  1  0.349420  0.874880  0.880400  1.0
  C  C290  1  0.125120  0.650580  0.619600  1.0
  C  C291  1  0.650580  0.125120  0.119600  1.0
  C  C292  1  0.874880  0.349420  0.380400  1.0
  C  C293  1  0.302590  0.921230  0.879780  1.0
  C  C294  1  0.078770  0.697410  0.620220  1.0
  C  C295  1  0.697410  0.078770  0.120220  1.0
  C  C296  1  0.921230  0.302590  0.379780  1.0
  C  C297  1  0.251250  0.915390  0.902190  1.0
  C  C298  1  0.084610  0.748750  0.597810  1.0
  C  C299  1  0.748750  0.084610  0.097810  1.0
  C  C300  1  0.915390  0.251250  0.402190  1.0
  C  C301  1  0.280710  0.768150  0.948200  1.0
  C  C302  1  0.231850  0.719290  0.551800  1.0
  C  C303  1  0.719290  0.231850  0.051800  1.0
  C  C304  1  0.768150  0.280710  0.448200  1.0
  C  C305  1  0.318370  0.715130  0.955710  1.0
  C  C306  1  0.284870  0.681630  0.544290  1.0
  C  C307  1  0.681630  0.284870  0.044290  1.0
  C  C308  1  0.715130  0.318370  0.455710  1.0
  C  C309  1  0.283690  0.681450  0.979400  1.0
  C  C310  1  0.318550  0.716310  0.520600  1.0
  C  C311  1  0.716310  0.318550  0.020600  1.0
  C  C312  1  0.681450  0.283690  0.479400  1.0
  C  C313  1  0.180760  0.699140  0.009810  1.0
  C  C314  1  0.300860  0.819240  0.490190  1.0
  C  C315  1  0.819240  0.300860  0.990190  1.0
  C  C316  1  0.699140  0.180760  0.509810  1.0
  C  C317  1  0.966150  0.727450  0.215100  1.0
  C  C318  1  0.272550  0.033850  0.284900  1.0
  C  C319  1  0.033850  0.272550  0.784900  1.0
  C  C320  1  0.727450  0.966150  0.715100  1.0
  C  C321  1  0.939260  0.784580  0.203830  1.0
  C  C322  1  0.215420  0.060740  0.296170  1.0
  C  C323  1  0.060740  0.215420  0.796170  1.0
  C  C324  1  0.784580  0.939260  0.703830  1.0
  C  C325  1  0.982020  0.808420  0.180850  1.0
  C  C326  1  0.191580  0.017980  0.319150  1.0
  C  C327  1  0.017980  0.191580  0.819150  1.0
  C  C328  1  0.808420  0.982020  0.680850  1.0
  C  C329  1  0.086250  0.772370  0.156950  1.0
  C  C330  1  0.227630  0.913750  0.343050  1.0
  C  C331  1  0.913750  0.227630  0.843050  1.0
  C  C332  1  0.772370  0.086250  0.656950  1.0
  C  C333  1  0.185450  0.720990  0.044130  1.0
  C  C334  1  0.279010  0.814550  0.455870  1.0
  C  C335  1  0.814550  0.279010  0.955870  1.0
  C  C336  1  0.720990  0.185450  0.544130  1.0
  C  C337  1  0.237550  0.742790  0.051910  1.0
  C  C338  1  0.257210  0.762450  0.448090  1.0
  C  C339  1  0.762450  0.257210  0.948090  1.0
  C  C340  1  0.742790  0.237550  0.551910  1.0
  C  C341  1  0.241050  0.765090  0.083610  1.0
  C  C342  1  0.234910  0.758950  0.416390  1.0
  C  C343  1  0.758950  0.234910  0.916390  1.0
  C  C344  1  0.765090  0.241050  0.583610  1.0
  C  C345  1  0.191330  0.766250  0.106950  1.0
  C  C346  1  0.233750  0.808670  0.393050  1.0
  C  C347  1  0.808670  0.233750  0.893050  1.0
  C  C348  1  0.766250  0.191330  0.606950  1.0
  C  C349  1  0.137200  0.742960  0.100260  1.0
  C  C350  1  0.257040  0.862800  0.399740  1.0
  C  C351  1  0.862800  0.257040  0.899740  1.0
  C  C352  1  0.742960  0.137200  0.600260  1.0
  C  C353  1  0.134830  0.718950  0.068360  1.0
  C  C354  1  0.281050  0.865170  0.431640  1.0
  C  C355  1  0.865170  0.281050  0.931640  1.0
  C  C356  1  0.718950  0.134830  0.568360  1.0
  C  C357  1  0.084300  0.743860  0.123660  1.0
  C  C358  1  0.256140  0.915700  0.376340  1.0
  C  C359  1  0.915700  0.256140  0.876340  1.0
  C  C360  1  0.743860  0.084300  0.623660  1.0
  C  C361  1  0.032670  0.722410  0.115350  1.0
  C  C362  1  0.277590  0.967330  0.384650  1.0
  C  C363  1  0.967330  0.277590  0.884650  1.0
  C  C364  1  0.722410  0.032670  0.615350  1.0
  C  C365  1  0.031190  0.696490  0.084530  1.0
  C  C366  1  0.303510  0.968810  0.415470  1.0
  C  C367  1  0.968810  0.303510  0.915470  1.0
  C  C368  1  0.696490  0.031190  0.584530  1.0
  C  C369  1  0.080320  0.694440  0.061630  1.0
  C  C370  1  0.305560  0.919680  0.438370  1.0
  C  C371  1  0.919680  0.305560  0.938370  1.0
  C  C372  1  0.694440  0.080320  0.561630  1.0
  C  C373  1  0.227310  0.186170  0.051340  1.0
  C  C374  1  0.813830  0.772690  0.448660  1.0
  C  C375  1  0.772690  0.813830  0.948660  1.0
  C  C376  1  0.186170  0.227310  0.551340  1.0
  C  C377  1  0.206450  0.168250  0.021970  1.0
  C  C378  1  0.831750  0.793550  0.478030  1.0
  C  C379  1  0.793550  0.831750  0.978030  1.0
  C  C380  1  0.168250  0.206450  0.521970  1.0
  C  C381  1  0.219470  0.111270  0.013780  1.0
  C  C382  1  0.888730  0.780530  0.486220  1.0
  C  C383  1  0.780530  0.888730  0.986220  1.0
  C  C384  1  0.111270  0.219470  0.513780  1.0
  C  C385  1  0.254310  0.071110  0.034440  1.0
  C  C386  1  0.928890  0.745690  0.465560  1.0
  C  C387  1  0.745690  0.928890  0.965560  1.0
  C  C388  1  0.071110  0.254310  0.534440  1.0
  C  C389  1  0.271100  0.089900  0.064090  1.0
  C  C390  1  0.910100  0.728900  0.435910  1.0
  C  C391  1  0.728900  0.910100  0.935910  1.0
  C  C392  1  0.089900  0.271100  0.564090  1.0
  C  C393  1  0.219000  0.249000  0.059520  1.0
  C  C394  1  0.751000  0.781000  0.440480  1.0
  C  C395  1  0.781000  0.751000  0.940480  1.0
  C  C396  1  0.249000  0.219000  0.559520  1.0
  C  C397  1  0.189530  0.300630  0.043010  1.0
  C  C398  1  0.699370  0.810470  0.456990  1.0
  C  C399  1  0.810470  0.699370  0.956990  1.0
  C  C400  1  0.300630  0.189530  0.543010  1.0
  C  C401  1  0.200760  0.348240  0.059840  1.0
  C  C402  1  0.651760  0.799240  0.440160  1.0
  C  C403  1  0.799240  0.651760  0.940160  1.0
  C  C404  1  0.348240  0.200760  0.559840  1.0
  C  C405  1  0.251580  0.361020  0.111670  1.0
  C  C406  1  0.638980  0.748420  0.388330  1.0
  C  C407  1  0.748420  0.638980  0.888330  1.0
  C  C408  1  0.361020  0.251580  0.611670  1.0
  C  C409  1  0.201220  0.371420  0.139060  1.0
  C  C410  1  0.628580  0.798780  0.360940  1.0
  C  C411  1  0.798780  0.628580  0.860940  1.0
  C  C412  1  0.371420  0.201220  0.639060  1.0
  C  C413  1  0.148110  0.345630  0.139770  1.0
  C  C414  1  0.654370  0.851890  0.360230  1.0
  C  C415  1  0.851890  0.654370  0.860230  1.0
  C  C416  1  0.345630  0.148110  0.639770  1.0
  C  C417  1  0.100590  0.354750  0.165590  1.0
  C  C418  1  0.645250  0.899410  0.334410  1.0
  C  C419  1  0.899410  0.645250  0.834410  1.0
  C  C420  1  0.354750  0.100590  0.665590  1.0
  C  C421  1  0.106930  0.391590  0.190250  1.0
  C  C422  1  0.608410  0.893070  0.309750  1.0
  C  C423  1  0.893070  0.608410  0.809750  1.0
  C  C424  1  0.391590  0.106930  0.690250  1.0
  C  C425  1  0.160130  0.421510  0.190470  1.0
  C  C426  1  0.578490  0.839870  0.309530  1.0
  C  C427  1  0.839870  0.578490  0.809530  1.0
  C  C428  1  0.421510  0.160130  0.690470  1.0
  C  C429  1  0.208100  0.410780  0.164550  1.0
  C  C430  1  0.589220  0.791900  0.335450  1.0
  C  C431  1  0.791900  0.589220  0.835450  1.0
  C  C432  1  0.410780  0.208100  0.664550  1.0
  C  C433  1  0.167080  0.462060  0.215310  1.0
  C  C434  1  0.537940  0.832920  0.284690  1.0
  C  C435  1  0.832920  0.537940  0.784690  1.0
  C  C436  1  0.462060  0.167080  0.715310  1.0
  C  C437  1  0.219080  0.490640  0.214220  1.0
  C  C438  1  0.509360  0.780920  0.285780  1.0
  C  C439  1  0.780920  0.509360  0.785780  1.0
  C  C440  1  0.490640  0.219080  0.714220  1.0
  C  C441  1  0.267040  0.478480  0.189040  1.0
  C  C442  1  0.521520  0.732960  0.310960  1.0
  C  C443  1  0.732960  0.521520  0.810960  1.0
  C  C444  1  0.478480  0.267040  0.689040  1.0
  C  C445  1  0.262140  0.440140  0.164870  1.0
  C  C446  1  0.559860  0.737860  0.335130  1.0
  C  C447  1  0.737860  0.559860  0.835130  1.0
  C  C448  1  0.440140  0.262140  0.664870  1.0
  C  C449  1  0.383450  0.083190  0.125850  1.0
  C  C450  1  0.916810  0.616550  0.374150  1.0
  C  C451  1  0.616550  0.916810  0.874150  1.0
  C  C452  1  0.083190  0.383450  0.625850  1.0
  C  C453  1  0.414320  0.026680  0.134230  1.0
  C  C454  1  0.973320  0.585680  0.365770  1.0
  C  C455  1  0.585680  0.973320  0.865770  1.0
  C  C456  1  0.026680  0.414320  0.634230  1.0
  C  C457  1  0.378100  0.983300  0.153580  1.0
  C  C458  1  0.016700  0.621900  0.346420  1.0
  C  C459  1  0.621900  0.016700  0.846420  1.0
  C  C460  1  0.983300  0.378100  0.653580  1.0
  C  C461  1  0.319760  0.999640  0.164420  1.0
  C  C462  1  0.000360  0.680240  0.335580  1.0
  C  C463  1  0.680240  0.000360  0.835580  1.0
  C  C464  1  0.999640  0.319760  0.664420  1.0
  C  C465  1  0.293550  0.057950  0.155210  1.0
  C  C466  1  0.942050  0.706450  0.344790  1.0
  C  C467  1  0.706450  0.942050  0.844790  1.0
  C  C468  1  0.057950  0.293550  0.655210  1.0
  C  C469  1  0.413850  0.129710  0.103830  1.0
  C  C470  1  0.870290  0.586150  0.396170  1.0
  C  C471  1  0.586150  0.870290  0.896170  1.0
  C  C472  1  0.129710  0.413850  0.603830  1.0
  C  C473  1  0.474400  0.134800  0.092960  1.0
  C  C474  1  0.865200  0.525600  0.407040  1.0
  C  C475  1  0.525600  0.865200  0.907040  1.0
  C  C476  1  0.134800  0.474400  0.592960  1.0
  C  C477  1  0.473700  0.187100  0.072220  1.0
  C  C478  1  0.812900  0.526300  0.427780  1.0
  C  C479  1  0.526300  0.812900  0.927780  1.0
  C  C480  1  0.187100  0.473700  0.572220  1.0
  C  C481  1  0.392460  0.267020  0.052220  1.0
  C  C482  1  0.732980  0.607540  0.447780  1.0
  C  C483  1  0.607540  0.732980  0.947780  1.0
  C  C484  1  0.267020  0.392460  0.552220  1.0
  C  C485  1  0.368010  0.250890  0.020560  1.0
  C  C486  1  0.749110  0.631990  0.479440  1.0
  C  C487  1  0.631990  0.749110  0.979440  1.0
  C  C488  1  0.250890  0.368010  0.520560  1.0
  C  C489  1  0.375340  0.192940  0.010370  1.0
  C  C490  1  0.807060  0.624660  0.489630  1.0
  C  C491  1  0.624660  0.807060  0.989630  1.0
  C  C492  1  0.192940  0.375340  0.510370  1.0
  C  C493  1  0.353010  0.179570  0.980490  1.0
  C  C494  1  0.820430  0.646990  0.519510  1.0
  C  C495  1  0.646990  0.820430  0.019510  1.0
  C  C496  1  0.179570  0.353010  0.480490  1.0
  C  C497  1  0.324180  0.224440  0.960030  1.0
  C  C498  1  0.775560  0.675820  0.539970  1.0
  C  C499  1  0.675820  0.775560  0.039970  1.0
  C  C500  1  0.224440  0.324180  0.460030  1.0
  C  C501  1  0.338150  0.298830  0.999770  1.0
  C  C502  1  0.701170  0.661850  0.500230  1.0
  C  C503  1  0.661850  0.701170  0.000230  1.0
  C  C504  1  0.298830  0.338150  0.499770  1.0
  C  C505  1  0.298320  0.404700  0.989780  1.0
  C  C506  1  0.595300  0.701680  0.510220  1.0
  C  C507  1  0.701680  0.595300  0.010220  1.0
  C  C508  1  0.404700  0.298320  0.489780  1.0
  C  C509  1  0.329080  0.359840  0.009610  1.0
  C  C510  1  0.640160  0.670920  0.490390  1.0
  C  C511  1  0.670920  0.640160  0.990390  1.0
  C  C512  1  0.359840  0.329080  0.509610  1.0
  C  C513  1  0.498920  0.395880  0.816360  1.0
  C  C514  1  0.604120  0.501080  0.683640  1.0
  C  C515  1  0.501080  0.604120  0.183640  1.0
  C  C516  1  0.395880  0.498920  0.316360  1.0
  C  C517  1  0.558470  0.394910  0.802460  1.0
  C  C518  1  0.605090  0.441530  0.697540  1.0
  C  C519  1  0.441530  0.605090  0.197540  1.0
  C  C520  1  0.394910  0.558470  0.302460  1.0
  C  C521  1  0.599350  0.424790  0.817690  1.0
  C  C522  1  0.575210  0.400650  0.682310  1.0
  C  C523  1  0.400650  0.575210  0.182310  1.0
  C  C524  1  0.424790  0.599350  0.317690  1.0
  C  C525  1  0.579030  0.455610  0.845860  1.0
  C  C526  1  0.544390  0.420970  0.654140  1.0
  C  C527  1  0.420970  0.544390  0.154140  1.0
  C  C528  1  0.455610  0.579030  0.345860  1.0
  C  C529  1  0.517600  0.456520  0.857340  1.0
  C  C530  1  0.543480  0.482400  0.642660  1.0
  C  C531  1  0.482400  0.543480  0.142660  1.0
  C  C532  1  0.456520  0.517600  0.357340  1.0
  C  C533  1  0.454370  0.362310  0.802890  1.0
  C  C534  1  0.637690  0.545630  0.697110  1.0
  C  C535  1  0.545630  0.637690  0.197110  1.0
  C  C536  1  0.362310  0.454370  0.302890  1.0
  C  C537  1  0.461160  0.322960  0.777050  1.0
  C  C538  1  0.677040  0.538840  0.722950  1.0
  C  C539  1  0.538840  0.677040  0.222950  1.0
  C  C540  1  0.322960  0.461160  0.277050  1.0
  C  C541  1  0.405490  0.300930  0.777760  1.0
  C  C542  1  0.699070  0.594510  0.722240  1.0
  C  C543  1  0.594510  0.699070  0.222240  1.0
  C  C544  1  0.300930  0.405490  0.277760  1.0
  C  C545  1  0.305150  0.316790  0.812310  1.0
  C  C546  1  0.683210  0.694850  0.687690  1.0
  C  C547  1  0.694850  0.683210  0.187690  1.0
  C  C548  1  0.316790  0.305150  0.312310  1.0
  C  C549  1  0.260440  0.367780  0.798980  1.0
  C  C550  1  0.632220  0.739560  0.701020  1.0
  C  C551  1  0.739560  0.632220  0.201020  1.0
  C  C552  1  0.367780  0.260440  0.298980  1.0
  C  C553  1  0.276790  0.415470  0.777170  1.0
  C  C554  1  0.584530  0.723210  0.722830  1.0
  C  C555  1  0.723210  0.584530  0.222830  1.0
  C  C556  1  0.415470  0.276790  0.277170  1.0
  C  C557  1  0.232950  0.462190  0.766160  1.0
  C  C558  1  0.537810  0.767050  0.733840  1.0
  C  C559  1  0.767050  0.537810  0.233840  1.0
  C  C560  1  0.462190  0.232950  0.266160  1.0
  C  C561  1  0.172760  0.461840  0.777600  1.0
  C  C562  1  0.538160  0.827240  0.722400  1.0
  C  C563  1  0.827240  0.538160  0.222400  1.0
  C  C564  1  0.461840  0.172760  0.277600  1.0
  C  C565  1  0.153940  0.413880  0.800730  1.0
  C  C566  1  0.586120  0.846060  0.699270  1.0
  C  C567  1  0.846060  0.586120  0.199270  1.0
  C  C568  1  0.413880  0.153940  0.300730  1.0
  C  C569  1  0.198030  0.364950  0.810840  1.0
  C  C570  1  0.635050  0.801970  0.689160  1.0
  C  C571  1  0.801970  0.635050  0.189160  1.0
  C  C572  1  0.364950  0.198030  0.310840  1.0
  C  C573  1  0.091420  0.412700  0.814640  1.0
  C  C574  1  0.587300  0.908580  0.685360  1.0
  C  C575  1  0.908580  0.587300  0.185360  1.0
  C  C576  1  0.412700  0.091420  0.314640  1.0
  C  C577  1  0.076300  0.365940  0.837450  1.0
  C  C578  1  0.634060  0.923700  0.662550  1.0
  C  C579  1  0.923700  0.634060  0.162550  1.0
  C  C580  1  0.365940  0.076300  0.337450  1.0
  C  C581  1  0.119480  0.316680  0.846510  1.0
  C  C582  1  0.683320  0.880520  0.653490  1.0
  C  C583  1  0.880520  0.683320  0.153490  1.0
  C  C584  1  0.316680  0.119480  0.346510  1.0
  C  C585  1  0.178700  0.316320  0.833180  1.0
  C  C586  1  0.683680  0.821300  0.666820  1.0
  C  C587  1  0.821300  0.683680  0.166820  1.0
  C  C588  1  0.316320  0.178700  0.333180  1.0
  C  C589  1  0.288310  0.506790  0.840980  1.0
  C  C590  1  0.493210  0.711690  0.659020  1.0
  C  C591  1  0.711690  0.493210  0.159020  1.0
  C  C592  1  0.506790  0.288310  0.340980  1.0
  C  C593  1  0.257020  0.559080  0.826460  1.0
  C  C594  1  0.440920  0.742980  0.673540  1.0
  C  C595  1  0.742980  0.440920  0.173540  1.0
  C  C596  1  0.559080  0.257020  0.326460  1.0
  C  C597  1  0.290390  0.597630  0.803930  1.0
  C  C598  1  0.402370  0.709610  0.696070  1.0
  C  C599  1  0.709610  0.402370  0.196070  1.0
  C  C600  1  0.597630  0.290390  0.303930  1.0
  C  C601  1  0.351820  0.582060  0.796730  1.0
  C  C602  1  0.417940  0.648180  0.703270  1.0
  C  C603  1  0.648180  0.417940  0.203270  1.0
  C  C604  1  0.582060  0.351820  0.296730  1.0
  C  C605  1  0.379090  0.529050  0.811870  1.0
  C  C606  1  0.470950  0.620910  0.688130  1.0
  C  C607  1  0.620910  0.470950  0.188130  1.0
  C  C608  1  0.529050  0.379090  0.311870  1.0
  C  C609  1  0.256960  0.462440  0.863890  1.0
  C  C610  1  0.537560  0.743040  0.636110  1.0
  C  C611  1  0.743040  0.537560  0.136110  1.0
  C  C612  1  0.462440  0.256960  0.363890  1.0
  C  C613  1  0.196080  0.461600  0.874840  1.0
  C  C614  1  0.538400  0.803920  0.625160  1.0
  C  C615  1  0.803920  0.538400  0.125160  1.0
  C  C616  1  0.461600  0.196080  0.374840  1.0
  C  C617  1  0.193440  0.406520  0.894050  1.0
  C  C618  1  0.593480  0.806560  0.605950  1.0
  C  C619  1  0.806560  0.593480  0.105950  1.0
  C  C620  1  0.406520  0.193440  0.394050  1.0
  C  C621  1  0.269500  0.322500  0.914050  1.0
  C  C622  1  0.677500  0.730500  0.585950  1.0
  C  C623  1  0.730500  0.677500  0.085950  1.0
  C  C624  1  0.322500  0.269500  0.414050  1.0
  C  C625  1  0.288000  0.334880  0.948250  1.0
  C  C626  1  0.665120  0.712000  0.551750  1.0
  C  C627  1  0.712000  0.665120  0.051750  1.0
  C  C628  1  0.334880  0.288000  0.448250  1.0
  C  C629  1  0.316170  0.285510  0.969260  1.0
  C  C630  1  0.714490  0.683830  0.530740  1.0
  C  C631  1  0.683830  0.714490  0.030740  1.0
  C  C632  1  0.285510  0.316170  0.469260  1.0
  C  C633  1  0.278090  0.391890  0.959130  1.0
  C  C634  1  0.608110  0.721910  0.540870  1.0
  C  C635  1  0.721910  0.608110  0.040870  1.0
  C  C636  1  0.391890  0.278090  0.459130  1.0
  C  C637  1  0.133670  0.669090  0.281190  1.0
  C  C638  1  0.330910  0.866330  0.218810  1.0
  C  C639  1  0.866330  0.330910  0.718810  1.0
  C  C640  1  0.669090  0.133670  0.781190  1.0
  C  C641  1  0.154550  0.702090  0.305550  1.0
  C  C642  1  0.297910  0.845450  0.194450  1.0
  C  C643  1  0.845450  0.297910  0.694450  1.0
  C  C644  1  0.702090  0.154550  0.805550  1.0
  C  C645  1  0.141690  0.763690  0.304510  1.0
  C  C646  1  0.236310  0.858310  0.195490  1.0
  C  C647  1  0.858310  0.236310  0.695490  1.0
  C  C648  1  0.763690  0.141690  0.804510  1.0
  C  C649  1  0.109950  0.793750  0.278480  1.0
  C  C650  1  0.206250  0.890050  0.221520  1.0
  C  C651  1  0.890050  0.206250  0.721520  1.0
  C  C652  1  0.793750  0.109950  0.778480  1.0
  C  C653  1  0.091650  0.759510  0.254720  1.0
  C  C654  1  0.240490  0.908350  0.245280  1.0
  C  C655  1  0.908350  0.240490  0.745280  1.0
  C  C656  1  0.759510  0.091650  0.754720  1.0
  C  C657  1  0.141920  0.603320  0.281820  1.0
  C  C658  1  0.396680  0.858080  0.218180  1.0
  C  C659  1  0.858080  0.396680  0.718180  1.0
  C  C660  1  0.603320  0.141920  0.781820  1.0
  C  C661  1  0.167900  0.559340  0.304970  1.0
  C  C662  1  0.440660  0.832100  0.195030  1.0
  C  C663  1  0.832100  0.440660  0.695030  1.0
  C  C664  1  0.559340  0.167900  0.804970  1.0
  C  C665  1  0.158330  0.504650  0.293880  1.0
  C  C666  1  0.495350  0.841670  0.206120  1.0
  C  C667  1  0.841670  0.495350  0.706120  1.0
  C  C668  1  0.504650  0.158330  0.793880  1.0
  C  C669  1  0.115700  0.472460  0.242770  1.0
  C  C670  1  0.527540  0.884300  0.257230  1.0
  C  C671  1  0.884300  0.527540  0.757230  1.0
  C  C672  1  0.472460  0.115700  0.742770  1.0
  C  C673  1  0.847240  0.392980  0.837740  1.0
  C  C674  1  0.607020  0.152760  0.662260  1.0
  C  C675  1  0.152760  0.607020  0.162260  1.0
  C  C676  1  0.392980  0.847240  0.337740  1.0
  C  C677  1  0.798220  0.396460  0.862240  1.0
  C  C678  1  0.603540  0.201780  0.637760  1.0
  C  C679  1  0.201780  0.603540  0.137760  1.0
  C  C680  1  0.396460  0.798220  0.362240  1.0
  C  C681  1  0.748130  0.367470  0.858040  1.0
  C  C682  1  0.632530  0.251870  0.641960  1.0
  C  C683  1  0.251870  0.632530  0.141960  1.0
  C  C684  1  0.367470  0.748130  0.358040  1.0
  C  C685  1  0.747660  0.335400  0.829130  1.0
  C  C686  1  0.664600  0.252340  0.670870  1.0
  C  C687  1  0.252340  0.664600  0.170870  1.0
  C  C688  1  0.335400  0.747660  0.329130  1.0
  C  C689  1  0.798160  0.334040  0.806010  1.0
  C  C690  1  0.665960  0.201840  0.693990  1.0
  C  C691  1  0.201840  0.665960  0.193990  1.0
  C  C692  1  0.334040  0.798160  0.306010  1.0
  C  C693  1  0.901160  0.424940  0.839840  1.0
  C  C694  1  0.575060  0.098840  0.660160  1.0
  C  C695  1  0.098840  0.575060  0.160160  1.0
  C  C696  1  0.424940  0.901160  0.339840  1.0
  C  C697  1  0.914230  0.461190  0.864210  1.0
  C  C698  1  0.538810  0.085770  0.635790  1.0
  C  C699  1  0.085770  0.538810  0.135790  1.0
  C  C700  1  0.461190  0.914230  0.364210  1.0
  C  C701  1  0.968630  0.482610  0.852330  1.0
  C  C702  1  0.517390  0.031370  0.647670  1.0
  C  C703  1  0.031370  0.517390  0.147670  1.0
  C  C704  1  0.482610  0.968630  0.352330  1.0
  C  C705  1  0.044800  0.464020  0.803590  1.0
  C  C706  1  0.535980  0.955200  0.696410  1.0
  C  C707  1  0.955200  0.535980  0.196410  1.0
  C  C708  1  0.464020  0.044800  0.303590  1.0
  F  F709  1  0.463450  0.020530  0.812280  1
  F  F710  1  0.979470  0.536550  0.687720  1
  F  F711  1  0.536550  0.979470  0.187720  1
  F  F712  1  0.020530  0.463450  0.312280  1
  F  F713  1  0.449430  0.956430  0.772560  1
  F  F714  1  0.043570  0.550570  0.727440  1
  F  F715  1  0.550570  0.043570  0.227440  1
  F  F716  1  0.956430  0.449430  0.272560  1
  F  F717  1  0.373580  0.978260  0.813800  1
  F  F718  1  0.021740  0.626420  0.686200  1
  F  F719  1  0.626420  0.021740  0.186200  1
  F  F720  1  0.978260  0.373580  0.313800  1
  F  F721  1  0.460390  0.918890  0.827290  1
  F  F722  1  0.081110  0.539610  0.672710  1
  F  F723  1  0.539610  0.081110  0.172710  1
  F  F724  1  0.918890  0.460390  0.327290  1
  F  F725  1  0.134560  0.644920  0.826960  1
  F  F726  1  0.355080  0.865440  0.673040  1
  F  F727  1  0.865440  0.355080  0.173040  1
  F  F728  1  0.644920  0.134560  0.326960  1
  F  F729  1  0.044740  0.674140  0.855550  1
  F  F730  1  0.325860  0.955260  0.644450  1
  F  F731  1  0.955260  0.325860  0.144450  1
  F  F732  1  0.674140  0.044740  0.355550  1
  F  F733  1  0.046920  0.615460  0.811760  1
  F  F734  1  0.384540  0.953080  0.688240  1
  F  F735  1  0.953080  0.384540  0.188240  1
  F  F736  1  0.615460  0.046920  0.311760  1
  F  F737  1  0.084770  0.575310  0.860730  1
  F  F738  1  0.424690  0.915230  0.639270  1
  F  F739  1  0.915230  0.424690  0.139270  1
  F  F740  1  0.575310  0.084770  0.360730  1
  F  F741  1  0.821710  0.513390  0.970070  1
  F  F742  1  0.486610  0.178290  0.529930  1
  F  F743  1  0.178290  0.486610  0.029930  1
  F  F744  1  0.513390  0.821710  0.470070  1
  F  F745  1  0.838070  0.428890  0.941060  1
  F  F746  1  0.571110  0.161930  0.558940  1
  F  F747  1  0.161930  0.571110  0.058940  1
  F  F748  1  0.428890  0.838070  0.441060  1
  F  F749  1  0.750210  0.447090  0.974020  1
  F  F750  1  0.552910  0.249790  0.525980  1
  F  F751  1  0.249790  0.552910  0.025980  1
  F  F752  1  0.447090  0.750210  0.474020  1
  F  F753  1  0.767720  0.505940  0.925180  1
  F  F754  1  0.494060  0.232280  0.574820  1
  F  F755  1  0.232280  0.494060  0.074820  1
  F  F756  1  0.505940  0.767720  0.425180  1
  F  F757  1  0.188890  0.200890  0.929580  1
  F  F758  1  0.799110  0.811110  0.570420  1
  F  F759  1  0.811110  0.799110  0.070420  1
  F  F760  1  0.200890  0.188890  0.429580  1
  F  F761  1  0.122530  0.286870  0.931110  1
  F  F762  1  0.713130  0.877470  0.568890  1
  F  F763  1  0.877470  0.713130  0.068890  1
  F  F764  1  0.286870  0.122530  0.431110  1
  F  F765  1  0.094550  0.202230  0.910770  1
  F  F766  1  0.797770  0.905450  0.589230  1
  F  F767  1  0.905450  0.797770  0.089230  1
  F  F768  1  0.202230  0.094550  0.410770  1
  F  F769  1  0.104920  0.203320  0.966950  1
  F  F770  1  0.796680  0.895080  0.533050  1
  F  F771  1  0.895080  0.796680  0.033050  1
  F  F772  1  0.203320  0.104920  0.466950  1
  F  F773  1  0.889830  0.749830  0.718510  1
  F  F774  1  0.250170  0.110170  0.781490  1
  F  F775  1  0.110170  0.250170  0.281490  1
  F  F776  1  0.749830  0.889830  0.218510  1
  F  F777  1  0.834100  0.734700  0.677580  1
  F  F778  1  0.265300  0.165900  0.822420  1
  F  F779  1  0.165900  0.265300  0.322420  1
  F  F780  1  0.734700  0.834100  0.177580  1
  F  F781  1  0.791560  0.779860  0.722140  1
  F  F782  1  0.220140  0.208440  0.777860  1
  F  F783  1  0.208440  0.220140  0.277860  1
  F  F784  1  0.779860  0.791560  0.222140  1
  F  F785  1  0.823390  0.682090  0.726870  1
  F  F786  1  0.317910  0.176610  0.773130  1
  F  F787  1  0.176610  0.317910  0.273130  1
  F  F788  1  0.682090  0.823390  0.226870  1
  F  F789  1  0.080990  0.965510  0.366710  1
  F  F790  1  0.034490  0.919010  0.133290  1
  F  F791  1  0.919010  0.034490  0.633290  1
  F  F792  1  0.965510  0.080990  0.866710  1
  F  F793  1  0.085700  0.918300  0.318120  1
  F  F794  1  0.081700  0.914300  0.181880  1
  F  F795  1  0.914300  0.081700  0.681880  1
  F  F796  1  0.918300  0.085700  0.818120  1
  F  F797  1  0.049900  0.870940  0.367820  1
  F  F798  1  0.129060  0.950100  0.132180  1
  F  F799  1  0.950100  0.129060  0.632180  1
  F  F800  1  0.870940  0.049900  0.867820  1
  F  F801  1  0.993790  0.952710  0.343520  1
  F  F802  1  0.047290  0.006210  0.156480  1
  F  F803  1  0.006210  0.047290  0.656480  1
  F  F804  1  0.952710  0.993790  0.843520  1
  H  H805  1  0.140800  0.397600  0.969000  1
  H  H806  1  0.602400  0.859200  0.531000  1
  H  H807  1  0.859200  0.602400  0.031000  1
  H  H808  1  0.397600  0.140800  0.469000  1
  H  H809  1  0.099800  0.425200  0.000200  1
  H  H810  1  0.574800  0.900200  0.499800  1
  H  H811  1  0.900200  0.574800  0.999800  1
  H  H812  1  0.425200  0.099800  0.500200  1
  H  H813  1  0.073700  0.430100  0.963800  1
  H  H814  1  0.569900  0.926300  0.536200  1
  H  H815  1  0.926300  0.569900  0.036200  1
  H  H816  1  0.430100  0.073700  0.463800  1
  H  H817  1  0.474800  0.627600  0.817300  1
  H  H818  1  0.372400  0.525200  0.682700  1
  H  H819  1  0.525200  0.372400  0.182700  1
  H  H820  1  0.627600  0.474800  0.317300  1
  H  H821  1  0.534400  0.598200  0.834900  1
  H  H822  1  0.401800  0.465600  0.665100  1
  H  H823  1  0.465600  0.401800  0.165100  1
  H  H824  1  0.598200  0.534400  0.334900  1
  H  H825  1  0.484700  0.555700  0.826700  1
  H  H826  1  0.444300  0.515300  0.673300  1
  H  H827  1  0.515300  0.444300  0.173300  1
  H  H828  1  0.555700  0.484700  0.326700  1
  H  H829  1  0.954500  0.449900  0.012500  1
  H  H830  1  0.550100  0.045500  0.487500  1
  H  H831  1  0.045500  0.550100  0.987500  1
  H  H832  1  0.449900  0.954500  0.512500  1
  H  H833  1  0.892200  0.427200  0.003500  1
  H  H834  1  0.572800  0.107800  0.496500  1
  H  H835  1  0.107800  0.572800  0.996500  1
  H  H836  1  0.427200  0.892200  0.503500  1
  H  H837  1  0.950600  0.424200  0.976600  1
  H  H838  1  0.575800  0.049400  0.523400  1
  H  H839  1  0.049400  0.575800  0.023400  1
  H  H840  1  0.424200  0.950600  0.476600  1
  H  H841  1  0.189500  0.913700  0.078300  1.0
  H  H842  1  0.086300  0.810500  0.421700  1.0
  H  H843  1  0.810500  0.086300  0.921700  1.0
  H  H844  1  0.913700  0.189500  0.578300  1.0
  H  H845  1  0.293000  0.927000  0.073800  1.0
  H  H846  1  0.073000  0.707000  0.426200  1.0
  H  H847  1  0.707000  0.073000  0.926200  1.0
  H  H848  1  0.927000  0.293000  0.573800  1.0
  H  H849  1  0.350500  0.913500  0.022500  1.0
  H  H850  1  0.086500  0.649500  0.477500  1.0
  H  H851  1  0.649500  0.086500  0.977500  1.0
  H  H852  1  0.913500  0.350500  0.522500  1.0
  H  H853  1  0.302400  0.892000  0.975900  1.0
  H  H854  1  0.108000  0.697600  0.524100  1.0
  H  H855  1  0.697600  0.108000  0.024100  1.0
  H  H856  1  0.892000  0.302400  0.475900  1.0
  H  H857  1  0.080400  0.887800  0.079100  1.0
  H  H858  1  0.112200  0.919600  0.420900  1.0
  H  H859  1  0.919600  0.112200  0.920900  1.0
  H  H860  1  0.887800  0.080400  0.579100  1.0
  H  H861  1  0.997800  0.836800  0.058100  1.0
  H  H862  1  0.163200  0.002200  0.441900  1.0
  H  H863  1  0.002200  0.163200  0.941900  1.0
  H  H864  1  0.836800  0.997800  0.558100  1.0
  H  H865  1  0.995500  0.772300  0.005300  1.0
  H  H866  1  0.227700  0.004500  0.494700  1.0
  H  H867  1  0.004500  0.227700  0.994700  1.0
  H  H868  1  0.772300  0.995500  0.505300  1.0
  H  H869  1  0.051500  0.774900  0.977100  1.0
  H  H870  1  0.225100  0.948500  0.522900  1.0
  H  H871  1  0.948500  0.225100  0.022900  1.0
  H  H872  1  0.774900  0.051500  0.477100  1.0
  H  H873  1  0.755200  0.718200  0.778000  1.0
  H  H874  1  0.281800  0.244800  0.722000  1.0
  H  H875  1  0.244800  0.281800  0.222000  1.0
  H  H876  1  0.718200  0.755200  0.278000  1.0
  H  H877  1  0.665400  0.670600  0.779100  1.0
  H  H878  1  0.329400  0.334600  0.720900  1.0
  H  H879  1  0.334600  0.329400  0.220900  1.0
  H  H880  1  0.670600  0.665400  0.279100  1.0
  H  H881  1  0.588800  0.687200  0.822800  1.0
  H  H882  1  0.312800  0.411200  0.677200  1.0
  H  H883  1  0.411200  0.312800  0.177200  1.0
  H  H884  1  0.687200  0.588800  0.322800  1.0
  H  H885  1  0.605300  0.747900  0.864900  1.0
  H  H886  1  0.252100  0.394700  0.635100  1.0
  H  H887  1  0.394700  0.252100  0.135100  1.0
  H  H888  1  0.747900  0.605300  0.364900  1.0
  H  H889  1  0.838500  0.788300  0.775800  1.0
  H  H890  1  0.211700  0.161500  0.724200  1.0
  H  H891  1  0.161500  0.211700  0.224200  1.0
  H  H892  1  0.788300  0.838500  0.275800  1.0
  H  H893  1  0.900000  0.858000  0.801700  1.0
  H  H894  1  0.142000  0.100000  0.698300  1.0
  H  H895  1  0.100000  0.142000  0.198300  1.0
  H  H896  1  0.858000  0.900000  0.301700  1.0
  H  H897  1  0.827000  0.903800  0.882500  1.0
  H  H898  1  0.096200  0.173000  0.617500  1.0
  H  H899  1  0.173000  0.096200  0.117500  1.0
  H  H900  1  0.903800  0.827000  0.382500  1.0
  H  H901  1  0.886700  0.914900  0.857900  1.0
  H  H902  1  0.085100  0.113300  0.642100  1.0
  H  H903  1  0.113300  0.085100  0.142100  1.0
  H  H904  1  0.914900  0.886700  0.357900  1.0
  H  H905  1  0.990800  0.920400  0.992800  1.0
  H  H906  1  0.079600  0.009200  0.507200  1.0
  H  H907  1  0.009200  0.079600  0.007200  1.0
  H  H908  1  0.920400  0.990800  0.492800  1.0
  H  H909  1  0.931600  0.988400  0.956700  1.0
  H  H910  1  0.011600  0.068400  0.543300  1.0
  H  H911  1  0.068400  0.011600  0.043300  1.0
  H  H912  1  0.988400  0.931600  0.456700  1.0
  H  H913  1  0.888700  0.953900  0.912900  1.0
  H  H914  1  0.046100  0.111300  0.587100  1.0
  H  H915  1  0.111300  0.046100  0.087100  1.0
  H  H916  1  0.953900  0.888700  0.412900  1.0
  H  H917  1  0.901700  0.765300  0.866400  1.0
  H  H918  1  0.234700  0.098300  0.633600  1.0
  H  H919  1  0.098300  0.234700  0.133600  1.0
  H  H920  1  0.765300  0.901700  0.366400  1.0
  H  H921  1  0.955300  0.697700  0.904000  1.0
  H  H922  1  0.302300  0.044700  0.596000  1.0
  H  H923  1  0.044700  0.302300  0.096000  1.0
  H  H924  1  0.697700  0.955300  0.404000  1.0
  H  H925  1  0.988700  0.730900  0.951600  1.0
  H  H926  1  0.269100  0.011300  0.548400  1.0
  H  H927  1  0.011300  0.269100  0.048400  1.0
  H  H928  1  0.730900  0.988700  0.451600  1.0
  H  H929  1  0.046200  0.001600  0.888400  1.0
  H  H930  1  0.998400  0.953800  0.611600  1.0
  H  H931  1  0.953800  0.998400  0.111600  1.0
  H  H932  1  0.001600  0.046200  0.388400  1.0
  H  H933  1  0.061200  0.092000  0.911800  1.0
  H  H934  1  0.908000  0.938800  0.588200  1.0
  H  H935  1  0.938800  0.908000  0.088200  1.0
  H  H936  1  0.092000  0.061200  0.411800  1.0
  H  H937  1  0.117300  0.085500  0.959100  1.0
  H  H938  1  0.914500  0.882700  0.540900  1.0
  H  H939  1  0.882700  0.914500  0.040900  1.0
  H  H940  1  0.085500  0.117300  0.459100  1.0
  H  H941  1  0.159400  0.991000  0.981000  1.0
  H  H942  1  0.009000  0.840600  0.519000  1.0
  H  H943  1  0.840600  0.009000  0.019000  1.0
  H  H944  1  0.991000  0.159400  0.481000  1.0
  H  H945  1  0.041300  0.903700  0.863800  1.0
  H  H946  1  0.096300  0.958700  0.636200  1.0
  H  H947  1  0.958700  0.096300  0.136200  1.0
  H  H948  1  0.903700  0.041300  0.363800  1.0
  H  H949  1  0.058400  0.790200  0.862100  1.0
  H  H950  1  0.209800  0.941600  0.637900  1.0
  H  H951  1  0.941600  0.209800  0.137900  1.0
  H  H952  1  0.790200  0.058400  0.362100  1.0
  H  H953  1  0.098400  0.701600  0.905200  1.0
  H  H954  1  0.298400  0.901600  0.594800  1.0
  H  H955  1  0.901600  0.298400  0.094800  1.0
  H  H956  1  0.701600  0.098400  0.405200  1.0
  H  H957  1  0.127000  0.720400  0.937600  1.0
  H  H958  1  0.279600  0.873000  0.562400  1.0
  H  H959  1  0.873000  0.279600  0.062400  1.0
  H  H960  1  0.720400  0.127000  0.437600  1.0
  H  H961  1  0.474700  0.316100  0.965500  1.0
  H  H962  1  0.683900  0.525300  0.534500  1.0
  H  H963  1  0.525300  0.683900  0.034500  1.0
  H  H964  1  0.316100  0.474700  0.465500  1.0
  H  H965  1  0.487400  0.214200  0.951000  1.0
  H  H966  1  0.785800  0.512600  0.549000  1.0
  H  H967  1  0.512600  0.785800  0.049000  1.0
  H  H968  1  0.214200  0.487400  0.451000  1.0
  H  H969  1  0.458600  0.192200  0.899100  1.0
  H  H970  1  0.807800  0.541400  0.600900  1.0
  H  H971  1  0.541400  0.807800  0.100900  1.0
  H  H972  1  0.192200  0.458600  0.399100  1.0
  H  H973  1  0.414900  0.271500  0.862800  1.0
  H  H974  1  0.728500  0.585100  0.637200  1.0
  H  H975  1  0.585100  0.728500  0.137200  1.0
  H  H976  1  0.271500  0.414900  0.362800  1.0
  H  H977  1  0.468400  0.426400  0.973500  1.0
  H  H978  1  0.573600  0.531600  0.526500  1.0
  H  H979  1  0.531600  0.573600  0.026500  1.0
  H  H980  1  0.426400  0.468400  0.473500  1.0
  H  H981  1  0.441700  0.538300  0.958100  1.0
  H  H982  1  0.461700  0.558300  0.541900  1.0
  H  H983  1  0.558300  0.461700  0.041900  1.0
  H  H984  1  0.538300  0.441700  0.458100  1.0
  H  H985  1  0.384100  0.562100  0.874700  1.0
  H  H986  1  0.437900  0.615900  0.625300  1.0
  H  H987  1  0.615900  0.437900  0.125300  1.0
  H  H988  1  0.562100  0.384100  0.374700  1.0
  H  H989  1  0.403600  0.600000  0.903500  1.0
  H  H990  1  0.400000  0.596400  0.596500  1.0
  H  H991  1  0.596400  0.400000  0.096500  1.0
  H  H992  1  0.600000  0.403600  0.403500  1.0
  H  H993  1  0.197400  0.783800  0.864400  1.0
  H  H994  1  0.216200  0.802600  0.635600  1.0
  H  H995  1  0.802600  0.216200  0.135600  1.0
  H  H996  1  0.783800  0.197400  0.364400  1.0
  H  H997  1  0.296100  0.754300  0.841400  1.0
  H  H998  1  0.245700  0.703900  0.658600  1.0
  H  H999  1  0.703900  0.245700  0.158600  1.0
  H  H1000  1  0.754300  0.296100  0.341400  1.0
  H  H1001  1  0.350300  0.664300  0.861700  1.0
  H  H1002  1  0.335700  0.649700  0.638300  1.0
  H  H1003  1  0.649700  0.335700  0.138300  1.0
  H  H1004  1  0.664300  0.350300  0.361700  1.0
  H  H1005  1  0.306500  0.510300  0.945300  1.0
  H  H1006  1  0.489700  0.693500  0.554700  1.0
  H  H1007  1  0.693500  0.489700  0.054700  1.0
  H  H1008  1  0.510300  0.306500  0.445300  1.0
  H  H1009  1  0.202300  0.533300  0.962300  1.0
  H  H1010  1  0.466700  0.797700  0.537700  1.0
  H  H1011  1  0.797700  0.466700  0.037700  1.0
  H  H1012  1  0.533300  0.202300  0.462300  1.0
  H  H1013  1  0.149800  0.622800  0.941400  1.0
  H  H1014  1  0.377200  0.850200  0.558600  1.0
  H  H1015  1  0.850200  0.377200  0.058600  1.0
  H  H1016  1  0.622800  0.149800  0.441400  1.0
  H  H1017  1  0.855900  0.715900  0.248700  1.0
  H  H1018  1  0.284100  0.144100  0.251300  1.0
  H  H1019  1  0.144100  0.284100  0.751300  1.0
  H  H1020  1  0.715900  0.855900  0.748700  1.0
  H  H1021  1  0.828600  0.635800  0.287400  1.0
  H  H1022  1  0.364200  0.171400  0.212600  1.0
  H  H1023  1  0.171400  0.364200  0.712600  1.0
  H  H1024  1  0.635800  0.828600  0.787400  1.0
  H  H1025  1  0.902900  0.558500  0.303600  1.0
  H  H1026  1  0.441500  0.097100  0.196400  1.0
  H  H1027  1  0.097100  0.441500  0.696400  1.0
  H  H1028  1  0.558500  0.902900  0.803600  1.0
  H  H1029  1  0.002500  0.560100  0.279000  1.0
  H  H1030  1  0.439900  0.997500  0.221000  1.0
  H  H1031  1  0.997500  0.439900  0.721000  1.0
  H  H1032  1  0.560100  0.002500  0.779000  1.0
  H  H1033  1  0.376500  0.791900  0.904000  1.0
  H  H1034  1  0.208100  0.623500  0.596000  1.0
  H  H1035  1  0.623500  0.208100  0.096000  1.0
  H  H1036  1  0.791900  0.376500  0.404000  1.0
  H  H1037  1  0.385000  0.877800  0.865400  1.0
  H  H1038  1  0.122200  0.615000  0.634600  1.0
  H  H1039  1  0.615000  0.122200  0.134600  1.0
  H  H1040  1  0.877800  0.385000  0.365400  1.0
  H  H1041  1  0.305300  0.956300  0.864400  1.0
  H  H1042  1  0.043700  0.694700  0.635600  1.0
  H  H1043  1  0.694700  0.043700  0.135600  1.0
  H  H1044  1  0.956300  0.305300  0.364400  1.0
  H  H1045  1  0.219000  0.947400  0.902100  1.0
  H  H1046  1  0.052600  0.781000  0.597900  1.0
  H  H1047  1  0.781000  0.052600  0.097900  1.0
  H  H1048  1  0.947400  0.219000  0.402100  1.0
  H  H1049  1  0.358900  0.704500  0.946600  1.0
  H  H1050  1  0.295500  0.641100  0.553400  1.0
  H  H1051  1  0.641100  0.295500  0.053400  1.0
  H  H1052  1  0.704500  0.358900  0.446600  1.0
  H  H1053  1  0.295700  0.642300  0.989900  1.0
  H  H1054  1  0.357700  0.704300  0.510100  1.0
  H  H1055  1  0.704300  0.357700  0.010100  1.0
  H  H1056  1  0.642300  0.295700  0.489900  1.0
  H  H1057  1  0.180700  0.654300  0.012300  1.0
  H  H1058  1  0.345700  0.819300  0.487700  1.0
  H  H1059  1  0.819300  0.345700  0.987700  1.0
  H  H1060  1  0.654300  0.180700  0.512300  1.0
  H  H1061  1  0.141300  0.716700  0.001500  1.0
  H  H1062  1  0.283300  0.858700  0.498500  1.0
  H  H1063  1  0.858700  0.283300  0.998500  1.0
  H  H1064  1  0.716700  0.141300  0.501500  1.0
  H  H1065  1  0.899800  0.803000  0.210600  1.0
  H  H1066  1  0.197000  0.100200  0.289400  1.0
  H  H1067  1  0.100200  0.197000  0.789400  1.0
  H  H1068  1  0.803000  0.899800  0.710600  1.0
  H  H1069  1  0.977700  0.847100  0.168400  1.0
  H  H1070  1  0.152900  0.022300  0.331600  1.0
  H  H1071  1  0.022300  0.152900  0.831600  1.0
  H  H1072  1  0.847100  0.977700  0.668400  1.0
  H  H1073  1  0.121600  0.752200  0.168700  1.0
  H  H1074  1  0.247800  0.878400  0.331300  1.0
  H  H1075  1  0.878400  0.247800  0.831300  1.0
  H  H1076  1  0.752200  0.121600  0.668700  1.0
  H  H1077  1  0.092200  0.816000  0.152100  1.0
  H  H1078  1  0.184000  0.907800  0.347900  1.0
  H  H1079  1  0.907800  0.184000  0.847900  1.0
  H  H1080  1  0.816000  0.092200  0.652100  1.0
  H  H1081  1  0.271700  0.742900  0.035700  1.0
  H  H1082  1  0.257100  0.728300  0.464300  1.0
  H  H1083  1  0.728300  0.257100  0.964300  1.0
  H  H1084  1  0.742900  0.271700  0.535700  1.0
  H  H1085  1  0.277700  0.779300  0.088800  1.0
  H  H1086  1  0.220700  0.722300  0.411200  1.0
  H  H1087  1  0.722300  0.220700  0.911200  1.0
  H  H1088  1  0.779300  0.277700  0.588800  1.0
  H  H1089  1  0.193400  0.783000  0.127900  1.0
  H  H1090  1  0.217000  0.806600  0.372100  1.0
  H  H1091  1  0.806600  0.217000  0.872100  1.0
  H  H1092  1  0.783000  0.193400  0.627900  1.0
  H  H1093  1  0.997200  0.725000  0.130600  1.0
  H  H1094  1  0.275000  0.002800  0.369400  1.0
  H  H1095  1  0.002800  0.275000  0.869400  1.0
  H  H1096  1  0.725000  0.997200  0.630600  1.0
  H  H1097  1  0.995300  0.680300  0.079700  1.0
  H  H1098  1  0.319700  0.004700  0.420300  1.0
  H  H1099  1  0.004700  0.319700  0.920300  1.0
  H  H1100  1  0.680300  0.995300  0.579700  1.0
  H  H1101  1  0.078600  0.676600  0.041000  1.0
  H  H1102  1  0.323400  0.921400  0.459000  1.0
  H  H1103  1  0.921400  0.323400  0.959000  1.0
  H  H1104  1  0.676600  0.078600  0.541000  1.0
  H  H1105  1  0.182900  0.196900  0.007900  1.0
  H  H1106  1  0.803100  0.817100  0.492100  1.0
  H  H1107  1  0.817100  0.803100  0.992100  1.0
  H  H1108  1  0.196900  0.182900  0.507900  1.0
  H  H1109  1  0.205100  0.098500  0.994100  1.0
  H  H1110  1  0.901500  0.794900  0.505900  1.0
  H  H1111  1  0.794900  0.901500  0.005900  1.0
  H  H1112  1  0.098500  0.205100  0.494100  1.0
  H  H1113  1  0.266700  0.030900  0.028400  1.0
  H  H1114  1  0.969100  0.733300  0.471600  1.0
  H  H1115  1  0.733300  0.969100  0.971600  1.0
  H  H1116  1  0.030900  0.266700  0.528400  1.0
  H  H1117  1  0.292500  0.060900  0.078900  1.0
  H  H1118  1  0.939100  0.707500  0.421100  1.0
  H  H1119  1  0.707500  0.939100  0.921100  1.0
  H  H1120  1  0.060900  0.292500  0.578900  1.0
  H  H1121  1  0.166400  0.302200  0.024000  1.0
  H  H1122  1  0.697800  0.833600  0.476000  1.0
  H  H1123  1  0.833600  0.697800  0.976000  1.0
  H  H1124  1  0.302200  0.166400  0.524000  1.0
  H  H1125  1  0.187300  0.389900  0.054500  1.0
  H  H1126  1  0.610100  0.812700  0.445500  1.0
  H  H1127  1  0.812700  0.610100  0.945500  1.0
  H  H1128  1  0.389900  0.187300  0.554500  1.0
  H  H1129  1  0.262600  0.400800  0.101100  1.0
  H  H1130  1  0.599200  0.737400  0.398900  1.0
  H  H1131  1  0.737400  0.599200  0.898900  1.0
  H  H1132  1  0.400800  0.262600  0.601100  1.0
  H  H1133  1  0.287900  0.339500  0.121800  1.0
  H  H1134  1  0.660500  0.712100  0.378200  1.0
  H  H1135  1  0.712100  0.660500  0.878200  1.0
  H  H1136  1  0.339500  0.287900  0.621800  1.0
  H  H1137  1  0.142800  0.320600  0.122300  1.0
  H  H1138  1  0.679400  0.857200  0.377700  1.0
  H  H1139  1  0.857200  0.679400  0.877700  1.0
  H  H1140  1  0.320600  0.142800  0.622300  1.0
  H  H1141  1  0.064500  0.335300  0.165700  1.0
  H  H1142  1  0.664700  0.935500  0.334300  1.0
  H  H1143  1  0.935500  0.664700  0.834300  1.0
  H  H1144  1  0.335300  0.064500  0.665700  1.0
  H  H1145  1  0.075100  0.397300  0.207600  1.0
  H  H1146  1  0.602700  0.924900  0.292400  1.0
  H  H1147  1  0.924900  0.602700  0.792400  1.0
  H  H1148  1  0.397300  0.075100  0.707600  1.0
  H  H1149  1  0.222900  0.518700  0.230400  1.0
  H  H1150  1  0.481300  0.777100  0.269600  1.0
  H  H1151  1  0.777100  0.481300  0.769600  1.0
  H  H1152  1  0.518700  0.222900  0.730400  1.0
  H  H1153  1  0.303500  0.497500  0.189000  1.0
  H  H1154  1  0.502500  0.696500  0.311000  1.0
  H  H1155  1  0.696500  0.502500  0.811000  1.0
  H  H1156  1  0.497500  0.303500  0.689000  1.0
  H  H1157  1  0.294900  0.432900  0.148100  1.0
  H  H1158  1  0.567100  0.705100  0.351900  1.0
  H  H1159  1  0.705100  0.567100  0.851900  1.0
  H  H1160  1  0.432900  0.294900  0.648100  1.0
  H  H1161  1  0.456400  0.017200  0.127700  1.0
  H  H1162  1  0.982800  0.543600  0.372300  1.0
  H  H1163  1  0.543600  0.982800  0.872300  1.0
  H  H1164  1  0.017200  0.456400  0.627700  1.0
  H  H1165  1  0.395800  0.942800  0.158700  1.0
  H  H1166  1  0.057200  0.604200  0.341300  1.0
  H  H1167  1  0.604200  0.057200  0.841300  1.0
  H  H1168  1  0.942800  0.395800  0.658700  1.0
  H  H1169  1  0.296800  0.971600  0.178200  1.0
  H  H1170  1  0.028400  0.703200  0.321800  1.0
  H  H1171  1  0.703200  0.028400  0.821800  1.0
  H  H1172  1  0.971600  0.296800  0.678200  1.0
  H  H1173  1  0.252400  0.069400  0.163000  1.0
  H  H1174  1  0.930600  0.747600  0.337000  1.0
  H  H1175  1  0.747600  0.930600  0.837000  1.0
  H  H1176  1  0.069400  0.252400  0.663000  1.0
  H  H1177  1  0.508900  0.107700  0.098700  1.0
  H  H1178  1  0.892300  0.491100  0.401300  1.0
  H  H1179  1  0.491100  0.892300  0.901300  1.0
  H  H1180  1  0.107700  0.508900  0.598700  1.0
  H  H1181  1  0.507900  0.201900  0.059400  1.0
  H  H1182  1  0.798100  0.492100  0.440600  1.0
  H  H1183  1  0.492100  0.798100  0.940600  1.0
  H  H1184  1  0.201900  0.507900  0.559400  1.0
  H  H1185  1  0.425100  0.294100  0.045900  1.0
  H  H1186  1  0.705900  0.574900  0.454100  1.0
  H  H1187  1  0.574900  0.705900  0.954100  1.0
  H  H1188  1  0.294100  0.425100  0.545900  1.0
  H  H1189  1  0.359400  0.289800  0.065700  1.0
  H  H1190  1  0.710200  0.640600  0.434300  1.0
  H  H1191  1  0.640600  0.710200  0.934300  1.0
  H  H1192  1  0.289800  0.359400  0.565700  1.0
  H  H1193  1  0.396000  0.161200  0.023900  1.0
  H  H1194  1  0.838800  0.604000  0.476100  1.0
  H  H1195  1  0.604000  0.838800  0.976100  1.0
  H  H1196  1  0.161200  0.396000  0.523900  1.0
  H  H1197  1  0.358000  0.138800  0.974300  1.0
  H  H1198  1  0.861200  0.642000  0.525700  1.0
  H  H1199  1  0.642000  0.861200  0.025700  1.0
  H  H1200  1  0.138800  0.358000  0.474300  1.0
  H  H1201  1  0.309500  0.214900  0.939700  1.0
  H  H1202  1  0.785100  0.690500  0.560300  1.0
  H  H1203  1  0.690500  0.785100  0.060300  1.0
  H  H1204  1  0.214900  0.309500  0.439700  1.0
  H  H1205  1  0.290600  0.444800  0.996900  1.0
  H  H1206  1  0.555200  0.709400  0.503100  1.0
  H  H1207  1  0.709400  0.555200  0.003100  1.0
  H  H1208  1  0.444800  0.290600  0.496900  1.0
  H  H1209  1  0.344300  0.369300  0.029800  1.0
  H  H1210  1  0.630700  0.655700  0.470200  1.0
  H  H1211  1  0.655700  0.630700  0.970200  1.0
  H  H1212  1  0.369300  0.344300  0.529800  1.0
  H  H1213  1  0.571300  0.374100  0.782800  1.0
  H  H1214  1  0.625900  0.428700  0.717200  1.0
  H  H1215  1  0.428700  0.625900  0.217200  1.0
  H  H1216  1  0.374100  0.571300  0.282800  1.0
  H  H1217  1  0.640700  0.424100  0.808900  1.0
  H  H1218  1  0.575900  0.359300  0.691100  1.0
  H  H1219  1  0.359300  0.575900  0.191100  1.0
  H  H1220  1  0.424100  0.640700  0.308900  1.0
  H  H1221  1  0.606200  0.475600  0.857100  1.0
  H  H1222  1  0.524400  0.393800  0.642900  1.0
  H  H1223  1  0.393800  0.524400  0.142900  1.0
  H  H1224  1  0.475600  0.606200  0.357100  1.0
  H  H1225  1  0.502900  0.479500  0.875900  1.0
  H  H1226  1  0.520500  0.497100  0.624100  1.0
  H  H1227  1  0.497100  0.520500  0.124100  1.0
  H  H1228  1  0.479500  0.502900  0.375900  1.0
  H  H1229  1  0.496400  0.313600  0.762300  1.0
  H  H1230  1  0.686400  0.503600  0.737700  1.0
  H  H1231  1  0.503600  0.686400  0.237700  1.0
  H  H1232  1  0.313600  0.496400  0.262300  1.0
  H  H1233  1  0.394900  0.272500  0.763400  1.0
  H  H1234  1  0.727500  0.605100  0.736600  1.0
  H  H1235  1  0.605100  0.727500  0.236600  1.0
  H  H1236  1  0.272500  0.394900  0.263400  1.0
  H  H1237  1  0.299100  0.312500  0.837300  1.0
  H  H1238  1  0.687500  0.700900  0.662700  1.0
  H  H1239  1  0.700900  0.687500  0.162700  1.0
  H  H1240  1  0.312500  0.299100  0.337300  1.0
  H  H1241  1  0.296500  0.278100  0.804000  1.0
  H  H1242  1  0.721900  0.703500  0.696000  1.0
  H  H1243  1  0.703500  0.721900  0.196000  1.0
  H  H1244  1  0.278100  0.296500  0.304000  1.0
  H  H1245  1  0.318400  0.417200  0.769300  1.0
  H  H1246  1  0.582800  0.681600  0.730700  1.0
  H  H1247  1  0.681600  0.582800  0.230700  1.0
  H  H1248  1  0.417200  0.318400  0.269300  1.0
  H  H1249  1  0.245200  0.494400  0.750600  1.0
  H  H1250  1  0.505600  0.754800  0.749400  1.0
  H  H1251  1  0.754800  0.505600  0.249400  1.0
  H  H1252  1  0.494400  0.245200  0.250600  1.0
  H  H1253  1  0.143700  0.493700  0.770000  1.0
  H  H1254  1  0.506300  0.856300  0.730000  1.0
  H  H1255  1  0.856300  0.506300  0.230000  1.0
  H  H1256  1  0.493700  0.143700  0.270000  1.0
  H  H1257  1  0.035700  0.366500  0.847500  1.0
  H  H1258  1  0.633500  0.964300  0.652500  1.0
  H  H1259  1  0.964300  0.633500  0.152500  1.0
  H  H1260  1  0.366500  0.035700  0.347500  1.0
  H  H1261  1  0.107500  0.283900  0.861800  1.0
  H  H1262  1  0.716100  0.892500  0.638200  1.0
  H  H1263  1  0.892500  0.716100  0.138200  1.0
  H  H1264  1  0.283900  0.107500  0.361800  1.0
  H  H1265  1  0.207300  0.282700  0.839100  1.0
  H  H1266  1  0.717300  0.792700  0.660900  1.0
  H  H1267  1  0.792700  0.717300  0.160900  1.0
  H  H1268  1  0.282700  0.207300  0.339100  1.0
  H  H1269  1  0.214500  0.568300  0.831600  1.0
  H  H1270  1  0.431700  0.785500  0.668400  1.0
  H  H1271  1  0.785500  0.431700  0.168400  1.0
  H  H1272  1  0.568300  0.214500  0.331600  1.0
  H  H1273  1  0.270900  0.634100  0.793700  1.0
  H  H1274  1  0.365900  0.729100  0.706300  1.0
  H  H1275  1  0.729100  0.365900  0.206300  1.0
  H  H1276  1  0.634100  0.270900  0.293700  1.0
  H  H1277  1  0.375100  0.607700  0.781500  1.0
  H  H1278  1  0.392300  0.624900  0.718500  1.0
  H  H1279  1  0.624900  0.392300  0.218500  1.0
  H  H1280  1  0.607700  0.375100  0.281500  1.0
  H  H1281  1  0.421100  0.517900  0.806300  1.0
  H  H1282  1  0.482100  0.578900  0.693700  1.0
  H  H1283  1  0.578900  0.482100  0.193700  1.0
  H  H1284  1  0.517900  0.421100  0.306300  1.0
  H  H1285  1  0.163500  0.491900  0.870200  1.0
  H  H1286  1  0.508100  0.836500  0.629800  1.0
  H  H1287  1  0.836500  0.508100  0.129800  1.0
  H  H1288  1  0.491900  0.163500  0.370200  1.0
  H  H1289  1  0.157900  0.391300  0.905300  1.0
  H  H1290  1  0.608700  0.842100  0.594700  1.0
  H  H1291  1  0.842100  0.608700  0.094700  1.0
  H  H1292  1  0.391300  0.157900  0.405300  1.0
  H  H1293  1  0.304200  0.299600  0.901700  1.0
  H  H1294  1  0.700400  0.695800  0.598300  1.0
  H  H1295  1  0.695800  0.700400  0.098300  1.0
  H  H1296  1  0.299600  0.304200  0.401700  1.0
  H  H1297  1  0.235400  0.296800  0.917400  1.0
  H  H1298  1  0.703200  0.764600  0.582600  1.0
  H  H1299  1  0.764600  0.703200  0.082600  1.0
  H  H1300  1  0.296800  0.235400  0.417400  1.0
  H  H1301  1  0.257000  0.423600  0.945700  1.0
  H  H1302  1  0.576400  0.743000  0.554300  1.0
  H  H1303  1  0.743000  0.576400  0.054300  1.0
  H  H1304  1  0.423600  0.257000  0.445700  1.0
  H  H1305  1  0.177700  0.681300  0.322800  1.0
  H  H1306  1  0.318700  0.822300  0.177200  1.0
  H  H1307  1  0.822300  0.318700  0.677200  1.0
  H  H1308  1  0.681300  0.177700  0.822800  1.0
  H  H1309  1  0.154300  0.785900  0.321500  1.0
  H  H1310  1  0.214100  0.845700  0.178500  1.0
  H  H1311  1  0.845700  0.214100  0.678500  1.0
  H  H1312  1  0.785900  0.154300  0.821500  1.0
  H  H1313  1  0.101000  0.836800  0.277000  1.0
  H  H1314  1  0.163200  0.899000  0.223000  1.0
  H  H1315  1  0.899000  0.163200  0.723000  1.0
  H  H1316  1  0.836800  0.101000  0.777000  1.0
  H  H1317  1  0.070600  0.780200  0.236600  1.0
  H  H1318  1  0.219800  0.929400  0.263400  1.0
  H  H1319  1  0.929400  0.219800  0.763400  1.0
  H  H1320  1  0.780200  0.070600  0.736600  1.0
  H  H1321  1  0.187900  0.565900  0.324200  1.0
  H  H1322  1  0.434100  0.812100  0.175800  1.0
  H  H1323  1  0.812100  0.434100  0.675800  1.0
  H  H1324  1  0.565900  0.187900  0.824200  1.0
  H  H1325  1  0.170500  0.465500  0.304300  1.0
  H  H1326  1  0.534500  0.829500  0.195700  1.0
  H  H1327  1  0.829500  0.534500  0.695700  1.0
  H  H1328  1  0.465500  0.170500  0.804300  1.0
  H  H1329  1  0.109500  0.433300  0.256000  1.0
  H  H1330  1  0.566700  0.890500  0.244000  1.0
  H  H1331  1  0.890500  0.566700  0.744000  1.0
  H  H1332  1  0.433300  0.109500  0.756000  1.0
  H  H1333  1  0.077600  0.487200  0.232100  1.0
  H  H1334  1  0.512800  0.922400  0.267900  1.0
  H  H1335  1  0.922400  0.512800  0.767900  1.0
  H  H1336  1  0.487200  0.077600  0.732100  1.0
  H  H1337  1  0.799500  0.418500  0.881500  1.0
  H  H1338  1  0.581500  0.200500  0.618500  1.0
  H  H1339  1  0.200500  0.581500  0.118500  1.0
  H  H1340  1  0.418500  0.799500  0.381500  1.0
  H  H1341  1  0.714200  0.369000  0.874400  1.0
  H  H1342  1  0.631000  0.285800  0.625600  1.0
  H  H1343  1  0.285800  0.631000  0.125600  1.0
  H  H1344  1  0.369000  0.714200  0.374400  1.0
  H  H1345  1  0.713400  0.315200  0.825600  1.0
  H  H1346  1  0.684800  0.286600  0.674400  1.0
  H  H1347  1  0.286600  0.684800  0.174400  1.0
  H  H1348  1  0.315200  0.713400  0.325600  1.0
  H  H1349  1  0.797900  0.312900  0.786300  1.0
  H  H1350  1  0.687100  0.202100  0.713700  1.0
  H  H1351  1  0.202100  0.687100  0.213700  1.0
  H  H1352  1  0.312900  0.797900  0.286300  1.0
  H  H1353  1  0.890700  0.469500  0.884700  1.0
  H  H1354  1  0.530500  0.109300  0.615300  1.0
  H  H1355  1  0.109300  0.530500  0.115300  1.0
  H  H1356  1  0.469500  0.890700  0.384700  1.0
  H  H1357  1  0.990200  0.509200  0.863100  1.0
  H  H1358  1  0.490800  0.009800  0.636900  1.0
  H  H1359  1  0.009800  0.490800  0.136900  1.0
  H  H1360  1  0.509200  0.990200  0.363100  1.0
  H  H1361  1  0.059100  0.503500  0.807200  1.0
  H  H1362  1  0.496500  0.940900  0.692800  1.0
  H  H1363  1  0.940900  0.496500  0.192800  1.0
  H  H1364  1  0.503500  0.059100  0.307200  1.0
  H  H1365  1  0.040500  0.463300  0.779100  1.0
  H  H1366  1  0.536700  0.959500  0.720900  1.0
  H  H1367  1  0.959500  0.536700  0.220900  1.0
  H  H1368  1  0.463300  0.040500  0.279100  1.0
  N  N1369  1  0.221210  0.883510  0.999620  1.0
  N  N1370  1  0.116490  0.778790  0.500380  1.0
  N  N1371  1  0.778790  0.116490  0.000380  1.0
  N  N1372  1  0.883510  0.221210  0.499620  1.0
  N  N1373  1  0.055390  0.828230  0.014230  1.0
  N  N1374  1  0.171770  0.944610  0.485770  1.0
  N  N1375  1  0.944610  0.171770  0.985770  1.0
  N  N1376  1  0.828230  0.055390  0.514230  1.0
  N  N1377  1  0.111150  0.845930  0.004800  1.0
  N  N1378  1  0.154070  0.888850  0.495200  1.0
  N  N1379  1  0.888850  0.154070  0.995200  1.0
  N  N1380  1  0.845930  0.111150  0.504800  1.0
  N  N1381  1  0.687670  0.767710  0.847160  1.0
  N  N1382  1  0.232290  0.312330  0.652840  1.0
  N  N1383  1  0.312330  0.232290  0.152840  1.0
  N  N1384  1  0.767710  0.687670  0.347160  1.0
  N  N1385  1  0.838800  0.851060  0.843310  1.0
  N  N1386  1  0.148940  0.161200  0.656690  1.0
  N  N1387  1  0.161200  0.148940  0.156690  1.0
  N  N1388  1  0.851060  0.838800  0.343310  1.0
  N  N1389  1  0.788710  0.820570  0.850390  1.0
  N  N1390  1  0.179430  0.211290  0.649610  1.0
  N  N1391  1  0.211290  0.179430  0.149610  1.0
  N  N1392  1  0.820570  0.788710  0.350390  1.0
  N  N1393  1  0.129780  0.941280  0.947980  1.0
  N  N1394  1  0.058720  0.870220  0.552020  1.0
  N  N1395  1  0.870220  0.058720  0.052020  1.0
  N  N1396  1  0.941280  0.129780  0.447980  1.0
  N  N1397  1  0.104840  0.791320  0.904500  1.0
  N  N1398  1  0.208680  0.895160  0.595500  1.0
  N  N1399  1  0.895160  0.208680  0.095500  1.0
  N  N1400  1  0.791320  0.104840  0.404500  1.0
  N  N1401  1  0.117450  0.836110  0.922640  1.0
  N  N1402  1  0.163890  0.882550  0.577360  1.0
  N  N1403  1  0.882550  0.163890  0.077360  1.0
  N  N1404  1  0.836110  0.117450  0.422640  1.0
  N  N1405  1  0.419390  0.338530  0.891990  1.0
  N  N1406  1  0.661470  0.580610  0.608010  1.0
  N  N1407  1  0.580610  0.661470  0.108010  1.0
  N  N1408  1  0.338530  0.419390  0.391990  1.0
  N  N1409  1  0.406480  0.510580  0.916320  1.0
  N  N1410  1  0.489420  0.593520  0.583680  1.0
  N  N1411  1  0.593520  0.489420  0.083680  1.0
  N  N1412  1  0.510580  0.406480  0.416320  1.0
  N  N1413  1  0.402240  0.455080  0.905520  1.0
  N  N1414  1  0.544920  0.597760  0.594480  1.0
  N  N1415  1  0.597760  0.544920  0.094480  1.0
  N  N1416  1  0.455080  0.402240  0.405520  1.0
  N  N1417  1  0.246020  0.865780  0.923970  1.0
  N  N1418  1  0.134220  0.753980  0.576030  1.0
  N  N1419  1  0.753980  0.134220  0.076030  1.0
  N  N1420  1  0.865780  0.246020  0.423970  1.0
  N  N1421  1  0.229160  0.714760  0.984870  1.0
  N  N1422  1  0.285240  0.770840  0.515130  1.0
  N  N1423  1  0.770840  0.285240  0.015130  1.0
  N  N1424  1  0.714760  0.229160  0.484870  1.0
  N  N1425  1  0.227080  0.768960  0.966090  1.0
  N  N1426  1  0.231040  0.772920  0.533910  1.0
  N  N1427  1  0.772920  0.231040  0.033910  1.0
  N  N1428  1  0.768960  0.227080  0.466090  1.0
  N  N1429  1  0.988340  0.636060  0.249640  1.0
  N  N1430  1  0.363940  0.011660  0.250360  1.0
  N  N1431  1  0.011660  0.363940  0.750360  1.0
  N  N1432  1  0.636060  0.988340  0.749640  1.0
  N  N1433  1  0.031270  0.767090  0.179170  1.0
  N  N1434  1  0.232910  0.968730  0.320830  1.0
  N  N1435  1  0.968730  0.232910  0.820830  1.0
  N  N1436  1  0.767090  0.031270  0.679170  1.0
  N  N1437  1  0.022560  0.716040  0.199520  1.0
  N  N1438  1  0.283960  0.977440  0.300480  1.0
  N  N1439  1  0.977440  0.283960  0.800480  1.0
  N  N1440  1  0.716040  0.022560  0.699520  1.0
  N  N1441  1  0.258550  0.146610  0.072650  1.0
  N  N1442  1  0.853390  0.741450  0.427350  1.0
  N  N1443  1  0.741450  0.853390  0.927350  1.0
  N  N1444  1  0.146610  0.258550  0.572650  1.0
  N  N1445  1  0.234670  0.325510  0.085780  1.0
  N  N1446  1  0.674490  0.765330  0.414220  1.0
  N  N1447  1  0.765330  0.674490  0.914220  1.0
  N  N1448  1  0.325510  0.234670  0.585780  1.0
  N  N1449  1  0.246710  0.263750  0.086050  1.0
  N  N1450  1  0.736250  0.753290  0.413950  1.0
  N  N1451  1  0.753290  0.736250  0.913950  1.0
  N  N1452  1  0.263750  0.246710  0.586050  1.0
  N  N1453  1  0.324950  0.099230  0.135440  1.0
  N  N1454  1  0.900770  0.675050  0.364560  1.0
  N  N1455  1  0.675050  0.900770  0.864560  1.0
  N  N1456  1  0.099230  0.324950  0.635440  1.0
  N  N1457  1  0.416890  0.213810  0.072990  1.0
  N  N1458  1  0.786190  0.583110  0.427010  1.0
  N  N1459  1  0.583110  0.786190  0.927010  1.0
  N  N1460  1  0.213810  0.416890  0.572990  1.0
  N  N1461  1  0.378110  0.178370  0.091810  1.0
  N  N1462  1  0.821630  0.621890  0.408190  1.0
  N  N1463  1  0.621890  0.821630  0.908190  1.0
  N  N1464  1  0.178370  0.378110  0.591810  1.0
  N  N1465  1  0.477910  0.426330  0.843300  1.0
  N  N1466  1  0.573670  0.522090  0.656700  1.0
  N  N1467  1  0.522090  0.573670  0.156700  1.0
  N  N1468  1  0.426330  0.477910  0.343300  1.0
  N  N1469  1  0.368780  0.326480  0.802260  1.0
  N  N1470  1  0.673520  0.631220  0.697740  1.0
  N  N1471  1  0.631220  0.673520  0.197740  1.0
  N  N1472  1  0.326480  0.368780  0.302260  1.0
  N  N1473  1  0.397790  0.364710  0.818430  1.0
  N  N1474  1  0.635290  0.602210  0.681570  1.0
  N  N1475  1  0.602210  0.635290  0.181570  1.0
  N  N1476  1  0.364710  0.397790  0.318430  1.0
  N  N1477  1  0.348190  0.492550  0.834280  1.0
  N  N1478  1  0.507450  0.651810  0.665720  1.0
  N  N1479  1  0.651810  0.507450  0.165720  1.0
  N  N1480  1  0.492550  0.348190  0.334280  1.0
  N  N1481  1  0.251170  0.378010  0.893890  1.0
  N  N1482  1  0.621990  0.748830  0.606110  1.0
  N  N1483  1  0.748830  0.621990  0.106110  1.0
  N  N1484  1  0.378010  0.251170  0.393890  1.0
  N  N1485  1  0.290870  0.412190  0.875370  1.0
  N  N1486  1  0.587810  0.709130  0.624630  1.0
  N  N1487  1  0.709130  0.587810  0.124630  1.0
  N  N1488  1  0.412190  0.290870  0.375370  1.0
  N  N1489  1  0.102100  0.698160  0.255810  1.0
  N  N1490  1  0.301840  0.897900  0.244190  1.0
  N  N1491  1  0.897900  0.301840  0.744190  1.0
  N  N1492  1  0.698160  0.102100  0.755810  1.0
  N  N1493  1  0.128370  0.516330  0.265410  1.0
  N  N1494  1  0.483670  0.871630  0.234590  1.0
  N  N1495  1  0.871630  0.483670  0.734590  1.0
  N  N1496  1  0.516330  0.128370  0.765410  1.0
  N  N1497  1  0.117320  0.576900  0.257410  1.0
  N  N1498  1  0.423100  0.882680  0.242590  1.0
  N  N1499  1  0.882680  0.423100  0.742590  1.0
  N  N1500  1  0.576900  0.117320  0.757410  1.0
  N  N1501  1  0.847580  0.361560  0.810390  1.0
  N  N1502  1  0.638440  0.152420  0.689610  1.0
  N  N1503  1  0.152420  0.638440  0.189610  1.0
  N  N1504  1  0.361560  0.847580  0.310390  1.0
  N  N1505  1  0.985770  0.458770  0.822330  1.0
  N  N1506  1  0.541230  0.014230  0.677670  1.0
  N  N1507  1  0.014230  0.541230  0.177670  1.0
  N  N1508  1  0.458770  0.985770  0.322330  1.0
  N  N1509  1  0.944880  0.422360  0.814230  1.0
  N  N1510  1  0.577640  0.055120  0.685770  1.0
  N  N1511  1  0.055120  0.577640  0.185770  1.0
  N  N1512  1  0.422360  0.944880  0.314230  1.0
  Ni  Ni1513  1  0.173182  0.853968  0.961346  1.0
  Ni  Ni1514  1  0.146032  0.826818  0.538654  1.0
  Ni  Ni1515  1  0.826818  0.146032  0.038654  1.0
  Ni  Ni1516  1  0.853968  0.173182  0.461346  1.0
  Ni  Ni1517  1  0.288014  0.184418  0.114005  1.0
  Ni  Ni1518  1  0.815582  0.711986  0.385995  1.0
  Ni  Ni1519  1  0.711986  0.815582  0.885995  1.0
  Ni  Ni1520  1  0.184418  0.288014  0.614005  1.0
  Ni  Ni1521  1  0.386165  0.414779  0.861542  1.0
  Ni  Ni1522  1  0.585221  0.613835  0.638458  1.0
  Ni  Ni1523  1  0.613835  0.585221  0.138458  1.0
  Ni  Ni1524  1  0.414779  0.386165  0.361542  1.0
  Ni  Ni1525  1  0.926740  0.361078  0.777703  1.0
  Ni  Ni1526  1  0.638922  0.073260  0.722297  1.0
  Ni  Ni1527  1  0.073260  0.638922  0.222297  1.0
  Ni  Ni1528  1  0.361078  0.926740  0.277703  1.0
  O  O1529  1  0.075100  0.348040  0.987570  1
  O  O1530  1  0.651960  0.924900  0.512430  1
  O  O1531  1  0.924900  0.651960  0.012430  1
  O  O1532  1  0.348040  0.075100  0.487570  1
  O  O1533  1  0.536700  0.583900  0.786000  1
  O  O1534  1  0.416100  0.463300  0.714000  1
  O  O1535  1  0.463300  0.416100  0.214000  1
  O  O1536  1  0.583900  0.536700  0.286000  1
  O  O1537  1  0.955850  0.360130  0.014600  1
  O  O1538  1  0.639870  0.044150  0.485400  1
  O  O1539  1  0.044150  0.639870  0.985400  1
  O  O1540  1  0.360130  0.955850  0.514600  1
