
#######################################################################
#
#                 Cambridge Crystallographic Data Centre
#                                CCDC 
#
#######################################################################
#
# If this CIF has been generated from an entry in the Cambridge 
# Structural Database, then it will include bibliographic, chemical, 
# crystal, experimental, refinement or atomic coordinate data resulting 
# from the CCDC's data processing and validation procedures.
#
#######################################################################

data_NOMSAK
_chemical_formula_moiety         
'C36 H60 N9 O6 Pd3 3+,3(F6 P1 1-),C2 H6 O1,C3 H6 O1,H2 O1'
_chemical_name_systematic        
"tris(\m~2~-nicotinato)-tris(N,N,N',N'-tetramethylethylenediamine)-tri-palladium(ii) tris(hexafluorophosphate) acetone ethanol solvate monohydrate"
_symmetry_cell_setting           orthorhombic
_symmetry_space_group_name_H-M   'P b c a'
_symmetry_Int_Tables_number      61
_space_group_name_Hall           '-P 2ac 2ab'
loop_
_symmetry_equiv_pos_site_id
_symmetry_equiv_pos_as_xyz
1 x,y,z
2 1/2-x,-y,1/2+z
3 -x,1/2+y,1/2-z
4 1/2+x,1/2-y,-z
5 -x,-y,-z
6 1/2+x,y,1/2-z
7 x,1/2-y,1/2+z
8 1/2-x,1/2+y,z
_cell_length_a                   22.0359(11)
_cell_length_b                   21.7383(10)
_cell_length_c                   25.4129(12)
_cell_angle_alpha                90
_cell_angle_beta                 90
_cell_angle_gamma                90
_cell_volume                     12173.4
_exptl_crystal_colour            yellow
_exptl_crystal_description       block
_cell_formula_units_Z            8
_exptl_crystal_recrystallization_method acetone/ethanol
loop_
_atom_site_label
_atom_site_type_symbol
_atom_site_fract_x
_atom_site_fract_y
_atom_site_fract_z
Pd1 Pd 0.04417(3) 0.87685(3) 0.14958(3)
Pd2 Pd 0.33214(3) 0.88993(3) 0.03365(3)
Pd3 Pd 0.25111(4) 1.10640(3) 0.23810(3)
O1 O 0.2281(4) 0.9366(4) -0.0450(3)
O2 O 0.2426(3) 0.8950(3) 0.0347(3)
O3 O 0.2931(4) 1.1662(3) 0.1328(3)
O4 O 0.2810(3) 1.0728(3) 0.1692(3)
O5 O -0.0083(3) 1.0132(3) 0.1396(3)
O6 O 0.0728(3) 0.9612(3) 0.1699(3)
N1 N 0.0269(5) 0.8576(4) 0.2268(4)
N2 N 0.0227(5) 0.7872(4) 0.1347(4)
N3 N 0.0643(3) 0.8972(3) 0.0730(3)
N4 N 0.3271(5) 0.7964(4) 0.0245(3)
N5 N 0.4234(4) 0.8772(4) 0.0432(3)
N6 N 0.3369(4) 0.9826(4) 0.0376(3)
N7 N 0.3354(4) 1.0949(5) 0.2710(3)
N8 N 0.2233(5) 1.1326(4) 0.3121(3)
N9 N 0.1669(4) 1.1157(4) 0.2055(3)
C1 C 0.0802(9) 0.8668(11) 0.2583(7)
H1 H 0.0929 0.9100 0.2559
H2 H 0.1129 0.8403 0.2454
H3 H 0.0712 0.8566 0.2950
C2 C -0.0224(9) 0.8960(9) 0.2481(6)
H4 H -0.0079 0.9384 0.2523
H5 H -0.0350 0.8799 0.2824
H6 H -0.0569 0.8954 0.2239
C3 C 0.0058(16) 0.7938(7) 0.2279(6)
H7 H 0.0258 0.7734 0.2581
H8 H -0.0382 0.7946 0.2356
C4 C 0.0138(8) 0.7581(6) 0.1860(5)
H9 H -0.0219 0.7307 0.1833
H10 H 0.0495 0.7316 0.1930
C5 C -0.0330(11) 0.7811(7) 0.1043(8)
H11 H -0.0271 0.7991 0.0693
H12 H -0.0660 0.8028 0.1223
H13 H -0.0434 0.7375 0.1008
C6 C 0.0693(13) 0.7545(7) 0.1058(10)
H14 H 0.0571 0.7115 0.1012
H15 H 0.1076 0.7563 0.1253
H16 H 0.0748 0.7737 0.0712
C7 C 0.1235(5) 0.8991(4) 0.0597(4)
H17 H 0.1531 0.8880 0.0852
C8 C 0.1425(4) 0.9166(4) 0.0101(4)
C9 C 0.0994(5) 0.9330(5) -0.0273(4)
H18 H 0.1113 0.9456 -0.0615
C10 C 0.0385(5) 0.9304(5) -0.0134(4)
H19 H 0.0080 0.9407 -0.0383
C11 C 0.0229(5) 0.9129(5) 0.0364(4)
H20 H -0.0188 0.9117 0.0455
C12 C 0.2104(5) 0.9175(4) -0.0033(4)
C13 C 0.2809(8) 0.7664(6) 0.0572(6)
H21 H 0.2405 0.7811 0.0468
H22 H 0.2881 0.7764 0.0943
H23 H 0.2831 0.7218 0.0523
C14 C 0.3141(6) 0.7837(5) -0.0315(4)
H24 H 0.3161 0.7392 -0.0378
H25 H 0.3442 0.8045 -0.0536
H26 H 0.2734 0.7988 -0.0403
C15 C 0.3890(7) 0.7725(6) 0.0383(5)
H27 H 0.3921 0.7670 0.0769
H28 H 0.3955 0.7320 0.0214
C16 C 0.4366(6) 0.8166(6) 0.0202(6)
H29 H 0.4772 0.8023 0.0316
H30 H 0.4364 0.8193 -0.0187
C17 C 0.4640(6) 0.9229(8) 0.0165(6)
H31 H 0.5061 0.9086 0.0183
H32 H 0.4606 0.9628 0.0343
H33 H 0.4518 0.9273 -0.0204
C18 C 0.4368(6) 0.8804(6) 0.1003(4)
H34 H 0.4121 0.8500 0.1190
H35 H 0.4274 0.9217 0.1134
H36 H 0.4799 0.8716 0.1061
C19 C 0.3194(4) 1.0137(4) 0.0802(4)
H37 H 0.3074 0.9910 0.1104
C20 C 0.3177(4) 1.0779(4) 0.0828(4)
C21 C 0.3371(5) 1.1113(5) 0.0396(4)
H38 H 0.3388 1.1549 0.0408
C22 C 0.3537(5) 1.0800(5) -0.0049(4)
H39 H 0.3657 1.1020 -0.0355
C23 C 0.3530(5) 1.0165(5) -0.0054(4)
H40 H 0.3642 0.9956 -0.0367
C24 C 0.2957(4) 1.1099(5) 0.1319(4)
C25 C 0.3643(6) 1.0387(7) 0.2560(6)
H41 H 0.4046 1.0365 0.2722
H42 H 0.3685 1.0374 0.2176
H43 H 0.3397 1.0038 0.2678
C26 C 0.3735(6) 1.1488(7) 0.2542(5)
H44 H 0.4141 1.1452 0.2696
H45 H 0.3545 1.1871 0.2662
H46 H 0.3767 1.1493 0.2157
C27 C 0.3261(6) 1.0975(6) 0.3290(5)
H47 H 0.3651 1.1073 0.3466
H48 H 0.3123 1.0569 0.3419
C28 C 0.2799(6) 1.1455(6) 0.3427(5)
H49 H 0.2711 1.1444 0.3809
H50 H 0.2955 1.1869 0.3337
C29 C 0.1837(7) 1.1873(6) 0.3140(5)
H51 H 0.1729 1.1961 0.3507
H52 H 0.1468 1.1794 0.2937
H53 H 0.2052 1.2226 0.2990
C30 C 0.1902(6) 1.0795(6) 0.3362(5)
H54 H 0.1784 1.0899 0.3723
H55 H 0.2166 1.0433 0.3365
H56 H 0.1537 1.0706 0.3154
C31 C 0.1339(5) 1.0657(4) 0.1949(3)
H57 H 0.1504 1.0264 0.2030
C32 C 0.0771(5) 1.0684(4) 0.1726(4)
C33 C 0.0531(5) 1.1263(5) 0.1613(4)
H58 H 0.0133 1.1299 0.1472
C34 C 0.0873(5) 1.1785(4) 0.1707(4)
H59 H 0.0723 1.2182 0.1621
C35 C 0.1442(5) 1.1709(4) 0.1930(4)
H60 H 0.1681 1.2064 0.1997
C36 C 0.0423(5) 1.0100(4) 0.1598(3)
P1 P 0.51052(14) 1.06339(14) 0.14389(12)
F1 F 0.5502(4) 1.1167(4) 0.1182(4)
F2 F 0.5429(5) 1.0741(8) 0.1965(4)
F3 F 0.4599(5) 1.1108(4) 0.1603(6)
F4 F 0.4699(4) 1.0101(4) 0.1689(4)
F5 F 0.4759(5) 1.0529(8) 0.0905(4)
F6 F 0.5593(5) 1.0175(5) 0.1246(6)
P2 P 0.41165(17) 1.25561(15) -0.08889(14)
F7 F 0.3803(5) 1.2434(4) -0.1439(4)
F8 F 0.4782(4) 1.2459(5) -0.1145(4)
F9 F 0.4180(6) 1.3273(4) -0.1053(5)
F10 F 0.4435(6) 1.2704(6) -0.0349(4)
F11 F 0.3500(5) 1.2706(9) -0.0660(5)
F12 F 0.4143(5) 1.1859(4) -0.0763(5)
P3 P 0.2798(5) 0.8588(2) 0.2069(2)
F13 F 0.2407(8) 0.9075(8) 0.2352(5)
F14 F 0.3267(7) 0.8603(8) 0.2531(9)
F15 F 0.3214(13) 0.9115(6) 0.1822(9)
F16 F 0.3255(10) 0.8107(5) 0.1807(6)
F17 F 0.2368(15) 0.8550(10) 0.1615(5)
F18 F 0.2504(9) 0.8049(8) 0.2359(6)
O7 O 0.2803(6) 0.9479(6) 0.3512(9)
C37 C 0.2392(8) 0.9127(8) 0.3690(7)
C38 C 0.1804(16) 0.9158(18) 0.349(2)
C39 C 0.2535(11) 0.8470(8) 0.3779(8)
O8 O -0.1284(4) 0.8713(4) 0.0265(3)
C40 C -0.1526(8) 0.9256(7) -0.0536(6)
C41 C -0.1729(7) 0.9116(6) 0.0005(6)
O9 O -0.0996(4) 0.9251(5) 0.1220(4)
loop_
_geom_bond_atom_site_label_1
_geom_bond_atom_site_label_2
_geom_bond_site_symmetry_1
_geom_bond_site_symmetry_2
Pd1 O6 1_555 1_555
Pd2 O2 1_555 1_555
Pd3 O4 1_555 1_555
P1 F1 1_555 1_555
P2 F7 1_555 1_555
P3 F13 1_555 1_555
F2 P1 1_555 1_555
F3 P1 1_555 1_555
F4 P1 1_555 1_555
F5 P1 1_555 1_555
F6 P1 1_555 1_555
F8 P2 1_555 1_555
F9 P2 1_555 1_555
F10 P2 1_555 1_555
F11 P2 1_555 1_555
F12 P2 1_555 1_555
F14 P3 1_555 1_555
F15 P3 1_555 1_555
F16 P3 1_555 1_555
F17 P3 1_555 1_555
F18 P3 1_555 1_555
O1 C12 1_555 1_555
O2 C12 1_555 1_555
O3 C24 1_555 1_555
O4 C24 1_555 1_555
O5 C36 1_555 1_555
O6 C36 1_555 1_555
O7 C37 1_555 1_555
O8 C41 1_555 1_555
N1 Pd1 1_555 1_555
N2 Pd1 1_555 1_555
N3 Pd1 1_555 1_555
N4 Pd2 1_555 1_555
N5 Pd2 1_555 1_555
N6 Pd2 1_555 1_555
N7 Pd3 1_555 1_555
N8 Pd3 1_555 1_555
N9 Pd3 1_555 1_555
C1 N1 1_555 1_555
H1 C1 1_555 1_555
H2 C1 1_555 1_555
H3 C1 1_555 1_555
C2 N1 1_555 1_555
H4 C2 1_555 1_555
H5 C2 1_555 1_555
H6 C2 1_555 1_555
C3 N1 1_555 1_555
H7 C3 1_555 1_555
H8 C3 1_555 1_555
C4 N2 1_555 1_555
H9 C4 1_555 1_555
H10 C4 1_555 1_555
C5 N2 1_555 1_555
H11 C5 1_555 1_555
H12 C5 1_555 1_555
H13 C5 1_555 1_555
C6 N2 1_555 1_555
H14 C6 1_555 1_555
H15 C6 1_555 1_555
H16 C6 1_555 1_555
C7 N3 1_555 1_555
H17 C7 1_555 1_555
C8 C7 1_555 1_555
C9 C8 1_555 1_555
H18 C9 1_555 1_555
C10 C9 1_555 1_555
H19 C10 1_555 1_555
C11 N3 1_555 1_555
H20 C11 1_555 1_555
C12 C8 1_555 1_555
C13 N4 1_555 1_555
H21 C13 1_555 1_555
H22 C13 1_555 1_555
H23 C13 1_555 1_555
C14 N4 1_555 1_555
H24 C14 1_555 1_555
H25 C14 1_555 1_555
H26 C14 1_555 1_555
C15 N4 1_555 1_555
H27 C15 1_555 1_555
H28 C15 1_555 1_555
C16 N5 1_555 1_555
H29 C16 1_555 1_555
H30 C16 1_555 1_555
C17 N5 1_555 1_555
H31 C17 1_555 1_555
H32 C17 1_555 1_555
H33 C17 1_555 1_555
C18 N5 1_555 1_555
H34 C18 1_555 1_555
H35 C18 1_555 1_555
H36 C18 1_555 1_555
C19 N6 1_555 1_555
H37 C19 1_555 1_555
C20 C19 1_555 1_555
C21 C20 1_555 1_555
H38 C21 1_555 1_555
C22 C21 1_555 1_555
H39 C22 1_555 1_555
C23 N6 1_555 1_555
H40 C23 1_555 1_555
C24 C20 1_555 1_555
C25 N7 1_555 1_555
H41 C25 1_555 1_555
H42 C25 1_555 1_555
H43 C25 1_555 1_555
C26 N7 1_555 1_555
H44 C26 1_555 1_555
H45 C26 1_555 1_555
H46 C26 1_555 1_555
C27 N7 1_555 1_555
H47 C27 1_555 1_555
H48 C27 1_555 1_555
C28 N8 1_555 1_555
H49 C28 1_555 1_555
H50 C28 1_555 1_555
C29 N8 1_555 1_555
H51 C29 1_555 1_555
H52 C29 1_555 1_555
H53 C29 1_555 1_555
C30 N8 1_555 1_555
H54 C30 1_555 1_555
H55 C30 1_555 1_555
H56 C30 1_555 1_555
C31 N9 1_555 1_555
H57 C31 1_555 1_555
C32 C31 1_555 1_555
C33 C32 1_555 1_555
H58 C33 1_555 1_555
C34 C33 1_555 1_555
H59 C34 1_555 1_555
C35 N9 1_555 1_555
H60 C35 1_555 1_555
C36 C32 1_555 1_555
C37 C38 1_555 1_555
C39 C37 1_555 1_555
C40 C41 1_555 1_555
C3 C4 1_555 1_555
C10 C11 1_555 1_555
C15 C16 1_555 1_555
C22 C23 1_555 1_555
C27 C28 1_555 1_555
C34 C35 1_555 1_555

#END
