# generated using pymatgen
data_P3H60Pd3C41N9(OF2)9
_symmetry_space_group_name_H-M   'P 1'
_cell_length_a   21.73830000
_cell_length_b   22.03590000
_cell_length_c   25.41290000
_cell_angle_alpha   90.00000000
_cell_angle_beta   90.00000000
_cell_angle_gamma   90.00000000
_symmetry_Int_Tables_number   1
_chemical_formula_structural   P3H60Pd3C41N9(OF2)9
_chemical_formula_sum   'P24 H480 Pd24 C328 N72 O72 F144'
_cell_volume   12173.36372300
_cell_formula_units_Z   8
loop_
 _symmetry_equiv_pos_site_id
 _symmetry_equiv_pos_as_xyz
  1  'x, y, z'
loop_
 _atom_site_type_symbol
 _atom_site_label
 _atom_site_symmetry_multiplicity
 _atom_site_fract_x
 _atom_site_fract_y
 _atom_site_fract_z
 _atom_site_occupancy
  P  P1  1  0.936610  0.489480  0.856110  1
  P  P2  1  0.063390  0.010520  0.356110  1
  P  P3  1  0.436610  0.510520  0.643890  1
  P  P4  1  0.563390  0.989480  0.143890  1
  P  P5  1  0.063390  0.510520  0.143890  1
  P  P6  1  0.936610  0.989480  0.643890  1
  P  P7  1  0.563390  0.489480  0.356110  1
  P  P8  1  0.436610  0.010520  0.856110  1
  P  P9  1  0.744390  0.588350  0.088890  1
  P  P10  1  0.255610  0.911650  0.588890  1
  P  P11  1  0.244390  0.411650  0.411110  1
  P  P12  1  0.755610  0.088350  0.911110  1
  P  P13  1  0.255610  0.411650  0.911110  1
  P  P14  1  0.744390  0.088350  0.411110  1
  P  P15  1  0.755610  0.588350  0.588890  1
  P  P16  1  0.244390  0.911650  0.088890  1
  P  P17  1  0.141200  0.720200  0.793100  1
  P  P18  1  0.858800  0.779800  0.293100  1
  P  P19  1  0.641200  0.279800  0.706900  1
  P  P20  1  0.358800  0.220200  0.206900  1
  P  P21  1  0.858800  0.279800  0.206900  1
  P  P22  1  0.141200  0.220200  0.706900  1
  P  P23  1  0.358800  0.720200  0.293100  1
  P  P24  1  0.641200  0.779800  0.793100  1
  H  H25  1  0.090000  0.907100  0.744100  1
  H  H26  1  0.910000  0.592900  0.244100  1
  H  H27  1  0.590000  0.092900  0.755900  1
  H  H28  1  0.410000  0.407100  0.255900  1
  H  H29  1  0.910000  0.092900  0.255900  1
  H  H30  1  0.090000  0.407100  0.755900  1
  H  H31  1  0.410000  0.907100  0.244100  1
  H  H32  1  0.590000  0.592900  0.744100  1
  H  H33  1  0.159700  0.887100  0.754600  1
  H  H34  1  0.840300  0.612900  0.254600  1
  H  H35  1  0.659700  0.112900  0.745400  1
  H  H36  1  0.340300  0.387100  0.245400  1
  H  H37  1  0.840300  0.112900  0.245400  1
  H  H38  1  0.159700  0.387100  0.745400  1
  H  H39  1  0.340300  0.887100  0.254600  1
  H  H40  1  0.659700  0.612900  0.754600  1
  H  H41  1  0.143400  0.928800  0.705000  1
  H  H42  1  0.856600  0.571200  0.205000  1
  H  H43  1  0.643400  0.071200  0.795000  1
  H  H44  1  0.356600  0.428800  0.295000  1
  H  H45  1  0.856600  0.071200  0.295000  1
  H  H46  1  0.143400  0.428800  0.795000  1
  H  H47  1  0.356600  0.928800  0.205000  1
  H  H48  1  0.643400  0.571200  0.705000  1
  H  H49  1  0.061600  0.007900  0.747700  1
  H  H50  1  0.938400  0.492100  0.247700  1
  H  H51  1  0.561600  0.992100  0.752300  1
  H  H52  1  0.438400  0.507900  0.252300  1
  H  H53  1  0.938400  0.992100  0.252300  1
  H  H54  1  0.061600  0.507900  0.752300  1
  H  H55  1  0.438400  0.007900  0.247700  1
  H  H56  1  0.561600  0.492100  0.747700  1
  H  H57  1  0.120100  0.035000  0.717600  1
  H  H58  1  0.879900  0.465000  0.217600  1
  H  H59  1  0.620100  0.965000  0.782400  1
  H  H60  1  0.379900  0.535000  0.282400  1
  H  H61  1  0.879900  0.965000  0.282400  1
  H  H62  1  0.120100  0.535000  0.782400  1
  H  H63  1  0.379900  0.035000  0.217600  1
  H  H64  1  0.620100  0.465000  0.717600  1
  H  H65  1  0.104600  0.056900  0.776100  1
  H  H66  1  0.895400  0.443100  0.276100  1
  H  H67  1  0.604600  0.943100  0.723900  1
  H  H68  1  0.395400  0.556900  0.223900  1
  H  H69  1  0.895400  0.943100  0.223900  1
  H  H70  1  0.104600  0.556900  0.723900  1
  H  H71  1  0.395400  0.056900  0.276100  1
  H  H72  1  0.604600  0.443100  0.776100  1
  H  H73  1  0.226600  0.974200  0.741900  1
  H  H74  1  0.773400  0.525800  0.241900  1
  H  H75  1  0.726600  0.025800  0.758100  1
  H  H76  1  0.273400  0.474200  0.258100  1
  H  H77  1  0.773400  0.025800  0.258100  1
  H  H78  1  0.226600  0.474200  0.758100  1
  H  H79  1  0.273400  0.974200  0.241900  1
  H  H80  1  0.726600  0.525800  0.741900  1
  H  H81  1  0.205400  0.038200  0.764400  1
  H  H82  1  0.794600  0.461800  0.264400  1
  H  H83  1  0.705400  0.961800  0.735600  1
  H  H84  1  0.294600  0.538200  0.235600  1
  H  H85  1  0.794600  0.961800  0.235600  1
  H  H86  1  0.205400  0.538200  0.735600  1
  H  H87  1  0.294600  0.038200  0.264400  1
  H  H88  1  0.705400  0.461800  0.764400  1
  H  H89  1  0.269300  0.021900  0.816700  1
  H  H90  1  0.730700  0.478100  0.316700  1
  H  H91  1  0.769300  0.978100  0.683300  1
  H  H92  1  0.230700  0.521900  0.183300  1
  H  H93  1  0.730700  0.978100  0.183300  1
  H  H94  1  0.269300  0.521900  0.683300  1
  H  H95  1  0.230700  0.021900  0.316700  1
  H  H96  1  0.769300  0.478100  0.816700  1
  H  H97  1  0.268400  0.950500  0.807000  1
  H  H98  1  0.731600  0.549500  0.307000  1
  H  H99  1  0.768400  0.049500  0.693000  1
  H  H100  1  0.231600  0.450500  0.193000  1
  H  H101  1  0.731600  0.049500  0.193000  1
  H  H102  1  0.268400  0.450500  0.693000  1
  H  H103  1  0.231600  0.950500  0.307000  1
  H  H104  1  0.768400  0.549500  0.807000  1
  H  H105  1  0.200900  0.027100  0.930700  1
  H  H106  1  0.799100  0.472900  0.430700  1
  H  H107  1  0.700900  0.972900  0.569300  1
  H  H108  1  0.299100  0.527100  0.069300  1
  H  H109  1  0.799100  0.972900  0.069300  1
  H  H110  1  0.200900  0.527100  0.569300  1
  H  H111  1  0.299100  0.027100  0.430700  1
  H  H112  1  0.700900  0.472900  0.930700  1
  H  H113  1  0.197200  0.066000  0.877700  1
  H  H114  1  0.802800  0.434000  0.377700  1
  H  H115  1  0.697200  0.934000  0.622300  1
  H  H116  1  0.302800  0.566000  0.122300  1
  H  H117  1  0.802800  0.934000  0.122300  1
  H  H118  1  0.197200  0.566000  0.622300  1
  H  H119  1  0.302800  0.066000  0.377700  1
  H  H120  1  0.697200  0.434000  0.877700  1
  H  H121  1  0.262500  0.043400  0.899200  1
  H  H122  1  0.737500  0.456600  0.399200  1
  H  H123  1  0.762500  0.956600  0.600800  1
  H  H124  1  0.237500  0.543400  0.100800  1
  H  H125  1  0.737500  0.956600  0.100800  1
  H  H126  1  0.262500  0.543400  0.600800  1
  H  H127  1  0.237500  0.043400  0.399200  1
  H  H128  1  0.762500  0.456600  0.899200  1
  H  H129  1  0.288500  0.942900  0.898800  1
  H  H130  1  0.711500  0.557100  0.398800  1
  H  H131  1  0.788500  0.057100  0.601200  1
  H  H132  1  0.211500  0.442900  0.101200  1
  H  H133  1  0.711500  0.057100  0.101200  1
  H  H134  1  0.288500  0.442900  0.601200  1
  H  H135  1  0.211500  0.942900  0.398800  1
  H  H136  1  0.788500  0.557100  0.898800  1
  H  H137  1  0.243700  0.892400  0.874700  1
  H  H138  1  0.756300  0.607600  0.374700  1
  H  H139  1  0.743700  0.107600  0.625300  1
  H  H140  1  0.256300  0.392400  0.125300  1
  H  H141  1  0.756300  0.107600  0.125300  1
  H  H142  1  0.243700  0.392400  0.625300  1
  H  H143  1  0.256300  0.892400  0.374700  1
  H  H144  1  0.743700  0.607600  0.874700  1
  H  H145  1  0.226300  0.925200  0.928800  1
  H  H146  1  0.773700  0.574800  0.428800  1
  H  H147  1  0.726300  0.074800  0.571200  1
  H  H148  1  0.273700  0.425200  0.071200  1
  H  H149  1  0.773700  0.074800  0.071200  1
  H  H150  1  0.226300  0.425200  0.571200  1
  H  H151  1  0.273700  0.925200  0.428800  1
  H  H152  1  0.726300  0.574800  0.928800  1
  H  H153  1  0.112000  0.846900  0.914800  1
  H  H154  1  0.888000  0.653100  0.414800  1
  H  H155  1  0.612000  0.153100  0.585200  1
  H  H156  1  0.388000  0.346900  0.085200  1
  H  H157  1  0.888000  0.153100  0.085200  1
  H  H158  1  0.112000  0.346900  0.585200  1
  H  H159  1  0.388000  0.846900  0.414800  1
  H  H160  1  0.612000  0.653100  0.914800  1
  H  H161  1  0.054400  0.888700  0.061500  1
  H  H162  1  0.945600  0.611300  0.561500  1
  H  H163  1  0.554400  0.111300  0.438500  1
  H  H164  1  0.445600  0.388700  0.938500  1
  H  H165  1  0.945600  0.111300  0.938500  1
  H  H166  1  0.054400  0.388700  0.438500  1
  H  H167  1  0.445600  0.888700  0.561500  1
  H  H168  1  0.554400  0.611300  0.061500  1
  H  H169  1  0.059300  0.992000  0.038300  1
  H  H170  1  0.940700  0.508000  0.538300  1
  H  H171  1  0.559300  0.008000  0.461700  1
  H  H172  1  0.440700  0.492000  0.961700  1
  H  H173  1  0.940700  0.008000  0.961700  1
  H  H174  1  0.059300  0.492000  0.461700  1
  H  H175  1  0.440700  0.992000  0.538300  1
  H  H176  1  0.559300  0.508000  0.038300  1
  H  H177  1  0.088300  0.018800  0.954500  1
  H  H178  1  0.911700  0.481200  0.454500  1
  H  H179  1  0.588300  0.981200  0.545500  1
  H  H180  1  0.411700  0.518800  0.045500  1
  H  H181  1  0.911700  0.981200  0.045500  1
  H  H182  1  0.088300  0.518800  0.545500  1
  H  H183  1  0.411700  0.018800  0.454500  1
  H  H184  1  0.588300  0.481200  0.954500  1
  H  H185  1  0.218900  0.759500  0.953200  1
  H  H186  1  0.781100  0.740500  0.453200  1
  H  H187  1  0.718900  0.240500  0.546800  1
  H  H188  1  0.281100  0.259500  0.046800  1
  H  H189  1  0.781100  0.240500  0.046800  1
  H  H190  1  0.218900  0.259500  0.546800  1
  H  H191  1  0.281100  0.759500  0.453200  1
  H  H192  1  0.718900  0.740500  0.953200  1
  H  H193  1  0.223600  0.711900  0.905700  1
  H  H194  1  0.776400  0.788100  0.405700  1
  H  H195  1  0.723600  0.288100  0.594300  1
  H  H196  1  0.276400  0.211900  0.094300  1
  H  H197  1  0.776400  0.288100  0.094300  1
  H  H198  1  0.223600  0.211900  0.594300  1
  H  H199  1  0.276400  0.711900  0.405700  1
  H  H200  1  0.723600  0.788100  0.905700  1
  H  H201  1  0.278200  0.716900  0.947700  1
  H  H202  1  0.721800  0.783100  0.447700  1
  H  H203  1  0.778200  0.283100  0.552300  1
  H  H204  1  0.221800  0.216900  0.052300  1
  H  H205  1  0.721800  0.283100  0.052300  1
  H  H206  1  0.278200  0.216900  0.552300  1
  H  H207  1  0.221800  0.716900  0.447700  1
  H  H208  1  0.778200  0.783100  0.947700  1
  H  H209  1  0.260800  0.683900  0.037800  1
  H  H210  1  0.739200  0.816100  0.537800  1
  H  H211  1  0.760800  0.316100  0.462200  1
  H  H212  1  0.239200  0.183900  0.962200  1
  H  H213  1  0.739200  0.316100  0.962200  1
  H  H214  1  0.260800  0.183900  0.462200  1
  H  H215  1  0.239200  0.683900  0.537800  1
  H  H216  1  0.760800  0.816100  0.037800  1
  H  H217  1  0.195500  0.655800  0.053600  1
  H  H218  1  0.804500  0.844200  0.553600  1
  H  H219  1  0.695500  0.344200  0.446400  1
  H  H220  1  0.304500  0.155800  0.946400  1
  H  H221  1  0.804500  0.344200  0.946400  1
  H  H222  1  0.195500  0.155800  0.446400  1
  H  H223  1  0.304500  0.655800  0.553600  1
  H  H224  1  0.695500  0.844200  0.053600  1
  H  H225  1  0.201200  0.726600  0.040300  1
  H  H226  1  0.798800  0.773400  0.540300  1
  H  H227  1  0.701200  0.273400  0.459700  1
  H  H228  1  0.298800  0.226600  0.959700  1
  H  H229  1  0.798800  0.273400  0.959700  1
  H  H230  1  0.201200  0.226600  0.459700  1
  H  H231  1  0.298800  0.726600  0.540300  1
  H  H232  1  0.701200  0.773400  0.040300  1
  H  H233  1  0.233000  0.607900  0.923100  1
  H  H234  1  0.767000  0.892100  0.423100  1
  H  H235  1  0.733000  0.392100  0.576900  1
  H  H236  1  0.267000  0.107900  0.076900  1
  H  H237  1  0.767000  0.392100  0.076900  1
  H  H238  1  0.233000  0.107900  0.576900  1
  H  H239  1  0.267000  0.607900  0.423100  1
  H  H240  1  0.733000  0.892100  0.923100  1
  H  H241  1  0.268000  0.604500  0.978600  1
  H  H242  1  0.732000  0.895500  0.478600  1
  H  H243  1  0.768000  0.395500  0.521400  1
  H  H244  1  0.232000  0.104500  0.021400  1
  H  H245  1  0.732000  0.395500  0.021400  1
  H  H246  1  0.268000  0.104500  0.521400  1
  H  H247  1  0.232000  0.604500  0.478600  1
  H  H248  1  0.768000  0.895500  0.978600  1
  H  H249  1  0.197700  0.522800  0.968400  1
  H  H250  1  0.802300  0.977200  0.468400  1
  H  H251  1  0.697700  0.477200  0.531600  1
  H  H252  1  0.302300  0.022800  0.031600  1
  H  H253  1  0.802300  0.477200  0.031600  1
  H  H254  1  0.197700  0.022800  0.531600  1
  H  H255  1  0.302300  0.522800  0.468400  1
  H  H256  1  0.697700  0.977200  0.968400  1
  H  H257  1  0.180700  0.563600  0.018700  1
  H  H258  1  0.819300  0.936400  0.518700  1
  H  H259  1  0.680700  0.436400  0.481300  1
  H  H260  1  0.319300  0.063600  0.981300  1
  H  H261  1  0.819300  0.436400  0.981300  1
  H  H262  1  0.180700  0.063600  0.481300  1
  H  H263  1  0.319300  0.563600  0.518700  1
  H  H264  1  0.680700  0.936400  0.018700  1
  H  H265  1  0.091400  0.493900  0.981700  1
  H  H266  1  0.908600  0.006100  0.481700  1
  H  H267  1  0.591400  0.506100  0.518300  1
  H  H268  1  0.408600  0.993900  0.018300  1
  H  H269  1  0.908600  0.506100  0.018300  1
  H  H270  1  0.091400  0.993900  0.518300  1
  H  H271  1  0.408600  0.493900  0.481700  1
  H  H272  1  0.591400  0.006100  0.981700  1
  H  H273  1  0.037200  0.539400  0.965700  1
  H  H274  1  0.962800  0.960600  0.465700  1
  H  H275  1  0.537200  0.460600  0.534300  1
  H  H276  1  0.462800  0.039400  0.034300  1
  H  H277  1  0.962800  0.460600  0.034300  1
  H  H278  1  0.037200  0.039400  0.534300  1
  H  H279  1  0.462800  0.539400  0.465700  1
  H  H280  1  0.537200  0.960600  0.965700  1
  H  H281  1  0.072700  0.548200  0.020400  1
  H  H282  1  0.927300  0.951800  0.520400  1
  H  H283  1  0.572700  0.451800  0.479600  1
  H  H284  1  0.427300  0.048200  0.979600  1
  H  H285  1  0.927300  0.451800  0.979600  1
  H  H286  1  0.072700  0.048200  0.479600  1
  H  H287  1  0.427300  0.548200  0.520400  1
  H  H288  1  0.572700  0.951800  0.020400  1
  H  H289  1  0.150000  0.587900  0.881000  1
  H  H290  1  0.850000  0.912100  0.381000  1
  H  H291  1  0.650000  0.412100  0.619000  1
  H  H292  1  0.350000  0.087900  0.119000  1
  H  H293  1  0.850000  0.412100  0.119000  1
  H  H294  1  0.150000  0.087900  0.619000  1
  H  H295  1  0.350000  0.587900  0.381000  1
  H  H296  1  0.650000  0.912100  0.881000  1
  H  H297  1  0.078300  0.572600  0.886600  1
  H  H298  1  0.921700  0.927400  0.386600  1
  H  H299  1  0.578300  0.427400  0.613400  1
  H  H300  1  0.421700  0.072600  0.113400  1
  H  H301  1  0.921700  0.427400  0.113400  1
  H  H302  1  0.078300  0.072600  0.613400  1
  H  H303  1  0.421700  0.572600  0.386600  1
  H  H304  1  0.578300  0.927400  0.886600  1
  H  H305  1  0.128400  0.520100  0.893900  1
  H  H306  1  0.871600  0.979900  0.393900  1
  H  H307  1  0.628400  0.479900  0.606100  1
  H  H308  1  0.371600  0.020100  0.106100  1
  H  H309  1  0.871600  0.479900  0.106100  1
  H  H310  1  0.128400  0.020100  0.606100  1
  H  H311  1  0.371600  0.520100  0.393900  1
  H  H312  1  0.628400  0.979900  0.893900  1
  H  H313  1  0.009000  0.692600  0.889600  1
  H  H314  1  0.991000  0.807400  0.389600  1
  H  H315  1  0.509000  0.307400  0.610400  1
  H  H316  1  0.491000  0.192600  0.110400  1
  H  H317  1  0.991000  0.307400  0.110400  1
  H  H318  1  0.009000  0.192600  0.610400  1
  H  H319  1  0.491000  0.692600  0.389600  1
  H  H320  1  0.509000  0.807400  0.889600  1
  H  H321  1  0.845100  0.661200  0.959200  1
  H  H322  1  0.154900  0.838800  0.459200  1
  H  H323  1  0.345100  0.338800  0.540800  1
  H  H324  1  0.654900  0.161200  0.040800  1
  H  H325  1  0.154900  0.338800  0.040800  1
  H  H326  1  0.845100  0.161200  0.540800  1
  H  H327  1  0.654900  0.661200  0.459200  1
  H  H328  1  0.345100  0.838800  0.959200  1
  H  H329  1  0.898000  0.634300  0.035500  1
  H  H330  1  0.102000  0.865700  0.535500  1
  H  H331  1  0.398000  0.365700  0.464500  1
  H  H332  1  0.602000  0.134300  0.964500  1
  H  H333  1  0.102000  0.365700  0.964500  1
  H  H334  1  0.898000  0.134300  0.464500  1
  H  H335  1  0.602000  0.634300  0.535500  1
  H  H336  1  0.398000  0.865700  0.035500  1
  H  H337  1  0.004400  0.635800  0.036700  1
  H  H338  1  0.995600  0.864200  0.536700  1
  H  H339  1  0.504400  0.364200  0.463300  1
  H  H340  1  0.495600  0.135800  0.963300  1
  H  H341  1  0.995600  0.364200  0.963300  1
  H  H342  1  0.004400  0.135800  0.463300  1
  H  H343  1  0.495600  0.635800  0.536700  1
  H  H344  1  0.504400  0.864200  0.036700  1
  H  H345  1  0.963500  0.595400  0.727800  1
  H  H346  1  0.036500  0.904600  0.227800  1
  H  H347  1  0.463500  0.404600  0.772200  1
  H  H348  1  0.536500  0.095400  0.272200  1
  H  H349  1  0.036500  0.404600  0.272200  1
  H  H350  1  0.963500  0.095400  0.772200  1
  H  H351  1  0.536500  0.595400  0.227800  1
  H  H352  1  0.463500  0.904600  0.727800  1
  H  H353  1  0.962600  0.631500  0.782400  1
  H  H354  1  0.037400  0.868500  0.282400  1
  H  H355  1  0.462600  0.368500  0.717600  1
  H  H356  1  0.537400  0.131500  0.217600  1
  H  H357  1  0.037400  0.368500  0.217600  1
  H  H358  1  0.962600  0.131500  0.717600  1
  H  H359  1  0.537400  0.631500  0.282400  1
  H  H360  1  0.462600  0.868500  0.782400  1
  H  H361  1  0.996200  0.660300  0.732200  1
  H  H362  1  0.003800  0.839700  0.232200  1
  H  H363  1  0.496200  0.339700  0.767800  1
  H  H364  1  0.503800  0.160300  0.267800  1
  H  H365  1  0.003800  0.339700  0.267800  1
  H  H366  1  0.996200  0.160300  0.767800  1
  H  H367  1  0.503800  0.660300  0.232200  1
  H  H368  1  0.496200  0.839700  0.732200  1
  H  H369  1  0.854800  0.585900  0.730400  1
  H  H370  1  0.145200  0.914100  0.230400  1
  H  H371  1  0.354800  0.414100  0.769600  1
  H  H372  1  0.645200  0.085900  0.269600  1
  H  H373  1  0.145200  0.414100  0.269600  1
  H  H374  1  0.854800  0.085900  0.769600  1
  H  H375  1  0.645200  0.585900  0.230400  1
  H  H376  1  0.354800  0.914100  0.730400  1
  H  H377  1  0.812900  0.645500  0.733800  1
  H  H378  1  0.187100  0.854500  0.233800  1
  H  H379  1  0.312900  0.354500  0.766200  1
  H  H380  1  0.687100  0.145500  0.266200  1
  H  H381  1  0.187100  0.354500  0.266200  1
  H  H382  1  0.812900  0.145500  0.766200  1
  H  H383  1  0.687100  0.645500  0.233800  1
  H  H384  1  0.312900  0.854500  0.733800  1
  H  H385  1  0.850700  0.623300  0.784300  1
  H  H386  1  0.149300  0.876700  0.284300  1
  H  H387  1  0.350700  0.376700  0.715700  1
  H  H388  1  0.649300  0.123300  0.215700  1
  H  H389  1  0.149300  0.376700  0.215700  1
  H  H390  1  0.850700  0.123300  0.715700  1
  H  H391  1  0.649300  0.623300  0.284300  1
  H  H392  1  0.350700  0.876700  0.784300  1
  H  H393  1  0.892700  0.634900  0.653400  1
  H  H394  1  0.107300  0.865100  0.153400  1
  H  H395  1  0.392700  0.365100  0.846600  1
  H  H396  1  0.607300  0.134900  0.346600  1
  H  H397  1  0.107300  0.365100  0.346600  1
  H  H398  1  0.892700  0.134900  0.846600  1
  H  H399  1  0.607300  0.634900  0.153400  1
  H  H400  1  0.392700  0.865100  0.653400  1
  H  H401  1  0.943100  0.687700  0.658100  1
  H  H402  1  0.056900  0.812300  0.158100  1
  H  H403  1  0.443100  0.312300  0.841900  1
  H  H404  1  0.556900  0.187700  0.341900  1
  H  H405  1  0.056900  0.312300  0.341900  1
  H  H406  1  0.943100  0.187700  0.841900  1
  H  H407  1  0.556900  0.687700  0.158100  1
  H  H408  1  0.443100  0.812300  0.658100  1
  H  H409  1  0.855600  0.728900  0.619100  1
  H  H410  1  0.144400  0.771100  0.119100  1
  H  H411  1  0.355600  0.271100  0.880900  1
  H  H412  1  0.644400  0.228900  0.380900  1
  H  H413  1  0.144400  0.271100  0.380900  1
  H  H414  1  0.855600  0.228900  0.880900  1
  H  H415  1  0.644400  0.728900  0.119100  1
  H  H416  1  0.355600  0.771100  0.619100  1
  H  H417  1  0.813100  0.704500  0.666300  1
  H  H418  1  0.186900  0.795500  0.166300  1
  H  H419  1  0.313100  0.295500  0.833700  1
  H  H420  1  0.686900  0.204500  0.333700  1
  H  H421  1  0.186900  0.295500  0.333700  1
  H  H422  1  0.813100  0.204500  0.833700  1
  H  H423  1  0.686900  0.704500  0.166300  1
  H  H424  1  0.313100  0.795500  0.666300  1
  H  H425  1  0.803900  0.827100  0.649300  1
  H  H426  1  0.196100  0.672900  0.149300  1
  H  H427  1  0.303900  0.172900  0.850700  1
  H  H428  1  0.696100  0.327100  0.350700  1
  H  H429  1  0.196100  0.172900  0.350700  1
  H  H430  1  0.803900  0.327100  0.850700  1
  H  H431  1  0.696100  0.827100  0.149300  1
  H  H432  1  0.303900  0.672900  0.649300  1
  H  H433  1  0.820600  0.853200  0.706300  1
  H  H434  1  0.179400  0.646800  0.206300  1
  H  H435  1  0.320600  0.146800  0.793700  1
  H  H436  1  0.679400  0.353200  0.293700  1
  H  H437  1  0.179400  0.146800  0.293700  1
  H  H438  1  0.820600  0.353200  0.793700  1
  H  H439  1  0.679400  0.853200  0.206300  1
  H  H440  1  0.320600  0.646800  0.706300  1
  H  H441  1  0.777400  0.794800  0.701000  1
  H  H442  1  0.222600  0.705200  0.201000  1
  H  H443  1  0.277400  0.205200  0.799000  1
  H  H444  1  0.722600  0.294800  0.299000  1
  H  H445  1  0.222600  0.205200  0.299000  1
  H  H446  1  0.777400  0.294800  0.799000  1
  H  H447  1  0.722600  0.794800  0.201000  1
  H  H448  1  0.277400  0.705200  0.701000  1
  H  H449  1  0.910100  0.821600  0.627700  1
  H  H450  1  0.089900  0.678400  0.127700  1
  H  H451  1  0.410100  0.178400  0.872300  1
  H  H452  1  0.589900  0.321600  0.372300  1
  H  H453  1  0.089900  0.178400  0.372300  1
  H  H454  1  0.910100  0.321600  0.872300  1
  H  H455  1  0.589900  0.821600  0.127700  1
  H  H456  1  0.410100  0.678400  0.627700  1
  H  H457  1  0.956700  0.783400  0.663500  1
  H  H458  1  0.043300  0.716600  0.163500  1
  H  H459  1  0.456700  0.216600  0.836500  1
  H  H460  1  0.543300  0.283400  0.336500  1
  H  H461  1  0.043300  0.216600  0.336500  1
  H  H462  1  0.956700  0.283400  0.836500  1
  H  H463  1  0.543300  0.783400  0.163500  1
  H  H464  1  0.456700  0.716600  0.663500  1
  H  H465  1  0.929400  0.846300  0.684600  1
  H  H466  1  0.070600  0.653700  0.184600  1
  H  H467  1  0.429400  0.153700  0.815400  1
  H  H468  1  0.570600  0.346300  0.315400  1
  H  H469  1  0.070600  0.153700  0.315400  1
  H  H470  1  0.929400  0.346300  0.815400  1
  H  H471  1  0.570600  0.846300  0.184600  1
  H  H472  1  0.429400  0.653700  0.684600  1
  H  H473  1  0.973600  0.849600  0.797000  1
  H  H474  1  0.026400  0.650400  0.297000  1
  H  H475  1  0.473600  0.150400  0.703000  1
  H  H476  1  0.526400  0.349600  0.203000  1
  H  H477  1  0.026400  0.150400  0.203000  1
  H  H478  1  0.973600  0.349600  0.703000  1
  H  H479  1  0.526400  0.849600  0.297000  1
  H  H480  1  0.473600  0.650400  0.797000  1
  H  H481  1  0.870100  0.986700  0.852800  1
  H  H482  1  0.129900  0.513300  0.352800  1
  H  H483  1  0.370100  0.013300  0.647200  1
  H  H484  1  0.629900  0.486700  0.147200  1
  H  H485  1  0.129900  0.013300  0.147200  1
  H  H486  1  0.870100  0.486700  0.647200  1
  H  H487  1  0.629900  0.986700  0.352800  1
  H  H488  1  0.370100  0.513300  0.852800  1
  H  H489  1  0.781800  0.927700  0.837900  1
  H  H490  1  0.218200  0.572300  0.337900  1
  H  H491  1  0.281800  0.072300  0.662100  1
  H  H492  1  0.718200  0.427700  0.162100  1
  H  H493  1  0.218200  0.072300  0.162100  1
  H  H494  1  0.781800  0.427700  0.662100  1
  H  H495  1  0.718200  0.927700  0.337900  1
  H  H496  1  0.281800  0.572300  0.837900  1
  H  H497  1  0.793600  0.831900  0.800300  1
  H  H498  1  0.206400  0.668100  0.300300  1
  H  H499  1  0.293600  0.168100  0.699700  1
  H  H500  1  0.706400  0.331900  0.199700  1
  H  H501  1  0.206400  0.168100  0.199700  1
  H  H502  1  0.793600  0.331900  0.699700  1
  H  H503  1  0.706400  0.831900  0.300300  1
  H  H504  1  0.293600  0.668100  0.800300  1
  Pd  Pd505  1  0.123150  0.955830  0.850420  1
  Pd  Pd506  1  0.876850  0.544170  0.350420  1
  Pd  Pd507  1  0.623150  0.044170  0.649580  1
  Pd  Pd508  1  0.376850  0.455830  0.149580  1
  Pd  Pd509  1  0.876850  0.044170  0.149580  1
  Pd  Pd510  1  0.123150  0.455830  0.649580  1
  Pd  Pd511  1  0.376850  0.955830  0.350420  1
  Pd  Pd512  1  0.623150  0.544170  0.850420  1
  Pd  Pd513  1  0.110070  0.667860  0.966350  1
  Pd  Pd514  1  0.889930  0.832140  0.466350  1
  Pd  Pd515  1  0.610070  0.332140  0.533650  1
  Pd  Pd516  1  0.389930  0.167860  0.033650  1
  Pd  Pd517  1  0.889930  0.332140  0.033650  1
  Pd  Pd518  1  0.110070  0.167860  0.533650  1
  Pd  Pd519  1  0.389930  0.667860  0.466350  1
  Pd  Pd520  1  0.610070  0.832140  0.966350  1
  Pd  Pd521  1  0.893600  0.748890  0.761900  1
  Pd  Pd522  1  0.106400  0.751110  0.261900  1
  Pd  Pd523  1  0.393600  0.251110  0.738100  1
  Pd  Pd524  1  0.606400  0.248890  0.238100  1
  Pd  Pd525  1  0.106400  0.251110  0.238100  1
  Pd  Pd526  1  0.893600  0.248890  0.738100  1
  Pd  Pd527  1  0.606400  0.748890  0.261900  1
  Pd  Pd528  1  0.393600  0.751110  0.761900  1
  C  C529  1  0.133200  0.919800  0.741700  1
  C  C530  1  0.866800  0.580200  0.241700  1
  C  C531  1  0.633200  0.080200  0.758300  1
  C  C532  1  0.366800  0.419800  0.258300  1
  C  C533  1  0.866800  0.080200  0.258300  1
  C  C534  1  0.133200  0.419800  0.758300  1
  C  C535  1  0.366800  0.919800  0.241700  1
  C  C536  1  0.633200  0.580200  0.741700  1
  C  C537  1  0.104000  0.022400  0.751900  1
  C  C538  1  0.896000  0.477600  0.251900  1
  C  C539  1  0.604000  0.977600  0.748100  1
  C  C540  1  0.396000  0.522400  0.248100  1
  C  C541  1  0.896000  0.977600  0.248100  1
  C  C542  1  0.104000  0.522400  0.748100  1
  C  C543  1  0.396000  0.022400  0.251900  1
  C  C544  1  0.604000  0.477600  0.751900  1
  C  C545  1  0.206200  0.994200  0.772100  1
  C  C546  1  0.793800  0.505800  0.272100  1
  C  C547  1  0.706200  0.005800  0.727900  1
  C  C548  1  0.293800  0.494200  0.227900  1
  C  C549  1  0.793800  0.005800  0.227900  1
  C  C550  1  0.206200  0.494200  0.727900  1
  C  C551  1  0.293800  0.994200  0.272100  1
  C  C552  1  0.706200  0.505800  0.772100  1
  C  C553  1  0.241900  0.986200  0.814000  1
  C  C554  1  0.758100  0.513800  0.314000  1
  C  C555  1  0.741900  0.013800  0.686000  1
  C  C556  1  0.258100  0.486200  0.186000  1
  C  C557  1  0.758100  0.013800  0.186000  1
  C  C558  1  0.241900  0.486200  0.686000  1
  C  C559  1  0.258100  0.986200  0.314000  1
  C  C560  1  0.741900  0.513800  0.814000  1
  C  C561  1  0.218900  0.033000  0.895700  1
  C  C562  1  0.781100  0.467000  0.395700  1
  C  C563  1  0.718900  0.967000  0.604300  1
  C  C564  1  0.281100  0.533000  0.104300  1
  C  C565  1  0.781100  0.967000  0.104300  1
  C  C566  1  0.218900  0.533000  0.604300  1
  C  C567  1  0.281100  0.033000  0.395700  1
  C  C568  1  0.718900  0.467000  0.895700  1
  C  C569  1  0.245500  0.930700  0.894200  1
  C  C570  1  0.754500  0.569300  0.394200  1
  C  C571  1  0.745500  0.069300  0.605800  1
  C  C572  1  0.254500  0.430700  0.105800  1
  C  C573  1  0.754500  0.069300  0.105800  1
  C  C574  1  0.245500  0.430700  0.605800  1
  C  C575  1  0.254500  0.930700  0.394200  1
  C  C576  1  0.745500  0.569300  0.894200  1
  C  C577  1  0.100900  0.876500  0.940300  1
  C  C578  1  0.899100  0.623500  0.440300  1
  C  C579  1  0.600900  0.123500  0.559700  1
  C  C580  1  0.399100  0.376500  0.059700  1
  C  C581  1  0.899100  0.123500  0.059700  1
  C  C582  1  0.100900  0.376500  0.559700  1
  C  C583  1  0.399100  0.876500  0.440300  1
  C  C584  1  0.600900  0.623500  0.940300  1
  C  C585  1  0.083400  0.857500  0.989900  1
  C  C586  1  0.916600  0.642500  0.489900  1
  C  C587  1  0.583400  0.142500  0.510100  1
  C  C588  1  0.416600  0.357500  0.010100  1
  C  C589  1  0.916600  0.142500  0.010100  1
  C  C590  1  0.083400  0.357500  0.510100  1
  C  C591  1  0.416600  0.857500  0.489900  1
  C  C592  1  0.583400  0.642500  0.989900  1
  C  C593  1  0.067000  0.900600  0.027300  1
  C  C594  1  0.933000  0.599400  0.527300  1
  C  C595  1  0.567000  0.099400  0.472700  1
  C  C596  1  0.433000  0.400600  0.972700  1
  C  C597  1  0.933000  0.099400  0.972700  1
  C  C598  1  0.067000  0.400600  0.472700  1
  C  C599  1  0.433000  0.900600  0.527300  1
  C  C600  1  0.567000  0.599400  0.027300  1
  C  C601  1  0.069600  0.961500  0.013400  1
  C  C602  1  0.930400  0.538500  0.513400  1
  C  C603  1  0.569600  0.038500  0.486600  1
  C  C604  1  0.430400  0.461500  0.986600  1
  C  C605  1  0.930400  0.038500  0.986600  1
  C  C606  1  0.069600  0.461500  0.486600  1
  C  C607  1  0.430400  0.961500  0.513400  1
  C  C608  1  0.569600  0.538500  0.013400  1
  C  C609  1  0.087100  0.977100  0.963600  1
  C  C610  1  0.912900  0.522900  0.463600  1
  C  C611  1  0.587100  0.022900  0.536400  1
  C  C612  1  0.412900  0.477100  0.036400  1
  C  C613  1  0.912900  0.022900  0.036400  1
  C  C614  1  0.087100  0.477100  0.536400  1
  C  C615  1  0.412900  0.977100  0.463600  1
  C  C616  1  0.587100  0.522900  0.963600  1
  C  C617  1  0.082500  0.789600  0.003300  1
  C  C618  1  0.917500  0.710400  0.503300  1
  C  C619  1  0.582500  0.210400  0.496700  1
  C  C620  1  0.417500  0.289600  0.996700  1
  C  C621  1  0.917500  0.210400  0.996700  1
  C  C622  1  0.082500  0.289600  0.496700  1
  C  C623  1  0.417500  0.789600  0.503300  1
  C  C624  1  0.582500  0.710400  0.003300  1
  C  C625  1  0.233600  0.719100  0.942800  1
  C  C626  1  0.766400  0.780900  0.442800  1
  C  C627  1  0.733600  0.280900  0.557200  1
  C  C628  1  0.266400  0.219100  0.057200  1
  C  C629  1  0.766400  0.280900  0.057200  1
  C  C630  1  0.233600  0.219100  0.557200  1
  C  C631  1  0.266400  0.719100  0.442800  1
  C  C632  1  0.733600  0.780900  0.942800  1
  C  C633  1  0.216300  0.685900  0.031500  1
  C  C634  1  0.783700  0.814100  0.531500  1
  C  C635  1  0.716300  0.314100  0.468500  1
  C  C636  1  0.283700  0.185900  0.968500  1
  C  C637  1  0.783700  0.314100  0.968500  1
  C  C638  1  0.216300  0.185900  0.468500  1
  C  C639  1  0.283700  0.685900  0.531500  1
  C  C640  1  0.716300  0.814100  0.031500  1
  C  C641  1  0.227500  0.611000  0.961700  1
  C  C642  1  0.772500  0.889000  0.461700  1
  C  C643  1  0.727500  0.389000  0.538300  1
  C  C644  1  0.272500  0.111000  0.038300  1
  C  C645  1  0.772500  0.389000  0.038300  1
  C  C646  1  0.227500  0.111000  0.538300  1
  C  C647  1  0.272500  0.611000  0.461700  1
  C  C648  1  0.727500  0.889000  0.961700  1
  C  C649  1  0.183400  0.563400  0.979800  1
  C  C650  1  0.816600  0.936600  0.479800  1
  C  C651  1  0.683400  0.436600  0.520200  1
  C  C652  1  0.316600  0.063400  0.020200  1
  C  C653  1  0.816600  0.436600  0.020200  1
  C  C654  1  0.183400  0.063400  0.520200  1
  C  C655  1  0.316600  0.563400  0.479800  1
  C  C656  1  0.683400  0.936600  0.979800  1
  C  C657  1  0.077100  0.536000  0.983500  1
  C  C658  1  0.922900  0.964000  0.483500  1
  C  C659  1  0.577100  0.464000  0.516500  1
  C  C660  1  0.422900  0.036000  0.016500  1
  C  C661  1  0.922900  0.464000  0.016500  1
  C  C662  1  0.077100  0.036000  0.516500  1
  C  C663  1  0.422900  0.536000  0.483500  1
  C  C664  1  0.577100  0.964000  0.983500  1
  C  C665  1  0.119600  0.563200  0.899700  1
  C  C666  1  0.880400  0.936800  0.399700  1
  C  C667  1  0.619600  0.436800  0.600300  1
  C  C668  1  0.380400  0.063200  0.100300  1
  C  C669  1  0.880400  0.436800  0.100300  1
  C  C670  1  0.119600  0.063200  0.600300  1
  C  C671  1  0.380400  0.563200  0.399700  1
  C  C672  1  0.619600  0.936800  0.899700  1
  C  C673  1  0.986300  0.680600  0.919800  1
  C  C674  1  0.013700  0.819400  0.419800  1
  C  C675  1  0.486300  0.319400  0.580200  1
  C  C676  1  0.513700  0.180600  0.080200  1
  C  C677  1  0.013700  0.319400  0.080200  1
  C  C678  1  0.986300  0.180600  0.580200  1
  C  C679  1  0.513700  0.680600  0.419800  1
  C  C680  1  0.486300  0.819400  0.919800  1
  C  C681  1  0.922100  0.682300  0.917200  1
  C  C682  1  0.077900  0.817700  0.417200  1
  C  C683  1  0.422100  0.317700  0.582800  1
  C  C684  1  0.577900  0.182300  0.082800  1
  C  C685  1  0.077900  0.317700  0.082800  1
  C  C686  1  0.922100  0.182300  0.582800  1
  C  C687  1  0.577900  0.682300  0.417200  1
  C  C688  1  0.422100  0.817700  0.917200  1
  C  C689  1  0.888700  0.662900  0.960400  1
  C  C690  1  0.111300  0.837100  0.460400  1
  C  C691  1  0.388700  0.337100  0.539600  1
  C  C692  1  0.611300  0.162900  0.039600  1
  C  C693  1  0.111300  0.337100  0.039600  1
  C  C694  1  0.888700  0.162900  0.539600  1
  C  C695  1  0.611300  0.662900  0.460400  1
  C  C696  1  0.388700  0.837100  0.960400  1
  C  C697  1  0.920000  0.646300  0.004900  1
  C  C698  1  0.080000  0.853700  0.504900  1
  C  C699  1  0.420000  0.353700  0.495100  1
  C  C700  1  0.580000  0.146300  0.995100  1
  C  C701  1  0.080000  0.353700  0.995100  1
  C  C702  1  0.920000  0.146300  0.495100  1
  C  C703  1  0.580000  0.646300  0.504900  1
  C  C704  1  0.420000  0.853700  0.004900  1
  C  C705  1  0.983500  0.647000  0.005400  1
  C  C706  1  0.016500  0.853000  0.505400  1
  C  C707  1  0.483500  0.353000  0.494600  1
  C  C708  1  0.516500  0.147000  0.994600  1
  C  C709  1  0.016500  0.353000  0.994600  1
  C  C710  1  0.983500  0.147000  0.494600  1
  C  C711  1  0.516500  0.647000  0.505400  1
  C  C712  1  0.483500  0.853000  0.005400  1
  C  C713  1  0.890100  0.704300  0.868100  1
  C  C714  1  0.109900  0.795700  0.368100  1
  C  C715  1  0.390100  0.295700  0.631900  1
  C  C716  1  0.609900  0.204300  0.131900  1
  C  C717  1  0.109900  0.295700  0.131900  1
  C  C718  1  0.890100  0.204300  0.631900  1
  C  C719  1  0.609900  0.704300  0.368100  1
  C  C720  1  0.390100  0.795700  0.868100  1
  C  C721  1  0.961300  0.635700  0.744000  1
  C  C722  1  0.038700  0.864300  0.244000  1
  C  C723  1  0.461300  0.364300  0.756000  1
  C  C724  1  0.538700  0.135700  0.256000  1
  C  C725  1  0.038700  0.364300  0.256000  1
  C  C726  1  0.961300  0.135700  0.756000  1
  C  C727  1  0.538700  0.635700  0.244000  1
  C  C728  1  0.461300  0.864300  0.744000  1
  C  C729  1  0.851200  0.626500  0.745800  1
  C  C730  1  0.148800  0.873500  0.245800  1
  C  C731  1  0.351200  0.373500  0.754200  1
  C  C732  1  0.648800  0.126500  0.254200  1
  C  C733  1  0.148800  0.373500  0.254200  1
  C  C734  1  0.851200  0.126500  0.754200  1
  C  C735  1  0.648800  0.626500  0.245800  1
  C  C736  1  0.351200  0.873500  0.745800  1
  C  C737  1  0.902500  0.673900  0.671000  1
  C  C738  1  0.097500  0.826100  0.171000  1
  C  C739  1  0.402500  0.326100  0.829000  1
  C  C740  1  0.597500  0.173900  0.329000  1
  C  C741  1  0.097500  0.326100  0.329000  1
  C  C742  1  0.902500  0.173900  0.829000  1
  C  C743  1  0.597500  0.673900  0.171000  1
  C  C744  1  0.402500  0.826100  0.671000  1
  C  C745  1  0.854500  0.720100  0.657300  1
  C  C746  1  0.145500  0.779900  0.157300  1
  C  C747  1  0.354500  0.279900  0.842700  1
  C  C748  1  0.645500  0.220100  0.342700  1
  C  C749  1  0.145500  0.279900  0.342700  1
  C  C750  1  0.854500  0.220100  0.842700  1
  C  C751  1  0.645500  0.720100  0.157300  1
  C  C752  1  0.354500  0.779900  0.657300  1
  C  C753  1  0.812700  0.816300  0.686000  1
  C  C754  1  0.187300  0.683700  0.186000  1
  C  C755  1  0.312700  0.183700  0.814000  1
  C  C756  1  0.687300  0.316300  0.314000  1
  C  C757  1  0.187300  0.183700  0.314000  1
  C  C758  1  0.812700  0.316300  0.814000  1
  C  C759  1  0.687300  0.816300  0.186000  1
  C  C760  1  0.312700  0.683700  0.686000  1
  C  C761  1  0.920500  0.809800  0.663800  1
  C  C762  1  0.079500  0.690200  0.163800  1
  C  C763  1  0.420500  0.190200  0.836200  1
  C  C764  1  0.579500  0.309800  0.336200  1
  C  C765  1  0.079500  0.190200  0.336200  1
  C  C766  1  0.920500  0.309800  0.836200  1
  C  C767  1  0.579500  0.809800  0.163800  1
  C  C768  1  0.420500  0.690200  0.663800  1
  C  C769  1  0.934300  0.866100  0.805100  1
  C  C770  1  0.065700  0.633900  0.305100  1
  C  C771  1  0.434300  0.133900  0.694900  1
  C  C772  1  0.565700  0.366100  0.194900  1
  C  C773  1  0.065700  0.133900  0.194900  1
  C  C774  1  0.934300  0.366100  0.694900  1
  C  C775  1  0.565700  0.866100  0.305100  1
  C  C776  1  0.434300  0.633900  0.805100  1
  C  C777  1  0.931600  0.922900  0.827400  1
  C  C778  1  0.068400  0.577100  0.327400  1
  C  C779  1  0.431600  0.077100  0.672600  1
  C  C780  1  0.568400  0.422900  0.172600  1
  C  C781  1  0.068400  0.077100  0.172600  1
  C  C782  1  0.931600  0.422900  0.672600  1
  C  C783  1  0.568400  0.922900  0.327400  1
  C  C784  1  0.431600  0.577100  0.827400  1
  C  C785  1  0.873700  0.946900  0.838700  1
  C  C786  1  0.126300  0.553100  0.338700  1
  C  C787  1  0.373700  0.053100  0.661300  1
  C  C788  1  0.626300  0.446900  0.161300  1
  C  C789  1  0.126300  0.053100  0.161300  1
  C  C790  1  0.873700  0.446900  0.661300  1
  C  C791  1  0.626300  0.946900  0.338700  1
  C  C792  1  0.373700  0.553100  0.838700  1
  C  C793  1  0.821500  0.912700  0.829300  1
  C  C794  1  0.178500  0.587300  0.329300  1
  C  C795  1  0.321500  0.087300  0.670700  1
  C  C796  1  0.678500  0.412700  0.170700  1
  C  C797  1  0.178500  0.087300  0.170700  1
  C  C798  1  0.821500  0.412700  0.670700  1
  C  C799  1  0.678500  0.912700  0.329300  1
  C  C800  1  0.321500  0.587300  0.829300  1
  C  C801  1  0.829100  0.855800  0.807000  1
  C  C802  1  0.170900  0.644200  0.307000  1
  C  C803  1  0.329100  0.144200  0.693000  1
  C  C804  1  0.670900  0.355800  0.193000  1
  C  C805  1  0.170900  0.144200  0.193000  1
  C  C806  1  0.829100  0.355800  0.693000  1
  C  C807  1  0.670900  0.855800  0.307000  1
  C  C808  1  0.329100  0.644200  0.807000  1
  C  C809  1  0.990000  0.957700  0.840200  1
  C  C810  1  0.010000  0.542300  0.340200  1
  C  C811  1  0.490000  0.042300  0.659800  1
  C  C812  1  0.510000  0.457700  0.159800  1
  C  C813  1  0.010000  0.042300  0.159800  1
  C  C814  1  0.990000  0.457700  0.659800  1
  C  C815  1  0.510000  0.957700  0.340200  1
  C  C816  1  0.490000  0.542300  0.840200  1
  C  C817  1  0.087300  0.760800  0.631000  1
  C  C818  1  0.912700  0.739200  0.131000  1
  C  C819  1  0.587300  0.239200  0.869000  1
  C  C820  1  0.412700  0.260800  0.369000  1
  C  C821  1  0.912700  0.239200  0.369000  1
  C  C822  1  0.087300  0.260800  0.869000  1
  C  C823  1  0.412700  0.760800  0.131000  1
  C  C824  1  0.587300  0.739200  0.631000  1
  C  C825  1  0.084200  0.819600  0.651000  1
  C  C826  1  0.915800  0.680400  0.151000  1
  C  C827  1  0.584200  0.180400  0.849000  1
  C  C828  1  0.415800  0.319600  0.349000  1
  C  C829  1  0.915800  0.180400  0.349000  1
  C  C830  1  0.084200  0.319600  0.849000  1
  C  C831  1  0.415800  0.819600  0.151000  1
  C  C832  1  0.584200  0.680400  0.651000  1
  C  C833  1  0.153000  0.746500  0.622100  1
  C  C834  1  0.847000  0.753500  0.122100  1
  C  C835  1  0.653000  0.253500  0.877900  1
  C  C836  1  0.347000  0.246500  0.377900  1
  C  C837  1  0.847000  0.253500  0.377900  1
  C  C838  1  0.153000  0.246500  0.877900  1
  C  C839  1  0.347000  0.746500  0.122100  1
  C  C840  1  0.653000  0.753500  0.622100  1
  C  C841  1  0.074400  0.152600  0.053600  1
  C  C842  1  0.925600  0.347400  0.553600  1
  C  C843  1  0.574400  0.847400  0.446400  1
  C  C844  1  0.425600  0.652600  0.946400  1
  C  C845  1  0.925600  0.847400  0.946400  1
  C  C846  1  0.074400  0.652600  0.446400  1
  C  C847  1  0.425600  0.152600  0.553600  1
  C  C848  1  0.574400  0.347400  0.053600  1
  C  C849  1  0.088400  0.172900  0.999500  1
  C  C850  1  0.911600  0.327100  0.499500  1
  C  C851  1  0.588400  0.827100  0.500500  1
  C  C852  1  0.411600  0.672900  0.000500  1
  C  C853  1  0.911600  0.827100  0.000500  1
  C  C854  1  0.088400  0.672900  0.500500  1
  C  C855  1  0.411600  0.172900  0.499500  1
  C  C856  1  0.588400  0.327100  0.999500  1
  N  N857  1  0.142400  0.973100  0.773200  1
  N  N858  1  0.857600  0.526900  0.273200  1
  N  N859  1  0.642400  0.026900  0.726800  1
  N  N860  1  0.357600  0.473100  0.226800  1
  N  N861  1  0.857600  0.026900  0.226800  1
  N  N862  1  0.142400  0.473100  0.726800  1
  N  N863  1  0.357600  0.973100  0.273200  1
  N  N864  1  0.642400  0.526900  0.773200  1
  N  N865  1  0.212800  0.977300  0.865300  1
  N  N866  1  0.787200  0.522700  0.365300  1
  N  N867  1  0.712800  0.022700  0.634700  1
  N  N868  1  0.287200  0.477300  0.134700  1
  N  N869  1  0.787200  0.022700  0.134700  1
  N  N870  1  0.212800  0.477300  0.634700  1
  N  N871  1  0.287200  0.977300  0.365300  1
  N  N872  1  0.712800  0.522700  0.865300  1
  N  N873  1  0.102800  0.935700  0.927000  1
  N  N874  1  0.897200  0.564300  0.427000  1
  N  N875  1  0.602800  0.064300  0.573000  1
  N  N876  1  0.397200  0.435700  0.073000  1
  N  N877  1  0.897200  0.064300  0.073000  1
  N  N878  1  0.102800  0.435700  0.573000  1
  N  N879  1  0.397200  0.935700  0.427000  1
  N  N880  1  0.602800  0.564300  0.927000  1
  N  N881  1  0.203600  0.672900  0.975500  1
  N  N882  1  0.796400  0.827100  0.475500  1
  N  N883  1  0.703600  0.327100  0.524500  1
  N  N884  1  0.296400  0.172900  0.024500  1
  N  N885  1  0.796400  0.327100  0.024500  1
  N  N886  1  0.203600  0.172900  0.524500  1
  N  N887  1  0.296400  0.672900  0.475500  1
  N  N888  1  0.703600  0.827100  0.975500  1
  N  N889  1  0.122800  0.576600  0.956800  1
  N  N890  1  0.877200  0.923400  0.456800  1
  N  N891  1  0.622800  0.423400  0.543200  1
  N  N892  1  0.377200  0.076600  0.043200  1
  N  N893  1  0.877200  0.423400  0.043200  1
  N  N894  1  0.122800  0.076600  0.543200  1
  N  N895  1  0.377200  0.576600  0.456800  1
  N  N896  1  0.622800  0.923400  0.956800  1
  N  N897  1  0.017400  0.663100  0.962400  1
  N  N898  1  0.982600  0.836900  0.462400  1
  N  N899  1  0.517400  0.336900  0.537600  1
  N  N900  1  0.482600  0.163100  0.037600  1
  N  N901  1  0.982600  0.336900  0.037600  1
  N  N902  1  0.017400  0.163100  0.537600  1
  N  N903  1  0.482600  0.663100  0.462400  1
  N  N904  1  0.517400  0.836900  0.962400  1
  N  N905  1  0.905100  0.664600  0.729000  1
  N  N906  1  0.094900  0.835400  0.229000  1
  N  N907  1  0.405100  0.335400  0.771000  1
  N  N908  1  0.594900  0.164600  0.271000  1
  N  N909  1  0.094900  0.335400  0.271000  1
  N  N910  1  0.905100  0.164600  0.771000  1
  N  N911  1  0.594900  0.664600  0.229000  1
  N  N912  1  0.405100  0.835400  0.729000  1
  N  N913  1  0.867400  0.776700  0.687900  1
  N  N914  1  0.132600  0.723300  0.187900  1
  N  N915  1  0.367400  0.223300  0.812100  1
  N  N916  1  0.632600  0.276700  0.312100  1
  N  N917  1  0.132600  0.223300  0.312100  1
  N  N918  1  0.867400  0.276700  0.812100  1
  N  N919  1  0.632600  0.776700  0.187900  1
  N  N920  1  0.367400  0.723300  0.687900  1
  N  N921  1  0.884300  0.833100  0.794500  1
  N  N922  1  0.115700  0.666900  0.294500  1
  N  N923  1  0.384300  0.166900  0.705500  1
  N  N924  1  0.615700  0.333100  0.205500  1
  N  N925  1  0.115700  0.166900  0.205500  1
  N  N926  1  0.884300  0.333100  0.705500  1
  N  N927  1  0.615700  0.833100  0.294500  1
  N  N928  1  0.384300  0.666900  0.794500  1
  O  O929  1  0.063400  0.771900  0.045000  1
  O  O930  1  0.936600  0.728100  0.545000  1
  O  O931  1  0.563400  0.228100  0.455000  1
  O  O932  1  0.436600  0.271900  0.955000  1
  O  O933  1  0.936600  0.228100  0.955000  1
  O  O934  1  0.063400  0.271900  0.455000  1
  O  O935  1  0.436600  0.771900  0.545000  1
  O  O936  1  0.563400  0.728100  0.045000  1
  O  O937  1  0.105000  0.757400  0.965300  1
  O  O938  1  0.895000  0.742600  0.465300  1
  O  O939  1  0.605000  0.242600  0.534700  1
  O  O940  1  0.395000  0.257400  0.034700  1
  O  O941  1  0.895000  0.242600  0.034700  1
  O  O942  1  0.105000  0.257400  0.534700  1
  O  O943  1  0.395000  0.757400  0.465300  1
  O  O944  1  0.605000  0.742600  0.965300  1
  O  O945  1  0.833800  0.706900  0.867200  1
  O  O946  1  0.166200  0.793100  0.367200  1
  O  O947  1  0.333800  0.293100  0.632800  1
  O  O948  1  0.666200  0.206900  0.132800  1
  O  O949  1  0.166200  0.293100  0.132800  1
  O  O950  1  0.833800  0.206900  0.632800  1
  O  O951  1  0.666200  0.706900  0.367200  1
  O  O952  1  0.333800  0.793100  0.867200  1
  O  O953  1  0.927200  0.719000  0.830800  1
  O  O954  1  0.072800  0.781000  0.330800  1
  O  O955  1  0.427200  0.281000  0.669200  1
  O  O956  1  0.572800  0.219000  0.169200  1
  O  O957  1  0.072800  0.281000  0.169200  1
  O  O958  1  0.927200  0.219000  0.669200  1
  O  O959  1  0.572800  0.719000  0.330800  1
  O  O960  1  0.427200  0.781000  0.830800  1
  O  O961  1  0.986800  0.008300  0.860400  1
  O  O962  1  0.013200  0.491700  0.360400  1
  O  O963  1  0.486800  0.991700  0.639600  1
  O  O964  1  0.513200  0.508300  0.139600  1
  O  O965  1  0.013200  0.991700  0.139600  1
  O  O966  1  0.986800  0.508300  0.639600  1
  O  O967  1  0.513200  0.008300  0.360400  1
  O  O968  1  0.486800  0.491700  0.860400  1
  O  O969  1  0.038800  0.927200  0.830100  1
  O  O970  1  0.961200  0.572800  0.330100  1
  O  O971  1  0.538800  0.072800  0.669900  1
  O  O972  1  0.461200  0.427200  0.169900  1
  O  O973  1  0.961200  0.072800  0.169900  1
  O  O974  1  0.038800  0.427200  0.669900  1
  O  O975  1  0.461200  0.927200  0.330100  1
  O  O976  1  0.538800  0.572800  0.830100  1
  O  O977  1  0.052100  0.719700  0.648800  1
  O  O978  1  0.947900  0.780300  0.148800  1
  O  O979  1  0.552100  0.280300  0.851200  1
  O  O980  1  0.447900  0.219700  0.351200  1
  O  O981  1  0.947900  0.280300  0.351200  1
  O  O982  1  0.052100  0.219700  0.851200  1
  O  O983  1  0.447900  0.719700  0.148800  1
  O  O984  1  0.552100  0.780300  0.648800  1
  O  O985  1  0.128700  0.128400  0.973500  1
  O  O986  1  0.871300  0.371600  0.473500  1
  O  O987  1  0.628700  0.871600  0.526500  1
  O  O988  1  0.371300  0.628400  0.026500  1
  O  O989  1  0.871300  0.871600  0.026500  1
  O  O990  1  0.128700  0.628400  0.526500  1
  O  O991  1  0.371300  0.128400  0.473500  1
  O  O992  1  0.628700  0.371600  0.973500  1
  O  O993  1  0.074900  0.099600  0.878000  1
  O  O994  1  0.925100  0.400400  0.378000  1
  O  O995  1  0.574900  0.900400  0.622000  1
  O  O996  1  0.425100  0.599600  0.122000  1
  O  O997  1  0.925100  0.900400  0.122000  1
  O  O998  1  0.074900  0.599600  0.622000  1
  O  O999  1  0.425100  0.099600  0.378000  1
  O  O1000  1  0.574900  0.400400  0.878000  1
  F  F1001  1  0.883300  0.449800  0.881800  1
  F  F1002  1  0.116700  0.050200  0.381800  1
  F  F1003  1  0.383300  0.550200  0.618200  1
  F  F1004  1  0.616700  0.949800  0.118200  1
  F  F1005  1  0.116700  0.550200  0.118200  1
  F  F1006  1  0.883300  0.949800  0.618200  1
  F  F1007  1  0.616700  0.449800  0.381800  1
  F  F1008  1  0.383300  0.050200  0.881800  1
  F  F1009  1  0.925900  0.457100  0.803500  1
  F  F1010  1  0.074100  0.042900  0.303500  1
  F  F1011  1  0.425900  0.542900  0.696500  1
  F  F1012  1  0.574100  0.957100  0.196500  1
  F  F1013  1  0.074100  0.542900  0.196500  1
  F  F1014  1  0.925900  0.957100  0.696500  1
  F  F1015  1  0.574100  0.457100  0.303500  1
  F  F1016  1  0.425900  0.042900  0.803500  1
  F  F1017  1  0.889200  0.540100  0.839700  1
  F  F1018  1  0.110800  0.959900  0.339700  1
  F  F1019  1  0.389200  0.459900  0.660300  1
  F  F1020  1  0.610800  0.040100  0.160300  1
  F  F1021  1  0.110800  0.459900  0.160300  1
  F  F1022  1  0.889200  0.040100  0.660300  1
  F  F1023  1  0.610800  0.540100  0.339700  1
  F  F1024  1  0.389200  0.959900  0.839700  1
  F  F1025  1  0.989900  0.530100  0.831100  1
  F  F1026  1  0.010100  0.969900  0.331100  1
  F  F1027  1  0.489900  0.469900  0.668900  1
  F  F1028  1  0.510100  0.030100  0.168900  1
  F  F1029  1  0.010100  0.469900  0.168900  1
  F  F1030  1  0.989900  0.030100  0.668900  1
  F  F1031  1  0.510100  0.530100  0.331100  1
  F  F1032  1  0.489900  0.969900  0.831100  1
  F  F1033  1  0.947100  0.524100  0.909500  1
  F  F1034  1  0.052900  0.975900  0.409500  1
  F  F1035  1  0.447100  0.475900  0.590500  1
  F  F1036  1  0.552900  0.024100  0.090500  1
  F  F1037  1  0.052900  0.475900  0.090500  1
  F  F1038  1  0.947100  0.024100  0.590500  1
  F  F1039  1  0.552900  0.524100  0.409500  1
  F  F1040  1  0.447100  0.975900  0.909500  1
  F  F1041  1  0.982500  0.440700  0.875400  1
  F  F1042  1  0.017500  0.059300  0.375400  1
  F  F1043  1  0.482500  0.559300  0.624600  1
  F  F1044  1  0.517500  0.940700  0.124600  1
  F  F1045  1  0.017500  0.559300  0.124600  1
  F  F1046  1  0.982500  0.940700  0.624600  1
  F  F1047  1  0.517500  0.440700  0.375400  1
  F  F1048  1  0.482500  0.059300  0.875400  1
  F  F1049  1  0.756600  0.619700  0.143900  1
  F  F1050  1  0.243400  0.880300  0.643900  1
  F  F1051  1  0.256600  0.380300  0.356100  1
  F  F1052  1  0.743400  0.119700  0.856100  1
  F  F1053  1  0.243400  0.380300  0.856100  1
  F  F1054  1  0.756600  0.119700  0.356100  1
  F  F1055  1  0.743400  0.619700  0.643900  1
  F  F1056  1  0.256600  0.880300  0.143900  1
  F  F1057  1  0.754100  0.521800  0.114500  1
  F  F1058  1  0.245900  0.978200  0.614500  1
  F  F1059  1  0.254100  0.478200  0.385500  1
  F  F1060  1  0.745900  0.021800  0.885500  1
  F  F1061  1  0.245900  0.478200  0.885500  1
  F  F1062  1  0.754100  0.021800  0.385500  1
  F  F1063  1  0.745900  0.521800  0.614500  1
  F  F1064  1  0.254100  0.978200  0.114500  1
  F  F1065  1  0.672700  0.582000  0.105300  1
  F  F1066  1  0.327300  0.918000  0.605300  1
  F  F1067  1  0.172700  0.418000  0.394700  1
  F  F1068  1  0.827300  0.082000  0.894700  1
  F  F1069  1  0.327300  0.418000  0.894700  1
  F  F1070  1  0.672700  0.082000  0.394700  1
  F  F1071  1  0.827300  0.582000  0.605300  1
  F  F1072  1  0.172700  0.918000  0.105300  1
  F  F1073  1  0.729600  0.556500  0.034900  1
  F  F1074  1  0.270400  0.943500  0.534900  1
  F  F1075  1  0.229600  0.443500  0.465100  1
  F  F1076  1  0.770400  0.056500  0.965100  1
  F  F1077  1  0.270400  0.443500  0.965100  1
  F  F1078  1  0.729600  0.056500  0.465100  1
  F  F1079  1  0.770400  0.556500  0.534900  1
  F  F1080  1  0.229600  0.943500  0.034900  1
  F  F1081  1  0.729400  0.650000  0.066000  1
  F  F1082  1  0.270600  0.850000  0.566000  1
  F  F1083  1  0.229400  0.350000  0.434000  1
  F  F1084  1  0.770600  0.150000  0.934000  1
  F  F1085  1  0.270600  0.350000  0.934000  1
  F  F1086  1  0.729400  0.150000  0.434000  1
  F  F1087  1  0.770600  0.650000  0.566000  1
  F  F1088  1  0.229400  0.850000  0.066000  1
  F  F1089  1  0.814100  0.585700  0.076300  1
  F  F1090  1  0.185900  0.914300  0.576300  1
  F  F1091  1  0.314100  0.414300  0.423700  1
  F  F1092  1  0.685900  0.085700  0.923700  1
  F  F1093  1  0.185900  0.414300  0.923700  1
  F  F1094  1  0.814100  0.085700  0.423700  1
  F  F1095  1  0.685900  0.585700  0.576300  1
  F  F1096  1  0.314100  0.914300  0.076300  1
  F  F1097  1  0.092500  0.759300  0.764800  1
  F  F1098  1  0.907500  0.740700  0.264800  1
  F  F1099  1  0.592500  0.240700  0.735200  1
  F  F1100  1  0.407500  0.259300  0.235200  1
  F  F1101  1  0.907500  0.240700  0.235200  1
  F  F1102  1  0.092500  0.259300  0.735200  1
  F  F1103  1  0.407500  0.759300  0.264800  1
  F  F1104  1  0.592500  0.740700  0.764800  1
  F  F1105  1  0.139700  0.673300  0.746900  1
  F  F1106  1  0.860300  0.826700  0.246900  1
  F  F1107  1  0.639700  0.326700  0.753100  1
  F  F1108  1  0.360300  0.173300  0.253100  1
  F  F1109  1  0.860300  0.326700  0.253100  1
  F  F1110  1  0.139700  0.173300  0.753100  1
  F  F1111  1  0.360300  0.673300  0.246900  1
  F  F1112  1  0.639700  0.826700  0.746900  1
  F  F1113  1  0.088500  0.678600  0.817800  1
  F  F1114  1  0.911500  0.821400  0.317800  1
  F  F1115  1  0.588500  0.321400  0.682200  1
  F  F1116  1  0.411500  0.178600  0.182200  1
  F  F1117  1  0.911500  0.321400  0.182200  1
  F  F1118  1  0.088500  0.178600  0.682200  1
  F  F1119  1  0.411500  0.678600  0.317800  1
  F  F1120  1  0.588500  0.821400  0.817800  1
  F  F1121  1  0.189300  0.674500  0.819300  1
  F  F1122  1  0.810700  0.825500  0.319300  1
  F  F1123  1  0.689300  0.325500  0.680700  1
  F  F1124  1  0.310700  0.174500  0.180700  1
  F  F1125  1  0.810700  0.325500  0.180700  1
  F  F1126  1  0.189300  0.174500  0.680700  1
  F  F1127  1  0.310700  0.674500  0.319300  1
  F  F1128  1  0.689300  0.825500  0.819300  1
  F  F1129  1  0.145000  0.763200  0.838500  1
  F  F1130  1  0.855000  0.736800  0.338500  1
  F  F1131  1  0.645000  0.236800  0.661500  1
  F  F1132  1  0.355000  0.263200  0.161500  1
  F  F1133  1  0.855000  0.236800  0.161500  1
  F  F1134  1  0.145000  0.263200  0.661500  1
  F  F1135  1  0.355000  0.763200  0.338500  1
  F  F1136  1  0.645000  0.736800  0.838500  1
  F  F1137  1  0.195100  0.749600  0.764100  1
  F  F1138  1  0.804900  0.750400  0.264100  1
  F  F1139  1  0.695100  0.250400  0.735900  1
  F  F1140  1  0.304900  0.249600  0.235900  1
  F  F1141  1  0.804900  0.250400  0.235900  1
  F  F1142  1  0.195100  0.249600  0.735900  1
  F  F1143  1  0.304900  0.749600  0.264100  1
  F  F1144  1  0.695100  0.750400  0.764100  1
