
#######################################################################
#
#                 Cambridge Crystallographic Data Centre
#                                CCDC 
#
#######################################################################
#
# If this CIF has been generated from an entry in the Cambridge 
# Structural Database, then it will include bibliographic, chemical, 
# crystal, experimental, refinement or atomic coordinate data resulting 
# from the CCDC's data processing and validation procedures.
#
#######################################################################

data_NOSTIY
_chemical_formula_moiety         'C144 H120 Co4 N36 8+,8(B1 F4 1-),17.5(H2 O1)'
_chemical_name_systematic        
'hexakis(\m~2~-1,2-bis(3-(2-Pyridyl)pyrazolylmethyl)benzene)-tetra-cobalt(ii) octakis(tetrafluoroborate) hydrate'
_symmetry_cell_setting           triclinic
_symmetry_space_group_name_H-M   'P -1'
_symmetry_Int_Tables_number      2
_space_group_name_Hall           '-P 1'
loop_
_symmetry_equiv_pos_site_id
_symmetry_equiv_pos_as_xyz
1 x,y,z
2 -x,-y,-z
_cell_length_a                   16.827(3)
_cell_length_b                   18.909(4)
_cell_length_c                   25.381(3)
_cell_angle_alpha                87.22(2)
_cell_angle_beta                 84.723(14)
_cell_angle_gamma                86.74(2)
_cell_volume                     8020.92
_exptl_crystal_colour            pink
_exptl_crystal_description       prism
_cell_formula_units_Z            2
loop_
_atom_site_label
_atom_site_type_symbol
_atom_site_fract_x
_atom_site_fract_y
_atom_site_fract_z
Co1 Co -0.27550(6) 0.44486(5) -0.10936(4)
Co2 Co -0.20222(6) -0.07525(5) -0.18075(4)
Co3 Co -0.05632(6) 0.26036(5) -0.44407(4)
Co4 Co -0.60004(6) 0.22513(5) -0.30270(4)
N1 N -0.6433(4) 0.2539(3) -0.3788(2)
C1 C -0.6068(4) 0.3087(4) -0.4052(3)
C2 C -0.6227(5) 0.3288(4) -0.4569(3)
H1 H -0.5966(5) 0.3673(4) -0.4751(3)
C3 C -0.6770(5) 0.2921(4) -0.4816(3)
H2 H -0.6881(5) 0.3046(4) -0.5169(3)
C4 C -0.7142(5) 0.2375(5) -0.4540(3)
H3 H -0.7522(5) 0.2121(5) -0.4698(3)
C5 C -0.6963(5) 0.2195(4) -0.4033(3)
H4 H -0.7223(5) 0.1812(4) -0.3847(3)
N2 N -0.5356(3) 0.3180(3) -0.3282(2)
N3 N -0.4841(3) 0.3630(3) -0.3110(2)
C6 C -0.4681(5) 0.4152(4) -0.3478(3)
H5 H -0.4343(5) 0.4529(4) -0.3445(3)
C7 C -0.5088(5) 0.4047(4) -0.3906(3)
H6 H -0.5087(5) 0.4325(4) -0.4228(3)
C8 C -0.5505(4) 0.3442(4) -0.3766(3)
C9 C -0.4571(4) 0.3536(4) -0.2581(3)
H7 H -0.4019(4) 0.3696(4) -0.2595(3)
H8 H -0.4551(4) 0.3023(4) -0.2480(3)
C10 C -0.5078(4) 0.3925(4) -0.2154(3)
C11 C -0.5683(5) 0.4436(4) -0.2260(3)
H9 H -0.5783(5) 0.4554(4) -0.2617(3)
C12 C -0.6137(5) 0.4774(4) -0.1857(3)
H10 H -0.6540(5) 0.5125(4) -0.1936(3)
C13 C -0.6002(5) 0.4596(4) -0.1336(3)
H11 H -0.6322(5) 0.4821(4) -0.1058(3)
C14 C -0.5406(4) 0.4094(4) -0.1216(3)
H12 H -0.5322(4) 0.3974(4) -0.0857(3)
C15 C -0.4929(4) 0.3767(4) -0.1623(3)
C16 C -0.4254(4) 0.3226(4) -0.1530(3)
H13 H -0.4408(4) 0.2758(4) -0.1633(3)
H14 H -0.3778(4) 0.3355(4) -0.1766(3)
N4 N -0.3499(3) 0.3590(3) -0.0820(2)
N5 N -0.4035(3) 0.3158(3) -0.0995(2)
C17 C -0.4256(5) 0.2667(4) -0.0618(3)
H15 H -0.4622(5) 0.2310(4) -0.0650(3)
C18 C -0.3858(4) 0.2770(4) -0.0177(3)
H16 H -0.3891(4) 0.2503(4) 0.0150(3)
C19 C -0.3397(4) 0.3355(4) -0.0318(3)
N6 N -0.2551(4) 0.4304(3) -0.0270(2)
C20 C -0.2866(4) 0.3726(4) -0.0015(3)
C21 C -0.2711(6) 0.3517(5) 0.0492(3)
H17 H -0.2933(6) 0.3101(5) 0.0655(3)
C22 C -0.2237(6) 0.3905(6) 0.0763(4)
H18 H -0.2122(6) 0.3761(6) 0.1113(4)
C23 C -0.1933(6) 0.4507(6) 0.0521(4)
H19 H -0.1622(6) 0.4800(6) 0.0705(4)
C24 C -0.2086(5) 0.4685(5) -0.0004(3)
H20 H -0.1853(5) 0.5090(5) -0.0177(3)
N7 N 0.0102(4) 0.3526(3) -0.4489(2)
C25 C -0.0317(4) 0.4141(4) -0.4380(3)
C26 C 0.0041(5) 0.4785(4) -0.4341(3)
H21 H -0.0269(5) 0.5206(4) -0.4255(3)
C27 C 0.0868(5) 0.4785(4) -0.4434(3)
H22 H 0.1136(5) 0.5210(4) -0.4414(3)
C28 C 0.1300(5) 0.4151(5) -0.4557(3)
H23 H 0.1866(5) 0.4139(5) -0.4622(3)
C29 C 0.0895(5) 0.3553(4) -0.4582(3)
H24 H 0.1195(5) 0.3127(4) -0.4671(3)
N8 N -0.1478(4) 0.3424(3) -0.4261(2)
N9 N -0.2287(4) 0.3536(3) -0.4196(2)
C30 C -0.2490(5) 0.4242(4) -0.4174(3)
H25 H -0.3019(5) 0.4447(4) -0.4126(3)
C31 C -0.1809(4) 0.4607(4) -0.4233(3)
H26 H -0.1766(4) 0.5106(4) -0.4234(3)
C32 C -0.1186(4) 0.4083(4) -0.4293(3)
C33 C -0.2809(4) 0.2954(4) -0.4090(3)
H27 H -0.3139(4) 0.3035(4) -0.3752(3)
H28 H -0.2474(4) 0.2512(4) -0.4039(3)
C34 C -0.3363(4) 0.2841(4) -0.4515(3)
C35 C -0.3303(5) 0.3215(4) -0.5000(3)
H29 H -0.2905(5) 0.3551(4) -0.5077(3)
C36 C -0.3828(5) 0.3092(5) -0.5371(3)
H30 H -0.3780(5) 0.3336(5) -0.5708(3)
C37 C -0.4420(5) 0.2619(5) -0.5255(3)
H31 H -0.4789(5) 0.2550(5) -0.5507(3)
C38 C -0.4476(5) 0.2245(4) -0.4774(3)
H32 H -0.4874(5) 0.1908(4) -0.4703(3)
C39 C -0.3963(4) 0.2355(4) -0.4395(3)
C40 C -0.4006(4) 0.1972(4) -0.3859(3)
H33 H -0.3466(4) 0.1766(4) -0.3797(3)
H34 H -0.4157(4) 0.2323(4) -0.3585(3)
N10 N -0.5249(3) 0.1460(3) -0.3456(2)
N11 N -0.4570(4) 0.1406(3) -0.3788(2)
C41 C -0.4493(5) 0.0771(4) -0.4011(3)
H35 H -0.4065(5) 0.0612(4) -0.4254(3)
C42 C -0.5138(5) 0.0396(4) -0.3825(3)
H36 H -0.5250(5) -0.0069(4) -0.3911(3)
C43 C -0.5594(4) 0.0843(4) -0.3486(3)
N12 N -0.6659(3) 0.1317(3) -0.2907(2)
C44 C -0.6360(4) 0.0753(4) -0.3179(3)
C45 C -0.6755(5) 0.0123(4) -0.3162(3)
H37 H -0.6544(5) -0.0259(4) -0.3372(3)
C46 C -0.7458(5) 0.0058(5) -0.2837(3)
H38 H -0.7736(5) -0.0368(5) -0.2821(3)
C47 C -0.7749(5) 0.0620(5) -0.2537(3)
H39 H -0.8220(5) 0.0585(5) -0.2303(3)
C48 C -0.7336(4) 0.1240(4) -0.2586(3)
H40 H -0.7542(4) 0.1629(4) -0.2383(3)
N13 N -0.2977(4) -0.1445(3) -0.1675(2)
C49 C -0.2992(5) -0.2100(4) -0.1854(3)
H41 H -0.2525(5) -0.2293(4) -0.2046(3)
C50 C -0.3647(5) -0.2503(4) -0.1774(3)
H42 H -0.3628(5) -0.2965(4) -0.1907(3)
C51 C -0.4325(5) -0.2236(4) -0.1501(3)
H43 H -0.4783(5) -0.2510(4) -0.1440(3)
C52 C -0.4334(4) -0.1559(4) -0.1316(3)
H44 H -0.4798(4) -0.1361(4) -0.1124(3)
C53 C -0.3661(5) -0.1178(4) -0.1416(3)
N14 N -0.2970(3) -0.0089(3) -0.1415(2)
N15 N -0.3077(4) 0.0545(3) -0.1174(2)
C54 C -0.3778(5) 0.0575(4) -0.0867(3)
H45 H -0.3986(5) 0.0965(4) -0.0665(3)
C55 C -0.4133(5) -0.0052(4) -0.0899(3)
H46 H -0.4628(5) -0.0186(4) -0.0723(3)
C56 C -0.3610(4) -0.0457(4) -0.1245(3)
C57 C -0.2533(5) 0.1111(4) -0.1281(3)
H47 H -0.2824(5) 0.1524(4) -0.1443(3)
H48 H -0.2095(5) 0.0953(4) -0.1544(3)
C58 C -0.2171(4) 0.1347(4) -0.0797(3)
C59 C -0.2112(5) 0.0890(4) -0.0348(3)
H49 H -0.2311(5) 0.0429(4) -0.0347(3)
C60 C -0.1773(5) 0.1094(5) 0.0092(3)
H50 H -0.1736(5) 0.0778(5) 0.0392(3)
C61 C -0.1491(5) 0.1760(5) 0.0087(3)
H51 H -0.1261(5) 0.1905(5) 0.0390(3)
C62 C -0.1533(5) 0.2229(4) -0.0352(3)
H52 H -0.1332(5) 0.2688(4) -0.0348(3)
C63 C -0.1872(4) 0.2020(4) -0.0795(3)
C64 C -0.1942(5) 0.2516(4) -0.1276(3)
H53 H -0.1827(5) 0.2240(4) -0.1598(3)
H54 H -0.2500(5) 0.2713(4) -0.1273(3)
N16 N -0.1679(3) 0.3801(3) -0.1275(2)
N17 N -0.1407(4) 0.3106(3) -0.1309(2)
C65 C -0.0601(5) 0.3050(5) -0.1388(3)
H55 H -0.0280(5) 0.2621(5) -0.1419(3)
C66 C -0.0329(5) 0.3725(5) -0.1417(3)
H56 H 0.0209(5) 0.3857(5) -0.1472(3)
C67 C -0.1016(5) 0.4174(4) -0.1347(3)
N18 N -0.1874(4) 0.5205(3) -0.1230(2)
C68 C -0.1115(5) 0.4942(4) -0.1323(3)
C69 C -0.0483(5) 0.5391(5) -0.1404(3)
H57 H 0.0047(5) 0.5198(5) -0.1478(3)
C70 C -0.0623(6) 0.6108(5) -0.1377(4)
H58 H -0.0194(6) 0.6417(5) -0.1425(4)
C71 C -0.1393(6) 0.6374(5) -0.1281(4)
H59 H -0.1506(6) 0.6871(5) -0.1267(4)
C72 C -0.2004(5) 0.5914(4) -0.1206(3)
H60 H -0.2536(5) 0.6103(4) -0.1134(3)
N19 N -0.1591(4) -0.0949(3) -0.1038(2)
C73 C -0.0963(5) -0.0573(4) -0.0948(3)
C74 C -0.0602(5) -0.0651(5) -0.0479(3)
H61 H -0.0164(5) -0.0377(5) -0.0423(3)
C75 C -0.0893(6) -0.1134(5) -0.0096(4)
H62 H -0.0640(6) -0.1212(5) 0.0223(4)
C76 C -0.1552(6) -0.1507(5) -0.0175(4)
H63 H -0.1778(6) -0.1823(5) 0.0093(4)
C77 C -0.1875(5) -0.1406(4) -0.0658(3)
H64 H -0.2316(5) -0.1672(4) -0.0721(3)
N20 N -0.1080(3) -0.0040(3) -0.1815(2)
N21 N -0.0731(4) 0.0472(3) -0.2139(2)
C78 C -0.0157(5) 0.0744(4) -0.1896(3)
H65 H 0.0174(5) 0.1107(4) -0.2045(3)
C79 C -0.0110(5) 0.0432(4) -0.1404(3)
H66 H 0.0236(5) 0.0527(4) -0.1144(3)
C80 C -0.0700(5) -0.0066(4) -0.1379(3)
C81 C -0.0984(5) 0.0656(4) -0.2657(3)
H67 H -0.0924(5) 0.1170(4) -0.2730(3)
H68 H -0.1561(5) 0.0572(4) -0.2650(3)
C82 C -0.0553(4) 0.0269(4) -0.3107(3)
C83 C 0.0053(5) -0.0254(4) -0.3036(3)
H69 H 0.0209(5) -0.0372(4) -0.2691(3)
C84 C 0.0429(5) -0.0603(4) -0.3471(3)
H70 H 0.0839(5) -0.0961(4) -0.3422(3)
C85 C 0.0206(5) -0.0430(4) -0.3965(4)
H71 H 0.0461(5) -0.0673(4) -0.4258(4)
C86 C -0.0386(5) 0.0092(4) -0.4049(3)
H72 H -0.0527(5) 0.0210(4) -0.4398(3)
C87 C -0.0770(5) 0.0442(4) -0.3622(3)
C88 C -0.1442(5) 0.1002(4) -0.3678(3)
H73 H -0.1925(5) 0.0839(4) -0.3465(3)
H74 H -0.1292(5) 0.1441(4) -0.3524(3)
N22 N -0.1326(4) 0.1739(3) -0.4503(2)
N23 N -0.1648(4) 0.1177(3) -0.4214(2)
C89 C -0.2137(4) 0.0831(4) -0.4490(3)
H75 H -0.2411(4) 0.0419(4) -0.4370(3)
C90 C -0.2172(5) 0.1173(4) -0.4969(3)
H76 H -0.2481(5) 0.1059(4) -0.5245(3)
C91 C -0.1657(5) 0.1730(4) -0.4973(3)
N24 N -0.0845(4) 0.2703(3) -0.5243(2)
C92 C -0.1416(5) 0.2283(4) -0.5373(3)
C93 C -0.1754(5) 0.2370(5) -0.5857(3)
H77 H -0.2158(5) 0.2073(5) -0.5940(3)
C94 C -0.1481(6) 0.2900(5) -0.6210(3)
H78 H -0.1701(6) 0.2975(5) -0.6541(3)
C95 C -0.0902(6) 0.3312(5) -0.6085(3)
H79 H -0.0708(6) 0.3670(5) -0.6331(3)
C96 C -0.0590(6) 0.3214(4) -0.5600(3)
H80 H -0.0187(6) 0.3512(4) -0.5516(3)
N25 N -0.1181(3) -0.1484(3) -0.2195(2)
C97 C -0.1274(4) -0.1603(4) -0.2706(3)
C98 C -0.0773(5) -0.2095(4) -0.2996(3)
H81 H -0.0854(5) -0.2183(4) -0.3352(3)
C99 C -0.0157(5) -0.2446(4) -0.2744(4)
H82 H 0.0181(5) -0.2793(4) -0.2925(4)
C100 C -0.0034(5) -0.2299(4) -0.2243(4)
H83 H 0.0408(5) -0.2517(4) -0.2079(4)
C101 C -0.0559(5) -0.1827(4) -0.1974(3)
H84 H -0.0481(5) -0.1740(4) -0.1617(3)
N26 N -0.2336(3) -0.0700(3) -0.2631(2)
N27 N -0.2913(3) -0.0429(3) -0.2928(2)
C102 C -0.2872(5) -0.0736(4) -0.3405(3)
H85 H -0.3213(5) -0.0622(4) -0.3679(3)
C103 C -0.2261(5) -0.1228(4) -0.3419(3)
H86 H -0.2086(5) -0.1534(4) -0.3698(3)
C104 C -0.1941(4) -0.1190(4) -0.2933(3)
C105 C -0.3506(4) 0.0107(4) -0.2733(3)
H87 H -0.3590(4) 0.0464(4) -0.3024(3)
H88 H -0.3288(4) 0.0352(4) -0.2446(3)
C106 C -0.4309(4) -0.0167(4) -0.2525(3)
C107 C -0.4517(5) -0.0850(4) -0.2595(3)
H89 H -0.4143(5) -0.1169(4) -0.2777(3)
C108 C -0.5271(5) -0.1079(4) -0.2403(3)
H90 H -0.5410(5) -0.1549(4) -0.2457(3)
C109 C -0.5809(5) -0.0618(4) -0.2136(3)
H91 H -0.6318(5) -0.0774(4) -0.2001(3)
C110 C -0.5618(5) 0.0062(4) -0.2065(3)
H92 H -0.5994(5) 0.0376(4) -0.1879(3)
C111 C -0.4873(4) 0.0297(4) -0.2263(3)
C112 C -0.4648(4) 0.1059(4) -0.2200(3)
H93 H -0.4174(4) 0.1044(4) -0.1995(3)
H94 H -0.4489(4) 0.1271(4) -0.2555(3)
N28 N -0.5680(3) 0.2018(3) -0.2223(2)
N29 N -0.5266(3) 0.1525(3) -0.1941(2)
C113 C -0.5501(4) 0.1539(4) -0.1422(3)
H95 H -0.5292(4) 0.1239(4) -0.1151(3)
C114 C -0.6093(4) 0.2061(4) -0.1351(3)
H96 H -0.6376(4) 0.2201(4) -0.1029(3)
C115 C -0.6185(4) 0.2341(3) -0.1860(3)
N30 N -0.6801(3) 0.2938(3) -0.2577(2)
C116 C -0.6758(4) 0.2891(4) -0.2042(3)
C117 C -0.7225(4) 0.3339(4) -0.1706(3)
H97 H -0.7195(4) 0.3291(4) -0.1333(3)
C118 C -0.7732(5) 0.3855(4) -0.1918(4)
H98 H -0.8054(5) 0.4164(4) -0.1692(4)
C119 C -0.7770(5) 0.3922(4) -0.2464(3)
H99 H -0.8107(5) 0.4278(4) -0.2618(3)
C120 C -0.7299(5) 0.3450(4) -0.2774(3)
H100 H -0.7327(5) 0.3488(4) -0.3146(3)
N31 N 0.0430(4) 0.1856(3) -0.4562(3)
C121 C 0.0777(5) 0.1604(4) -0.4121(3)
C122 C 0.1356(5) 0.1056(4) -0.4133(4)
H101 H 0.1580(5) 0.0885(4) -0.3818(4)
C123 C 0.1606(6) 0.0760(5) -0.4616(5)
H102 H 0.2000(6) 0.0379(5) -0.4635(5)
C124 C 0.1279(6) 0.1023(5) -0.5061(4)
H103 H 0.1459(6) 0.0837(5) -0.5395(4)
C125 C 0.0677(6) 0.1567(5) -0.5030(3)
H104 H 0.0440(6) 0.1734(5) -0.5341(3)
N32 N -0.0163(3) 0.2412(3) -0.3643(2)
N33 N -0.0248(4) 0.2698(3) -0.3157(2)
C126 C 0.0337(5) 0.2436(4) -0.2863(3)
H105 H 0.0409(5) 0.2566(4) -0.2514(3)
C127 C 0.0807(5) 0.1955(4) -0.3146(3)
H106 H 0.1253(5) 0.1676(4) -0.3036(3)
C128 C 0.0488(5) 0.1963(4) -0.3637(3)
C129 C -0.0914(4) 0.3184(4) -0.3003(3)
H107 H -0.1187(4) 0.3000(4) -0.2666(3)
H108 H -0.1300(4) 0.3194(4) -0.3275(3)
C130 C -0.0691(4) 0.3938(4) -0.2931(3)
C131 C 0.0084(5) 0.4168(4) -0.3062(3)
H109 H 0.0497(5) 0.3846(4) -0.3198(3)
C132 C 0.0245(5) 0.4869(4) -0.2991(3)
H110 H 0.0768(5) 0.5027(4) -0.3084(3)
C133 C -0.0351(5) 0.5335(4) -0.2786(3)
H111 H -0.0235(5) 0.5811(4) -0.2733(3)
C134 C -0.1118(5) 0.5113(4) -0.2656(3)
H112 H -0.1528(5) 0.5441(4) -0.2523(3)
C135 C -0.1291(4) 0.4415(4) -0.2719(3)
C136 C -0.2108(4) 0.4131(4) -0.2570(3)
H113 H -0.2270(4) 0.3883(4) -0.2875(3)
H114 H -0.2068(4) 0.3777(4) -0.2272(3)
N34 N -0.3059(3) 0.4720(3) -0.1909(2)
N35 N -0.2739(4) 0.4673(3) -0.2416(2)
C137 C -0.3109(5) 0.5133(4) -0.2741(3)
H115 H -0.2987(5) 0.5191(4) -0.3113(3)
C138 C -0.3696(5) 0.5509(4) -0.2444(3)
H116 H -0.4057(5) 0.5874(4) -0.2563(3)
C139 C -0.3644(4) 0.5237(4) -0.1934(3)
N36 N -0.3767(4) 0.5169(3) -0.0988(2)
C140 C -0.4069(4) 0.5447(4) -0.1435(3)
C141 C -0.4745(4) 0.5903(4) -0.1418(3)
H117 H -0.4953(4) 0.6086(4) -0.1735(3)
C142 C -0.5115(5) 0.6090(4) -0.0925(4)
H118 H -0.5577(5) 0.6404(4) -0.0902(4)
C143 C -0.4798(5) 0.5808(4) -0.0469(3)
H119 H -0.5033(5) 0.5931(4) -0.0128(3)
C144 C -0.4138(5) 0.5350(4) -0.0520(3)
H120 H -0.3932(5) 0.5150(4) -0.0207(3)
B1 B 0.3624(11) 0.0379(9) -0.4932(7)
F1 F 0.4218(7) 0.0824(7) -0.5040(5)
F2 F 0.3810(7) -0.0382(6) -0.4809(4)
F3 F 0.3272(6) 0.0647(6) -0.4487(4)
F4 F 0.3207(4) 0.0438(3) -0.5374(2)
B2 B 0.2825(9) 0.5087(9) -0.3953(9)
F5 F 0.2212(6) 0.5500(7) -0.3735(5)
F6 F 0.3510(5) 0.5245(5) -0.3784(5)
F7 F 0.2647(6) 0.4452(4) -0.3796(3)
F8 F 0.2785(5) 0.5160(6) -0.4477(4)
B3 B 0.1653(10) -0.3896(8) -0.2182(5)
F13 F 0.2414(5) -0.3850(8) -0.2227(5)
F14 F 0.1435(5) -0.4517(4) -0.1930(3)
F15 F 0.1300(6) -0.3448(5) -0.1797(4)
F16 F 0.1268(4) -0.3716(4) -0.2616(2)
F9 F 0.1102(4) 0.3746(3) -0.6119(3)
F10 F 0.2285(4) 0.3639(3) -0.5808(2)
F11 F 0.1556(4) 0.2678(3) -0.5815(2)
F12 F 0.2109(4) 0.3147(3) -0.6566(2)
B5 B 0.1742(7) 0.3294(6) -0.6070(4)
B4 B -0.3222(7) 0.6955(6) -0.0063(4)
F17 F -0.4032(4) 0.7109(4) 0.0037(3)
F18 F -0.3064(4) 0.6262(3) 0.0042(3)
F19 F -0.2987(4) 0.7137(4) -0.0578(2)
F20 F -0.2833(4) 0.7346(4) 0.0270(2)
B6 B 0.1443(8) -0.1049(8) -0.1604(5)
F21 F 0.2101(5) -0.1391(7) -0.1600(3)
F22 F 0.1573(6) -0.0401(5) -0.1373(3)
F23 F 0.1218(3) -0.0874(4) -0.2096(2)
F24 F 0.0852(4) -0.1322(4) -0.1300(2)
B7 B 0.1261(6) 0.2092(5) -0.1374(4)
F25 F 0.1165(4) 0.2766(4) -0.1182(4)
F26 F 0.1175(3) 0.2151(5) -0.1880(2)
F27 F 0.2023(3) 0.1859(3) -0.1280(2)
F28 F 0.0679(3) 0.1716(3) -0.1115(2)
B8 B -0.2775(6) 0.2135(5) -0.2618(3)
F29 F -0.2912(3) 0.1595(2) -0.2945(2)
F30 F -0.3315(3) 0.2111(2) -0.2168(2)
F31 F -0.2863(3) 0.2786(2) -0.2883(2)
F32 F -0.1996(2) 0.2032(2) -0.2465(2)
O1 O 0.3338(13) 0.1548(10) -0.5531(6)
O2 O 0.2184(12) -0.2077(10) -0.2686(8)
O3 O 0.4750(10) 0.5953(9) -0.3389(6)
O4 O 0.3464(12) 0.6316(9) -0.3147(7)
O5 O -0.3791(6) -0.2670(7) -0.3422(5)
O6 O -0.5106(5) 0.6931(6) -0.2705(4)
O7 O 0.1537(5) 0.3809(5) -0.0574(4)
O8 O 0.3816(4) -0.2892(4) -0.1852(3)
O9 O 0.4215(5) 0.4902(4) -0.5132(3)
O10 O 0.6182(5) 0.5649(4) -0.3943(3)
O11 O 0.2697(4) 0.0504(4) -0.1184(3)
O12 O 0.3552(5) 0.0289(3) -0.0326(3)
O13 O 0.3432(3) -0.1913(3) -0.1066(2)
O14 O 0.5483(3) -0.1402(3) 0.0142(2)
O15 O 0.4163(3) -0.1056(3) -0.0391(2)
O16 O 0.4053(8) -0.1244(5) -0.3933(5)
O17 O 0.4277(7) 0.1514(9) -0.5964(6)
O18 O 0.0168(10) 0.4354(13) -0.0117(9)
O19 O -0.0142(16) 0.3515(19) 0.0157(10)
O20 O 0.3329(8) -0.2229(7) -0.3373(4)
loop_
_geom_bond_atom_site_label_1
_geom_bond_atom_site_label_2
_geom_bond_site_symmetry_1
_geom_bond_site_symmetry_2
Co1 N4 1_555 1_555
Co2 N13 1_555 1_555
Co3 N7 1_555 1_555
Co4 N1 1_555 1_555
N1 C1 1_555 1_555
C1 C2 1_555 1_555
C2 H1 1_555 1_555
C3 C2 1_555 1_555
H2 C3 1_555 1_555
C4 C3 1_555 1_555
H3 C4 1_555 1_555
C5 N1 1_555 1_555
H4 C5 1_555 1_555
N2 Co4 1_555 1_555
N3 N2 1_555 1_555
C6 N3 1_555 1_555
H5 C6 1_555 1_555
C7 C6 1_555 1_555
H6 C7 1_555 1_555
C8 C1 1_555 1_555
C9 N3 1_555 1_555
H7 C9 1_555 1_555
H8 C9 1_555 1_555
C10 C9 1_555 1_555
C11 C10 1_555 1_555
H9 C11 1_555 1_555
C12 C11 1_555 1_555
H10 C12 1_555 1_555
C13 C12 1_555 1_555
H11 C13 1_555 1_555
C14 C13 1_555 1_555
H12 C14 1_555 1_555
C15 C10 1_555 1_555
C16 C15 1_555 1_555
H13 C16 1_555 1_555
H14 C16 1_555 1_555
N4 N5 1_555 1_555
N5 C16 1_555 1_555
C17 N5 1_555 1_555
H15 C17 1_555 1_555
C18 C17 1_555 1_555
H16 C18 1_555 1_555
C19 N4 1_555 1_555
N6 Co1 1_555 1_555
C20 C19 1_555 1_555
C21 C20 1_555 1_555
H17 C21 1_555 1_555
C22 C21 1_555 1_555
H18 C22 1_555 1_555
C23 C22 1_555 1_555
H19 C23 1_555 1_555
C24 N6 1_555 1_555
H20 C24 1_555 1_555
N7 C25 1_555 1_555
C25 C26 1_555 1_555
C26 H21 1_555 1_555
C27 C26 1_555 1_555
H22 C27 1_555 1_555
C28 C27 1_555 1_555
H23 C28 1_555 1_555
C29 N7 1_555 1_555
H24 C29 1_555 1_555
N8 Co3 1_555 1_555
N9 N8 1_555 1_555
C30 N9 1_555 1_555
H25 C30 1_555 1_555
C31 C30 1_555 1_555
H26 C31 1_555 1_555
C32 C25 1_555 1_555
C33 N9 1_555 1_555
H27 C33 1_555 1_555
H28 C33 1_555 1_555
C34 C33 1_555 1_555
C35 C34 1_555 1_555
H29 C35 1_555 1_555
C36 C35 1_555 1_555
H30 C36 1_555 1_555
C37 C36 1_555 1_555
H31 C37 1_555 1_555
C38 C37 1_555 1_555
H32 C38 1_555 1_555
C39 C34 1_555 1_555
C40 C39 1_555 1_555
H33 C40 1_555 1_555
H34 C40 1_555 1_555
N10 Co4 1_555 1_555
N11 C40 1_555 1_555
C41 N11 1_555 1_555
H35 C41 1_555 1_555
C42 C41 1_555 1_555
H36 C42 1_555 1_555
C43 N10 1_555 1_555
N12 Co4 1_555 1_555
C44 C43 1_555 1_555
C45 C44 1_555 1_555
H37 C45 1_555 1_555
C46 C45 1_555 1_555
H38 C46 1_555 1_555
C47 C46 1_555 1_555
H39 C47 1_555 1_555
C48 N12 1_555 1_555
H40 C48 1_555 1_555
N13 C49 1_555 1_555
C49 H41 1_555 1_555
C50 C49 1_555 1_555
H42 C50 1_555 1_555
C51 C50 1_555 1_555
H43 C51 1_555 1_555
C52 C51 1_555 1_555
H44 C52 1_555 1_555
C53 N13 1_555 1_555
N14 Co2 1_555 1_555
N15 N14 1_555 1_555
C54 N15 1_555 1_555
H45 C54 1_555 1_555
C55 C54 1_555 1_555
H46 C55 1_555 1_555
C56 C53 1_555 1_555
C57 N15 1_555 1_555
H47 C57 1_555 1_555
H48 C57 1_555 1_555
C58 C57 1_555 1_555
C59 C58 1_555 1_555
H49 C59 1_555 1_555
C60 C59 1_555 1_555
H50 C60 1_555 1_555
C61 C60 1_555 1_555
H51 C61 1_555 1_555
C62 C61 1_555 1_555
H52 C62 1_555 1_555
C63 C58 1_555 1_555
C64 C63 1_555 1_555
H53 C64 1_555 1_555
H54 C64 1_555 1_555
N16 Co1 1_555 1_555
N17 C64 1_555 1_555
C65 N17 1_555 1_555
H55 C65 1_555 1_555
C66 C65 1_555 1_555
H56 C66 1_555 1_555
C67 N16 1_555 1_555
N18 Co1 1_555 1_555
C68 C67 1_555 1_555
C69 C68 1_555 1_555
H57 C69 1_555 1_555
C70 C69 1_555 1_555
H58 C70 1_555 1_555
C71 C70 1_555 1_555
H59 C71 1_555 1_555
C72 N18 1_555 1_555
H60 C72 1_555 1_555
N19 Co2 1_555 1_555
C73 N19 1_555 1_555
C74 C73 1_555 1_555
H61 C74 1_555 1_555
C75 C74 1_555 1_555
H62 C75 1_555 1_555
C76 C75 1_555 1_555
H63 C76 1_555 1_555
C77 N19 1_555 1_555
H64 C77 1_555 1_555
N20 Co2 1_555 1_555
N21 N20 1_555 1_555
C78 N21 1_555 1_555
H65 C78 1_555 1_555
C79 C78 1_555 1_555
H66 C79 1_555 1_555
C80 C73 1_555 1_555
C81 N21 1_555 1_555
H67 C81 1_555 1_555
H68 C81 1_555 1_555
C82 C81 1_555 1_555
C83 C82 1_555 1_555
H69 C83 1_555 1_555
C84 C83 1_555 1_555
H70 C84 1_555 1_555
C85 C84 1_555 1_555
H71 C85 1_555 1_555
C86 C85 1_555 1_555
H72 C86 1_555 1_555
C87 C82 1_555 1_555
C88 C87 1_555 1_555
H73 C88 1_555 1_555
H74 C88 1_555 1_555
N22 Co3 1_555 1_555
N23 C88 1_555 1_555
C89 N23 1_555 1_555
H75 C89 1_555 1_555
C90 C89 1_555 1_555
H76 C90 1_555 1_555
C91 N22 1_555 1_555
N24 Co3 1_555 1_555
C92 C91 1_555 1_555
C93 C92 1_555 1_555
H77 C93 1_555 1_555
C94 C93 1_555 1_555
H78 C94 1_555 1_555
C95 C94 1_555 1_555
H79 C95 1_555 1_555
C96 N24 1_555 1_555
H80 C96 1_555 1_555
N25 Co2 1_555 1_555
C97 N25 1_555 1_555
C98 C97 1_555 1_555
H81 C98 1_555 1_555
C99 C98 1_555 1_555
H82 C99 1_555 1_555
C100 C99 1_555 1_555
H83 C100 1_555 1_555
C101 N25 1_555 1_555
H84 C101 1_555 1_555
N26 Co2 1_555 1_555
N27 N26 1_555 1_555
C102 N27 1_555 1_555
H85 C102 1_555 1_555
C103 C102 1_555 1_555
H86 C103 1_555 1_555
C104 C97 1_555 1_555
C105 N27 1_555 1_555
H87 C105 1_555 1_555
H88 C105 1_555 1_555
C106 C105 1_555 1_555
C107 C106 1_555 1_555
H89 C107 1_555 1_555
C108 C107 1_555 1_555
H90 C108 1_555 1_555
C109 C108 1_555 1_555
H91 C109 1_555 1_555
C110 C109 1_555 1_555
H92 C110 1_555 1_555
C111 C106 1_555 1_555
C112 C111 1_555 1_555
H93 C112 1_555 1_555
H94 C112 1_555 1_555
N28 Co4 1_555 1_555
N29 C112 1_555 1_555
C113 N29 1_555 1_555
H95 C113 1_555 1_555
C114 C113 1_555 1_555
H96 C114 1_555 1_555
C115 N28 1_555 1_555
N30 Co4 1_555 1_555
C116 C115 1_555 1_555
C117 C116 1_555 1_555
H97 C117 1_555 1_555
C118 C117 1_555 1_555
H98 C118 1_555 1_555
C119 C118 1_555 1_555
H99 C119 1_555 1_555
C120 N30 1_555 1_555
H100 C120 1_555 1_555
N31 Co3 1_555 1_555
C121 N31 1_555 1_555
C122 C121 1_555 1_555
H101 C122 1_555 1_555
C123 C122 1_555 1_555
H102 C123 1_555 1_555
C124 C123 1_555 1_555
H103 C124 1_555 1_555
C125 N31 1_555 1_555
H104 C125 1_555 1_555
N32 Co3 1_555 1_555
N33 N32 1_555 1_555
C126 N33 1_555 1_555
H105 C126 1_555 1_555
C127 C126 1_555 1_555
H106 C127 1_555 1_555
C128 C121 1_555 1_555
C129 N33 1_555 1_555
H107 C129 1_555 1_555
H108 C129 1_555 1_555
C130 C129 1_555 1_555
C131 C130 1_555 1_555
H109 C131 1_555 1_555
C132 C131 1_555 1_555
H110 C132 1_555 1_555
C133 C132 1_555 1_555
H111 C133 1_555 1_555
C134 C133 1_555 1_555
H112 C134 1_555 1_555
C135 C130 1_555 1_555
C136 C135 1_555 1_555
H113 C136 1_555 1_555
H114 C136 1_555 1_555
N34 Co1 1_555 1_555
N35 C136 1_555 1_555
C137 N35 1_555 1_555
H115 C137 1_555 1_555
C138 C137 1_555 1_555
H116 C138 1_555 1_555
C139 N34 1_555 1_555
N36 Co1 1_555 1_555
C140 C139 1_555 1_555
C141 C140 1_555 1_555
H117 C141 1_555 1_555
C142 C141 1_555 1_555
H118 C142 1_555 1_555
C143 C142 1_555 1_555
H119 C143 1_555 1_555
C144 N36 1_555 1_555
H120 C144 1_555 1_555
B1 F1 1_555 1_555
F2 B1 1_555 1_555
F3 B1 1_555 1_555
F4 B1 1_555 1_555
B2 F5 1_555 1_555
F6 B2 1_555 1_555
F7 B2 1_555 1_555
F8 B2 1_555 1_555
B3 F13 1_555 1_555
F9 B5 1_555 1_555
F10 B5 1_555 1_555
F11 B5 1_555 1_555
F12 B5 1_555 1_555
B4 F17 1_555 1_555
F14 B3 1_555 1_555
F15 B3 1_555 1_555
F16 B3 1_555 1_555
F18 B4 1_555 1_555
F19 B4 1_555 1_555
F20 B4 1_555 1_555
B6 F21 1_555 1_555
F22 B6 1_555 1_555
F23 B6 1_555 1_555
F24 B6 1_555 1_555
B7 F25 1_555 1_555
F26 B7 1_555 1_555
F27 B7 1_555 1_555
F28 B7 1_555 1_555
B8 F29 1_555 1_555
F30 B8 1_555 1_555
F31 B8 1_555 1_555
F32 B8 1_555 1_555
C4 C5 1_555 1_555
N2 C8 1_555 1_555
C7 C8 1_555 1_555
C14 C15 1_555 1_555
C18 C19 1_555 1_555
N6 C20 1_555 1_555
C23 C24 1_555 1_555
C28 C29 1_555 1_555
N8 C32 1_555 1_555
C31 C32 1_555 1_555
C38 C39 1_555 1_555
N10 N11 1_555 1_555
C42 C43 1_555 1_555
N12 C44 1_555 1_555
C47 C48 1_555 1_555
C52 C53 1_555 1_555
N14 C56 1_555 1_555
C55 C56 1_555 1_555
C62 C63 1_555 1_555
N16 N17 1_555 1_555
C66 C67 1_555 1_555
N18 C68 1_555 1_555
C71 C72 1_555 1_555
C76 C77 1_555 1_555
N20 C80 1_555 1_555
C79 C80 1_555 1_555
C86 C87 1_555 1_555
N22 N23 1_555 1_555
C90 C91 1_555 1_555
N24 C92 1_555 1_555
C95 C96 1_555 1_555
C100 C101 1_555 1_555
N26 C104 1_555 1_555
C103 C104 1_555 1_555
C110 C111 1_555 1_555
N28 N29 1_555 1_555
C114 C115 1_555 1_555
N30 C116 1_555 1_555
C119 C120 1_555 1_555
C124 C125 1_555 1_555
N32 C128 1_555 1_555
C127 C128 1_555 1_555
C134 C135 1_555 1_555
N34 N35 1_555 1_555
C138 C139 1_555 1_555
N36 C140 1_555 1_555
C143 C144 1_555 1_555

#END
