
#######################################################################
#
#                 Cambridge Crystallographic Data Centre
#                                CCDC 
#
#######################################################################
#
# If this CIF has been generated from an entry in the Cambridge 
# Structural Database, then it will include bibliographic, chemical, 
# crystal, experimental, refinement or atomic coordinate data resulting 
# from the CCDC's data processing and validation procedures.
#
#######################################################################

data_NUHMUA
_chemical_formula_moiety         'C390 H330 N60 Zn10 20+,19(Cl1 O4 1-),Br1 1-'
_chemical_name_systematic        
"pentadecakis(\m-3,3'-bipyridine-6,6'-diylbis(N-(4-methylphenyl)methanimine))-deca-zinc bromide nonadecaperchlorate unknown solvate"
_symmetry_cell_setting           monoclinic
_symmetry_space_group_name_H-M   'P 2/n'
_symmetry_Int_Tables_number      13
_space_group_name_Hall           '-P 2yac'
loop_
_symmetry_equiv_pos_site_id
_symmetry_equiv_pos_as_xyz
1 x,y,z
2 1/2-x,y,1/2-z
3 -x,-y,-z
4 1/2+x,-y,1/2+z
_cell_length_a                   21.4814(19)
_cell_length_b                   30.514(2)
_cell_length_c                   34.022(3)
_cell_angle_alpha                90
_cell_angle_beta                 97.399(4)
_cell_angle_gamma                90
_cell_volume                     22115.2
_exptl_crystal_colour            colorless
_exptl_crystal_description       cube
_cell_formula_units_Z            2
_exptl_crystal_recrystallization_method 'acetonitrile/diethyl ether'
loop_
_atom_site_label
_atom_site_type_symbol
_atom_site_fract_x
_atom_site_fract_y
_atom_site_fract_z
Zn1 Zn 0.52020(12) 0.03784(7) 0.29835(7)
Zn2 Zn 0.63602(12) 0.07730(7) 0.06918(7)
Zn3 Zn 0.65583(13) 0.34309(8) 0.01815(7)
Zn4 Zn 0.55810(14) 0.48253(8) 0.22297(7)
Zn5 Zn 0.48170(12) 0.29526(7) 0.39709(7)
N1 N 0.7509(8) 0.3601(6) -0.0013(5)
N2 N 0.5010(8) 0.5414(6) 0.2113(5)
N3 N 0.6304(8) 0.5337(5) 0.2430(5)
N4 N 0.4023(7) 0.3075(5) 0.4303(4)
N5 N 0.5363(7) 0.3082(5) 0.4552(5)
N6 N 0.4481(8) -0.0121(5) 0.3073(5)
N7 N 0.5843(8) -0.0030(5) 0.3401(5)
N8 N 0.6183(8) 0.3674(5) -0.0406(5)
N9 N 0.5900(7) 0.0342(6) 0.0206(4)
N10 N 0.7195(7) 0.0339(5) 0.0644(5)
N11 N 0.5645(9) 0.1270(5) 0.0774(5)
N12 N 0.9327(10) 0.3232(4) 0.4634(5)
N13 N 0.4892(11) 0.4344(3) 0.2083(5)
N14 N 0.4358(9) 0.2778(5) 0.3377(5)
N15 N 1.0336(7) 0.0828(5) 0.2435(4)
C1 C 0.7839(7) 0.3353(5) -0.0246(5)
C2 C 0.7923(7) 0.3487(4) -0.0628(5)
H1 H 0.7802 0.3774 -0.0715
C3 C 0.8186(7) 0.3202(4) -0.0882(4)
H2 H 0.8241 0.3297 -0.1141
C4 C 0.8369(5) 0.2777(4) -0.0761(4)
C5 C 0.8279(7) 0.2645(4) -0.0377(4)
H3 H 0.8399 0.2358 -0.0289
C6 C 0.8017(7) 0.2930(5) -0.0122(4)
H4 H 0.7960 0.2835 0.0137
C7 C 0.8666(9) 0.2473(6) -0.1032(5)
H5 H 0.8357 0.2254 -0.1142
H6 H 0.9025 0.2324 -0.0882
H7 H 0.8809 0.2642 -0.1248
C8 C 0.7588(10) 0.4014(8) 0.0034(6)
H8 H 0.7900 0.4152 -0.0098
N16 N 0.6746(6) 0.4072(3) 0.0410(3)
C9 C 0.7249(6) 0.4273(4) 0.0263(3)
C10 C 0.7398(5) 0.4707(4) 0.0360(4)
H9 H 0.7742 0.4844 0.0260
C11 C 0.7044(7) 0.4939(3) 0.0605(4)
H10 H 0.7146 0.5235 0.0671
C12 C 0.6541(6) 0.4738(4) 0.0751(4)
C13 C 0.6392(5) 0.4304(4) 0.0654(4)
H11 H 0.6048 0.4167 0.0754
N17 N 0.5661(6) 0.4986(4) 0.1613(3)
C14 C 0.6024(6) 0.4766(3) 0.1366(4)
H12 H 0.6167 0.4477 0.1430
C15 C 0.6176(6) 0.4968(4) 0.1025(4)
C16 C 0.5967(6) 0.5391(4) 0.0931(3)
H13 H 0.6071 0.5530 0.0698
C17 C 0.5604(6) 0.5612(3) 0.1178(4)
H14 H 0.5461 0.5901 0.1114
C18 C 0.5452(6) 0.5409(4) 0.1519(4)
C19 C 0.5082(10) 0.5605(8) 0.1797(7)
H15 H 0.4891 0.5883 0.1739
C20 C 0.4717(4) 0.5654(5) 0.2379(4)
C21 C 0.4853(4) 0.6092(4) 0.2470(3)
H16 H 0.5113 0.6254 0.2317
C22 C 0.4606(5) 0.6294(5) 0.2785(4)
H17 H 0.4702 0.6592 0.2844
C23 C 0.4220(5) 0.6062(5) 0.3015(4)
C24 C 0.4090(5) 0.5621(6) 0.2921(4)
H18 H 0.3831 0.5458 0.3074
C25 C 0.4335(5) 0.5418(5) 0.2606(4)
H19 H 0.4241 0.5119 0.2547
C26 C 0.3943(6) 0.6283(7) 0.3348(5)
H20 H 0.3734 0.6555 0.3251
H21 H 0.4277 0.6351 0.3563
H22 H 0.3636 0.6088 0.3446
C27 C 0.6671(4) 0.5578(3) 0.2192(3)
C28 C 0.7023(5) 0.5365(3) 0.1931(4)
H23 H 0.7044 0.5054 0.1929
C29 C 0.7344(4) 0.5609(4) 0.1674(3)
H24 H 0.7583 0.5461 0.1498
C30 C 0.7321(4) 0.6068(4) 0.1671(3)
C31 C 0.6968(4) 0.6277(3) 0.1936(3)
H25 H 0.6947 0.6588 0.1939
C32 C 0.6645(4) 0.6035(3) 0.2193(3)
H26 H 0.6408 0.6182 0.2370
C33 C 0.7656(5) 0.6330(4) 0.1387(4)
H27 H 0.8101 0.6249 0.1419
H28 H 0.7615 0.6643 0.1441
H29 H 0.7469 0.6267 0.1114
C34 C 0.6254(9) 0.5454(7) 0.2784(7)
H30 H 0.6463 0.5712 0.2886
N18 N 0.5563(6) 0.4851(4) 0.2859(3)
C35 C 0.5891(6) 0.5208(4) 0.3035(4)
C36 C 0.5873(6) 0.5299(3) 0.3434(4)
H31 H 0.6097 0.5543 0.3554
C37 C 0.5527(6) 0.5033(4) 0.3657(3)
H32 H 0.5514 0.5095 0.3929
C38 C 0.5199(6) 0.4676(4) 0.3481(4)
C39 C 0.5217(6) 0.4585(3) 0.3082(4)
H33 H 0.4994 0.4341 0.2962
N19 N 0.4616(6) 0.3634(3) 0.3870(4)
C40 C 0.4928(5) 0.3930(4) 0.3653(3)
H34 H 0.5205 0.3825 0.3478
C41 C 0.4836(6) 0.4377(4) 0.3693(4)
C42 C 0.4431(6) 0.4530(3) 0.3950(4)
H35 H 0.4367 0.4836 0.3977
C43 C 0.4118(5) 0.4235(4) 0.4167(3)
H36 H 0.3841 0.4339 0.4342
C44 C 0.4211(6) 0.3787(4) 0.4127(4)
C45 C 0.3924(10) 0.3471(7) 0.4355(6)
H37 H 0.3661 0.3561 0.4544
C46 C 0.3785(4) 0.2743(3) 0.4557(3)
C47 C 0.3845(4) 0.2817(3) 0.4965(3)
H38 H 0.3967 0.3098 0.5068
C48 C 0.3728(5) 0.2479(3) 0.5223(4)
H39 H 0.3771 0.2534 0.5500
C49 C 0.3547(5) 0.2062(3) 0.5079(4)
C50 C 0.3491(5) 0.1991(3) 0.4669(4)
H40 H 0.3371 0.1710 0.4565
C51 C 0.3608(5) 0.2328(4) 0.4409(4)
H41 H 0.3566 0.2274 0.4132
C52 C 0.3406(6) 0.1701(4) 0.5357(5)
H42 H 0.3783 0.1635 0.5541
H43 H 0.3272 0.1438 0.5203
H44 H 0.3069 0.1795 0.5506
C53 C 0.5503(3) 0.3506(3) 0.4728(3)
C54 C 0.5301(4) 0.3636(3) 0.5085(2)
H45 H 0.5095 0.3432 0.5235
C55 C 0.5401(5) 0.4065(3) 0.5221(3)
H46 H 0.5261 0.4150 0.5463
C56 C 0.5704(4) 0.4373(3) 0.5006(3)
C57 C 0.5903(4) 0.4238(3) 0.4648(3)
H47 H 0.6108 0.4442 0.4497
C58 C 0.5804(5) 0.3809(3) 0.4510(3)
H48 H 0.5943 0.3724 0.4267
C59 C 0.5825(5) 0.4832(3) 0.5158(4)
H49 H 0.5500 0.4916 0.5322
H50 H 0.5816 0.5035 0.4934
H51 H 0.6237 0.4846 0.5319
C60 C 0.5371(9) 0.2742(7) 0.4784(7)
H52 H 0.5491 0.2772 0.5061
N20 N 0.4994(5) 0.2314(3) 0.4210(4)
C61 C 0.5194(6) 0.2318(3) 0.4615(4)
C62 C 0.5236(6) 0.1928(4) 0.4828(3)
H53 H 0.5373 0.1931 0.5105
C63 C 0.5076(6) 0.1534(3) 0.4636(4)
H54 H 0.5104 0.1268 0.4782
C64 C 0.4875(6) 0.1530(3) 0.4231(4)
C65 C 0.4834(6) 0.1920(4) 0.4018(3)
H55 H 0.4697 0.1917 0.3741
N21 N 0.4778(5) 0.0656(4) 0.3464(3)
C66 C 0.4924(5) 0.1043(4) 0.3672(4)
H56 H 0.5193 0.1252 0.3575
C67 C 0.4676(6) 0.1123(3) 0.4023(4)
C68 C 0.4282(6) 0.0816(4) 0.4166(3)
H57 H 0.4113 0.0871 0.4406
C69 C 0.4136(5) 0.0430(4) 0.3958(4)
H58 H 0.3867 0.0220 0.4056
C70 C 0.4384(6) 0.0350(3) 0.3607(3)
C71 C 0.4251(10) -0.0045(6) 0.3397(7)
H59 H 0.3988 -0.0257 0.3497
C72 C 0.5882(6) -0.0034(5) 0.3817(3)
C73 C 0.5748(7) -0.0410(4) 0.4026(4)
H60 H 0.5668 -0.0679 0.3890
C74 C 0.5732(6) -0.0389(3) 0.4435(4)
H61 H 0.5640 -0.0646 0.4574
C75 C 0.5850(5) 0.0005(4) 0.4643(3)
C76 C 0.5981(6) 0.0379(3) 0.4430(4)
H62 H 0.6061 0.0650 0.4565
C77 C 0.5998(6) 0.0361(4) 0.4021(4)
H63 H 0.6088 0.0618 0.3881
C78 C 0.5848(8) 0.0023(6) 0.5086(3)
H64 H 0.5508 -0.0161 0.5160
H65 H 0.5784 0.0327 0.5166
H66 H 0.6251 -0.0084 0.5219
C79 C 0.6092(10) -0.0342(8) 0.3237(6)
H67 H 0.6327 -0.0560 0.3392
N22 N 0.5672(5) -0.0020(4) 0.2613(4)
C80 C 0.6014(6) -0.0364(4) 0.2802(3)
C81 C 0.6305(6) -0.0667(4) 0.2581(4)
H68 H 0.6538 -0.0903 0.2710
C82 C 0.6254(6) -0.0626(4) 0.2171(4)
H69 H 0.6453 -0.0833 0.2020
C83 C 0.5912(6) -0.0282(4) 0.1982(3)
C84 C 0.5621(5) 0.0021(3) 0.2203(4)
H70 H 0.5388 0.0256 0.2074
N23 N 0.5933(5) 0.0249(3) 0.0978(4)
C85 C 0.5974(6) 0.0193(3) 0.1386(3)
H71 H 0.6069 0.0436 0.1558
C86 C 0.5874(6) -0.0218(4) 0.1542(3)
C87 C 0.5734(6) -0.0573(3) 0.1290(4)
H72 H 0.5666 -0.0854 0.1397
C88 C 0.5694(6) -0.0517(3) 0.0883(4)
H73 H 0.5598 -0.0760 0.0710
C89 C 0.5793(6) -0.0106(4) 0.0726(3)
C90 C 0.5758(10) -0.0018(7) 0.0314(6)
H74 H 0.5624 -0.0240 0.0126
C91 C 0.5938(6) 0.0413(3) -0.0217(4)
C92 C 0.5733(5) 0.0814(3) -0.0384(4)
H75 H 0.5611 0.1042 -0.0220
C93 C 0.5709(4) 0.0882(3) -0.0792(4)
H76 H 0.5568 0.1156 -0.0902
C94 C 0.5887(5) 0.0551(3) -0.1041(4)
C95 C 0.6090(5) 0.0150(3) -0.0869(4)
H77 H 0.6211 -0.0079 -0.1033
C96 C 0.6116(5) 0.0080(3) -0.0462(4)
H78 H 0.6255 -0.0194 -0.0351
C97 C 0.5875(8) 0.0629(3) -0.1479(4)
H79 H 0.5484 0.0778 -0.1583
H80 H 0.5900 0.0347 -0.1615
H81 H 0.6233 0.0812 -0.1525
C98 C 0.6030(4) 0.4109(3) -0.0508(3)
C99 C 0.6306(5) 0.4314(3) -0.0810(3)
H82 H 0.6590 0.4156 -0.0949
C100 C 0.6165(5) 0.4750(3) -0.0907(3)
H83 H 0.6356 0.4886 -0.1113
C101 C 0.5747(5) 0.4991(3) -0.0707(3)
C102 C 0.5475(5) 0.4781(3) -0.0404(3)
H84 H 0.5192 0.4938 -0.0264
C103 C 0.5614(6) 0.4345(3) -0.0305(3)
H85 H 0.5425 0.4208 -0.0100
C104 C 0.5584(6) 0.5459(3) -0.0820(4)
H86 H 0.5597 0.5498 -0.1104
H87 H 0.5888 0.5656 -0.0671
H88 H 0.5162 0.5526 -0.0757
C105 C 0.6251(11) 0.3381(8) -0.0670(8)
H89 H 0.6155 0.3457 -0.0942
N24 N 0.6549(6) 0.2848(4) -0.0170(4)
C106 C 0.6463(7) 0.2949(4) -0.0571(4)
C107 C 0.6556(7) 0.2629(5) -0.0849(3)
H90 H 0.6497 0.2698 -0.1124
C108 C 0.6734(7) 0.2208(4) -0.0725(4)
H91 H 0.6798 0.1990 -0.0914
C109 C 0.6821(7) 0.2107(4) -0.0323(5)
C110 C 0.6728(6) 0.2427(5) -0.0045(3)
H92 H 0.6787 0.2358 0.0229
N25 N 0.6867(6) 0.1100(5) 0.0296(3)
C111 C 0.6710(6) 0.1512(4) 0.0140(4)
H93 H 0.6396 0.1681 0.0242
C112 C 0.7013(7) 0.1677(4) -0.0166(4)
C113 C 0.7472(6) 0.1430(5) -0.0316(3)
H94 H 0.7679 0.1543 -0.0525
C114 C 0.7629(6) 0.1018(5) -0.0160(4)
H95 H 0.7943 0.0849 -0.0262
C115 C 0.7326(7) 0.0853(3) 0.0146(4)
C116 C 0.7456(11) 0.0448(7) 0.0335(7)
H96 H 0.7739 0.0250 0.0234
C117 C 0.7325(6) -0.0077(4) 0.0813(4)
C118 C 0.7350(7) -0.0126(3) 0.1222(4)
H97 H 0.7324 0.0124 0.1386
C119 C 0.7411(6) -0.0543(4) 0.1393(3)
H98 H 0.7427 -0.0573 0.1672
C120 C 0.7448(5) -0.0918(3) 0.1159(3)
C121 C 0.7425(6) -0.0862(4) 0.0748(3)
H99 H 0.7452 -0.1112 0.0584
C122 C 0.7364(7) -0.0447(5) 0.0576(3)
H100 H 0.7349 -0.0416 0.0297
C123 C 0.7499(8) -0.1368(4) 0.1343(5)
H101 H 0.7344 -0.1587 0.1143
H102 H 0.7246 -0.1380 0.1562
H103 H 0.7938 -0.1430 0.1442
N26 N 0.6199(7) 0.4290(4) 0.2289(3)
C124 C 0.6838(7) 0.4289(4) 0.2424(4)
H104 H 0.7041 0.4554 0.2515
C125 C 0.7179(5) 0.3902(5) 0.2425(4)
C126 C 0.6881(7) 0.3516(4) 0.2291(4)
H105 H 0.7115 0.3251 0.2292
C127 C 0.6242(7) 0.3516(4) 0.2156(4)
H106 H 0.6039 0.3252 0.2064
C128 C 0.5901(5) 0.3904(5) 0.2155(4)
C129 C 0.5208(11) 0.3993(8) 0.2041(7)
H107 H 0.4971 0.3755 0.1921
N27 N 0.6790(6) 0.1109(3) 0.1203(3)
C130 C 0.7395(6) 0.1073(4) 0.1402(4)
H108 H 0.7691 0.0886 0.1301
C131 C 0.7567(5) 0.1311(5) 0.1747(4)
C132 C 0.7135(7) 0.1584(4) 0.1894(3)
H109 H 0.7252 0.1747 0.2130
C133 C 0.6529(6) 0.1620(4) 0.1696(4)
H110 H 0.6233 0.1807 0.1796
C134 C 0.6357(5) 0.1382(4) 0.1350(4)
C135 C 0.5774(10) 0.1447(7) 0.1102(7)
H111 H 0.5471 0.1636 0.1194
C136 C 0.5105(9) 0.1398(9) 0.0519(6)
C137 C 0.4684(12) 0.1087(7) 0.0340(7)
H112 H 0.4775 0.0783 0.0374
C138 C 0.4130(10) 0.1220(6) 0.0111(6)
H113 H 0.3847 0.1006 -0.0010
C139 C 0.3984(9) 0.1666(6) 0.0056(5)
C140 C 0.4412(10) 0.1975(6) 0.0237(6)
H114 H 0.4324 0.2278 0.0203
C141 C 0.4967(10) 0.1843(8) 0.0466(6)
H115 H 0.5251 0.2057 0.0587
C142 C 0.3379(10) 0.1809(10) -0.0183(7)
H116 H 0.3024 0.1710 -0.0052
H117 H 0.3348 0.1680 -0.0449
H118 H 0.3371 0.2129 -0.0205
N28 N 0.9154(6) 0.0907(3) 0.2049(3)
C143 C 0.8535(6) 0.0933(3) 0.1873(3)
H119 H 0.8349 0.0693 0.1723
C144 C 0.8187(5) 0.1310(5) 0.1917(4)
C145 C 0.8459(6) 0.1661(3) 0.2136(4)
H120 H 0.8222 0.1919 0.2166
C146 C 0.9079(6) 0.1635(3) 0.2312(4)
H121 H 0.9265 0.1874 0.2462
C147 C 0.9427(5) 0.1257(4) 0.2269(3)
C148 C 1.0056(10) 0.1181(7) 0.2471(6)
H122 H 1.0258 0.1405 0.2635
C149 C 1.0962(7) 0.0782(7) 0.2612(5)
C150 C 1.1153(7) 0.0372(6) 0.2765(5)
H123 H 1.0867 0.0133 0.2740
C151 C 1.1763(8) 0.0312(4) 0.2954(5)
H124 H 1.1889 0.0032 0.3057
C152 C 1.2195(7) 0.0659(4) 0.2995(4)
C153 C 1.1995(8) 0.1069(4) 0.2841(5)
H125 H 1.2280 0.1309 0.2866
C154 C 1.1386(9) 0.1131(5) 0.2651(5)
H126 H 1.1259 0.1411 0.2548
C155 C 1.2858(7) 0.0591(7) 0.3191(6)
H127 H 1.3095 0.0864 0.3180
H128 H 1.3058 0.0360 0.3051
H129 H 1.2852 0.0505 0.3468
N29 N 0.5603(6) 0.2906(3) 0.3659(4)
C156 C 0.6235(7) 0.2942(4) 0.3807(3)
H130 H 0.6357 0.2980 0.4083
C157 C 0.6688(5) 0.2922(4) 0.3550(4)
C158 C 0.6509(6) 0.2866(4) 0.3146(4)
H131 H 0.6819 0.2853 0.2970
C159 C 0.5877(7) 0.2830(4) 0.2998(3)
H132 H 0.5755 0.2791 0.2722
C160 C 0.5424(5) 0.2850(4) 0.3255(4)
C161 C 0.4754(11) 0.2793(6) 0.3122(7)
H133 H 0.4609 0.2768 0.2847
N30 N 0.8087(7) 0.3152(3) 0.4263(3)
C162 C 0.7469(6) 0.3129(4) 0.4084(4)
H134 H 0.7142 0.3252 0.4212
C163 C 0.7329(5) 0.2927(4) 0.3717(4)
C164 C 0.7808(7) 0.2748(4) 0.3529(3)
H135 H 0.7712 0.2610 0.3279
C165 C 0.8426(6) 0.2770(4) 0.3709(4)
H136 H 0.8753 0.2648 0.3581
C166 C 0.8566(5) 0.2972(4) 0.4076(4)
C167 C 0.9217(10) 0.3038(6) 0.4296(6)
H137 H 0.9564 0.2929 0.4179
C168 C 0.9933(9) 0.3260(3) 0.4810(3)
C169 C 1.0141(10) 0.3176(3) 0.5209(3)
H138 H 0.9849 0.3093 0.5383
C170 C 1.0778(10) 0.3213(3) 0.5353(3)
H139 H 1.0914 0.3156 0.5625
C171 C 1.1219(9) 0.3334(3) 0.5103(3)
C172 C 1.1003(8) 0.3419(3) 0.4704(3)
H140 H 1.1294 0.3503 0.4530
C173 C 1.0367(8) 0.3382(3) 0.4558(3)
H141 H 1.0229 0.3440 0.4286
C174 C 1.1907(9) 0.3364(4) 0.5258(3)
H142 H 1.2149 0.3191 0.5088
H143 H 1.1978 0.3250 0.5529
H144 H 1.2042 0.3671 0.5257
C175 C 0.4257(7) -0.0511(3) 0.2875(4)
C176 C 0.4705(8) -0.0821(3) 0.2801(5)
H145 H 0.5133 -0.0781 0.2907
C177 C 0.4527(8) -0.1190(3) 0.2571(5)
H146 H 0.4835 -0.1400 0.2523
C178 C 0.3899(9) -0.1258(3) 0.2412(5)
C179 C 0.3455(8) -0.0942(3) 0.2487(5)
H147 H 0.3028 -0.0981 0.2381
C180 C 0.3631(7) -0.0572(3) 0.2717(4)
H148 H 0.3323 -0.0362 0.2765
C181 C 0.3705(9) -0.1662(3) 0.2172(5)
H149 H 0.4076 -0.1844 0.2150
H150 H 0.3511 -0.1576 0.1907
H151 H 0.3403 -0.1830 0.2304
C182 C 0.4338(7) 0.4299(2) 0.1950(3)
C183 C 0.4020(8) 0.4630(2) 0.1723(3)
H152 H 0.4227 0.4899 0.1683
C184 C 0.3398(8) 0.4568(3) 0.1555(4)
H153 H 0.3186 0.4796 0.1401
C185 C 0.3082(7) 0.4175(3) 0.1609(3)
C186 C 0.3407(7) 0.3846(3) 0.1839(3)
H154 H 0.3201 0.3578 0.1880
C187 C 0.4029(7) 0.3906(2) 0.2008(3)
H155 H 0.4241 0.3679 0.2162
C188 C 0.2416(7) 0.4105(3) 0.1419(4)
H156 H 0.2274 0.3813 0.1489
H157 H 0.2398 0.4127 0.1130
H158 H 0.2144 0.4328 0.1513
C189 C 0.3723(7) 0.2689(3) 0.3258(3)
C190 C 0.3252(8) 0.2869(4) 0.3455(3)
H159 H 0.3361 0.3045 0.3684
C191 C 0.2622(8) 0.2791(4) 0.3316(3)
H160 H 0.2305 0.2914 0.3453
C192 C 0.2448(7) 0.2533(3) 0.2979(3)
C193 C 0.2926(6) 0.2353(3) 0.2785(3)
H161 H 0.2819 0.2176 0.2556
C194 C 0.3558(6) 0.2430(3) 0.2922(3)
H162 H 0.3876 0.2306 0.2786
C195 C 0.1767(6) 0.2458(4) 0.2824(4)
H163 H 0.1502 0.2607 0.2997
H164 H 0.1677 0.2143 0.2821
H165 H 0.1678 0.2575 0.2555
N13A N 1.0108(11) 0.4344(3) 0.2917(5)
N26A N 0.8801(7) 0.4290(4) 0.2711(3)
C124A C 0.8162(7) 0.4289(4) 0.2576(4)
H104A H 0.7959 0.4554 0.2485
C125A C 0.7821(5) 0.3902(5) 0.2575(4)
C126A C 0.8119(7) 0.3516(4) 0.2709(4)
H105A H 0.7885 0.3251 0.2708
C127A C 0.8758(7) 0.3516(4) 0.2844(4)
H106A H 0.8961 0.3252 0.2936
C128A C 0.9099(5) 0.3904(5) 0.2845(4)
C129A C 0.9792(11) 0.3993(8) 0.2959(7)
H107A H 1.0029 0.3755 0.3079
C182A C 1.0662(7) 0.4299(2) 0.3050(3)
C183A C 1.0980(8) 0.4630(2) 0.3277(3)
H152A H 1.0773 0.4899 0.3317
C184A C 1.1602(8) 0.4568(3) 0.3445(4)
H153A H 1.1814 0.4796 0.3599
C185A C 1.1918(7) 0.4175(3) 0.3391(3)
C186A C 1.1593(7) 0.3846(3) 0.3161(3)
H154A H 1.1799 0.3578 0.3120
C187A C 1.0971(7) 0.3906(2) 0.2992(3)
H155A H 1.0759 0.3679 0.2838
C188A C 1.2584(7) 0.4105(3) 0.3581(4)
H156A H 1.2726 0.3813 0.3511
H157A H 1.2602 0.4127 0.3870
H158A H 1.2856 0.4328 0.3487
Zn1A Zn 0.97980(12) 0.03784(7) 0.20165(7)
Zn2A Zn 0.86398(12) 0.07730(7) 0.43082(7)
Zn3A Zn 0.84417(13) 0.34309(8) 0.48185(7)
Zn4A Zn 0.94190(14) 0.48253(8) 0.27703(7)
Zn5A Zn 1.01830(12) 0.29526(7) 0.10291(7)
N1A N 0.7491(8) 0.3601(6) 0.5013(5)
N2A N 0.9990(8) 0.5414(6) 0.2887(5)
N3A N 0.8696(8) 0.5337(5) 0.2570(5)
N4A N 1.0977(7) 0.3075(5) 0.0697(4)
N5A N 0.9637(7) 0.3082(5) 0.0448(5)
N6A N 1.0519(8) -0.0121(5) 0.1927(5)
N7A N 0.9157(8) -0.0030(5) 0.1599(5)
N8A N 0.8817(8) 0.3674(5) 0.5406(5)
N9A N 0.9100(7) 0.0342(6) 0.4794(4)
N10A N 0.7805(7) 0.0339(5) 0.4356(5)
N11A N 0.9355(9) 0.1270(5) 0.4226(5)
N12A N 0.5673(10) 0.3232(4) 0.0366(5)
N14A N 1.0642(9) 0.2778(5) 0.1623(5)
N15A N 0.4664(7) 0.0828(5) 0.2565(4)
C1A C 0.7161(7) 0.3353(5) 0.5246(5)
C2A C 0.7077(7) 0.3487(4) 0.5628(5)
H1A H 0.7198 0.3774 0.5715
C3A C 0.6814(7) 0.3202(4) 0.5882(4)
H2A H 0.6759 0.3297 0.6141
C4A C 0.6631(5) 0.2777(4) 0.5761(4)
C5A C 0.6721(7) 0.2645(4) 0.5377(4)
H3A H 0.6601 0.2358 0.5289
C6A C 0.6983(7) 0.2930(5) 0.5122(4)
H4A H 0.7040 0.2835 0.4863
C7A C 0.6334(9) 0.2473(6) 0.6032(5)
H5A H 0.6643 0.2254 0.6142
H6A H 0.5975 0.2324 0.5882
H7A H 0.6191 0.2642 0.6248
C8A C 0.7412(10) 0.4014(8) 0.4966(6)
H8A H 0.7100 0.4152 0.5098
N16A N 0.8254(6) 0.4072(3) 0.4590(3)
C9A C 0.7751(6) 0.4273(4) 0.4737(3)
C10A C 0.7602(5) 0.4707(4) 0.4640(4)
H9A H 0.7258 0.4844 0.4740
C11A C 0.7956(7) 0.4939(3) 0.4395(4)
H10A H 0.7854 0.5235 0.4329
C12A C 0.8459(6) 0.4738(4) 0.4249(4)
C13A C 0.8608(5) 0.4304(4) 0.4346(4)
H11A H 0.8952 0.4167 0.4246
N17A N 0.9339(6) 0.4986(4) 0.3387(3)
C14A C 0.8976(6) 0.4766(3) 0.3634(4)
H12A H 0.8833 0.4477 0.3570
C15A C 0.8824(6) 0.4968(4) 0.3975(4)
C16A C 0.9033(6) 0.5391(4) 0.4069(3)
H13A H 0.8929 0.5530 0.4302
C17A C 0.9396(6) 0.5612(3) 0.3822(4)
H14A H 0.9539 0.5901 0.3886
C18A C 0.9548(6) 0.5409(4) 0.3481(4)
C19A C 0.9918(10) 0.5605(8) 0.3203(7)
H15A H 1.0109 0.5883 0.3261
C20A C 1.0283(4) 0.5654(5) 0.2621(4)
C21A C 1.0147(4) 0.6092(4) 0.2530(3)
H16A H 0.9887 0.6254 0.2683
C22A C 1.0394(5) 0.6294(5) 0.2215(4)
H17A H 1.0298 0.6592 0.2156
C23A C 1.0780(5) 0.6062(5) 0.1985(4)
C24A C 1.0910(5) 0.5621(6) 0.2079(4)
H18A H 1.1169 0.5458 0.1926
C25A C 1.0665(5) 0.5418(5) 0.2394(4)
H19A H 1.0759 0.5119 0.2453
C26A C 1.1057(6) 0.6283(7) 0.1652(5)
H20A H 1.1266 0.6555 0.1749
H21A H 1.0723 0.6351 0.1437
H22A H 1.1364 0.6088 0.1554
C27A C 0.8329(4) 0.5578(3) 0.2808(3)
C28A C 0.7977(5) 0.5365(3) 0.3069(4)
H23A H 0.7956 0.5054 0.3071
C29A C 0.7656(4) 0.5609(4) 0.3326(3)
H24A H 0.7417 0.5461 0.3502
C30A C 0.7679(4) 0.6068(4) 0.3329(3)
C31A C 0.8032(4) 0.6277(3) 0.3064(3)
H25A H 0.8053 0.6588 0.3061
C32A C 0.8355(4) 0.6035(3) 0.2807(3)
H26A H 0.8592 0.6182 0.2630
C33A C 0.7344(5) 0.6330(4) 0.3613(4)
H27A H 0.6899 0.6249 0.3581
H28A H 0.7385 0.6643 0.3559
H29A H 0.7531 0.6267 0.3886
C34A C 0.8746(9) 0.5454(7) 0.2216(7)
H30A H 0.8537 0.5712 0.2114
N18A N 0.9437(6) 0.4851(4) 0.2141(3)
C35A C 0.9109(6) 0.5208(4) 0.1965(4)
C36A C 0.9127(6) 0.5299(3) 0.1566(4)
H31A H 0.8903 0.5543 0.1446
C37A C 0.9473(6) 0.5033(4) 0.1343(3)
H32A H 0.9486 0.5095 0.1071
C38A C 0.9801(6) 0.4676(4) 0.1519(4)
C39A C 0.9783(6) 0.4585(3) 0.1918(4)
H33A H 1.0006 0.4341 0.2038
N19A N 1.0384(6) 0.3634(3) 0.1130(4)
C40A C 1.0072(5) 0.3930(4) 0.1347(3)
H34A H 0.9795 0.3825 0.1522
C41A C 1.0164(6) 0.4377(4) 0.1307(4)
C42A C 1.0569(6) 0.4530(3) 0.1050(4)
H35A H 1.0633 0.4836 0.1023
C43A C 1.0882(5) 0.4235(4) 0.0833(3)
H36A H 1.1159 0.4339 0.0658
C44A C 1.0789(6) 0.3787(4) 0.0873(4)
C45A C 1.1076(10) 0.3471(7) 0.0645(6)
H37A H 1.1339 0.3561 0.0456
C46A C 1.1215(4) 0.2743(3) 0.0443(3)
C47A C 1.1155(4) 0.2817(3) 0.0035(3)
H38A H 1.1033 0.3098 -0.0068
C48A C 1.1272(5) 0.2479(3) -0.0223(4)
H39A H 1.1229 0.2534 -0.0500
C49A C 1.1453(5) 0.2062(3) -0.0079(4)
C50A C 1.1509(5) 0.1991(3) 0.0331(4)
H40A H 1.1629 0.1710 0.0435
C51A C 1.1392(5) 0.2328(4) 0.0591(4)
H41A H 1.1434 0.2274 0.0868
C52A C 1.1594(6) 0.1701(4) -0.0357(5)
H42A H 1.1217 0.1635 -0.0541
H43A H 1.1728 0.1438 -0.0203
H44A H 1.1931 0.1795 -0.0506
C53A C 0.9497(3) 0.3506(3) 0.0272(3)
C54A C 0.9699(4) 0.3636(3) -0.0085(2)
H45A H 0.9905 0.3432 -0.0235
C55A C 0.9599(5) 0.4065(3) -0.0221(3)
H46A H 0.9739 0.4150 -0.0463
C56A C 0.9296(4) 0.4373(3) -0.0006(3)
C57A C 0.9097(4) 0.4238(3) 0.0352(3)
H47A H 0.8892 0.4442 0.0503
C58A C 0.9196(5) 0.3809(3) 0.0490(3)
H48A H 0.9057 0.3724 0.0733
C59A C 0.9175(5) 0.4832(3) -0.0158(4)
H49A H 0.9500 0.4916 -0.0322
H50A H 0.9184 0.5035 0.0066
H51A H 0.8763 0.4846 -0.0319
C60A C 0.9629(9) 0.2742(7) 0.0216(7)
H52A H 0.9509 0.2772 -0.0061
N20A N 1.0006(5) 0.2314(3) 0.0790(4)
C61A C 0.9806(6) 0.2318(3) 0.0385(4)
C62A C 0.9764(6) 0.1928(4) 0.0172(3)
H53A H 0.9627 0.1931 -0.0105
C63A C 0.9924(6) 0.1534(3) 0.0364(4)
H54A H 0.9896 0.1268 0.0218
C64A C 1.0125(6) 0.1530(3) 0.0769(4)
C65A C 1.0166(6) 0.1920(4) 0.0982(3)
H55A H 1.0303 0.1917 0.1259
N21A N 1.0222(5) 0.0656(4) 0.1536(3)
C66A C 1.0076(5) 0.1043(4) 0.1328(4)
H56A H 0.9807 0.1252 0.1425
C67A C 1.0324(6) 0.1123(3) 0.0977(4)
C68A C 1.0718(6) 0.0816(4) 0.0834(3)
H57A H 1.0887 0.0871 0.0594
C69A C 1.0864(5) 0.0430(4) 0.1042(4)
H58A H 1.1133 0.0220 0.0944
C70A C 1.0616(6) 0.0350(3) 0.1393(3)
C71A C 1.0749(10) -0.0045(6) 0.1603(7)
H59A H 1.1012 -0.0257 0.1503
C72A C 0.9118(6) -0.0034(5) 0.1183(3)
C73A C 0.9252(7) -0.0410(4) 0.0974(4)
H60A H 0.9332 -0.0679 0.1110
C74A C 0.9268(6) -0.0389(3) 0.0565(4)
H61A H 0.9360 -0.0646 0.0426
C75A C 0.9150(5) 0.0005(4) 0.0357(3)
C76A C 0.9019(6) 0.0379(3) 0.0570(4)
H62A H 0.8939 0.0650 0.0435
C77A C 0.9002(6) 0.0361(4) 0.0979(4)
H63A H 0.8912 0.0618 0.1119
C78A C 0.9152(8) 0.0023(6) -0.0086(3)
H64A H 0.9492 -0.0161 -0.0160
H65A H 0.9216 0.0327 -0.0166
H66A H 0.8749 -0.0084 -0.0219
C79A C 0.8908(10) -0.0342(8) 0.1763(6)
H67A H 0.8673 -0.0560 0.1608
N22A N 0.9328(5) -0.0020(4) 0.2387(4)
C80A C 0.8986(6) -0.0364(4) 0.2198(3)
C81A C 0.8695(6) -0.0667(4) 0.2419(4)
H68A H 0.8462 -0.0903 0.2290
C82A C 0.8746(6) -0.0626(4) 0.2829(4)
H69A H 0.8547 -0.0833 0.2980
C83A C 0.9088(6) -0.0282(4) 0.3018(3)
C84A C 0.9379(5) 0.0021(3) 0.2797(4)
H70A H 0.9612 0.0256 0.2926
N23A N 0.9067(5) 0.0249(3) 0.4022(4)
C85A C 0.9026(6) 0.0193(3) 0.3614(3)
H71A H 0.8931 0.0436 0.3442
C86A C 0.9126(6) -0.0218(4) 0.3458(3)
C87A C 0.9266(6) -0.0573(3) 0.3710(4)
H72A H 0.9334 -0.0854 0.3603
C88A C 0.9306(6) -0.0517(3) 0.4117(4)
H73A H 0.9402 -0.0760 0.4290
C89A C 0.9207(6) -0.0106(4) 0.4274(3)
C90A C 0.9242(10) -0.0018(7) 0.4686(6)
H74A H 0.9376 -0.0240 0.4874
C91A C 0.9062(6) 0.0413(3) 0.5217(4)
C92A C 0.9267(5) 0.0814(3) 0.5384(4)
H75A H 0.9389 0.1042 0.5220
C93A C 0.9291(4) 0.0882(3) 0.5792(4)
H76A H 0.9432 0.1156 0.5902
C94A C 0.9113(5) 0.0551(3) 0.6041(4)
C95A C 0.8910(5) 0.0150(3) 0.5869(4)
H77A H 0.8789 -0.0079 0.6033
C96A C 0.8884(5) 0.0080(3) 0.5462(4)
H78A H 0.8745 -0.0194 0.5351
C97A C 0.9125(8) 0.0629(3) 0.6479(4)
H79A H 0.9516 0.0778 0.6583
H80A H 0.9100 0.0347 0.6615
H81A H 0.8767 0.0812 0.6525
C98A C 0.8970(4) 0.4109(3) 0.5508(3)
C99A C 0.8694(5) 0.4314(3) 0.5810(3)
H82A H 0.8410 0.4156 0.5949
C100A C 0.8835(5) 0.4750(3) 0.5907(3)
H83A H 0.8644 0.4886 0.6113
C101A C 0.9253(5) 0.4991(3) 0.5707(3)
C102A C 0.9525(5) 0.4781(3) 0.5404(3)
H84A H 0.9808 0.4938 0.5264
C103A C 0.9386(6) 0.4345(3) 0.5305(3)
H85A H 0.9575 0.4208 0.5100
C104A C 0.9416(6) 0.5459(3) 0.5820(4)
H86A H 0.9403 0.5498 0.6104
H87A H 0.9112 0.5656 0.5671
H88A H 0.9838 0.5526 0.5757
C105A C 0.8749(11) 0.3381(8) 0.5670(8)
H89A H 0.8845 0.3457 0.5942
N24A N 0.8451(6) 0.2848(4) 0.5170(4)
C106A C 0.8537(7) 0.2949(4) 0.5571(4)
C107A C 0.8444(7) 0.2629(5) 0.5849(3)
H90A H 0.8503 0.2698 0.6124
C108A C 0.8266(7) 0.2208(4) 0.5725(4)
H91A H 0.8202 0.1990 0.5914
C109A C 0.8179(7) 0.2107(4) 0.5323(5)
C110A C 0.8272(6) 0.2427(5) 0.5045(3)
H92A H 0.8213 0.2358 0.4771
N25A N 0.8133(6) 0.1100(5) 0.4704(3)
C111A C 0.8290(6) 0.1512(4) 0.4860(4)
H93A H 0.8604 0.1681 0.4758
C112A C 0.7987(7) 0.1677(4) 0.5166(4)
C113A C 0.7528(6) 0.1430(5) 0.5316(3)
H94A H 0.7321 0.1543 0.5525
C114A C 0.7371(6) 0.1018(5) 0.5160(4)
H95A H 0.7057 0.0849 0.5262
C115A C 0.7674(7) 0.0853(3) 0.4854(4)
C116A C 0.7544(11) 0.0448(7) 0.4665(7)
H96A H 0.7261 0.0250 0.4766
C117A C 0.7675(6) -0.0077(4) 0.4187(4)
C118A C 0.7650(7) -0.0126(3) 0.3778(4)
H97A H 0.7676 0.0124 0.3614
C119A C 0.7589(6) -0.0543(4) 0.3607(3)
H98A H 0.7573 -0.0573 0.3328
C120A C 0.7552(5) -0.0918(3) 0.3841(3)
C121A C 0.7575(6) -0.0862(4) 0.4252(3)
H99A H 0.7548 -0.1112 0.4416
C122A C 0.7636(7) -0.0447(5) 0.4424(3)
H100A H 0.7651 -0.0416 0.4703
C123A C 0.7501(8) -0.1368(4) 0.3657(5)
H101A H 0.7656 -0.1587 0.3857
H102A H 0.7754 -0.1380 0.3438
H103A H 0.7062 -0.1430 0.3558
N27A N 0.8210(6) 0.1109(3) 0.3797(3)
C130A C 0.7605(6) 0.1073(4) 0.3598(4)
H108A H 0.7309 0.0886 0.3699
C131A C 0.7433(5) 0.1311(5) 0.3253(4)
C132A C 0.7865(7) 0.1584(4) 0.3106(3)
H109A H 0.7748 0.1747 0.2870
C133A C 0.8471(6) 0.1620(4) 0.3304(4)
H110A H 0.8767 0.1807 0.3204
C134A C 0.8643(5) 0.1382(4) 0.3650(4)
C135A C 0.9226(10) 0.1447(7) 0.3898(7)
H111A H 0.9529 0.1636 0.3806
C136A C 0.9895(9) 0.1398(9) 0.4481(6)
C137A C 1.0316(12) 0.1087(7) 0.4660(7)
H112A H 1.0225 0.0783 0.4626
C138A C 1.0870(10) 0.1220(6) 0.4889(6)
H113A H 1.1153 0.1006 0.5010
C139A C 1.1016(9) 0.1666(6) 0.4944(5)
C140A C 1.0588(10) 0.1975(6) 0.4763(6)
H114A H 1.0676 0.2278 0.4797
C141A C 1.0033(10) 0.1843(8) 0.4534(6)
H115A H 0.9749 0.2057 0.4413
C142A C 1.1621(10) 0.1809(10) 0.5183(7)
H116A H 1.1976 0.1710 0.5052
H117A H 1.1652 0.1680 0.5449
H118A H 1.1629 0.2129 0.5205
N28A N 0.5846(6) 0.0907(3) 0.2951(3)
C143A C 0.6465(6) 0.0933(3) 0.3127(3)
H119A H 0.6651 0.0693 0.3277
C144A C 0.6813(5) 0.1310(5) 0.3083(4)
C145A C 0.6541(6) 0.1661(3) 0.2864(4)
H120A H 0.6778 0.1919 0.2834
C146A C 0.5921(6) 0.1635(3) 0.2688(4)
H121A H 0.5735 0.1874 0.2538
C147A C 0.5573(5) 0.1257(4) 0.2731(3)
C148A C 0.4944(10) 0.1181(7) 0.2529(6)
H122A H 0.4742 0.1405 0.2365
C149A C 0.4038(7) 0.0782(7) 0.2388(5)
C150A C 0.3847(7) 0.0372(6) 0.2235(5)
H123A H 0.4133 0.0133 0.2260
C151A C 0.3237(8) 0.0312(4) 0.2046(5)
H124A H 0.3111 0.0032 0.1943
C152A C 0.2805(7) 0.0659(4) 0.2005(4)
C153A C 0.3005(8) 0.1069(4) 0.2159(5)
H125A H 0.2720 0.1309 0.2134
C154A C 0.3614(9) 0.1131(5) 0.2349(5)
H126A H 0.3741 0.1411 0.2452
C155A C 0.2142(7) 0.0591(7) 0.1809(6)
H127A H 0.1905 0.0864 0.1820
H128A H 0.1942 0.0360 0.1949
H129A H 0.2148 0.0505 0.1532
N29A N 0.9397(6) 0.2906(3) 0.1341(4)
C156A C 0.8765(7) 0.2942(4) 0.1193(3)
H130A H 0.8643 0.2980 0.0917
C157A C 0.8312(5) 0.2922(4) 0.1450(4)
C158A C 0.8491(6) 0.2866(4) 0.1854(4)
H131A H 0.8181 0.2853 0.2030
C159A C 0.9123(7) 0.2830(4) 0.2002(3)
H132A H 0.9245 0.2791 0.2278
C160A C 0.9576(5) 0.2850(4) 0.1745(4)
C161A C 1.0246(11) 0.2793(6) 0.1878(7)
H133A H 1.0391 0.2768 0.2153
N30A N 0.6913(7) 0.3152(3) 0.0737(3)
C162A C 0.7531(6) 0.3129(4) 0.0916(4)
H134A H 0.7858 0.3252 0.0788
C163A C 0.7671(5) 0.2927(4) 0.1283(4)
C164A C 0.7192(7) 0.2748(4) 0.1471(3)
H135A H 0.7288 0.2610 0.1721
C165A C 0.6574(6) 0.2770(4) 0.1291(4)
H136A H 0.6247 0.2648 0.1419
C166A C 0.6434(5) 0.2972(4) 0.0924(4)
C167A C 0.5783(10) 0.3038(6) 0.0704(6)
H137A H 0.5436 0.2929 0.0821
C168A C 0.5067(9) 0.3260(3) 0.0190(3)
C169A C 0.4859(10) 0.3176(3) -0.0209(3)
H138A H 0.5151 0.3093 -0.0383
C170A C 0.4222(10) 0.3213(3) -0.0353(3)
H139A H 0.4086 0.3156 -0.0625
C171A C 0.3781(9) 0.3334(3) -0.0103(3)
C172A C 0.3997(8) 0.3419(3) 0.0296(3)
H140A H 0.3706 0.3503 0.0470
C173A C 0.4633(8) 0.3382(3) 0.0442(3)
H141A H 0.4771 0.3440 0.0714
C174A C 0.3093(9) 0.3364(4) -0.0258(3)
H142A H 0.2851 0.3191 -0.0088
H143A H 0.3022 0.3250 -0.0529
H144A H 0.2958 0.3671 -0.0257
C175A C 1.0743(7) -0.0511(3) 0.2125(4)
C176A C 1.0295(8) -0.0821(3) 0.2199(5)
H145A H 0.9867 -0.0781 0.2093
C177A C 1.0473(8) -0.1190(3) 0.2429(5)
H146A H 1.0165 -0.1400 0.2477
C178A C 1.1101(9) -0.1258(3) 0.2588(5)
C179A C 1.1545(8) -0.0942(3) 0.2513(5)
H147A H 1.1972 -0.0981 0.2619
C180A C 1.1369(7) -0.0572(3) 0.2283(4)
H148A H 1.1677 -0.0362 0.2235
C181A C 1.1295(9) -0.1662(3) 0.2828(5)
H149A H 1.0924 -0.1844 0.2850
H150A H 1.1489 -0.1576 0.3093
H151A H 1.1597 -0.1830 0.2696
C189A C 1.1277(7) 0.2689(3) 0.1742(3)
C190A C 1.1748(8) 0.2869(4) 0.1545(3)
H159A H 1.1639 0.3045 0.1316
C191A C 1.2378(8) 0.2791(4) 0.1684(3)
H160A H 1.2695 0.2914 0.1547
C192A C 1.2552(7) 0.2533(3) 0.2021(3)
C193A C 1.2074(6) 0.2353(3) 0.2215(3)
H161A H 1.2181 0.2176 0.2444
C194A C 1.1442(6) 0.2430(3) 0.2078(3)
H162A H 1.1124 0.2306 0.2214
C195A C 1.3233(6) 0.2458(4) 0.2176(4)
H163A H 1.3498 0.2607 0.2003
H164A H 1.3323 0.2143 0.2179
H165A H 1.3322 0.2575 0.2445
Cl1 Cl 0.8007(5) 0.4165(3) 0.1472(3)
O1 O 0.7961(10) 0.4601(6) 0.1594(5)
O2 O 0.8498(13) 0.3965(6) 0.1736(5)
O3 O 0.8138(10) 0.4111(6) 0.1087(6)
O4 O 0.7395(13) 0.3960(7) 0.1499(6)
Cl2 Cl 0.8241(6) 0.1844(3) 0.0847(3)
O5 O 0.8736(15) 0.1867(11) 0.1186(8)
O6 O 0.7603(11) 0.1902(14) 0.0957(11)
O7 O 0.830(2) 0.2174(11) 0.0543(10)
O8 O 0.839(2) 0.1386(7) 0.0787(13)
Cl3 Cl 0.7500 0.0367(4) 0.2500
O9 O 0.6963(13) 0.0634(7) 0.2329(7)
O10 O 0.7669(9) 0.0120(6) 0.2184(5)
O9A O 0.8037(13) 0.0634(7) 0.2671(7)
O10A O 0.7331(9) 0.0120(6) 0.2816(5)
Cl4 Cl 0.4950(4) 0.2469(2) 0.1835(2)
O11 O 0.5652(9) 0.2458(6) 0.2002(5)
O12 O 0.4767(13) 0.2049(8) 0.1913(9)
O13 O 0.5000(14) 0.2529(11) 0.1434(7)
O14 O 0.4766(12) 0.2824(8) 0.2063(8)
Cl5 Cl 0.2441(5) 0.0702(4) 0.0567(3)
O15 O 0.2373(19) 0.0234(7) 0.0422(12)
O16 O 0.2708(19) 0.0595(14) 0.1004(10)
O17 O 0.2963(14) 0.0885(13) 0.0357(12)
O18 O 0.187(2) 0.0896(18) 0.0385(16)
Cl6 Cl 0.8579(5) 0.5866(3) 0.0463(3)
O19 O 0.8107(12) 0.5617(10) 0.0626(10)
O20 O 0.9165(10) 0.5809(11) 0.0712(8)
O21 O 0.8511(18) 0.5830(12) 0.0039(4)
O22 O 0.8393(17) 0.6315(6) 0.0492(11)
Cl7 Cl 0.2017(6) 0.5366(4) 0.1122(4)
O23 O 0.1333(16) 0.5529(10) 0.1104(9)
O24 O 0.2175(19) 0.5383(13) 0.0669(7)
O25 O 0.199(2) 0.4835(7) 0.1118(13)
O26 O 0.260(2) 0.557(2) 0.1415(16)
Cl8 Cl 0.0796(6) 0.8859(3) 0.0754(3)
O27 O 0.0760(18) 0.9279(8) 0.0941(10)
O28 O 0.1310(14) 0.8559(11) 0.0846(12)
O29 O 0.0889(18) 0.8976(11) 0.0349(7)
O30 O 0.0168(12) 0.8677(12) 0.0687(12)
Br1 Br 0.7832(7) 0.24615(19) 0.2585(3)
Br1A Br 0.7168(7) 0.24615(19) 0.2415(3)
C196? C 0.4443(7) -0.0623(3) 0.2866(4)
C197? C 0.4460(8) -0.0966(3) 0.3138(5)
H166? H 0.4419 -0.0907 0.3408
C198? C 0.4537(9) -0.1397(3) 0.3015(5)
H167? H 0.4549 -0.1628 0.3203
C199? C 0.4598(9) -0.1494(3) 0.2619(5)
C200? C 0.4582(8) -0.1146(3) 0.2349(5)
H168? H 0.4624 -0.1204 0.2080
C201? C 0.4505(8) -0.0714(3) 0.2470(4)
H169? H 0.4495 -0.0482 0.2284
C202? C 0.4665(10) -0.1961(3) 0.2485(6)
H170? H 0.4668 -0.2158 0.2712
H171? H 0.5060 -0.1992 0.2372
H172? H 0.4312 -0.2035 0.2284
C203? C 0.4330(7) 0.4246(3) 0.2044(3)
C204? C 0.3993(8) 0.4570(2) 0.1817(3)
H173? H 0.4210 0.4788 0.1689
C205? C 0.3338(8) 0.4573(3) 0.1779(4)
H174? H 0.3113 0.4795 0.1624
C206? C 0.3006(7) 0.4255(3) 0.1964(4)
C207? C 0.3352(7) 0.3933(3) 0.2192(3)
H175? H 0.3136 0.3715 0.2322
C208? C 0.4007(7) 0.3928(3) 0.2232(3)
H176? H 0.4233 0.3707 0.2387
C209? C 0.2299(7) 0.4254(3) 0.1914(4)
H177? H 0.2151 0.4009 0.2064
H178? H 0.2139 0.4220 0.1633
H179? H 0.2147 0.4530 0.2012
C210? C 0.3627(7) 0.2713(3) 0.3317(3)
C211? C 0.3133(8) 0.3014(3) 0.3280(3)
H180? H 0.3218 0.3318 0.3264
C212? C 0.2515(8) 0.2867(4) 0.3267(4)
H181? H 0.2182 0.3075 0.3242
C213? C 0.2377(7) 0.2420(4) 0.3290(4)
C214? C 0.2878(7) 0.2122(4) 0.3328(3)
H182? H 0.2795 0.1817 0.3345
C215? C 0.3498(7) 0.2266(3) 0.3342(3)
H183? H 0.3832 0.2060 0.3367
C216? C 0.1708(7) 0.2262(4) 0.3266(4)
H184? H 0.1424 0.2515 0.3240
H185? H 0.1653 0.2099 0.3507
H186? H 0.1613 0.2071 0.3035
O31? O 0.812(3) 0.1420(12) 0.066(2)
O32? O 0.863(3) 0.208(2) 0.0594(18)
O33? O 0.841(3) 0.1973(16) 0.1256(7)
O34? O 0.7567(12) 0.195(2) 0.0808(16)
O35? O 0.494(2) 0.2200(15) 0.1514(12)
O36? O 0.478(2) 0.2897(11) 0.1727(14)
O37? O 0.471(2) 0.2295(14) 0.2187(10)
O38? O 0.232(2) 0.1077(11) 0.0839(12)
O39? O 0.3129(10) 0.0762(18) 0.0530(17)
O40? O 0.229(2) 0.0284(10) 0.0773(14)
O41? O 0.188(2) 0.078(2) 0.0261(15)
O42? O 0.7932(10) 0.5820(18) 0.0520(16)
O43? O 0.880(2) 0.5424(7) 0.0517(15)
O44? O 0.874(3) 0.6015(17) 0.0089(8)
O45? O 0.872(3) 0.6275(10) 0.0663(14)
O46? O 0.246(3) 0.4990(16) 0.0967(17)
O47? O 0.187(3) 0.5139(18) 0.1531(10)
O48? O 0.241(3) 0.5784(17) 0.131(3)
O49? O 0.056(3) 0.8561(14) 0.1031(13)
O50? O 0.120(2) 0.9225(14) 0.0876(15)
O51? O 0.116(2) 0.8597(15) 0.0517(15)
O52? O 0.0249(18) 0.8942(17) 0.0463(13)
Br2? Br 0.7500 0.2522(7) 0.2500
loop_
_geom_bond_atom_site_label_1
_geom_bond_atom_site_label_2
_geom_bond_site_symmetry_1
_geom_bond_site_symmetry_2
Zn1 N6 1_555 1_555
Zn2 N9 1_555 1_555
Zn3 N1 1_555 1_555
Zn4 N2 1_555 1_555
Zn5 N4 1_555 1_555
N1 C1 1_555 1_555
N2 C19 1_555 1_555
N3 Zn4 1_555 1_555
N4 C45 1_555 1_555
N5 Zn5 1_555 1_555
N6 C71 1_555 1_555
N7 Zn1 1_555 1_555
N8 Zn3 1_555 1_555
N9 C90 1_555 1_555
N10 Zn2 1_555 1_555
N11 Zn2 1_555 1_555
N12 C167 1_555 1_555
N13 Zn4 1_555 1_555
N14 Zn5 1_555 1_555
N15 C148 1_555 1_555
C1 C2 1_555 1_555
C2 H1 1_555 1_555
C3 C2 1_555 1_555
H2 C3 1_555 1_555
C4 C3 1_555 1_555
C5 C4 1_555 1_555
H3 C5 1_555 1_555
C6 C1 1_555 1_555
H4 C6 1_555 1_555
C7 C4 1_555 1_555
H5 C7 1_555 1_555
H6 C7 1_555 1_555
H7 C7 1_555 1_555
C8 N1 1_555 1_555
H8 C8 1_555 1_555
N16 Zn3 1_555 1_555
C9 C8 1_555 1_555
C10 C9 1_555 1_555
H9 C10 1_555 1_555
C11 C10 1_555 1_555
H10 C11 1_555 1_555
C12 C11 1_555 1_555
C13 N16 1_555 1_555
H11 C13 1_555 1_555
N17 Zn4 1_555 1_555
C14 N17 1_555 1_555
H12 C14 1_555 1_555
C15 C12 1_555 1_555
C16 C15 1_555 1_555
H13 C16 1_555 1_555
C17 C16 1_555 1_555
H14 C17 1_555 1_555
C18 N17 1_555 1_555
C19 C18 1_555 1_555
H15 C19 1_555 1_555
C20 N2 1_555 1_555
C21 C20 1_555 1_555
H16 C21 1_555 1_555
C22 C21 1_555 1_555
H17 C22 1_555 1_555
C23 C22 1_555 1_555
C24 C23 1_555 1_555
H18 C24 1_555 1_555
C25 C20 1_555 1_555
H19 C25 1_555 1_555
C26 C23 1_555 1_555
H20 C26 1_555 1_555
H21 C26 1_555 1_555
H22 C26 1_555 1_555
C27 N3 1_555 1_555
C28 C27 1_555 1_555
H23 C28 1_555 1_555
C29 C28 1_555 1_555
H24 C29 1_555 1_555
C30 C29 1_555 1_555
C31 C30 1_555 1_555
H25 C31 1_555 1_555
C32 C27 1_555 1_555
H26 C32 1_555 1_555
C33 C30 1_555 1_555
H27 C33 1_555 1_555
H28 C33 1_555 1_555
H29 C33 1_555 1_555
C34 N3 1_555 1_555
H30 C34 1_555 1_555
N18 Zn4 1_555 1_555
C35 C34 1_555 1_555
C36 C35 1_555 1_555
H31 C36 1_555 1_555
C37 C36 1_555 1_555
H32 C37 1_555 1_555
C38 C37 1_555 1_555
C39 N18 1_555 1_555
H33 C39 1_555 1_555
N19 Zn5 1_555 1_555
C40 N19 1_555 1_555
H34 C40 1_555 1_555
C41 C38 1_555 1_555
C42 C41 1_555 1_555
H35 C42 1_555 1_555
C43 C42 1_555 1_555
H36 C43 1_555 1_555
C44 N19 1_555 1_555
C45 C44 1_555 1_555
H37 C45 1_555 1_555
C46 N4 1_555 1_555
C47 C46 1_555 1_555
H38 C47 1_555 1_555
C48 C47 1_555 1_555
H39 C48 1_555 1_555
C49 C48 1_555 1_555
C50 C49 1_555 1_555
H40 C50 1_555 1_555
C51 C46 1_555 1_555
H41 C51 1_555 1_555
C52 C49 1_555 1_555
H42 C52 1_555 1_555
H43 C52 1_555 1_555
H44 C52 1_555 1_555
C53 N5 1_555 1_555
C54 C53 1_555 1_555
H45 C54 1_555 1_555
C55 C54 1_555 1_555
H46 C55 1_555 1_555
C56 C55 1_555 1_555
C57 C56 1_555 1_555
H47 C57 1_555 1_555
C58 C53 1_555 1_555
H48 C58 1_555 1_555
C59 C56 1_555 1_555
H49 C59 1_555 1_555
H50 C59 1_555 1_555
H51 C59 1_555 1_555
C60 N5 1_555 1_555
H52 C60 1_555 1_555
N20 Zn5 1_555 1_555
C61 C60 1_555 1_555
C62 C61 1_555 1_555
H53 C62 1_555 1_555
C63 C62 1_555 1_555
H54 C63 1_555 1_555
C64 C63 1_555 1_555
C65 N20 1_555 1_555
H55 C65 1_555 1_555
N21 Zn1 1_555 1_555
C66 N21 1_555 1_555
H56 C66 1_555 1_555
C67 C64 1_555 1_555
C68 C67 1_555 1_555
H57 C68 1_555 1_555
C69 C68 1_555 1_555
H58 C69 1_555 1_555
C70 N21 1_555 1_555
C71 C70 1_555 1_555
H59 C71 1_555 1_555
C72 N7 1_555 1_555
C73 C72 1_555 1_555
H60 C73 1_555 1_555
C74 C73 1_555 1_555
H61 C74 1_555 1_555
C75 C74 1_555 1_555
C76 C75 1_555 1_555
H62 C76 1_555 1_555
C77 C72 1_555 1_555
H63 C77 1_555 1_555
C78 C75 1_555 1_555
H64 C78 1_555 1_555
H65 C78 1_555 1_555
H66 C78 1_555 1_555
C79 N7 1_555 1_555
H67 C79 1_555 1_555
N22 Zn1 1_555 1_555
C80 C79 1_555 1_555
C81 C80 1_555 1_555
H68 C81 1_555 1_555
C82 C81 1_555 1_555
H69 C82 1_555 1_555
C83 C82 1_555 1_555
C84 N22 1_555 1_555
H70 C84 1_555 1_555
N23 Zn2 1_555 1_555
C85 N23 1_555 1_555
H71 C85 1_555 1_555
C86 C83 1_555 1_555
C87 C86 1_555 1_555
H72 C87 1_555 1_555
C88 C87 1_555 1_555
H73 C88 1_555 1_555
C89 N23 1_555 1_555
C90 C89 1_555 1_555
H74 C90 1_555 1_555
C91 N9 1_555 1_555
C92 C91 1_555 1_555
H75 C92 1_555 1_555
C93 C92 1_555 1_555
H76 C93 1_555 1_555
C94 C93 1_555 1_555
C95 C94 1_555 1_555
H77 C95 1_555 1_555
C96 C91 1_555 1_555
H78 C96 1_555 1_555
C97 C94 1_555 1_555
H79 C97 1_555 1_555
H80 C97 1_555 1_555
H81 C97 1_555 1_555
C98 N8 1_555 1_555
C99 C98 1_555 1_555
H82 C99 1_555 1_555
C100 C99 1_555 1_555
H83 C100 1_555 1_555
C101 C100 1_555 1_555
C102 C101 1_555 1_555
H84 C102 1_555 1_555
C103 C98 1_555 1_555
H85 C103 1_555 1_555
C104 C101 1_555 1_555
H86 C104 1_555 1_555
H87 C104 1_555 1_555
H88 C104 1_555 1_555
C105 N8 1_555 1_555
H89 C105 1_555 1_555
N24 Zn3 1_555 1_555
C106 C105 1_555 1_555
C107 C106 1_555 1_555
H90 C107 1_555 1_555
C108 C107 1_555 1_555
H91 C108 1_555 1_555
C109 C108 1_555 1_555
C110 N24 1_555 1_555
H92 C110 1_555 1_555
N25 Zn2 1_555 1_555
C111 N25 1_555 1_555
H93 C111 1_555 1_555
C112 C109 1_555 1_555
C113 C112 1_555 1_555
H94 C113 1_555 1_555
C114 C113 1_555 1_555
H95 C114 1_555 1_555
C115 N25 1_555 1_555
C116 N10 1_555 1_555
H96 C116 1_555 1_555
C117 N10 1_555 1_555
C118 C117 1_555 1_555
H97 C118 1_555 1_555
C119 C118 1_555 1_555
H98 C119 1_555 1_555
C120 C119 1_555 1_555
C121 C120 1_555 1_555
H99 C121 1_555 1_555
C122 C117 1_555 1_555
H100 C122 1_555 1_555
C123 C120 1_555 1_555
H101 C123 1_555 1_555
H102 C123 1_555 1_555
H103 C123 1_555 1_555
N26 Zn4 1_555 1_555
C124 N26 1_555 1_555
H104 C124 1_555 1_555
C125 C124 1_555 1_555
C126 C125 1_555 1_555
H105 C126 1_555 1_555
C127 C126 1_555 1_555
H106 C127 1_555 1_555
C128 N26 1_555 1_555
C129 N13 1_555 1_555
H107 C129 1_555 1_555
N27 Zn2 1_555 1_555
C130 N27 1_555 1_555
H108 C130 1_555 1_555
C131 C130 1_555 1_555
C132 C131 1_555 1_555
H109 C132 1_555 1_555
C133 C132 1_555 1_555
H110 C133 1_555 1_555
C134 N27 1_555 1_555
C135 N11 1_555 1_555
H111 C135 1_555 1_555
C136 N11 1_555 1_555
C137 C136 1_555 1_555
H112 C137 1_555 1_555
C138 C137 1_555 1_555
H113 C138 1_555 1_555
C139 C138 1_555 1_555
C140 C139 1_555 1_555
H114 C140 1_555 1_555
C141 C136 1_555 1_555
H115 C141 1_555 1_555
C142 C139 1_555 1_555
H116 C142 1_555 1_555
H117 C142 1_555 1_555
H118 C142 1_555 1_555
N28 C143 1_555 1_555
C143 H119 1_555 1_555
C144 C131 1_555 1_555
C145 C144 1_555 1_555
H120 C145 1_555 1_555
C146 C145 1_555 1_555
H121 C146 1_555 1_555
C147 N28 1_555 1_555
C148 C147 1_555 1_555
H122 C148 1_555 1_555
C149 N15 1_555 1_555
C150 C149 1_555 1_555
H123 C150 1_555 1_555
C151 C150 1_555 1_555
H124 C151 1_555 1_555
C152 C151 1_555 1_555
C153 C152 1_555 1_555
H125 C153 1_555 1_555
C154 C149 1_555 1_555
H126 C154 1_555 1_555
C155 C152 1_555 1_555
H127 C155 1_555 1_555
H128 C155 1_555 1_555
H129 C155 1_555 1_555
N29 Zn5 1_555 1_555
C156 N29 1_555 1_555
H130 C156 1_555 1_555
C157 C156 1_555 1_555
C158 C157 1_555 1_555
H131 C158 1_555 1_555
C159 C158 1_555 1_555
H132 C159 1_555 1_555
C160 N29 1_555 1_555
C161 N14 1_555 1_555
H133 C161 1_555 1_555
N30 C162 1_555 1_555
C162 H134 1_555 1_555
C163 C157 1_555 1_555
C164 C163 1_555 1_555
H135 C164 1_555 1_555
C165 C164 1_555 1_555
H136 C165 1_555 1_555
C166 N30 1_555 1_555
C167 C166 1_555 1_555
H137 C167 1_555 1_555
C168 N12 1_555 1_555
C169 C168 1_555 1_555
H138 C169 1_555 1_555
C170 C169 1_555 1_555
H139 C170 1_555 1_555
C171 C170 1_555 1_555
C172 C171 1_555 1_555
H140 C172 1_555 1_555
C173 C168 1_555 1_555
H141 C173 1_555 1_555
C174 C171 1_555 1_555
H142 C174 1_555 1_555
H143 C174 1_555 1_555
H144 C174 1_555 1_555
C175 N6 1_555 1_555
C176 C175 1_555 1_555
H145 C176 1_555 1_555
C177 C176 1_555 1_555
H146 C177 1_555 1_555
C178 C177 1_555 1_555
C179 C178 1_555 1_555
H147 C179 1_555 1_555
C180 C175 1_555 1_555
H148 C180 1_555 1_555
C181 C178 1_555 1_555
H149 C181 1_555 1_555
H150 C181 1_555 1_555
H151 C181 1_555 1_555
C182 N13 1_555 1_555
C183 C182 1_555 1_555
H152 C183 1_555 1_555
C184 C183 1_555 1_555
H153 C184 1_555 1_555
C185 C184 1_555 1_555
C186 C185 1_555 1_555
H154 C186 1_555 1_555
C187 C182 1_555 1_555
H155 C187 1_555 1_555
C188 C185 1_555 1_555
H156 C188 1_555 1_555
H157 C188 1_555 1_555
H158 C188 1_555 1_555
C189 N14 1_555 1_555
C190 C189 1_555 1_555
H159 C190 1_555 1_555
C191 C190 1_555 1_555
H160 C191 1_555 1_555
C192 C191 1_555 1_555
C193 C192 1_555 1_555
H161 C193 1_555 1_555
C194 C189 1_555 1_555
H162 C194 1_555 1_555
C195 C192 1_555 1_555
H163 C195 1_555 1_555
H164 C195 1_555 1_555
H165 C195 1_555 1_555
Cl1 O1 1_555 1_555
O2 Cl1 1_555 1_555
O3 Cl1 1_555 1_555
O4 Cl1 1_555 1_555
Cl2 O5 1_555 1_555
O6 Cl2 1_555 1_555
O7 Cl2 1_555 1_555
O8 Cl2 1_555 1_555
Cl3 O9 1_555 1_555
O10 Cl3 1_555 1_555
Cl4 O11 1_555 1_555
O12 Cl4 1_555 1_555
O13 Cl4 1_555 1_555
O14 Cl4 1_555 1_555
Cl5 O15 1_555 1_555
O16 Cl5 1_555 1_555
O17 Cl5 1_555 1_555
O18 Cl5 1_555 1_555
Cl6 O19 1_555 1_555
O20 Cl6 1_555 1_555
O21 Cl6 1_555 1_555
O22 Cl6 1_555 1_555
Cl7 O23 1_555 1_555
O24 Cl7 1_555 1_555
O25 Cl7 1_555 1_555
O26 Cl7 1_555 1_555
Cl8 O27 1_555 1_555
O28 Cl8 1_555 1_555
O29 Cl8 1_555 1_555
O30 Cl8 1_555 1_555
N13A C129A 1_555 1_555
N26A C124A 1_555 1_555
C124A H104A 1_555 1_555
C125A C125 1_555 1_555
C126A C125A 1_555 1_555
H105A C126A 1_555 1_555
C127A C126A 1_555 1_555
H106A C127A 1_555 1_555
C128A N26A 1_555 1_555
C129A C128A 1_555 1_555
H107A C129A 1_555 1_555
C182A N13A 1_555 1_555
C183A C182A 1_555 1_555
H152A C183A 1_555 1_555
C184A C183A 1_555 1_555
H153A C184A 1_555 1_555
C185A C184A 1_555 1_555
C186A C185A 1_555 1_555
H154A C186A 1_555 1_555
C187A C182A 1_555 1_555
H155A C187A 1_555 1_555
C188A C185A 1_555 1_555
H156A C188A 1_555 1_555
H157A C188A 1_555 1_555
H158A C188A 1_555 1_555
Zn1A N15 1_555 1_555
Zn2A N9A 1_555 1_555
Zn3A N12 1_555 1_555
Zn4A N13A 1_555 1_555
Zn5A N4A 1_555 1_555
N1A Zn3A 1_555 1_555
N2A Zn4A 1_555 1_555
N3A Zn4A 1_555 1_555
N4A C45A 1_555 1_555
N5A Zn5A 1_555 1_555
N6A Zn1A 1_555 1_555
N7A Zn1A 1_555 1_555
N8A Zn3A 1_555 1_555
N9A C90A 1_555 1_555
N10A Zn2A 1_555 1_555
N11A Zn2A 1_555 1_555
N12A Zn3 1_555 1_555
N14A Zn5A 1_555 1_555
N15A Zn1 1_555 1_555
C1A N1A 1_555 1_555
C2A C1A 1_555 1_555
H1A C2A 1_555 1_555
C3A C2A 1_555 1_555
H2A C3A 1_555 1_555
C4A C3A 1_555 1_555
C5A C4A 1_555 1_555
H3A C5A 1_555 1_555
C6A C1A 1_555 1_555
H4A C6A 1_555 1_555
C7A C4A 1_555 1_555
H5A C7A 1_555 1_555
H6A C7A 1_555 1_555
H7A C7A 1_555 1_555
C8A N1A 1_555 1_555
H8A C8A 1_555 1_555
N16A Zn3A 1_555 1_555
C9A C8A 1_555 1_555
C10A C9A 1_555 1_555
H9A C10A 1_555 1_555
C11A C10A 1_555 1_555
H10A C11A 1_555 1_555
C12A C11A 1_555 1_555
C13A N16A 1_555 1_555
H11A C13A 1_555 1_555
N17A Zn4A 1_555 1_555
C14A N17A 1_555 1_555
H12A C14A 1_555 1_555
C15A C12A 1_555 1_555
C16A C15A 1_555 1_555
H13A C16A 1_555 1_555
C17A C16A 1_555 1_555
H14A C17A 1_555 1_555
C18A N17A 1_555 1_555
C19A N2A 1_555 1_555
H15A C19A 1_555 1_555
C20A N2A 1_555 1_555
C21A C20A 1_555 1_555
H16A C21A 1_555 1_555
C22A C21A 1_555 1_555
H17A C22A 1_555 1_555
C23A C22A 1_555 1_555
C24A C23A 1_555 1_555
H18A C24A 1_555 1_555
C25A C20A 1_555 1_555
H19A C25A 1_555 1_555
C26A C23A 1_555 1_555
H20A C26A 1_555 1_555
H21A C26A 1_555 1_555
H22A C26A 1_555 1_555
C27A N3A 1_555 1_555
C28A C27A 1_555 1_555
H23A C28A 1_555 1_555
C29A C28A 1_555 1_555
H24A C29A 1_555 1_555
C30A C29A 1_555 1_555
C31A C30A 1_555 1_555
H25A C31A 1_555 1_555
C32A C27A 1_555 1_555
H26A C32A 1_555 1_555
C33A C30A 1_555 1_555
H27A C33A 1_555 1_555
H28A C33A 1_555 1_555
H29A C33A 1_555 1_555
C34A N3A 1_555 1_555
H30A C34A 1_555 1_555
N18A Zn4A 1_555 1_555
C35A C34A 1_555 1_555
C36A C35A 1_555 1_555
H31A C36A 1_555 1_555
C37A C36A 1_555 1_555
H32A C37A 1_555 1_555
C38A C37A 1_555 1_555
C39A N18A 1_555 1_555
H33A C39A 1_555 1_555
N19A Zn5A 1_555 1_555
C40A N19A 1_555 1_555
H34A C40A 1_555 1_555
C41A C38A 1_555 1_555
C42A C41A 1_555 1_555
H35A C42A 1_555 1_555
C43A C42A 1_555 1_555
H36A C43A 1_555 1_555
C44A N19A 1_555 1_555
C45A C44A 1_555 1_555
H37A C45A 1_555 1_555
C46A N4A 1_555 1_555
C47A C46A 1_555 1_555
H38A C47A 1_555 1_555
C48A C47A 1_555 1_555
H39A C48A 1_555 1_555
C49A C48A 1_555 1_555
C50A C49A 1_555 1_555
H40A C50A 1_555 1_555
C51A C46A 1_555 1_555
H41A C51A 1_555 1_555
C52A C49A 1_555 1_555
H42A C52A 1_555 1_555
H43A C52A 1_555 1_555
H44A C52A 1_555 1_555
C53A N5A 1_555 1_555
C54A C53A 1_555 1_555
H45A C54A 1_555 1_555
C55A C54A 1_555 1_555
H46A C55A 1_555 1_555
C56A C55A 1_555 1_555
C57A C56A 1_555 1_555
H47A C57A 1_555 1_555
C58A C53A 1_555 1_555
H48A C58A 1_555 1_555
C59A C56A 1_555 1_555
H49A C59A 1_555 1_555
H50A C59A 1_555 1_555
H51A C59A 1_555 1_555
C60A N5A 1_555 1_555
H52A C60A 1_555 1_555
N20A Zn5A 1_555 1_555
C61A C60A 1_555 1_555
C62A C61A 1_555 1_555
H53A C62A 1_555 1_555
C63A C62A 1_555 1_555
H54A C63A 1_555 1_555
C64A C63A 1_555 1_555
C65A N20A 1_555 1_555
H55A C65A 1_555 1_555
N21A Zn1A 1_555 1_555
C66A N21A 1_555 1_555
H56A C66A 1_555 1_555
C67A C64A 1_555 1_555
C68A C67A 1_555 1_555
H57A C68A 1_555 1_555
C69A C68A 1_555 1_555
H58A C69A 1_555 1_555
C70A N21A 1_555 1_555
C71A N6A 1_555 1_555
H59A C71A 1_555 1_555
C72A N7A 1_555 1_555
C73A C72A 1_555 1_555
H60A C73A 1_555 1_555
C74A C73A 1_555 1_555
H61A C74A 1_555 1_555
C75A C74A 1_555 1_555
C76A C75A 1_555 1_555
H62A C76A 1_555 1_555
C77A C72A 1_555 1_555
H63A C77A 1_555 1_555
C78A C75A 1_555 1_555
H64A C78A 1_555 1_555
H65A C78A 1_555 1_555
H66A C78A 1_555 1_555
C79A N7A 1_555 1_555
H67A C79A 1_555 1_555
N22A Zn1A 1_555 1_555
C80A C79A 1_555 1_555
C81A C80A 1_555 1_555
H68A C81A 1_555 1_555
C82A C81A 1_555 1_555
H69A C82A 1_555 1_555
C83A C82A 1_555 1_555
C84A N22A 1_555 1_555
H70A C84A 1_555 1_555
N23A Zn2A 1_555 1_555
C85A N23A 1_555 1_555
H71A C85A 1_555 1_555
C86A C83A 1_555 1_555
C87A C86A 1_555 1_555
H72A C87A 1_555 1_555
C88A C87A 1_555 1_555
H73A C88A 1_555 1_555
C89A N23A 1_555 1_555
C90A C89A 1_555 1_555
H74A C90A 1_555 1_555
C91A N9A 1_555 1_555
C92A C91A 1_555 1_555
H75A C92A 1_555 1_555
C93A C92A 1_555 1_555
H76A C93A 1_555 1_555
C94A C93A 1_555 1_555
C95A C94A 1_555 1_555
H77A C95A 1_555 1_555
C96A C91A 1_555 1_555
H78A C96A 1_555 1_555
C97A C94A 1_555 1_555
H79A C97A 1_555 1_555
H80A C97A 1_555 1_555
H81A C97A 1_555 1_555
C98A N8A 1_555 1_555
C99A C98A 1_555 1_555
H82A C99A 1_555 1_555
C100A C99A 1_555 1_555
H83A C100A 1_555 1_555
C101A C100A 1_555 1_555
C102A C101A 1_555 1_555
H84A C102A 1_555 1_555
C103A C98A 1_555 1_555
H85A C103A 1_555 1_555
C104A C101A 1_555 1_555
H86A C104A 1_555 1_555
H87A C104A 1_555 1_555
H88A C104A 1_555 1_555
C105A N8A 1_555 1_555
H89A C105A 1_555 1_555
N24A Zn3A 1_555 1_555
C106A C105A 1_555 1_555
C107A C106A 1_555 1_555
H90A C107A 1_555 1_555
C108A C107A 1_555 1_555
H91A C108A 1_555 1_555
C109A C108A 1_555 1_555
C110A N24A 1_555 1_555
H92A C110A 1_555 1_555
N25A Zn2A 1_555 1_555
C111A N25A 1_555 1_555
H93A C111A 1_555 1_555
C112A C109A 1_555 1_555
C113A C112A 1_555 1_555
H94A C113A 1_555 1_555
C114A C113A 1_555 1_555
H95A C114A 1_555 1_555
C115A N25A 1_555 1_555
C116A N10A 1_555 1_555
H96A C116A 1_555 1_555
C117A N10A 1_555 1_555
C118A C117A 1_555 1_555
H97A C118A 1_555 1_555
C119A C118A 1_555 1_555
H98A C119A 1_555 1_555
C120A C119A 1_555 1_555
C121A C120A 1_555 1_555
H99A C121A 1_555 1_555
C122A C117A 1_555 1_555
H100A C122A 1_555 1_555
C123A C120A 1_555 1_555
H101A C123A 1_555 1_555
H102A C123A 1_555 1_555
H103A C123A 1_555 1_555
N27A Zn2A 1_555 1_555
C130A N27A 1_555 1_555
H108A C130A 1_555 1_555
C131A C130A 1_555 1_555
C132A C131A 1_555 1_555
H109A C132A 1_555 1_555
C133A C132A 1_555 1_555
H110A C133A 1_555 1_555
C134A N27A 1_555 1_555
C135A N11A 1_555 1_555
H111A C135A 1_555 1_555
C136A N11A 1_555 1_555
C137A C136A 1_555 1_555
H112A C137A 1_555 1_555
C138A C137A 1_555 1_555
H113A C138A 1_555 1_555
C139A C138A 1_555 1_555
C140A C139A 1_555 1_555
H114A C140A 1_555 1_555
C141A C136A 1_555 1_555
H115A C141A 1_555 1_555
C142A C139A 1_555 1_555
H116A C142A 1_555 1_555
H117A C142A 1_555 1_555
H118A C142A 1_555 1_555
N28A Zn1 1_555 1_555
C143A N28A 1_555 1_555
H119A C143A 1_555 1_555
C144A C131A 1_555 1_555
C145A C144A 1_555 1_555
H120A C145A 1_555 1_555
C146A C145A 1_555 1_555
H121A C146A 1_555 1_555
C147A N28A 1_555 1_555
C148A N15A 1_555 1_555
H122A C148A 1_555 1_555
C149A N15A 1_555 1_555
C150A C149A 1_555 1_555
H123A C150A 1_555 1_555
C151A C150A 1_555 1_555
H124A C151A 1_555 1_555
C152A C151A 1_555 1_555
C153A C152A 1_555 1_555
H125A C153A 1_555 1_555
C154A C149A 1_555 1_555
H126A C154A 1_555 1_555
C155A C152A 1_555 1_555
H127A C155A 1_555 1_555
H128A C155A 1_555 1_555
H129A C155A 1_555 1_555
N29A Zn5A 1_555 1_555
C156A N29A 1_555 1_555
H130A C156A 1_555 1_555
C157A C156A 1_555 1_555
C158A C157A 1_555 1_555
H131A C158A 1_555 1_555
C159A C158A 1_555 1_555
H132A C159A 1_555 1_555
C160A N29A 1_555 1_555
C161A N14A 1_555 1_555
H133A C161A 1_555 1_555
N30A Zn3 1_555 1_555
C162A N30A 1_555 1_555
H134A C162A 1_555 1_555
C163A C157A 1_555 1_555
C164A C163A 1_555 1_555
H135A C164A 1_555 1_555
C165A C164A 1_555 1_555
H136A C165A 1_555 1_555
C166A N30A 1_555 1_555
C167A N12A 1_555 1_555
H137A C167A 1_555 1_555
C168A N12A 1_555 1_555
C169A C168A 1_555 1_555
H138A C169A 1_555 1_555
C170A C169A 1_555 1_555
H139A C170A 1_555 1_555
C171A C170A 1_555 1_555
C172A C171A 1_555 1_555
H140A C172A 1_555 1_555
C173A C168A 1_555 1_555
H141A C173A 1_555 1_555
C174A C171A 1_555 1_555
H142A C174A 1_555 1_555
H143A C174A 1_555 1_555
H144A C174A 1_555 1_555
C175A N6A 1_555 1_555
C176A C175A 1_555 1_555
H145A C176A 1_555 1_555
C177A C176A 1_555 1_555
H146A C177A 1_555 1_555
C178A C177A 1_555 1_555
C179A C178A 1_555 1_555
H147A C179A 1_555 1_555
C180A C175A 1_555 1_555
H148A C180A 1_555 1_555
C181A C178A 1_555 1_555
H149A C181A 1_555 1_555
H150A C181A 1_555 1_555
H151A C181A 1_555 1_555
C189A N14A 1_555 1_555
C190A C189A 1_555 1_555
H159A C190A 1_555 1_555
C191A C190A 1_555 1_555
H160A C191A 1_555 1_555
C192A C191A 1_555 1_555
C193A C192A 1_555 1_555
H161A C193A 1_555 1_555
C194A C189A 1_555 1_555
H162A C194A 1_555 1_555
C195A C192A 1_555 1_555
H163A C195A 1_555 1_555
H164A C195A 1_555 1_555
H165A C195A 1_555 1_555
O9A Cl3 1_555 1_555
O10A Cl3 1_555 1_555
C5 C6 1_555 1_555
N16 C9 1_555 1_555
C12 C13 1_555 1_555
C14 C15 1_555 1_555
C17 C18 1_555 1_555
C24 C25 1_555 1_555
C31 C32 1_555 1_555
N18 C35 1_555 1_555
C38 C39 1_555 1_555
C40 C41 1_555 1_555
C43 C44 1_555 1_555
C50 C51 1_555 1_555
C57 C58 1_555 1_555
N20 C61 1_555 1_555
C64 C65 1_555 1_555
C66 C67 1_555 1_555
C69 C70 1_555 1_555
C76 C77 1_555 1_555
N22 C80 1_555 1_555
C83 C84 1_555 1_555
C85 C86 1_555 1_555
C88 C89 1_555 1_555
C95 C96 1_555 1_555
C102 C103 1_555 1_555
N24 C106 1_555 1_555
C109 C110 1_555 1_555
C111 C112 1_555 1_555
C114 C115 1_555 1_555
C115 C116 1_555 1_555
C121 C122 1_555 1_555
C127 C128 1_555 1_555
C128 C129 1_555 1_555
C133 C134 1_555 1_555
C134 C135 1_555 1_555
C140 C141 1_555 1_555
N28 Zn1A 1_555 1_555
C143 C144 1_555 1_555
C146 C147 1_555 1_555
C153 C154 1_555 1_555
C159 C160 1_555 1_555
C160 C161 1_555 1_555
N30 Zn3A 1_555 1_555
C162 C163 1_555 1_555
C165 C166 1_555 1_555
C172 C173 1_555 1_555
C179 C180 1_555 1_555
C186 C187 1_555 1_555
C193 C194 1_555 1_555
N26A Zn4A 1_555 1_555
C124A C125A 1_555 1_555
C127A C128A 1_555 1_555
C186A C187A 1_555 1_555
C5A C6A 1_555 1_555
N16A C9A 1_555 1_555
C12A C13A 1_555 1_555
C14A C15A 1_555 1_555
C17A C18A 1_555 1_555
C18A C19A 1_555 1_555
C24A C25A 1_555 1_555
C31A C32A 1_555 1_555
N18A C35A 1_555 1_555
C38A C39A 1_555 1_555
C40A C41A 1_555 1_555
C43A C44A 1_555 1_555
C50A C51A 1_555 1_555
C57A C58A 1_555 1_555
N20A C61A 1_555 1_555
C64A C65A 1_555 1_555
C66A C67A 1_555 1_555
C69A C70A 1_555 1_555
C70A C71A 1_555 1_555
C76A C77A 1_555 1_555
N22A C80A 1_555 1_555
C83A C84A 1_555 1_555
C85A C86A 1_555 1_555
C88A C89A 1_555 1_555
C95A C96A 1_555 1_555
C102A C103A 1_555 1_555
N24A C106A 1_555 1_555
C109A C110A 1_555 1_555
C111A C112A 1_555 1_555
C114A C115A 1_555 1_555
C115A C116A 1_555 1_555
C121A C122A 1_555 1_555
C133A C134A 1_555 1_555
C134A C135A 1_555 1_555
C140A C141A 1_555 1_555
C143A C144A 1_555 1_555
C146A C147A 1_555 1_555
C147A C148A 1_555 1_555
C153A C154A 1_555 1_555
C159A C160A 1_555 1_555
C160A C161A 1_555 1_555
C162A C163A 1_555 1_555
C165A C166A 1_555 1_555
C166A C167A 1_555 1_555
C172A C173A 1_555 1_555
C179A C180A 1_555 1_555
C193A C194A 1_555 1_555

#END
