# generated using pymatgen
data_Co8Sb5P15H336C388(N13F44)4
_symmetry_space_group_name_H-M   'P 1'
_cell_length_a   25.11500000
_cell_length_b   39.77630000
_cell_length_c   43.74510000
_cell_angle_alpha   100.24500000
_cell_angle_beta   90.00000000
_cell_angle_gamma   90.00000000
_symmetry_Int_Tables_number   1
_chemical_formula_structural   Co8Sb5P15H336C388(N13F44)4
_chemical_formula_sum   'Co32 Sb20 P60 H1344 C1552 N208 F704'
_cell_volume   43003.80565207
_cell_formula_units_Z   4
loop_
 _symmetry_equiv_pos_site_id
 _symmetry_equiv_pos_as_xyz
  1  'x, y, z'
loop_
 _atom_site_type_symbol
 _atom_site_label
 _atom_site_symmetry_multiplicity
 _atom_site_fract_x
 _atom_site_fract_y
 _atom_site_fract_z
 _atom_site_occupancy
  Co  Co1  1  0.399000  0.135140  0.371880  1
  Co  Co2  1  0.399000  0.364860  0.628120  1
  Co  Co3  1  0.899000  0.135140  0.871880  1
  Co  Co4  1  0.899000  0.364860  0.128120  1
  Co  Co5  1  0.601000  0.864860  0.628120  1
  Co  Co6  1  0.601000  0.635140  0.371880  1
  Co  Co7  1  0.101000  0.864860  0.128120  1
  Co  Co8  1  0.101000  0.635140  0.871880  1
  Co  Co9  1  0.202150  0.341950  0.349410  1
  Co  Co10  1  0.202150  0.158050  0.650590  1
  Co  Co11  1  0.702150  0.341950  0.849410  1
  Co  Co12  1  0.702150  0.158050  0.150590  1
  Co  Co13  1  0.797850  0.658050  0.650590  1
  Co  Co14  1  0.797850  0.841950  0.349410  1
  Co  Co15  1  0.297850  0.658050  0.150590  1
  Co  Co16  1  0.297850  0.841950  0.849410  1
  Co  Co17  1  0.013040  0.136610  0.386170  1
  Co  Co18  1  0.013040  0.363390  0.613830  1
  Co  Co19  1  0.513040  0.136610  0.886170  1
  Co  Co20  1  0.513040  0.363390  0.113830  1
  Co  Co21  1  0.986960  0.863390  0.613830  1
  Co  Co22  1  0.986960  0.636610  0.386170  1
  Co  Co23  1  0.486960  0.863390  0.113830  1
  Co  Co24  1  0.486960  0.636610  0.886170  1
  Co  Co25  1  0.188460  0.138900  0.187130  1
  Co  Co26  1  0.188460  0.361100  0.812870  1
  Co  Co27  1  0.688460  0.138900  0.687130  1
  Co  Co28  1  0.688460  0.361100  0.312870  1
  Co  Co29  1  0.811540  0.861100  0.812870  1
  Co  Co30  1  0.811540  0.638900  0.187130  1
  Co  Co31  1  0.311540  0.861100  0.312870  1
  Co  Co32  1  0.311540  0.638900  0.687130  1
  Sb  Sb33  1  0.199730  0.187380  0.323670  1
  Sb  Sb34  1  0.199730  0.312620  0.676330  1
  Sb  Sb35  1  0.699730  0.187380  0.823670  1
  Sb  Sb36  1  0.699730  0.312620  0.176330  1
  Sb  Sb37  1  0.800270  0.812620  0.676330  1
  Sb  Sb38  1  0.800270  0.687380  0.323670  1
  Sb  Sb39  1  0.300270  0.812620  0.176330  1
  Sb  Sb40  1  0.300270  0.687380  0.823670  1
  Sb  Sb41  1  0.386480  0.130200  0.532540  0.5
  P  P42  1  0.386480  0.130200  0.532540  0.5
  Sb  Sb43  1  0.386480  0.369800  0.467460  0.5
  P  P44  1  0.386480  0.369800  0.467460  0.5
  Sb  Sb45  1  0.886480  0.130200  0.032540  0.5
  P  P46  1  0.886480  0.130200  0.032540  0.5
  Sb  Sb47  1  0.886480  0.369800  0.967460  0.5
  P  P48  1  0.886480  0.369800  0.967460  0.5
  Sb  Sb49  1  0.613520  0.869800  0.467460  0.5
  P  P50  1  0.613520  0.869800  0.467460  0.5
  Sb  Sb51  1  0.613520  0.630200  0.532540  0.5
  P  P52  1  0.613520  0.630200  0.532540  0.5
  Sb  Sb53  1  0.113520  0.869800  0.967460  0.5
  P  P54  1  0.113520  0.869800  0.967460  0.5
  Sb  Sb55  1  0.113520  0.630200  0.032540  0.5
  P  P56  1  0.113520  0.630200  0.032540  0.5
  Sb  Sb57  1  0.432720  0.136670  0.112010  0.5
  P  P58  1  0.432720  0.136670  0.112010  0.5
  Sb  Sb59  1  0.432720  0.363330  0.887990  0.5
  P  P60  1  0.432720  0.363330  0.887990  0.5
  Sb  Sb61  1  0.932720  0.136670  0.612010  0.5
  P  P62  1  0.932720  0.136670  0.612010  0.5
  Sb  Sb63  1  0.932720  0.363330  0.387990  0.5
  P  P64  1  0.932720  0.363330  0.387990  0.5
  Sb  Sb65  1  0.567280  0.863330  0.887990  0.5
  P  P66  1  0.567280  0.863330  0.887990  0.5
  Sb  Sb67  1  0.567280  0.636670  0.112010  0.5
  P  P68  1  0.567280  0.636670  0.112010  0.5
  Sb  Sb69  1  0.067280  0.863330  0.387990  0.5
  P  P70  1  0.067280  0.863330  0.387990  0.5
  Sb  Sb71  1  0.067280  0.636670  0.612010  0.5
  P  P72  1  0.067280  0.636670  0.612010  0.5
  Sb  Sb73  1  0.281880  0.128950  0.797000  0.5
  P  P74  1  0.281880  0.128950  0.797000  0.5
  Sb  Sb75  1  0.281880  0.371050  0.203000  0.5
  P  P76  1  0.281880  0.371050  0.203000  0.5
  Sb  Sb77  1  0.781880  0.128950  0.297000  0.5
  P  P78  1  0.781880  0.128950  0.297000  0.5
  Sb  Sb79  1  0.781880  0.371050  0.703000  0.5
  P  P80  1  0.781880  0.371050  0.703000  0.5
  Sb  Sb81  1  0.718120  0.871050  0.203000  0.5
  P  P82  1  0.718120  0.871050  0.203000  0.5
  Sb  Sb83  1  0.718120  0.628950  0.797000  0.5
  P  P84  1  0.718120  0.628950  0.797000  0.5
  Sb  Sb85  1  0.218120  0.871050  0.703000  0.5
  P  P86  1  0.218120  0.871050  0.703000  0.5
  Sb  Sb87  1  0.218120  0.628950  0.297000  0.5
  P  P88  1  0.218120  0.628950  0.297000  0.5
  P  P89  1  0.012000  0.174790  0.747850  1
  P  P90  1  0.012000  0.325210  0.252150  1
  P  P91  1  0.512000  0.174790  0.247850  1
  P  P92  1  0.512000  0.325210  0.752150  1
  P  P93  1  0.988000  0.825210  0.252150  1
  P  P94  1  0.988000  0.674790  0.747850  1
  P  P95  1  0.488000  0.825210  0.752150  1
  P  P96  1  0.488000  0.674790  0.247850  1
  P  P97  1  0.158300  0.182400  0.510200  1
  P  P98  1  0.158300  0.317600  0.489800  1
  P  P99  1  0.658300  0.182400  0.010200  1
  P  P100  1  0.658300  0.317600  0.989800  1
  P  P101  1  0.841700  0.817600  0.489800  1
  P  P102  1  0.841700  0.682400  0.510200  1
  P  P103  1  0.341700  0.817600  0.989800  1
  P  P104  1  0.341700  0.682400  0.010200  1
  P  P105  1  0.442020  0.178160  0.703030  1
  P  P106  1  0.442020  0.321840  0.296970  1
  P  P107  1  0.942020  0.178160  0.203030  1
  P  P108  1  0.942020  0.321840  0.796970  1
  P  P109  1  0.557980  0.821840  0.296970  1
  P  P110  1  0.557980  0.678160  0.703030  1
  P  P111  1  0.057980  0.821840  0.796970  1
  P  P112  1  0.057980  0.678160  0.203030  1
  P  P113  1  0.153300  0.174500  0.513300  1
  P  P114  1  0.153300  0.325500  0.486700  1
  P  P115  1  0.653300  0.174500  0.013300  1
  P  P116  1  0.653300  0.325500  0.986700  1
  P  P117  1  0.846700  0.825500  0.486700  1
  P  P118  1  0.846700  0.674500  0.513300  1
  P  P119  1  0.346700  0.825500  0.986700  1
  P  P120  1  0.346700  0.674500  0.013300  1
  P  P121  1  0.292700  0.990400  0.217800  1
  P  P122  1  0.292700  0.509600  0.782200  1
  P  P123  1  0.792700  0.990400  0.717800  1
  P  P124  1  0.792700  0.509600  0.282200  1
  P  P125  1  0.707300  0.009600  0.782200  1
  P  P126  1  0.707300  0.490400  0.217800  1
  P  P127  1  0.207300  0.009600  0.282200  1
  P  P128  1  0.207300  0.490400  0.717800  1
  P  P129  1  0.317600  0.007500  0.200100  1
  P  P130  1  0.317600  0.492500  0.799900  1
  P  P131  1  0.817600  0.007500  0.700100  1
  P  P132  1  0.817600  0.492500  0.299900  1
  P  P133  1  0.682400  0.992500  0.799900  1
  P  P134  1  0.682400  0.507500  0.200100  1
  P  P135  1  0.182400  0.992500  0.299900  1
  P  P136  1  0.182400  0.507500  0.700100  1
  H  H137  1  0.523900  0.111200  0.385900  1
  H  H138  1  0.523900  0.388800  0.614100  1
  H  H139  1  0.023900  0.111200  0.885900  1
  H  H140  1  0.023900  0.388800  0.114100  1
  H  H141  1  0.476100  0.888800  0.614100  1
  H  H142  1  0.476100  0.611200  0.385900  1
  H  H143  1  0.976100  0.888800  0.114100  1
  H  H144  1  0.976100  0.611200  0.885900  1
  H  H145  1  0.597500  0.074800  0.376500  1
  H  H146  1  0.597500  0.425200  0.623500  1
  H  H147  1  0.097500  0.074800  0.876500  1
  H  H148  1  0.097500  0.425200  0.123500  1
  H  H149  1  0.402500  0.925200  0.623500  1
  H  H150  1  0.402500  0.574800  0.376500  1
  H  H151  1  0.902500  0.925200  0.123500  1
  H  H152  1  0.902500  0.574800  0.876500  1
  H  H153  1  0.590600  0.080000  0.284800  1
  H  H154  1  0.590600  0.420000  0.715200  1
  H  H155  1  0.090600  0.080000  0.784800  1
  H  H156  1  0.090600  0.420000  0.215200  1
  H  H157  1  0.409400  0.920000  0.715200  1
  H  H158  1  0.409400  0.580000  0.284800  1
  H  H159  1  0.909400  0.920000  0.215200  1
  H  H160  1  0.909400  0.580000  0.784800  1
  H  H161  1  0.517000  0.116400  0.294100  1
  H  H162  1  0.517000  0.383600  0.705900  1
  H  H163  1  0.017000  0.116400  0.794100  1
  H  H164  1  0.017000  0.383600  0.205900  1
  H  H165  1  0.483000  0.883600  0.705900  1
  H  H166  1  0.483000  0.616400  0.294100  1
  H  H167  1  0.983000  0.883600  0.205900  1
  H  H168  1  0.983000  0.616400  0.794100  1
  H  H169  1  0.635800  0.025700  0.321900  1
  H  H170  1  0.635800  0.474300  0.678100  1
  H  H171  1  0.135800  0.025700  0.821900  1
  H  H172  1  0.135800  0.474300  0.178100  1
  H  H173  1  0.364200  0.974300  0.678100  1
  H  H174  1  0.364200  0.525700  0.321900  1
  H  H175  1  0.864200  0.974300  0.178100  1
  H  H176  1  0.864200  0.525700  0.821900  1
  H  H177  1  0.674000  0.054400  0.340600  1
  H  H178  1  0.674000  0.445600  0.659400  1
  H  H179  1  0.174000  0.054400  0.840600  1
  H  H180  1  0.174000  0.445600  0.159400  1
  H  H181  1  0.326000  0.945600  0.659400  1
  H  H182  1  0.326000  0.554400  0.340600  1
  H  H183  1  0.826000  0.945600  0.159400  1
  H  H184  1  0.826000  0.554400  0.840600  1
  H  H185  1  0.665700  0.052000  0.304000  1
  H  H186  1  0.665700  0.448000  0.696000  1
  H  H187  1  0.165700  0.052000  0.804000  1
  H  H188  1  0.165700  0.448000  0.196000  1
  H  H189  1  0.334300  0.948000  0.696000  1
  H  H190  1  0.334300  0.552000  0.304000  1
  H  H191  1  0.834300  0.948000  0.196000  1
  H  H192  1  0.834300  0.552000  0.804000  1
  H  H193  1  0.501400  0.172400  0.322100  1
  H  H194  1  0.501400  0.327600  0.677900  1
  H  H195  1  0.001400  0.172400  0.822100  1
  H  H196  1  0.001400  0.327600  0.177900  1
  H  H197  1  0.498600  0.827600  0.677900  1
  H  H198  1  0.498600  0.672400  0.322100  1
  H  H199  1  0.998600  0.827600  0.177900  1
  H  H200  1  0.998600  0.672400  0.822100  1
  H  H201  1  0.450200  0.228800  0.315900  1
  H  H202  1  0.450200  0.271200  0.684100  1
  H  H203  1  0.950200  0.228800  0.815900  1
  H  H204  1  0.950200  0.271200  0.184100  1
  H  H205  1  0.549800  0.771200  0.684100  1
  H  H206  1  0.549800  0.728800  0.315900  1
  H  H207  1  0.049800  0.771200  0.184100  1
  H  H208  1  0.049800  0.728800  0.815900  1
  H  H209  1  0.387500  0.269100  0.334900  1
  H  H210  1  0.387500  0.230900  0.665100  1
  H  H211  1  0.887500  0.269100  0.834900  1
  H  H212  1  0.887500  0.230900  0.165100  1
  H  H213  1  0.612500  0.730900  0.665100  1
  H  H214  1  0.612500  0.769100  0.334900  1
  H  H215  1  0.112500  0.730900  0.165100  1
  H  H216  1  0.112500  0.769100  0.834900  1
  H  H217  1  0.330000  0.203800  0.387100  1
  H  H218  1  0.330000  0.296200  0.612900  1
  H  H219  1  0.830000  0.203800  0.887100  1
  H  H220  1  0.830000  0.296200  0.112900  1
  H  H221  1  0.670000  0.796200  0.612900  1
  H  H222  1  0.670000  0.703800  0.387100  1
  H  H223  1  0.170000  0.796200  0.112900  1
  H  H224  1  0.170000  0.703800  0.887100  1
  H  H225  1  0.284300  0.278700  0.338800  1
  H  H226  1  0.284300  0.221300  0.661200  1
  H  H227  1  0.784300  0.278700  0.838800  1
  H  H228  1  0.784300  0.221300  0.161200  1
  H  H229  1  0.715700  0.721300  0.661200  1
  H  H230  1  0.715700  0.778700  0.338800  1
  H  H231  1  0.215700  0.721300  0.161200  1
  H  H232  1  0.215700  0.778700  0.838800  1
  H  H233  1  0.331200  0.264000  0.422900  1
  H  H234  1  0.331200  0.236000  0.577100  1
  H  H235  1  0.831200  0.264000  0.922900  1
  H  H236  1  0.831200  0.236000  0.077100  1
  H  H237  1  0.668800  0.736000  0.577100  1
  H  H238  1  0.668800  0.764000  0.422900  1
  H  H239  1  0.168800  0.736000  0.077100  1
  H  H240  1  0.168800  0.764000  0.922900  1
  H  H241  1  0.278900  0.310600  0.444900  1
  H  H242  1  0.278900  0.189400  0.555100  1
  H  H243  1  0.778900  0.310600  0.944900  1
  H  H244  1  0.778900  0.189400  0.055100  1
  H  H245  1  0.721100  0.689400  0.555100  1
  H  H246  1  0.721100  0.810600  0.444900  1
  H  H247  1  0.221100  0.689400  0.055100  1
  H  H248  1  0.221100  0.810600  0.944900  1
  H  H249  1  0.222300  0.361000  0.437300  1
  H  H250  1  0.222300  0.139000  0.562700  1
  H  H251  1  0.722300  0.361000  0.937300  1
  H  H252  1  0.722300  0.139000  0.062700  1
  H  H253  1  0.777700  0.639000  0.562700  1
  H  H254  1  0.777700  0.861000  0.437300  1
  H  H255  1  0.277700  0.639000  0.062700  1
  H  H256  1  0.277700  0.861000  0.937300  1
  H  H257  1  0.093900  0.373200  0.398600  1
  H  H258  1  0.093900  0.126800  0.601400  1
  H  H259  1  0.593900  0.373200  0.898600  1
  H  H260  1  0.593900  0.126800  0.101400  1
  H  H261  1  0.906100  0.626800  0.601400  1
  H  H262  1  0.906100  0.873200  0.398600  1
  H  H263  1  0.406100  0.626800  0.101400  1
  H  H264  1  0.406100  0.873200  0.898600  1
  H  H265  1  0.042600  0.420100  0.421500  1
  H  H266  1  0.042600  0.079900  0.578500  1
  H  H267  1  0.542600  0.420100  0.921500  1
  H  H268  1  0.542600  0.079900  0.078500  1
  H  H269  1  0.957400  0.579900  0.578500  1
  H  H270  1  0.957400  0.920100  0.421500  1
  H  H271  1  0.457400  0.579900  0.078500  1
  H  H272  1  0.457400  0.920100  0.921500  1
  H  H273  1  0.177300  0.474200  0.446700  1
  H  H274  1  0.177300  0.025800  0.553300  1
  H  H275  1  0.677300  0.474200  0.946700  1
  H  H276  1  0.677300  0.025800  0.053300  1
  H  H277  1  0.822700  0.525800  0.553300  1
  H  H278  1  0.822700  0.974200  0.446700  1
  H  H279  1  0.322700  0.525800  0.053300  1
  H  H280  1  0.322700  0.974200  0.946700  1
  H  H281  1  0.228700  0.427400  0.423900  1
  H  H282  1  0.228700  0.072600  0.576100  1
  H  H283  1  0.728700  0.427400  0.923900  1
  H  H284  1  0.728700  0.072600  0.076100  1
  H  H285  1  0.771300  0.572600  0.576100  1
  H  H286  1  0.771300  0.927400  0.423900  1
  H  H287  1  0.271300  0.572600  0.076100  1
  H  H288  1  0.271300  0.927400  0.923900  1
  H  H289  1  0.044300  0.474000  0.465300  1
  H  H290  1  0.044300  0.026000  0.534700  1
  H  H291  1  0.544300  0.474000  0.965300  1
  H  H292  1  0.544300  0.026000  0.034700  1
  H  H293  1  0.955700  0.526000  0.534700  1
  H  H294  1  0.955700  0.974000  0.465300  1
  H  H295  1  0.455700  0.526000  0.034700  1
  H  H296  1  0.455700  0.974000  0.965300  1
  H  H297  1  0.053800  0.492600  0.436100  1
  H  H298  1  0.053800  0.007400  0.563900  1
  H  H299  1  0.553800  0.492600  0.936100  1
  H  H300  1  0.553800  0.007400  0.063900  1
  H  H301  1  0.946200  0.507400  0.563900  1
  H  H302  1  0.946200  0.992600  0.436100  1
  H  H303  1  0.446200  0.507400  0.063900  1
  H  H304  1  0.446200  0.992600  0.936100  1
  H  H305  1  0.094300  0.498800  0.464800  1
  H  H306  1  0.094300  0.001200  0.535200  1
  H  H307  1  0.594300  0.498800  0.964800  1
  H  H308  1  0.594300  0.001200  0.035200  1
  H  H309  1  0.905700  0.501200  0.535200  1
  H  H310  1  0.905700  0.998800  0.464800  1
  H  H311  1  0.405700  0.501200  0.035200  1
  H  H312  1  0.405700  0.998800  0.964800  1
  H  H313  1  0.385900  0.093000  0.434700  1
  H  H314  1  0.385900  0.407000  0.565300  1
  H  H315  1  0.885900  0.093000  0.934700  1
  H  H316  1  0.885900  0.407000  0.065300  1
  H  H317  1  0.614100  0.907000  0.565300  1
  H  H318  1  0.614100  0.593000  0.434700  1
  H  H319  1  0.114100  0.907000  0.065300  1
  H  H320  1  0.114100  0.593000  0.934700  1
  H  H321  1  0.433400  0.072800  0.473700  1
  H  H322  1  0.433400  0.427200  0.526300  1
  H  H323  1  0.933400  0.072800  0.973700  1
  H  H324  1  0.933400  0.427200  0.026300  1
  H  H325  1  0.566600  0.927200  0.526300  1
  H  H326  1  0.566600  0.572800  0.473700  1
  H  H327  1  0.066600  0.927200  0.026300  1
  H  H328  1  0.066600  0.572800  0.973700  1
  H  H329  1  0.527500  0.016600  0.408500  1
  H  H330  1  0.527500  0.483400  0.591500  1
  H  H331  1  0.027500  0.016600  0.908500  1
  H  H332  1  0.027500  0.483400  0.091500  1
  H  H333  1  0.472500  0.983400  0.591500  1
  H  H334  1  0.472500  0.516600  0.408500  1
  H  H335  1  0.972500  0.983400  0.091500  1
  H  H336  1  0.972500  0.516600  0.908500  1
  H  H337  1  0.480100  0.036700  0.369400  1
  H  H338  1  0.480100  0.463300  0.630600  1
  H  H339  1  0.980100  0.036700  0.869400  1
  H  H340  1  0.980100  0.463300  0.130600  1
  H  H341  1  0.519900  0.963300  0.630600  1
  H  H342  1  0.519900  0.536700  0.369400  1
  H  H343  1  0.019900  0.963300  0.130600  1
  H  H344  1  0.019900  0.536700  0.869400  1
  H  H345  1  0.535300  0.047300  0.483000  1
  H  H346  1  0.535300  0.452700  0.517000  1
  H  H347  1  0.035300  0.047300  0.983000  1
  H  H348  1  0.035300  0.452700  0.017000  1
  H  H349  1  0.464700  0.952700  0.517000  1
  H  H350  1  0.464700  0.547300  0.483000  1
  H  H351  1  0.964700  0.952700  0.017000  1
  H  H352  1  0.964700  0.547300  0.983000  1
  H  H353  1  0.539600  0.010800  0.460900  1
  H  H354  1  0.539600  0.489200  0.539100  1
  H  H355  1  0.039600  0.010800  0.960900  1
  H  H356  1  0.039600  0.489200  0.039100  1
  H  H357  1  0.460400  0.989200  0.539100  1
  H  H358  1  0.460400  0.510800  0.460900  1
  H  H359  1  0.960400  0.989200  0.039100  1
  H  H360  1  0.960400  0.510800  0.960900  1
  H  H361  1  0.489700  0.019400  0.483700  1
  H  H362  1  0.489700  0.480600  0.516300  1
  H  H363  1  0.989700  0.019400  0.983700  1
  H  H364  1  0.989700  0.480600  0.016300  1
  H  H365  1  0.510300  0.980600  0.516300  1
  H  H366  1  0.510300  0.519400  0.483700  1
  H  H367  1  0.010300  0.980600  0.016300  1
  H  H368  1  0.010300  0.519400  0.983700  1
  H  H369  1  0.345600  0.046400  0.363700  1
  H  H370  1  0.345600  0.453600  0.636300  1
  H  H371  1  0.845600  0.046400  0.863700  1
  H  H372  1  0.845600  0.453600  0.136300  1
  H  H373  1  0.654400  0.953600  0.636300  1
  H  H374  1  0.654400  0.546400  0.363700  1
  H  H375  1  0.154400  0.953600  0.136300  1
  H  H376  1  0.154400  0.546400  0.863700  1
  H  H377  1  0.314100  0.037700  0.306200  1
  H  H378  1  0.314100  0.462300  0.693800  1
  H  H379  1  0.814100  0.037700  0.806200  1
  H  H380  1  0.814100  0.462300  0.193800  1
  H  H381  1  0.685900  0.962300  0.693800  1
  H  H382  1  0.685900  0.537700  0.306200  1
  H  H383  1  0.185900  0.962300  0.193800  1
  H  H384  1  0.185900  0.537700  0.806200  1
  H  H385  1  0.291300  0.061800  0.262900  1
  H  H386  1  0.291300  0.438200  0.737100  1
  H  H387  1  0.791300  0.061800  0.762900  1
  H  H388  1  0.791300  0.438200  0.237100  1
  H  H389  1  0.708700  0.938200  0.737100  1
  H  H390  1  0.708700  0.561800  0.262900  1
  H  H391  1  0.208700  0.938200  0.237100  1
  H  H392  1  0.208700  0.561800  0.762900  1
  H  H393  1  0.365100  0.149800  0.301400  1
  H  H394  1  0.365100  0.350200  0.698600  1
  H  H395  1  0.865100  0.149800  0.801400  1
  H  H396  1  0.865100  0.350200  0.198600  1
  H  H397  1  0.634900  0.850200  0.698600  1
  H  H398  1  0.634900  0.649800  0.301400  1
  H  H399  1  0.134900  0.850200  0.198600  1
  H  H400  1  0.134900  0.649800  0.801400  1
  H  H401  1  0.240400  0.126600  0.250100  1
  H  H402  1  0.240400  0.373400  0.749900  1
  H  H403  1  0.740400  0.126600  0.750100  1
  H  H404  1  0.740400  0.373400  0.249900  1
  H  H405  1  0.759600  0.873400  0.749900  1
  H  H406  1  0.759600  0.626600  0.250100  1
  H  H407  1  0.259600  0.873400  0.249900  1
  H  H408  1  0.259600  0.626600  0.750100  1
  H  H409  1  0.399600  0.119200  0.235400  1
  H  H410  1  0.399600  0.380800  0.764600  1
  H  H411  1  0.899600  0.119200  0.735400  1
  H  H412  1  0.899600  0.380800  0.264600  1
  H  H413  1  0.600400  0.880800  0.764600  1
  H  H414  1  0.600400  0.619200  0.235400  1
  H  H415  1  0.100400  0.880800  0.264600  1
  H  H416  1  0.100400  0.619200  0.735400  1
  H  H417  1  0.389300  0.141100  0.189400  1
  H  H418  1  0.389300  0.358900  0.810600  1
  H  H419  1  0.889300  0.141100  0.689400  1
  H  H420  1  0.889300  0.358900  0.310600  1
  H  H421  1  0.610700  0.858900  0.810600  1
  H  H422  1  0.610700  0.641100  0.189400  1
  H  H423  1  0.110700  0.858900  0.310600  1
  H  H424  1  0.110700  0.641100  0.689400  1
  H  H425  1  0.315800  0.170300  0.154600  1
  H  H426  1  0.315800  0.329700  0.845400  1
  H  H427  1  0.815800  0.170300  0.654600  1
  H  H428  1  0.815800  0.329700  0.345400  1
  H  H429  1  0.684200  0.829700  0.845400  1
  H  H430  1  0.684200  0.670300  0.154600  1
  H  H431  1  0.184200  0.829700  0.345400  1
  H  H432  1  0.184200  0.670300  0.654600  1
  H  H433  1  0.285800  0.141300  0.102400  1
  H  H434  1  0.285800  0.358700  0.897600  1
  H  H435  1  0.785800  0.141300  0.602400  1
  H  H436  1  0.785800  0.358700  0.397600  1
  H  H437  1  0.714200  0.858700  0.897600  1
  H  H438  1  0.714200  0.641300  0.102400  1
  H  H439  1  0.214200  0.858700  0.397600  1
  H  H440  1  0.214200  0.641300  0.602400  1
  H  H441  1  0.269100  0.163000  0.057100  1
  H  H442  1  0.269100  0.337000  0.942900  1
  H  H443  1  0.769100  0.163000  0.557100  1
  H  H444  1  0.769100  0.337000  0.442900  1
  H  H445  1  0.730900  0.837000  0.942900  1
  H  H446  1  0.730900  0.663000  0.057100  1
  H  H447  1  0.230900  0.837000  0.442900  1
  H  H448  1  0.230900  0.663000  0.557100  1
  H  H449  1  0.155700  0.225600  0.102200  1
  H  H450  1  0.155700  0.274400  0.897800  1
  H  H451  1  0.655700  0.225600  0.602200  1
  H  H452  1  0.655700  0.274400  0.397800  1
  H  H453  1  0.844300  0.774400  0.897800  1
  H  H454  1  0.844300  0.725600  0.102200  1
  H  H455  1  0.344300  0.774400  0.397800  1
  H  H456  1  0.344300  0.725600  0.602200  1
  H  H457  1  0.172200  0.204000  0.147600  1
  H  H458  1  0.172200  0.296000  0.852400  1
  H  H459  1  0.672200  0.204000  0.647600  1
  H  H460  1  0.672200  0.296000  0.352400  1
  H  H461  1  0.827800  0.796000  0.852400  1
  H  H462  1  0.827800  0.704000  0.147600  1
  H  H463  1  0.327800  0.796000  0.352400  1
  H  H464  1  0.327800  0.704000  0.647600  1
  H  H465  1  0.217500  0.195900  0.027800  1
  H  H466  1  0.217500  0.304100  0.972200  1
  H  H467  1  0.717500  0.195900  0.527800  1
  H  H468  1  0.717500  0.304100  0.472200  1
  H  H469  1  0.782500  0.804100  0.972200  1
  H  H470  1  0.782500  0.695900  0.027800  1
  H  H471  1  0.282500  0.804100  0.472200  1
  H  H472  1  0.282500  0.695900  0.527800  1
  H  H473  1  0.210900  0.233600  0.047500  1
  H  H474  1  0.210900  0.266400  0.952500  1
  H  H475  1  0.710900  0.233600  0.547500  1
  H  H476  1  0.710900  0.266400  0.452500  1
  H  H477  1  0.789100  0.766400  0.952500  1
  H  H478  1  0.789100  0.733600  0.047500  1
  H  H479  1  0.289100  0.766400  0.452500  1
  H  H480  1  0.289100  0.733600  0.547500  1
  H  H481  1  0.160400  0.208900  0.041300  1
  H  H482  1  0.160400  0.291100  0.958700  1
  H  H483  1  0.660400  0.208900  0.541300  1
  H  H484  1  0.660400  0.291100  0.458700  1
  H  H485  1  0.839600  0.791100  0.958700  1
  H  H486  1  0.839600  0.708900  0.041300  1
  H  H487  1  0.339600  0.791100  0.458700  1
  H  H488  1  0.339600  0.708900  0.541300  1
  H  H489  1  0.470700  0.140500  0.466800  1
  H  H490  1  0.470700  0.359500  0.533200  1
  H  H491  1  0.970700  0.140500  0.966800  1
  H  H492  1  0.970700  0.359500  0.033200  1
  H  H493  1  0.529300  0.859500  0.533200  1
  H  H494  1  0.529300  0.640500  0.466800  1
  H  H495  1  0.029300  0.859500  0.033200  1
  H  H496  1  0.029300  0.640500  0.966800  1
  H  H497  1  0.553200  0.159800  0.487700  1
  H  H498  1  0.553200  0.340200  0.512300  1
  H  H499  1  0.053200  0.159800  0.987700  1
  H  H500  1  0.053200  0.340200  0.012300  1
  H  H501  1  0.446800  0.840200  0.512300  1
  H  H502  1  0.446800  0.659800  0.487700  1
  H  H503  1  0.946800  0.840200  0.012300  1
  H  H504  1  0.946800  0.659800  0.987700  1
  H  H505  1  0.572700  0.215100  0.419000  1
  H  H506  1  0.572700  0.284900  0.581000  1
  H  H507  1  0.072700  0.215100  0.919000  1
  H  H508  1  0.072700  0.284900  0.081000  1
  H  H509  1  0.427300  0.784900  0.581000  1
  H  H510  1  0.427300  0.715100  0.419000  1
  H  H511  1  0.927300  0.784900  0.081000  1
  H  H512  1  0.927300  0.715100  0.919000  1
  H  H513  1  0.490300  0.195800  0.398000  1
  H  H514  1  0.490300  0.304200  0.602000  1
  H  H515  1  0.990300  0.195800  0.898000  1
  H  H516  1  0.990300  0.304200  0.102000  1
  H  H517  1  0.509700  0.804200  0.602000  1
  H  H518  1  0.509700  0.695800  0.398000  1
  H  H519  1  0.009700  0.804200  0.102000  1
  H  H520  1  0.009700  0.695800  0.898000  1
  H  H521  1  0.628700  0.226000  0.469900  1
  H  H522  1  0.628700  0.274000  0.530100  1
  H  H523  1  0.128700  0.226000  0.969900  1
  H  H524  1  0.128700  0.274000  0.030100  1
  H  H525  1  0.371300  0.774000  0.530100  1
  H  H526  1  0.371300  0.726000  0.469900  1
  H  H527  1  0.871300  0.774000  0.030100  1
  H  H528  1  0.871300  0.726000  0.969900  1
  H  H529  1  0.653700  0.189800  0.454900  1
  H  H530  1  0.653700  0.310200  0.545100  1
  H  H531  1  0.153700  0.189800  0.954900  1
  H  H532  1  0.153700  0.310200  0.045100  1
  H  H533  1  0.346300  0.810200  0.545100  1
  H  H534  1  0.346300  0.689800  0.454900  1
  H  H535  1  0.846300  0.810200  0.045100  1
  H  H536  1  0.846300  0.689800  0.954900  1
  H  H537  1  0.629600  0.195500  0.489400  1
  H  H538  1  0.629600  0.304500  0.510600  1
  H  H539  1  0.129600  0.195500  0.989400  1
  H  H540  1  0.129600  0.304500  0.010600  1
  H  H541  1  0.370400  0.804500  0.510600  1
  H  H542  1  0.370400  0.695500  0.489400  1
  H  H543  1  0.870400  0.804500  0.010600  1
  H  H544  1  0.870400  0.695500  0.989400  1
  H  H545  1  0.390700  0.167700  0.458800  1
  H  H546  1  0.390700  0.332300  0.541200  1
  H  H547  1  0.890700  0.167700  0.958800  1
  H  H548  1  0.890700  0.332300  0.041200  1
  H  H549  1  0.609300  0.832300  0.541200  1
  H  H550  1  0.609300  0.667700  0.458800  1
  H  H551  1  0.109300  0.832300  0.041200  1
  H  H552  1  0.109300  0.667700  0.958800  1
  H  H553  1  0.292900  0.156100  0.467900  1
  H  H554  1  0.292900  0.343900  0.532100  1
  H  H555  1  0.792900  0.156100  0.967900  1
  H  H556  1  0.792900  0.343900  0.032100  1
  H  H557  1  0.707100  0.843900  0.532100  1
  H  H558  1  0.707100  0.656100  0.467900  1
  H  H559  1  0.207100  0.843900  0.032100  1
  H  H560  1  0.207100  0.656100  0.967900  1
  H  H561  1  0.208900  0.140100  0.446800  1
  H  H562  1  0.208900  0.359900  0.553200  1
  H  H563  1  0.708900  0.140100  0.946800  1
  H  H564  1  0.708900  0.359900  0.053200  1
  H  H565  1  0.791100  0.859900  0.553200  1
  H  H566  1  0.791100  0.640100  0.446800  1
  H  H567  1  0.291100  0.859900  0.053200  1
  H  H568  1  0.291100  0.640100  0.946800  1
  H  H569  1  0.138200  0.150400  0.401800  1
  H  H570  1  0.138200  0.349600  0.598200  1
  H  H571  1  0.638200  0.150400  0.901800  1
  H  H572  1  0.638200  0.349600  0.098200  1
  H  H573  1  0.861800  0.849600  0.598200  1
  H  H574  1  0.861800  0.650400  0.401800  1
  H  H575  1  0.361800  0.849600  0.098200  1
  H  H576  1  0.361800  0.650400  0.901800  1
  H  H577  1  0.209800  0.059800  0.378400  1
  H  H578  1  0.209800  0.440200  0.621600  1
  H  H579  1  0.709800  0.059800  0.878400  1
  H  H580  1  0.709800  0.440200  0.121600  1
  H  H581  1  0.790200  0.940200  0.621600  1
  H  H582  1  0.790200  0.559800  0.378400  1
  H  H583  1  0.290200  0.940200  0.121600  1
  H  H584  1  0.290200  0.559800  0.878400  1
  H  H585  1  0.125700  0.034300  0.361700  1
  H  H586  1  0.125700  0.465700  0.638300  1
  H  H587  1  0.625700  0.034300  0.861700  1
  H  H588  1  0.625700  0.465700  0.138300  1
  H  H589  1  0.874300  0.965700  0.638300  1
  H  H590  1  0.874300  0.534300  0.361700  1
  H  H591  1  0.374300  0.965700  0.138300  1
  H  H592  1  0.374300  0.534300  0.861700  1
  H  H593  1  0.028500  0.039900  0.365100  1
  H  H594  1  0.028500  0.460100  0.634900  1
  H  H595  1  0.528500  0.039900  0.865100  1
  H  H596  1  0.528500  0.460100  0.134900  1
  H  H597  1  0.971500  0.960100  0.634900  1
  H  H598  1  0.971500  0.539900  0.365100  1
  H  H599  1  0.471500  0.960100  0.134900  1
  H  H600  1  0.471500  0.539900  0.865100  1
  H  H601  1  0.908900  0.097000  0.344300  1
  H  H602  1  0.908900  0.403000  0.655700  1
  H  H603  1  0.408900  0.097000  0.844300  1
  H  H604  1  0.408900  0.403000  0.155700  1
  H  H605  1  0.091100  0.903000  0.655700  1
  H  H606  1  0.091100  0.597000  0.344300  1
  H  H607  1  0.591100  0.903000  0.155700  1
  H  H608  1  0.591100  0.597000  0.844300  1
  H  H609  1  0.823200  0.074000  0.344100  1
  H  H610  1  0.823200  0.426000  0.655900  1
  H  H611  1  0.323200  0.074000  0.844100  1
  H  H612  1  0.323200  0.426000  0.155900  1
  H  H613  1  0.176800  0.926000  0.655900  1
  H  H614  1  0.176800  0.574000  0.344100  1
  H  H615  1  0.676800  0.926000  0.155900  1
  H  H616  1  0.676800  0.574000  0.844100  1
  H  H617  1  0.872500  0.011300  0.402100  1
  H  H618  1  0.872500  0.488700  0.597900  1
  H  H619  1  0.372500  0.011300  0.902100  1
  H  H620  1  0.372500  0.488700  0.097900  1
  H  H621  1  0.127500  0.988700  0.597900  1
  H  H622  1  0.127500  0.511300  0.402100  1
  H  H623  1  0.627500  0.988700  0.097900  1
  H  H624  1  0.627500  0.511300  0.902100  1
  H  H625  1  0.958300  0.034200  0.402300  1
  H  H626  1  0.958300  0.465800  0.597700  1
  H  H627  1  0.458300  0.034200  0.902300  1
  H  H628  1  0.458300  0.465800  0.097700  1
  H  H629  1  0.041700  0.965800  0.597700  1
  H  H630  1  0.041700  0.534200  0.402300  1
  H  H631  1  0.541700  0.965800  0.097700  1
  H  H632  1  0.541700  0.534200  0.902300  1
  H  H633  1  0.786700  0.999900  0.370900  1
  H  H634  1  0.786700  0.500100  0.629100  1
  H  H635  1  0.286700  0.999900  0.870900  1
  H  H636  1  0.286700  0.500100  0.129100  1
  H  H637  1  0.213300  0.000100  0.629100  1
  H  H638  1  0.213300  0.499900  0.370900  1
  H  H639  1  0.713300  0.000100  0.129100  1
  H  H640  1  0.713300  0.499900  0.870900  1
  H  H641  1  0.764300  0.029700  0.354200  1
  H  H642  1  0.764300  0.470300  0.645800  1
  H  H643  1  0.264300  0.029700  0.854200  1
  H  H644  1  0.264300  0.470300  0.145800  1
  H  H645  1  0.235700  0.970300  0.645800  1
  H  H646  1  0.235700  0.529700  0.354200  1
  H  H647  1  0.735700  0.970300  0.145800  1
  H  H648  1  0.735700  0.529700  0.854200  1
  H  H649  1  0.764500  0.034500  0.391300  1
  H  H650  1  0.764500  0.465500  0.608700  1
  H  H651  1  0.264500  0.034500  0.891300  1
  H  H652  1  0.264500  0.465500  0.108700  1
  H  H653  1  0.235500  0.965500  0.608700  1
  H  H654  1  0.235500  0.534500  0.391300  1
  H  H655  1  0.735500  0.965500  0.108700  1
  H  H656  1  0.735500  0.534500  0.891300  1
  H  H657  1  0.945500  0.200000  0.432500  1
  H  H658  1  0.945500  0.300000  0.567500  1
  H  H659  1  0.445500  0.200000  0.932500  1
  H  H660  1  0.445500  0.300000  0.067500  1
  H  H661  1  0.054500  0.800000  0.567500  1
  H  H662  1  0.054500  0.700000  0.432500  1
  H  H663  1  0.554500  0.800000  0.067500  1
  H  H664  1  0.554500  0.700000  0.932500  1
  H  H665  1  0.878100  0.218400  0.468400  1
  H  H666  1  0.878100  0.281600  0.531600  1
  H  H667  1  0.378100  0.218400  0.968400  1
  H  H668  1  0.378100  0.281600  0.031600  1
  H  H669  1  0.121900  0.781600  0.531600  1
  H  H670  1  0.121900  0.718400  0.468400  1
  H  H671  1  0.621900  0.781600  0.031600  1
  H  H672  1  0.621900  0.718400  0.968400  1
  H  H673  1  0.770900  0.160600  0.412800  1
  H  H674  1  0.770900  0.339400  0.587200  1
  H  H675  1  0.270900  0.160600  0.912800  1
  H  H676  1  0.270900  0.339400  0.087200  1
  H  H677  1  0.229100  0.839400  0.587200  1
  H  H678  1  0.229100  0.660600  0.412800  1
  H  H679  1  0.729100  0.839400  0.087200  1
  H  H680  1  0.729100  0.660600  0.912800  1
  H  H681  1  0.838200  0.142200  0.376800  1
  H  H682  1  0.838200  0.357800  0.623200  1
  H  H683  1  0.338200  0.142200  0.876800  1
  H  H684  1  0.338200  0.357800  0.123200  1
  H  H685  1  0.161800  0.857800  0.623200  1
  H  H686  1  0.161800  0.642200  0.376800  1
  H  H687  1  0.661800  0.857800  0.123200  1
  H  H688  1  0.661800  0.642200  0.876800  1
  H  H689  1  0.789100  0.217600  0.486100  1
  H  H690  1  0.789100  0.282400  0.513900  1
  H  H691  1  0.289100  0.217600  0.986100  1
  H  H692  1  0.289100  0.282400  0.013900  1
  H  H693  1  0.210900  0.782400  0.513900  1
  H  H694  1  0.210900  0.717600  0.486100  1
  H  H695  1  0.710900  0.782400  0.013900  1
  H  H696  1  0.710900  0.717600  0.986100  1
  H  H697  1  0.754500  0.184500  0.472700  1
  H  H698  1  0.754500  0.315500  0.527300  1
  H  H699  1  0.254500  0.184500  0.972700  1
  H  H700  1  0.254500  0.315500  0.027300  1
  H  H701  1  0.245500  0.815500  0.527300  1
  H  H702  1  0.245500  0.684500  0.472700  1
  H  H703  1  0.745500  0.815500  0.027300  1
  H  H704  1  0.745500  0.684500  0.972700  1
  H  H705  1  0.748700  0.218300  0.457900  1
  H  H706  1  0.748700  0.281700  0.542100  1
  H  H707  1  0.248700  0.218300  0.957900  1
  H  H708  1  0.248700  0.281700  0.042100  1
  H  H709  1  0.251300  0.781700  0.542100  1
  H  H710  1  0.251300  0.718300  0.457900  1
  H  H711  1  0.751300  0.781700  0.042100  1
  H  H712  1  0.751300  0.718300  0.957900  1
  H  H713  1  0.896100  0.171300  0.345300  1
  H  H714  1  0.896100  0.328700  0.654700  1
  H  H715  1  0.396100  0.171300  0.845300  1
  H  H716  1  0.396100  0.328700  0.154700  1
  H  H717  1  0.103900  0.828700  0.654700  1
  H  H718  1  0.103900  0.671300  0.345300  1
  H  H719  1  0.603900  0.828700  0.154700  1
  H  H720  1  0.603900  0.671300  0.845300  1
  H  H721  1  0.930500  0.160200  0.288200  1
  H  H722  1  0.930500  0.339800  0.711800  1
  H  H723  1  0.430500  0.160200  0.788200  1
  H  H724  1  0.430500  0.339800  0.211800  1
  H  H725  1  0.069500  0.839800  0.711800  1
  H  H726  1  0.069500  0.660200  0.288200  1
  H  H727  1  0.569500  0.839800  0.211800  1
  H  H728  1  0.569500  0.660200  0.788200  1
  H  H729  1  0.997400  0.138700  0.252900  1
  H  H730  1  0.997400  0.361300  0.747100  1
  H  H731  1  0.497400  0.138700  0.752900  1
  H  H732  1  0.497400  0.361300  0.247100  1
  H  H733  1  0.002600  0.861300  0.747100  1
  H  H734  1  0.002600  0.638700  0.252900  1
  H  H735  1  0.502600  0.861300  0.247100  1
  H  H736  1  0.502600  0.638700  0.752900  1
  H  H737  1  0.085800  0.114200  0.323300  1
  H  H738  1  0.085800  0.385800  0.676700  1
  H  H739  1  0.585800  0.114200  0.823300  1
  H  H740  1  0.585800  0.385800  0.176700  1
  H  H741  1  0.914200  0.885800  0.676700  1
  H  H742  1  0.914200  0.614200  0.323300  1
  H  H743  1  0.414200  0.885800  0.176700  1
  H  H744  1  0.414200  0.614200  0.823300  1
  H  H745  1  0.104100  0.151700  0.244200  1
  H  H746  1  0.104100  0.348300  0.755800  1
  H  H747  1  0.604100  0.151700  0.744200  1
  H  H748  1  0.604100  0.348300  0.255800  1
  H  H749  1  0.895900  0.848300  0.755800  1
  H  H750  1  0.895900  0.651700  0.244200  1
  H  H751  1  0.395900  0.848300  0.255800  1
  H  H752  1  0.395900  0.651700  0.744200  1
  H  H753  1  0.093400  0.064500  0.276200  1
  H  H754  1  0.093400  0.435500  0.723800  1
  H  H755  1  0.593400  0.064500  0.776200  1
  H  H756  1  0.593400  0.435500  0.223800  1
  H  H757  1  0.906600  0.935500  0.723800  1
  H  H758  1  0.906600  0.564500  0.276200  1
  H  H759  1  0.406600  0.935500  0.223800  1
  H  H760  1  0.406600  0.564500  0.776200  1
  H  H761  1  0.151000  0.039400  0.236300  1
  H  H762  1  0.151000  0.460600  0.763700  1
  H  H763  1  0.651000  0.039400  0.736300  1
  H  H764  1  0.651000  0.460600  0.263700  1
  H  H765  1  0.849000  0.960600  0.763700  1
  H  H766  1  0.849000  0.539400  0.236300  1
  H  H767  1  0.349000  0.960600  0.263700  1
  H  H768  1  0.349000  0.539400  0.736300  1
  H  H769  1  0.200000  0.042700  0.186000  1
  H  H770  1  0.200000  0.457300  0.814000  1
  H  H771  1  0.700000  0.042700  0.686000  1
  H  H772  1  0.700000  0.457300  0.314000  1
  H  H773  1  0.800000  0.957300  0.814000  1
  H  H774  1  0.800000  0.542700  0.186000  1
  H  H775  1  0.300000  0.957300  0.314000  1
  H  H776  1  0.300000  0.542700  0.686000  1
  H  H777  1  0.291100  0.047100  0.162400  1
  H  H778  1  0.291100  0.452900  0.837600  1
  H  H779  1  0.791100  0.047100  0.662400  1
  H  H780  1  0.791100  0.452900  0.337600  1
  H  H781  1  0.708900  0.952900  0.837600  1
  H  H782  1  0.708900  0.547100  0.162400  1
  H  H783  1  0.208900  0.952900  0.337600  1
  H  H784  1  0.208900  0.547100  0.662400  1
  H  H785  1  0.333200  0.025500  0.115300  1
  H  H786  1  0.333200  0.474500  0.884700  1
  H  H787  1  0.833200  0.025500  0.615300  1
  H  H788  1  0.833200  0.474500  0.384700  1
  H  H789  1  0.666800  0.974500  0.884700  1
  H  H790  1  0.666800  0.525500  0.115300  1
  H  H791  1  0.166800  0.974500  0.384700  1
  H  H792  1  0.166800  0.525500  0.615300  1
  H  H793  1  0.233800  0.080800  0.070400  1
  H  H794  1  0.233800  0.419200  0.929600  1
  H  H795  1  0.733800  0.080800  0.570400  1
  H  H796  1  0.733800  0.419200  0.429600  1
  H  H797  1  0.766200  0.919200  0.929600  1
  H  H798  1  0.766200  0.580800  0.070400  1
  H  H799  1  0.266200  0.919200  0.429600  1
  H  H800  1  0.266200  0.580800  0.570400  1
  H  H801  1  0.191500  0.102500  0.117400  1
  H  H802  1  0.191500  0.397500  0.882600  1
  H  H803  1  0.691500  0.102500  0.617400  1
  H  H804  1  0.691500  0.397500  0.382600  1
  H  H805  1  0.808500  0.897500  0.882600  1
  H  H806  1  0.808500  0.602500  0.117400  1
  H  H807  1  0.308500  0.897500  0.382600  1
  H  H808  1  0.308500  0.602500  0.617400  1
  H  H809  1  0.342100  0.019900  0.060900  1
  H  H810  1  0.342100  0.480100  0.939100  1
  H  H811  1  0.842100  0.019900  0.560900  1
  H  H812  1  0.842100  0.480100  0.439100  1
  H  H813  1  0.657900  0.980100  0.939100  1
  H  H814  1  0.657900  0.519900  0.060900  1
  H  H815  1  0.157900  0.980100  0.439100  1
  H  H816  1  0.157900  0.519900  0.560900  1
  H  H817  1  0.330100  0.054600  0.048400  1
  H  H818  1  0.330100  0.445400  0.951600  1
  H  H819  1  0.830100  0.054600  0.548400  1
  H  H820  1  0.830100  0.445400  0.451600  1
  H  H821  1  0.669900  0.945400  0.951600  1
  H  H822  1  0.669900  0.554600  0.048400  1
  H  H823  1  0.169900  0.945400  0.451600  1
  H  H824  1  0.169900  0.554600  0.548400  1
  H  H825  1  0.287600  0.024100  0.043000  1
  H  H826  1  0.287600  0.475900  0.957000  1
  H  H827  1  0.787600  0.024100  0.543000  1
  H  H828  1  0.787600  0.475900  0.457000  1
  H  H829  1  0.712400  0.975900  0.957000  1
  H  H830  1  0.712400  0.524100  0.043000  1
  H  H831  1  0.212400  0.975900  0.457000  1
  H  H832  1  0.212400  0.524100  0.543000  1
  H  H833  1  0.096900  0.081700  0.158500  1
  H  H834  1  0.096900  0.418300  0.841500  1
  H  H835  1  0.596900  0.081700  0.658500  1
  H  H836  1  0.596900  0.418300  0.341500  1
  H  H837  1  0.903100  0.918300  0.841500  1
  H  H838  1  0.903100  0.581700  0.158500  1
  H  H839  1  0.403100  0.918300  0.341500  1
  H  H840  1  0.403100  0.581700  0.658500  1
  H  H841  1  0.060800  0.044300  0.116200  1
  H  H842  1  0.060800  0.455700  0.883800  1
  H  H843  1  0.560800  0.044300  0.616200  1
  H  H844  1  0.560800  0.455700  0.383800  1
  H  H845  1  0.939200  0.955700  0.883800  1
  H  H846  1  0.939200  0.544300  0.116200  1
  H  H847  1  0.439200  0.955700  0.383800  1
  H  H848  1  0.439200  0.544300  0.616200  1
  H  H849  1  0.040700  0.123400  0.070200  1
  H  H850  1  0.040700  0.376600  0.929800  1
  H  H851  1  0.540700  0.123400  0.570200  1
  H  H852  1  0.540700  0.376600  0.429800  1
  H  H853  1  0.959300  0.876600  0.929800  1
  H  H854  1  0.959300  0.623400  0.070200  1
  H  H855  1  0.459300  0.876600  0.429800  1
  H  H856  1  0.459300  0.623400  0.570200  1
  H  H857  1  0.076800  0.160800  0.112400  1
  H  H858  1  0.076800  0.339200  0.887600  1
  H  H859  1  0.576800  0.160800  0.612400  1
  H  H860  1  0.576800  0.339200  0.387600  1
  H  H861  1  0.923200  0.839200  0.887600  1
  H  H862  1  0.923200  0.660800  0.112400  1
  H  H863  1  0.423200  0.839200  0.387600  1
  H  H864  1  0.423200  0.660800  0.612400  1
  H  H865  1  0.995200  0.068200  0.051900  1
  H  H866  1  0.995200  0.431800  0.948100  1
  H  H867  1  0.495200  0.068200  0.551900  1
  H  H868  1  0.495200  0.431800  0.448100  1
  H  H869  1  0.004800  0.931800  0.948100  1
  H  H870  1  0.004800  0.568200  0.051900  1
  H  H871  1  0.504800  0.931800  0.448100  1
  H  H872  1  0.504800  0.568200  0.551900  1
  H  H873  1  0.005200  0.036800  0.069400  1
  H  H874  1  0.005200  0.463200  0.930600  1
  H  H875  1  0.505200  0.036800  0.569400  1
  H  H876  1  0.505200  0.463200  0.430600  1
  H  H877  1  0.994800  0.963200  0.930600  1
  H  H878  1  0.994800  0.536800  0.069400  1
  H  H879  1  0.494800  0.963200  0.430600  1
  H  H880  1  0.494800  0.536800  0.569400  1
  H  H881  1  0.049800  0.047200  0.046700  1
  H  H882  1  0.049800  0.452800  0.953300  1
  H  H883  1  0.549800  0.047200  0.546700  1
  H  H884  1  0.549800  0.452800  0.453300  1
  H  H885  1  0.950200  0.952800  0.953300  1
  H  H886  1  0.950200  0.547200  0.046700  1
  H  H887  1  0.450200  0.952800  0.453300  1
  H  H888  1  0.450200  0.547200  0.546700  1
  H  H889  1  0.057600  0.178100  0.167800  1
  H  H890  1  0.057600  0.321900  0.832200  1
  H  H891  1  0.557600  0.178100  0.667800  1
  H  H892  1  0.557600  0.321900  0.332200  1
  H  H893  1  0.942400  0.821900  0.832200  1
  H  H894  1  0.942400  0.678100  0.167800  1
  H  H895  1  0.442400  0.821900  0.332200  1
  H  H896  1  0.442400  0.678100  0.667800  1
  H  H897  1  0.058500  0.231900  0.206800  1
  H  H898  1  0.058500  0.268100  0.793200  1
  H  H899  1  0.558500  0.231900  0.706800  1
  H  H900  1  0.558500  0.268100  0.293200  1
  H  H901  1  0.941500  0.768100  0.793200  1
  H  H902  1  0.941500  0.731900  0.206800  1
  H  H903  1  0.441500  0.768100  0.293200  1
  H  H904  1  0.441500  0.731900  0.706800  1
  H  H905  1  0.106900  0.273100  0.244300  1
  H  H906  1  0.106900  0.226900  0.755700  1
  H  H907  1  0.606900  0.273100  0.744300  1
  H  H908  1  0.606900  0.226900  0.255700  1
  H  H909  1  0.893100  0.726900  0.755700  1
  H  H910  1  0.893100  0.773100  0.244300  1
  H  H911  1  0.393100  0.726900  0.255700  1
  H  H912  1  0.393100  0.773100  0.744300  1
  H  H913  1  0.229000  0.207900  0.234200  1
  H  H914  1  0.229000  0.292100  0.765800  1
  H  H915  1  0.729000  0.207900  0.734200  1
  H  H916  1  0.729000  0.292100  0.265800  1
  H  H917  1  0.771000  0.792100  0.765800  1
  H  H918  1  0.771000  0.707900  0.234200  1
  H  H919  1  0.271000  0.792100  0.265800  1
  H  H920  1  0.271000  0.707900  0.734200  1
  H  H921  1  0.161500  0.280600  0.296400  1
  H  H922  1  0.161500  0.219400  0.703600  1
  H  H923  1  0.661500  0.280600  0.796400  1
  H  H924  1  0.661500  0.219400  0.203600  1
  H  H925  1  0.838500  0.719400  0.703600  1
  H  H926  1  0.838500  0.780600  0.296400  1
  H  H927  1  0.338500  0.719400  0.203600  1
  H  H928  1  0.338500  0.780600  0.796400  1
  H  H929  1  0.273500  0.268200  0.228800  1
  H  H930  1  0.273500  0.231800  0.771200  1
  H  H931  1  0.773500  0.268200  0.728800  1
  H  H932  1  0.773500  0.231800  0.271200  1
  H  H933  1  0.726500  0.731800  0.771200  1
  H  H934  1  0.726500  0.768200  0.228800  1
  H  H935  1  0.226500  0.731800  0.271200  1
  H  H936  1  0.226500  0.768200  0.728800  1
  H  H937  1  0.318500  0.314500  0.256800  1
  H  H938  1  0.318500  0.185500  0.743200  1
  H  H939  1  0.818500  0.314500  0.756800  1
  H  H940  1  0.818500  0.185500  0.243200  1
  H  H941  1  0.681500  0.685500  0.743200  1
  H  H942  1  0.681500  0.814500  0.256800  1
  H  H943  1  0.181500  0.685500  0.243200  1
  H  H944  1  0.181500  0.814500  0.756800  1
  H  H945  1  0.321500  0.361500  0.302300  1
  H  H946  1  0.321500  0.138500  0.697700  1
  H  H947  1  0.821500  0.361500  0.802300  1
  H  H948  1  0.821500  0.138500  0.197700  1
  H  H949  1  0.678500  0.638500  0.697700  1
  H  H950  1  0.678500  0.861500  0.302300  1
  H  H951  1  0.178500  0.638500  0.197700  1
  H  H952  1  0.178500  0.861500  0.802300  1
  H  H953  1  0.276700  0.424700  0.319000  1
  H  H954  1  0.276700  0.075300  0.681000  1
  H  H955  1  0.776700  0.424700  0.819000  1
  H  H956  1  0.776700  0.075300  0.181000  1
  H  H957  1  0.723300  0.575300  0.681000  1
  H  H958  1  0.723300  0.924700  0.319000  1
  H  H959  1  0.223300  0.575300  0.181000  1
  H  H960  1  0.223300  0.924700  0.819000  1
  H  H961  1  0.310900  0.476600  0.345300  1
  H  H962  1  0.310900  0.023400  0.654700  1
  H  H963  1  0.810900  0.476600  0.845300  1
  H  H964  1  0.810900  0.023400  0.154700  1
  H  H965  1  0.689100  0.523400  0.654700  1
  H  H966  1  0.689100  0.976600  0.345300  1
  H  H967  1  0.189100  0.523400  0.154700  1
  H  H968  1  0.189100  0.976600  0.845300  1
  H  H969  1  0.352800  0.430900  0.417600  1
  H  H970  1  0.352800  0.069100  0.582400  1
  H  H971  1  0.852800  0.430900  0.917600  1
  H  H972  1  0.852800  0.069100  0.082400  1
  H  H973  1  0.647200  0.569100  0.582400  1
  H  H974  1  0.647200  0.930900  0.417600  1
  H  H975  1  0.147200  0.569100  0.082400  1
  H  H976  1  0.147200  0.930900  0.917600  1
  H  H977  1  0.318600  0.379100  0.391400  1
  H  H978  1  0.318600  0.120900  0.608600  1
  H  H979  1  0.818600  0.379100  0.891400  1
  H  H980  1  0.818600  0.120900  0.108600  1
  H  H981  1  0.681400  0.620900  0.608600  1
  H  H982  1  0.681400  0.879100  0.391400  1
  H  H983  1  0.181400  0.620900  0.108600  1
  H  H984  1  0.181400  0.879100  0.891400  1
  H  H985  1  0.327700  0.505000  0.414400  1
  H  H986  1  0.327700  0.995000  0.585600  1
  H  H987  1  0.827700  0.505000  0.914400  1
  H  H988  1  0.827700  0.995000  0.085600  1
  H  H989  1  0.672300  0.495000  0.585600  1
  H  H990  1  0.672300  0.005000  0.414400  1
  H  H991  1  0.172300  0.495000  0.085600  1
  H  H992  1  0.172300  0.005000  0.914400  1
  H  H993  1  0.368300  0.507000  0.386600  1
  H  H994  1  0.368300  0.993000  0.613400  1
  H  H995  1  0.868300  0.507000  0.886600  1
  H  H996  1  0.868300  0.993000  0.113400  1
  H  H997  1  0.631700  0.493000  0.613400  1
  H  H998  1  0.631700  0.007000  0.386600  1
  H  H999  1  0.131700  0.493000  0.113400  1
  H  H1000  1  0.131700  0.007000  0.886600  1
  H  H1001  1  0.386000  0.488800  0.414900  1
  H  H1002  1  0.386000  0.011200  0.585100  1
  H  H1003  1  0.886000  0.488800  0.914900  1
  H  H1004  1  0.886000  0.011200  0.085100  1
  H  H1005  1  0.614000  0.511200  0.585100  1
  H  H1006  1  0.614000  0.988800  0.414900  1
  H  H1007  1  0.114000  0.511200  0.085100  1
  H  H1008  1  0.114000  0.988800  0.914900  1
  H  H1009  1  0.920600  0.113200  0.435800  1
  H  H1010  1  0.920600  0.386800  0.564200  1
  H  H1011  1  0.420600  0.113200  0.935800  1
  H  H1012  1  0.420600  0.386800  0.064200  1
  H  H1013  1  0.079400  0.886800  0.564200  1
  H  H1014  1  0.079400  0.613200  0.435800  1
  H  H1015  1  0.579400  0.886800  0.064200  1
  H  H1016  1  0.579400  0.613200  0.935800  1
  H  H1017  1  0.892000  0.075800  0.468000  1
  H  H1018  1  0.892000  0.424200  0.532000  1
  H  H1019  1  0.392000  0.075800  0.968000  1
  H  H1020  1  0.392000  0.424200  0.032000  1
  H  H1021  1  0.108000  0.924200  0.532000  1
  H  H1022  1  0.108000  0.575800  0.468000  1
  H  H1023  1  0.608000  0.924200  0.032000  1
  H  H1024  1  0.608000  0.575800  0.968000  1
  H  H1025  1  0.033200  0.087000  0.513700  1
  H  H1026  1  0.033200  0.413000  0.486300  1
  H  H1027  1  0.533200  0.087000  0.013700  1
  H  H1028  1  0.533200  0.413000  0.986300  1
  H  H1029  1  0.966800  0.913000  0.486300  1
  H  H1030  1  0.966800  0.587000  0.513700  1
  H  H1031  1  0.466800  0.913000  0.986300  1
  H  H1032  1  0.466800  0.587000  0.013700  1
  H  H1033  1  0.062000  0.124500  0.481600  1
  H  H1034  1  0.062000  0.375500  0.518400  1
  H  H1035  1  0.562000  0.124500  0.981600  1
  H  H1036  1  0.562000  0.375500  0.018400  1
  H  H1037  1  0.938000  0.875500  0.518400  1
  H  H1038  1  0.938000  0.624500  0.481600  1
  H  H1039  1  0.438000  0.875500  0.018400  1
  H  H1040  1  0.438000  0.624500  0.981600  1
  H  H1041  1  0.903500  0.047700  0.511100  1
  H  H1042  1  0.903500  0.452300  0.488900  1
  H  H1043  1  0.403500  0.047700  0.011100  1
  H  H1044  1  0.403500  0.452300  0.988900  1
  H  H1045  1  0.096500  0.952300  0.488900  1
  H  H1046  1  0.096500  0.547700  0.511100  1
  H  H1047  1  0.596500  0.952300  0.988900  1
  H  H1048  1  0.596500  0.547700  0.011100  1
  H  H1049  1  0.947700  0.062300  0.536300  1
  H  H1050  1  0.947700  0.437700  0.463700  1
  H  H1051  1  0.447700  0.062300  0.036300  1
  H  H1052  1  0.447700  0.437700  0.963700  1
  H  H1053  1  0.052300  0.937700  0.463700  1
  H  H1054  1  0.052300  0.562300  0.536300  1
  H  H1055  1  0.552300  0.937700  0.963700  1
  H  H1056  1  0.552300  0.562300  0.036300  1
  H  H1057  1  0.961700  0.031100  0.509000  1
  H  H1058  1  0.961700  0.468900  0.491000  1
  H  H1059  1  0.461700  0.031100  0.009000  1
  H  H1060  1  0.461700  0.468900  0.991000  1
  H  H1061  1  0.038300  0.968900  0.491000  1
  H  H1062  1  0.038300  0.531100  0.509000  1
  H  H1063  1  0.538300  0.968900  0.991000  1
  H  H1064  1  0.538300  0.531100  0.009000  1
  H  H1065  1  0.046600  0.175200  0.471000  1
  H  H1066  1  0.046600  0.324800  0.529000  1
  H  H1067  1  0.546600  0.175200  0.971000  1
  H  H1068  1  0.546600  0.324800  0.029000  1
  H  H1069  1  0.953400  0.824800  0.529000  1
  H  H1070  1  0.953400  0.675200  0.471000  1
  H  H1071  1  0.453400  0.824800  0.029000  1
  H  H1072  1  0.453400  0.675200  0.971000  1
  H  H1073  1  0.091800  0.228900  0.463000  1
  H  H1074  1  0.091800  0.271100  0.537000  1
  H  H1075  1  0.591800  0.228900  0.963000  1
  H  H1076  1  0.591800  0.271100  0.037000  1
  H  H1077  1  0.908200  0.771100  0.537000  1
  H  H1078  1  0.908200  0.728900  0.463000  1
  H  H1079  1  0.408200  0.771100  0.037000  1
  H  H1080  1  0.408200  0.728900  0.963000  1
  H  H1081  1  0.109400  0.270400  0.429400  1
  H  H1082  1  0.109400  0.229600  0.570600  1
  H  H1083  1  0.609400  0.270400  0.929400  1
  H  H1084  1  0.609400  0.229600  0.070600  1
  H  H1085  1  0.890600  0.729600  0.570600  1
  H  H1086  1  0.890600  0.770400  0.429400  1
  H  H1087  1  0.390600  0.729600  0.070600  1
  H  H1088  1  0.390600  0.770400  0.929400  1
  H  H1089  1  0.274600  0.113500  0.363400  1
  H  H1090  1  0.274600  0.386500  0.636600  1
  H  H1091  1  0.774600  0.113500  0.863400  1
  H  H1092  1  0.774600  0.386500  0.136600  1
  H  H1093  1  0.725400  0.886500  0.636600  1
  H  H1094  1  0.725400  0.613500  0.363400  1
  H  H1095  1  0.225400  0.886500  0.136600  1
  H  H1096  1  0.225400  0.613500  0.863400  1
  H  H1097  1  0.044100  0.205000  0.359500  1
  H  H1098  1  0.044100  0.295000  0.640500  1
  H  H1099  1  0.544100  0.205000  0.859500  1
  H  H1100  1  0.544100  0.295000  0.140500  1
  H  H1101  1  0.955900  0.795000  0.640500  1
  H  H1102  1  0.955900  0.705000  0.359500  1
  H  H1103  1  0.455900  0.795000  0.140500  1
  H  H1104  1  0.455900  0.705000  0.859500  1
  H  H1105  1  0.157800  0.278900  0.381700  1
  H  H1106  1  0.157800  0.221100  0.618300  1
  H  H1107  1  0.657800  0.278900  0.881700  1
  H  H1108  1  0.657800  0.221100  0.118300  1
  H  H1109  1  0.842200  0.721100  0.618300  1
  H  H1110  1  0.842200  0.778900  0.381700  1
  H  H1111  1  0.342200  0.721100  0.118300  1
  H  H1112  1  0.342200  0.778900  0.881700  1
  H  H1113  1  0.004400  0.268800  0.357500  1
  H  H1114  1  0.004400  0.231200  0.642500  1
  H  H1115  1  0.504400  0.268800  0.857500  1
  H  H1116  1  0.504400  0.231200  0.142500  1
  H  H1117  1  0.995600  0.731200  0.642500  1
  H  H1118  1  0.995600  0.768800  0.357500  1
  H  H1119  1  0.495600  0.731200  0.142500  1
  H  H1120  1  0.495600  0.768800  0.857500  1
  H  H1121  1  0.011900  0.315800  0.332400  1
  H  H1122  1  0.011900  0.184200  0.667600  1
  H  H1123  1  0.511900  0.315800  0.832400  1
  H  H1124  1  0.511900  0.184200  0.167600  1
  H  H1125  1  0.988100  0.684200  0.667600  1
  H  H1126  1  0.988100  0.815800  0.332400  1
  H  H1127  1  0.488100  0.684200  0.167600  1
  H  H1128  1  0.488100  0.815800  0.832400  1
  H  H1129  1  0.065300  0.364400  0.320400  1
  H  H1130  1  0.065300  0.135600  0.679600  1
  H  H1131  1  0.565300  0.364400  0.820400  1
  H  H1132  1  0.565300  0.135600  0.179600  1
  H  H1133  1  0.934700  0.635600  0.679600  1
  H  H1134  1  0.934700  0.864400  0.320400  1
  H  H1135  1  0.434700  0.635600  0.179600  1
  H  H1136  1  0.434700  0.864400  0.820400  1
  H  H1137  1  0.103800  0.429500  0.348600  1
  H  H1138  1  0.103800  0.070500  0.651400  1
  H  H1139  1  0.603800  0.429500  0.848600  1
  H  H1140  1  0.603800  0.070500  0.151400  1
  H  H1141  1  0.896200  0.570500  0.651400  1
  H  H1142  1  0.896200  0.929500  0.348600  1
  H  H1143  1  0.396200  0.570500  0.151400  1
  H  H1144  1  0.396200  0.929500  0.848600  1
  H  H1145  1  0.116500  0.478900  0.327500  1
  H  H1146  1  0.116500  0.021100  0.672500  1
  H  H1147  1  0.616500  0.478900  0.827500  1
  H  H1148  1  0.616500  0.021100  0.172500  1
  H  H1149  1  0.883500  0.521100  0.672500  1
  H  H1150  1  0.883500  0.978900  0.327500  1
  H  H1151  1  0.383500  0.521100  0.172500  1
  H  H1152  1  0.383500  0.978900  0.827500  1
  H  H1153  1  0.203900  0.424800  0.257600  1
  H  H1154  1  0.203900  0.075200  0.742400  1
  H  H1155  1  0.703900  0.424800  0.757600  1
  H  H1156  1  0.703900  0.075200  0.242400  1
  H  H1157  1  0.796100  0.575200  0.742400  1
  H  H1158  1  0.796100  0.924800  0.257600  1
  H  H1159  1  0.296100  0.575200  0.242400  1
  H  H1160  1  0.296100  0.924800  0.757600  1
  H  H1161  1  0.191300  0.375300  0.278700  1
  H  H1162  1  0.191300  0.124700  0.721300  1
  H  H1163  1  0.691300  0.375300  0.778700  1
  H  H1164  1  0.691300  0.124700  0.221300  1
  H  H1165  1  0.808700  0.624700  0.721300  1
  H  H1166  1  0.808700  0.875300  0.278700  1
  H  H1167  1  0.308700  0.624700  0.221300  1
  H  H1168  1  0.308700  0.875300  0.778700  1
  H  H1169  1  0.149800  0.508000  0.288800  1
  H  H1170  1  0.149800  0.992000  0.711200  1
  H  H1171  1  0.649800  0.508000  0.788800  1
  H  H1172  1  0.649800  0.992000  0.211200  1
  H  H1173  1  0.850200  0.492000  0.711200  1
  H  H1174  1  0.850200  0.008000  0.288800  1
  H  H1175  1  0.350200  0.492000  0.211200  1
  H  H1176  1  0.350200  0.008000  0.788800  1
  H  H1177  1  0.160500  0.485300  0.255300  1
  H  H1178  1  0.160500  0.014700  0.744700  1
  H  H1179  1  0.660500  0.485300  0.755300  1
  H  H1180  1  0.660500  0.014700  0.244700  1
  H  H1181  1  0.839500  0.514700  0.744700  1
  H  H1182  1  0.839500  0.985300  0.255300  1
  H  H1183  1  0.339500  0.514700  0.244700  1
  H  H1184  1  0.339500  0.985300  0.755300  1
  H  H1185  1  0.208900  0.495300  0.278900  1
  H  H1186  1  0.208900  0.004700  0.721100  1
  H  H1187  1  0.708900  0.495300  0.778900  1
  H  H1188  1  0.708900  0.004700  0.221100  1
  H  H1189  1  0.791100  0.504700  0.721100  1
  H  H1190  1  0.791100  0.995300  0.278900  1
  H  H1191  1  0.291100  0.504700  0.221100  1
  H  H1192  1  0.291100  0.995300  0.778900  1
  H  H1193  1  0.575400  0.154900  0.350600  1
  H  H1194  1  0.575400  0.345100  0.649400  1
  H  H1195  1  0.075400  0.154900  0.850600  1
  H  H1196  1  0.075400  0.345100  0.149400  1
  H  H1197  1  0.424600  0.845100  0.649400  1
  H  H1198  1  0.424600  0.654900  0.350600  1
  H  H1199  1  0.924600  0.845100  0.149400  1
  H  H1200  1  0.924600  0.654900  0.850600  1
  H  H1201  1  0.647700  0.116700  0.341600  1
  H  H1202  1  0.647700  0.383300  0.658400  1
  H  H1203  1  0.147700  0.116700  0.841600  1
  H  H1204  1  0.147700  0.383300  0.158400  1
  H  H1205  1  0.352300  0.883300  0.658400  1
  H  H1206  1  0.352300  0.616700  0.341600  1
  H  H1207  1  0.852300  0.883300  0.158400  1
  H  H1208  1  0.852300  0.616700  0.841600  1
  H  H1209  1  0.544800  0.037400  0.321200  1
  H  H1210  1  0.544800  0.462600  0.678800  1
  H  H1211  1  0.044800  0.037400  0.821200  1
  H  H1212  1  0.044800  0.462600  0.178800  1
  H  H1213  1  0.455200  0.962600  0.678800  1
  H  H1214  1  0.455200  0.537400  0.321200  1
  H  H1215  1  0.955200  0.962600  0.178800  1
  H  H1216  1  0.955200  0.537400  0.821200  1
  H  H1217  1  0.473200  0.074500  0.330000  1
  H  H1218  1  0.473200  0.425500  0.670000  1
  H  H1219  1  0.973200  0.074500  0.830000  1
  H  H1220  1  0.973200  0.425500  0.170000  1
  H  H1221  1  0.526800  0.925500  0.670000  1
  H  H1222  1  0.526800  0.574500  0.330000  1
  H  H1223  1  0.026800  0.925500  0.170000  1
  H  H1224  1  0.026800  0.574500  0.830000  1
  H  H1225  1  0.347100  0.050600  0.411100  1
  H  H1226  1  0.347100  0.449400  0.588900  1
  H  H1227  1  0.847100  0.050600  0.911100  1
  H  H1228  1  0.847100  0.449400  0.088900  1
  H  H1229  1  0.652900  0.949400  0.588900  1
  H  H1230  1  0.652900  0.550600  0.411100  1
  H  H1231  1  0.152900  0.949400  0.088900  1
  H  H1232  1  0.152900  0.550600  0.911100  1
  H  H1233  1  0.378200  0.027900  0.454700  1
  H  H1234  1  0.378200  0.472100  0.545300  1
  H  H1235  1  0.878200  0.027900  0.954700  1
  H  H1236  1  0.878200  0.472100  0.045300  1
  H  H1237  1  0.621800  0.972100  0.545300  1
  H  H1238  1  0.621800  0.527900  0.454700  1
  H  H1239  1  0.121800  0.972100  0.045300  1
  H  H1240  1  0.121800  0.527900  0.954700  1
  H  H1241  1  0.524700  0.066500  0.442700  1
  H  H1242  1  0.524700  0.433500  0.557300  1
  H  H1243  1  0.024700  0.066500  0.942700  1
  H  H1244  1  0.024700  0.433500  0.057300  1
  H  H1245  1  0.475300  0.933500  0.557300  1
  H  H1246  1  0.475300  0.566500  0.442700  1
  H  H1247  1  0.975300  0.933500  0.057300  1
  H  H1248  1  0.975300  0.566500  0.942700  1
  H  H1249  1  0.492900  0.089500  0.401100  1
  H  H1250  1  0.492900  0.410500  0.598900  1
  H  H1251  1  0.992900  0.089500  0.901100  1
  H  H1252  1  0.992900  0.410500  0.098900  1
  H  H1253  1  0.507100  0.910500  0.598900  1
  H  H1254  1  0.507100  0.589500  0.401100  1
  H  H1255  1  0.007100  0.910500  0.098900  1
  H  H1256  1  0.007100  0.589500  0.901100  1
  H  H1257  1  0.499500  0.012400  0.474500  1
  H  H1258  1  0.499500  0.487600  0.525500  1
  H  H1259  1  0.999500  0.012400  0.974500  1
  H  H1260  1  0.999500  0.487600  0.025500  1
  H  H1261  1  0.500500  0.987600  0.525500  1
  H  H1262  1  0.500500  0.512400  0.474500  1
  H  H1263  1  0.000500  0.987600  0.025500  1
  H  H1264  1  0.000500  0.512400  0.974500  1
  H  H1265  1  0.444700  0.023200  0.492200  1
  H  H1266  1  0.444700  0.476800  0.507800  1
  H  H1267  1  0.944700  0.023200  0.992200  1
  H  H1268  1  0.944700  0.476800  0.007800  1
  H  H1269  1  0.555300  0.976800  0.507800  1
  H  H1270  1  0.555300  0.523200  0.492200  1
  H  H1271  1  0.055300  0.976800  0.007800  1
  H  H1272  1  0.055300  0.523200  0.992200  1
  H  H1273  1  0.493300  0.049600  0.495300  1
  H  H1274  1  0.493300  0.450400  0.504700  1
  H  H1275  1  0.993300  0.049600  0.995300  1
  H  H1276  1  0.993300  0.450400  0.004700  1
  H  H1277  1  0.506700  0.950400  0.504700  1
  H  H1278  1  0.506700  0.549600  0.495300  1
  H  H1279  1  0.006700  0.950400  0.004700  1
  H  H1280  1  0.006700  0.549600  0.995300  1
  H  H1281  1  0.407000  0.040100  0.348400  1
  H  H1282  1  0.407000  0.459900  0.651600  1
  H  H1283  1  0.907000  0.040100  0.848400  1
  H  H1284  1  0.907000  0.459900  0.151600  1
  H  H1285  1  0.593000  0.959900  0.651600  1
  H  H1286  1  0.593000  0.540100  0.348400  1
  H  H1287  1  0.093000  0.959900  0.151600  1
  H  H1288  1  0.093000  0.540100  0.848400  1
  H  H1289  1  0.385600  0.030400  0.284000  1
  H  H1290  1  0.385600  0.469600  0.716000  1
  H  H1291  1  0.885600  0.030400  0.784000  1
  H  H1292  1  0.885600  0.469600  0.216000  1
  H  H1293  1  0.614400  0.969600  0.716000  1
  H  H1294  1  0.614400  0.530400  0.284000  1
  H  H1295  1  0.114400  0.969600  0.216000  1
  H  H1296  1  0.114400  0.530400  0.784000  1
  H  H1297  1  0.355000  0.059300  0.245300  1
  H  H1298  1  0.355000  0.440700  0.754700  1
  H  H1299  1  0.855000  0.059300  0.745300  1
  H  H1300  1  0.855000  0.440700  0.254700  1
  H  H1301  1  0.645000  0.940700  0.754700  1
  H  H1302  1  0.645000  0.559300  0.245300  1
  H  H1303  1  0.145000  0.940700  0.254700  1
  H  H1304  1  0.145000  0.559300  0.745300  1
  H  H1305  1  0.341200  0.146300  0.309000  1
  H  H1306  1  0.341200  0.353700  0.691000  1
  H  H1307  1  0.841200  0.146300  0.809000  1
  H  H1308  1  0.841200  0.353700  0.191000  1
  H  H1309  1  0.658800  0.853700  0.691000  1
  H  H1310  1  0.658800  0.646300  0.309000  1
  H  H1311  1  0.158800  0.853700  0.191000  1
  H  H1312  1  0.158800  0.646300  0.809000  1
  H  H1313  1  0.248400  0.107900  0.247900  1
  H  H1314  1  0.248400  0.392100  0.752100  1
  H  H1315  1  0.748400  0.107900  0.747900  1
  H  H1316  1  0.748400  0.392100  0.252100  1
  H  H1317  1  0.751600  0.892100  0.752100  1
  H  H1318  1  0.751600  0.607900  0.247900  1
  H  H1319  1  0.251600  0.892100  0.252100  1
  H  H1320  1  0.251600  0.607900  0.747900  1
  H  H1321  1  0.397600  0.146100  0.245100  1
  H  H1322  1  0.397600  0.353900  0.754900  1
  H  H1323  1  0.897600  0.146100  0.745100  1
  H  H1324  1  0.897600  0.353900  0.254900  1
  H  H1325  1  0.602400  0.853900  0.754900  1
  H  H1326  1  0.602400  0.646100  0.245100  1
  H  H1327  1  0.102400  0.853900  0.254900  1
  H  H1328  1  0.102400  0.646100  0.745100  1
  H  H1329  1  0.377000  0.164900  0.198800  1
  H  H1330  1  0.377000  0.335100  0.801200  1
  H  H1331  1  0.877000  0.164900  0.698800  1
  H  H1332  1  0.877000  0.335100  0.301200  1
  H  H1333  1  0.623000  0.835100  0.801200  1
  H  H1334  1  0.623000  0.664900  0.198800  1
  H  H1335  1  0.123000  0.835100  0.301200  1
  H  H1336  1  0.123000  0.664900  0.698800  1
  H  H1337  1  0.930700  0.056100  0.324700  1
  H  H1338  1  0.930700  0.443900  0.675300  1
  H  H1339  1  0.430700  0.056100  0.824700  1
  H  H1340  1  0.430700  0.443900  0.175300  1
  H  H1341  1  0.069300  0.943900  0.675300  1
  H  H1342  1  0.069300  0.556100  0.324700  1
  H  H1343  1  0.569300  0.943900  0.175300  1
  H  H1344  1  0.569300  0.556100  0.824700  1
  H  H1345  1  0.838100  0.045400  0.326500  1
  H  H1346  1  0.838100  0.454600  0.673500  1
  H  H1347  1  0.338100  0.045400  0.826500  1
  H  H1348  1  0.338100  0.454600  0.173500  1
  H  H1349  1  0.161900  0.954600  0.673500  1
  H  H1350  1  0.161900  0.545400  0.326500  1
  H  H1351  1  0.661900  0.954600  0.173500  1
  H  H1352  1  0.661900  0.545400  0.826500  1
  H  H1353  1  0.839200  0.066300  0.418700  1
  H  H1354  1  0.839200  0.433700  0.581300  1
  H  H1355  1  0.339200  0.066300  0.918700  1
  H  H1356  1  0.339200  0.433700  0.081300  1
  H  H1357  1  0.160800  0.933700  0.581300  1
  H  H1358  1  0.160800  0.566300  0.418700  1
  H  H1359  1  0.660800  0.933700  0.081300  1
  H  H1360  1  0.660800  0.566300  0.918700  1
  H  H1361  1  0.931100  0.077500  0.419300  1
  H  H1362  1  0.931100  0.422500  0.580700  1
  H  H1363  1  0.431100  0.077500  0.919300  1
  H  H1364  1  0.431100  0.422500  0.080700  1
  H  H1365  1  0.068900  0.922500  0.580700  1
  H  H1366  1  0.068900  0.577500  0.419300  1
  H  H1367  1  0.568900  0.922500  0.080700  1
  H  H1368  1  0.568900  0.577500  0.919300  1
  H  H1369  1  0.298100  0.093200  0.146700  1
  H  H1370  1  0.298100  0.406800  0.853300  1
  H  H1371  1  0.798100  0.093200  0.646700  1
  H  H1372  1  0.798100  0.406800  0.353300  1
  H  H1373  1  0.701900  0.906800  0.853300  1
  H  H1374  1  0.701900  0.593200  0.146700  1
  H  H1375  1  0.201900  0.906800  0.353300  1
  H  H1376  1  0.201900  0.593200  0.646700  1
  H  H1377  1  0.331000  0.071200  0.097200  1
  H  H1378  1  0.331000  0.428800  0.902800  1
  H  H1379  1  0.831000  0.071200  0.597200  1
  H  H1380  1  0.831000  0.428800  0.402800  1
  H  H1381  1  0.669000  0.928800  0.902800  1
  H  H1382  1  0.669000  0.571200  0.097200  1
  H  H1383  1  0.169000  0.928800  0.402800  1
  H  H1384  1  0.169000  0.571200  0.597200  1
  H  H1385  1  0.198100  0.013200  0.078600  1
  H  H1386  1  0.198100  0.486800  0.921400  1
  H  H1387  1  0.698100  0.013200  0.578600  1
  H  H1388  1  0.698100  0.486800  0.421400  1
  H  H1389  1  0.801900  0.986800  0.921400  1
  H  H1390  1  0.801900  0.513200  0.078600  1
  H  H1391  1  0.301900  0.986800  0.421400  1
  H  H1392  1  0.301900  0.513200  0.578600  1
  H  H1393  1  0.165100  0.035200  0.128100  1
  H  H1394  1  0.165100  0.464800  0.871900  1
  H  H1395  1  0.665100  0.035200  0.628100  1
  H  H1396  1  0.665100  0.464800  0.371900  1
  H  H1397  1  0.834900  0.964800  0.871900  1
  H  H1398  1  0.834900  0.535200  0.128100  1
  H  H1399  1  0.334900  0.964800  0.371900  1
  H  H1400  1  0.334900  0.535200  0.628100  1
  H  H1401  1  0.266000  0.030400  0.034900  1
  H  H1402  1  0.266000  0.469600  0.965100  1
  H  H1403  1  0.766000  0.030400  0.534900  1
  H  H1404  1  0.766000  0.469600  0.465100  1
  H  H1405  1  0.734000  0.969600  0.965100  1
  H  H1406  1  0.734000  0.530400  0.034900  1
  H  H1407  1  0.234000  0.969600  0.465100  1
  H  H1408  1  0.234000  0.530400  0.534900  1
  H  H1409  1  0.292900  0.000000  0.049000  1
  H  H1410  1  0.292900  0.500000  0.951000  1
  H  H1411  1  0.792900  0.000000  0.549000  1
  H  H1412  1  0.792900  0.500000  0.451000  1
  H  H1413  1  0.707100  0.000000  0.951000  1
  H  H1414  1  0.707100  0.500000  0.049000  1
  H  H1415  1  0.207100  1.000000  0.451000  1
  H  H1416  1  0.207100  0.500000  0.549000  1
  H  H1417  1  0.325300  0.034600  0.048500  1
  H  H1418  1  0.325300  0.465400  0.951500  1
  H  H1419  1  0.825300  0.034600  0.548500  1
  H  H1420  1  0.825300  0.465400  0.451500  1
  H  H1421  1  0.674700  0.965400  0.951500  1
  H  H1422  1  0.674700  0.534600  0.048500  1
  H  H1423  1  0.174700  0.965400  0.451500  1
  H  H1424  1  0.174700  0.534600  0.548500  1
  H  H1425  1  0.940200  0.152900  0.487200  1
  H  H1426  1  0.940200  0.347100  0.512800  1
  H  H1427  1  0.440200  0.152900  0.987200  1
  H  H1428  1  0.440200  0.347100  0.012800  1
  H  H1429  1  0.059800  0.847100  0.512800  1
  H  H1430  1  0.059800  0.652900  0.487200  1
  H  H1431  1  0.559800  0.847100  0.012800  1
  H  H1432  1  0.559800  0.652900  0.987200  1
  H  H1433  1  0.918900  0.108500  0.514500  1
  H  H1434  1  0.918900  0.391500  0.485500  1
  H  H1435  1  0.418900  0.108500  0.014500  1
  H  H1436  1  0.418900  0.391500  0.985500  1
  H  H1437  1  0.081100  0.891500  0.485500  1
  H  H1438  1  0.081100  0.608500  0.514500  1
  H  H1439  1  0.581100  0.891500  0.985500  1
  H  H1440  1  0.581100  0.608500  0.014500  1
  H  H1441  1  0.031100  0.048700  0.464900  1
  H  H1442  1  0.031100  0.451300  0.535100  1
  H  H1443  1  0.531100  0.048700  0.964900  1
  H  H1444  1  0.531100  0.451300  0.035100  1
  H  H1445  1  0.968900  0.951300  0.535100  1
  H  H1446  1  0.968900  0.548700  0.464900  1
  H  H1447  1  0.468900  0.951300  0.035100  1
  H  H1448  1  0.468900  0.548700  0.964900  1
  H  H1449  1  0.052200  0.093000  0.438600  1
  H  H1450  1  0.052200  0.407000  0.561400  1
  H  H1451  1  0.552200  0.093000  0.938600  1
  H  H1452  1  0.552200  0.407000  0.061400  1
  H  H1453  1  0.947800  0.907000  0.561400  1
  H  H1454  1  0.947800  0.593000  0.438600  1
  H  H1455  1  0.447800  0.907000  0.061400  1
  H  H1456  1  0.447800  0.593000  0.938600  1
  H  H1457  1  0.937400  0.054400  0.528100  1
  H  H1458  1  0.937400  0.445600  0.471900  1
  H  H1459  1  0.437400  0.054400  0.028100  1
  H  H1460  1  0.437400  0.445600  0.971900  1
  H  H1461  1  0.062600  0.945600  0.471900  1
  H  H1462  1  0.062600  0.554400  0.528100  1
  H  H1463  1  0.562600  0.945600  0.971900  1
  H  H1464  1  0.562600  0.554400  0.028100  1
  H  H1465  1  0.993300  0.036700  0.517600  1
  H  H1466  1  0.993300  0.463300  0.482400  1
  H  H1467  1  0.493300  0.036700  0.017600  1
  H  H1468  1  0.493300  0.463300  0.982400  1
  H  H1469  1  0.006700  0.963300  0.482400  1
  H  H1470  1  0.006700  0.536700  0.517600  1
  H  H1471  1  0.506700  0.963300  0.982400  1
  H  H1472  1  0.506700  0.536700  0.017600  1
  H  H1473  1  0.941500  0.027100  0.496500  1
  H  H1474  1  0.941500  0.472900  0.503500  1
  H  H1475  1  0.441500  0.027100  0.996500  1
  H  H1476  1  0.441500  0.472900  0.003500  1
  H  H1477  1  0.058500  0.972900  0.503500  1
  H  H1478  1  0.058500  0.527100  0.496500  1
  H  H1479  1  0.558500  0.972900  0.003500  1
  H  H1480  1  0.558500  0.527100  0.996500  1
  C  C1481  1  0.513100  0.117400  0.340900  1
  C  C1482  1  0.513100  0.382600  0.659100  1
  C  C1483  1  0.013100  0.117400  0.840900  1
  C  C1484  1  0.013100  0.382600  0.159100  1
  C  C1485  1  0.486900  0.882600  0.659100  1
  C  C1486  1  0.486900  0.617400  0.340900  1
  C  C1487  1  0.986900  0.882600  0.159100  1
  C  C1488  1  0.986900  0.617400  0.840900  1
  C  C1489  1  0.537300  0.104900  0.365300  1
  C  C1490  1  0.537300  0.395100  0.634700  1
  C  C1491  1  0.037300  0.104900  0.865300  1
  C  C1492  1  0.037300  0.395100  0.134700  1
  C  C1493  1  0.462700  0.895100  0.634700  1
  C  C1494  1  0.462700  0.604900  0.365300  1
  C  C1495  1  0.962700  0.895100  0.134700  1
  C  C1496  1  0.962700  0.604900  0.865300  1
  C  C1497  1  0.581200  0.083100  0.359700  1
  C  C1498  1  0.581200  0.416900  0.640300  1
  C  C1499  1  0.081200  0.083100  0.859700  1
  C  C1500  1  0.081200  0.416900  0.140300  1
  C  C1501  1  0.418800  0.916900  0.640300  1
  C  C1502  1  0.418800  0.583100  0.359700  1
  C  C1503  1  0.918800  0.916900  0.140300  1
  C  C1504  1  0.918800  0.583100  0.859700  1
  C  C1505  1  0.601800  0.073400  0.329600  1
  C  C1506  1  0.601800  0.426600  0.670400  1
  C  C1507  1  0.101800  0.073400  0.829600  1
  C  C1508  1  0.101800  0.426600  0.170400  1
  C  C1509  1  0.398200  0.926600  0.670400  1
  C  C1510  1  0.398200  0.573400  0.329600  1
  C  C1511  1  0.898200  0.926600  0.170400  1
  C  C1512  1  0.898200  0.573400  0.829600  1
  C  C1513  1  0.577200  0.086200  0.305300  1
  C  C1514  1  0.577200  0.413800  0.694700  1
  C  C1515  1  0.077200  0.086200  0.805300  1
  C  C1516  1  0.077200  0.413800  0.194700  1
  C  C1517  1  0.422800  0.913800  0.694700  1
  C  C1518  1  0.422800  0.586200  0.305300  1
  C  C1519  1  0.922800  0.913800  0.194700  1
  C  C1520  1  0.922800  0.586200  0.805300  1
  C  C1521  1  0.533200  0.108000  0.310800  1
  C  C1522  1  0.533200  0.392000  0.689200  1
  C  C1523  1  0.033200  0.108000  0.810800  1
  C  C1524  1  0.033200  0.392000  0.189200  1
  C  C1525  1  0.466800  0.892000  0.689200  1
  C  C1526  1  0.466800  0.608000  0.310800  1
  C  C1527  1  0.966800  0.892000  0.189200  1
  C  C1528  1  0.966800  0.608000  0.810800  1
  C  C1529  1  0.648400  0.049200  0.323500  1
  C  C1530  1  0.648400  0.450800  0.676500  1
  C  C1531  1  0.148400  0.049200  0.823500  1
  C  C1532  1  0.148400  0.450800  0.176500  1
  C  C1533  1  0.351600  0.950800  0.676500  1
  C  C1534  1  0.351600  0.549200  0.323500  1
  C  C1535  1  0.851600  0.950800  0.176500  1
  C  C1536  1  0.851600  0.549200  0.823500  1
  C  C1537  1  0.472600  0.168400  0.335100  1
  C  C1538  1  0.472600  0.331600  0.664900  1
  C  C1539  1  0.972600  0.168400  0.835100  1
  C  C1540  1  0.972600  0.331600  0.164900  1
  C  C1541  1  0.527400  0.831600  0.664900  1
  C  C1542  1  0.527400  0.668400  0.335100  1
  C  C1543  1  0.027400  0.831600  0.164900  1
  C  C1544  1  0.027400  0.668400  0.835100  1
  C  C1545  1  0.428600  0.192800  0.341900  1
  C  C1546  1  0.428600  0.307200  0.658100  1
  C  C1547  1  0.928600  0.192800  0.841900  1
  C  C1548  1  0.928600  0.307200  0.158100  1
  C  C1549  1  0.571400  0.807200  0.658100  1
  C  C1550  1  0.571400  0.692800  0.341900  1
  C  C1551  1  0.071400  0.807200  0.158100  1
  C  C1552  1  0.071400  0.692800  0.841900  1
  C  C1553  1  0.425600  0.224300  0.331200  1
  C  C1554  1  0.425600  0.275700  0.668800  1
  C  C1555  1  0.925600  0.224300  0.831200  1
  C  C1556  1  0.925600  0.275700  0.168800  1
  C  C1557  1  0.574400  0.775700  0.668800  1
  C  C1558  1  0.574400  0.724300  0.331200  1
  C  C1559  1  0.074400  0.775700  0.168800  1
  C  C1560  1  0.074400  0.724300  0.831200  1
  C  C1561  1  0.388900  0.247900  0.342000  1
  C  C1562  1  0.388900  0.252100  0.658000  1
  C  C1563  1  0.888900  0.247900  0.842000  1
  C  C1564  1  0.888900  0.252100  0.158000  1
  C  C1565  1  0.611100  0.752100  0.658000  1
  C  C1566  1  0.611100  0.747900  0.342000  1
  C  C1567  1  0.111100  0.752100  0.158000  1
  C  C1568  1  0.111100  0.747900  0.842000  1
  C  C1569  1  0.353300  0.240300  0.363700  1
  C  C1570  1  0.353300  0.259700  0.636300  1
  C  C1571  1  0.853300  0.240300  0.863700  1
  C  C1572  1  0.853300  0.259700  0.136300  1
  C  C1573  1  0.646700  0.759700  0.636300  1
  C  C1574  1  0.646700  0.740300  0.363700  1
  C  C1575  1  0.146700  0.759700  0.136300  1
  C  C1576  1  0.146700  0.740300  0.863700  1
  C  C1577  1  0.355600  0.209000  0.372600  1
  C  C1578  1  0.355600  0.291000  0.627400  1
  C  C1579  1  0.855600  0.209000  0.872600  1
  C  C1580  1  0.855600  0.291000  0.127400  1
  C  C1581  1  0.644400  0.791000  0.627400  1
  C  C1582  1  0.644400  0.709000  0.372600  1
  C  C1583  1  0.144400  0.791000  0.127400  1
  C  C1584  1  0.144400  0.709000  0.872600  1
  C  C1585  1  0.284500  0.285800  0.360800  1
  C  C1586  1  0.284500  0.214200  0.639200  1
  C  C1587  1  0.784500  0.285800  0.860800  1
  C  C1588  1  0.784500  0.214200  0.139200  1
  C  C1589  1  0.715500  0.714200  0.639200  1
  C  C1590  1  0.715500  0.785800  0.360800  1
  C  C1591  1  0.215500  0.714200  0.139200  1
  C  C1592  1  0.215500  0.785800  0.860800  1
  C  C1593  1  0.316300  0.267700  0.377800  1
  C  C1594  1  0.316300  0.232300  0.622200  1
  C  C1595  1  0.816300  0.267700  0.877800  1
  C  C1596  1  0.816300  0.232300  0.122200  1
  C  C1597  1  0.683700  0.732300  0.622200  1
  C  C1598  1  0.683700  0.767700  0.377800  1
  C  C1599  1  0.183700  0.732300  0.122200  1
  C  C1600  1  0.183700  0.767700  0.877800  1
  C  C1601  1  0.312400  0.276700  0.410000  1
  C  C1602  1  0.312400  0.223300  0.590000  1
  C  C1603  1  0.812400  0.276700  0.910000  1
  C  C1604  1  0.812400  0.223300  0.090000  1
  C  C1605  1  0.687600  0.723300  0.590000  1
  C  C1606  1  0.687600  0.776700  0.410000  1
  C  C1607  1  0.187600  0.723300  0.090000  1
  C  C1608  1  0.187600  0.776700  0.910000  1
  C  C1609  1  0.281100  0.303900  0.423000  1
  C  C1610  1  0.281100  0.196100  0.577000  1
  C  C1611  1  0.781100  0.303900  0.923000  1
  C  C1612  1  0.781100  0.196100  0.077000  1
  C  C1613  1  0.718900  0.696100  0.577000  1
  C  C1614  1  0.718900  0.803900  0.423000  1
  C  C1615  1  0.218900  0.696100  0.077000  1
  C  C1616  1  0.218900  0.803900  0.923000  1
  C  C1617  1  0.253200  0.321300  0.403600  1
  C  C1618  1  0.253200  0.178700  0.596400  1
  C  C1619  1  0.753200  0.321300  0.903600  1
  C  C1620  1  0.753200  0.178700  0.096400  1
  C  C1621  1  0.746800  0.678700  0.596400  1
  C  C1622  1  0.746800  0.821300  0.403600  1
  C  C1623  1  0.246800  0.678700  0.096400  1
  C  C1624  1  0.246800  0.821300  0.903600  1
  C  C1625  1  0.222500  0.351900  0.415700  1
  C  C1626  1  0.222500  0.148100  0.584300  1
  C  C1627  1  0.722500  0.351900  0.915700  1
  C  C1628  1  0.722500  0.148100  0.084300  1
  C  C1629  1  0.777500  0.648100  0.584300  1
  C  C1630  1  0.777500  0.851900  0.415700  1
  C  C1631  1  0.277500  0.648100  0.084300  1
  C  C1632  1  0.277500  0.851900  0.915700  1
  C  C1633  1  0.166400  0.395700  0.409000  1
  C  C1634  1  0.166400  0.104300  0.591000  1
  C  C1635  1  0.666400  0.395700  0.909000  1
  C  C1636  1  0.666400  0.104300  0.091000  1
  C  C1637  1  0.833600  0.604300  0.591000  1
  C  C1638  1  0.833600  0.895700  0.409000  1
  C  C1639  1  0.333600  0.604300  0.091000  1
  C  C1640  1  0.333600  0.895700  0.909000  1
  C  C1641  1  0.110900  0.393700  0.408400  1
  C  C1642  1  0.110900  0.106300  0.591600  1
  C  C1643  1  0.610900  0.393700  0.908400  1
  C  C1644  1  0.610900  0.106300  0.091600  1
  C  C1645  1  0.889100  0.606300  0.591600  1
  C  C1646  1  0.889100  0.893700  0.408400  1
  C  C1647  1  0.389100  0.606300  0.091600  1
  C  C1648  1  0.389100  0.893700  0.908400  1
  C  C1649  1  0.080300  0.421700  0.422000  1
  C  C1650  1  0.080300  0.078300  0.578000  1
  C  C1651  1  0.580300  0.421700  0.922000  1
  C  C1652  1  0.580300  0.078300  0.078000  1
  C  C1653  1  0.919700  0.578300  0.578000  1
  C  C1654  1  0.919700  0.921700  0.422000  1
  C  C1655  1  0.419700  0.578300  0.078000  1
  C  C1656  1  0.419700  0.921700  0.922000  1
  C  C1657  1  0.104400  0.452100  0.436600  1
  C  C1658  1  0.104400  0.047900  0.563400  1
  C  C1659  1  0.604400  0.452100  0.936600  1
  C  C1660  1  0.604400  0.047900  0.063400  1
  C  C1661  1  0.895600  0.547900  0.563400  1
  C  C1662  1  0.895600  0.952100  0.436600  1
  C  C1663  1  0.395600  0.547900  0.063400  1
  C  C1664  1  0.395600  0.952100  0.936600  1
  C  C1665  1  0.160200  0.453800  0.437000  1
  C  C1666  1  0.160200  0.046200  0.563000  1
  C  C1667  1  0.660200  0.453800  0.937000  1
  C  C1668  1  0.660200  0.046200  0.063000  1
  C  C1669  1  0.839800  0.546200  0.563000  1
  C  C1670  1  0.839800  0.953800  0.437000  1
  C  C1671  1  0.339800  0.546200  0.063000  1
  C  C1672  1  0.339800  0.953800  0.937000  1
  C  C1673  1  0.191000  0.425900  0.423400  1
  C  C1674  1  0.191000  0.074100  0.576600  1
  C  C1675  1  0.691000  0.425900  0.923400  1
  C  C1676  1  0.691000  0.074100  0.076600  1
  C  C1677  1  0.809000  0.574100  0.576600  1
  C  C1678  1  0.809000  0.925900  0.423400  1
  C  C1679  1  0.309000  0.574100  0.076600  1
  C  C1680  1  0.309000  0.925900  0.923400  1
  C  C1681  1  0.071300  0.482000  0.452100  1
  C  C1682  1  0.071300  0.018000  0.547900  1
  C  C1683  1  0.571300  0.482000  0.952100  1
  C  C1684  1  0.571300  0.018000  0.047900  1
  C  C1685  1  0.928700  0.518000  0.547900  1
  C  C1686  1  0.928700  0.982000  0.452100  1
  C  C1687  1  0.428700  0.518000  0.047900  1
  C  C1688  1  0.428700  0.982000  0.952100  1
  C  C1689  1  0.428300  0.066800  0.398200  1
  C  C1690  1  0.428300  0.433200  0.601800  1
  C  C1691  1  0.928300  0.066800  0.898200  1
  C  C1692  1  0.928300  0.433200  0.101800  1
  C  C1693  1  0.571700  0.933200  0.601800  1
  C  C1694  1  0.571700  0.566800  0.398200  1
  C  C1695  1  0.071700  0.933200  0.101800  1
  C  C1696  1  0.071700  0.566800  0.898200  1
  C  C1697  1  0.414600  0.077460  0.429300  1
  C  C1698  1  0.414600  0.422540  0.570700  1
  C  C1699  1  0.914600  0.077460  0.929300  1
  C  C1700  1  0.914600  0.422540  0.070700  1
  C  C1701  1  0.585400  0.922540  0.570700  1
  C  C1702  1  0.585400  0.577460  0.429300  1
  C  C1703  1  0.085400  0.922540  0.070700  1
  C  C1704  1  0.085400  0.577460  0.929300  1
  C  C1705  1  0.443000  0.065400  0.452600  1
  C  C1706  1  0.443000  0.434600  0.547400  1
  C  C1707  1  0.943000  0.065400  0.952600  1
  C  C1708  1  0.943000  0.434600  0.047400  1
  C  C1709  1  0.557000  0.934600  0.547400  1
  C  C1710  1  0.557000  0.565400  0.452600  1
  C  C1711  1  0.057000  0.934600  0.047400  1
  C  C1712  1  0.057000  0.565400  0.952600  1
  C  C1713  1  0.485400  0.042400  0.445300  1
  C  C1714  1  0.485400  0.457600  0.554700  1
  C  C1715  1  0.985400  0.042400  0.945300  1
  C  C1716  1  0.985400  0.457600  0.054700  1
  C  C1717  1  0.514600  0.957600  0.554700  1
  C  C1718  1  0.514600  0.542400  0.445300  1
  C  C1719  1  0.014600  0.957600  0.054700  1
  C  C1720  1  0.014600  0.542400  0.945300  1
  C  C1721  1  0.498800  0.032100  0.413900  1
  C  C1722  1  0.498800  0.467900  0.586100  1
  C  C1723  1  0.998800  0.032100  0.913900  1
  C  C1724  1  0.998800  0.467900  0.086100  1
  C  C1725  1  0.501200  0.967900  0.586100  1
  C  C1726  1  0.501200  0.532100  0.413900  1
  C  C1727  1  0.001200  0.967900  0.086100  1
  C  C1728  1  0.001200  0.532100  0.913900  1
  C  C1729  1  0.470600  0.044100  0.390500  1
  C  C1730  1  0.470600  0.455900  0.609500  1
  C  C1731  1  0.970600  0.044100  0.890500  1
  C  C1732  1  0.970600  0.455900  0.109500  1
  C  C1733  1  0.529400  0.955900  0.609500  1
  C  C1734  1  0.529400  0.544100  0.390500  1
  C  C1735  1  0.029400  0.955900  0.109500  1
  C  C1736  1  0.029400  0.544100  0.890500  1
  C  C1737  1  0.515100  0.028800  0.470400  1
  C  C1738  1  0.515100  0.471200  0.529600  1
  C  C1739  1  0.015100  0.028800  0.970400  1
  C  C1740  1  0.015100  0.471200  0.029600  1
  C  C1741  1  0.484900  0.971200  0.529600  1
  C  C1742  1  0.484900  0.528800  0.470400  1
  C  C1743  1  0.984900  0.971200  0.029600  1
  C  C1744  1  0.984900  0.528800  0.970400  1
  C  C1745  1  0.364100  0.065100  0.357800  1
  C  C1746  1  0.364100  0.434900  0.642200  1
  C  C1747  1  0.864100  0.065100  0.857800  1
  C  C1748  1  0.864100  0.434900  0.142200  1
  C  C1749  1  0.635900  0.934900  0.642200  1
  C  C1750  1  0.635900  0.565100  0.357800  1
  C  C1751  1  0.135900  0.934900  0.142200  1
  C  C1752  1  0.135900  0.565100  0.857800  1
  C  C1753  1  0.353100  0.079400  0.329500  1
  C  C1754  1  0.353100  0.420600  0.670500  1
  C  C1755  1  0.853100  0.079400  0.829500  1
  C  C1756  1  0.853100  0.420600  0.170500  1
  C  C1757  1  0.646900  0.920600  0.670500  1
  C  C1758  1  0.646900  0.579400  0.329500  1
  C  C1759  1  0.146900  0.920600  0.170500  1
  C  C1760  1  0.146900  0.579400  0.829500  1
  C  C1761  1  0.324400  0.060400  0.305200  1
  C  C1762  1  0.324400  0.439600  0.694800  1
  C  C1763  1  0.824400  0.060400  0.805200  1
  C  C1764  1  0.824400  0.439600  0.194800  1
  C  C1765  1  0.675600  0.939600  0.694800  1
  C  C1766  1  0.675600  0.560400  0.305200  1
  C  C1767  1  0.175600  0.939600  0.194800  1
  C  C1768  1  0.175600  0.560400  0.805200  1
  C  C1769  1  0.310900  0.074700  0.279500  1
  C  C1770  1  0.310900  0.425300  0.720500  1
  C  C1771  1  0.810900  0.074700  0.779500  1
  C  C1772  1  0.810900  0.425300  0.220500  1
  C  C1773  1  0.689100  0.925300  0.720500  1
  C  C1774  1  0.689100  0.574700  0.279500  1
  C  C1775  1  0.189100  0.925300  0.220500  1
  C  C1776  1  0.189100  0.574700  0.779500  1
  C  C1777  1  0.326100  0.108000  0.278100  1
  C  C1778  1  0.326100  0.392000  0.721900  1
  C  C1779  1  0.826100  0.108000  0.778100  1
  C  C1780  1  0.826100  0.392000  0.221900  1
  C  C1781  1  0.673900  0.892000  0.721900  1
  C  C1782  1  0.673900  0.608000  0.278100  1
  C  C1783  1  0.173900  0.892000  0.221900  1
  C  C1784  1  0.173900  0.608000  0.778100  1
  C  C1785  1  0.354800  0.127000  0.302400  1
  C  C1786  1  0.354800  0.373000  0.697600  1
  C  C1787  1  0.854800  0.127000  0.802400  1
  C  C1788  1  0.854800  0.373000  0.197600  1
  C  C1789  1  0.645200  0.873000  0.697600  1
  C  C1790  1  0.645200  0.627000  0.302400  1
  C  C1791  1  0.145200  0.873000  0.197600  1
  C  C1792  1  0.145200  0.627000  0.802400  1
  C  C1793  1  0.270600  0.129500  0.237700  1
  C  C1794  1  0.270600  0.370500  0.762300  1
  C  C1795  1  0.770600  0.129500  0.737700  1
  C  C1796  1  0.770600  0.370500  0.262300  1
  C  C1797  1  0.729400  0.870500  0.762300  1
  C  C1798  1  0.729400  0.629500  0.237700  1
  C  C1799  1  0.229400  0.870500  0.262300  1
  C  C1800  1  0.229400  0.629500  0.737700  1
  C  C1801  1  0.321000  0.120900  0.247000  1
  C  C1802  1  0.321000  0.379100  0.753000  1
  C  C1803  1  0.821000  0.120900  0.747000  1
  C  C1804  1  0.821000  0.379100  0.253000  1
  C  C1805  1  0.679000  0.879100  0.753000  1
  C  C1806  1  0.679000  0.620900  0.247000  1
  C  C1807  1  0.179000  0.879100  0.253000  1
  C  C1808  1  0.179000  0.620900  0.747000  1
  C  C1809  1  0.365200  0.125200  0.229000  1
  C  C1810  1  0.365200  0.374800  0.771000  1
  C  C1811  1  0.865200  0.125200  0.729000  1
  C  C1812  1  0.865200  0.374800  0.271000  1
  C  C1813  1  0.634800  0.874800  0.771000  1
  C  C1814  1  0.634800  0.625200  0.229000  1
  C  C1815  1  0.134800  0.874800  0.271000  1
  C  C1816  1  0.134800  0.625200  0.729000  1
  C  C1817  1  0.359100  0.138100  0.201700  1
  C  C1818  1  0.359100  0.361900  0.798300  1
  C  C1819  1  0.859100  0.138100  0.701700  1
  C  C1820  1  0.859100  0.361900  0.298300  1
  C  C1821  1  0.640900  0.861900  0.798300  1
  C  C1822  1  0.640900  0.638100  0.201700  1
  C  C1823  1  0.140900  0.861900  0.298300  1
  C  C1824  1  0.140900  0.638100  0.701700  1
  C  C1825  1  0.308800  0.146800  0.192500  1
  C  C1826  1  0.308800  0.353200  0.807500  1
  C  C1827  1  0.808800  0.146800  0.692500  1
  C  C1828  1  0.808800  0.353200  0.307500  1
  C  C1829  1  0.691200  0.853200  0.807500  1
  C  C1830  1  0.691200  0.646800  0.192500  1
  C  C1831  1  0.191200  0.853200  0.307500  1
  C  C1832  1  0.191200  0.646800  0.692500  1
  C  C1833  1  0.290500  0.160300  0.166400  1
  C  C1834  1  0.290500  0.339700  0.833600  1
  C  C1835  1  0.790500  0.160300  0.666400  1
  C  C1836  1  0.790500  0.339700  0.333600  1
  C  C1837  1  0.709500  0.839700  0.833600  1
  C  C1838  1  0.709500  0.660300  0.166400  1
  C  C1839  1  0.209500  0.839700  0.333600  1
  C  C1840  1  0.209500  0.660300  0.666400  1
  C  C1841  1  0.230600  0.170500  0.129490  1
  C  C1842  1  0.230600  0.329500  0.870510  1
  C  C1843  1  0.730600  0.170500  0.629490  1
  C  C1844  1  0.730600  0.329500  0.370510  1
  C  C1845  1  0.769400  0.829500  0.870510  1
  C  C1846  1  0.769400  0.670500  0.129490  1
  C  C1847  1  0.269400  0.829500  0.370510  1
  C  C1848  1  0.269400  0.670500  0.629490  1
  C  C1849  1  0.259400  0.158400  0.102430  1
  C  C1850  1  0.259400  0.341600  0.897570  1
  C  C1851  1  0.759400  0.158400  0.602430  1
  C  C1852  1  0.759400  0.341600  0.397570  1
  C  C1853  1  0.740600  0.841600  0.897570  1
  C  C1854  1  0.740600  0.658400  0.102430  1
  C  C1855  1  0.240600  0.841600  0.397570  1
  C  C1856  1  0.240600  0.658400  0.602430  1
  C  C1857  1  0.249300  0.171400  0.075370  1
  C  C1858  1  0.249300  0.328600  0.924630  1
  C  C1859  1  0.749300  0.171400  0.575370  1
  C  C1860  1  0.749300  0.328600  0.424630  1
  C  C1861  1  0.750700  0.828600  0.924630  1
  C  C1862  1  0.750700  0.671400  0.075370  1
  C  C1863  1  0.250700  0.828600  0.424630  1
  C  C1864  1  0.250700  0.671400  0.575370  1
  C  C1865  1  0.210500  0.196600  0.074710  1
  C  C1866  1  0.210500  0.303400  0.925290  1
  C  C1867  1  0.710500  0.196600  0.574710  1
  C  C1868  1  0.710500  0.303400  0.425290  1
  C  C1869  1  0.789500  0.803400  0.925290  1
  C  C1870  1  0.789500  0.696600  0.074710  1
  C  C1871  1  0.289500  0.803400  0.425290  1
  C  C1872  1  0.289500  0.696600  0.574710  1
  C  C1873  1  0.182100  0.208500  0.102100  1
  C  C1874  1  0.182100  0.291500  0.897900  1
  C  C1875  1  0.682100  0.208500  0.602100  1
  C  C1876  1  0.682100  0.291500  0.397900  1
  C  C1877  1  0.817900  0.791500  0.897900  1
  C  C1878  1  0.817900  0.708500  0.102100  1
  C  C1879  1  0.317900  0.791500  0.397900  1
  C  C1880  1  0.317900  0.708500  0.602100  1
  C  C1881  1  0.191900  0.195600  0.129230  1
  C  C1882  1  0.191900  0.304400  0.870770  1
  C  C1883  1  0.691900  0.195600  0.629230  1
  C  C1884  1  0.691900  0.304400  0.370770  1
  C  C1885  1  0.808100  0.804400  0.870770  1
  C  C1886  1  0.808100  0.695600  0.129230  1
  C  C1887  1  0.308100  0.804400  0.370770  1
  C  C1888  1  0.308100  0.695600  0.629230  1
  C  C1889  1  0.198800  0.209900  0.045300  1
  C  C1890  1  0.198800  0.290100  0.954700  1
  C  C1891  1  0.698800  0.209900  0.545300  1
  C  C1892  1  0.698800  0.290100  0.454700  1
  C  C1893  1  0.801200  0.790100  0.954700  1
  C  C1894  1  0.801200  0.709900  0.045300  1
  C  C1895  1  0.301200  0.790100  0.454700  1
  C  C1896  1  0.301200  0.709900  0.545300  1
  C  C1897  1  0.472400  0.166200  0.430320  1
  C  C1898  1  0.472400  0.333800  0.569680  1
  C  C1899  1  0.972400  0.166200  0.930320  1
  C  C1900  1  0.972400  0.333800  0.069680  1
  C  C1901  1  0.527600  0.833800  0.569680  1
  C  C1902  1  0.527600  0.666200  0.430320  1
  C  C1903  1  0.027600  0.833800  0.069680  1
  C  C1904  1  0.027600  0.666200  0.930320  1
  C  C1905  1  0.491400  0.155600  0.457080  1
  C  C1906  1  0.491400  0.344400  0.542920  1
  C  C1907  1  0.991400  0.155600  0.957080  1
  C  C1908  1  0.991400  0.344400  0.042920  1
  C  C1909  1  0.508600  0.844400  0.542920  1
  C  C1910  1  0.508600  0.655600  0.457080  1
  C  C1911  1  0.008600  0.844400  0.042920  1
  C  C1912  1  0.008600  0.655600  0.957080  1
  C  C1913  1  0.540600  0.167200  0.469520  1
  C  C1914  1  0.540600  0.332800  0.530480  1
  C  C1915  1  0.040600  0.167200  0.969520  1
  C  C1916  1  0.040600  0.332800  0.030480  1
  C  C1917  1  0.459400  0.832800  0.530480  1
  C  C1918  1  0.459400  0.667200  0.469520  1
  C  C1919  1  0.959400  0.832800  0.030480  1
  C  C1920  1  0.959400  0.667200  0.969520  1
  C  C1921  1  0.571900  0.189400  0.455550  1
  C  C1922  1  0.571900  0.310600  0.544450  1
  C  C1923  1  0.071900  0.189400  0.955550  1
  C  C1924  1  0.071900  0.310600  0.044450  1
  C  C1925  1  0.428100  0.810600  0.544450  1
  C  C1926  1  0.428100  0.689400  0.455550  1
  C  C1927  1  0.928100  0.810600  0.044450  1
  C  C1928  1  0.928100  0.689400  0.955550  1
  C  C1929  1  0.552200  0.199900  0.428750  1
  C  C1930  1  0.552200  0.300100  0.571250  1
  C  C1931  1  0.052200  0.199900  0.928750  1
  C  C1932  1  0.052200  0.300100  0.071250  1
  C  C1933  1  0.447800  0.800100  0.571250  1
  C  C1934  1  0.447800  0.699900  0.428750  1
  C  C1935  1  0.947800  0.800100  0.071250  1
  C  C1936  1  0.947800  0.699900  0.928750  1
  C  C1937  1  0.503000  0.188420  0.416190  1
  C  C1938  1  0.503000  0.311580  0.583810  1
  C  C1939  1  0.003000  0.188420  0.916190  1
  C  C1940  1  0.003000  0.311580  0.083810  1
  C  C1941  1  0.497000  0.811580  0.583810  1
  C  C1942  1  0.497000  0.688420  0.416190  1
  C  C1943  1  0.997000  0.811580  0.083810  1
  C  C1944  1  0.997000  0.688420  0.916190  1
  C  C1945  1  0.625700  0.201200  0.468580  1
  C  C1946  1  0.625700  0.298800  0.531420  1
  C  C1947  1  0.125700  0.201200  0.968580  1
  C  C1948  1  0.125700  0.298800  0.031420  1
  C  C1949  1  0.374300  0.798800  0.531420  1
  C  C1950  1  0.374300  0.701200  0.468580  1
  C  C1951  1  0.874300  0.798800  0.031420  1
  C  C1952  1  0.874300  0.701200  0.968580  1
  C  C1953  1  0.384100  0.158900  0.437500  1
  C  C1954  1  0.384100  0.341100  0.562500  1
  C  C1955  1  0.884100  0.158900  0.937500  1
  C  C1956  1  0.884100  0.341100  0.062500  1
  C  C1957  1  0.615900  0.841100  0.562500  1
  C  C1958  1  0.615900  0.658900  0.437500  1
  C  C1959  1  0.115900  0.841100  0.062500  1
  C  C1960  1  0.115900  0.658900  0.937500  1
  C  C1961  1  0.328800  0.148400  0.426700  1
  C  C1962  1  0.328800  0.351600  0.573300  1
  C  C1963  1  0.828800  0.148400  0.926700  1
  C  C1964  1  0.828800  0.351600  0.073300  1
  C  C1965  1  0.671200  0.851600  0.573300  1
  C  C1966  1  0.671200  0.648400  0.426700  1
  C  C1967  1  0.171200  0.851600  0.073300  1
  C  C1968  1  0.171200  0.648400  0.926700  1
  C  C1969  1  0.288500  0.148600  0.446200  1
  C  C1970  1  0.288500  0.351400  0.553800  1
  C  C1971  1  0.788500  0.148600  0.946200  1
  C  C1972  1  0.788500  0.351400  0.053800  1
  C  C1973  1  0.711500  0.851400  0.553800  1
  C  C1974  1  0.711500  0.648600  0.446200  1
  C  C1975  1  0.211500  0.851400  0.053800  1
  C  C1976  1  0.211500  0.648600  0.946200  1
  C  C1977  1  0.239400  0.137500  0.433700  1
  C  C1978  1  0.239400  0.362500  0.566300  1
  C  C1979  1  0.739400  0.137500  0.933700  1
  C  C1980  1  0.739400  0.362500  0.066300  1
  C  C1981  1  0.760600  0.862500  0.566300  1
  C  C1982  1  0.760600  0.637500  0.433700  1
  C  C1983  1  0.260600  0.862500  0.066300  1
  C  C1984  1  0.260600  0.637500  0.933700  1
  C  C1985  1  0.234000  0.123100  0.403800  1
  C  C1986  1  0.234000  0.376900  0.596200  1
  C  C1987  1  0.734000  0.123100  0.903800  1
  C  C1988  1  0.734000  0.376900  0.096200  1
  C  C1989  1  0.766000  0.876900  0.596200  1
  C  C1990  1  0.766000  0.623100  0.403800  1
  C  C1991  1  0.266000  0.876900  0.096200  1
  C  C1992  1  0.266000  0.623100  0.903800  1
  C  C1993  1  0.136300  0.126600  0.394000  1
  C  C1994  1  0.136300  0.373400  0.606000  1
  C  C1995  1  0.636300  0.126600  0.894000  1
  C  C1996  1  0.636300  0.373400  0.106000  1
  C  C1997  1  0.863700  0.873400  0.606000  1
  C  C1998  1  0.863700  0.626600  0.394000  1
  C  C1999  1  0.363700  0.873400  0.106000  1
  C  C2000  1  0.363700  0.626600  0.894000  1
  C  C2001  1  0.182100  0.107700  0.391300  1
  C  C2002  1  0.182100  0.392300  0.608700  1
  C  C2003  1  0.682100  0.107700  0.891300  1
  C  C2004  1  0.682100  0.392300  0.108700  1
  C  C2005  1  0.817900  0.892300  0.608700  1
  C  C2006  1  0.817900  0.607700  0.391300  1
  C  C2007  1  0.317900  0.892300  0.108700  1
  C  C2008  1  0.317900  0.607700  0.891300  1
  C  C2009  1  0.178500  0.073400  0.380100  1
  C  C2010  1  0.178500  0.426600  0.619900  1
  C  C2011  1  0.678500  0.073400  0.880100  1
  C  C2012  1  0.678500  0.426600  0.119900  1
  C  C2013  1  0.821500  0.926600  0.619900  1
  C  C2014  1  0.821500  0.573400  0.380100  1
  C  C2015  1  0.321500  0.926600  0.119900  1
  C  C2016  1  0.321500  0.573400  0.880100  1
  C  C2017  1  0.128300  0.057700  0.370900  1
  C  C2018  1  0.128300  0.442300  0.629100  1
  C  C2019  1  0.628300  0.057700  0.870900  1
  C  C2020  1  0.628300  0.442300  0.129100  1
  C  C2021  1  0.871700  0.942300  0.629100  1
  C  C2022  1  0.871700  0.557700  0.370900  1
  C  C2023  1  0.371700  0.942300  0.129100  1
  C  C2024  1  0.371700  0.557700  0.870900  1
  C  C2025  1  0.084500  0.078100  0.375900  1
  C  C2026  1  0.084500  0.421900  0.624100  1
  C  C2027  1  0.584500  0.078100  0.875900  1
  C  C2028  1  0.584500  0.421900  0.124100  1
  C  C2029  1  0.915500  0.921900  0.624100  1
  C  C2030  1  0.915500  0.578100  0.375900  1
  C  C2031  1  0.415500  0.921900  0.124100  1
  C  C2032  1  0.415500  0.578100  0.875900  1
  C  C2033  1  0.032700  0.063900  0.371400  1
  C  C2034  1  0.032700  0.436100  0.628600  1
  C  C2035  1  0.532700  0.063900  0.871400  1
  C  C2036  1  0.532700  0.436100  0.128600  1
  C  C2037  1  0.967300  0.936100  0.628600  1
  C  C2038  1  0.967300  0.563900  0.371400  1
  C  C2039  1  0.467300  0.936100  0.128600  1
  C  C2040  1  0.467300  0.563900  0.871400  1
  C  C2041  1  0.942100  0.067800  0.373300  1
  C  C2042  1  0.942100  0.432200  0.626700  1
  C  C2043  1  0.442100  0.067800  0.873300  1
  C  C2044  1  0.442100  0.432200  0.126700  1
  C  C2045  1  0.057900  0.932200  0.626700  1
  C  C2046  1  0.057900  0.567800  0.373300  1
  C  C2047  1  0.557900  0.932200  0.126700  1
  C  C2048  1  0.557900  0.567800  0.873300  1
  C  C2049  1  0.901600  0.079600  0.355990  1
  C  C2050  1  0.901600  0.420400  0.644010  1
  C  C2051  1  0.401600  0.079600  0.855990  1
  C  C2052  1  0.401600  0.420400  0.144010  1
  C  C2053  1  0.098400  0.920400  0.644010  1
  C  C2054  1  0.098400  0.579600  0.355990  1
  C  C2055  1  0.598400  0.920400  0.144010  1
  C  C2056  1  0.598400  0.579600  0.855990  1
  C  C2057  1  0.850500  0.065800  0.355900  1
  C  C2058  1  0.850500  0.434200  0.644100  1
  C  C2059  1  0.350500  0.065800  0.855900  1
  C  C2060  1  0.350500  0.434200  0.144100  1
  C  C2061  1  0.149500  0.934200  0.644100  1
  C  C2062  1  0.149500  0.565800  0.355900  1
  C  C2063  1  0.649500  0.934200  0.144100  1
  C  C2064  1  0.649500  0.565800  0.855900  1
  C  C2065  1  0.838700  0.040100  0.373000  1
  C  C2066  1  0.838700  0.459900  0.627000  1
  C  C2067  1  0.338700  0.040100  0.873000  1
  C  C2068  1  0.338700  0.459900  0.127000  1
  C  C2069  1  0.161300  0.959900  0.627000  1
  C  C2070  1  0.161300  0.540100  0.373000  1
  C  C2071  1  0.661300  0.959900  0.127000  1
  C  C2072  1  0.661300  0.540100  0.873000  1
  C  C2073  1  0.879700  0.028640  0.390300  1
  C  C2074  1  0.879700  0.471360  0.609700  1
  C  C2075  1  0.379700  0.028640  0.890300  1
  C  C2076  1  0.379700  0.471360  0.109700  1
  C  C2077  1  0.120300  0.971360  0.609700  1
  C  C2078  1  0.120300  0.528640  0.390300  1
  C  C2079  1  0.620300  0.971360  0.109700  1
  C  C2080  1  0.620300  0.528640  0.890300  1
  C  C2081  1  0.930900  0.042300  0.390500  1
  C  C2082  1  0.930900  0.457700  0.609500  1
  C  C2083  1  0.430900  0.042300  0.890500  1
  C  C2084  1  0.430900  0.457700  0.109500  1
  C  C2085  1  0.069100  0.957700  0.609500  1
  C  C2086  1  0.069100  0.542300  0.390500  1
  C  C2087  1  0.569100  0.957700  0.109500  1
  C  C2088  1  0.569100  0.542300  0.890500  1
  C  C2089  1  0.783700  0.024700  0.372300  1
  C  C2090  1  0.783700  0.475300  0.627700  1
  C  C2091  1  0.283700  0.024700  0.872300  1
  C  C2092  1  0.283700  0.475300  0.127700  1
  C  C2093  1  0.216300  0.975300  0.627700  1
  C  C2094  1  0.216300  0.524700  0.372300  1
  C  C2095  1  0.716300  0.975300  0.127700  1
  C  C2096  1  0.716300  0.524700  0.872300  1
  C  C2097  1  0.898500  0.169320  0.401000  1
  C  C2098  1  0.898500  0.330680  0.599000  1
  C  C2099  1  0.398500  0.169320  0.901000  1
  C  C2100  1  0.398500  0.330680  0.099000  1
  C  C2101  1  0.101500  0.830680  0.599000  1
  C  C2102  1  0.101500  0.669320  0.401000  1
  C  C2103  1  0.601500  0.830680  0.099000  1
  C  C2104  1  0.601500  0.669320  0.901000  1
  C  C2105  1  0.910100  0.192000  0.428400  1
  C  C2106  1  0.910100  0.308000  0.571600  1
  C  C2107  1  0.410100  0.192000  0.928400  1
  C  C2108  1  0.410100  0.308000  0.071600  1
  C  C2109  1  0.089900  0.808000  0.571600  1
  C  C2110  1  0.089900  0.692000  0.428400  1
  C  C2111  1  0.589900  0.808000  0.071600  1
  C  C2112  1  0.589900  0.692000  0.928400  1
  C  C2113  1  0.869800  0.202950  0.449900  1
  C  C2114  1  0.869800  0.297050  0.550100  1
  C  C2115  1  0.369800  0.202950  0.949900  1
  C  C2116  1  0.369800  0.297050  0.050100  1
  C  C2117  1  0.130200  0.797050  0.550100  1
  C  C2118  1  0.130200  0.702950  0.449900  1
  C  C2119  1  0.630200  0.797050  0.050100  1
  C  C2120  1  0.630200  0.702950  0.949900  1
  C  C2121  1  0.817200  0.191600  0.444400  1
  C  C2122  1  0.817200  0.308400  0.555600  1
  C  C2123  1  0.317200  0.191600  0.944400  1
  C  C2124  1  0.317200  0.308400  0.055600  1
  C  C2125  1  0.182800  0.808400  0.555600  1
  C  C2126  1  0.182800  0.691600  0.444400  1
  C  C2127  1  0.682800  0.808400  0.055600  1
  C  C2128  1  0.682800  0.691600  0.944400  1
  C  C2129  1  0.806200  0.168700  0.416900  1
  C  C2130  1  0.806200  0.331300  0.583100  1
  C  C2131  1  0.306200  0.168700  0.916900  1
  C  C2132  1  0.306200  0.331300  0.083100  1
  C  C2133  1  0.193800  0.831300  0.583100  1
  C  C2134  1  0.193800  0.668700  0.416900  1
  C  C2135  1  0.693800  0.831300  0.083100  1
  C  C2136  1  0.693800  0.668700  0.916900  1
  C  C2137  1  0.846400  0.157680  0.395340  1
  C  C2138  1  0.846400  0.342320  0.604660  1
  C  C2139  1  0.346400  0.157680  0.895340  1
  C  C2140  1  0.346400  0.342320  0.104660  1
  C  C2141  1  0.153600  0.842320  0.604660  1
  C  C2142  1  0.153600  0.657680  0.395340  1
  C  C2143  1  0.653600  0.842320  0.104660  1
  C  C2144  1  0.653600  0.657680  0.895340  1
  C  C2145  1  0.773600  0.204100  0.467300  1
  C  C2146  1  0.773600  0.295900  0.532700  1
  C  C2147  1  0.273600  0.204100  0.967300  1
  C  C2148  1  0.273600  0.295900  0.032700  1
  C  C2149  1  0.226400  0.795900  0.532700  1
  C  C2150  1  0.226400  0.704100  0.467300  1
  C  C2151  1  0.726400  0.795900  0.032700  1
  C  C2152  1  0.726400  0.704100  0.967300  1
  C  C2153  1  0.928900  0.161600  0.350300  1
  C  C2154  1  0.928900  0.338400  0.649700  1
  C  C2155  1  0.428900  0.161600  0.850300  1
  C  C2156  1  0.428900  0.338400  0.149700  1
  C  C2157  1  0.071100  0.838400  0.649700  1
  C  C2158  1  0.071100  0.661600  0.350300  1
  C  C2159  1  0.571100  0.838400  0.149700  1
  C  C2160  1  0.571100  0.661600  0.850300  1
  C  C2161  1  0.968400  0.150000  0.326800  1
  C  C2162  1  0.968400  0.350000  0.673200  1
  C  C2163  1  0.468400  0.150000  0.826800  1
  C  C2164  1  0.468400  0.350000  0.173200  1
  C  C2165  1  0.031600  0.850000  0.673200  1
  C  C2166  1  0.031600  0.650000  0.326800  1
  C  C2167  1  0.531600  0.850000  0.173200  1
  C  C2168  1  0.531600  0.650000  0.826800  1
  C  C2169  1  0.962000  0.150900  0.295300  1
  C  C2170  1  0.962000  0.349100  0.704700  1
  C  C2171  1  0.462000  0.150900  0.795300  1
  C  C2172  1  0.462000  0.349100  0.204700  1
  C  C2173  1  0.038000  0.849100  0.704700  1
  C  C2174  1  0.038000  0.650900  0.295300  1
  C  C2175  1  0.538000  0.849100  0.204700  1
  C  C2176  1  0.538000  0.650900  0.795300  1
  C  C2177  1  0.001800  0.138100  0.274360  1
  C  C2178  1  0.001800  0.361900  0.725640  1
  C  C2179  1  0.501800  0.138100  0.774360  1
  C  C2180  1  0.501800  0.361900  0.225640  1
  C  C2181  1  0.998200  0.861900  0.725640  1
  C  C2182  1  0.998200  0.638100  0.274360  1
  C  C2183  1  0.498200  0.861900  0.225640  1
  C  C2184  1  0.498200  0.638100  0.774360  1
  C  C2185  1  0.047900  0.124400  0.284800  1
  C  C2186  1  0.047900  0.375600  0.715200  1
  C  C2187  1  0.547900  0.124400  0.784800  1
  C  C2188  1  0.547900  0.375600  0.215200  1
  C  C2189  1  0.952100  0.875600  0.715200  1
  C  C2190  1  0.952100  0.624400  0.284800  1
  C  C2191  1  0.452100  0.875600  0.215200  1
  C  C2192  1  0.452100  0.624400  0.784800  1
  C  C2193  1  0.054200  0.123600  0.316200  1
  C  C2194  1  0.054200  0.376400  0.683800  1
  C  C2195  1  0.554200  0.123600  0.816200  1
  C  C2196  1  0.554200  0.376400  0.183800  1
  C  C2197  1  0.945800  0.876400  0.683800  1
  C  C2198  1  0.945800  0.623600  0.316200  1
  C  C2199  1  0.445800  0.876400  0.183800  1
  C  C2200  1  0.445800  0.623600  0.816200  1
  C  C2201  1  0.112000  0.128000  0.241900  1
  C  C2202  1  0.112000  0.372000  0.758100  1
  C  C2203  1  0.612000  0.128000  0.741900  1
  C  C2204  1  0.612000  0.372000  0.258100  1
  C  C2205  1  0.888000  0.872000  0.758100  1
  C  C2206  1  0.888000  0.628000  0.241900  1
  C  C2207  1  0.388000  0.872000  0.258100  1
  C  C2208  1  0.388000  0.628000  0.741900  1
  C  C2209  1  0.089500  0.110200  0.262000  1
  C  C2210  1  0.089500  0.389800  0.738000  1
  C  C2211  1  0.589500  0.110200  0.762000  1
  C  C2212  1  0.589500  0.389800  0.238000  1
  C  C2213  1  0.910500  0.889800  0.738000  1
  C  C2214  1  0.910500  0.610200  0.262000  1
  C  C2215  1  0.410500  0.889800  0.238000  1
  C  C2216  1  0.410500  0.610200  0.762000  1
  C  C2217  1  0.105500  0.077100  0.261100  1
  C  C2218  1  0.105500  0.422900  0.738900  1
  C  C2219  1  0.605500  0.077100  0.761100  1
  C  C2220  1  0.605500  0.422900  0.238900  1
  C  C2221  1  0.894500  0.922900  0.738900  1
  C  C2222  1  0.894500  0.577100  0.261100  1
  C  C2223  1  0.394500  0.922900  0.238900  1
  C  C2224  1  0.394500  0.577100  0.761100  1
  C  C2225  1  0.139700  0.062400  0.237500  1
  C  C2226  1  0.139700  0.437600  0.762500  1
  C  C2227  1  0.639700  0.062400  0.737500  1
  C  C2228  1  0.639700  0.437600  0.262500  1
  C  C2229  1  0.860300  0.937600  0.762500  1
  C  C2230  1  0.860300  0.562400  0.237500  1
  C  C2231  1  0.360300  0.937600  0.262500  1
  C  C2232  1  0.360300  0.562400  0.737500  1
  C  C2233  1  0.157100  0.080900  0.215900  1
  C  C2234  1  0.157100  0.419100  0.784100  1
  C  C2235  1  0.657100  0.080900  0.715900  1
  C  C2236  1  0.657100  0.419100  0.284100  1
  C  C2237  1  0.842900  0.919100  0.784100  1
  C  C2238  1  0.842900  0.580900  0.215900  1
  C  C2239  1  0.342900  0.919100  0.284100  1
  C  C2240  1  0.342900  0.580900  0.715900  1
  C  C2241  1  0.189600  0.066000  0.189200  1
  C  C2242  1  0.189600  0.434000  0.810800  1
  C  C2243  1  0.689600  0.066000  0.689200  1
  C  C2244  1  0.689600  0.434000  0.310800  1
  C  C2245  1  0.810400  0.934000  0.810800  1
  C  C2246  1  0.810400  0.566000  0.189200  1
  C  C2247  1  0.310400  0.934000  0.310800  1
  C  C2248  1  0.310400  0.566000  0.689200  1
  C  C2249  1  0.237100  0.076900  0.144600  1
  C  C2250  1  0.237100  0.423100  0.855400  1
  C  C2251  1  0.737100  0.076900  0.644600  1
  C  C2252  1  0.737100  0.423100  0.355400  1
  C  C2253  1  0.762900  0.923100  0.855400  1
  C  C2254  1  0.762900  0.576900  0.144600  1
  C  C2255  1  0.262900  0.923100  0.355400  1
  C  C2256  1  0.262900  0.576900  0.644600  1
  C  C2257  1  0.279300  0.054000  0.143700  1
  C  C2258  1  0.279300  0.446000  0.856300  1
  C  C2259  1  0.779300  0.054000  0.643700  1
  C  C2260  1  0.779300  0.446000  0.356300  1
  C  C2261  1  0.720700  0.946000  0.856300  1
  C  C2262  1  0.720700  0.554000  0.143700  1
  C  C2263  1  0.220700  0.946000  0.356300  1
  C  C2264  1  0.220700  0.554000  0.643700  1
  C  C2265  1  0.304400  0.041100  0.115600  1
  C  C2266  1  0.304400  0.458900  0.884400  1
  C  C2267  1  0.804400  0.041100  0.615600  1
  C  C2268  1  0.804400  0.458900  0.384400  1
  C  C2269  1  0.695600  0.958900  0.884400  1
  C  C2270  1  0.695600  0.541100  0.115600  1
  C  C2271  1  0.195600  0.958900  0.384400  1
  C  C2272  1  0.195600  0.541100  0.615600  1
  C  C2273  1  0.287900  0.050700  0.087800  1
  C  C2274  1  0.287900  0.449300  0.912200  1
  C  C2275  1  0.787900  0.050700  0.587800  1
  C  C2276  1  0.787900  0.449300  0.412200  1
  C  C2277  1  0.712100  0.949300  0.912200  1
  C  C2278  1  0.712100  0.550700  0.087800  1
  C  C2279  1  0.212100  0.949300  0.412200  1
  C  C2280  1  0.212100  0.550700  0.587800  1
  C  C2281  1  0.245500  0.073800  0.089000  1
  C  C2282  1  0.245500  0.426200  0.911000  1
  C  C2283  1  0.745500  0.073800  0.589000  1
  C  C2284  1  0.745500  0.426200  0.411000  1
  C  C2285  1  0.754500  0.926200  0.911000  1
  C  C2286  1  0.754500  0.573800  0.089000  1
  C  C2287  1  0.254500  0.926200  0.411000  1
  C  C2288  1  0.254500  0.573800  0.589000  1
  C  C2289  1  0.220200  0.086800  0.117100  1
  C  C2290  1  0.220200  0.413200  0.882900  1
  C  C2291  1  0.720200  0.086800  0.617100  1
  C  C2292  1  0.720200  0.413200  0.382900  1
  C  C2293  1  0.779800  0.913200  0.882900  1
  C  C2294  1  0.779800  0.586800  0.117100  1
  C  C2295  1  0.279800  0.913200  0.382900  1
  C  C2296  1  0.279800  0.586800  0.617100  1
  C  C2297  1  0.314200  0.036100  0.057400  1
  C  C2298  1  0.314200  0.463900  0.942600  1
  C  C2299  1  0.814200  0.036100  0.557400  1
  C  C2300  1  0.814200  0.463900  0.442600  1
  C  C2301  1  0.685800  0.963900  0.942600  1
  C  C2302  1  0.685800  0.536100  0.057400  1
  C  C2303  1  0.185800  0.963900  0.442600  1
  C  C2304  1  0.185800  0.536100  0.557400  1
  C  C2305  1  0.090400  0.125000  0.139600  1
  C  C2306  1  0.090400  0.375000  0.860400  1
  C  C2307  1  0.590400  0.125000  0.639600  1
  C  C2308  1  0.590400  0.375000  0.360400  1
  C  C2309  1  0.909600  0.875000  0.860400  1
  C  C2310  1  0.909600  0.625000  0.139600  1
  C  C2311  1  0.409600  0.875000  0.360400  1
  C  C2312  1  0.409600  0.625000  0.639600  1
  C  C2313  1  0.085500  0.090200  0.140600  1
  C  C2314  1  0.085500  0.409800  0.859400  1
  C  C2315  1  0.585500  0.090200  0.640600  1
  C  C2316  1  0.585500  0.409800  0.359400  1
  C  C2317  1  0.914500  0.909800  0.859400  1
  C  C2318  1  0.914500  0.590200  0.140600  1
  C  C2319  1  0.414500  0.909800  0.359400  1
  C  C2320  1  0.414500  0.590200  0.640600  1
  C  C2321  1  0.063900  0.067900  0.115400  1
  C  C2322  1  0.063900  0.432100  0.884600  1
  C  C2323  1  0.563900  0.067900  0.615400  1
  C  C2324  1  0.563900  0.432100  0.384600  1
  C  C2325  1  0.936100  0.932100  0.884600  1
  C  C2326  1  0.936100  0.567900  0.115400  1
  C  C2327  1  0.436100  0.932100  0.384600  1
  C  C2328  1  0.436100  0.567900  0.615400  1
  C  C2329  1  0.046600  0.079900  0.088700  1
  C  C2330  1  0.046600  0.420100  0.911300  1
  C  C2331  1  0.546600  0.079900  0.588700  1
  C  C2332  1  0.546600  0.420100  0.411300  1
  C  C2333  1  0.953400  0.920100  0.911300  1
  C  C2334  1  0.953400  0.579900  0.088700  1
  C  C2335  1  0.453400  0.920100  0.411300  1
  C  C2336  1  0.453400  0.579900  0.588700  1
  C  C2337  1  0.052000  0.114800  0.088100  1
  C  C2338  1  0.052000  0.385200  0.911900  1
  C  C2339  1  0.552000  0.114800  0.588100  1
  C  C2340  1  0.552000  0.385200  0.411900  1
  C  C2341  1  0.948000  0.885200  0.911900  1
  C  C2342  1  0.948000  0.614800  0.088100  1
  C  C2343  1  0.448000  0.885200  0.411900  1
  C  C2344  1  0.448000  0.614800  0.588100  1
  C  C2345  1  0.073600  0.137200  0.113200  1
  C  C2346  1  0.073600  0.362800  0.886800  1
  C  C2347  1  0.573600  0.137200  0.613200  1
  C  C2348  1  0.573600  0.362800  0.386800  1
  C  C2349  1  0.926400  0.862800  0.886800  1
  C  C2350  1  0.926400  0.637200  0.113200  1
  C  C2351  1  0.426400  0.862800  0.386800  1
  C  C2352  1  0.426400  0.637200  0.613200  1
  C  C2353  1  0.022100  0.055900  0.061800  1
  C  C2354  1  0.022100  0.444100  0.938200  1
  C  C2355  1  0.522100  0.055900  0.561800  1
  C  C2356  1  0.522100  0.444100  0.438200  1
  C  C2357  1  0.977900  0.944100  0.938200  1
  C  C2358  1  0.977900  0.555900  0.061800  1
  C  C2359  1  0.477900  0.944100  0.438200  1
  C  C2360  1  0.477900  0.555900  0.561800  1
  C  C2361  1  0.091600  0.173300  0.175500  1
  C  C2362  1  0.091600  0.326700  0.824500  1
  C  C2363  1  0.591600  0.173300  0.675500  1
  C  C2364  1  0.591600  0.326700  0.324500  1
  C  C2365  1  0.908400  0.826700  0.824500  1
  C  C2366  1  0.908400  0.673300  0.175500  1
  C  C2367  1  0.408400  0.826700  0.324500  1
  C  C2368  1  0.408400  0.673300  0.675500  1
  C  C2369  1  0.117200  0.198800  0.200200  1
  C  C2370  1  0.117200  0.301200  0.799800  1
  C  C2371  1  0.617200  0.198800  0.700200  1
  C  C2372  1  0.617200  0.301200  0.299800  1
  C  C2373  1  0.882800  0.801200  0.799800  1
  C  C2374  1  0.882800  0.698800  0.200200  1
  C  C2375  1  0.382800  0.801200  0.299800  1
  C  C2376  1  0.382800  0.698800  0.700200  1
  C  C2377  1  0.094100  0.227400  0.212300  1
  C  C2378  1  0.094100  0.272600  0.787700  1
  C  C2379  1  0.594100  0.227400  0.712300  1
  C  C2380  1  0.594100  0.272600  0.287700  1
  C  C2381  1  0.905900  0.772600  0.787700  1
  C  C2382  1  0.905900  0.727400  0.212300  1
  C  C2383  1  0.405900  0.772600  0.287700  1
  C  C2384  1  0.405900  0.727400  0.712300  1
  C  C2385  1  0.123300  0.252500  0.234400  1
  C  C2386  1  0.123300  0.247500  0.765600  1
  C  C2387  1  0.623300  0.252500  0.734400  1
  C  C2388  1  0.623300  0.247500  0.265600  1
  C  C2389  1  0.876700  0.747500  0.765600  1
  C  C2390  1  0.876700  0.752500  0.234400  1
  C  C2391  1  0.376700  0.747500  0.265600  1
  C  C2392  1  0.376700  0.752500  0.734400  1
  C  C2393  1  0.175400  0.245200  0.240300  1
  C  C2394  1  0.175400  0.254800  0.759700  1
  C  C2395  1  0.675400  0.245200  0.740300  1
  C  C2396  1  0.675400  0.254800  0.259700  1
  C  C2397  1  0.824600  0.754800  0.759700  1
  C  C2398  1  0.824600  0.745200  0.240300  1
  C  C2399  1  0.324600  0.754800  0.259700  1
  C  C2400  1  0.324600  0.745200  0.740300  1
  C  C2401  1  0.194400  0.213600  0.228000  1
  C  C2402  1  0.194400  0.286400  0.772000  1
  C  C2403  1  0.694400  0.213600  0.728000  1
  C  C2404  1  0.694400  0.286400  0.272000  1
  C  C2405  1  0.805600  0.786400  0.772000  1
  C  C2406  1  0.805600  0.713600  0.228000  1
  C  C2407  1  0.305600  0.786400  0.272000  1
  C  C2408  1  0.305600  0.713600  0.728000  1
  C  C2409  1  0.193000  0.288100  0.287600  1
  C  C2410  1  0.193000  0.211900  0.712400  1
  C  C2411  1  0.693000  0.288100  0.787600  1
  C  C2412  1  0.693000  0.211900  0.212400  1
  C  C2413  1  0.807000  0.711900  0.712400  1
  C  C2414  1  0.807000  0.788100  0.287600  1
  C  C2415  1  0.307000  0.711900  0.212400  1
  C  C2416  1  0.307000  0.788100  0.787600  1
  C  C2417  1  0.208500  0.270700  0.258300  1
  C  C2418  1  0.208500  0.229300  0.741700  1
  C  C2419  1  0.708500  0.270700  0.758300  1
  C  C2420  1  0.708500  0.229300  0.241700  1
  C  C2421  1  0.791500  0.729300  0.741700  1
  C  C2422  1  0.791500  0.770700  0.258300  1
  C  C2423  1  0.291500  0.729300  0.241700  1
  C  C2424  1  0.291500  0.770700  0.758300  1
  C  C2425  1  0.258800  0.280400  0.247500  1
  C  C2426  1  0.258800  0.219600  0.752500  1
  C  C2427  1  0.758800  0.280400  0.747500  1
  C  C2428  1  0.758800  0.219600  0.252500  1
  C  C2429  1  0.741200  0.719600  0.752500  1
  C  C2430  1  0.741200  0.780400  0.247500  1
  C  C2431  1  0.241200  0.719600  0.252500  1
  C  C2432  1  0.241200  0.780400  0.747500  1
  C  C2433  1  0.285700  0.307400  0.264400  1
  C  C2434  1  0.285700  0.192600  0.735600  1
  C  C2435  1  0.785700  0.307400  0.764400  1
  C  C2436  1  0.785700  0.192600  0.235600  1
  C  C2437  1  0.714300  0.692600  0.735600  1
  C  C2438  1  0.714300  0.807400  0.264400  1
  C  C2439  1  0.214300  0.692600  0.235600  1
  C  C2440  1  0.214300  0.807400  0.764400  1
  C  C2441  1  0.289600  0.352700  0.309600  1
  C  C2442  1  0.289600  0.147300  0.690400  1
  C  C2443  1  0.789600  0.352700  0.809600  1
  C  C2444  1  0.789600  0.147300  0.190400  1
  C  C2445  1  0.710400  0.647300  0.690400  1
  C  C2446  1  0.710400  0.852700  0.309600  1
  C  C2447  1  0.210400  0.647300  0.190400  1
  C  C2448  1  0.210400  0.852700  0.809600  1
  C  C2449  1  0.265700  0.324000  0.291900  1
  C  C2450  1  0.265700  0.176000  0.708100  1
  C  C2451  1  0.765700  0.324000  0.791900  1
  C  C2452  1  0.765700  0.176000  0.208100  1
  C  C2453  1  0.734300  0.676000  0.708100  1
  C  C2454  1  0.734300  0.824000  0.291900  1
  C  C2455  1  0.234300  0.676000  0.208100  1
  C  C2456  1  0.234300  0.824000  0.791900  1
  C  C2457  1  0.294200  0.396800  0.352600  1
  C  C2458  1  0.294200  0.103200  0.647400  1
  C  C2459  1  0.794200  0.396800  0.852600  1
  C  C2460  1  0.794200  0.103200  0.147400  1
  C  C2461  1  0.705800  0.603200  0.647400  1
  C  C2462  1  0.705800  0.896800  0.352600  1
  C  C2463  1  0.205800  0.603200  0.147400  1
  C  C2464  1  0.205800  0.896800  0.852600  1
  C  C2465  1  0.292100  0.425900  0.339000  1
  C  C2466  1  0.292100  0.074100  0.661000  1
  C  C2467  1  0.792100  0.425900  0.839000  1
  C  C2468  1  0.792100  0.074100  0.161000  1
  C  C2469  1  0.707900  0.574100  0.661000  1
  C  C2470  1  0.707900  0.925900  0.339000  1
  C  C2471  1  0.207900  0.574100  0.161000  1
  C  C2472  1  0.207900  0.925900  0.839000  1
  C  C2473  1  0.312500  0.456900  0.354800  1
  C  C2474  1  0.312500  0.043100  0.645200  1
  C  C2475  1  0.812500  0.456900  0.854800  1
  C  C2476  1  0.812500  0.043100  0.145200  1
  C  C2477  1  0.687500  0.543100  0.645200  1
  C  C2478  1  0.687500  0.956900  0.354800  1
  C  C2479  1  0.187500  0.543100  0.145200  1
  C  C2480  1  0.187500  0.956900  0.854800  1
  C  C2481  1  0.335400  0.459400  0.384300  1
  C  C2482  1  0.335400  0.040600  0.615700  1
  C  C2483  1  0.835400  0.459400  0.884300  1
  C  C2484  1  0.835400  0.040600  0.115700  1
  C  C2485  1  0.664600  0.540600  0.615700  1
  C  C2486  1  0.664600  0.959400  0.384300  1
  C  C2487  1  0.164600  0.540600  0.115700  1
  C  C2488  1  0.164600  0.959400  0.884300  1
  C  C2489  1  0.337300  0.429800  0.397700  1
  C  C2490  1  0.337300  0.070200  0.602300  1
  C  C2491  1  0.837300  0.429800  0.897700  1
  C  C2492  1  0.837300  0.070200  0.102300  1
  C  C2493  1  0.662700  0.570200  0.602300  1
  C  C2494  1  0.662700  0.929800  0.397700  1
  C  C2495  1  0.162700  0.570200  0.102300  1
  C  C2496  1  0.162700  0.929800  0.897700  1
  C  C2497  1  0.317000  0.398800  0.382000  1
  C  C2498  1  0.317000  0.101200  0.618000  1
  C  C2499  1  0.817000  0.398800  0.882000  1
  C  C2500  1  0.817000  0.101200  0.118000  1
  C  C2501  1  0.683000  0.601200  0.618000  1
  C  C2502  1  0.683000  0.898800  0.382000  1
  C  C2503  1  0.183000  0.601200  0.118000  1
  C  C2504  1  0.183000  0.898800  0.882000  1
  C  C2505  1  0.356200  0.493000  0.401600  1
  C  C2506  1  0.356200  0.007000  0.598400  1
  C  C2507  1  0.856200  0.493000  0.901600  1
  C  C2508  1  0.856200  0.007000  0.098400  1
  C  C2509  1  0.643800  0.507000  0.598400  1
  C  C2510  1  0.643800  0.993000  0.401600  1
  C  C2511  1  0.143800  0.507000  0.098400  1
  C  C2512  1  0.143800  0.993000  0.901600  1
  C  C2513  1  0.994200  0.122500  0.455500  1
  C  C2514  1  0.994200  0.377500  0.544500  1
  C  C2515  1  0.494200  0.122500  0.955500  1
  C  C2516  1  0.494200  0.377500  0.044500  1
  C  C2517  1  0.005800  0.877500  0.544500  1
  C  C2518  1  0.005800  0.622500  0.455500  1
  C  C2519  1  0.505800  0.877500  0.044500  1
  C  C2520  1  0.505800  0.622500  0.955500  1
  C  C2521  1  0.943500  0.107900  0.451600  1
  C  C2522  1  0.943500  0.392100  0.548400  1
  C  C2523  1  0.443500  0.107900  0.951600  1
  C  C2524  1  0.443500  0.392100  0.048400  1
  C  C2525  1  0.056500  0.892100  0.548400  1
  C  C2526  1  0.056500  0.607900  0.451600  1
  C  C2527  1  0.556500  0.892100  0.048400  1
  C  C2528  1  0.556500  0.607900  0.951600  1
  C  C2529  1  0.926500  0.085500  0.470800  1
  C  C2530  1  0.926500  0.414500  0.529200  1
  C  C2531  1  0.426500  0.085500  0.970800  1
  C  C2532  1  0.426500  0.414500  0.029200  1
  C  C2533  1  0.073500  0.914500  0.529200  1
  C  C2534  1  0.073500  0.585500  0.470800  1
  C  C2535  1  0.573500  0.914500  0.029200  1
  C  C2536  1  0.573500  0.585500  0.970800  1
  C  C2537  1  0.959600  0.077200  0.494200  1
  C  C2538  1  0.959600  0.422800  0.505800  1
  C  C2539  1  0.459600  0.077200  0.994200  1
  C  C2540  1  0.459600  0.422800  0.005800  1
  C  C2541  1  0.040400  0.922800  0.505800  1
  C  C2542  1  0.040400  0.577200  0.494200  1
  C  C2543  1  0.540400  0.922800  0.005800  1
  C  C2544  1  0.540400  0.577200  0.994200  1
  C  C2545  1  0.010200  0.092200  0.497900  1
  C  C2546  1  0.010200  0.407800  0.502100  1
  C  C2547  1  0.510200  0.092200  0.997900  1
  C  C2548  1  0.510200  0.407800  0.002100  1
  C  C2549  1  0.989800  0.907800  0.502100  1
  C  C2550  1  0.989800  0.592200  0.497900  1
  C  C2551  1  0.489800  0.907800  0.002100  1
  C  C2552  1  0.489800  0.592200  0.997900  1
  C  C2553  1  0.027500  0.114600  0.478700  1
  C  C2554  1  0.027500  0.385400  0.521300  1
  C  C2555  1  0.527500  0.114600  0.978700  1
  C  C2556  1  0.527500  0.385400  0.021300  1
  C  C2557  1  0.972500  0.885400  0.521300  1
  C  C2558  1  0.972500  0.614600  0.478700  1
  C  C2559  1  0.472500  0.885400  0.021300  1
  C  C2560  1  0.472500  0.614600  0.978700  1
  C  C2561  1  0.941500  0.052400  0.514400  1
  C  C2562  1  0.941500  0.447600  0.485600  1
  C  C2563  1  0.441500  0.052400  0.014400  1
  C  C2564  1  0.441500  0.447600  0.985600  1
  C  C2565  1  0.058500  0.947600  0.485600  1
  C  C2566  1  0.058500  0.552400  0.514400  1
  C  C2567  1  0.558500  0.947600  0.985600  1
  C  C2568  1  0.558500  0.552400  0.014400  1
  C  C2569  1  0.040300  0.171200  0.449300  1
  C  C2570  1  0.040300  0.328800  0.550700  1
  C  C2571  1  0.540300  0.171200  0.949300  1
  C  C2572  1  0.540300  0.328800  0.050700  1
  C  C2573  1  0.959700  0.828800  0.550700  1
  C  C2574  1  0.959700  0.671200  0.449300  1
  C  C2575  1  0.459700  0.828800  0.050700  1
  C  C2576  1  0.459700  0.671200  0.949300  1
  C  C2577  1  0.057800  0.195700  0.430000  1
  C  C2578  1  0.057800  0.304300  0.570000  1
  C  C2579  1  0.557800  0.195700  0.930000  1
  C  C2580  1  0.557800  0.304300  0.070000  1
  C  C2581  1  0.942200  0.804300  0.570000  1
  C  C2582  1  0.942200  0.695700  0.430000  1
  C  C2583  1  0.442200  0.804300  0.070000  1
  C  C2584  1  0.442200  0.695700  0.930000  1
  C  C2585  1  0.081500  0.224300  0.441700  1
  C  C2586  1  0.081500  0.275700  0.558300  1
  C  C2587  1  0.581500  0.224300  0.941700  1
  C  C2588  1  0.581500  0.275700  0.058300  1
  C  C2589  1  0.918500  0.775700  0.558300  1
  C  C2590  1  0.918500  0.724300  0.441700  1
  C  C2591  1  0.418500  0.775700  0.058300  1
  C  C2592  1  0.418500  0.724300  0.941700  1
  C  C2593  1  0.092000  0.249400  0.421500  1
  C  C2594  1  0.092000  0.250600  0.578500  1
  C  C2595  1  0.592000  0.249400  0.921500  1
  C  C2596  1  0.592000  0.250600  0.078500  1
  C  C2597  1  0.908000  0.750600  0.578500  1
  C  C2598  1  0.908000  0.749400  0.421500  1
  C  C2599  1  0.408000  0.750600  0.078500  1
  C  C2600  1  0.408000  0.749400  0.921500  1
  C  C2601  1  0.277600  0.122800  0.384900  1
  C  C2602  1  0.277600  0.377200  0.615100  1
  C  C2603  1  0.777600  0.122800  0.884900  1
  C  C2604  1  0.777600  0.377200  0.115100  1
  C  C2605  1  0.722400  0.877200  0.615100  1
  C  C2606  1  0.722400  0.622800  0.384900  1
  C  C2607  1  0.222400  0.877200  0.115100  1
  C  C2608  1  0.222400  0.622800  0.884900  1
  C  C2609  1  0.076800  0.242300  0.391900  1
  C  C2610  1  0.076800  0.257700  0.608100  1
  C  C2611  1  0.576800  0.242300  0.891900  1
  C  C2612  1  0.576800  0.257700  0.108100  1
  C  C2613  1  0.923200  0.757700  0.608100  1
  C  C2614  1  0.923200  0.742300  0.391900  1
  C  C2615  1  0.423200  0.757700  0.108100  1
  C  C2616  1  0.423200  0.742300  0.891900  1
  C  C2617  1  0.053600  0.210500  0.380900  1
  C  C2618  1  0.053600  0.289500  0.619100  1
  C  C2619  1  0.553600  0.210500  0.880900  1
  C  C2620  1  0.553600  0.289500  0.119100  1
  C  C2621  1  0.946400  0.789500  0.619100  1
  C  C2622  1  0.946400  0.710500  0.380900  1
  C  C2623  1  0.446400  0.789500  0.119100  1
  C  C2624  1  0.446400  0.710500  0.880900  1
  C  C2625  1  0.127600  0.285900  0.371400  1
  C  C2626  1  0.127600  0.214100  0.628600  1
  C  C2627  1  0.627600  0.285900  0.871400  1
  C  C2628  1  0.627600  0.214100  0.128600  1
  C  C2629  1  0.872400  0.714100  0.628600  1
  C  C2630  1  0.872400  0.785900  0.371400  1
  C  C2631  1  0.372400  0.714100  0.128600  1
  C  C2632  1  0.372400  0.785900  0.871400  1
  C  C2633  1  0.080100  0.268800  0.372300  1
  C  C2634  1  0.080100  0.231200  0.627700  1
  C  C2635  1  0.580100  0.268800  0.872300  1
  C  C2636  1  0.580100  0.231200  0.127700  1
  C  C2637  1  0.919900  0.731200  0.627700  1
  C  C2638  1  0.919900  0.768800  0.372300  1
  C  C2639  1  0.419900  0.731200  0.127700  1
  C  C2640  1  0.419900  0.768800  0.872300  1
  C  C2641  1  0.037600  0.280200  0.357500  1
  C  C2642  1  0.037600  0.219800  0.642500  1
  C  C2643  1  0.537600  0.280200  0.857500  1
  C  C2644  1  0.537600  0.219800  0.142500  1
  C  C2645  1  0.962400  0.719800  0.642500  1
  C  C2646  1  0.962400  0.780200  0.357500  1
  C  C2647  1  0.462400  0.719800  0.142500  1
  C  C2648  1  0.462400  0.780200  0.857500  1
  C  C2649  1  0.041600  0.307900  0.342600  1
  C  C2650  1  0.041600  0.192100  0.657400  1
  C  C2651  1  0.541600  0.307900  0.842600  1
  C  C2652  1  0.541600  0.192100  0.157400  1
  C  C2653  1  0.958400  0.692100  0.657400  1
  C  C2654  1  0.958400  0.807900  0.342600  1
  C  C2655  1  0.458400  0.692100  0.157400  1
  C  C2656  1  0.458400  0.807900  0.842600  1
  C  C2657  1  0.088700  0.323200  0.343100  1
  C  C2658  1  0.088700  0.176800  0.656900  1
  C  C2659  1  0.588700  0.323200  0.843100  1
  C  C2660  1  0.588700  0.176800  0.156900  1
  C  C2661  1  0.911300  0.676800  0.656900  1
  C  C2662  1  0.911300  0.823200  0.343100  1
  C  C2663  1  0.411300  0.676800  0.156900  1
  C  C2664  1  0.411300  0.823200  0.843100  1
  C  C2665  1  0.095000  0.354700  0.329100  1
  C  C2666  1  0.095000  0.145300  0.670900  1
  C  C2667  1  0.595000  0.354700  0.829100  1
  C  C2668  1  0.595000  0.145300  0.170900  1
  C  C2669  1  0.905000  0.645300  0.670900  1
  C  C2670  1  0.905000  0.854700  0.329100  1
  C  C2671  1  0.405000  0.645300  0.170900  1
  C  C2672  1  0.405000  0.854700  0.829100  1
  C  C2673  1  0.146300  0.397500  0.315800  1
  C  C2674  1  0.146300  0.102500  0.684200  1
  C  C2675  1  0.646300  0.397500  0.815800  1
  C  C2676  1  0.646300  0.102500  0.184200  1
  C  C2677  1  0.853700  0.602500  0.684200  1
  C  C2678  1  0.853700  0.897500  0.315800  1
  C  C2679  1  0.353700  0.602500  0.184200  1
  C  C2680  1  0.353700  0.897500  0.815800  1
  C  C2681  1  0.124200  0.428500  0.330200  1
  C  C2682  1  0.124200  0.071500  0.669800  1
  C  C2683  1  0.624200  0.428500  0.830200  1
  C  C2684  1  0.624200  0.071500  0.169800  1
  C  C2685  1  0.875800  0.571500  0.669800  1
  C  C2686  1  0.875800  0.928500  0.330200  1
  C  C2687  1  0.375800  0.571500  0.169800  1
  C  C2688  1  0.375800  0.928500  0.830200  1
  C  C2689  1  0.131800  0.458000  0.317500  1
  C  C2690  1  0.131800  0.042000  0.682500  1
  C  C2691  1  0.631800  0.458000  0.817500  1
  C  C2692  1  0.631800  0.042000  0.182500  1
  C  C2693  1  0.868200  0.542000  0.682500  1
  C  C2694  1  0.868200  0.958000  0.317500  1
  C  C2695  1  0.368200  0.542000  0.182500  1
  C  C2696  1  0.368200  0.958000  0.817500  1
  C  C2697  1  0.161800  0.457200  0.290300  1
  C  C2698  1  0.161800  0.042800  0.709700  1
  C  C2699  1  0.661800  0.457200  0.790300  1
  C  C2700  1  0.661800  0.042800  0.209700  1
  C  C2701  1  0.838200  0.542800  0.709700  1
  C  C2702  1  0.838200  0.957200  0.290300  1
  C  C2703  1  0.338200  0.542800  0.209700  1
  C  C2704  1  0.338200  0.957200  0.790300  1
  C  C2705  1  0.183600  0.425900  0.276100  1
  C  C2706  1  0.183600  0.074100  0.723900  1
  C  C2707  1  0.683600  0.425900  0.776100  1
  C  C2708  1  0.683600  0.074100  0.223900  1
  C  C2709  1  0.816400  0.574100  0.723900  1
  C  C2710  1  0.816400  0.925900  0.276100  1
  C  C2711  1  0.316400  0.574100  0.223900  1
  C  C2712  1  0.316400  0.925900  0.776100  1
  C  C2713  1  0.176100  0.396300  0.288600  1
  C  C2714  1  0.176100  0.103700  0.711400  1
  C  C2715  1  0.676100  0.396300  0.788600  1
  C  C2716  1  0.676100  0.103700  0.211400  1
  C  C2717  1  0.823900  0.603700  0.711400  1
  C  C2718  1  0.823900  0.896300  0.288600  1
  C  C2719  1  0.323900  0.603700  0.211400  1
  C  C2720  1  0.323900  0.896300  0.788600  1
  C  C2721  1  0.171100  0.489300  0.277200  1
  C  C2722  1  0.171100  0.010700  0.722800  1
  C  C2723  1  0.671100  0.489300  0.777200  1
  C  C2724  1  0.671100  0.010700  0.222800  1
  C  C2725  1  0.828900  0.510700  0.722800  1
  C  C2726  1  0.828900  0.989300  0.277200  1
  C  C2727  1  0.328900  0.510700  0.222800  1
  C  C2728  1  0.328900  0.989300  0.777200  1
  C  C2729  1  0.569300  0.131100  0.344600  1
  C  C2730  1  0.569300  0.368900  0.655400  1
  C  C2731  1  0.069300  0.131100  0.844600  1
  C  C2732  1  0.069300  0.368900  0.155400  1
  C  C2733  1  0.430700  0.868900  0.655400  1
  C  C2734  1  0.430700  0.631100  0.344600  1
  C  C2735  1  0.930700  0.868900  0.155400  1
  C  C2736  1  0.930700  0.631100  0.844600  1
  C  C2737  1  0.612200  0.108600  0.339100  1
  C  C2738  1  0.612200  0.391400  0.660900  1
  C  C2739  1  0.112200  0.108600  0.839100  1
  C  C2740  1  0.112200  0.391400  0.160900  1
  C  C2741  1  0.387800  0.891400  0.660900  1
  C  C2742  1  0.387800  0.608600  0.339100  1
  C  C2743  1  0.887800  0.891400  0.160900  1
  C  C2744  1  0.887800  0.608600  0.839100  1
  C  C2745  1  0.551000  0.061200  0.326900  1
  C  C2746  1  0.551000  0.438800  0.673100  1
  C  C2747  1  0.051000  0.061200  0.826900  1
  C  C2748  1  0.051000  0.438800  0.173100  1
  C  C2749  1  0.449000  0.938800  0.673100  1
  C  C2750  1  0.449000  0.561200  0.326900  1
  C  C2751  1  0.949000  0.938800  0.173100  1
  C  C2752  1  0.949000  0.561200  0.826900  1
  C  C2753  1  0.508200  0.083800  0.332400  1
  C  C2754  1  0.508200  0.416200  0.667600  1
  C  C2755  1  0.008200  0.083800  0.832400  1
  C  C2756  1  0.008200  0.416200  0.167600  1
  C  C2757  1  0.491800  0.916200  0.667600  1
  C  C2758  1  0.491800  0.583800  0.332400  1
  C  C2759  1  0.991800  0.916200  0.167600  1
  C  C2760  1  0.991800  0.583800  0.832400  1
  C  C2761  1  0.383500  0.051590  0.417100  1
  C  C2762  1  0.383500  0.448410  0.582900  1
  C  C2763  1  0.883500  0.051590  0.917100  1
  C  C2764  1  0.883500  0.448410  0.082900  1
  C  C2765  1  0.616500  0.948410  0.582900  1
  C  C2766  1  0.616500  0.551590  0.417100  1
  C  C2767  1  0.116500  0.948410  0.082900  1
  C  C2768  1  0.116500  0.551590  0.917100  1
  C  C2769  1  0.401900  0.039700  0.443400  1
  C  C2770  1  0.401900  0.460300  0.556600  1
  C  C2771  1  0.901900  0.039700  0.943400  1
  C  C2772  1  0.901900  0.460300  0.056600  1
  C  C2773  1  0.598100  0.960300  0.556600  1
  C  C2774  1  0.598100  0.539700  0.443400  1
  C  C2775  1  0.098100  0.960300  0.056600  1
  C  C2776  1  0.098100  0.539700  0.943400  1
  C  C2777  1  0.454800  0.045000  0.453400  1
  C  C2778  1  0.454800  0.455000  0.546600  1
  C  C2779  1  0.954800  0.045000  0.953400  1
  C  C2780  1  0.954800  0.455000  0.046600  1
  C  C2781  1  0.545200  0.955000  0.546600  1
  C  C2782  1  0.545200  0.545000  0.453400  1
  C  C2783  1  0.045200  0.955000  0.046600  1
  C  C2784  1  0.045200  0.545000  0.953400  1
  C  C2785  1  0.488800  0.062600  0.436300  1
  C  C2786  1  0.488800  0.437400  0.563700  1
  C  C2787  1  0.988800  0.062600  0.936300  1
  C  C2788  1  0.988800  0.437400  0.063700  1
  C  C2789  1  0.511200  0.937400  0.563700  1
  C  C2790  1  0.511200  0.562600  0.436300  1
  C  C2791  1  0.011200  0.937400  0.063700  1
  C  C2792  1  0.011200  0.562600  0.936300  1
  C  C2793  1  0.470600  0.074600  0.410000  1
  C  C2794  1  0.470600  0.425400  0.590000  1
  C  C2795  1  0.970600  0.074600  0.910000  1
  C  C2796  1  0.970600  0.425400  0.090000  1
  C  C2797  1  0.529400  0.925400  0.590000  1
  C  C2798  1  0.529400  0.574600  0.410000  1
  C  C2799  1  0.029400  0.925400  0.090000  1
  C  C2800  1  0.029400  0.574600  0.910000  1
  C  C2801  1  0.474800  0.031400  0.481300  1
  C  C2802  1  0.474800  0.468600  0.518700  1
  C  C2803  1  0.974800  0.031400  0.981300  1
  C  C2804  1  0.974800  0.468600  0.018700  1
  C  C2805  1  0.525200  0.968600  0.518700  1
  C  C2806  1  0.525200  0.531400  0.481300  1
  C  C2807  1  0.025200  0.968600  0.018700  1
  C  C2808  1  0.025200  0.531400  0.981300  1
  C  C2809  1  0.398500  0.063400  0.348700  1
  C  C2810  1  0.398500  0.436600  0.651300  1
  C  C2811  1  0.898500  0.063400  0.848700  1
  C  C2812  1  0.898500  0.436600  0.151300  1
  C  C2813  1  0.601500  0.936600  0.651300  1
  C  C2814  1  0.601500  0.563400  0.348700  1
  C  C2815  1  0.101500  0.936600  0.151300  1
  C  C2816  1  0.101500  0.563400  0.848700  1
  C  C2817  1  0.381600  0.071200  0.319400  1
  C  C2818  1  0.381600  0.428800  0.680600  1
  C  C2819  1  0.881600  0.071200  0.819400  1
  C  C2820  1  0.881600  0.428800  0.180600  1
  C  C2821  1  0.618400  0.928800  0.680600  1
  C  C2822  1  0.618400  0.571200  0.319400  1
  C  C2823  1  0.118400  0.928800  0.180600  1
  C  C2824  1  0.118400  0.571200  0.819400  1
  C  C2825  1  0.376600  0.053900  0.289000  1
  C  C2826  1  0.376600  0.446100  0.711000  1
  C  C2827  1  0.876600  0.053900  0.789000  1
  C  C2828  1  0.876600  0.446100  0.211000  1
  C  C2829  1  0.623400  0.946100  0.711000  1
  C  C2830  1  0.623400  0.553900  0.289000  1
  C  C2831  1  0.123400  0.946100  0.211000  1
  C  C2832  1  0.123400  0.553900  0.789000  1
  C  C2833  1  0.358400  0.071100  0.266000  1
  C  C2834  1  0.358400  0.428900  0.734000  1
  C  C2835  1  0.858400  0.071100  0.766000  1
  C  C2836  1  0.858400  0.428900  0.234000  1
  C  C2837  1  0.641600  0.928900  0.734000  1
  C  C2838  1  0.641600  0.571100  0.266000  1
  C  C2839  1  0.141600  0.928900  0.234000  1
  C  C2840  1  0.141600  0.571100  0.766000  1
  C  C2841  1  0.345200  0.105500  0.273500  1
  C  C2842  1  0.345200  0.394500  0.726500  1
  C  C2843  1  0.845200  0.105500  0.773500  1
  C  C2844  1  0.845200  0.394500  0.226500  1
  C  C2845  1  0.654800  0.894500  0.726500  1
  C  C2846  1  0.654800  0.605500  0.273500  1
  C  C2847  1  0.154800  0.894500  0.226500  1
  C  C2848  1  0.154800  0.605500  0.773500  1
  C  C2849  1  0.350200  0.122800  0.303900  1
  C  C2850  1  0.350200  0.377200  0.696100  1
  C  C2851  1  0.850200  0.122800  0.803900  1
  C  C2852  1  0.850200  0.377200  0.196100  1
  C  C2853  1  0.649800  0.877200  0.696100  1
  C  C2854  1  0.649800  0.622800  0.303900  1
  C  C2855  1  0.149800  0.877200  0.196100  1
  C  C2856  1  0.149800  0.622800  0.803900  1
  C  C2857  1  0.274500  0.119500  0.237900  1
  C  C2858  1  0.274500  0.380500  0.762100  1
  C  C2859  1  0.774500  0.119500  0.737900  1
  C  C2860  1  0.774500  0.380500  0.262100  1
  C  C2861  1  0.725500  0.880500  0.762100  1
  C  C2862  1  0.725500  0.619500  0.237900  1
  C  C2863  1  0.225500  0.880500  0.262100  1
  C  C2864  1  0.225500  0.619500  0.737900  1
  C  C2865  1  0.325000  0.125200  0.250900  1
  C  C2866  1  0.325000  0.374800  0.749100  1
  C  C2867  1  0.825000  0.125200  0.750900  1
  C  C2868  1  0.825000  0.374800  0.249100  1
  C  C2869  1  0.675000  0.874800  0.749100  1
  C  C2870  1  0.675000  0.625200  0.250900  1
  C  C2871  1  0.175000  0.874800  0.249100  1
  C  C2872  1  0.175000  0.625200  0.750900  1
  C  C2873  1  0.363200  0.142100  0.236300  1
  C  C2874  1  0.363200  0.357900  0.763700  1
  C  C2875  1  0.863200  0.142100  0.736300  1
  C  C2876  1  0.863200  0.357900  0.263700  1
  C  C2877  1  0.636800  0.857900  0.763700  1
  C  C2878  1  0.636800  0.642100  0.236300  1
  C  C2879  1  0.136800  0.857900  0.263700  1
  C  C2880  1  0.136800  0.642100  0.736300  1
  C  C2881  1  0.350900  0.153300  0.208800  1
  C  C2882  1  0.350900  0.346700  0.791200  1
  C  C2883  1  0.850900  0.153300  0.708800  1
  C  C2884  1  0.850900  0.346700  0.291200  1
  C  C2885  1  0.649100  0.846700  0.791200  1
  C  C2886  1  0.649100  0.653300  0.208800  1
  C  C2887  1  0.149100  0.846700  0.291200  1
  C  C2888  1  0.149100  0.653300  0.708800  1
  C  C2889  1  0.300400  0.147600  0.195800  1
  C  C2890  1  0.300400  0.352400  0.804200  1
  C  C2891  1  0.800400  0.147600  0.695800  1
  C  C2892  1  0.800400  0.352400  0.304200  1
  C  C2893  1  0.699600  0.852400  0.804200  1
  C  C2894  1  0.699600  0.647600  0.195800  1
  C  C2895  1  0.199600  0.852400  0.304200  1
  C  C2896  1  0.199600  0.647600  0.695800  1
  C  C2897  1  0.913000  0.056800  0.344000  1
  C  C2898  1  0.913000  0.443200  0.656000  1
  C  C2899  1  0.413000  0.056800  0.844000  1
  C  C2900  1  0.413000  0.443200  0.156000  1
  C  C2901  1  0.087000  0.943200  0.656000  1
  C  C2902  1  0.087000  0.556800  0.344000  1
  C  C2903  1  0.587000  0.943200  0.156000  1
  C  C2904  1  0.587000  0.556800  0.844000  1
  C  C2905  1  0.859700  0.047200  0.344500  1
  C  C2906  1  0.859700  0.452800  0.655500  1
  C  C2907  1  0.359700  0.047200  0.844500  1
  C  C2908  1  0.359700  0.452800  0.155500  1
  C  C2909  1  0.140300  0.952800  0.655500  1
  C  C2910  1  0.140300  0.547200  0.344500  1
  C  C2911  1  0.640300  0.952800  0.155500  1
  C  C2912  1  0.640300  0.547200  0.844500  1
  C  C2913  1  0.860400  0.059850  0.400600  1
  C  C2914  1  0.860400  0.440150  0.599400  1
  C  C2915  1  0.360400  0.059850  0.900600  1
  C  C2916  1  0.360400  0.440150  0.099400  1
  C  C2917  1  0.139600  0.940150  0.599400  1
  C  C2918  1  0.139600  0.559850  0.400600  1
  C  C2919  1  0.639600  0.940150  0.099400  1
  C  C2920  1  0.639600  0.559850  0.900600  1
  C  C2921  1  0.913700  0.069440  0.400100  1
  C  C2922  1  0.913700  0.430560  0.599900  1
  C  C2923  1  0.413700  0.069440  0.900100  1
  C  C2924  1  0.413700  0.430560  0.099900  1
  C  C2925  1  0.086300  0.930560  0.599900  1
  C  C2926  1  0.086300  0.569440  0.400100  1
  C  C2927  1  0.586300  0.930560  0.099900  1
  C  C2928  1  0.586300  0.569440  0.900100  1
  C  C2929  1  0.228400  0.066300  0.142400  1
  C  C2930  1  0.228400  0.433700  0.857600  1
  C  C2931  1  0.728400  0.066300  0.642400  1
  C  C2932  1  0.728400  0.433700  0.357600  1
  C  C2933  1  0.771600  0.933700  0.857600  1
  C  C2934  1  0.771600  0.566300  0.142400  1
  C  C2935  1  0.271600  0.933700  0.357600  1
  C  C2936  1  0.271600  0.566300  0.642400  1
  C  C2937  1  0.277800  0.077000  0.133000  1
  C  C2938  1  0.277800  0.423000  0.867000  1
  C  C2939  1  0.777800  0.077000  0.633000  1
  C  C2940  1  0.777800  0.423000  0.367000  1
  C  C2941  1  0.722200  0.923000  0.867000  1
  C  C2942  1  0.722200  0.577000  0.133000  1
  C  C2943  1  0.222200  0.923000  0.367000  1
  C  C2944  1  0.222200  0.577000  0.633000  1
  C  C2945  1  0.297400  0.063800  0.103400  1
  C  C2946  1  0.297400  0.436200  0.896600  1
  C  C2947  1  0.797400  0.063800  0.603400  1
  C  C2948  1  0.797400  0.436200  0.396600  1
  C  C2949  1  0.702600  0.936200  0.896600  1
  C  C2950  1  0.702600  0.563800  0.103400  1
  C  C2951  1  0.202600  0.936200  0.396600  1
  C  C2952  1  0.202600  0.563800  0.603400  1
  C  C2953  1  0.268200  0.039700  0.082600  1
  C  C2954  1  0.268200  0.460300  0.917400  1
  C  C2955  1  0.768200  0.039700  0.582600  1
  C  C2956  1  0.768200  0.460300  0.417400  1
  C  C2957  1  0.731800  0.960300  0.917400  1
  C  C2958  1  0.731800  0.539700  0.082600  1
  C  C2959  1  0.231800  0.960300  0.417400  1
  C  C2960  1  0.231800  0.539700  0.582600  1
  C  C2961  1  0.218600  0.029400  0.092400  1
  C  C2962  1  0.218600  0.470600  0.907600  1
  C  C2963  1  0.718600  0.029400  0.592400  1
  C  C2964  1  0.718600  0.470600  0.407600  1
  C  C2965  1  0.781400  0.970600  0.907600  1
  C  C2966  1  0.781400  0.529400  0.092400  1
  C  C2967  1  0.281400  0.970600  0.407600  1
  C  C2968  1  0.281400  0.529400  0.592400  1
  C  C2969  1  0.198800  0.042500  0.121900  1
  C  C2970  1  0.198800  0.457500  0.878100  1
  C  C2971  1  0.698800  0.042500  0.621900  1
  C  C2972  1  0.698800  0.457500  0.378100  1
  C  C2973  1  0.801200  0.957500  0.878100  1
  C  C2974  1  0.801200  0.542500  0.121900  1
  C  C2975  1  0.301200  0.957500  0.378100  1
  C  C2976  1  0.301200  0.542500  0.621900  1
  C  C2977  1  0.290000  0.024900  0.051000  1
  C  C2978  1  0.290000  0.475100  0.949000  1
  C  C2979  1  0.790000  0.024900  0.551000  1
  C  C2980  1  0.790000  0.475100  0.449000  1
  C  C2981  1  0.710000  0.975100  0.949000  1
  C  C2982  1  0.710000  0.524900  0.051000  1
  C  C2983  1  0.210000  0.975100  0.449000  1
  C  C2984  1  0.210000  0.524900  0.551000  1
  C  C2985  1  0.956200  0.131000  0.482000  1
  C  C2986  1  0.956200  0.369000  0.518000  1
  C  C2987  1  0.456200  0.131000  0.982000  1
  C  C2988  1  0.456200  0.369000  0.018000  1
  C  C2989  1  0.043800  0.869000  0.518000  1
  C  C2990  1  0.043800  0.631000  0.482000  1
  C  C2991  1  0.543800  0.869000  0.018000  1
  C  C2992  1  0.543800  0.631000  0.982000  1
  C  C2993  1  0.945300  0.105000  0.498700  1
  C  C2994  1  0.945300  0.395000  0.501300  1
  C  C2995  1  0.445300  0.105000  0.998700  1
  C  C2996  1  0.445300  0.395000  0.001300  1
  C  C2997  1  0.054700  0.895000  0.501300  1
  C  C2998  1  0.054700  0.605000  0.498700  1
  C  C2999  1  0.554700  0.895000  0.001300  1
  C  C3000  1  0.554700  0.605000  0.998700  1
  C  C3001  1  0.972900  0.073900  0.492700  1
  C  C3002  1  0.972900  0.426100  0.507300  1
  C  C3003  1  0.472900  0.073900  0.992700  1
  C  C3004  1  0.472900  0.426100  0.007300  1
  C  C3005  1  0.027100  0.926100  0.507300  1
  C  C3006  1  0.027100  0.573900  0.492700  1
  C  C3007  1  0.527100  0.926100  0.007300  1
  C  C3008  1  0.527100  0.573900  0.992700  1
  C  C3009  1  0.011800  0.069600  0.469300  1
  C  C3010  1  0.011800  0.430400  0.530700  1
  C  C3011  1  0.511800  0.069600  0.969300  1
  C  C3012  1  0.511800  0.430400  0.030700  1
  C  C3013  1  0.988200  0.930400  0.530700  1
  C  C3014  1  0.988200  0.569600  0.469300  1
  C  C3015  1  0.488200  0.930400  0.030700  1
  C  C3016  1  0.488200  0.569600  0.969300  1
  C  C3017  1  0.022900  0.095500  0.452500  1
  C  C3018  1  0.022900  0.404500  0.547500  1
  C  C3019  1  0.522900  0.095500  0.952500  1
  C  C3020  1  0.522900  0.404500  0.047500  1
  C  C3021  1  0.977100  0.904500  0.547500  1
  C  C3022  1  0.977100  0.595500  0.452500  1
  C  C3023  1  0.477100  0.904500  0.047500  1
  C  C3024  1  0.477100  0.595500  0.952500  1
  C  C3025  1  0.960200  0.045500  0.510200  1
  C  C3026  1  0.960200  0.454500  0.489800  1
  C  C3027  1  0.460200  0.045500  0.010200  1
  C  C3028  1  0.460200  0.454500  0.989800  1
  C  C3029  1  0.039800  0.954500  0.489800  1
  C  C3030  1  0.039800  0.545500  0.510200  1
  C  C3031  1  0.539800  0.954500  0.989800  1
  C  C3032  1  0.539800  0.545500  0.010200  1
  N  N3033  1  0.471000  0.141500  0.347300  1
  N  N3034  1  0.471000  0.358500  0.652700  1
  N  N3035  1  0.971000  0.141500  0.847300  1
  N  N3036  1  0.971000  0.358500  0.152700  1
  N  N3037  1  0.529000  0.858500  0.652700  1
  N  N3038  1  0.529000  0.641500  0.347300  1
  N  N3039  1  0.029000  0.858500  0.152700  1
  N  N3040  1  0.029000  0.641500  0.847300  1
  N  N3041  1  0.392000  0.185400  0.361900  1
  N  N3042  1  0.392000  0.314600  0.638100  1
  N  N3043  1  0.892000  0.185400  0.861900  1
  N  N3044  1  0.892000  0.314600  0.138100  1
  N  N3045  1  0.608000  0.814600  0.638100  1
  N  N3046  1  0.608000  0.685400  0.361900  1
  N  N3047  1  0.108000  0.814600  0.138100  1
  N  N3048  1  0.108000  0.685400  0.861900  1
  N  N3049  1  0.254000  0.312400  0.372500  1
  N  N3050  1  0.254000  0.187600  0.627500  1
  N  N3051  1  0.754000  0.312400  0.872500  1
  N  N3052  1  0.754000  0.187600  0.127500  1
  N  N3053  1  0.746000  0.687600  0.627500  1
  N  N3054  1  0.746000  0.812400  0.372500  1
  N  N3055  1  0.246000  0.687600  0.127500  1
  N  N3056  1  0.246000  0.812400  0.872500  1
  N  N3057  1  0.195900  0.366300  0.396700  1
  N  N3058  1  0.195900  0.133700  0.603300  1
  N  N3059  1  0.695900  0.366300  0.896700  1
  N  N3060  1  0.695900  0.133700  0.103300  1
  N  N3061  1  0.804100  0.633700  0.603300  1
  N  N3062  1  0.804100  0.866300  0.396700  1
  N  N3063  1  0.304100  0.633700  0.103300  1
  N  N3064  1  0.304100  0.866300  0.896700  1
  N  N3065  1  0.403600  0.082200  0.374000  1
  N  N3066  1  0.403600  0.417800  0.626000  1
  N  N3067  1  0.903600  0.082200  0.874000  1
  N  N3068  1  0.903600  0.417800  0.126000  1
  N  N3069  1  0.596400  0.917800  0.626000  1
  N  N3070  1  0.596400  0.582200  0.374000  1
  N  N3071  1  0.096400  0.917800  0.126000  1
  N  N3072  1  0.096400  0.582200  0.874000  1
  N  N3073  1  0.242000  0.159600  0.158000  1
  N  N3074  1  0.242000  0.340400  0.842000  1
  N  N3075  1  0.742000  0.159600  0.658000  1
  N  N3076  1  0.742000  0.340400  0.342000  1
  N  N3077  1  0.758000  0.840400  0.842000  1
  N  N3078  1  0.758000  0.659600  0.158000  1
  N  N3079  1  0.258000  0.840400  0.342000  1
  N  N3080  1  0.258000  0.659600  0.658000  1
  N  N3081  1  0.421000  0.156000  0.418400  1
  N  N3082  1  0.421000  0.344000  0.581600  1
  N  N3083  1  0.921000  0.156000  0.918400  1
  N  N3084  1  0.921000  0.344000  0.081600  1
  N  N3085  1  0.579000  0.844000  0.581600  1
  N  N3086  1  0.579000  0.656000  0.418400  1
  N  N3087  1  0.079000  0.844000  0.081600  1
  N  N3088  1  0.079000  0.656000  0.918400  1
  N  N3089  1  0.325400  0.135700  0.396500  1
  N  N3090  1  0.325400  0.364300  0.603500  1
  N  N3091  1  0.825400  0.135700  0.896500  1
  N  N3092  1  0.825400  0.364300  0.103500  1
  N  N3093  1  0.674600  0.864300  0.603500  1
  N  N3094  1  0.674600  0.635700  0.396500  1
  N  N3095  1  0.174600  0.864300  0.103500  1
  N  N3096  1  0.174600  0.635700  0.896500  1
  N  N3097  1  0.089000  0.112300  0.386000  1
  N  N3098  1  0.089000  0.387700  0.614000  1
  N  N3099  1  0.589000  0.112300  0.886000  1
  N  N3100  1  0.589000  0.387700  0.114000  1
  N  N3101  1  0.911000  0.887700  0.614000  1
  N  N3102  1  0.911000  0.612300  0.386000  1
  N  N3103  1  0.411000  0.887700  0.114000  1
  N  N3104  1  0.411000  0.612300  0.886000  1
  N  N3105  1  0.993000  0.082600  0.375800  1
  N  N3106  1  0.993000  0.417400  0.624200  1
  N  N3107  1  0.493000  0.082600  0.875800  1
  N  N3108  1  0.493000  0.417400  0.124200  1
  N  N3109  1  0.007000  0.917400  0.624200  1
  N  N3110  1  0.007000  0.582600  0.375800  1
  N  N3111  1  0.507000  0.917400  0.124200  1
  N  N3112  1  0.507000  0.582600  0.875800  1
  N  N3113  1  0.939800  0.158400  0.378500  1
  N  N3114  1  0.939800  0.341600  0.621500  1
  N  N3115  1  0.439800  0.158400  0.878500  1
  N  N3116  1  0.439800  0.341600  0.121500  1
  N  N3117  1  0.060200  0.841600  0.621500  1
  N  N3118  1  0.060200  0.658400  0.378500  1
  N  N3119  1  0.560200  0.841600  0.121500  1
  N  N3120  1  0.560200  0.658400  0.878500  1
  N  N3121  1  0.144500  0.114500  0.219200  1
  N  N3122  1  0.144500  0.385500  0.780800  1
  N  N3123  1  0.644500  0.114500  0.719200  1
  N  N3124  1  0.644500  0.385500  0.280800  1
  N  N3125  1  0.855500  0.885500  0.780800  1
  N  N3126  1  0.855500  0.614500  0.219200  1
  N  N3127  1  0.355500  0.885500  0.280800  1
  N  N3128  1  0.355500  0.614500  0.719200  1
  N  N3129  1  0.203300  0.085500  0.170300  1
  N  N3130  1  0.203300  0.414500  0.829700  1
  N  N3131  1  0.703300  0.085500  0.670300  1
  N  N3132  1  0.703300  0.414500  0.329700  1
  N  N3133  1  0.796700  0.914500  0.829700  1
  N  N3134  1  0.796700  0.585500  0.170300  1
  N  N3135  1  0.296700  0.914500  0.329700  1
  N  N3136  1  0.296700  0.585500  0.670300  1
  N  N3137  1  0.113500  0.146100  0.165000  1
  N  N3138  1  0.113500  0.353900  0.835000  1
  N  N3139  1  0.613500  0.146100  0.665000  1
  N  N3140  1  0.613500  0.353900  0.335000  1
  N  N3141  1  0.886500  0.853900  0.835000  1
  N  N3142  1  0.886500  0.646100  0.165000  1
  N  N3143  1  0.386500  0.853900  0.335000  1
  N  N3144  1  0.386500  0.646100  0.665000  1
  N  N3145  1  0.167700  0.189600  0.207600  1
  N  N3146  1  0.167700  0.310400  0.792400  1
  N  N3147  1  0.667700  0.189600  0.707600  1
  N  N3148  1  0.667700  0.310400  0.292400  1
  N  N3149  1  0.832300  0.810400  0.792400  1
  N  N3150  1  0.832300  0.689600  0.207600  1
  N  N3151  1  0.332300  0.810400  0.292400  1
  N  N3152  1  0.332300  0.689600  0.707600  1
  N  N3153  1  0.219100  0.314200  0.304000  1
  N  N3154  1  0.219100  0.185800  0.696000  1
  N  N3155  1  0.719100  0.314200  0.804000  1
  N  N3156  1  0.719100  0.185800  0.196000  1
  N  N3157  1  0.780900  0.685800  0.696000  1
  N  N3158  1  0.780900  0.814200  0.304000  1
  N  N3159  1  0.280900  0.685800  0.196000  1
  N  N3160  1  0.280900  0.814200  0.804000  1
  N  N3161  1  0.269200  0.367700  0.335800  1
  N  N3162  1  0.269200  0.132300  0.664200  1
  N  N3163  1  0.769200  0.367700  0.835800  1
  N  N3164  1  0.769200  0.132300  0.164200  1
  N  N3165  1  0.730800  0.632300  0.664200  1
  N  N3166  1  0.730800  0.867700  0.335800  1
  N  N3167  1  0.230800  0.632300  0.164200  1
  N  N3168  1  0.230800  0.867700  0.835800  1
  N  N3169  1  0.016000  0.144100  0.435500  1
  N  N3170  1  0.016000  0.355900  0.564500  1
  N  N3171  1  0.516000  0.144100  0.935500  1
  N  N3172  1  0.516000  0.355900  0.064500  1
  N  N3173  1  0.984000  0.855900  0.564500  1
  N  N3174  1  0.984000  0.644100  0.435500  1
  N  N3175  1  0.484000  0.855900  0.064500  1
  N  N3176  1  0.484000  0.644100  0.935500  1
  N  N3177  1  0.044100  0.187200  0.399000  1
  N  N3178  1  0.044100  0.312800  0.601000  1
  N  N3179  1  0.544100  0.187200  0.899000  1
  N  N3180  1  0.544100  0.312800  0.101000  1
  N  N3181  1  0.955900  0.812800  0.601000  1
  N  N3182  1  0.955900  0.687200  0.399000  1
  N  N3183  1  0.455900  0.812800  0.101000  1
  N  N3184  1  0.455900  0.687200  0.899000  1
  N  N3185  1  0.132300  0.312600  0.356000  1
  N  N3186  1  0.132300  0.187400  0.644000  1
  N  N3187  1  0.632300  0.312600  0.856000  1
  N  N3188  1  0.632300  0.187400  0.144000  1
  N  N3189  1  0.867700  0.687400  0.644000  1
  N  N3190  1  0.867700  0.812600  0.356000  1
  N  N3191  1  0.367700  0.687400  0.144000  1
  N  N3192  1  0.367700  0.812600  0.856000  1
  N  N3193  1  0.140900  0.368200  0.329100  1
  N  N3194  1  0.140900  0.131800  0.670900  1
  N  N3195  1  0.640900  0.368200  0.829100  1
  N  N3196  1  0.640900  0.131800  0.170900  1
  N  N3197  1  0.859100  0.631800  0.670900  1
  N  N3198  1  0.859100  0.868200  0.329100  1
  N  N3199  1  0.359100  0.631800  0.170900  1
  N  N3200  1  0.359100  0.868200  0.829100  1
  N  N3201  1  0.368300  0.112700  0.328100  1
  N  N3202  1  0.368300  0.387300  0.671900  1
  N  N3203  1  0.868300  0.112700  0.828100  1
  N  N3204  1  0.868300  0.387300  0.171900  1
  N  N3205  1  0.631700  0.887300  0.671900  1
  N  N3206  1  0.631700  0.612700  0.328100  1
  N  N3207  1  0.131700  0.887300  0.171900  1
  N  N3208  1  0.131700  0.612700  0.828100  1
  N  N3209  1  0.264500  0.142500  0.210500  1
  N  N3210  1  0.264500  0.357500  0.789500  1
  N  N3211  1  0.764500  0.142500  0.710500  1
  N  N3212  1  0.764500  0.357500  0.289500  1
  N  N3213  1  0.735500  0.857500  0.789500  1
  N  N3214  1  0.735500  0.642500  0.210500  1
  N  N3215  1  0.235500  0.857500  0.289500  1
  N  N3216  1  0.235500  0.642500  0.710500  1
  N  N3217  1  0.014500  0.136300  0.337180  1
  N  N3218  1  0.014500  0.363700  0.662820  1
  N  N3219  1  0.514500  0.136300  0.837180  1
  N  N3220  1  0.514500  0.363700  0.162820  1
  N  N3221  1  0.985500  0.863700  0.662820  1
  N  N3222  1  0.985500  0.636300  0.337180  1
  N  N3223  1  0.485500  0.863700  0.162820  1
  N  N3224  1  0.485500  0.636300  0.837180  1
  N  N3225  1  0.368400  0.105600  0.326900  1
  N  N3226  1  0.368400  0.394400  0.673100  1
  N  N3227  1  0.868400  0.105600  0.826900  1
  N  N3228  1  0.868400  0.394400  0.173100  1
  N  N3229  1  0.631600  0.894400  0.673100  1
  N  N3230  1  0.631600  0.605600  0.326900  1
  N  N3231  1  0.131600  0.894400  0.173100  1
  N  N3232  1  0.131600  0.605600  0.826900  1
  N  N3233  1  0.262300  0.130600  0.210400  1
  N  N3234  1  0.262300  0.369400  0.789600  1
  N  N3235  1  0.762300  0.130600  0.710400  1
  N  N3236  1  0.762300  0.369400  0.289600  1
  N  N3237  1  0.737700  0.869400  0.789600  1
  N  N3238  1  0.737700  0.630600  0.210400  1
  N  N3239  1  0.237700  0.869400  0.289600  1
  N  N3240  1  0.237700  0.630600  0.710400  1
  F  F3241  1  0.146100  0.216100  0.314500  1
  F  F3242  1  0.146100  0.283900  0.685500  1
  F  F3243  1  0.646100  0.216100  0.814500  1
  F  F3244  1  0.646100  0.283900  0.185500  1
  F  F3245  1  0.853900  0.783900  0.685500  1
  F  F3246  1  0.853900  0.716100  0.314500  1
  F  F3247  1  0.353900  0.783900  0.185500  1
  F  F3248  1  0.353900  0.716100  0.814500  1
  F  F3249  1  0.254900  0.161100  0.332900  1
  F  F3250  1  0.254900  0.338900  0.667100  1
  F  F3251  1  0.754900  0.161100  0.832900  1
  F  F3252  1  0.754900  0.338900  0.167100  1
  F  F3253  1  0.745100  0.838900  0.667100  1
  F  F3254  1  0.745100  0.661100  0.332900  1
  F  F3255  1  0.245100  0.838900  0.167100  1
  F  F3256  1  0.245100  0.661100  0.832900  1
  F  F3257  1  0.150400  0.162600  0.340400  1
  F  F3258  1  0.150400  0.337400  0.659600  1
  F  F3259  1  0.650400  0.162600  0.840400  1
  F  F3260  1  0.650400  0.337400  0.159600  1
  F  F3261  1  0.849600  0.837400  0.659600  1
  F  F3262  1  0.849600  0.662600  0.340400  1
  F  F3263  1  0.349600  0.837400  0.159600  1
  F  F3264  1  0.349600  0.662600  0.840400  1
  F  F3265  1  0.207700  0.215800  0.361800  1
  F  F3266  1  0.207700  0.284200  0.638200  1
  F  F3267  1  0.707700  0.215800  0.861800  1
  F  F3268  1  0.707700  0.284200  0.138200  1
  F  F3269  1  0.792300  0.784200  0.638200  1
  F  F3270  1  0.792300  0.715800  0.361800  1
  F  F3271  1  0.292300  0.784200  0.138200  1
  F  F3272  1  0.292300  0.715800  0.861800  1
  F  F3273  1  0.192100  0.161200  0.285600  1
  F  F3274  1  0.192100  0.338800  0.714400  1
  F  F3275  1  0.692100  0.161200  0.785600  1
  F  F3276  1  0.692100  0.338800  0.214400  1
  F  F3277  1  0.807900  0.838800  0.714400  1
  F  F3278  1  0.807900  0.661200  0.285600  1
  F  F3279  1  0.307900  0.838800  0.214400  1
  F  F3280  1  0.307900  0.661200  0.785600  1
  F  F3281  1  0.248100  0.214800  0.307300  1
  F  F3282  1  0.248100  0.285200  0.692700  1
  F  F3283  1  0.748100  0.214800  0.807300  1
  F  F3284  1  0.748100  0.285200  0.192700  1
  F  F3285  1  0.751900  0.785200  0.692700  1
  F  F3286  1  0.751900  0.714800  0.307300  1
  F  F3287  1  0.251900  0.785200  0.192700  1
  F  F3288  1  0.251900  0.714800  0.807300  1
  F  F3289  1  0.374700  0.115900  0.490400  1
  F  F3290  1  0.374700  0.384100  0.509600  1
  F  F3291  1  0.874700  0.115900  0.990400  1
  F  F3292  1  0.874700  0.384100  0.009600  1
  F  F3293  1  0.625300  0.884100  0.509600  1
  F  F3294  1  0.625300  0.615900  0.490400  1
  F  F3295  1  0.125300  0.884100  0.009600  1
  F  F3296  1  0.125300  0.615900  0.990400  1
  F  F3297  1  0.373700  0.172300  0.525800  1
  F  F3298  1  0.373700  0.327700  0.474200  1
  F  F3299  1  0.873700  0.172300  0.025800  1
  F  F3300  1  0.873700  0.327700  0.974200  1
  F  F3301  1  0.626300  0.827700  0.474200  1
  F  F3302  1  0.626300  0.672300  0.525800  1
  F  F3303  1  0.126300  0.827700  0.974200  1
  F  F3304  1  0.126300  0.672300  0.025800  1
  F  F3305  1  0.399500  0.086400  0.535600  1
  F  F3306  1  0.399500  0.413600  0.464400  1
  F  F3307  1  0.899500  0.086400  0.035600  1
  F  F3308  1  0.899500  0.413600  0.964400  1
  F  F3309  1  0.600500  0.913600  0.464400  1
  F  F3310  1  0.600500  0.586400  0.535600  1
  F  F3311  1  0.100500  0.913600  0.964400  1
  F  F3312  1  0.100500  0.586400  0.035600  1
  F  F3313  1  0.395700  0.146600  0.573200  1
  F  F3314  1  0.395700  0.353400  0.426800  1
  F  F3315  1  0.895700  0.146600  0.073200  1
  F  F3316  1  0.895700  0.353400  0.926800  1
  F  F3317  1  0.604300  0.853400  0.426800  1
  F  F3318  1  0.604300  0.646600  0.573200  1
  F  F3319  1  0.104300  0.853400  0.926800  1
  F  F3320  1  0.104300  0.646600  0.073200  1
  F  F3321  1  0.315200  0.123000  0.540200  1
  F  F3322  1  0.315200  0.377000  0.459800  1
  F  F3323  1  0.815200  0.123000  0.040200  1
  F  F3324  1  0.815200  0.377000  0.959800  1
  F  F3325  1  0.684800  0.877000  0.459800  1
  F  F3326  1  0.684800  0.623000  0.540200  1
  F  F3327  1  0.184800  0.877000  0.959800  1
  F  F3328  1  0.184800  0.623000  0.040200  1
  F  F3329  1  0.454500  0.136000  0.525300  1
  F  F3330  1  0.454500  0.364000  0.474700  1
  F  F3331  1  0.954500  0.136000  0.025300  1
  F  F3332  1  0.954500  0.364000  0.974700  1
  F  F3333  1  0.545500  0.864000  0.474700  1
  F  F3334  1  0.545500  0.636000  0.525300  1
  F  F3335  1  0.045500  0.864000  0.974700  1
  F  F3336  1  0.045500  0.636000  0.025300  1
  F  F3337  1  0.445700  0.092800  0.084500  1
  F  F3338  1  0.445700  0.407200  0.915500  1
  F  F3339  1  0.945700  0.092800  0.584500  1
  F  F3340  1  0.945700  0.407200  0.415500  1
  F  F3341  1  0.554300  0.907200  0.915500  1
  F  F3342  1  0.554300  0.592800  0.084500  1
  F  F3343  1  0.054300  0.907200  0.415500  1
  F  F3344  1  0.054300  0.592800  0.584500  1
  F  F3345  1  0.394900  0.148300  0.081600  1
  F  F3346  1  0.394900  0.351700  0.918400  1
  F  F3347  1  0.894900  0.148300  0.581600  1
  F  F3348  1  0.894900  0.351700  0.418400  1
  F  F3349  1  0.605100  0.851700  0.918400  1
  F  F3350  1  0.605100  0.648300  0.081600  1
  F  F3351  1  0.105100  0.851700  0.418400  1
  F  F3352  1  0.105100  0.648300  0.581600  1
  F  F3353  1  0.417000  0.175200  0.138300  1
  F  F3354  1  0.417000  0.324800  0.861700  1
  F  F3355  1  0.917000  0.175200  0.638300  1
  F  F3356  1  0.917000  0.324800  0.361700  1
  F  F3357  1  0.583000  0.824800  0.861700  1
  F  F3358  1  0.583000  0.675200  0.138300  1
  F  F3359  1  0.083000  0.824800  0.361700  1
  F  F3360  1  0.083000  0.675200  0.638300  1
  F  F3361  1  0.480100  0.123700  0.137500  1
  F  F3362  1  0.480100  0.376300  0.862500  1
  F  F3363  1  0.980100  0.123700  0.637500  1
  F  F3364  1  0.980100  0.376300  0.362500  1
  F  F3365  1  0.519900  0.876300  0.862500  1
  F  F3366  1  0.519900  0.623700  0.137500  1
  F  F3367  1  0.019900  0.876300  0.362500  1
  F  F3368  1  0.019900  0.623700  0.637500  1
  F  F3369  1  0.380500  0.115500  0.127900  1
  F  F3370  1  0.380500  0.384500  0.872100  1
  F  F3371  1  0.880500  0.115500  0.627900  1
  F  F3372  1  0.880500  0.384500  0.372100  1
  F  F3373  1  0.619500  0.884500  0.872100  1
  F  F3374  1  0.619500  0.615500  0.127900  1
  F  F3375  1  0.119500  0.884500  0.372100  1
  F  F3376  1  0.119500  0.615500  0.627900  1
  F  F3377  1  0.487100  0.155500  0.094300  1
  F  F3378  1  0.487100  0.344500  0.905700  1
  F  F3379  1  0.987100  0.155500  0.594300  1
  F  F3380  1  0.987100  0.344500  0.405700  1
  F  F3381  1  0.512900  0.844500  0.905700  1
  F  F3382  1  0.512900  0.655500  0.094300  1
  F  F3383  1  0.012900  0.844500  0.405700  1
  F  F3384  1  0.012900  0.655500  0.594300  1
  F  F3385  1  0.304200  0.122300  0.757600  1
  F  F3386  1  0.304200  0.377700  0.242400  1
  F  F3387  1  0.804200  0.122300  0.257600  1
  F  F3388  1  0.804200  0.377700  0.742400  1
  F  F3389  1  0.695800  0.877700  0.242400  1
  F  F3390  1  0.695800  0.622300  0.757600  1
  F  F3391  1  0.195800  0.877700  0.742400  1
  F  F3392  1  0.195800  0.622300  0.257600  1
  F  F3393  1  0.346300  0.117500  0.810100  1
  F  F3394  1  0.346300  0.382500  0.189900  1
  F  F3395  1  0.846300  0.117500  0.310100  1
  F  F3396  1  0.846300  0.382500  0.689900  1
  F  F3397  1  0.653700  0.882500  0.189900  1
  F  F3398  1  0.653700  0.617500  0.810100  1
  F  F3399  1  0.153700  0.882500  0.689900  1
  F  F3400  1  0.153700  0.617500  0.310100  1
  F  F3401  1  0.260300  0.134100  0.834900  1
  F  F3402  1  0.260300  0.365900  0.165100  1
  F  F3403  1  0.760300  0.134100  0.334900  1
  F  F3404  1  0.760300  0.365900  0.665100  1
  F  F3405  1  0.739700  0.865900  0.165100  1
  F  F3406  1  0.739700  0.634100  0.834900  1
  F  F3407  1  0.239700  0.865900  0.665100  1
  F  F3408  1  0.239700  0.634100  0.334900  1
  F  F3409  1  0.218900  0.141400  0.783200  1
  F  F3410  1  0.218900  0.358600  0.216800  1
  F  F3411  1  0.718900  0.141400  0.283200  1
  F  F3412  1  0.718900  0.358600  0.716800  1
  F  F3413  1  0.781100  0.858600  0.216800  1
  F  F3414  1  0.781100  0.641400  0.783200  1
  F  F3415  1  0.281100  0.858600  0.716800  1
  F  F3416  1  0.281100  0.641400  0.283200  1
  F  F3417  1  0.307600  0.172100  0.802900  1
  F  F3418  1  0.307600  0.327900  0.197100  1
  F  F3419  1  0.807600  0.172100  0.302900  1
  F  F3420  1  0.807600  0.327900  0.697100  1
  F  F3421  1  0.692400  0.827900  0.197100  1
  F  F3422  1  0.692400  0.672100  0.802900  1
  F  F3423  1  0.192400  0.827900  0.697100  1
  F  F3424  1  0.192400  0.672100  0.302900  1
  F  F3425  1  0.263500  0.082000  0.790200  1
  F  F3426  1  0.263500  0.418000  0.209800  1
  F  F3427  1  0.763500  0.082000  0.290200  1
  F  F3428  1  0.763500  0.418000  0.709800  1
  F  F3429  1  0.736500  0.918000  0.209800  1
  F  F3430  1  0.736500  0.582000  0.790200  1
  F  F3431  1  0.236500  0.918000  0.709800  1
  F  F3432  1  0.236500  0.582000  0.290200  1
  F  F3433  1  0.052100  0.171300  0.776200  1
  F  F3434  1  0.052100  0.328700  0.223800  1
  F  F3435  1  0.552100  0.171300  0.276200  1
  F  F3436  1  0.552100  0.328700  0.723800  1
  F  F3437  1  0.947900  0.828700  0.223800  1
  F  F3438  1  0.947900  0.671300  0.776200  1
  F  F3439  1  0.447900  0.828700  0.723800  1
  F  F3440  1  0.447900  0.671300  0.276200  1
  F  F3441  1  0.063400  0.183900  0.728400  1
  F  F3442  1  0.063400  0.316100  0.271600  1
  F  F3443  1  0.563400  0.183900  0.228400  1
  F  F3444  1  0.563400  0.316100  0.771600  1
  F  F3445  1  0.936600  0.816100  0.271600  1
  F  F3446  1  0.936600  0.683900  0.728400  1
  F  F3447  1  0.436600  0.816100  0.771600  1
  F  F3448  1  0.436600  0.683900  0.228400  1
  F  F3449  1  0.002000  0.213300  0.760800  1
  F  F3450  1  0.002000  0.286700  0.239200  1
  F  F3451  1  0.502000  0.213300  0.260800  1
  F  F3452  1  0.502000  0.286700  0.739200  1
  F  F3453  1  0.998000  0.786700  0.239200  1
  F  F3454  1  0.998000  0.713300  0.760800  1
  F  F3455  1  0.498000  0.786700  0.739200  1
  F  F3456  1  0.498000  0.713300  0.260800  1
  F  F3457  1  0.963200  0.163600  0.766800  1
  F  F3458  1  0.963200  0.336400  0.233200  1
  F  F3459  1  0.463200  0.163600  0.266800  1
  F  F3460  1  0.463200  0.336400  0.733200  1
  F  F3461  1  0.036800  0.836400  0.233200  1
  F  F3462  1  0.036800  0.663600  0.766800  1
  F  F3463  1  0.536800  0.836400  0.733200  1
  F  F3464  1  0.536800  0.663600  0.266800  1
  F  F3465  1  0.024300  0.134200  0.733900  1
  F  F3466  1  0.024300  0.365800  0.266100  1
  F  F3467  1  0.524300  0.134200  0.233900  1
  F  F3468  1  0.524300  0.365800  0.766100  1
  F  F3469  1  0.975700  0.865800  0.266100  1
  F  F3470  1  0.975700  0.634200  0.733900  1
  F  F3471  1  0.475700  0.865800  0.766100  1
  F  F3472  1  0.475700  0.634200  0.233900  1
  F  F3473  1  0.974900  0.175500  0.718200  1
  F  F3474  1  0.974900  0.324500  0.281800  1
  F  F3475  1  0.474900  0.175500  0.218200  1
  F  F3476  1  0.474900  0.324500  0.781800  1
  F  F3477  1  0.025100  0.824500  0.281800  1
  F  F3478  1  0.025100  0.675500  0.718200  1
  F  F3479  1  0.525100  0.824500  0.781800  1
  F  F3480  1  0.525100  0.675500  0.218200  1
  F  F3481  1  0.179800  0.198900  0.481500  1
  F  F3482  1  0.179800  0.301100  0.518500  1
  F  F3483  1  0.679800  0.198900  0.981500  1
  F  F3484  1  0.679800  0.301100  0.018500  1
  F  F3485  1  0.820200  0.801100  0.518500  1
  F  F3486  1  0.820200  0.698900  0.481500  1
  F  F3487  1  0.320200  0.801100  0.018500  1
  F  F3488  1  0.320200  0.698900  0.981500  1
  F  F3489  1  0.133600  0.151900  0.486700  1
  F  F3490  1  0.133600  0.348100  0.513300  1
  F  F3491  1  0.633600  0.151900  0.986700  1
  F  F3492  1  0.633600  0.348100  0.013300  1
  F  F3493  1  0.866400  0.848100  0.513300  1
  F  F3494  1  0.866400  0.651900  0.486700  1
  F  F3495  1  0.366400  0.848100  0.013300  1
  F  F3496  1  0.366400  0.651900  0.986700  1
  F  F3497  1  0.185600  0.213900  0.532900  1
  F  F3498  1  0.185600  0.286100  0.467100  1
  F  F3499  1  0.685600  0.213900  0.032900  1
  F  F3500  1  0.685600  0.286100  0.967100  1
  F  F3501  1  0.814400  0.786100  0.467100  1
  F  F3502  1  0.814400  0.713900  0.532900  1
  F  F3503  1  0.314400  0.786100  0.967100  1
  F  F3504  1  0.314400  0.713900  0.032900  1
  F  F3505  1  0.138500  0.167700  0.539500  1
  F  F3506  1  0.138500  0.332300  0.460500  1
  F  F3507  1  0.638500  0.167700  0.039500  1
  F  F3508  1  0.638500  0.332300  0.960500  1
  F  F3509  1  0.861500  0.832300  0.460500  1
  F  F3510  1  0.861500  0.667700  0.539500  1
  F  F3511  1  0.361500  0.832300  0.960500  1
  F  F3512  1  0.361500  0.667700  0.039500  1
  F  F3513  1  0.212900  0.160600  0.510000  1
  F  F3514  1  0.212900  0.339400  0.490000  1
  F  F3515  1  0.712900  0.160600  0.010000  1
  F  F3516  1  0.712900  0.339400  0.990000  1
  F  F3517  1  0.787100  0.839400  0.490000  1
  F  F3518  1  0.787100  0.660600  0.510000  1
  F  F3519  1  0.287100  0.839400  0.990000  1
  F  F3520  1  0.287100  0.660600  0.010000  1
  F  F3521  1  0.104500  0.204100  0.510500  1
  F  F3522  1  0.104500  0.295900  0.489500  1
  F  F3523  1  0.604500  0.204100  0.010500  1
  F  F3524  1  0.604500  0.295900  0.989500  1
  F  F3525  1  0.895500  0.795900  0.489500  1
  F  F3526  1  0.895500  0.704100  0.510500  1
  F  F3527  1  0.395500  0.795900  0.989500  1
  F  F3528  1  0.395500  0.704100  0.010500  1
  F  F3529  1  0.498900  0.163900  0.711000  1
  F  F3530  1  0.498900  0.336100  0.289000  1
  F  F3531  1  0.998900  0.163900  0.211000  1
  F  F3532  1  0.998900  0.336100  0.789000  1
  F  F3533  1  0.501100  0.836100  0.289000  1
  F  F3534  1  0.501100  0.663900  0.711000  1
  F  F3535  1  0.001100  0.836100  0.789000  1
  F  F3536  1  0.001100  0.663900  0.211000  1
  F  F3537  1  0.416300  0.173600  0.735700  1
  F  F3538  1  0.416300  0.326400  0.264300  1
  F  F3539  1  0.916300  0.173600  0.235700  1
  F  F3540  1  0.916300  0.326400  0.764300  1
  F  F3541  1  0.583700  0.826400  0.264300  1
  F  F3542  1  0.583700  0.673600  0.735700  1
  F  F3543  1  0.083700  0.826400  0.764300  1
  F  F3544  1  0.083700  0.673600  0.235700  1
  F  F3545  1  0.463300  0.163100  0.668600  1
  F  F3546  1  0.463300  0.336900  0.331400  1
  F  F3547  1  0.963300  0.163100  0.168600  1
  F  F3548  1  0.963300  0.336900  0.831400  1
  F  F3549  1  0.536700  0.836900  0.331400  1
  F  F3550  1  0.536700  0.663100  0.668600  1
  F  F3551  1  0.036700  0.836900  0.831400  1
  F  F3552  1  0.036700  0.663100  0.168600  1
  F  F3553  1  0.424600  0.138000  0.698700  1
  F  F3554  1  0.424600  0.362000  0.301300  1
  F  F3555  1  0.924600  0.138000  0.198700  1
  F  F3556  1  0.924600  0.362000  0.801300  1
  F  F3557  1  0.575400  0.862000  0.301300  1
  F  F3558  1  0.575400  0.638000  0.698700  1
  F  F3559  1  0.075400  0.862000  0.801300  1
  F  F3560  1  0.075400  0.638000  0.198700  1
  F  F3561  1  0.471500  0.211200  0.692900  1
  F  F3562  1  0.471500  0.288800  0.307100  1
  F  F3563  1  0.971500  0.211200  0.192900  1
  F  F3564  1  0.971500  0.288800  0.807100  1
  F  F3565  1  0.528500  0.788800  0.307100  1
  F  F3566  1  0.528500  0.711200  0.692900  1
  F  F3567  1  0.028500  0.788800  0.807100  1
  F  F3568  1  0.028500  0.711200  0.192900  1
  F  F3569  1  0.389700  0.182700  0.686000  1
  F  F3570  1  0.389700  0.317300  0.314000  1
  F  F3571  1  0.889700  0.182700  0.186000  1
  F  F3572  1  0.889700  0.317300  0.814000  1
  F  F3573  1  0.610300  0.817300  0.314000  1
  F  F3574  1  0.610300  0.682700  0.686000  1
  F  F3575  1  0.110300  0.817300  0.814000  1
  F  F3576  1  0.110300  0.682700  0.186000  1
  F  F3577  1  0.185400  0.233100  0.329400  1
  F  F3578  1  0.185400  0.266900  0.670600  1
  F  F3579  1  0.685400  0.233100  0.829400  1
  F  F3580  1  0.685400  0.266900  0.170600  1
  F  F3581  1  0.814600  0.766900  0.670600  1
  F  F3582  1  0.814600  0.733100  0.329400  1
  F  F3583  1  0.314600  0.766900  0.170600  1
  F  F3584  1  0.314600  0.733100  0.829400  1
  F  F3585  1  0.137000  0.179300  0.341900  1
  F  F3586  1  0.137000  0.320700  0.658100  1
  F  F3587  1  0.637000  0.179300  0.841900  1
  F  F3588  1  0.637000  0.320700  0.158100  1
  F  F3589  1  0.863000  0.820700  0.658100  1
  F  F3590  1  0.863000  0.679300  0.341900  1
  F  F3591  1  0.363000  0.820700  0.158100  1
  F  F3592  1  0.363000  0.679300  0.841900  1
  F  F3593  1  0.215400  0.141300  0.317700  1
  F  F3594  1  0.215400  0.358700  0.682300  1
  F  F3595  1  0.715400  0.141300  0.817700  1
  F  F3596  1  0.715400  0.358700  0.182300  1
  F  F3597  1  0.784600  0.858700  0.682300  1
  F  F3598  1  0.784600  0.641300  0.317700  1
  F  F3599  1  0.284600  0.858700  0.182300  1
  F  F3600  1  0.284600  0.641300  0.817700  1
  F  F3601  1  0.169100  0.181000  0.285100  1
  F  F3602  1  0.169100  0.319000  0.714900  1
  F  F3603  1  0.669100  0.181000  0.785100  1
  F  F3604  1  0.669100  0.319000  0.214900  1
  F  F3605  1  0.830900  0.819000  0.714900  1
  F  F3606  1  0.830900  0.681000  0.285100  1
  F  F3607  1  0.330900  0.819000  0.214900  1
  F  F3608  1  0.330900  0.681000  0.785100  1
  F  F3609  1  0.264200  0.194800  0.306000  1
  F  F3610  1  0.264200  0.305200  0.694000  1
  F  F3611  1  0.764200  0.194800  0.806000  1
  F  F3612  1  0.764200  0.305200  0.194000  1
  F  F3613  1  0.735800  0.805200  0.694000  1
  F  F3614  1  0.735800  0.694800  0.306000  1
  F  F3615  1  0.235800  0.805200  0.194000  1
  F  F3616  1  0.235800  0.694800  0.806000  1
  F  F3617  1  0.232900  0.192900  0.361800  1
  F  F3618  1  0.232900  0.307100  0.638200  1
  F  F3619  1  0.732900  0.192900  0.861800  1
  F  F3620  1  0.732900  0.307100  0.138200  1
  F  F3621  1  0.767100  0.807100  0.638200  1
  F  F3622  1  0.767100  0.692900  0.361800  1
  F  F3623  1  0.267100  0.807100  0.138200  1
  F  F3624  1  0.267100  0.692900  0.861800  1
  F  F3625  1  0.161700  0.186500  0.550100  1
  F  F3626  1  0.161700  0.313500  0.449900  1
  F  F3627  1  0.661700  0.186500  0.050100  1
  F  F3628  1  0.661700  0.313500  0.949900  1
  F  F3629  1  0.838300  0.813500  0.449900  1
  F  F3630  1  0.838300  0.686500  0.550100  1
  F  F3631  1  0.338300  0.813500  0.949900  1
  F  F3632  1  0.338300  0.686500  0.050100  1
  F  F3633  1  0.089900  0.174700  0.518800  1
  F  F3634  1  0.089900  0.325300  0.481200  1
  F  F3635  1  0.589900  0.174700  0.018800  1
  F  F3636  1  0.589900  0.325300  0.981200  1
  F  F3637  1  0.910100  0.825300  0.481200  1
  F  F3638  1  0.910100  0.674700  0.518800  1
  F  F3639  1  0.410100  0.825300  0.981200  1
  F  F3640  1  0.410100  0.674700  0.018800  1
  F  F3641  1  0.156400  0.135100  0.517700  1
  F  F3642  1  0.156400  0.364900  0.482300  1
  F  F3643  1  0.656400  0.135100  0.017700  1
  F  F3644  1  0.656400  0.364900  0.982300  1
  F  F3645  1  0.843600  0.864900  0.482300  1
  F  F3646  1  0.843600  0.635100  0.517700  1
  F  F3647  1  0.343600  0.864900  0.982300  1
  F  F3648  1  0.343600  0.635100  0.017700  1
  F  F3649  1  0.145200  0.163100  0.476600  1
  F  F3650  1  0.145200  0.336900  0.523400  1
  F  F3651  1  0.645200  0.163100  0.976600  1
  F  F3652  1  0.645200  0.336900  0.023400  1
  F  F3653  1  0.854800  0.836900  0.523400  1
  F  F3654  1  0.854800  0.663100  0.476600  1
  F  F3655  1  0.354800  0.836900  0.023400  1
  F  F3656  1  0.354800  0.663100  0.976600  1
  F  F3657  1  0.150900  0.214300  0.509200  1
  F  F3658  1  0.150900  0.285700  0.490800  1
  F  F3659  1  0.650900  0.214300  0.009200  1
  F  F3660  1  0.650900  0.285700  0.990800  1
  F  F3661  1  0.849100  0.785700  0.490800  1
  F  F3662  1  0.849100  0.714300  0.509200  1
  F  F3663  1  0.349100  0.785700  0.990800  1
  F  F3664  1  0.349100  0.714300  0.009200  1
  F  F3665  1  0.217600  0.174800  0.508300  1
  F  F3666  1  0.217600  0.325200  0.491700  1
  F  F3667  1  0.717600  0.174800  0.008300  1
  F  F3668  1  0.717600  0.325200  0.991700  1
  F  F3669  1  0.782400  0.825200  0.491700  1
  F  F3670  1  0.782400  0.674800  0.508300  1
  F  F3671  1  0.282400  0.825200  0.991700  1
  F  F3672  1  0.282400  0.674800  0.008300  1
  F  F3673  1  0.468400  0.197700  0.685200  1
  F  F3674  1  0.468400  0.302300  0.314800  1
  F  F3675  1  0.968400  0.197700  0.185200  1
  F  F3676  1  0.968400  0.302300  0.814800  1
  F  F3677  1  0.531600  0.802300  0.314800  1
  F  F3678  1  0.531600  0.697700  0.685200  1
  F  F3679  1  0.031600  0.802300  0.814800  1
  F  F3680  1  0.031600  0.697700  0.185200  1
  F  F3681  1  0.405200  0.163200  0.675400  1
  F  F3682  1  0.405200  0.336800  0.324600  1
  F  F3683  1  0.905200  0.163200  0.175400  1
  F  F3684  1  0.905200  0.336800  0.824600  1
  F  F3685  1  0.594800  0.836800  0.324600  1
  F  F3686  1  0.594800  0.663200  0.675400  1
  F  F3687  1  0.094800  0.836800  0.824600  1
  F  F3688  1  0.094800  0.663200  0.175400  1
  F  F3689  1  0.484200  0.149300  0.696400  1
  F  F3690  1  0.484200  0.350700  0.303600  1
  F  F3691  1  0.984200  0.149300  0.196400  1
  F  F3692  1  0.984200  0.350700  0.803600  1
  F  F3693  1  0.515800  0.850700  0.303600  1
  F  F3694  1  0.515800  0.649300  0.696400  1
  F  F3695  1  0.015800  0.850700  0.803600  1
  F  F3696  1  0.015800  0.649300  0.196400  1
  F  F3697  1  0.414200  0.160600  0.722600  1
  F  F3698  1  0.414200  0.339400  0.277400  1
  F  F3699  1  0.914200  0.160600  0.222600  1
  F  F3700  1  0.914200  0.339400  0.777400  1
  F  F3701  1  0.585800  0.839400  0.277400  1
  F  F3702  1  0.585800  0.660600  0.722600  1
  F  F3703  1  0.085800  0.839400  0.777400  1
  F  F3704  1  0.085800  0.660600  0.222600  1
  F  F3705  1  0.399900  0.209800  0.712800  1
  F  F3706  1  0.399900  0.290200  0.287200  1
  F  F3707  1  0.899900  0.209800  0.212800  1
  F  F3708  1  0.899900  0.290200  0.787200  1
  F  F3709  1  0.600100  0.790200  0.287200  1
  F  F3710  1  0.600100  0.709800  0.712800  1
  F  F3711  1  0.100100  0.790200  0.787200  1
  F  F3712  1  0.100100  0.709800  0.212800  1
  F  F3713  1  0.475600  0.196600  0.733200  1
  F  F3714  1  0.475600  0.303400  0.266800  1
  F  F3715  1  0.975600  0.196600  0.233200  1
  F  F3716  1  0.975600  0.303400  0.766800  1
  F  F3717  1  0.524400  0.803400  0.266800  1
  F  F3718  1  0.524400  0.696600  0.733200  1
  F  F3719  1  0.024400  0.803400  0.766800  1
  F  F3720  1  0.024400  0.696600  0.233200  1
  F  F3721  1  0.126000  0.195500  0.318800  1
  F  F3722  1  0.126000  0.304500  0.681200  1
  F  F3723  1  0.626000  0.195500  0.818800  1
  F  F3724  1  0.626000  0.304500  0.181200  1
  F  F3725  1  0.874000  0.804500  0.681200  1
  F  F3726  1  0.874000  0.695500  0.318800  1
  F  F3727  1  0.374000  0.804500  0.181200  1
  F  F3728  1  0.374000  0.695500  0.818800  1
  F  F3729  1  0.207000  0.175500  0.280400  1
  F  F3730  1  0.207000  0.324500  0.719600  1
  F  F3731  1  0.707000  0.175500  0.780400  1
  F  F3732  1  0.707000  0.324500  0.219600  1
  F  F3733  1  0.793000  0.824500  0.719600  1
  F  F3734  1  0.793000  0.675500  0.280400  1
  F  F3735  1  0.293000  0.824500  0.219600  1
  F  F3736  1  0.293000  0.675500  0.780400  1
  F  F3737  1  0.272000  0.178300  0.329100  1
  F  F3738  1  0.272000  0.321700  0.670900  1
  F  F3739  1  0.772000  0.178300  0.829100  1
  F  F3740  1  0.772000  0.321700  0.170900  1
  F  F3741  1  0.728000  0.821700  0.670900  1
  F  F3742  1  0.728000  0.678300  0.329100  1
  F  F3743  1  0.228000  0.821700  0.170900  1
  F  F3744  1  0.228000  0.678300  0.829100  1
  F  F3745  1  0.190800  0.198700  0.367400  1
  F  F3746  1  0.190800  0.301300  0.632600  1
  F  F3747  1  0.690800  0.198700  0.867400  1
  F  F3748  1  0.690800  0.301300  0.132600  1
  F  F3749  1  0.809200  0.801300  0.632600  1
  F  F3750  1  0.809200  0.698700  0.367400  1
  F  F3751  1  0.309200  0.801300  0.132600  1
  F  F3752  1  0.309200  0.698700  0.867400  1
  F  F3753  1  0.214800  0.233200  0.322100  1
  F  F3754  1  0.214800  0.266800  0.677900  1
  F  F3755  1  0.714800  0.233200  0.822100  1
  F  F3756  1  0.714800  0.266800  0.177900  1
  F  F3757  1  0.785200  0.766800  0.677900  1
  F  F3758  1  0.785200  0.733200  0.322100  1
  F  F3759  1  0.285200  0.766800  0.177900  1
  F  F3760  1  0.285200  0.733200  0.822100  1
  F  F3761  1  0.182500  0.141300  0.325700  1
  F  F3762  1  0.182500  0.358700  0.674300  1
  F  F3763  1  0.682500  0.141300  0.825700  1
  F  F3764  1  0.682500  0.358700  0.174300  1
  F  F3765  1  0.817500  0.858700  0.674300  1
  F  F3766  1  0.817500  0.641300  0.325700  1
  F  F3767  1  0.317500  0.858700  0.174300  1
  F  F3768  1  0.317500  0.641300  0.825700  1
  F  F3769  1  0.261300  0.174700  0.340100  1
  F  F3770  1  0.261300  0.325300  0.659900  1
  F  F3771  1  0.761300  0.174700  0.840100  1
  F  F3772  1  0.761300  0.325300  0.159900  1
  F  F3773  1  0.738700  0.825300  0.659900  1
  F  F3774  1  0.738700  0.674700  0.340100  1
  F  F3775  1  0.238700  0.825300  0.159900  1
  F  F3776  1  0.238700  0.674700  0.840100  1
  F  F3777  1  0.206400  0.233200  0.335100  1
  F  F3778  1  0.206400  0.266800  0.664900  1
  F  F3779  1  0.706400  0.233200  0.835100  1
  F  F3780  1  0.706400  0.266800  0.164900  1
  F  F3781  1  0.793600  0.766800  0.664900  1
  F  F3782  1  0.793600  0.733200  0.335100  1
  F  F3783  1  0.293600  0.766800  0.164900  1
  F  F3784  1  0.293600  0.733200  0.835100  1
  F  F3785  1  0.144700  0.196500  0.297600  1
  F  F3786  1  0.144700  0.303500  0.702400  1
  F  F3787  1  0.644700  0.196500  0.797600  1
  F  F3788  1  0.644700  0.303500  0.202400  1
  F  F3789  1  0.855300  0.803500  0.702400  1
  F  F3790  1  0.855300  0.696500  0.297600  1
  F  F3791  1  0.355300  0.803500  0.202400  1
  F  F3792  1  0.355300  0.696500  0.797600  1
  F  F3793  1  0.029900  0.200600  0.780600  1
  F  F3794  1  0.029900  0.299400  0.219400  1
  F  F3795  1  0.529900  0.200600  0.280600  1
  F  F3796  1  0.529900  0.299400  0.719400  1
  F  F3797  1  0.970100  0.799400  0.219400  1
  F  F3798  1  0.970100  0.700600  0.780600  1
  F  F3799  1  0.470100  0.799400  0.719400  1
  F  F3800  1  0.470100  0.700600  0.280600  1
  F  F3801  1  0.018700  0.211100  0.732900  1
  F  F3802  1  0.018700  0.288900  0.267100  1
  F  F3803  1  0.518700  0.211100  0.232900  1
  F  F3804  1  0.518700  0.288900  0.767100  1
  F  F3805  1  0.981300  0.788900  0.267100  1
  F  F3806  1  0.981300  0.711100  0.732900  1
  F  F3807  1  0.481300  0.788900  0.767100  1
  F  F3808  1  0.481300  0.711100  0.232900  1
  F  F3809  1  0.950300  0.189400  0.758800  1
  F  F3810  1  0.950300  0.310600  0.241200  1
  F  F3811  1  0.450300  0.189400  0.258800  1
  F  F3812  1  0.450300  0.310600  0.741200  1
  F  F3813  1  0.049700  0.810600  0.241200  1
  F  F3814  1  0.049700  0.689400  0.758800  1
  F  F3815  1  0.549700  0.810600  0.741200  1
  F  F3816  1  0.549700  0.689400  0.258800  1
  F  F3817  1  0.029900  0.200400  0.780900  1
  F  F3818  1  0.029900  0.299600  0.219100  1
  F  F3819  1  0.529900  0.200400  0.280900  1
  F  F3820  1  0.529900  0.299600  0.719100  1
  F  F3821  1  0.970100  0.799600  0.219100  1
  F  F3822  1  0.970100  0.700400  0.780900  1
  F  F3823  1  0.470100  0.799600  0.719100  1
  F  F3824  1  0.470100  0.700400  0.280900  1
  F  F3825  1  0.006300  0.145400  0.768800  1
  F  F3826  1  0.006300  0.354600  0.231200  1
  F  F3827  1  0.506300  0.145400  0.268800  1
  F  F3828  1  0.506300  0.354600  0.731200  1
  F  F3829  1  0.993700  0.854600  0.231200  1
  F  F3830  1  0.993700  0.645400  0.768800  1
  F  F3831  1  0.493700  0.854600  0.731200  1
  F  F3832  1  0.493700  0.645400  0.268800  1
  F  F3833  1  0.075500  0.167900  0.742300  1
  F  F3834  1  0.075500  0.332100  0.257700  1
  F  F3835  1  0.575500  0.167900  0.242300  1
  F  F3836  1  0.575500  0.332100  0.757700  1
  F  F3837  1  0.924500  0.832100  0.257700  1
  F  F3838  1  0.924500  0.667900  0.742300  1
  F  F3839  1  0.424500  0.832100  0.757700  1
  F  F3840  1  0.424500  0.667900  0.242300  1
  F  F3841  1  0.985000  0.158400  0.715800  1
  F  F3842  1  0.985000  0.341600  0.284200  1
  F  F3843  1  0.485000  0.158400  0.215800  1
  F  F3844  1  0.485000  0.341600  0.784200  1
  F  F3845  1  0.015000  0.841600  0.284200  1
  F  F3846  1  0.015000  0.658400  0.715800  1
  F  F3847  1  0.515000  0.841600  0.784200  1
  F  F3848  1  0.515000  0.658400  0.215800  1
  F  F3849  1  0.039000  0.158700  0.750200  1
  F  F3850  1  0.039000  0.341300  0.249800  1
  F  F3851  1  0.539000  0.158700  0.250200  1
  F  F3852  1  0.539000  0.341300  0.749800  1
  F  F3853  1  0.961000  0.841300  0.249800  1
  F  F3854  1  0.961000  0.658700  0.750200  1
  F  F3855  1  0.461000  0.841300  0.749800  1
  F  F3856  1  0.461000  0.658700  0.250200  1
  F  F3857  1  0.978100  0.149400  0.764900  1
  F  F3858  1  0.978100  0.350600  0.235100  1
  F  F3859  1  0.478100  0.149400  0.264900  1
  F  F3860  1  0.478100  0.350600  0.735100  1
  F  F3861  1  0.021900  0.850600  0.235100  1
  F  F3862  1  0.021900  0.649400  0.764900  1
  F  F3863  1  0.521900  0.850600  0.735100  1
  F  F3864  1  0.521900  0.649400  0.264900  1
  F  F3865  1  0.293000  0.038000  0.215200  1
  F  F3866  1  0.293000  0.462000  0.784800  1
  F  F3867  1  0.793000  0.038000  0.715200  1
  F  F3868  1  0.793000  0.462000  0.284800  1
  F  F3869  1  0.707000  0.962000  0.784800  1
  F  F3870  1  0.707000  0.538000  0.215200  1
  F  F3871  1  0.207000  0.962000  0.284800  1
  F  F3872  1  0.207000  0.538000  0.715200  1
  F  F3873  1  0.309000  0.999600  0.257300  1
  F  F3874  1  0.309000  0.500400  0.742700  1
  F  F3875  1  0.809000  0.999600  0.757300  1
  F  F3876  1  0.809000  0.500400  0.242700  1
  F  F3877  1  0.691000  0.000400  0.742700  1
  F  F3878  1  0.691000  0.499600  0.257300  1
  F  F3879  1  0.191000  0.000400  0.242700  1
  F  F3880  1  0.191000  0.499600  0.757300  1
  F  F3881  1  0.284100  0.001300  0.164100  1
  F  F3882  1  0.284100  0.498700  0.835900  1
  F  F3883  1  0.784100  0.001300  0.664100  1
  F  F3884  1  0.784100  0.498700  0.335900  1
  F  F3885  1  0.715900  0.998700  0.835900  1
  F  F3886  1  0.715900  0.501300  0.164100  1
  F  F3887  1  0.215900  0.998700  0.335900  1
  F  F3888  1  0.215900  0.501300  0.664100  1
  F  F3889  1  0.353900  0.010300  0.234400  1
  F  F3890  1  0.353900  0.489700  0.765600  1
  F  F3891  1  0.853900  0.010300  0.734400  1
  F  F3892  1  0.853900  0.489700  0.265600  1
  F  F3893  1  0.646100  0.989700  0.765600  1
  F  F3894  1  0.646100  0.510300  0.234400  1
  F  F3895  1  0.146100  0.989700  0.265600  1
  F  F3896  1  0.146100  0.510300  0.734400  1
  F  F3897  1  0.318900  0.962100  0.196200  1
  F  F3898  1  0.318900  0.537900  0.803800  1
  F  F3899  1  0.818900  0.962100  0.696200  1
  F  F3900  1  0.818900  0.537900  0.303800  1
  F  F3901  1  0.681100  0.037900  0.803800  1
  F  F3902  1  0.681100  0.462100  0.196200  1
  F  F3903  1  0.181100  0.037900  0.303800  1
  F  F3904  1  0.181100  0.462100  0.696200  1
  F  F3905  1  0.253800  0.007300  0.218500  1
  F  F3906  1  0.253800  0.492700  0.781500  1
  F  F3907  1  0.753800  0.007300  0.718500  1
  F  F3908  1  0.753800  0.492700  0.281500  1
  F  F3909  1  0.746200  0.992700  0.781500  1
  F  F3910  1  0.746200  0.507300  0.218500  1
  F  F3911  1  0.246200  0.992700  0.281500  1
  F  F3912  1  0.246200  0.507300  0.718500  1
  F  F3913  1  0.315000  0.051400  0.203400  1
  F  F3914  1  0.315000  0.448600  0.796600  1
  F  F3915  1  0.815000  0.051400  0.703400  1
  F  F3916  1  0.815000  0.448600  0.296600  1
  F  F3917  1  0.685000  0.948600  0.796600  1
  F  F3918  1  0.685000  0.551400  0.203400  1
  F  F3919  1  0.185000  0.948600  0.296600  1
  F  F3920  1  0.185000  0.551400  0.703400  1
  F  F3921  1  0.379200  0.006300  0.179500  1
  F  F3922  1  0.379200  0.493700  0.820500  1
  F  F3923  1  0.879200  0.006300  0.679500  1
  F  F3924  1  0.879200  0.493700  0.320500  1
  F  F3925  1  0.620800  0.993700  0.820500  1
  F  F3926  1  0.620800  0.506300  0.179500  1
  F  F3927  1  0.120800  0.993700  0.320500  1
  F  F3928  1  0.120800  0.506300  0.679500  1
  F  F3929  1  0.281400  0.967400  0.211600  1
  F  F3930  1  0.281400  0.532600  0.788400  1
  F  F3931  1  0.781400  0.967400  0.711600  1
  F  F3932  1  0.781400  0.532600  0.288400  1
  F  F3933  1  0.718600  0.032600  0.788400  1
  F  F3934  1  0.718600  0.467400  0.211600  1
  F  F3935  1  0.218600  0.032600  0.288400  1
  F  F3936  1  0.218600  0.467400  0.711600  1
  F  F3937  1  0.323800  0.996400  0.194300  1
  F  F3938  1  0.323800  0.503600  0.805700  1
  F  F3939  1  0.823800  0.996400  0.694300  1
  F  F3940  1  0.823800  0.503600  0.305700  1
  F  F3941  1  0.676200  0.003600  0.805700  1
  F  F3942  1  0.676200  0.496400  0.194300  1
  F  F3943  1  0.176200  0.003600  0.305700  1
  F  F3944  1  0.176200  0.496400  0.694300  1
