
#######################################################################
#
#                 Cambridge Crystallographic Data Centre
#                                CCDC 
#
#######################################################################
#
# If this CIF has been generated from an entry in the Cambridge 
# Structural Database, then it will include bibliographic, chemical, 
# crystal, experimental, refinement or atomic coordinate data resulting 
# from the CCDC's data processing and validation procedures.
#
#######################################################################

data_NUHMOU
_chemical_formula_moiety         'C156 H132 Co4 N24 8+,5(F6 P1 1-),3(F6 Sb1 1-)'
_chemical_name_systematic        
"hexakis(\m-3,3'-bipyridine-6,6'-diylbis(N-(4-methylphenyl)methanimine))-tetra-cobalt pentakis(hexafluorophosphate) tris(hexafluoro-antimony) unknown solvate"
_symmetry_cell_setting           monoclinic
_symmetry_space_group_name_H-M   'C 2/c'
_symmetry_Int_Tables_number      15
_space_group_name_Hall           '-C 2yn'
loop_
_symmetry_equiv_pos_site_id
_symmetry_equiv_pos_as_xyz
1 x,y,z
2 -x,y,1/2-z
3 1/2+x,1/2+y,z
4 1/2-x,1/2+y,1/2-z
5 -x,-y,-z
6 x,-y,1/2+z
7 1/2-x,1/2-y,-z
8 1/2+x,1/2-y,1/2+z
_cell_length_a                   43.7451(7)
_cell_length_b                   25.1150(4)
_cell_length_c                   39.7763(10)
_cell_angle_alpha                90
_cell_angle_beta                 100.245(2)
_cell_angle_gamma                90
_cell_volume                     43003.8
_exptl_crystal_colour            orange
_exptl_crystal_description       prism
_cell_formula_units_Z            8
_exptl_crystal_recrystallization_method 'acetonitrile/diethyl ether'
loop_
_atom_site_label
_atom_site_type_symbol
_atom_site_fract_x
_atom_site_fract_y
_atom_site_fract_z
Co1 Co 0.37188(5) 0.39900(9) 0.13514(6)
Co2 Co 0.34941(5) 0.20215(9) 0.34195(6)
Co3 Co 0.38617(5) 0.01304(9) 0.13661(6)
Co4 Co 0.18713(5) 0.18846(10) 0.13890(7)
N1 N 0.3473(3) 0.4710(4) 0.1415(4)
N2 N 0.3619(3) 0.3920(5) 0.1854(3)
N3 N 0.3725(3) 0.2540(5) 0.3124(3)
N4 N 0.3967(3) 0.1959(5) 0.3663(3)
N5 N 0.3740(3) 0.4036(5) 0.0822(3)
N6 N 0.1580(2) 0.2420(5) 0.1596(3)
N7 N 0.4184(3) 0.4210(5) 0.1560(3)
N8 N 0.3965(3) 0.3254(5) 0.1357(3)
N9 N 0.3860(3) 0.0890(5) 0.1123(4)
N10 N 0.3758(3) -0.0070(5) 0.0826(3)
N11 N 0.3785(3) -0.0602(5) 0.1584(3)
N12 N 0.2192(3) 0.1445(5) 0.1145(4)
N13 N 0.1703(3) 0.2033(5) 0.0855(4)
N14 N 0.1650(3) 0.1135(5) 0.1461(4)
N15 N 0.2076(3) 0.1677(5) 0.1896(3)
N16 N 0.3040(3) 0.2191(6) 0.3142(3)
N17 N 0.3358(4) 0.2692(5) 0.3677(3)
N18 N 0.4355(3) 0.0160(5) 0.1441(4)
N19 N 0.3990(3) 0.0441(5) 0.1872(3)
N20 N 0.3560(3) 0.1323(5) 0.3126(3)
N21 N 0.3291(3) 0.1409(5) 0.3682(3)
C1 C 0.3409(4) 0.5131(6) 0.1174(4)
C2 C 0.3653(3) 0.5373(7) 0.1049(5)
H1 H 0.3859 0.5239 0.1112
C3 C 0.3597(3) 0.5812(7) 0.0831(4)
H2 H 0.3765 0.5975 0.0748
C4 C 0.3296(3) 0.6018(5) 0.0734(3)
C5 C 0.3053(3) 0.5772(7) 0.0862(4)
H3 H 0.2848 0.5906 0.0800
C6 C 0.3108(4) 0.5332(7) 0.1080(5)
H4 H 0.2941 0.5170 0.1164
C7 C 0.3235(4) 0.6484(6) 0.0492(4)
H5 H 0.3219 0.6358 0.0257
H6 H 0.3406 0.6740 0.0544
H7 H 0.3040 0.6657 0.0520
C8 C 0.3351(4) 0.4726(6) 0.1684(5)
H8 H 0.3221 0.5014 0.1724
C9 C 0.3419(3) 0.4286(7) 0.1928(4)
C10 C 0.3312(4) 0.4256(8) 0.2243(5)
H9 H 0.3159 0.4502 0.2288
C11 C 0.3420(4) 0.3889(7) 0.2479(4)
H10 H 0.3349 0.3875 0.2691
C12 C 0.3637(3) 0.3533(6) 0.2403(4)
C13 C 0.3726(3) 0.3556(6) 0.2090(4)
H11 H 0.3871 0.3300 0.2038
C14 C 0.3608(3) 0.2845(6) 0.2858(4)
H12 H 0.3388 0.2843 0.2787
C15 C 0.3778(3) 0.3163(6) 0.2677(4)
C16 C 0.4100(4) 0.3124(7) 0.2767(4)
H13 H 0.4229 0.3312 0.2640
C17 C 0.4230(4) 0.2811(8) 0.3039(5)
H14 H 0.4449 0.2789 0.3106
C18 C 0.4036(4) 0.2532(6) 0.3213(4)
C19 C 0.4157(4) 0.2225(7) 0.3519(4)
H15 H 0.4373 0.2223 0.3610
C20 C 0.4090(2) 0.1664(4) 0.3957(2)
C21 C 0.4084(2) 0.1109(4) 0.3937(2)
H16 H 0.3986 0.0939 0.3732
C22 C 0.4220(3) 0.0803(4) 0.4217(2)
H17 H 0.4215 0.0426 0.4201
C23 C 0.4366(2) 0.1044(4) 0.4521(2)
C24 C 0.4370(3) 0.1602(4) 0.4538(2)
H18 H 0.4467 0.1773 0.4742
C25 C 0.4234(3) 0.1910(4) 0.4259(2)
H19 H 0.4239 0.2287 0.4274
C26 C 0.4521(2) 0.0713(5) 0.4820(2)
H20 H 0.4653 0.0443 0.4740
H21 H 0.4361 0.0538 0.4926
H22 H 0.4648 0.0943 0.4988
C27 C 0.3982(2) 0.4283(4) 0.0668(2)
C28 C 0.4293(2) 0.4146(4) 0.07746(19)
H23 H 0.4347 0.3859 0.0930
C29 C 0.4526(2) 0.4430(5) 0.0654(2)
H24 H 0.4737 0.4334 0.0728
C30 C 0.4453(3) 0.4854(4) 0.0424(2)
C31 C 0.4139(3) 0.4988(4) 0.0321(2)
H25 H 0.4085 0.5275 0.0166
C32 C 0.3905(3) 0.4706(5) 0.0441(2)
H26 H 0.3694 0.4801 0.0367
C33 C 0.4704(3) 0.5151(6) 0.0288(2)
H27 H 0.4830 0.5353 0.0473
H28 H 0.4609 0.5396 0.0108
H29 H 0.4837 0.4897 0.0194
C34 C 0.3578(5) 0.3641(9) 0.0651(8)
H30 H 0.3637 0.3456 0.0464
N22 N 0.3281(4) 0.3683(7) 0.1127(4)
C35 C 0.3295(3) 0.3531(6) 0.0794(4)
C36 C 0.3052(4) 0.3244(7) 0.0604(4)
H31 H 0.3062 0.3141 0.0377
C37 C 0.2795(4) 0.3109(7) 0.0747(4)
H32 H 0.2629 0.2913 0.0618
C38 C 0.2781(4) 0.3261(7) 0.1080(4)
C39 C 0.3024(4) 0.3548(8) 0.1270(4)
H33 H 0.3014 0.3651 0.1498
N23 N 0.2105(4) 0.2645(6) 0.1425(4)
C40 C 0.2377(4) 0.2706(5) 0.1295(5)
H34 H 0.2501 0.2404 0.1266
C41 C 0.2470(4) 0.3210(6) 0.1209(4)
C42 C 0.2290(4) 0.3652(5) 0.1252(5)
H35 H 0.2354 0.3996 0.1192
C43 C 0.2017(4) 0.3591(6) 0.1381(5)
H36 H 0.1894 0.3893 0.1411
C44 C 0.1925(3) 0.3088(7) 0.1468(3)
C45 C 0.1664(4) 0.2905(7) 0.1603(3)
H37 H 0.1546 0.3158 0.1703
C46 C 0.12949(18) 0.2306(4) 0.1705(2)
C47 C 0.10243(17) 0.2594(4) 0.1584(3)
H38 H 0.1024 0.2858 0.1413
C48 C 0.07537(17) 0.2493(4) 0.1714(3)
H39 H 0.0571 0.2691 0.1630
C49 C 0.07471(19) 0.2105(4) 0.1966(3)
C50 C 0.1021(2) 0.1821(4) 0.2085(3)
H40 H 0.1022 0.1557 0.2256
C51 C 0.12923(19) 0.1919(4) 0.1956(3)
H41 H 0.1476 0.1722 0.2040
C52 C 0.0453(2) 0.1988(5) 0.2099(3)
H42 H 0.0278 0.2175 0.1959
H43 H 0.0475 0.2109 0.2336
H44 H 0.0413 0.1604 0.2089
C53 C 0.43032(16) 0.4724(3) 0.1662(2)
C54 C 0.45708(17) 0.4914(4) 0.1556(2)
H45 H 0.4668 0.4707 0.1405
C55 C 0.46952(16) 0.5406(3) 0.1672(2)
H46 H 0.4877 0.5532 0.1598
C56 C 0.45555(16) 0.5719(3) 0.1894(2)
C57 C 0.42875(17) 0.5522(3) 0.1999(2)
H47 H 0.4190 0.5727 0.2151
C58 C 0.41619(15) 0.5030(3) 0.18842(17)
H48 H 0.3980 0.4903 0.1958
C59 C 0.46858(19) 0.6257(4) 0.2012(3)
H49 H 0.4699 0.6287 0.2260
H50 H 0.4549 0.6537 0.1898
H51 H 0.4894 0.6296 0.1955
C60 C 0.4375(4) 0.3841(7) 0.1589(4)
H52 H 0.4588 0.3907 0.1677
C61 C 0.4267(4) 0.3288(7) 0.1484(4)
C62 C 0.4462(5) 0.2885(8) 0.1486(6)
H53 H 0.4679 0.2929 0.1561
C63 C 0.4337(5) 0.2394(9) 0.1375(6)
H54 H 0.4468 0.2089 0.1401
C64 C 0.4038(5) 0.2340(7) 0.1231(5)
C65 C 0.3940(3) 0.1363(7) 0.1266(5)
H55 H 0.4018 0.1382 0.1504
C66 C 0.3913(4) 0.1821(8) 0.1077(6)
C67 C 0.3801(6) 0.1785(8) 0.0734(7)
H56 H 0.3784 0.2098 0.0598
C68 C 0.3709(6) 0.1283(9) 0.0577(5)
H57 H 0.3617 0.1257 0.0343
C69 C 0.3759(4) 0.0845(8) 0.0781(6)
C70 C 0.3714(5) 0.0327(8) 0.0639(5)
H58 H 0.3651 0.0285 0.0399
C71 C 0.3733(2) -0.0579(3) 0.0678(2)
C72 C 0.35599(18) -0.0984(4) 0.0796(2)
H59 H 0.3443 -0.0911 0.0970
C73 C 0.3559(2) -0.1495(4) 0.0658(2)
H60 H 0.3441 -0.1768 0.0740
C74 C 0.3730(3) -0.1613(4) 0.04010(19)
C75 C 0.3903(3) -0.1203(5) 0.02864(16)
H61 H 0.4021 -0.1275 0.0113
C76 C 0.3905(3) -0.0691(4) 0.04230(19)
H62 H 0.4023 -0.0417 0.0342
C77 C 0.3723(4) -0.2163(5) 0.0247(2)
H63 H 0.3709 -0.2133 -0.0001
H64 H 0.3542 -0.2357 0.0297
H65 H 0.3913 -0.2355 0.0345
C78 C 0.4010(2) -0.1015(4) 0.16932(17)
C79 C 0.4284(2) -0.0899(4) 0.19200(18)
H66 H 0.4325 -0.0545 0.2000
C80 C 0.4499(2) -0.1302(5) 0.20295(18)
H67 H 0.4684 -0.1219 0.2184
C81 C 0.4444(2) -0.1828(4) 0.1916(2)
C82 C 0.4169(2) -0.1938(3) 0.1687(2)
H68 H 0.4128 -0.2291 0.1606
C83 C 0.39534(18) -0.1536(3) 0.15768(18)
H69 H 0.3768 -0.1618 0.1422
C84 C 0.4673(3) -0.2264(5) 0.2041(3)
H70 H 0.4861 -0.2109 0.2176
H71 H 0.4727 -0.2455 0.1845
H72 H 0.4579 -0.2513 0.2183
C85 C 0.3503(4) -0.0711(7) 0.1616(4)
H73 H 0.3453 -0.1039 0.1713
N24 N 0.33718(17) 0.0145(4) 0.1363(2)
C86 C 0.3268(2) -0.0316(4) 0.1500(3)
C87 C 0.2953(3) -0.0380(4) 0.1509(3)
H74 H 0.2882 -0.0695 0.1602
C88 C 0.27436(18) 0.0018(5) 0.1381(3)
H75 H 0.2529 -0.0026 0.1387
C89 C 0.2848(2) 0.0479(5) 0.1244(3)
C90 C 0.3162(2) 0.0542(3) 0.1236(2)
H76 H 0.3233 0.0858 0.1142
C91 C 0.2419(4) 0.1120(7) 0.1280(5)
H77 H 0.2442 0.1041 0.1517
C92 C 0.2620(4) 0.0895(7) 0.1102(5)
C93 C 0.2611(5) 0.1055(10) 0.0771(7)
H78 H 0.2762 0.0934 0.0645
C94 C 0.2375(5) 0.1397(9) 0.0624(5)
H79 H 0.2363 0.1510 0.0394
C95 C 0.2159(4) 0.1571(7) 0.0809(5)
C96 C 0.1892(4) 0.1896(8) 0.0660(5)
H80 H 0.1860 0.2000 0.0427
C97 C 0.1446(3) 0.2371(4) 0.0769(4)
C98 C 0.1437(4) 0.2793(4) 0.0540(4)
H81 H 0.1624 0.2911 0.0471
C99 C 0.1156(5) 0.3044(4) 0.0411(4)
H82 H 0.1153 0.3332 0.0255
C100 C 0.0878(4) 0.2879(4) 0.0507(4)
C101 C 0.0890(3) 0.2455(3) 0.0738(3)
H83 H 0.0704 0.2338 0.0808
C102 C 0.1171(3) 0.2202(3) 0.0868(3)
H84 H 0.1174 0.1915 0.1025
C103 C 0.0574(5) 0.3142(5) 0.0361(5)
H85 H 0.0609 0.3421 0.0199
H86 H 0.0484 0.3301 0.0546
H87 H 0.0430 0.2876 0.0241
C104 C 0.1396(3) 0.0904(4) 0.1250(3)
C105 C 0.1406(2) 0.0855(4) 0.0902(3)
H88 H 0.1585 0.0969 0.0817
C106 C 0.1154(3) 0.0639(3) 0.0679(3)
H89 H 0.1162 0.0608 0.0443
C107 C 0.0887(3) 0.0466(3) 0.0799(3)
C108 C 0.0881(3) 0.0520(4) 0.1148(3)
H90 H 0.0702 0.0407 0.1234
C109 C 0.1132(3) 0.0736(4) 0.1372(3)
H91 H 0.1124 0.0768 0.1608
C110 C 0.0618(3) 0.0221(4) 0.0559(4)
H92 H 0.0519 -0.0048 0.0682
H93 H 0.0694 0.0052 0.0368
H94 H 0.0467 0.0498 0.0472
C111 C 0.1755(4) 0.0916(7) 0.1733(5)
H95 H 0.1678 0.0576 0.1781
C112 C 0.2002(4) 0.1172(7) 0.1988(5)
C113 C 0.2123(5) 0.0941(7) 0.2274(5)
H96 H 0.2068 0.0585 0.2319
C114 C 0.2344(4) 0.1233(7) 0.2525(5)
H97 H 0.2443 0.1069 0.2731
C115 C 0.2403(4) 0.1754(7) 0.2452(5)
C116 C 0.2280(4) 0.1944(7) 0.2136(5)
H98 H 0.2342 0.2290 0.2079
C117 C 0.2876(4) 0.1930(7) 0.2881(5)
H99 H 0.2964 0.1615 0.2806
C118 C 0.2583(4) 0.2085(6) 0.2707(4)
C119 C 0.2475(4) 0.2588(8) 0.2804(5)
H100 H 0.2288 0.2735 0.2682
C120 C 0.2644(5) 0.2857(6) 0.3074(5)
H101 H 0.2568 0.3185 0.3145
C121 C 0.3096(5) 0.2896(7) 0.3527(5)
H102 H 0.3023 0.3215 0.3615
C122 C 0.2919(5) 0.2657(8) 0.3240(5)
C123 C 0.3526(2) 0.2942(4) 0.3968(2)
C124 C 0.3390(2) 0.2921(4) 0.4259(3)
H103 H 0.3190 0.2767 0.4247
C125 C 0.3548(2) 0.3125(4) 0.4569(2)
H104 H 0.3453 0.3109 0.4766
C126 C 0.3843(2) 0.3354(4) 0.4594(2)
C127 C 0.3977(2) 0.3373(4) 0.4298(2)
H105 H 0.4176 0.3528 0.4309
C128 C 0.3820(2) 0.3170(3) 0.3988(2)
H106 H 0.3914 0.3186 0.3791
C129 C 0.4016(3) 0.3562(5) 0.4930(3)
H107 H 0.4144 0.3277 0.5050
H108 H 0.3866 0.3683 0.5070
H109 H 0.4149 0.3860 0.4888
C130 C 0.4555(2) -0.0058(4) 0.1225(2)
C131 C 0.4516(3) -0.0565(5) 0.1079(3)
H110 H 0.4358 -0.0794 0.1132
C132 C 0.4708(3) -0.0735(5) 0.0855(3)
H111 H 0.4680 -0.1080 0.0758
C133 C 0.4942(3) -0.0404(5) 0.0772(3)
C134 C 0.4979(3) 0.0102(5) 0.0922(3)
H112 H 0.5137 0.0332 0.0870
C135 C 0.4787(3) 0.0275(4) 0.1146(2)
H113 H 0.4816 0.0620 0.1245
C136 C 0.5144(3) -0.0585(6) 0.0524(3)
H114 H 0.5111 -0.0965 0.0477
H115 H 0.5363 -0.0523 0.0623
H116 H 0.5090 -0.0383 0.0311
C137 C 0.4493(4) 0.0403(7) 0.1712(5)
H117 H 0.4710 0.0466 0.1752
C138 C 0.4300(4) 0.0578(7) 0.1957(5)
C139 C 0.4417(4) 0.0815(8) 0.2243(5)
H118 H 0.4630 0.0918 0.2289
C140 C 0.4215(4) 0.0920(7) 0.2494(5)
H119 H 0.4294 0.1094 0.2704
C141 C 0.3849(4) 0.2776(7) 0.1228(4)
H120 H 0.3634 0.2746 0.1135
C142 C 0.3919(4) 0.0768(5) 0.2423(4)
C143 C 0.3809(4) 0.0536(6) 0.2105(5)
H121 H 0.3595 0.0441 0.2050
C144 C 0.3714(3) 0.1276(6) 0.2859(4)
H122 H 0.3817 0.1578 0.2789
C145 C 0.3723(4) 0.0801(7) 0.2688(4)
C146 C 0.3575(4) 0.0376(7) 0.2802(5)
H123 H 0.3575 0.0044 0.2688
C147 C 0.3426(4) 0.0416(7) 0.3079(5)
H124 H 0.3324 0.0119 0.3158
C148 C 0.3431(4) 0.0887(8) 0.3232(4)
C149 C 0.3291(3) 0.0950(8) 0.3547(4)
H125 H 0.3204 0.0653 0.3644
C150 C 0.3158(3) 0.1463(5) 0.3975(3)
C151 C 0.3302(3) 0.1242(6) 0.4285(4)
H126 H 0.3486 0.1038 0.4295
C152 C 0.3175(3) 0.1318(6) 0.4580(3)
H127 H 0.3275 0.1165 0.4789
C153 C 0.2903(3) 0.1618(6) 0.4572(3)
C154 C 0.2761(3) 0.1836(5) 0.4259(3)
H128 H 0.2576 0.2039 0.4248
C155 C 0.2886(3) 0.1761(5) 0.3963(3)
H129 H 0.2787 0.1913 0.3753
C156 C 0.2772(5) 0.1711(9) 0.4893(4)
H130 H 0.2888 0.1498 0.5080
H131 H 0.2553 0.1605 0.4853
H132 H 0.2789 0.2089 0.4953
F1 F 0.3145(5) 0.1461(7) 0.2161(5)
F2 F 0.3329(5) 0.2549(8) 0.1611(5)
F3 F 0.3404(4) 0.1504(7) 0.1626(5)
F4 F 0.3618(4) 0.2077(8) 0.2158(5)
F5 F 0.2856(3) 0.1921(7) 0.1612(5)
F6 F 0.3073(4) 0.2481(7) 0.2148(5)
Sb1 Sb 0.32367(3) 0.19973(5) 0.18738(3)
F7 F 0.4904(4) 0.3747(8) 0.1159(4)
F8 F 0.5258(4) 0.3737(7) 0.1723(4)
F9 F 0.5356(4) 0.3995(8) 0.0864(5)
F10 F 0.5732(4) 0.3957(8) 0.1466(5)
F11 F 0.5402(3) 0.3152(6) 0.1230(4)
F12 F 0.5253(4) 0.4545(8) 0.1360(5)
Sb2 Sb 0.53254(4) 0.38648(9) 0.13020(6)
F13 F 0.0845(5) 0.4457(10) 0.0928(7)
F14 F 0.0816(5) 0.3949(12) 0.1483(7)
F15 F 0.1383(5) 0.4170(6) 0.1752(4)
F16 F 0.1375(4) 0.4801(6) 0.1237(4)
F17 F 0.1279(5) 0.3805(6) 0.1155(4)
F18 F 0.0943(6) 0.4871(9) 0.1555(7)
Sb3 Sb 0.11201(8) 0.43272(10) 0.13667(9)
F19 F 0.7576(4) 0.3042(7) 0.1223(4)
F20 F 0.8101(4) 0.3463(6) 0.1175(4)
F21 F 0.8349(6) 0.2603(11) 0.1341(7)
F22 F 0.7832(5) 0.2189(9) 0.1414(6)
F23 F 0.8029(5) 0.3076(8) 0.1721(5)
F24 F 0.7902(4) 0.2635(8) 0.0820(5)
Sb4 Sb 0.79700(5) 0.28188(10) 0.12895(7)
F25 F 0.7762(4) 0.0521(6) 0.1713(4)
F26 F 0.7284(3) 0.0634(5) 0.1839(4)
F27 F 0.7608(4) 0.0020(6) 0.2133(4)
F28 F 0.7668(4) -0.0368(7) 0.1636(5)
F29 F 0.7339(4) 0.0243(7) 0.1342(4)
F30 F 0.7182(3) -0.0251(6) 0.1755(5)
P1 P 0.74785(11) 0.0120(2) 0.17479(16)
P2 P 0.5102(3) 0.1583(5) 0.1824(3)
F31 F 0.4815(3) 0.1798(6) 0.1989(4)
F32 F 0.4867(4) 0.1336(6) 0.1519(4)
F33 F 0.5329(4) 0.1856(6) 0.2139(4)
F34 F 0.5395(4) 0.1385(6) 0.1677(4)
F35 F 0.5100(4) 0.2129(6) 0.1606(4)
F36 F 0.5105(3) 0.1045(5) 0.2041(4)
P3 P 0.70303(13) 0.44202(18) 0.17816(16)
F37 F 0.7110(6) 0.4989(8) 0.1639(6)
F38 F 0.7357(6) 0.4163(10) 0.1736(7)
F39 F 0.6686(6) 0.4633(13) 0.1631(8)
F40 F 0.6987(9) 0.4246(14) 0.1380(6)
F41 F 0.6929(6) 0.4715(9) 0.2112(7)
F42 F 0.6860(4) 0.3897(6) 0.1827(5)
loop_
_geom_bond_atom_site_label_1
_geom_bond_atom_site_label_2
_geom_bond_site_symmetry_1
_geom_bond_site_symmetry_2
Co1 N1 1_555 1_555
Co2 N3 1_555 1_555
Co3 N9 1_555 1_555
Co4 N6 1_555 1_555
N1 C1 1_555 1_555
N2 Co1 1_555 1_555
N3 C14 1_555 1_555
N4 Co2 1_555 1_555
N5 Co1 1_555 1_555
N6 C45 1_555 1_555
N7 Co1 1_555 1_555
N8 Co1 1_555 1_555
N9 C65 1_555 1_555
N10 Co3 1_555 1_555
N11 Co3 1_555 1_555
N12 Co4 1_555 1_555
N13 Co4 1_555 1_555
N14 Co4 1_555 1_555
N15 Co4 1_555 1_555
N16 Co2 1_555 1_555
N17 Co2 1_555 1_555
N18 Co3 1_555 1_555
N19 Co3 1_555 1_555
N20 Co2 1_555 1_555
N21 Co2 1_555 1_555
C1 C2 1_555 1_555
C2 H1 1_555 1_555
C3 C2 1_555 1_555
H2 C3 1_555 1_555
C4 C3 1_555 1_555
C5 C4 1_555 1_555
H3 C5 1_555 1_555
C6 C1 1_555 1_555
H4 C6 1_555 1_555
C7 C4 1_555 1_555
H5 C7 1_555 1_555
H6 C7 1_555 1_555
H7 C7 1_555 1_555
C8 N1 1_555 1_555
H8 C8 1_555 1_555
C9 N2 1_555 1_555
C10 C9 1_555 1_555
H9 C10 1_555 1_555
C11 C10 1_555 1_555
H10 C11 1_555 1_555
C12 C11 1_555 1_555
C13 N2 1_555 1_555
H11 C13 1_555 1_555
C14 H12 1_555 1_555
C15 C12 1_555 1_555
C16 C15 1_555 1_555
H13 C16 1_555 1_555
C17 C16 1_555 1_555
H14 C17 1_555 1_555
C18 N3 1_555 1_555
C19 N4 1_555 1_555
H15 C19 1_555 1_555
C20 N4 1_555 1_555
C21 C20 1_555 1_555
H16 C21 1_555 1_555
C22 C21 1_555 1_555
H17 C22 1_555 1_555
C23 C22 1_555 1_555
C24 C23 1_555 1_555
H18 C24 1_555 1_555
C25 C20 1_555 1_555
H19 C25 1_555 1_555
C26 C23 1_555 1_555
H20 C26 1_555 1_555
H21 C26 1_555 1_555
H22 C26 1_555 1_555
C27 N5 1_555 1_555
C28 C27 1_555 1_555
H23 C28 1_555 1_555
C29 C28 1_555 1_555
H24 C29 1_555 1_555
C30 C29 1_555 1_555
C31 C30 1_555 1_555
H25 C31 1_555 1_555
C32 C27 1_555 1_555
H26 C32 1_555 1_555
C33 C30 1_555 1_555
H27 C33 1_555 1_555
H28 C33 1_555 1_555
H29 C33 1_555 1_555
C34 N5 1_555 1_555
H30 C34 1_555 1_555
N22 Co1 1_555 1_555
C35 C34 1_555 1_555
C36 C35 1_555 1_555
H31 C36 1_555 1_555
C37 C36 1_555 1_555
H32 C37 1_555 1_555
C38 C37 1_555 1_555
C39 N22 1_555 1_555
H33 C39 1_555 1_555
N23 Co4 1_555 1_555
C40 N23 1_555 1_555
H34 C40 1_555 1_555
C41 C38 1_555 1_555
C42 C41 1_555 1_555
H35 C42 1_555 1_555
C43 C42 1_555 1_555
H36 C43 1_555 1_555
C44 N23 1_555 1_555
C45 C44 1_555 1_555
H37 C45 1_555 1_555
C46 N6 1_555 1_555
C47 C46 1_555 1_555
H38 C47 1_555 1_555
C48 C47 1_555 1_555
H39 C48 1_555 1_555
C49 C48 1_555 1_555
C50 C49 1_555 1_555
H40 C50 1_555 1_555
C51 C46 1_555 1_555
H41 C51 1_555 1_555
C52 C49 1_555 1_555
H42 C52 1_555 1_555
H43 C52 1_555 1_555
H44 C52 1_555 1_555
C53 N7 1_555 1_555
C54 C53 1_555 1_555
H45 C54 1_555 1_555
C55 C54 1_555 1_555
H46 C55 1_555 1_555
C56 C55 1_555 1_555
C57 C56 1_555 1_555
H47 C57 1_555 1_555
C58 C53 1_555 1_555
H48 C58 1_555 1_555
C59 C56 1_555 1_555
H49 C59 1_555 1_555
H50 C59 1_555 1_555
H51 C59 1_555 1_555
C60 N7 1_555 1_555
H52 C60 1_555 1_555
C61 N8 1_555 1_555
C62 C61 1_555 1_555
H53 C62 1_555 1_555
C63 C62 1_555 1_555
H54 C63 1_555 1_555
C64 C63 1_555 1_555
C65 H55 1_555 1_555
C66 C64 1_555 1_555
C67 C66 1_555 1_555
H56 C67 1_555 1_555
C68 C67 1_555 1_555
H57 C68 1_555 1_555
C69 N9 1_555 1_555
C70 N10 1_555 1_555
H58 C70 1_555 1_555
C71 N10 1_555 1_555
C72 C71 1_555 1_555
H59 C72 1_555 1_555
C73 C72 1_555 1_555
H60 C73 1_555 1_555
C74 C73 1_555 1_555
C75 C74 1_555 1_555
H61 C75 1_555 1_555
C76 C71 1_555 1_555
H62 C76 1_555 1_555
C77 C74 1_555 1_555
H63 C77 1_555 1_555
H64 C77 1_555 1_555
H65 C77 1_555 1_555
C78 N11 1_555 1_555
C79 C78 1_555 1_555
H66 C79 1_555 1_555
C80 C79 1_555 1_555
H67 C80 1_555 1_555
C81 C80 1_555 1_555
C82 C81 1_555 1_555
H68 C82 1_555 1_555
C83 C78 1_555 1_555
H69 C83 1_555 1_555
C84 C81 1_555 1_555
H70 C84 1_555 1_555
H71 C84 1_555 1_555
H72 C84 1_555 1_555
C85 N11 1_555 1_555
H73 C85 1_555 1_555
N24 Co3 1_555 1_555
C86 C85 1_555 1_555
C87 C86 1_555 1_555
H74 C87 1_555 1_555
C88 C87 1_555 1_555
H75 C88 1_555 1_555
C89 C88 1_555 1_555
C90 N24 1_555 1_555
H76 C90 1_555 1_555
C91 N12 1_555 1_555
H77 C91 1_555 1_555
C92 C89 1_555 1_555
C93 C92 1_555 1_555
H78 C93 1_555 1_555
C94 C93 1_555 1_555
H79 C94 1_555 1_555
C95 N12 1_555 1_555
C96 N13 1_555 1_555
H80 C96 1_555 1_555
C97 N13 1_555 1_555
C98 C97 1_555 1_555
H81 C98 1_555 1_555
C99 C98 1_555 1_555
H82 C99 1_555 1_555
C100 C99 1_555 1_555
C101 C100 1_555 1_555
H83 C101 1_555 1_555
C102 C97 1_555 1_555
H84 C102 1_555 1_555
C103 C100 1_555 1_555
H85 C103 1_555 1_555
H86 C103 1_555 1_555
H87 C103 1_555 1_555
C104 N14 1_555 1_555
C105 C104 1_555 1_555
H88 C105 1_555 1_555
C106 C105 1_555 1_555
H89 C106 1_555 1_555
C107 C106 1_555 1_555
C108 C107 1_555 1_555
H90 C108 1_555 1_555
C109 C104 1_555 1_555
H91 C109 1_555 1_555
C110 C107 1_555 1_555
H92 C110 1_555 1_555
H93 C110 1_555 1_555
H94 C110 1_555 1_555
C111 N14 1_555 1_555
H95 C111 1_555 1_555
C112 N15 1_555 1_555
C113 C112 1_555 1_555
H96 C113 1_555 1_555
C114 C113 1_555 1_555
H97 C114 1_555 1_555
C115 C114 1_555 1_555
C116 N15 1_555 1_555
H98 C116 1_555 1_555
C117 N16 1_555 1_555
H99 C117 1_555 1_555
C118 C115 1_555 1_555
C119 C118 1_555 1_555
H100 C119 1_555 1_555
C120 C119 1_555 1_555
H101 C120 1_555 1_555
C121 N17 1_555 1_555
H102 C121 1_555 1_555
C122 N16 1_555 1_555
C123 N17 1_555 1_555
C124 C123 1_555 1_555
H103 C124 1_555 1_555
C125 C124 1_555 1_555
H104 C125 1_555 1_555
C126 C125 1_555 1_555
C127 C126 1_555 1_555
H105 C127 1_555 1_555
C128 C123 1_555 1_555
H106 C128 1_555 1_555
C129 C126 1_555 1_555
H107 C129 1_555 1_555
H108 C129 1_555 1_555
H109 C129 1_555 1_555
C130 N18 1_555 1_555
C131 C130 1_555 1_555
H110 C131 1_555 1_555
C132 C131 1_555 1_555
H111 C132 1_555 1_555
C133 C132 1_555 1_555
C134 C133 1_555 1_555
H112 C134 1_555 1_555
C135 C130 1_555 1_555
H113 C135 1_555 1_555
C136 C133 1_555 1_555
H114 C136 1_555 1_555
H115 C136 1_555 1_555
H116 C136 1_555 1_555
C137 N18 1_555 1_555
H117 C137 1_555 1_555
C138 N19 1_555 1_555
C139 C138 1_555 1_555
H118 C139 1_555 1_555
C140 C139 1_555 1_555
H119 C140 1_555 1_555
C141 N8 1_555 1_555
H120 C141 1_555 1_555
C142 C140 1_555 1_555
C143 N19 1_555 1_555
H121 C143 1_555 1_555
C144 N20 1_555 1_555
H122 C144 1_555 1_555
C145 C142 1_555 1_555
C146 C145 1_555 1_555
H123 C146 1_555 1_555
C147 C146 1_555 1_555
H124 C147 1_555 1_555
C148 N20 1_555 1_555
C149 N21 1_555 1_555
H125 C149 1_555 1_555
C150 N21 1_555 1_555
C151 C150 1_555 1_555
H126 C151 1_555 1_555
C152 C151 1_555 1_555
H127 C152 1_555 1_555
C153 C152 1_555 1_555
C154 C153 1_555 1_555
H128 C154 1_555 1_555
C155 C150 1_555 1_555
H129 C155 1_555 1_555
C156 C153 1_555 1_555
H130 C156 1_555 1_555
H131 C156 1_555 1_555
H132 C156 1_555 1_555
F1 Sb1 1_555 1_555
F2 Sb1 1_555 1_555
F3 Sb1 1_555 1_555
F4 Sb1 1_555 1_555
F5 Sb1 1_555 1_555
F6 Sb1 1_555 1_555
F7 Sb2 1_555 1_555
F8 Sb2 1_555 1_555
F9 Sb2 1_555 1_555
F10 Sb2 1_555 1_555
F11 Sb2 1_555 1_555
F12 Sb2 1_555 1_555
F13 Sb3 1_555 1_555
F14 Sb3 1_555 1_555
F15 Sb3 1_555 1_555
F16 Sb3 1_555 1_555
F17 Sb3 1_555 1_555
F18 Sb3 1_555 1_555
F19 Sb4 1_555 1_555
F20 Sb4 1_555 1_555
F21 Sb4 1_555 1_555
F22 Sb4 1_555 1_555
F23 Sb4 1_555 1_555
F24 Sb4 1_555 1_555
F25 P1 1_555 1_555
F26 P1 1_555 1_555
F27 P1 1_555 1_555
F28 P1 1_555 1_555
F29 P1 1_555 1_555
F30 P1 1_555 1_555
P2 F31 1_555 1_555
F32 P2 1_555 1_555
F33 P2 1_555 1_555
F34 P2 1_555 1_555
F35 P2 1_555 1_555
F36 P2 1_555 1_555
P3 F37 1_555 1_555
F38 P3 1_555 1_555
F39 P3 1_555 1_555
F40 P3 1_555 1_555
F41 P3 1_555 1_555
F42 P3 1_555 1_555
C5 C6 1_555 1_555
C8 C9 1_555 1_555
C12 C13 1_555 1_555
C14 C15 1_555 1_555
C17 C18 1_555 1_555
C18 C19 1_555 1_555
C24 C25 1_555 1_555
C31 C32 1_555 1_555
N22 C35 1_555 1_555
C38 C39 1_555 1_555
C40 C41 1_555 1_555
C43 C44 1_555 1_555
C50 C51 1_555 1_555
C57 C58 1_555 1_555
C60 C61 1_555 1_555
C64 C141 1_555 1_555
C65 C66 1_555 1_555
C68 C69 1_555 1_555
C69 C70 1_555 1_555
C75 C76 1_555 1_555
C82 C83 1_555 1_555
N24 C86 1_555 1_555
C89 C90 1_555 1_555
C91 C92 1_555 1_555
C94 C95 1_555 1_555
C95 C96 1_555 1_555
C101 C102 1_555 1_555
C108 C109 1_555 1_555
C111 C112 1_555 1_555
C115 C116 1_555 1_555
C117 C118 1_555 1_555
C120 C122 1_555 1_555
C121 C122 1_555 1_555
C127 C128 1_555 1_555
C134 C135 1_555 1_555
C137 C138 1_555 1_555
C142 C143 1_555 1_555
C144 C145 1_555 1_555
C147 C148 1_555 1_555
C148 C149 1_555 1_555
C154 C155 1_555 1_555

#END
