# generated using pymatgen
data_Zn10H372C432Br3N60Cl15O104
_symmetry_space_group_name_H-M   'P 1'
_cell_length_a   21.48140000
_cell_length_b   30.51400000
_cell_length_c   34.02200000
_cell_angle_alpha   90.00000000
_cell_angle_beta   97.39900000
_cell_angle_gamma   90.00000000
_symmetry_Int_Tables_number   1
_chemical_formula_structural   Zn10H372C432Br3N60Cl15O104
_chemical_formula_sum   'Zn20 H744 C864 Br6 N120 Cl30 O208'
_cell_volume   22115.16748744
_cell_formula_units_Z   2
loop_
 _symmetry_equiv_pos_site_id
 _symmetry_equiv_pos_as_xyz
  1  'x, y, z'
loop_
 _atom_site_type_symbol
 _atom_site_label
 _atom_site_symmetry_multiplicity
 _atom_site_fract_x
 _atom_site_fract_y
 _atom_site_fract_z
 _atom_site_occupancy
  Zn  Zn1  1  0.520200  0.037840  0.298350  1.0
  Zn  Zn2  1  0.979800  0.037840  0.201650  1.0
  Zn  Zn3  1  0.479800  0.962160  0.701650  1.0
  Zn  Zn4  1  0.020200  0.962160  0.798350  1.0
  Zn  Zn5  1  0.636020  0.077300  0.069180  1.0
  Zn  Zn6  1  0.863980  0.077300  0.430820  1.0
  Zn  Zn7  1  0.363980  0.922700  0.930820  1.0
  Zn  Zn8  1  0.136020  0.922700  0.569180  1.0
  Zn  Zn9  1  0.655830  0.343090  0.018150  1.0
  Zn  Zn10  1  0.844170  0.343090  0.481850  1.0
  Zn  Zn11  1  0.344170  0.656910  0.981850  1.0
  Zn  Zn12  1  0.155830  0.656910  0.518150  1.0
  Zn  Zn13  1  0.558100  0.482530  0.222970  1.0
  Zn  Zn14  1  0.941900  0.482530  0.277030  1.0
  Zn  Zn15  1  0.441900  0.517470  0.777030  1.0
  Zn  Zn16  1  0.058100  0.517470  0.722970  1.0
  Zn  Zn17  1  0.481700  0.295260  0.397090  1.0
  Zn  Zn18  1  0.018300  0.295260  0.102910  1.0
  Zn  Zn19  1  0.518300  0.704740  0.602910  1.0
  Zn  Zn20  1  0.981700  0.704740  0.897090  1.0
  H  H21  1  0.441900  0.909300  0.340800  1
  H  H22  1  0.058100  0.909300  0.159200  1
  H  H23  1  0.558100  0.090700  0.659200  1
  H  H24  1  0.941900  0.090700  0.840800  1
  H  H25  1  0.454900  0.837200  0.320300  1
  H  H26  1  0.045100  0.837200  0.179700  1
  H  H27  1  0.545100  0.162800  0.679700  1
  H  H28  1  0.954900  0.162800  0.820300  1
  H  H29  1  0.462400  0.879600  0.208000  1
  H  H30  1  0.037600  0.879600  0.292000  1
  H  H31  1  0.537600  0.120400  0.792000  1
  H  H32  1  0.962400  0.120400  0.708000  1
  H  H33  1  0.449500  0.951800  0.228400  1
  H  H34  1  0.050500  0.951800  0.271600  1
  H  H35  1  0.550500  0.048200  0.771600  1
  H  H36  1  0.949500  0.048200  0.728400  1
  H  H37  1  0.466800  0.784200  0.271200  1
  H  H38  1  0.033200  0.784200  0.228800  1
  H  H39  1  0.533200  0.215800  0.728800  1
  H  H40  1  0.966800  0.215800  0.771200  1
  H  H41  1  0.506000  0.800800  0.237200  1
  H  H42  1  0.994000  0.800800  0.262800  1
  H  H43  1  0.494000  0.199200  0.762800  1
  H  H44  1  0.006000  0.199200  0.737200  1
  H  H45  1  0.431200  0.796500  0.228400  1
  H  H46  1  0.068800  0.796500  0.271600  1
  H  H47  1  0.568800  0.203500  0.771600  1
  H  H48  1  0.931200  0.203500  0.728400  1
  H  H49  1  0.421000  0.478800  0.168900  1
  H  H50  1  0.079000  0.478800  0.331100  1
  H  H51  1  0.579000  0.521200  0.831100  1
  H  H52  1  0.921000  0.521200  0.668900  1
  H  H53  1  0.311300  0.479500  0.162400  1
  H  H54  1  0.188700  0.479500  0.337600  1
  H  H55  1  0.688700  0.520500  0.837600  1
  H  H56  1  0.811300  0.520500  0.662400  1
  H  H57  1  0.313600  0.371500  0.232200  1
  H  H58  1  0.186400  0.371500  0.267800  1
  H  H59  1  0.686400  0.628500  0.767800  1
  H  H60  1  0.813600  0.628500  0.732200  1
  H  H61  1  0.423300  0.370700  0.238700  1
  H  H62  1  0.076700  0.370700  0.261300  1
  H  H63  1  0.576700  0.629300  0.761300  1
  H  H64  1  0.923300  0.629300  0.738700  1
  H  H65  1  0.215100  0.400900  0.206400  1
  H  H66  1  0.284900  0.400900  0.293600  1
  H  H67  1  0.784900  0.599100  0.793600  1
  H  H68  1  0.715100  0.599100  0.706400  1
  H  H69  1  0.213900  0.422000  0.163300  1
  H  H70  1  0.286100  0.422000  0.336700  1
  H  H71  1  0.786100  0.578000  0.836700  1
  H  H72  1  0.713900  0.578000  0.663300  1
  H  H73  1  0.214700  0.453000  0.201200  1
  H  H74  1  0.285300  0.453000  0.298800  1
  H  H75  1  0.785300  0.547000  0.798800  1
  H  H76  1  0.714700  0.547000  0.701200  1
  H  H77  1  0.321800  0.331800  0.326400  1
  H  H78  1  0.178200  0.331800  0.173600  1
  H  H79  1  0.678200  0.668200  0.673600  1
  H  H80  1  0.821800  0.668200  0.826400  1
  H  H81  1  0.218200  0.307500  0.324200  1
  H  H82  1  0.281800  0.307500  0.175800  1
  H  H83  1  0.781800  0.692500  0.675800  1
  H  H84  1  0.718200  0.692500  0.824200  1
  H  H85  1  0.279500  0.181700  0.334500  1
  H  H86  1  0.220500  0.181700  0.165500  1
  H  H87  1  0.720500  0.818300  0.665500  1
  H  H88  1  0.779500  0.818300  0.834500  1
  H  H89  1  0.383200  0.206000  0.336700  1
  H  H90  1  0.116800  0.206000  0.163300  1
  H  H91  1  0.616800  0.794000  0.663300  1
  H  H92  1  0.883200  0.794000  0.836700  1
  H  H93  1  0.142400  0.251500  0.324000  1
  H  H94  1  0.357600  0.251500  0.176000  1
  H  H95  1  0.857600  0.748500  0.676000  1
  H  H96  1  0.642400  0.748500  0.824000  1
  H  H97  1  0.165300  0.209900  0.350700  1
  H  H98  1  0.334700  0.209900  0.149300  1
  H  H99  1  0.834700  0.790100  0.649300  1
  H  H100  1  0.665300  0.790100  0.850700  1
  H  H101  1  0.161300  0.207100  0.303500  1
  H  H102  1  0.338700  0.207100  0.196500  1
  H  H103  1  0.838700  0.792900  0.696500  1
  H  H104  1  0.661300  0.792900  0.803500  1
  H  H105  1  0.780200  0.377400  0.928500  1.0
  H  H106  1  0.719800  0.377400  0.571500  1.0
  H  H107  1  0.219800  0.622600  0.071500  1.0
  H  H108  1  0.280200  0.622600  0.428500  1.0
  H  H109  1  0.824100  0.329700  0.885900  1.0
  H  H110  1  0.675900  0.329700  0.614100  1.0
  H  H111  1  0.175900  0.670300  0.114100  1.0
  H  H112  1  0.324100  0.670300  0.385900  1.0
  H  H113  1  0.839900  0.235800  0.971100  1.0
  H  H114  1  0.660100  0.235800  0.528900  1.0
  H  H115  1  0.160100  0.764200  0.028900  1.0
  H  H116  1  0.339900  0.764200  0.471100  1.0
  H  H117  1  0.796000  0.283500  0.013700  1.0
  H  H118  1  0.704000  0.283500  0.486300  1.0
  H  H119  1  0.204000  0.716500  0.986300  1.0
  H  H120  1  0.296000  0.716500  0.513700  1.0
  H  H121  1  0.835700  0.225400  0.885800  1.0
  H  H122  1  0.664300  0.225400  0.614200  1.0
  H  H123  1  0.164300  0.774600  0.114200  1.0
  H  H124  1  0.335700  0.774600  0.385800  1.0
  H  H125  1  0.902500  0.232400  0.911800  1.0
  H  H126  1  0.597500  0.232400  0.588200  1.0
  H  H127  1  0.097500  0.767600  0.088200  1.0
  H  H128  1  0.402500  0.767600  0.411800  1.0
  H  H129  1  0.880900  0.264200  0.875200  1.0
  H  H130  1  0.619100  0.264200  0.624800  1.0
  H  H131  1  0.119100  0.735800  0.124800  1.0
  H  H132  1  0.380900  0.735800  0.375200  1.0
  H  H133  1  0.790000  0.415200  0.990200  1.0
  H  H134  1  0.710000  0.415200  0.509800  1.0
  H  H135  1  0.210000  0.584800  0.009800  1.0
  H  H136  1  0.290000  0.584800  0.490200  1.0
  H  H137  1  0.774200  0.484400  0.026000  1.0
  H  H138  1  0.725800  0.484400  0.474000  1.0
  H  H139  1  0.225800  0.515600  0.974000  1.0
  H  H140  1  0.274200  0.515600  0.526000  1.0
  H  H141  1  0.714600  0.523500  0.067100  1.0
  H  H142  1  0.785400  0.523500  0.432900  1.0
  H  H143  1  0.285400  0.476500  0.932900  1.0
  H  H144  1  0.214600  0.476500  0.567100  1.0
  H  H145  1  0.604800  0.416700  0.075400  1.0
  H  H146  1  0.895200  0.416700  0.424600  1.0
  H  H147  1  0.395200  0.583300  0.924600  1.0
  H  H148  1  0.104800  0.583300  0.575400  1.0
  H  H149  1  0.616700  0.447700  0.143000  1.0
  H  H150  1  0.883300  0.447700  0.357000  1.0
  H  H151  1  0.383300  0.552300  0.857000  1.0
  H  H152  1  0.116700  0.552300  0.643000  1.0
  H  H153  1  0.607100  0.553000  0.069800  1.0
  H  H154  1  0.892900  0.553000  0.430200  1.0
  H  H155  1  0.392900  0.447000  0.930200  1.0
  H  H156  1  0.107100  0.447000  0.569800  1.0
  H  H157  1  0.546100  0.590100  0.111400  1.0
  H  H158  1  0.953900  0.590100  0.388600  1.0
  H  H159  1  0.453900  0.409900  0.888600  1.0
  H  H160  1  0.046100  0.409900  0.611400  1.0
  H  H161  1  0.489100  0.588300  0.173900  1.0
  H  H162  1  0.010900  0.588300  0.326100  1.0
  H  H163  1  0.510900  0.411700  0.826100  1.0
  H  H164  1  0.989100  0.411700  0.673900  1.0
  H  H165  1  0.511300  0.625400  0.231700  1.0
  H  H166  1  0.988700  0.625400  0.268300  1.0
  H  H167  1  0.488700  0.374600  0.768300  1.0
  H  H168  1  0.011300  0.374600  0.731700  1.0
  H  H169  1  0.470200  0.659200  0.284400  1.0
  H  H170  1  0.029800  0.659200  0.215600  1.0
  H  H171  1  0.529800  0.340800  0.715600  1.0
  H  H172  1  0.970200  0.340800  0.784400  1.0
  H  H173  1  0.383100  0.545800  0.307400  1.0
  H  H174  1  0.116900  0.545800  0.192600  1.0
  H  H175  1  0.616900  0.454200  0.692600  1.0
  H  H176  1  0.883100  0.454200  0.807400  1.0
  H  H177  1  0.424100  0.511900  0.254700  1.0
  H  H178  1  0.075900  0.511900  0.245300  1.0
  H  H179  1  0.575900  0.488100  0.745300  1.0
  H  H180  1  0.924100  0.488100  0.754700  1.0
  H  H181  1  0.373400  0.655500  0.325100  1.0
  H  H182  1  0.126600  0.655500  0.174900  1.0
  H  H183  1  0.626600  0.344500  0.674900  1.0
  H  H184  1  0.873400  0.344500  0.825100  1.0
  H  H185  1  0.427700  0.635100  0.356300  1.0
  H  H186  1  0.072300  0.635100  0.143700  1.0
  H  H187  1  0.572300  0.364900  0.643700  1.0
  H  H188  1  0.927700  0.364900  0.856300  1.0
  H  H189  1  0.363600  0.608800  0.344600  1.0
  H  H190  1  0.136400  0.608800  0.155400  1.0
  H  H191  1  0.636400  0.391200  0.655400  1.0
  H  H192  1  0.863600  0.391200  0.844600  1.0
  H  H193  1  0.704400  0.505400  0.192900  1.0
  H  H194  1  0.795600  0.505400  0.307100  1.0
  H  H195  1  0.295600  0.494600  0.807100  1.0
  H  H196  1  0.204400  0.494600  0.692900  1.0
  H  H197  1  0.758300  0.546100  0.149800  1.0
  H  H198  1  0.741700  0.546100  0.350200  1.0
  H  H199  1  0.241700  0.453900  0.850200  1.0
  H  H200  1  0.258300  0.453900  0.649800  1.0
  H  H201  1  0.694700  0.658800  0.193900  1.0
  H  H202  1  0.805300  0.658800  0.306100  1.0
  H  H203  1  0.305300  0.341200  0.806100  1.0
  H  H204  1  0.194700  0.341200  0.693900  1.0
  H  H205  1  0.640800  0.618200  0.237000  1.0
  H  H206  1  0.859200  0.618200  0.263000  1.0
  H  H207  1  0.359200  0.381800  0.763000  1.0
  H  H208  1  0.140800  0.381800  0.737000  1.0
  H  H209  1  0.810100  0.624900  0.141900  1.0
  H  H210  1  0.689900  0.624900  0.358100  1.0
  H  H211  1  0.189900  0.375100  0.858100  1.0
  H  H212  1  0.310100  0.375100  0.641900  1.0
  H  H213  1  0.761500  0.664300  0.144100  1.0
  H  H214  1  0.738500  0.664300  0.355900  1.0
  H  H215  1  0.238500  0.335700  0.855900  1.0
  H  H216  1  0.261500  0.335700  0.644100  1.0
  H  H217  1  0.746900  0.626700  0.111400  1.0
  H  H218  1  0.753100  0.626700  0.388600  1.0
  H  H219  1  0.253100  0.373300  0.888600  1.0
  H  H220  1  0.246900  0.373300  0.611400  1.0
  H  H221  1  0.646300  0.571200  0.288600  1.0
  H  H222  1  0.853700  0.571200  0.211400  1.0
  H  H223  1  0.353700  0.428800  0.711400  1.0
  H  H224  1  0.146300  0.428800  0.788600  1.0
  H  H225  1  0.609700  0.554300  0.355400  1.0
  H  H226  1  0.890300  0.554300  0.144600  1.0
  H  H227  1  0.390300  0.445700  0.644600  1.0
  H  H228  1  0.109700  0.445700  0.855400  1.0
  H  H229  1  0.551400  0.509500  0.392900  1.0
  H  H230  1  0.948600  0.509500  0.107100  1.0
  H  H231  1  0.448600  0.490500  0.607100  1.0
  H  H232  1  0.051400  0.490500  0.892900  1.0
  H  H233  1  0.499400  0.434100  0.296200  1.0
  H  H234  1  0.000600  0.434100  0.203800  1.0
  H  H235  1  0.500600  0.565900  0.703800  1.0
  H  H236  1  0.999400  0.565900  0.796200  1.0
  H  H237  1  0.520500  0.382500  0.347800  1.0
  H  H238  1  0.979500  0.382500  0.152200  1.0
  H  H239  1  0.479500  0.617500  0.652200  1.0
  H  H240  1  0.020500  0.617500  0.847800  1.0
  H  H241  1  0.436700  0.483600  0.397700  1.0
  H  H242  1  0.063300  0.483600  0.102300  1.0
  H  H243  1  0.563300  0.516400  0.602300  1.0
  H  H244  1  0.936700  0.516400  0.897700  1.0
  H  H245  1  0.384100  0.433900  0.434200  1.0
  H  H246  1  0.115900  0.433900  0.065800  1.0
  H  H247  1  0.615900  0.566100  0.565800  1.0
  H  H248  1  0.884100  0.566100  0.934200  1.0
  H  H249  1  0.366100  0.356100  0.454400  1.0
  H  H250  1  0.133900  0.356100  0.045600  1.0
  H  H251  1  0.633900  0.643900  0.545600  1.0
  H  H252  1  0.866100  0.643900  0.954400  1.0
  H  H253  1  0.396700  0.309800  0.506800  1.0
  H  H254  1  0.103300  0.309800  0.993200  1.0
  H  H255  1  0.603300  0.690200  0.493200  1.0
  H  H256  1  0.896700  0.690200  0.006800  1.0
  H  H257  1  0.377100  0.253400  0.550000  1.0
  H  H258  1  0.122900  0.253400  0.950000  1.0
  H  H259  1  0.622900  0.746600  0.450000  1.0
  H  H260  1  0.877100  0.746600  0.050000  1.0
  H  H261  1  0.337100  0.171000  0.456500  1.0
  H  H262  1  0.162900  0.171000  0.043500  1.0
  H  H263  1  0.662900  0.829000  0.543500  1.0
  H  H264  1  0.837100  0.829000  0.956500  1.0
  H  H265  1  0.356600  0.227400  0.413200  1.0
  H  H266  1  0.143400  0.227400  0.086800  1.0
  H  H267  1  0.643400  0.772600  0.586800  1.0
  H  H268  1  0.856600  0.772600  0.913200  1.0
  H  H269  1  0.378300  0.163500  0.554100  1.0
  H  H270  1  0.121700  0.163500  0.945900  1.0
  H  H271  1  0.621700  0.836500  0.445900  1.0
  H  H272  1  0.878300  0.836500  0.054100  1.0
  H  H273  1  0.327200  0.143800  0.520300  1.0
  H  H274  1  0.172800  0.143800  0.979700  1.0
  H  H275  1  0.672800  0.856200  0.479700  1.0
  H  H276  1  0.827200  0.856200  0.020300  1.0
  H  H277  1  0.306900  0.179500  0.550600  1.0
  H  H278  1  0.193100  0.179500  0.949400  1.0
  H  H279  1  0.693100  0.820500  0.449400  1.0
  H  H280  1  0.806900  0.820500  0.050600  1.0
  H  H281  1  0.509500  0.343200  0.523500  1.0
  H  H282  1  0.990500  0.343200  0.976500  1.0
  H  H283  1  0.490500  0.656800  0.476500  1.0
  H  H284  1  0.009500  0.656800  0.023500  1.0
  H  H285  1  0.526100  0.415000  0.546300  1.0
  H  H286  1  0.973900  0.415000  0.953700  1.0
  H  H287  1  0.473900  0.585000  0.453700  1.0
  H  H288  1  0.026100  0.585000  0.046300  1.0
  H  H289  1  0.610800  0.444200  0.449700  1.0
  H  H290  1  0.889200  0.444200  0.050300  1.0
  H  H291  1  0.389200  0.555800  0.550300  1.0
  H  H292  1  0.110800  0.555800  0.949700  1.0
  H  H293  1  0.594300  0.372400  0.426700  1.0
  H  H294  1  0.905700  0.372400  0.073300  1.0
  H  H295  1  0.405700  0.627600  0.573300  1.0
  H  H296  1  0.094300  0.627600  0.926700  1.0
  H  H297  1  0.550000  0.491600  0.532200  1.0
  H  H298  1  0.950000  0.491600  0.967800  1.0
  H  H299  1  0.450000  0.508400  0.467800  1.0
  H  H300  1  0.050000  0.508400  0.032200  1.0
  H  H301  1  0.581600  0.503500  0.493400  1.0
  H  H302  1  0.918400  0.503500  0.006600  1.0
  H  H303  1  0.418400  0.496500  0.506600  1.0
  H  H304  1  0.081600  0.496500  0.993400  1.0
  H  H305  1  0.623700  0.484600  0.531900  1.0
  H  H306  1  0.876300  0.484600  0.968100  1.0
  H  H307  1  0.376300  0.515400  0.468100  1.0
  H  H308  1  0.123700  0.515400  0.031900  1.0
  H  H309  1  0.549100  0.277200  0.506100  1.0
  H  H310  1  0.950900  0.277200  0.993900  1.0
  H  H311  1  0.450900  0.722800  0.493900  1.0
  H  H312  1  0.049100  0.722800  0.006100  1.0
  H  H313  1  0.537300  0.193100  0.510500  1.0
  H  H314  1  0.962700  0.193100  0.989500  1.0
  H  H315  1  0.462700  0.806900  0.489500  1.0
  H  H316  1  0.037300  0.806900  0.010500  1.0
  H  H317  1  0.510400  0.126800  0.478200  1.0
  H  H318  1  0.989600  0.126800  0.021800  1.0
  H  H319  1  0.489600  0.873200  0.521800  1.0
  H  H320  1  0.010400  0.873200  0.978200  1.0
  H  H321  1  0.469700  0.191700  0.374100  1.0
  H  H322  1  0.030300  0.191700  0.125900  1.0
  H  H323  1  0.530300  0.808300  0.625900  1.0
  H  H324  1  0.969700  0.808300  0.874100  1.0
  H  H325  1  0.519300  0.125200  0.357500  1.0
  H  H326  1  0.980700  0.125200  0.142500  1.0
  H  H327  1  0.480700  0.874800  0.642500  1.0
  H  H328  1  0.019300  0.874800  0.857500  1.0
  H  H329  1  0.411300  0.087100  0.440600  1.0
  H  H330  1  0.088700  0.087100  0.059400  1.0
  H  H331  1  0.588700  0.912900  0.559400  1.0
  H  H332  1  0.911300  0.912900  0.940600  1.0
  H  H333  1  0.386700  0.022000  0.405600  1.0
  H  H334  1  0.113300  0.022000  0.094400  1.0
  H  H335  1  0.613300  0.978000  0.594400  1.0
  H  H336  1  0.886700  0.978000  0.905600  1.0
  H  H337  1  0.398800  0.974300  0.349700  1.0
  H  H338  1  0.101200  0.974300  0.150300  1.0
  H  H339  1  0.601200  0.025700  0.650300  1.0
  H  H340  1  0.898800  0.025700  0.849700  1.0
  H  H341  1  0.566800  0.932100  0.389000  1.0
  H  H342  1  0.933200  0.932100  0.111000  1.0
  H  H343  1  0.433200  0.067900  0.611000  1.0
  H  H344  1  0.066800  0.067900  0.889000  1.0
  H  H345  1  0.564000  0.935400  0.457400  1.0
  H  H346  1  0.936000  0.935400  0.042600  1.0
  H  H347  1  0.436000  0.064600  0.542600  1.0
  H  H348  1  0.064000  0.064600  0.957400  1.0
  H  H349  1  0.606100  0.065000  0.456500  1.0
  H  H350  1  0.893900  0.065000  0.043500  1.0
  H  H351  1  0.393900  0.935000  0.543500  1.0
  H  H352  1  0.106100  0.935000  0.956500  1.0
  H  H353  1  0.608800  0.061800  0.388100  1.0
  H  H354  1  0.891200  0.061800  0.111900  1.0
  H  H355  1  0.391200  0.938200  0.611900  1.0
  H  H356  1  0.108800  0.938200  0.888100  1.0
  H  H357  1  0.550800  0.983900  0.516000  1.0
  H  H358  1  0.949200  0.983900  0.984000  1.0
  H  H359  1  0.449200  0.016100  0.484000  1.0
  H  H360  1  0.050800  0.016100  0.016000  1.0
  H  H361  1  0.578400  0.032700  0.516600  1.0
  H  H362  1  0.921600  0.032700  0.983400  1.0
  H  H363  1  0.421600  0.967300  0.483400  1.0
  H  H364  1  0.078400  0.967300  0.016600  1.0
  H  H365  1  0.625100  0.991600  0.521900  1.0
  H  H366  1  0.874900  0.991600  0.978100  1.0
  H  H367  1  0.374900  0.008400  0.478100  1.0
  H  H368  1  0.125100  0.008400  0.021900  1.0
  H  H369  1  0.632700  0.944000  0.339200  1.0
  H  H370  1  0.867300  0.944000  0.160800  1.0
  H  H371  1  0.367300  0.056000  0.660800  1.0
  H  H372  1  0.132700  0.056000  0.839200  1.0
  H  H373  1  0.653800  0.909700  0.271000  1.0
  H  H374  1  0.846200  0.909700  0.229000  1.0
  H  H375  1  0.346200  0.090300  0.729000  1.0
  H  H376  1  0.153800  0.090300  0.771000  1.0
  H  H377  1  0.645300  0.916700  0.202000  1.0
  H  H378  1  0.854700  0.916700  0.298000  1.0
  H  H379  1  0.354700  0.083300  0.798000  1.0
  H  H380  1  0.145300  0.083300  0.702000  1.0
  H  H381  1  0.538800  0.025600  0.207400  1.0
  H  H382  1  0.961200  0.025600  0.292600  1.0
  H  H383  1  0.461200  0.974400  0.792600  1.0
  H  H384  1  0.038800  0.974400  0.707400  1.0
  H  H385  1  0.606900  0.043600  0.155800  1.0
  H  H386  1  0.893100  0.043600  0.344200  1.0
  H  H387  1  0.393100  0.956400  0.844200  1.0
  H  H388  1  0.106900  0.956400  0.655800  1.0
  H  H389  1  0.566600  0.914600  0.139700  1.0
  H  H390  1  0.933400  0.914600  0.360300  1.0
  H  H391  1  0.433400  0.085400  0.860300  1.0
  H  H392  1  0.066600  0.085400  0.639700  1.0
  H  H393  1  0.559800  0.924000  0.071000  1.0
  H  H394  1  0.940200  0.924000  0.429000  1.0
  H  H395  1  0.440200  0.076000  0.929000  1.0
  H  H396  1  0.059800  0.076000  0.571000  1.0
  H  H397  1  0.562400  0.976000  0.012600  1.0
  H  H398  1  0.937600  0.976000  0.487400  1.0
  H  H399  1  0.437600  0.024000  0.987400  1.0
  H  H400  1  0.062400  0.024000  0.512600  1.0
  H  H401  1  0.561100  0.104200  0.978000  1.0
  H  H402  1  0.938900  0.104200  0.522000  1.0
  H  H403  1  0.438900  0.895800  0.022000  1.0
  H  H404  1  0.061100  0.895800  0.478000  1.0
  H  H405  1  0.556800  0.115600  0.909800  1.0
  H  H406  1  0.943200  0.115600  0.590200  1.0
  H  H407  1  0.443200  0.884400  0.090200  1.0
  H  H408  1  0.056800  0.884400  0.409800  1.0
  H  H409  1  0.621100  0.992100  0.896700  1.0
  H  H410  1  0.878900  0.992100  0.603300  1.0
  H  H411  1  0.378900  0.007900  0.103300  1.0
  H  H412  1  0.121100  0.007900  0.396700  1.0
  H  H413  1  0.625500  0.980600  0.964900  1.0
  H  H414  1  0.874500  0.980600  0.535100  1.0
  H  H415  1  0.374500  0.019400  0.035100  1.0
  H  H416  1  0.125500  0.019400  0.464900  1.0
  H  H417  1  0.548400  0.077800  0.841700  1.0
  H  H418  1  0.951600  0.077800  0.658300  1.0
  H  H419  1  0.451600  0.922200  0.158300  1.0
  H  H420  1  0.048400  0.922200  0.341700  1.0
  H  H421  1  0.590000  0.034700  0.838500  1.0
  H  H422  1  0.910000  0.034700  0.661500  1.0
  H  H423  1  0.410000  0.965300  0.161500  1.0
  H  H424  1  0.090000  0.965300  0.338500  1.0
  H  H425  1  0.623300  0.081200  0.847500  1.0
  H  H426  1  0.876700  0.081200  0.652500  1.0
  H  H427  1  0.376700  0.918800  0.152500  1.0
  H  H428  1  0.123300  0.918800  0.347500  1.0
  H  H429  1  0.659000  0.415600  0.905100  1.0
  H  H430  1  0.841000  0.415600  0.594900  1.0
  H  H431  1  0.341000  0.584400  0.094900  1.0
  H  H432  1  0.159000  0.584400  0.405100  1.0
  H  H433  1  0.635600  0.488600  0.888700  1.0
  H  H434  1  0.864400  0.488600  0.611300  1.0
  H  H435  1  0.364400  0.511400  0.111300  1.0
  H  H436  1  0.135600  0.511400  0.388700  1.0
  H  H437  1  0.519200  0.493800  0.973600  1.0
  H  H438  1  0.980800  0.493800  0.526400  1.0
  H  H439  1  0.480800  0.506200  0.026400  1.0
  H  H440  1  0.019200  0.506200  0.473600  1.0
  H  H441  1  0.542500  0.420800  0.990000  1.0
  H  H442  1  0.957500  0.420800  0.510000  1.0
  H  H443  1  0.457500  0.579200  0.010000  1.0
  H  H444  1  0.042500  0.579200  0.490000  1.0
  H  H445  1  0.559700  0.549800  0.889600  1.0
  H  H446  1  0.940300  0.549800  0.610400  1.0
  H  H447  1  0.440300  0.450200  0.110400  1.0
  H  H448  1  0.059700  0.450200  0.389600  1.0
  H  H449  1  0.588800  0.565600  0.932900  1.0
  H  H450  1  0.911200  0.565600  0.567100  1.0
  H  H451  1  0.411200  0.434400  0.067100  1.0
  H  H452  1  0.088800  0.434400  0.432900  1.0
  H  H453  1  0.516200  0.552600  0.924300  1.0
  H  H454  1  0.983800  0.552600  0.575700  1.0
  H  H455  1  0.483800  0.447400  0.075700  1.0
  H  H456  1  0.016200  0.447400  0.424300  1.0
  H  H457  1  0.615500  0.345700  0.905800  1.0
  H  H458  1  0.884500  0.345700  0.594200  1.0
  H  H459  1  0.384500  0.654300  0.094200  1.0
  H  H460  1  0.115500  0.654300  0.405800  1.0
  H  H461  1  0.649700  0.269800  0.887600  1.0
  H  H462  1  0.850300  0.269800  0.612400  1.0
  H  H463  1  0.350300  0.730200  0.112400  1.0
  H  H464  1  0.149700  0.730200  0.387600  1.0
  H  H465  1  0.679800  0.199000  0.908600  1.0
  H  H466  1  0.820200  0.199000  0.591400  1.0
  H  H467  1  0.320200  0.801000  0.091400  1.0
  H  H468  1  0.179800  0.801000  0.408600  1.0
  H  H469  1  0.678700  0.235800  0.022900  1.0
  H  H470  1  0.821300  0.235800  0.477100  1.0
  H  H471  1  0.321300  0.764200  0.977100  1.0
  H  H472  1  0.178700  0.764200  0.522900  1.0
  H  H473  1  0.639600  0.168100  0.024200  1.0
  H  H474  1  0.860400  0.168100  0.475800  1.0
  H  H475  1  0.360400  0.831900  0.975800  1.0
  H  H476  1  0.139600  0.831900  0.524200  1.0
  H  H477  1  0.767900  0.154300  0.947500  1.0
  H  H478  1  0.732100  0.154300  0.552500  1.0
  H  H479  1  0.232100  0.845700  0.052500  1.0
  H  H480  1  0.267900  0.845700  0.447500  1.0
  H  H481  1  0.794300  0.084900  0.973800  1.0
  H  H482  1  0.705700  0.084900  0.526200  1.0
  H  H483  1  0.205700  0.915100  0.026200  1.0
  H  H484  1  0.294300  0.915100  0.473800  1.0
  H  H485  1  0.773900  0.025000  0.023400  1.0
  H  H486  1  0.726100  0.025000  0.476600  1.0
  H  H487  1  0.226100  0.975000  0.976600  1.0
  H  H488  1  0.273900  0.975000  0.523400  1.0
  H  H489  1  0.732400  0.012400  0.138600  1.0
  H  H490  1  0.767600  0.012400  0.361400  1.0
  H  H491  1  0.267600  0.987600  0.861400  1.0
  H  H492  1  0.232400  0.987600  0.638600  1.0
  H  H493  1  0.742700  0.942700  0.167200  1.0
  H  H494  1  0.757300  0.942700  0.332800  1.0
  H  H495  1  0.257300  0.057300  0.832800  1.0
  H  H496  1  0.242700  0.057300  0.667200  1.0
  H  H497  1  0.745200  0.888800  0.058400  1.0
  H  H498  1  0.754800  0.888800  0.441600  1.0
  H  H499  1  0.254800  0.111200  0.941600  1.0
  H  H500  1  0.245200  0.111200  0.558400  1.0
  H  H501  1  0.734900  0.958400  0.029700  1.0
  H  H502  1  0.765100  0.958400  0.470300  1.0
  H  H503  1  0.265100  0.041600  0.970300  1.0
  H  H504  1  0.234900  0.041600  0.529700  1.0
  H  H505  1  0.734400  0.841300  0.114300  1.0
  H  H506  1  0.765600  0.841300  0.385700  1.0
  H  H507  1  0.265600  0.158700  0.885700  1.0
  H  H508  1  0.234400  0.158700  0.614300  1.0
  H  H509  1  0.724600  0.862000  0.156200  1.0
  H  H510  1  0.775400  0.862000  0.343800  1.0
  H  H511  1  0.275400  0.138000  0.843800  1.0
  H  H512  1  0.224600  0.138000  0.656200  1.0
  H  H513  1  0.793800  0.857000  0.144200  1.0
  H  H514  1  0.706200  0.857000  0.355800  1.0
  H  H515  1  0.206200  0.143000  0.855800  1.0
  H  H516  1  0.293800  0.143000  0.644200  1.0
  H  H517  1  0.704100  0.455400  0.251500  1.0
  H  H518  1  0.795900  0.455400  0.248500  1.0
  H  H519  1  0.295900  0.544600  0.748500  1.0
  H  H520  1  0.204100  0.544600  0.751500  1.0
  H  H521  1  0.711500  0.325100  0.229200  1.0
  H  H522  1  0.788500  0.325100  0.270800  1.0
  H  H523  1  0.288500  0.674900  0.770800  1.0
  H  H524  1  0.211500  0.674900  0.729200  1.0
  H  H525  1  0.603900  0.325200  0.206400  1.0
  H  H526  1  0.896100  0.325200  0.293600  1.0
  H  H527  1  0.396100  0.674800  0.793600  1.0
  H  H528  1  0.103900  0.674800  0.706400  1.0
  H  H529  1  0.497100  0.375500  0.192100  1.0
  H  H530  1  0.002900  0.375500  0.307900  1.0
  H  H531  1  0.502900  0.624500  0.807900  1.0
  H  H532  1  0.997100  0.624500  0.692100  1.0
  H  H533  1  0.769100  0.088600  0.130100  1.0
  H  H534  1  0.730900  0.088600  0.369900  1.0
  H  H535  1  0.230900  0.911400  0.869900  1.0
  H  H536  1  0.269100  0.911400  0.630100  1.0
  H  H537  1  0.725200  0.174700  0.213000  1.0
  H  H538  1  0.774800  0.174700  0.287000  1.0
  H  H539  1  0.274800  0.825300  0.787000  1.0
  H  H540  1  0.225200  0.825300  0.713000  1.0
  H  H541  1  0.623300  0.180700  0.179600  1.0
  H  H542  1  0.876700  0.180700  0.320400  1.0
  H  H543  1  0.376700  0.819300  0.820400  1.0
  H  H544  1  0.123300  0.819300  0.679600  1.0
  H  H545  1  0.547100  0.163600  0.119400  1.0
  H  H546  1  0.952900  0.163600  0.380600  1.0
  H  H547  1  0.452900  0.836400  0.880600  1.0
  H  H548  1  0.047100  0.836400  0.619400  1.0
  H  H549  1  0.477500  0.078300  0.037400  1.0
  H  H550  1  0.022500  0.078300  0.462600  1.0
  H  H551  1  0.522500  0.921700  0.962600  1.0
  H  H552  1  0.977500  0.921700  0.537400  1.0
  H  H553  1  0.384700  0.100600  0.999000  1.0
  H  H554  1  0.115300  0.100600  0.501000  1.0
  H  H555  1  0.615300  0.899400  0.001000  1.0
  H  H556  1  0.884700  0.899400  0.499000  1.0
  H  H557  1  0.432400  0.227800  0.020300  1.0
  H  H558  1  0.067600  0.227800  0.479700  1.0
  H  H559  1  0.567600  0.772200  0.979700  1.0
  H  H560  1  0.932400  0.772200  0.520300  1.0
  H  H561  1  0.525100  0.205700  0.058700  1.0
  H  H562  1  0.974900  0.205700  0.441300  1.0
  H  H563  1  0.474900  0.794300  0.941300  1.0
  H  H564  1  0.025100  0.794300  0.558700  1.0
  H  H565  1  0.302400  0.171000  0.994800  1.0
  H  H566  1  0.197600  0.171000  0.505200  1.0
  H  H567  1  0.697600  0.829000  0.005200  1.0
  H  H568  1  0.802400  0.829000  0.494800  1.0
  H  H569  1  0.334800  0.168000  0.955100  1.0
  H  H570  1  0.165200  0.168000  0.544900  1.0
  H  H571  1  0.665200  0.832000  0.044900  1.0
  H  H572  1  0.834800  0.832000  0.455100  1.0
  H  H573  1  0.337100  0.212900  0.979500  1.0
  H  H574  1  0.162900  0.212900  0.520500  1.0
  H  H575  1  0.662900  0.787100  0.020500  1.0
  H  H576  1  0.837100  0.787100  0.479500  1.0
  H  H577  1  0.834900  0.069300  0.172300  1.0
  H  H578  1  0.665100  0.069300  0.327700  1.0
  H  H579  1  0.165100  0.930700  0.827700  1.0
  H  H580  1  0.334900  0.930700  0.672300  1.0
  H  H581  1  0.822200  0.191900  0.216600  1.0
  H  H582  1  0.677800  0.191900  0.283400  1.0
  H  H583  1  0.177800  0.808100  0.783400  1.0
  H  H584  1  0.322200  0.808100  0.716600  1.0
  H  H585  1  0.926500  0.187400  0.246200  1.0
  H  H586  1  0.573500  0.187400  0.253800  1.0
  H  H587  1  0.073500  0.812600  0.753800  1.0
  H  H588  1  0.426500  0.812600  0.746200  1.0
  H  H589  1  0.025800  0.140500  0.263500  1.0
  H  H590  1  0.474200  0.140500  0.236500  1.0
  H  H591  1  0.974200  0.859500  0.736500  1.0
  H  H592  1  0.525800  0.859500  0.763500  1.0
  H  H593  1  0.086700  0.013300  0.274000  1.0
  H  H594  1  0.413300  0.013300  0.226000  1.0
  H  H595  1  0.913300  0.986700  0.726000  1.0
  H  H596  1  0.586700  0.986700  0.774000  1.0
  H  H597  1  0.188900  0.003200  0.305700  1.0
  H  H598  1  0.311100  0.003200  0.194300  1.0
  H  H599  1  0.811100  0.996800  0.694300  1.0
  H  H600  1  0.688900  0.996800  0.805700  1.0
  H  H601  1  0.228000  0.130900  0.286600  1.0
  H  H602  1  0.272000  0.130900  0.213400  1.0
  H  H603  1  0.772000  0.869100  0.713400  1.0
  H  H604  1  0.728000  0.869100  0.786600  1.0
  H  H605  1  0.125900  0.141100  0.254800  1.0
  H  H606  1  0.374100  0.141100  0.245200  1.0
  H  H607  1  0.874100  0.858900  0.745200  1.0
  H  H608  1  0.625900  0.858900  0.754800  1.0
  H  H609  1  0.309500  0.086400  0.318000  1.0
  H  H610  1  0.190500  0.086400  0.182000  1.0
  H  H611  1  0.690500  0.913600  0.682000  1.0
  H  H612  1  0.809500  0.913600  0.818000  1.0
  H  H613  1  0.305800  0.036000  0.305100  1.0
  H  H614  1  0.194200  0.036000  0.194900  1.0
  H  H615  1  0.694200  0.964000  0.694900  1.0
  H  H616  1  0.805800  0.964000  0.805100  1.0
  H  H617  1  0.285200  0.050500  0.346800  1.0
  H  H618  1  0.214800  0.050500  0.153200  1.0
  H  H619  1  0.714800  0.949500  0.653200  1.0
  H  H620  1  0.785200  0.949500  0.846800  1.0
  H  H621  1  0.635700  0.298000  0.408300  1.0
  H  H622  1  0.864300  0.298000  0.091700  1.0
  H  H623  1  0.364300  0.702000  0.591700  1.0
  H  H624  1  0.135700  0.702000  0.908300  1.0
  H  H625  1  0.681900  0.285300  0.297000  1.0
  H  H626  1  0.818100  0.285300  0.203000  1.0
  H  H627  1  0.318100  0.714700  0.703000  1.0
  H  H628  1  0.181900  0.714700  0.797000  1.0
  H  H629  1  0.575500  0.279100  0.272200  1.0
  H  H630  1  0.924500  0.279100  0.227800  1.0
  H  H631  1  0.424500  0.720900  0.727800  1.0
  H  H632  1  0.075500  0.720900  0.772200  1.0
  H  H633  1  0.460900  0.276800  0.284700  1.0
  H  H634  1  0.039100  0.276800  0.215300  1.0
  H  H635  1  0.539100  0.723200  0.715300  1.0
  H  H636  1  0.960900  0.723200  0.784700  1.0
  H  H637  1  0.714200  0.325200  0.421200  1.0
  H  H638  1  0.785800  0.325200  0.078800  1.0
  H  H639  1  0.285800  0.674800  0.578800  1.0
  H  H640  1  0.214200  0.674800  0.921200  1.0
  H  H641  1  0.771200  0.261000  0.327900  1.0
  H  H642  1  0.728800  0.261000  0.172100  1.0
  H  H643  1  0.228800  0.739000  0.672100  1.0
  H  H644  1  0.271200  0.739000  0.827900  1.0
  H  H645  1  0.875300  0.264800  0.358100  1.0
  H  H646  1  0.624700  0.264800  0.141900  1.0
  H  H647  1  0.124700  0.735200  0.641900  1.0
  H  H648  1  0.375300  0.735200  0.858100  1.0
  H  H649  1  0.956400  0.292900  0.417900  1.0
  H  H650  1  0.543600  0.292900  0.082100  1.0
  H  H651  1  0.043600  0.707100  0.582100  1.0
  H  H652  1  0.456400  0.707100  0.917900  1.0
  H  H653  1  0.984900  0.309300  0.538300  1.0
  H  H654  1  0.515100  0.309300  0.961700  1.0
  H  H655  1  0.015100  0.690700  0.461700  1.0
  H  H656  1  0.484900  0.690700  0.038300  1.0
  H  H657  1  0.091400  0.315600  0.562500  1.0
  H  H658  1  0.408600  0.315600  0.937500  1.0
  H  H659  1  0.908600  0.684400  0.437500  1.0
  H  H660  1  0.591400  0.684400  0.062500  1.0
  H  H661  1  0.129400  0.350300  0.453000  1.0
  H  H662  1  0.370600  0.350300  0.047000  1.0
  H  H663  1  0.870600  0.649700  0.547000  1.0
  H  H664  1  0.629400  0.649700  0.953000  1.0
  H  H665  1  0.022900  0.344000  0.428600  1.0
  H  H666  1  0.477100  0.344000  0.071400  1.0
  H  H667  1  0.977100  0.656000  0.571400  1.0
  H  H668  1  0.522900  0.656000  0.928600  1.0
  H  H669  1  0.214900  0.319100  0.508800  1.0
  H  H670  1  0.285100  0.319100  0.991200  1.0
  H  H671  1  0.785100  0.680900  0.491200  1.0
  H  H672  1  0.714900  0.680900  0.008800  1.0
  H  H673  1  0.197800  0.325000  0.552900  1.0
  H  H674  1  0.302200  0.325000  0.947100  1.0
  H  H675  1  0.802200  0.675000  0.447100  1.0
  H  H676  1  0.697800  0.675000  0.052900  1.0
  H  H677  1  0.204200  0.367100  0.525700  1.0
  H  H678  1  0.295800  0.367100  0.974300  1.0
  H  H679  1  0.795800  0.632900  0.474300  1.0
  H  H680  1  0.704200  0.632900  0.025700  1.0
  H  H681  1  0.513300  0.921900  0.290700  1.0
  H  H682  1  0.986700  0.921900  0.209300  1.0
  H  H683  1  0.486700  0.078100  0.709300  1.0
  H  H684  1  0.013300  0.078100  0.790700  1.0
  H  H685  1  0.483500  0.860000  0.252300  1.0
  H  H686  1  0.016500  0.860000  0.247700  1.0
  H  H687  1  0.516500  0.140000  0.747700  1.0
  H  H688  1  0.983500  0.140000  0.752300  1.0
  H  H689  1  0.302800  0.901900  0.238100  1.0
  H  H690  1  0.197200  0.901900  0.261900  1.0
  H  H691  1  0.697200  0.098100  0.761900  1.0
  H  H692  1  0.802800  0.098100  0.738100  1.0
  H  H693  1  0.332300  0.963800  0.276500  1.0
  H  H694  1  0.167700  0.963800  0.223500  1.0
  H  H695  1  0.667700  0.036200  0.723500  1.0
  H  H696  1  0.832300  0.036200  0.776500  1.0
  H  H697  1  0.407600  0.815600  0.215000  1.0
  H  H698  1  0.092400  0.815600  0.285000  1.0
  H  H699  1  0.592400  0.184400  0.785000  1.0
  H  H700  1  0.907600  0.184400  0.715000  1.0
  H  H701  1  0.351100  0.842400  0.190700  1.0
  H  H702  1  0.148900  0.842400  0.309300  1.0
  H  H703  1  0.648900  0.157600  0.809300  1.0
  H  H704  1  0.851100  0.157600  0.690700  1.0
  H  H705  1  0.340300  0.817000  0.230400  1.0
  H  H706  1  0.159700  0.817000  0.269600  1.0
  H  H707  1  0.659700  0.183000  0.769600  1.0
  H  H708  1  0.840300  0.183000  0.730400  1.0
  H  H709  1  0.422700  0.489900  0.168300  1.0
  H  H710  1  0.077300  0.489900  0.331700  1.0
  H  H711  1  0.577300  0.510100  0.831700  1.0
  H  H712  1  0.922700  0.510100  0.668300  1.0
  H  H713  1  0.318600  0.479600  0.140100  1.0
  H  H714  1  0.181400  0.479600  0.359900  1.0
  H  H715  1  0.681400  0.520400  0.859900  1.0
  H  H716  1  0.818600  0.520400  0.640100  1.0
  H  H717  1  0.320100  0.357800  0.188000  1.0
  H  H718  1  0.179900  0.357800  0.312000  1.0
  H  H719  1  0.679900  0.642200  0.812000  1.0
  H  H720  1  0.820100  0.642200  0.688000  1.0
  H  H721  1  0.424100  0.367900  0.216200  1.0
  H  H722  1  0.075900  0.367900  0.283800  1.0
  H  H723  1  0.575900  0.632100  0.783800  1.0
  H  H724  1  0.924100  0.632100  0.716200  1.0
  H  H725  1  0.227400  0.381300  0.148900  1.0
  H  H726  1  0.272600  0.381300  0.351100  1.0
  H  H727  1  0.772600  0.618700  0.851100  1.0
  H  H728  1  0.727400  0.618700  0.648900  1.0
  H  H729  1  0.239800  0.412700  0.113000  1.0
  H  H730  1  0.260200  0.412700  0.387000  1.0
  H  H731  1  0.760200  0.587300  0.887000  1.0
  H  H732  1  0.739800  0.587300  0.613000  1.0
  H  H733  1  0.214400  0.432800  0.151300  1.0
  H  H734  1  0.285600  0.432800  0.348700  1.0
  H  H735  1  0.785600  0.567200  0.848700  1.0
  H  H736  1  0.714400  0.567200  0.651300  1.0
  H  H737  1  0.336100  0.304500  0.368400  1.0
  H  H738  1  0.163900  0.304500  0.131600  1.0
  H  H739  1  0.663900  0.695500  0.631600  1.0
  H  H740  1  0.836100  0.695500  0.868400  1.0
  H  H741  1  0.230500  0.291400  0.345300  1.0
  H  H742  1  0.269500  0.291400  0.154700  1.0
  H  H743  1  0.769500  0.708600  0.654700  1.0
  H  H744  1  0.730500  0.708600  0.845300  1.0
  H  H745  1  0.281900  0.217600  0.255600  1.0
  H  H746  1  0.218100  0.217600  0.244400  1.0
  H  H747  1  0.718100  0.782400  0.744400  1.0
  H  H748  1  0.781900  0.782400  0.755600  1.0
  H  H749  1  0.387600  0.230600  0.278600  1.0
  H  H750  1  0.112400  0.230600  0.221400  1.0
  H  H751  1  0.612400  0.769400  0.721400  1.0
  H  H752  1  0.887600  0.769400  0.778600  1.0
  H  H753  1  0.150200  0.260700  0.299700  1.0
  H  H754  1  0.349800  0.260700  0.200300  1.0
  H  H755  1  0.849800  0.739300  0.700300  1.0
  H  H756  1  0.650200  0.739300  0.799700  1.0
  H  H757  1  0.167700  0.214300  0.282100  1.0
  H  H758  1  0.332300  0.214300  0.217900  1.0
  H  H759  1  0.832300  0.785700  0.717900  1.0
  H  H760  1  0.667700  0.785700  0.782100  1.0
  H  H761  1  0.167800  0.257500  0.255500  1.0
  H  H762  1  0.332200  0.257500  0.244500  1.0
  H  H763  1  0.832200  0.742500  0.744500  1.0
  H  H764  1  0.667800  0.742500  0.755500  1.0
  C  C765  1  0.444300  0.937700  0.286600  1
  C  C766  1  0.055700  0.937700  0.213400  1
  C  C767  1  0.555700  0.062300  0.713400  1
  C  C768  1  0.944300  0.062300  0.786600  1
  C  C769  1  0.446000  0.903400  0.313800  1
  C  C770  1  0.054000  0.903400  0.186200  1
  C  C771  1  0.554000  0.096600  0.686200  1
  C  C772  1  0.946000  0.096600  0.813800  1
  C  C773  1  0.453700  0.860300  0.301500  1
  C  C774  1  0.046300  0.860300  0.198500  1
  C  C775  1  0.546300  0.139700  0.698500  1
  C  C776  1  0.953700  0.139700  0.801500  1
  C  C777  1  0.459800  0.850600  0.261900  1
  C  C778  1  0.040200  0.850600  0.238100  1
  C  C779  1  0.540200  0.149400  0.738100  1
  C  C780  1  0.959800  0.149400  0.761900  1
  C  C781  1  0.458200  0.885400  0.234900  1
  C  C782  1  0.041800  0.885400  0.265100  1
  C  C783  1  0.541800  0.114600  0.765100  1
  C  C784  1  0.958200  0.114600  0.734900  1
  C  C785  1  0.450500  0.928600  0.247000  1
  C  C786  1  0.049500  0.928600  0.253000  1
  C  C787  1  0.549500  0.071400  0.753000  1
  C  C788  1  0.950500  0.071400  0.747000  1
  C  C789  1  0.466500  0.803900  0.248500  1
  C  C790  1  0.033500  0.803900  0.251500  1
  C  C791  1  0.533500  0.196100  0.751500  1
  C  C792  1  0.966500  0.196100  0.748500  1
  C  C793  1  0.433000  0.424600  0.204400  1
  C  C794  1  0.067000  0.424600  0.295600  1
  C  C795  1  0.567000  0.575400  0.795600  1
  C  C796  1  0.933000  0.575400  0.704400  1
  C  C797  1  0.399300  0.457000  0.181700  1
  C  C798  1  0.100700  0.457000  0.318300  1
  C  C799  1  0.600700  0.543000  0.818300  1
  C  C800  1  0.899300  0.543000  0.681700  1
  C  C801  1  0.333800  0.457300  0.177900  1
  C  C802  1  0.166200  0.457300  0.322100  1
  C  C803  1  0.666200  0.542700  0.822100  1
  C  C804  1  0.833800  0.542700  0.677900  1
  C  C805  1  0.300600  0.425500  0.196400  1
  C  C806  1  0.199400  0.425500  0.303600  1
  C  C807  1  0.699400  0.574500  0.803600  1
  C  C808  1  0.800600  0.574500  0.696400  1
  C  C809  1  0.335200  0.393300  0.219200  1
  C  C810  1  0.164800  0.393300  0.280800  1
  C  C811  1  0.664800  0.606700  0.780800  1
  C  C812  1  0.835200  0.606700  0.719200  1
  C  C813  1  0.400700  0.392800  0.223200  1
  C  C814  1  0.099300  0.392800  0.276800  1
  C  C815  1  0.599300  0.607200  0.776800  1
  C  C816  1  0.900700  0.607200  0.723200  1
  C  C817  1  0.229900  0.425400  0.191400  1
  C  C818  1  0.270100  0.425400  0.308600  1
  C  C819  1  0.770100  0.574600  0.808600  1
  C  C820  1  0.729900  0.574600  0.691400  1
  C  C821  1  0.362700  0.271300  0.331700  1
  C  C822  1  0.137300  0.271300  0.168300  1
  C  C823  1  0.637300  0.728700  0.668300  1
  C  C824  1  0.862700  0.728700  0.831700  1
  C  C825  1  0.313300  0.301400  0.328000  1
  C  C826  1  0.186700  0.301400  0.172000  1
  C  C827  1  0.686700  0.698600  0.672000  1
  C  C828  1  0.813300  0.698600  0.828000  1
  C  C829  1  0.251500  0.286700  0.326700  1
  C  C830  1  0.248500  0.286700  0.173300  1
  C  C831  1  0.748500  0.713300  0.673300  1
  C  C832  1  0.751500  0.713300  0.826700  1
  C  C833  1  0.237700  0.242000  0.329000  1
  C  C834  1  0.262300  0.242000  0.171000  1
  C  C835  1  0.762300  0.758000  0.671000  1
  C  C836  1  0.737700  0.758000  0.829000  1
  C  C837  1  0.287800  0.212200  0.332800  1
  C  C838  1  0.212200  0.212200  0.167200  1
  C  C839  1  0.712200  0.787800  0.667200  1
  C  C840  1  0.787800  0.787800  0.832800  1
  C  C841  1  0.349800  0.226600  0.334200  1
  C  C842  1  0.150200  0.226600  0.165800  1
  C  C843  1  0.650200  0.773400  0.665800  1
  C  C844  1  0.849800  0.773400  0.834200  1
  C  C845  1  0.170800  0.226200  0.326600  1
  C  C846  1  0.329200  0.226200  0.173400  1
  C  C847  1  0.829200  0.773800  0.673400  1
  C  C848  1  0.670800  0.773800  0.826600  1
  C  C849  1  0.783900  0.335300  0.975400  1.0
  C  C850  1  0.716100  0.335300  0.524600  1.0
  C  C851  1  0.216100  0.664700  0.024600  1.0
  C  C852  1  0.283900  0.664700  0.475400  1.0
  C  C853  1  0.792300  0.348700  0.937200  1.0
  C  C854  1  0.707700  0.348700  0.562800  1.0
  C  C855  1  0.207700  0.651300  0.062800  1.0
  C  C856  1  0.292300  0.651300  0.437200  1.0
  C  C857  1  0.818600  0.320200  0.911800  1.0
  C  C858  1  0.681400  0.320200  0.588200  1.0
  C  C859  1  0.181400  0.679800  0.088200  1.0
  C  C860  1  0.318600  0.679800  0.411800  1.0
  C  C861  1  0.836900  0.277700  0.923900  1.0
  C  C862  1  0.663100  0.277700  0.576100  1.0
  C  C863  1  0.163100  0.722300  0.076100  1.0
  C  C864  1  0.336900  0.722300  0.423900  1.0
  C  C865  1  0.827900  0.264500  0.962300  1.0
  C  C866  1  0.672100  0.264500  0.537700  1.0
  C  C867  1  0.172100  0.735500  0.037700  1.0
  C  C868  1  0.327900  0.735500  0.462300  1.0
  C  C869  1  0.801700  0.293000  0.987800  1.0
  C  C870  1  0.698300  0.293000  0.512200  1.0
  C  C871  1  0.198300  0.707000  0.012200  1.0
  C  C872  1  0.301700  0.707000  0.487800  1.0
  C  C873  1  0.866600  0.247300  0.896800  1.0
  C  C874  1  0.633400  0.247300  0.603200  1.0
  C  C875  1  0.133400  0.752700  0.103200  1.0
  C  C876  1  0.366600  0.752700  0.396800  1.0
  C  C877  1  0.758800  0.401400  0.003400  1.0
  C  C878  1  0.741200  0.401400  0.496600  1.0
  C  C879  1  0.241200  0.598600  0.996600  1.0
  C  C880  1  0.258800  0.598600  0.503400  1.0
  C  C881  1  0.724900  0.427300  0.026300  1.0
  C  C882  1  0.775100  0.427300  0.473700  1.0
  C  C883  1  0.275100  0.572700  0.973700  1.0
  C  C884  1  0.224900  0.572700  0.526300  1.0
  C  C885  1  0.739800  0.470700  0.036000  1.0
  C  C886  1  0.760200  0.470700  0.464000  1.0
  C  C887  1  0.260200  0.529300  0.964000  1.0
  C  C888  1  0.239800  0.529300  0.536000  1.0
  C  C889  1  0.704400  0.493900  0.060500  1.0
  C  C890  1  0.795600  0.493900  0.439500  1.0
  C  C891  1  0.295600  0.506100  0.939500  1.0
  C  C892  1  0.204400  0.506100  0.560500  1.0
  C  C893  1  0.654100  0.473800  0.075100  1.0
  C  C894  1  0.845900  0.473800  0.424900  1.0
  C  C895  1  0.345900  0.526200  0.924900  1.0
  C  C896  1  0.154100  0.526200  0.575100  1.0
  C  C897  1  0.639200  0.430400  0.065400  1.0
  C  C898  1  0.860800  0.430400  0.434600  1.0
  C  C899  1  0.360800  0.569600  0.934600  1.0
  C  C900  1  0.139200  0.569600  0.565400  1.0
  C  C901  1  0.602400  0.476600  0.136600  1.0
  C  C902  1  0.897600  0.476600  0.363400  1.0
  C  C903  1  0.397600  0.523400  0.863400  1.0
  C  C904  1  0.102400  0.523400  0.636600  1.0
  C  C905  1  0.617600  0.496800  0.102500  1.0
  C  C906  1  0.882400  0.496800  0.397500  1.0
  C  C907  1  0.382400  0.503200  0.897500  1.0
  C  C908  1  0.117600  0.503200  0.602500  1.0
  C  C909  1  0.596700  0.539100  0.093100  1.0
  C  C910  1  0.903300  0.539100  0.406900  1.0
  C  C911  1  0.403300  0.460900  0.906900  1.0
  C  C912  1  0.096700  0.460900  0.593100  1.0
  C  C913  1  0.560400  0.561200  0.117800  1.0
  C  C914  1  0.939600  0.561200  0.382200  1.0
  C  C915  1  0.439600  0.438800  0.882200  1.0
  C  C916  1  0.060400  0.438800  0.617800  1.0
  C  C917  1  0.545200  0.540900  0.151900  1.0
  C  C918  1  0.954800  0.540900  0.348100  1.0
  C  C919  1  0.454800  0.459100  0.848100  1.0
  C  C920  1  0.045200  0.459100  0.651900  1.0
  C  C921  1  0.508200  0.560500  0.179700  1.0
  C  C922  1  0.991800  0.560500  0.320300  1.0
  C  C923  1  0.491800  0.439500  0.820300  1.0
  C  C924  1  0.008200  0.439500  0.679700  1.0
  C  C925  1  0.471700  0.565400  0.237900  1.0
  C  C926  1  0.028300  0.565400  0.262100  1.0
  C  C927  1  0.528300  0.434600  0.762100  1.0
  C  C928  1  0.971700  0.434600  0.737900  1.0
  C  C929  1  0.485300  0.609200  0.247000  1.0
  C  C930  1  0.014700  0.609200  0.253000  1.0
  C  C931  1  0.514700  0.390800  0.753000  1.0
  C  C932  1  0.985300  0.390800  0.747000  1.0
  C  C933  1  0.460600  0.629400  0.278500  1.0
  C  C934  1  0.039400  0.629400  0.221500  1.0
  C  C935  1  0.539400  0.370600  0.721500  1.0
  C  C936  1  0.960600  0.370600  0.778500  1.0
  C  C937  1  0.422000  0.606200  0.301500  1.0
  C  C938  1  0.078000  0.606200  0.198500  1.0
  C  C939  1  0.578000  0.393800  0.698500  1.0
  C  C940  1  0.922000  0.393800  0.801500  1.0
  C  C941  1  0.409000  0.562100  0.292100  1.0
  C  C942  1  0.091000  0.562100  0.207900  1.0
  C  C943  1  0.591000  0.437900  0.707900  1.0
  C  C944  1  0.909000  0.437900  0.792100  1.0
  C  C945  1  0.433500  0.541800  0.260600  1.0
  C  C946  1  0.066500  0.541800  0.239400  1.0
  C  C947  1  0.566500  0.458200  0.739400  1.0
  C  C948  1  0.933500  0.458200  0.760600  1.0
  C  C949  1  0.394300  0.628300  0.334800  1.0
  C  C950  1  0.105700  0.628300  0.165200  1.0
  C  C951  1  0.605700  0.371700  0.665200  1.0
  C  C952  1  0.894300  0.371700  0.834800  1.0
  C  C953  1  0.667100  0.557800  0.219200  1.0
  C  C954  1  0.832900  0.557800  0.280800  1.0
  C  C955  1  0.332900  0.442200  0.780800  1.0
  C  C956  1  0.167100  0.442200  0.719200  1.0
  C  C957  1  0.702300  0.536500  0.193100  1.0
  C  C958  1  0.797700  0.536500  0.306900  1.0
  C  C959  1  0.297700  0.463500  0.806900  1.0
  C  C960  1  0.202300  0.463500  0.693100  1.0
  C  C961  1  0.734400  0.560900  0.167400  1.0
  C  C962  1  0.765600  0.560900  0.332600  1.0
  C  C963  1  0.265600  0.439100  0.832600  1.0
  C  C964  1  0.234400  0.439100  0.667400  1.0
  C  C965  1  0.732100  0.606800  0.167100  1.0
  C  C966  1  0.767900  0.606800  0.332900  1.0
  C  C967  1  0.267900  0.393200  0.832900  1.0
  C  C968  1  0.232100  0.393200  0.667100  1.0
  C  C969  1  0.696800  0.627700  0.193600  1.0
  C  C970  1  0.803200  0.627700  0.306400  1.0
  C  C971  1  0.303200  0.372300  0.806400  1.0
  C  C972  1  0.196800  0.372300  0.693600  1.0
  C  C973  1  0.664500  0.603500  0.219300  1.0
  C  C974  1  0.835500  0.603500  0.280700  1.0
  C  C975  1  0.335500  0.396500  0.780700  1.0
  C  C976  1  0.164500  0.396500  0.719300  1.0
  C  C977  1  0.765600  0.633000  0.138700  1.0
  C  C978  1  0.734400  0.633000  0.361300  1.0
  C  C979  1  0.234400  0.367000  0.861300  1.0
  C  C980  1  0.265600  0.367000  0.638700  1.0
  C  C981  1  0.625400  0.545400  0.278400  1.0
  C  C982  1  0.874600  0.545400  0.221600  1.0
  C  C983  1  0.374600  0.454600  0.721600  1.0
  C  C984  1  0.125400  0.454600  0.778400  1.0
  C  C985  1  0.589100  0.520800  0.303500  1.0
  C  C986  1  0.910900  0.520800  0.196500  1.0
  C  C987  1  0.410900  0.479200  0.696500  1.0
  C  C988  1  0.089100  0.479200  0.803500  1.0
  C  C989  1  0.587300  0.529900  0.343400  1.0
  C  C990  1  0.912700  0.529900  0.156600  1.0
  C  C991  1  0.412700  0.470100  0.656600  1.0
  C  C992  1  0.087300  0.470100  0.843400  1.0
  C  C993  1  0.552700  0.503300  0.365700  1.0
  C  C994  1  0.947300  0.503300  0.134300  1.0
  C  C995  1  0.447300  0.496700  0.634300  1.0
  C  C996  1  0.052700  0.496700  0.865700  1.0
  C  C997  1  0.519900  0.467600  0.348100  1.0
  C  C998  1  0.980100  0.467600  0.151900  1.0
  C  C999  1  0.480100  0.532400  0.651900  1.0
  C  C1000  1  0.019900  0.532400  0.848100  1.0
  C  C1001  1  0.521700  0.458500  0.308200  1.0
  C  C1002  1  0.978300  0.458500  0.191800  1.0
  C  C1003  1  0.478300  0.541500  0.691800  1.0
  C  C1004  1  0.021700  0.541500  0.808200  1.0
  C  C1005  1  0.492800  0.393000  0.365300  1.0
  C  C1006  1  0.007200  0.393000  0.134700  1.0
  C  C1007  1  0.507200  0.607000  0.634700  1.0
  C  C1008  1  0.992800  0.607000  0.865300  1.0
  C  C1009  1  0.483600  0.437700  0.369300  1.0
  C  C1010  1  0.016400  0.437700  0.130700  1.0
  C  C1011  1  0.516400  0.562300  0.630700  1.0
  C  C1012  1  0.983600  0.562300  0.869300  1.0
  C  C1013  1  0.443100  0.453000  0.395000  1.0
  C  C1014  1  0.056900  0.453000  0.105000  1.0
  C  C1015  1  0.556900  0.547000  0.605000  1.0
  C  C1016  1  0.943100  0.547000  0.895000  1.0
  C  C1017  1  0.411800  0.423500  0.416700  1.0
  C  C1018  1  0.088200  0.423500  0.083300  1.0
  C  C1019  1  0.588200  0.576500  0.583300  1.0
  C  C1020  1  0.911800  0.576500  0.916700  1.0
  C  C1021  1  0.421100  0.378700  0.412700  1.0
  C  C1022  1  0.078900  0.378700  0.087300  1.0
  C  C1023  1  0.578900  0.621300  0.587300  1.0
  C  C1024  1  0.921100  0.621300  0.912700  1.0
  C  C1025  1  0.392400  0.347100  0.435500  1.0
  C  C1026  1  0.107600  0.347100  0.064500  1.0
  C  C1027  1  0.607600  0.652900  0.564500  1.0
  C  C1028  1  0.892400  0.652900  0.935500  1.0
  C  C1029  1  0.378500  0.274300  0.455700  1.0
  C  C1030  1  0.121500  0.274300  0.044300  1.0
  C  C1031  1  0.621500  0.725700  0.544300  1.0
  C  C1032  1  0.878500  0.725700  0.955700  1.0
  C  C1033  1  0.384500  0.281700  0.496500  1.0
  C  C1034  1  0.115500  0.281700  0.003500  1.0
  C  C1035  1  0.615500  0.718300  0.503500  1.0
  C  C1036  1  0.884500  0.718300  0.996500  1.0
  C  C1037  1  0.372800  0.247900  0.522300  1.0
  C  C1038  1  0.127200  0.247900  0.977700  1.0
  C  C1039  1  0.627200  0.752100  0.477700  1.0
  C  C1040  1  0.872800  0.752100  0.022300  1.0
  C  C1041  1  0.354700  0.206200  0.507900  1.0
  C  C1042  1  0.145300  0.206200  0.992100  1.0
  C  C1043  1  0.645300  0.793800  0.492100  1.0
  C  C1044  1  0.854700  0.793800  0.007900  1.0
  C  C1045  1  0.349100  0.199100  0.466900  1.0
  C  C1046  1  0.150900  0.199100  0.033100  1.0
  C  C1047  1  0.650900  0.800900  0.533100  1.0
  C  C1048  1  0.849100  0.800900  0.966900  1.0
  C  C1049  1  0.360800  0.232800  0.440900  1.0
  C  C1050  1  0.139200  0.232800  0.059100  1.0
  C  C1051  1  0.639200  0.767200  0.559100  1.0
  C  C1052  1  0.860800  0.767200  0.940900  1.0
  C  C1053  1  0.340600  0.170100  0.535700  1.0
  C  C1054  1  0.159400  0.170100  0.964300  1.0
  C  C1055  1  0.659400  0.829900  0.464300  1.0
  C  C1056  1  0.840600  0.829900  0.035700  1.0
  C  C1057  1  0.550300  0.350600  0.472800  1.0
  C  C1058  1  0.949700  0.350600  0.027200  1.0
  C  C1059  1  0.449700  0.649400  0.527200  1.0
  C  C1060  1  0.050300  0.649400  0.972800  1.0
  C  C1061  1  0.530100  0.363600  0.508500  1.0
  C  C1062  1  0.969900  0.363600  0.991500  1.0
  C  C1063  1  0.469900  0.636400  0.491500  1.0
  C  C1064  1  0.030100  0.636400  0.008500  1.0
  C  C1065  1  0.540100  0.406500  0.522100  1.0
  C  C1066  1  0.959900  0.406500  0.977900  1.0
  C  C1067  1  0.459900  0.593500  0.477900  1.0
  C  C1068  1  0.040100  0.593500  0.022100  1.0
  C  C1069  1  0.570400  0.437300  0.500600  1.0
  C  C1070  1  0.929600  0.437300  0.999400  1.0
  C  C1071  1  0.429600  0.562700  0.499400  1.0
  C  C1072  1  0.070400  0.562700  0.000600  1.0
  C  C1073  1  0.590300  0.423800  0.464800  1.0
  C  C1074  1  0.909700  0.423800  0.035200  1.0
  C  C1075  1  0.409700  0.576200  0.535200  1.0
  C  C1076  1  0.090300  0.576200  0.964800  1.0
  C  C1077  1  0.580400  0.380900  0.451000  1.0
  C  C1078  1  0.919600  0.380900  0.049000  1.0
  C  C1079  1  0.419600  0.619100  0.549000  1.0
  C  C1080  1  0.080400  0.619100  0.951000  1.0
  C  C1081  1  0.582500  0.483200  0.515800  1.0
  C  C1082  1  0.917500  0.483200  0.984200  1.0
  C  C1083  1  0.417500  0.516800  0.484200  1.0
  C  C1084  1  0.082500  0.516800  0.015800  1.0
  C  C1085  1  0.537100  0.274200  0.478400  1.0
  C  C1086  1  0.962900  0.274200  0.021600  1.0
  C  C1087  1  0.462900  0.725800  0.521600  1.0
  C  C1088  1  0.037100  0.725800  0.978400  1.0
  C  C1089  1  0.519400  0.231800  0.461500  1.0
  C  C1090  1  0.980600  0.231800  0.038500  1.0
  C  C1091  1  0.480600  0.768200  0.538500  1.0
  C  C1092  1  0.019400  0.768200  0.961500  1.0
  C  C1093  1  0.523600  0.192800  0.482800  1.0
  C  C1094  1  0.976400  0.192800  0.017200  1.0
  C  C1095  1  0.476400  0.807200  0.517200  1.0
  C  C1096  1  0.023600  0.807200  0.982800  1.0
  C  C1097  1  0.507600  0.153400  0.463600  1.0
  C  C1098  1  0.992400  0.153400  0.036400  1.0
  C  C1099  1  0.492400  0.846600  0.536400  1.0
  C  C1100  1  0.007600  0.846600  0.963600  1.0
  C  C1101  1  0.487500  0.153000  0.423100  1.0
  C  C1102  1  0.012500  0.153000  0.076900  1.0
  C  C1103  1  0.512500  0.847000  0.576900  1.0
  C  C1104  1  0.987500  0.847000  0.923100  1.0
  C  C1105  1  0.483400  0.192000  0.401800  1.0
  C  C1106  1  0.016600  0.192000  0.098200  1.0
  C  C1107  1  0.516600  0.808000  0.598200  1.0
  C  C1108  1  0.983400  0.808000  0.901800  1.0
  C  C1109  1  0.492400  0.104300  0.367200  1.0
  C  C1110  1  0.007600  0.104300  0.132800  1.0
  C  C1111  1  0.507600  0.895700  0.632800  1.0
  C  C1112  1  0.992400  0.895700  0.867200  1.0
  C  C1113  1  0.467600  0.112300  0.402300  1.0
  C  C1114  1  0.032400  0.112300  0.097700  1.0
  C  C1115  1  0.532400  0.887700  0.597700  1.0
  C  C1116  1  0.967600  0.887700  0.902300  1.0
  C  C1117  1  0.428200  0.081600  0.416600  1.0
  C  C1118  1  0.071800  0.081600  0.083400  1.0
  C  C1119  1  0.571800  0.918400  0.583400  1.0
  C  C1120  1  0.928200  0.918400  0.916600  1.0
  C  C1121  1  0.413600  0.043000  0.395800  1.0
  C  C1122  1  0.086400  0.043000  0.104200  1.0
  C  C1123  1  0.586400  0.957000  0.604200  1.0
  C  C1124  1  0.913600  0.957000  0.895800  1.0
  C  C1125  1  0.438400  0.035000  0.360700  1.0
  C  C1126  1  0.061600  0.035000  0.139300  1.0
  C  C1127  1  0.561600  0.965000  0.639300  1.0
  C  C1128  1  0.938400  0.965000  0.860700  1.0
  C  C1129  1  0.425100  0.995500  0.339700  1.0
  C  C1130  1  0.074900  0.995500  0.160300  1.0
  C  C1131  1  0.574900  0.004500  0.660300  1.0
  C  C1132  1  0.925100  0.004500  0.839700  1.0
  C  C1133  1  0.588200  0.996600  0.381700  1.0
  C  C1134  1  0.911800  0.996600  0.118300  1.0
  C  C1135  1  0.411800  0.003400  0.618300  1.0
  C  C1136  1  0.088200  0.003400  0.881700  1.0
  C  C1137  1  0.574800  0.959000  0.402600  1.0
  C  C1138  1  0.925200  0.959000  0.097400  1.0
  C  C1139  1  0.425200  0.041000  0.597400  1.0
  C  C1140  1  0.074800  0.041000  0.902600  1.0
  C  C1141  1  0.573200  0.961100  0.443500  1.0
  C  C1142  1  0.926800  0.961100  0.056500  1.0
  C  C1143  1  0.426800  0.038900  0.556500  1.0
  C  C1144  1  0.073200  0.038900  0.943500  1.0
  C  C1145  1  0.585000  0.000500  0.464300  1.0
  C  C1146  1  0.915000  0.000500  0.035700  1.0
  C  C1147  1  0.415000  0.999500  0.535700  1.0
  C  C1148  1  0.085000  0.999500  0.964300  1.0
  C  C1149  1  0.598100  0.037900  0.443000  1.0
  C  C1150  1  0.901900  0.037900  0.057000  1.0
  C  C1151  1  0.401900  0.962100  0.557000  1.0
  C  C1152  1  0.098100  0.962100  0.943000  1.0
  C  C1153  1  0.599800  0.036100  0.402100  1.0
  C  C1154  1  0.900200  0.036100  0.097900  1.0
  C  C1155  1  0.400200  0.963900  0.597900  1.0
  C  C1156  1  0.099800  0.963900  0.902100  1.0
  C  C1157  1  0.584800  0.002300  0.508600  1.0
  C  C1158  1  0.915200  0.002300  0.991400  1.0
  C  C1159  1  0.415200  0.997700  0.491400  1.0
  C  C1160  1  0.084800  0.997700  0.008600  1.0
  C  C1161  1  0.609200  0.965800  0.323700  1.0
  C  C1162  1  0.890800  0.965800  0.176300  1.0
  C  C1163  1  0.390800  0.034200  0.676300  1.0
  C  C1164  1  0.109200  0.034200  0.823700  1.0
  C  C1165  1  0.601400  0.963600  0.280200  1.0
  C  C1166  1  0.898600  0.963600  0.219800  1.0
  C  C1167  1  0.398600  0.036400  0.719800  1.0
  C  C1168  1  0.101400  0.036400  0.780200  1.0
  C  C1169  1  0.630500  0.933300  0.258100  1.0
  C  C1170  1  0.869500  0.933300  0.241900  1.0
  C  C1171  1  0.369500  0.066700  0.741900  1.0
  C  C1172  1  0.130500  0.066700  0.758100  1.0
  C  C1173  1  0.625400  0.937400  0.217100  1.0
  C  C1174  1  0.874600  0.937400  0.282900  1.0
  C  C1175  1  0.374600  0.062600  0.782900  1.0
  C  C1176  1  0.125400  0.062600  0.717100  1.0
  C  C1177  1  0.591200  0.971800  0.198200  1.0
  C  C1178  1  0.908800  0.971800  0.301800  1.0
  C  C1179  1  0.408800  0.028200  0.801800  1.0
  C  C1180  1  0.091200  0.028200  0.698200  1.0
  C  C1181  1  0.562100  0.002100  0.220300  1.0
  C  C1182  1  0.937900  0.002100  0.279700  1.0
  C  C1183  1  0.437900  0.997900  0.779700  1.0
  C  C1184  1  0.062100  0.997900  0.720300  1.0
  C  C1185  1  0.597400  0.019300  0.138600  1.0
  C  C1186  1  0.902600  0.019300  0.361400  1.0
  C  C1187  1  0.402600  0.980700  0.861400  1.0
  C  C1188  1  0.097400  0.980700  0.638600  1.0
  C  C1189  1  0.587400  0.978200  0.154200  1.0
  C  C1190  1  0.912600  0.978200  0.345800  1.0
  C  C1191  1  0.412600  0.021800  0.845800  1.0
  C  C1192  1  0.087400  0.021800  0.654200  1.0
  C  C1193  1  0.573400  0.942700  0.129000  1.0
  C  C1194  1  0.926600  0.942700  0.371000  1.0
  C  C1195  1  0.426600  0.057300  0.871000  1.0
  C  C1196  1  0.073400  0.057300  0.629000  1.0
  C  C1197  1  0.569400  0.948300  0.088300  1.0
  C  C1198  1  0.930600  0.948300  0.411700  1.0
  C  C1199  1  0.430600  0.051700  0.911700  1.0
  C  C1200  1  0.069400  0.051700  0.588300  1.0
  C  C1201  1  0.579300  0.989400  0.072600  1.0
  C  C1202  1  0.920700  0.989400  0.427400  1.0
  C  C1203  1  0.420700  0.010600  0.927400  1.0
  C  C1204  1  0.079300  0.010600  0.572600  1.0
  C  C1205  1  0.575800  0.998200  0.031400  1.0
  C  C1206  1  0.924200  0.998200  0.468600  1.0
  C  C1207  1  0.424200  0.001800  0.968600  1.0
  C  C1208  1  0.075800  0.001800  0.531400  1.0
  C  C1209  1  0.593800  0.041300  0.978300  1.0
  C  C1210  1  0.906200  0.041300  0.521700  1.0
  C  C1211  1  0.406200  0.958700  0.021700  1.0
  C  C1212  1  0.093800  0.958700  0.478300  1.0
  C  C1213  1  0.573300  0.081400  0.961600  1.0
  C  C1214  1  0.926700  0.081400  0.538400  1.0
  C  C1215  1  0.426700  0.918600  0.038400  1.0
  C  C1216  1  0.073300  0.918600  0.461600  1.0
  C  C1217  1  0.570900  0.088200  0.920800  1.0
  C  C1218  1  0.929100  0.088200  0.579200  1.0
  C  C1219  1  0.429100  0.911800  0.079200  1.0
  C  C1220  1  0.070900  0.911800  0.420800  1.0
  C  C1221  1  0.588700  0.055100  0.895900  1.0
  C  C1222  1  0.911300  0.055100  0.604100  1.0
  C  C1223  1  0.411300  0.944900  0.104100  1.0
  C  C1224  1  0.088700  0.944900  0.395900  1.0
  C  C1225  1  0.609000  0.015000  0.913100  1.0
  C  C1226  1  0.891000  0.015000  0.586900  1.0
  C  C1227  1  0.391000  0.985000  0.086900  1.0
  C  C1228  1  0.109000  0.985000  0.413100  1.0
  C  C1229  1  0.611600  0.008000  0.953800  1.0
  C  C1230  1  0.888400  0.008000  0.546200  1.0
  C  C1231  1  0.388400  0.992000  0.046200  1.0
  C  C1232  1  0.111600  0.992000  0.453800  1.0
  C  C1233  1  0.587500  0.062900  0.852100  1.0
  C  C1234  1  0.912500  0.062900  0.647900  1.0
  C  C1235  1  0.412500  0.937100  0.147900  1.0
  C  C1236  1  0.087500  0.937100  0.352100  1.0
  C  C1237  1  0.603000  0.410900  0.949200  1.0
  C  C1238  1  0.897000  0.410900  0.550800  1.0
  C  C1239  1  0.397000  0.589100  0.050800  1.0
  C  C1240  1  0.103000  0.589100  0.449200  1.0
  C  C1241  1  0.630600  0.431400  0.919000  1.0
  C  C1242  1  0.869400  0.431400  0.581000  1.0
  C  C1243  1  0.369400  0.568600  0.081000  1.0
  C  C1244  1  0.130600  0.568600  0.419000  1.0
  C  C1245  1  0.616500  0.475000  0.909300  1.0
  C  C1246  1  0.883500  0.475000  0.590700  1.0
  C  C1247  1  0.383500  0.525000  0.090700  1.0
  C  C1248  1  0.116500  0.525000  0.409300  1.0
  C  C1249  1  0.574700  0.499100  0.929300  1.0
  C  C1250  1  0.925300  0.499100  0.570700  1.0
  C  C1251  1  0.425300  0.500900  0.070700  1.0
  C  C1252  1  0.074700  0.500900  0.429300  1.0
  C  C1253  1  0.547500  0.478100  0.959600  1.0
  C  C1254  1  0.952500  0.478100  0.540400  1.0
  C  C1255  1  0.452500  0.521900  0.040400  1.0
  C  C1256  1  0.047500  0.521900  0.459600  1.0
  C  C1257  1  0.561400  0.434500  0.969500  1.0
  C  C1258  1  0.938600  0.434500  0.530500  1.0
  C  C1259  1  0.438600  0.565500  0.030500  1.0
  C  C1260  1  0.061400  0.565500  0.469500  1.0
  C  C1261  1  0.558400  0.545900  0.918000  1.0
  C  C1262  1  0.941600  0.545900  0.582000  1.0
  C  C1263  1  0.441600  0.454100  0.082000  1.0
  C  C1264  1  0.058400  0.454100  0.418000  1.0
  C  C1265  1  0.625100  0.338100  0.933000  1.0
  C  C1266  1  0.874900  0.338100  0.567000  1.0
  C  C1267  1  0.374900  0.661900  0.067000  1.0
  C  C1268  1  0.125100  0.661900  0.433000  1.0
  C  C1269  1  0.646300  0.294900  0.942900  1.0
  C  C1270  1  0.853700  0.294900  0.557100  1.0
  C  C1271  1  0.353700  0.705100  0.057100  1.0
  C  C1272  1  0.146300  0.705100  0.442900  1.0
  C  C1273  1  0.655600  0.262900  0.915100  1.0
  C  C1274  1  0.844400  0.262900  0.584900  1.0
  C  C1275  1  0.344400  0.737100  0.084900  1.0
  C  C1276  1  0.155600  0.737100  0.415100  1.0
  C  C1277  1  0.673400  0.220800  0.927500  1.0
  C  C1278  1  0.826600  0.220800  0.572500  1.0
  C  C1279  1  0.326600  0.779200  0.072500  1.0
  C  C1280  1  0.173400  0.779200  0.427500  1.0
  C  C1281  1  0.682100  0.210700  0.967700  1.0
  C  C1282  1  0.817900  0.210700  0.532300  1.0
  C  C1283  1  0.317900  0.789300  0.032300  1.0
  C  C1284  1  0.182100  0.789300  0.467700  1.0
  C  C1285  1  0.672800  0.242700  0.995500  1.0
  C  C1286  1  0.827200  0.242700  0.504500  1.0
  C  C1287  1  0.327200  0.757300  0.004500  1.0
  C  C1288  1  0.172800  0.757300  0.495500  1.0
  C  C1289  1  0.671000  0.151200  0.014000  1.0
  C  C1290  1  0.829000  0.151200  0.486000  1.0
  C  C1291  1  0.329000  0.848800  0.986000  1.0
  C  C1292  1  0.171000  0.848800  0.514000  1.0
  C  C1293  1  0.701300  0.167700  0.983400  1.0
  C  C1294  1  0.798700  0.167700  0.516600  1.0
  C  C1295  1  0.298700  0.832300  0.016600  1.0
  C  C1296  1  0.201300  0.832300  0.483400  1.0
  C  C1297  1  0.747200  0.143000  0.968400  1.0
  C  C1298  1  0.752800  0.143000  0.531600  1.0
  C  C1299  1  0.252800  0.857000  0.031600  1.0
  C  C1300  1  0.247200  0.857000  0.468400  1.0
  C  C1301  1  0.762900  0.101800  0.984000  1.0
  C  C1302  1  0.737100  0.101800  0.516000  1.0
  C  C1303  1  0.237100  0.898200  0.016000  1.0
  C  C1304  1  0.262900  0.898200  0.484000  1.0
  C  C1305  1  0.732600  0.085300  0.014600  1.0
  C  C1306  1  0.767400  0.085300  0.485400  1.0
  C  C1307  1  0.267400  0.914700  0.985400  1.0
  C  C1308  1  0.232600  0.914700  0.514600  1.0
  C  C1309  1  0.745600  0.044800  0.033500  1.0
  C  C1310  1  0.754400  0.044800  0.466500  1.0
  C  C1311  1  0.254400  0.955200  0.966500  1.0
  C  C1312  1  0.245600  0.955200  0.533500  1.0
  C  C1313  1  0.732500  0.992300  0.081300  1.0
  C  C1314  1  0.767500  0.992300  0.418700  1.0
  C  C1315  1  0.267500  0.007700  0.918700  1.0
  C  C1316  1  0.232500  0.007700  0.581300  1.0
  C  C1317  1  0.735000  0.987400  0.122200  1.0
  C  C1318  1  0.765000  0.987400  0.377800  1.0
  C  C1319  1  0.265000  0.012600  0.877800  1.0
  C  C1320  1  0.235000  0.012600  0.622200  1.0
  C  C1321  1  0.741100  0.945700  0.139300  1.0
  C  C1322  1  0.758900  0.945700  0.360700  1.0
  C  C1323  1  0.258900  0.054300  0.860700  1.0
  C  C1324  1  0.241100  0.054300  0.639300  1.0
  C  C1325  1  0.744800  0.908200  0.115900  1.0
  C  C1326  1  0.755200  0.908200  0.384100  1.0
  C  C1327  1  0.255200  0.091800  0.884100  1.0
  C  C1328  1  0.244800  0.091800  0.615900  1.0
  C  C1329  1  0.742500  0.913800  0.074800  1.0
  C  C1330  1  0.757500  0.913800  0.425200  1.0
  C  C1331  1  0.257500  0.086200  0.925200  1.0
  C  C1332  1  0.242500  0.086200  0.574800  1.0
  C  C1333  1  0.736400  0.955300  0.057600  1.0
  C  C1334  1  0.763600  0.955300  0.442400  1.0
  C  C1335  1  0.263600  0.044700  0.942400  1.0
  C  C1336  1  0.236400  0.044700  0.557600  1.0
  C  C1337  1  0.749900  0.863200  0.134300  1.0
  C  C1338  1  0.750100  0.863200  0.365700  1.0
  C  C1339  1  0.250100  0.136800  0.865700  1.0
  C  C1340  1  0.249900  0.136800  0.634300  1.0
  C  C1341  1  0.683800  0.428900  0.242400  1.0
  C  C1342  1  0.816200  0.428900  0.257600  1.0
  C  C1343  1  0.316200  0.571100  0.757600  1.0
  C  C1344  1  0.183800  0.571100  0.742400  1.0
  C  C1345  1  0.717900  0.390200  0.242500  1.0
  C  C1346  1  0.782100  0.390200  0.257500  1.0
  C  C1347  1  0.282100  0.609800  0.757500  1.0
  C  C1348  1  0.217900  0.609800  0.742500  1.0
  C  C1349  1  0.688100  0.351600  0.229100  1.0
  C  C1350  1  0.811900  0.351600  0.270900  1.0
  C  C1351  1  0.311900  0.648400  0.770900  1.0
  C  C1352  1  0.188100  0.648400  0.729100  1.0
  C  C1353  1  0.624200  0.351600  0.215600  1.0
  C  C1354  1  0.875800  0.351600  0.284400  1.0
  C  C1355  1  0.375800  0.648400  0.784400  1.0
  C  C1356  1  0.124200  0.648400  0.715600  1.0
  C  C1357  1  0.590100  0.390400  0.215500  1.0
  C  C1358  1  0.909900  0.390400  0.284500  1.0
  C  C1359  1  0.409900  0.609600  0.784500  1.0
  C  C1360  1  0.090100  0.609600  0.715500  1.0
  C  C1361  1  0.520800  0.399300  0.204100  1.0
  C  C1362  1  0.979200  0.399300  0.295900  1.0
  C  C1363  1  0.479200  0.600700  0.795900  1.0
  C  C1364  1  0.020800  0.600700  0.704100  1.0
  C  C1365  1  0.739500  0.107300  0.140200  1.0
  C  C1366  1  0.760500  0.107300  0.359800  1.0
  C  C1367  1  0.260500  0.892700  0.859800  1.0
  C  C1368  1  0.239500  0.892700  0.640200  1.0
  C  C1369  1  0.756700  0.131100  0.174700  1.0
  C  C1370  1  0.743300  0.131100  0.325300  1.0
  C  C1371  1  0.243300  0.868900  0.825300  1.0
  C  C1372  1  0.256700  0.868900  0.674700  1.0
  C  C1373  1  0.713500  0.158400  0.189400  1.0
  C  C1374  1  0.786500  0.158400  0.310600  1.0
  C  C1375  1  0.286500  0.841600  0.810600  1.0
  C  C1376  1  0.213500  0.841600  0.689400  1.0
  C  C1377  1  0.652900  0.162000  0.169600  1.0
  C  C1378  1  0.847100  0.162000  0.330400  1.0
  C  C1379  1  0.347100  0.838000  0.830400  1.0
  C  C1380  1  0.152900  0.838000  0.669600  1.0
  C  C1381  1  0.635700  0.138200  0.135000  1.0
  C  C1382  1  0.864300  0.138200  0.365000  1.0
  C  C1383  1  0.364300  0.861800  0.865000  1.0
  C  C1384  1  0.135700  0.861800  0.635000  1.0
  C  C1385  1  0.577400  0.144700  0.110200  1.0
  C  C1386  1  0.922600  0.144700  0.389800  1.0
  C  C1387  1  0.422600  0.855300  0.889800  1.0
  C  C1388  1  0.077400  0.855300  0.610200  1.0
  C  C1389  1  0.510500  0.139800  0.051900  1.0
  C  C1390  1  0.989500  0.139800  0.448100  1.0
  C  C1391  1  0.489500  0.860200  0.948100  1.0
  C  C1392  1  0.010500  0.860200  0.551900  1.0
  C  C1393  1  0.468400  0.108700  0.034000  1.0
  C  C1394  1  0.031600  0.108700  0.466000  1.0
  C  C1395  1  0.531600  0.891300  0.966000  1.0
  C  C1396  1  0.968400  0.891300  0.534000  1.0
  C  C1397  1  0.413000  0.122000  0.011100  1.0
  C  C1398  1  0.087000  0.122000  0.488900  1.0
  C  C1399  1  0.587000  0.878000  0.988900  1.0
  C  C1400  1  0.913000  0.878000  0.511100  1.0
  C  C1401  1  0.398400  0.166600  0.005600  1.0
  C  C1402  1  0.101600  0.166600  0.494400  1.0
  C  C1403  1  0.601600  0.833400  0.994400  1.0
  C  C1404  1  0.898400  0.833400  0.505600  1.0
  C  C1405  1  0.441200  0.197500  0.023700  1.0
  C  C1406  1  0.058800  0.197500  0.476300  1.0
  C  C1407  1  0.558800  0.802500  0.976300  1.0
  C  C1408  1  0.941200  0.802500  0.523700  1.0
  C  C1409  1  0.496700  0.184300  0.046600  1.0
  C  C1410  1  0.003300  0.184300  0.453400  1.0
  C  C1411  1  0.503300  0.815700  0.953400  1.0
  C  C1412  1  0.996700  0.815700  0.546600  1.0
  C  C1413  1  0.337900  0.180900  0.981700  1.0
  C  C1414  1  0.162100  0.180900  0.518300  1.0
  C  C1415  1  0.662100  0.819100  0.018300  1.0
  C  C1416  1  0.837900  0.819100  0.481700  1.0
  C  C1417  1  0.853500  0.093300  0.187300  1.0
  C  C1418  1  0.646500  0.093300  0.312700  1.0
  C  C1419  1  0.146500  0.906700  0.812700  1.0
  C  C1420  1  0.353500  0.906700  0.687300  1.0
  C  C1421  1  0.818700  0.131000  0.191700  1.0
  C  C1422  1  0.681300  0.131000  0.308300  1.0
  C  C1423  1  0.181300  0.869000  0.808300  1.0
  C  C1424  1  0.318700  0.869000  0.691700  1.0
  C  C1425  1  0.845900  0.166100  0.213600  1.0
  C  C1426  1  0.654100  0.166100  0.286400  1.0
  C  C1427  1  0.154100  0.833900  0.786400  1.0
  C  C1428  1  0.345900  0.833900  0.713600  1.0
  C  C1429  1  0.907900  0.163500  0.231200  1.0
  C  C1430  1  0.592100  0.163500  0.268800  1.0
  C  C1431  1  0.092100  0.836500  0.768800  1.0
  C  C1432  1  0.407900  0.836500  0.731200  1.0
  C  C1433  1  0.942700  0.125700  0.226900  1.0
  C  C1434  1  0.557300  0.125700  0.273100  1.0
  C  C1435  1  0.057300  0.874300  0.773100  1.0
  C  C1436  1  0.442700  0.874300  0.726900  1.0
  C  C1437  1  0.005600  0.118100  0.247100  1.0
  C  C1438  1  0.494400  0.118100  0.252900  1.0
  C  C1439  1  0.994400  0.881900  0.752900  1.0
  C  C1440  1  0.505600  0.881900  0.747100  1.0
  C  C1441  1  0.096200  0.078200  0.261200  1.0
  C  C1442  1  0.403800  0.078200  0.238800  1.0
  C  C1443  1  0.903800  0.921800  0.738800  1.0
  C  C1444  1  0.596200  0.921800  0.761200  1.0
  C  C1445  1  0.115300  0.037200  0.276500  1.0
  C  C1446  1  0.384700  0.037200  0.223500  1.0
  C  C1447  1  0.884700  0.962800  0.723500  1.0
  C  C1448  1  0.615300  0.962800  0.776500  1.0
  C  C1449  1  0.176300  0.031200  0.295400  1.0
  C  C1450  1  0.323700  0.031200  0.204600  1.0
  C  C1451  1  0.823700  0.968800  0.704600  1.0
  C  C1452  1  0.676300  0.968800  0.795400  1.0
  C  C1453  1  0.219500  0.065900  0.299500  1.0
  C  C1454  1  0.280500  0.065900  0.200500  1.0
  C  C1455  1  0.780500  0.934100  0.700500  1.0
  C  C1456  1  0.719500  0.934100  0.799500  1.0
  C  C1457  1  0.199500  0.106900  0.284100  1.0
  C  C1458  1  0.300500  0.106900  0.215900  1.0
  C  C1459  1  0.800500  0.893100  0.715900  1.0
  C  C1460  1  0.699500  0.893100  0.784100  1.0
  C  C1461  1  0.138600  0.113100  0.265100  1.0
  C  C1462  1  0.361400  0.113100  0.234900  1.0
  C  C1463  1  0.861400  0.886900  0.734900  1.0
  C  C1464  1  0.638600  0.886900  0.765100  1.0
  C  C1465  1  0.285800  0.059100  0.319100  1.0
  C  C1466  1  0.214200  0.059100  0.180900  1.0
  C  C1467  1  0.714200  0.940900  0.680900  1.0
  C  C1468  1  0.785800  0.940900  0.819100  1.0
  C  C1469  1  0.623500  0.294200  0.380700  1.0
  C  C1470  1  0.876500  0.294200  0.119300  1.0
  C  C1471  1  0.376500  0.705800  0.619300  1.0
  C  C1472  1  0.123500  0.705800  0.880700  1.0
  C  C1473  1  0.668800  0.292200  0.355000  1.0
  C  C1474  1  0.831200  0.292200  0.145000  1.0
  C  C1475  1  0.331200  0.707800  0.645000  1.0
  C  C1476  1  0.168800  0.707800  0.855000  1.0
  C  C1477  1  0.650900  0.286600  0.314600  1.0
  C  C1478  1  0.849100  0.286600  0.185400  1.0
  C  C1479  1  0.349100  0.713400  0.685400  1.0
  C  C1480  1  0.150900  0.713400  0.814600  1.0
  C  C1481  1  0.587700  0.283000  0.299800  1.0
  C  C1482  1  0.912300  0.283000  0.200200  1.0
  C  C1483  1  0.412300  0.717000  0.700200  1.0
  C  C1484  1  0.087700  0.717000  0.799800  1.0
  C  C1485  1  0.542400  0.285000  0.325500  1.0
  C  C1486  1  0.957600  0.285000  0.174500  1.0
  C  C1487  1  0.457600  0.715000  0.674500  1.0
  C  C1488  1  0.042400  0.715000  0.825500  1.0
  C  C1489  1  0.475400  0.279300  0.312200  1.0
  C  C1490  1  0.024600  0.279300  0.187800  1.0
  C  C1491  1  0.524600  0.720700  0.687800  1.0
  C  C1492  1  0.975400  0.720700  0.812200  1.0
  C  C1493  1  0.746900  0.312900  0.408400  1.0
  C  C1494  1  0.753100  0.312900  0.091600  1.0
  C  C1495  1  0.253100  0.687100  0.591600  1.0
  C  C1496  1  0.246900  0.687100  0.908400  1.0
  C  C1497  1  0.732900  0.292700  0.371700  1.0
  C  C1498  1  0.767100  0.292700  0.128300  1.0
  C  C1499  1  0.267100  0.707300  0.628300  1.0
  C  C1500  1  0.232900  0.707300  0.871700  1.0
  C  C1501  1  0.780800  0.274800  0.352900  1.0
  C  C1502  1  0.719200  0.274800  0.147100  1.0
  C  C1503  1  0.219200  0.725200  0.647100  1.0
  C  C1504  1  0.280800  0.725200  0.852900  1.0
  C  C1505  1  0.842600  0.277000  0.370900  1.0
  C  C1506  1  0.657400  0.277000  0.129100  1.0
  C  C1507  1  0.157400  0.723000  0.629100  1.0
  C  C1508  1  0.342600  0.723000  0.870900  1.0
  C  C1509  1  0.856600  0.297200  0.407600  1.0
  C  C1510  1  0.643400  0.297200  0.092400  1.0
  C  C1511  1  0.143400  0.702800  0.592400  1.0
  C  C1512  1  0.356600  0.702800  0.907600  1.0
  C  C1513  1  0.921700  0.303800  0.429600  1.0
  C  C1514  1  0.578300  0.303800  0.070400  1.0
  C  C1515  1  0.078300  0.696200  0.570400  1.0
  C  C1516  1  0.421700  0.696200  0.929600  1.0
  C  C1517  1  0.993300  0.326000  0.481000  1.0
  C  C1518  1  0.506700  0.326000  0.019000  1.0
  C  C1519  1  0.006700  0.674000  0.519000  1.0
  C  C1520  1  0.493300  0.674000  0.981000  1.0
  C  C1521  1  0.014100  0.317600  0.520900  1.0
  C  C1522  1  0.485900  0.317600  0.979100  1.0
  C  C1523  1  0.985900  0.682400  0.479100  1.0
  C  C1524  1  0.514100  0.682400  0.020900  1.0
  C  C1525  1  0.077800  0.321300  0.535300  1.0
  C  C1526  1  0.422200  0.321300  0.964700  1.0
  C  C1527  1  0.922200  0.678700  0.464700  1.0
  C  C1528  1  0.577800  0.678700  0.035300  1.0
  C  C1529  1  0.121900  0.333400  0.510300  1.0
  C  C1530  1  0.378100  0.333400  0.989700  1.0
  C  C1531  1  0.878100  0.666600  0.489700  1.0
  C  C1532  1  0.621900  0.666600  0.010300  1.0
  C  C1533  1  0.100300  0.341900  0.470400  1.0
  C  C1534  1  0.399700  0.341900  0.029600  1.0
  C  C1535  1  0.899700  0.658100  0.529600  1.0
  C  C1536  1  0.600300  0.658100  0.970400  1.0
  C  C1537  1  0.036700  0.338200  0.455800  1.0
  C  C1538  1  0.463300  0.338200  0.044200  1.0
  C  C1539  1  0.963300  0.661800  0.544200  1.0
  C  C1540  1  0.536700  0.661800  0.955800  1.0
  C  C1541  1  0.190700  0.336400  0.525800  1.0
  C  C1542  1  0.309300  0.336400  0.974200  1.0
  C  C1543  1  0.809300  0.663600  0.474200  1.0
  C  C1544  1  0.690700  0.663600  0.025800  1.0
  C  C1545  1  0.425700  0.948900  0.287500  1.0
  C  C1546  1  0.074300  0.948900  0.212500  1.0
  C  C1547  1  0.574300  0.051100  0.712500  1.0
  C  C1548  1  0.925700  0.051100  0.787500  1.0
  C  C1549  1  0.470500  0.917900  0.280100  1.0
  C  C1550  1  0.029500  0.917900  0.219900  1.0
  C  C1551  1  0.529500  0.082100  0.719900  1.0
  C  C1552  1  0.970500  0.082100  0.780100  1.0
  C  C1553  1  0.452700  0.881000  0.257100  1.0
  C  C1554  1  0.047300  0.881000  0.242900  1.0
  C  C1555  1  0.547300  0.119000  0.742900  1.0
  C  C1556  1  0.952700  0.119000  0.757100  1.0
  C  C1557  1  0.389900  0.874200  0.241200  1.0
  C  C1558  1  0.110100  0.874200  0.258800  1.0
  C  C1559  1  0.610100  0.125800  0.758800  1.0
  C  C1560  1  0.889900  0.125800  0.741200  1.0
  C  C1561  1  0.345500  0.905800  0.248700  1.0
  C  C1562  1  0.154500  0.905800  0.251300  1.0
  C  C1563  1  0.654500  0.094200  0.751300  1.0
  C  C1564  1  0.845500  0.094200  0.748700  1.0
  C  C1565  1  0.363100  0.942800  0.271700  1.0
  C  C1566  1  0.136900  0.942800  0.228300  1.0
  C  C1567  1  0.636900  0.057200  0.728300  1.0
  C  C1568  1  0.863100  0.057200  0.771700  1.0
  C  C1569  1  0.370500  0.833800  0.217200  1.0
  C  C1570  1  0.129500  0.833800  0.282800  1.0
  C  C1571  1  0.629500  0.166200  0.782800  1.0
  C  C1572  1  0.870500  0.166200  0.717200  1.0
  C  C1573  1  0.433800  0.429900  0.195000  1.0
  C  C1574  1  0.066200  0.429900  0.305000  1.0
  C  C1575  1  0.566200  0.570100  0.805000  1.0
  C  C1576  1  0.933800  0.570100  0.695000  1.0
  C  C1577  1  0.402000  0.463000  0.172300  1.0
  C  C1578  1  0.098000  0.463000  0.327700  1.0
  C  C1579  1  0.598000  0.537000  0.827700  1.0
  C  C1580  1  0.902000  0.537000  0.672300  1.0
  C  C1581  1  0.339800  0.456800  0.155500  1.0
  C  C1582  1  0.160200  0.456800  0.344500  1.0
  C  C1583  1  0.660200  0.543200  0.844500  1.0
  C  C1584  1  0.839800  0.543200  0.655500  1.0
  C  C1585  1  0.308200  0.417500  0.160900  1.0
  C  C1586  1  0.191800  0.417500  0.339100  1.0
  C  C1587  1  0.691800  0.582500  0.839100  1.0
  C  C1588  1  0.808200  0.582500  0.660900  1.0
  C  C1589  1  0.340700  0.384600  0.183900  1.0
  C  C1590  1  0.159300  0.384600  0.316100  1.0
  C  C1591  1  0.659300  0.615400  0.816100  1.0
  C  C1592  1  0.840700  0.615400  0.683900  1.0
  C  C1593  1  0.402900  0.390600  0.200800  1.0
  C  C1594  1  0.097100  0.390600  0.299200  1.0
  C  C1595  1  0.597100  0.609400  0.799200  1.0
  C  C1596  1  0.902900  0.609400  0.700800  1.0
  C  C1597  1  0.241600  0.410500  0.141900  1.0
  C  C1598  1  0.258400  0.410500  0.358100  1.0
  C  C1599  1  0.758400  0.589500  0.858100  1.0
  C  C1600  1  0.741600  0.589500  0.641900  1.0
  C  C1601  1  0.372300  0.268900  0.325800  1.0
  C  C1602  1  0.127700  0.268900  0.174200  1.0
  C  C1603  1  0.627700  0.731100  0.674200  1.0
  C  C1604  1  0.872300  0.731100  0.825800  1.0
  C  C1605  1  0.325200  0.286900  0.345500  1.0
  C  C1606  1  0.174800  0.286900  0.154500  1.0
  C  C1607  1  0.674800  0.713100  0.654500  1.0
  C  C1608  1  0.825200  0.713100  0.845500  1.0
  C  C1609  1  0.262200  0.279100  0.331600  1.0
  C  C1610  1  0.237800  0.279100  0.168400  1.0
  C  C1611  1  0.737800  0.720900  0.668400  1.0
  C  C1612  1  0.762200  0.720900  0.831600  1.0
  C  C1613  1  0.244800  0.253300  0.297900  1.0
  C  C1614  1  0.255200  0.253300  0.202100  1.0
  C  C1615  1  0.755200  0.746700  0.702100  1.0
  C  C1616  1  0.744800  0.746700  0.797900  1.0
  C  C1617  1  0.292600  0.235300  0.278500  1.0
  C  C1618  1  0.207400  0.235300  0.221500  1.0
  C  C1619  1  0.707400  0.764700  0.721500  1.0
  C  C1620  1  0.792600  0.764700  0.778500  1.0
  C  C1621  1  0.355800  0.243000  0.292200  1.0
  C  C1622  1  0.144200  0.243000  0.207800  1.0
  C  C1623  1  0.644200  0.757000  0.707800  1.0
  C  C1624  1  0.855800  0.757000  0.792200  1.0
  C  C1625  1  0.176700  0.245800  0.282400  1.0
  C  C1626  1  0.323300  0.245800  0.217600  1.0
  C  C1627  1  0.823300  0.754200  0.717600  1.0
  C  C1628  1  0.676700  0.754200  0.782400  1.0
  Br  Br1629  1  0.750000  0.252200  0.250000  1
  Br  Br1630  1  0.250000  0.747800  0.750000  1
  Br  Br1631  1  0.783200  0.246150  0.258500  1.0
  Br  Br1632  1  0.716800  0.246150  0.241500  1.0
  Br  Br1633  1  0.216800  0.753850  0.741500  1.0
  Br  Br1634  1  0.283200  0.753850  0.758500  1.0
  N  N1635  1  0.750900  0.360100  0.998700  1.0
  N  N1636  1  0.749100  0.360100  0.501300  1.0
  N  N1637  1  0.249100  0.639900  0.001300  1.0
  N  N1638  1  0.250900  0.639900  0.498700  1.0
  N  N1639  1  0.501000  0.541400  0.211300  1.0
  N  N1640  1  0.999000  0.541400  0.288700  1.0
  N  N1641  1  0.499000  0.458600  0.788700  1.0
  N  N1642  1  0.001000  0.458600  0.711300  1.0
  N  N1643  1  0.630400  0.533700  0.243000  1.0
  N  N1644  1  0.869600  0.533700  0.257000  1.0
  N  N1645  1  0.369600  0.466300  0.757000  1.0
  N  N1646  1  0.130400  0.466300  0.743000  1.0
  N  N1647  1  0.402300  0.307500  0.430300  1.0
  N  N1648  1  0.097700  0.307500  0.069700  1.0
  N  N1649  1  0.597700  0.692500  0.569700  1.0
  N  N1650  1  0.902300  0.692500  0.930300  1.0
  N  N1651  1  0.536300  0.308200  0.455200  1.0
  N  N1652  1  0.963700  0.308200  0.044800  1.0
  N  N1653  1  0.463700  0.691800  0.544800  1.0
  N  N1654  1  0.036300  0.691800  0.955200  1.0
  N  N1655  1  0.448100  0.987900  0.307300  1.0
  N  N1656  1  0.051900  0.987900  0.192700  1.0
  N  N1657  1  0.551900  0.012100  0.692700  1.0
  N  N1658  1  0.948100  0.012100  0.807300  1.0
  N  N1659  1  0.584300  0.997000  0.340100  1.0
  N  N1660  1  0.915700  0.997000  0.159900  1.0
  N  N1661  1  0.415700  0.003000  0.659900  1.0
  N  N1662  1  0.084300  0.003000  0.840100  1.0
  N  N1663  1  0.618300  0.367400  0.959400  1.0
  N  N1664  1  0.881700  0.367400  0.540600  1.0
  N  N1665  1  0.381700  0.632600  0.040600  1.0
  N  N1666  1  0.118300  0.632600  0.459400  1.0
  N  N1667  1  0.590000  0.034200  0.020600  1.0
  N  N1668  1  0.910000  0.034200  0.479400  1.0
  N  N1669  1  0.410000  0.965800  0.979400  1.0
  N  N1670  1  0.090000  0.965800  0.520600  1.0
  N  N1671  1  0.719500  0.033900  0.064400  1.0
  N  N1672  1  0.780500  0.033900  0.435600  1.0
  N  N1673  1  0.280500  0.966100  0.935600  1.0
  N  N1674  1  0.219500  0.966100  0.564400  1.0
  N  N1675  1  0.564500  0.127000  0.077400  1.0
  N  N1676  1  0.935500  0.127000  0.422600  1.0
  N  N1677  1  0.435500  0.873000  0.922600  1.0
  N  N1678  1  0.064500  0.873000  0.577400  1.0
  N  N1679  1  0.932700  0.323200  0.463400  1.0
  N  N1680  1  0.567300  0.323200  0.036600  1.0
  N  N1681  1  0.067300  0.676800  0.536600  1.0
  N  N1682  1  0.432700  0.676800  0.963400  1.0
  N  N1683  1  0.489200  0.434400  0.208300  1.0
  N  N1684  1  0.010800  0.434400  0.291700  1.0
  N  N1685  1  0.510800  0.565600  0.791700  1.0
  N  N1686  1  0.989200  0.565600  0.708300  1.0
  N  N1687  1  0.435800  0.277800  0.337700  1.0
  N  N1688  1  0.064200  0.277800  0.162300  1.0
  N  N1689  1  0.564200  0.722200  0.662300  1.0
  N  N1690  1  0.935800  0.722200  0.837700  1.0
  N  N1691  1  0.033600  0.082800  0.243500  1.0
  N  N1692  1  0.466400  0.082800  0.256500  1.0
  N  N1693  1  0.966400  0.917200  0.756500  1.0
  N  N1694  1  0.533600  0.917200  0.743500  1.0
  N  N1695  1  0.674600  0.407200  0.041000  1.0
  N  N1696  1  0.825400  0.407200  0.459000  1.0
  N  N1697  1  0.325400  0.592800  0.959000  1.0
  N  N1698  1  0.174600  0.592800  0.541000  1.0
  N  N1699  1  0.566100  0.498600  0.161300  1.0
  N  N1700  1  0.933900  0.498600  0.338700  1.0
  N  N1701  1  0.433900  0.501400  0.838700  1.0
  N  N1702  1  0.066100  0.501400  0.661300  1.0
  N  N1703  1  0.556300  0.485100  0.285900  1.0
  N  N1704  1  0.943700  0.485100  0.214100  1.0
  N  N1705  1  0.443700  0.514900  0.714100  1.0
  N  N1706  1  0.056300  0.514900  0.785900  1.0
  N  N1707  1  0.461600  0.363400  0.387000  1.0
  N  N1708  1  0.038400  0.363400  0.113000  1.0
  N  N1709  1  0.538400  0.636600  0.613000  1.0
  N  N1710  1  0.961600  0.636600  0.887000  1.0
  N  N1711  1  0.499400  0.231400  0.421000  1.0
  N  N1712  1  0.000600  0.231400  0.079000  1.0
  N  N1713  1  0.500600  0.768600  0.579000  1.0
  N  N1714  1  0.999400  0.768600  0.921000  1.0
  N  N1715  1  0.477800  0.065600  0.346400  1.0
  N  N1716  1  0.022200  0.065600  0.153600  1.0
  N  N1717  1  0.522200  0.934400  0.653600  1.0
  N  N1718  1  0.977800  0.934400  0.846400  1.0
  N  N1719  1  0.567200  0.998000  0.261300  1.0
  N  N1720  1  0.932800  0.998000  0.238700  1.0
  N  N1721  1  0.432800  0.002000  0.738700  1.0
  N  N1722  1  0.067200  0.002000  0.761300  1.0
  N  N1723  1  0.593300  0.024900  0.097800  1.0
  N  N1724  1  0.906700  0.024900  0.402200  1.0
  N  N1725  1  0.406700  0.975100  0.902200  1.0
  N  N1726  1  0.093300  0.975100  0.597800  1.0
  N  N1727  1  0.654900  0.284800  0.983000  1.0
  N  N1728  1  0.845100  0.284800  0.517000  1.0
  N  N1729  1  0.345100  0.715200  0.017000  1.0
  N  N1730  1  0.154900  0.715200  0.483000  1.0
  N  N1731  1  0.686700  0.110000  0.029600  1.0
  N  N1732  1  0.813300  0.110000  0.470400  1.0
  N  N1733  1  0.313300  0.890000  0.970400  1.0
  N  N1734  1  0.186700  0.890000  0.529600  1.0
  N  N1735  1  0.619900  0.429000  0.228900  1.0
  N  N1736  1  0.880100  0.429000  0.271100  1.0
  N  N1737  1  0.380100  0.571000  0.771100  1.0
  N  N1738  1  0.119900  0.571000  0.728900  1.0
  N  N1739  1  0.679000  0.110900  0.120300  1.0
  N  N1740  1  0.821000  0.110900  0.379700  1.0
  N  N1741  1  0.321000  0.889100  0.879700  1.0
  N  N1742  1  0.179000  0.889100  0.620300  1.0
  N  N1743  1  0.915400  0.090700  0.204900  1.0
  N  N1744  1  0.584600  0.090700  0.295100  1.0
  N  N1745  1  0.084600  0.909300  0.795100  1.0
  N  N1746  1  0.415400  0.909300  0.704900  1.0
  N  N1747  1  0.560300  0.290600  0.365900  1.0
  N  N1748  1  0.939700  0.290600  0.134100  1.0
  N  N1749  1  0.439700  0.709400  0.634100  1.0
  N  N1750  1  0.060300  0.709400  0.865900  1.0
  N  N1751  1  0.808700  0.315200  0.426300  1.0
  N  N1752  1  0.691300  0.315200  0.073700  1.0
  N  N1753  1  0.191300  0.684800  0.573700  1.0
  N  N1754  1  0.308700  0.684800  0.926300  1.0
  Cl  Cl1755  1  0.800700  0.416500  0.147200  1
  Cl  Cl1756  1  0.699300  0.416500  0.352800  1
  Cl  Cl1757  1  0.199300  0.583500  0.852800  1
  Cl  Cl1758  1  0.300700  0.583500  0.647200  1
  Cl  Cl1759  1  0.824100  0.184400  0.084700  1
  Cl  Cl1760  1  0.675900  0.184400  0.415300  1
  Cl  Cl1761  1  0.175900  0.815600  0.915300  1
  Cl  Cl1762  1  0.324100  0.815600  0.584700  1
  Cl  Cl1763  1  0.750000  0.036700  0.250000  1
  Cl  Cl1764  1  0.250000  0.963300  0.750000  1
  Cl  Cl1765  1  0.495000  0.246900  0.183500  1
  Cl  Cl1766  1  0.005000  0.246900  0.316500  1
  Cl  Cl1767  1  0.505000  0.753100  0.816500  1
  Cl  Cl1768  1  0.995000  0.753100  0.683500  1
  Cl  Cl1769  1  0.244100  0.070200  0.056700  1
  Cl  Cl1770  1  0.255900  0.070200  0.443300  1
  Cl  Cl1771  1  0.755900  0.929800  0.943300  1
  Cl  Cl1772  1  0.744100  0.929800  0.556700  1
  Cl  Cl1773  1  0.857900  0.586600  0.046300  1
  Cl  Cl1774  1  0.642100  0.586600  0.453700  1
  Cl  Cl1775  1  0.142100  0.413400  0.953700  1
  Cl  Cl1776  1  0.357900  0.413400  0.546300  1
  Cl  Cl1777  1  0.201700  0.536600  0.112200  1
  Cl  Cl1778  1  0.298300  0.536600  0.387800  1
  Cl  Cl1779  1  0.798300  0.463400  0.887800  1
  Cl  Cl1780  1  0.701700  0.463400  0.612200  1
  Cl  Cl1781  1  0.079600  0.885900  0.075400  1
  Cl  Cl1782  1  0.420400  0.885900  0.424600  1
  Cl  Cl1783  1  0.920400  0.114100  0.924600  1
  Cl  Cl1784  1  0.579600  0.114100  0.575400  1
  O  O1785  1  0.796100  0.460100  0.159400  1
  O  O1786  1  0.703900  0.460100  0.340600  1
  O  O1787  1  0.203900  0.539900  0.840600  1
  O  O1788  1  0.296100  0.539900  0.659400  1
  O  O1789  1  0.849800  0.396500  0.173600  1
  O  O1790  1  0.650200  0.396500  0.326400  1
  O  O1791  1  0.150200  0.603500  0.826400  1
  O  O1792  1  0.349800  0.603500  0.673600  1
  O  O1793  1  0.813800  0.411100  0.108700  1
  O  O1794  1  0.686200  0.411100  0.391300  1
  O  O1795  1  0.186200  0.588900  0.891300  1
  O  O1796  1  0.313800  0.588900  0.608700  1
  O  O1797  1  0.739500  0.396000  0.149900  1
  O  O1798  1  0.760500  0.396000  0.350100  1
  O  O1799  1  0.260500  0.604000  0.850100  1
  O  O1800  1  0.239500  0.604000  0.649900  1
  O  O1801  1  0.873600  0.186700  0.118600  1
  O  O1802  1  0.626400  0.186700  0.381400  1
  O  O1803  1  0.126400  0.813300  0.881400  1
  O  O1804  1  0.373600  0.813300  0.618600  1
  O  O1805  1  0.760300  0.190200  0.095700  1
  O  O1806  1  0.739700  0.190200  0.404300  1
  O  O1807  1  0.239700  0.809800  0.904300  1
  O  O1808  1  0.260300  0.809800  0.595700  1
  O  O1809  1  0.830000  0.217400  0.054300  1
  O  O1810  1  0.670000  0.217400  0.445700  1
  O  O1811  1  0.170000  0.782600  0.945700  1
  O  O1812  1  0.330000  0.782600  0.554300  1
  O  O1813  1  0.839000  0.138600  0.078700  1
  O  O1814  1  0.661000  0.138600  0.421300  1
  O  O1815  1  0.161000  0.861400  0.921300  1
  O  O1816  1  0.339000  0.861400  0.578700  1
  O  O1817  1  0.565200  0.245800  0.200200  1
  O  O1818  1  0.934800  0.245800  0.299800  1
  O  O1819  1  0.434800  0.754200  0.799800  1
  O  O1820  1  0.065200  0.754200  0.700200  1
  O  O1821  1  0.476700  0.204900  0.191300  1
  O  O1822  1  0.023300  0.204900  0.308700  1
  O  O1823  1  0.523300  0.795100  0.808700  1
  O  O1824  1  0.976700  0.795100  0.691300  1
  O  O1825  1  0.500000  0.252900  0.143400  1
  O  O1826  1  0.000000  0.252900  0.356600  1
  O  O1827  1  0.500000  0.747100  0.856600  1
  O  O1828  1  0.000000  0.747100  0.643400  1
  O  O1829  1  0.476600  0.282400  0.206300  1
  O  O1830  1  0.023400  0.282400  0.293700  1
  O  O1831  1  0.523400  0.717600  0.793700  1
  O  O1832  1  0.976600  0.717600  0.706300  1
  O  O1833  1  0.237300  0.023400  0.042200  1
  O  O1834  1  0.262700  0.023400  0.457800  1
  O  O1835  1  0.762700  0.976600  0.957800  1
  O  O1836  1  0.737300  0.976600  0.542200  1
  O  O1837  1  0.270800  0.059500  0.100400  1
  O  O1838  1  0.229200  0.059500  0.399600  1
  O  O1839  1  0.729200  0.940500  0.899600  1
  O  O1840  1  0.770800  0.940500  0.600400  1
  O  O1841  1  0.296300  0.088500  0.035700  1
  O  O1842  1  0.203700  0.088500  0.464300  1
  O  O1843  1  0.703700  0.911500  0.964300  1
  O  O1844  1  0.796300  0.911500  0.535700  1
  O  O1845  1  0.187000  0.089600  0.038500  1
  O  O1846  1  0.313000  0.089600  0.461500  1
  O  O1847  1  0.813000  0.910400  0.961500  1
  O  O1848  1  0.687000  0.910400  0.538500  1
  O  O1849  1  0.810700  0.561700  0.062600  1
  O  O1850  1  0.689300  0.561700  0.437400  1
  O  O1851  1  0.189300  0.438300  0.937400  1
  O  O1852  1  0.310700  0.438300  0.562600  1
  O  O1853  1  0.916500  0.580900  0.071200  1
  O  O1854  1  0.583500  0.580900  0.428800  1
  O  O1855  1  0.083500  0.419100  0.928800  1
  O  O1856  1  0.416500  0.419100  0.571200  1
  O  O1857  1  0.851100  0.583000  0.003900  1
  O  O1858  1  0.648900  0.583000  0.496100  1
  O  O1859  1  0.148900  0.417000  0.996100  1
  O  O1860  1  0.351100  0.417000  0.503900  1
  O  O1861  1  0.839300  0.631500  0.049200  1
  O  O1862  1  0.660700  0.631500  0.450800  1
  O  O1863  1  0.160700  0.368500  0.950800  1
  O  O1864  1  0.339300  0.368500  0.549200  1
  O  O1865  1  0.133300  0.552900  0.110400  1
  O  O1866  1  0.366700  0.552900  0.389600  1
  O  O1867  1  0.866700  0.447100  0.889600  1
  O  O1868  1  0.633300  0.447100  0.610400  1
  O  O1869  1  0.217500  0.538300  0.066900  1
  O  O1870  1  0.282500  0.538300  0.433100  1
  O  O1871  1  0.782500  0.461700  0.933100  1
  O  O1872  1  0.717500  0.461700  0.566900  1
  O  O1873  1  0.199000  0.483500  0.111800  1
  O  O1874  1  0.301000  0.483500  0.388200  1
  O  O1875  1  0.801000  0.516500  0.888200  1
  O  O1876  1  0.699000  0.516500  0.611800  1
  O  O1877  1  0.260000  0.557000  0.141500  1
  O  O1878  1  0.240000  0.557000  0.358500  1
  O  O1879  1  0.740000  0.443000  0.858500  1
  O  O1880  1  0.760000  0.443000  0.641500  1
  O  O1881  1  0.076000  0.927900  0.094100  1
  O  O1882  1  0.424000  0.927900  0.405900  1
  O  O1883  1  0.924000  0.072100  0.905900  1
  O  O1884  1  0.576000  0.072100  0.594100  1
  O  O1885  1  0.131000  0.855900  0.084600  1
  O  O1886  1  0.369000  0.855900  0.415400  1
  O  O1887  1  0.869000  0.144100  0.915400  1
  O  O1888  1  0.631000  0.144100  0.584600  1
  O  O1889  1  0.088900  0.897600  0.034900  1
  O  O1890  1  0.411100  0.897600  0.465100  1
  O  O1891  1  0.911100  0.102400  0.965100  1
  O  O1892  1  0.588900  0.102400  0.534900  1
  O  O1893  1  0.016800  0.867700  0.068700  1
  O  O1894  1  0.483200  0.867700  0.431300  1
  O  O1895  1  0.983200  0.132300  0.931300  1
  O  O1896  1  0.516800  0.132300  0.568700  1
  O  O1897  1  0.812000  0.142000  0.066000  1
  O  O1898  1  0.688000  0.142000  0.434000  1
  O  O1899  1  0.188000  0.858000  0.934000  1
  O  O1900  1  0.312000  0.858000  0.566000  1
  O  O1901  1  0.863000  0.208000  0.059400  1
  O  O1902  1  0.637000  0.208000  0.440600  1
  O  O1903  1  0.137000  0.792000  0.940600  1
  O  O1904  1  0.363000  0.792000  0.559400  1
  O  O1905  1  0.841000  0.197300  0.125600  1
  O  O1906  1  0.659000  0.197300  0.374400  1
  O  O1907  1  0.159000  0.802700  0.874400  1
  O  O1908  1  0.341000  0.802700  0.625600  1
  O  O1909  1  0.756700  0.195000  0.080800  1
  O  O1910  1  0.743300  0.195000  0.419200  1
  O  O1911  1  0.243300  0.805000  0.919200  1
  O  O1912  1  0.256700  0.805000  0.580800  1
  O  O1913  1  0.494000  0.220000  0.151400  1
  O  O1914  1  0.006000  0.220000  0.348600  1
  O  O1915  1  0.506000  0.780000  0.848600  1
  O  O1916  1  0.994000  0.780000  0.651400  1
  O  O1917  1  0.478000  0.289700  0.172700  1
  O  O1918  1  0.022000  0.289700  0.327300  1
  O  O1919  1  0.522000  0.710300  0.827300  1
  O  O1920  1  0.978000  0.710300  0.672700  1
  O  O1921  1  0.471000  0.229500  0.218700  1
  O  O1922  1  0.029000  0.229500  0.281300  1
  O  O1923  1  0.529000  0.770500  0.781300  1
  O  O1924  1  0.971000  0.770500  0.718700  1
  O  O1925  1  0.232000  0.107700  0.083900  1
  O  O1926  1  0.268000  0.107700  0.416100  1
  O  O1927  1  0.768000  0.892300  0.916100  1
  O  O1928  1  0.732000  0.892300  0.583900  1
  O  O1929  1  0.312900  0.076200  0.053000  1
  O  O1930  1  0.187100  0.076200  0.447000  1
  O  O1931  1  0.687100  0.923800  0.947000  1
  O  O1932  1  0.812900  0.923800  0.553000  1
  O  O1933  1  0.229000  0.028400  0.077300  1
  O  O1934  1  0.271000  0.028400  0.422700  1
  O  O1935  1  0.771000  0.971600  0.922700  1
  O  O1936  1  0.729000  0.971600  0.577300  1
  O  O1937  1  0.188000  0.078000  0.026100  1
  O  O1938  1  0.312000  0.078000  0.473900  1
  O  O1939  1  0.812000  0.922000  0.973900  1
  O  O1940  1  0.688000  0.922000  0.526100  1
  O  O1941  1  0.793200  0.582000  0.052000  1
  O  O1942  1  0.706800  0.582000  0.448000  1
  O  O1943  1  0.206800  0.418000  0.948000  1
  O  O1944  1  0.293200  0.418000  0.552000  1
  O  O1945  1  0.880000  0.542400  0.051700  1
  O  O1946  1  0.620000  0.542400  0.448300  1
  O  O1947  1  0.120000  0.457600  0.948300  1
  O  O1948  1  0.380000  0.457600  0.551700  1
  O  O1949  1  0.874000  0.601500  0.008900  1
  O  O1950  1  0.626000  0.601500  0.491100  1
  O  O1951  1  0.126000  0.398500  0.991100  1
  O  O1952  1  0.374000  0.398500  0.508900  1
  O  O1953  1  0.872000  0.627500  0.066300  1
  O  O1954  1  0.628000  0.627500  0.433700  1
  O  O1955  1  0.128000  0.372500  0.933700  1
  O  O1956  1  0.372000  0.372500  0.566300  1
  O  O1957  1  0.246000  0.499000  0.096700  1
  O  O1958  1  0.254000  0.499000  0.403300  1
  O  O1959  1  0.754000  0.501000  0.903300  1
  O  O1960  1  0.746000  0.501000  0.596700  1
  O  O1961  1  0.187000  0.513900  0.153100  1
  O  O1962  1  0.313000  0.513900  0.346900  1
  O  O1963  1  0.813000  0.486100  0.846900  1
  O  O1964  1  0.687000  0.486100  0.653100  1
  O  O1965  1  0.241000  0.578400  0.131000  1
  O  O1966  1  0.259000  0.578400  0.369000  1
  O  O1967  1  0.759000  0.421600  0.869000  1
  O  O1968  1  0.741000  0.421600  0.631000  1
  O  O1969  1  0.056000  0.856100  0.103100  1
  O  O1970  1  0.444000  0.856100  0.396900  1
  O  O1971  1  0.944000  0.143900  0.896900  1
  O  O1972  1  0.556000  0.143900  0.603100  1
  O  O1973  1  0.120000  0.922500  0.087600  1
  O  O1974  1  0.380000  0.922500  0.412400  1
  O  O1975  1  0.880000  0.077500  0.912400  1
  O  O1976  1  0.620000  0.077500  0.587600  1
  O  O1977  1  0.116000  0.859700  0.051700  1
  O  O1978  1  0.384000  0.859700  0.448300  1
  O  O1979  1  0.884000  0.140300  0.948300  1
  O  O1980  1  0.616000  0.140300  0.551700  1
  O  O1981  1  0.024900  0.894200  0.046300  1
  O  O1982  1  0.475100  0.894200  0.453700  1
  O  O1983  1  0.975100  0.105800  0.953700  1
  O  O1984  1  0.524900  0.105800  0.546300  1
  O  O1985  1  0.696300  0.063400  0.232900  1.0
  O  O1986  1  0.803700  0.063400  0.267100  1.0
  O  O1987  1  0.303700  0.936600  0.767100  1.0
  O  O1988  1  0.196300  0.936600  0.732900  1.0
  O  O1989  1  0.766900  0.012000  0.218400  1.0
  O  O1990  1  0.733100  0.012000  0.281600  1.0
  O  O1991  1  0.233100  0.988000  0.781600  1.0
  O  O1992  1  0.266900  0.988000  0.718400  1.0
