# generated using pymatgen
data_Zn5H189C218N31(ClO6)8
_symmetry_space_group_name_H-M   'P 1'
_cell_length_a   21.44790000
_cell_length_b   30.38100000
_cell_length_c   34.18900000
_cell_angle_alpha   90.00000000
_cell_angle_beta   97.46000000
_cell_angle_gamma   90.00000000
_symmetry_Int_Tables_number   1
_chemical_formula_structural   Zn5H189C218N31(ClO6)8
_chemical_formula_sum   'Zn20 H756 C872 N124 Cl32 O192'
_cell_volume   22089.28272684
_cell_formula_units_Z   4
loop_
 _symmetry_equiv_pos_site_id
 _symmetry_equiv_pos_as_xyz
  1  'x, y, z'
loop_
 _atom_site_type_symbol
 _atom_site_label
 _atom_site_symmetry_multiplicity
 _atom_site_fract_x
 _atom_site_fract_y
 _atom_site_fract_z
 _atom_site_occupancy
  Zn  Zn1  1  0.483080  0.296320  0.395810  1.0
  Zn  Zn2  1  0.016920  0.296320  0.104190  1.0
  Zn  Zn3  1  0.516920  0.703680  0.604190  1.0
  Zn  Zn4  1  0.983080  0.703680  0.895810  1.0
  Zn  Zn5  1  0.520560  0.036450  0.298390  1.0
  Zn  Zn6  1  0.979440  0.036450  0.201610  1.0
  Zn  Zn7  1  0.479440  0.963550  0.701610  1.0
  Zn  Zn8  1  0.020560  0.963550  0.798390  1.0
  Zn  Zn9  1  0.636680  0.074010  0.071640  1.0
  Zn  Zn10  1  0.863320  0.074010  0.428360  1.0
  Zn  Zn11  1  0.363320  0.925990  0.928360  1.0
  Zn  Zn12  1  0.136680  0.925990  0.571640  1.0
  Zn  Zn13  1  0.656350  0.341930  0.019190  1.0
  Zn  Zn14  1  0.843650  0.341930  0.480810  1.0
  Zn  Zn15  1  0.343650  0.658070  0.980810  1.0
  Zn  Zn16  1  0.156350  0.658070  0.519190  1.0
  Zn  Zn17  1  0.559420  0.484660  0.222600  1.0
  Zn  Zn18  1  0.940580  0.484660  0.277400  1.0
  Zn  Zn19  1  0.440580  0.515340  0.777400  1.0
  Zn  Zn20  1  0.059420  0.515340  0.722600  1.0
  H  H21  1  0.392300  0.154200  0.137300  1
  H  H22  1  0.107700  0.154200  0.362700  1
  H  H23  1  0.607700  0.845800  0.862700  1
  H  H24  1  0.892300  0.845800  0.637300  1
  H  H25  1  0.355900  0.108600  0.128300  1
  H  H26  1  0.144100  0.108600  0.371700  1
  H  H27  1  0.644100  0.891400  0.871700  1
  H  H28  1  0.855900  0.891400  0.628300  1
  H  H29  1  0.398600  0.128200  0.097300  1
  H  H30  1  0.101400  0.128200  0.402700  1
  H  H31  1  0.601400  0.871800  0.902700  1
  H  H32  1  0.898600  0.871800  0.597300  1
  H  H33  1  0.332800  0.968800  0.271100  1
  H  H34  1  0.167200  0.968800  0.228900  1
  H  H35  1  0.667200  0.031200  0.728900  1
  H  H36  1  0.832800  0.031200  0.771100  1
  H  H37  1  0.302500  0.903200  0.238200  1
  H  H38  1  0.197500  0.903200  0.261800  1
  H  H39  1  0.697500  0.096800  0.761800  1
  H  H40  1  0.802500  0.096800  0.738200  1
  H  H41  1  0.483800  0.861500  0.254100  1
  H  H42  1  0.016200  0.861500  0.245900  1
  H  H43  1  0.516200  0.138500  0.745900  1
  H  H44  1  0.983800  0.138500  0.754100  1
  H  H45  1  0.514100  0.927000  0.287000  1
  H  H46  1  0.985900  0.927000  0.213000  1
  H  H47  1  0.485900  0.073000  0.713000  1
  H  H48  1  0.014100  0.073000  0.787000  1
  H  H49  1  0.403800  0.824700  0.204800  1
  H  H50  1  0.096200  0.824700  0.295200  1
  H  H51  1  0.596200  0.175300  0.795200  1
  H  H52  1  0.903800  0.175300  0.704800  1
  H  H53  1  0.331500  0.838700  0.202700  1
  H  H54  1  0.168500  0.838700  0.297300  1
  H  H55  1  0.668500  0.161300  0.797300  1
  H  H56  1  0.831500  0.161300  0.702700  1
  H  H57  1  0.364100  0.810300  0.239200  1
  H  H58  1  0.135900  0.810300  0.260800  1
  H  H59  1  0.635900  0.189700  0.760800  1
  H  H60  1  0.864100  0.189700  0.739200  1
  H  H61  1  0.621800  0.967800  0.971600  1
  H  H62  1  0.878200  0.967800  0.528400  1
  H  H63  1  0.378200  0.032200  0.028400  1
  H  H64  1  0.121800  0.032200  0.471600  1
  H  H65  1  0.621300  0.977000  0.903700  1
  H  H66  1  0.878700  0.977000  0.596300  1
  H  H67  1  0.378700  0.023000  0.096300  1
  H  H68  1  0.121300  0.023000  0.403700  1
  H  H69  1  0.564700  0.103600  0.912700  1
  H  H70  1  0.935300  0.103600  0.587300  1
  H  H71  1  0.435300  0.896400  0.087300  1
  H  H72  1  0.064700  0.896400  0.412700  1
  H  H73  1  0.565100  0.094500  0.980600  1
  H  H74  1  0.934900  0.094500  0.519400  1
  H  H75  1  0.434900  0.905500  0.019400  1
  H  H76  1  0.065100  0.905500  0.480600  1
  H  H77  1  0.632900  0.054600  0.850800  1
  H  H78  1  0.867100  0.054600  0.649200  1
  H  H79  1  0.367100  0.945400  0.149200  1
  H  H80  1  0.132900  0.945400  0.350800  1
  H  H81  1  0.561100  0.070200  0.847700  1
  H  H82  1  0.938900  0.070200  0.652300  1
  H  H83  1  0.438900  0.929800  0.152300  1
  H  H84  1  0.061100  0.929800  0.347700  1
  H  H85  1  0.577500  0.019100  0.843700  1
  H  H86  1  0.922500  0.019100  0.656300  1
  H  H87  1  0.422500  0.980900  0.156300  1
  H  H88  1  0.077500  0.980900  0.343700  1
  H  H89  1  0.435400  0.368800  0.162100  1
  H  H90  1  0.064600  0.368800  0.337900  1
  H  H91  1  0.564600  0.631200  0.837900  1
  H  H92  1  0.935400  0.631200  0.662100  1
  H  H93  1  0.331000  0.364700  0.132500  1
  H  H94  1  0.169000  0.364700  0.367500  1
  H  H95  1  0.669000  0.635300  0.867500  1
  H  H96  1  0.831000  0.635300  0.632500  1
  H  H97  1  0.297200  0.485700  0.175300  1
  H  H98  1  0.202800  0.485700  0.324700  1
  H  H99  1  0.702800  0.514300  0.824700  1
  H  H100  1  0.797200  0.514300  0.675300  1
  H  H101  1  0.401600  0.490000  0.204900  1
  H  H102  1  0.098400  0.490000  0.295100  1
  H  H103  1  0.598400  0.510000  0.795100  1
  H  H104  1  0.901600  0.510000  0.704900  1
  H  H105  1  0.227800  0.441500  0.110000  1
  H  H106  1  0.272200  0.441500  0.390000  1
  H  H107  1  0.772200  0.558500  0.890000  1
  H  H108  1  0.727800  0.558500  0.610000  1
  H  H109  1  0.207600  0.429700  0.152200  1
  H  H110  1  0.292400  0.429700  0.347800  1
  H  H111  1  0.792400  0.570300  0.847800  1
  H  H112  1  0.707600  0.570300  0.652200  1
  H  H113  1  0.225900  0.391200  0.123700  1
  H  H114  1  0.274100  0.391200  0.376300  1
  H  H115  1  0.774100  0.608800  0.876300  1
  H  H116  1  0.725900  0.608800  0.623700  1
  H  H117  1  0.596500  0.372400  0.425500  1.0
  H  H118  1  0.903500  0.372400  0.074500  1.0
  H  H119  1  0.403500  0.627600  0.574500  1.0
  H  H120  1  0.096500  0.627600  0.925500  1.0
  H  H121  1  0.614300  0.444700  0.447500  1.0
  H  H122  1  0.885700  0.444700  0.052500  1.0
  H  H123  1  0.385700  0.555300  0.552500  1.0
  H  H124  1  0.114300  0.555300  0.947500  1.0
  H  H125  1  0.527600  0.418200  0.543500  1.0
  H  H126  1  0.972400  0.418200  0.956500  1.0
  H  H127  1  0.472400  0.581800  0.456500  1.0
  H  H128  1  0.027600  0.581800  0.043500  1.0
  H  H129  1  0.509700  0.345800  0.521600  1.0
  H  H130  1  0.990300  0.345800  0.978400  1.0
  H  H131  1  0.490300  0.654200  0.478400  1.0
  H  H132  1  0.009700  0.654200  0.021600  1.0
  H  H133  1  0.623700  0.488900  0.527600  1.0
  H  H134  1  0.876300  0.488900  0.972400  1.0
  H  H135  1  0.376300  0.511100  0.472400  1.0
  H  H136  1  0.123700  0.511100  0.027600  1.0
  H  H137  1  0.549500  0.494700  0.527100  1.0
  H  H138  1  0.950500  0.494700  0.972900  1.0
  H  H139  1  0.450500  0.505300  0.472900  1.0
  H  H140  1  0.049500  0.505300  0.027100  1.0
  H  H141  1  0.581300  0.505700  0.488500  1.0
  H  H142  1  0.918700  0.505700  0.011500  1.0
  H  H143  1  0.418700  0.494300  0.511500  1.0
  H  H144  1  0.081300  0.494300  0.988500  1.0
  H  H145  1  0.549100  0.278200  0.504600  1.0
  H  H146  1  0.950900  0.278200  0.995400  1.0
  H  H147  1  0.450900  0.721800  0.495400  1.0
  H  H148  1  0.049100  0.721800  0.004600  1.0
  H  H149  1  0.535900  0.194700  0.508500  1.0
  H  H150  1  0.964100  0.194700  0.991500  1.0
  H  H151  1  0.464100  0.805300  0.491500  1.0
  H  H152  1  0.035900  0.805300  0.008500  1.0
  H  H153  1  0.510700  0.128500  0.475600  1.0
  H  H154  1  0.989300  0.128500  0.024400  1.0
  H  H155  1  0.489300  0.871500  0.524400  1.0
  H  H156  1  0.010700  0.871500  0.975600  1.0
  H  H157  1  0.472900  0.192200  0.374100  1.0
  H  H158  1  0.027100  0.192200  0.125900  1.0
  H  H159  1  0.527100  0.807800  0.625900  1.0
  H  H160  1  0.972900  0.807800  0.874100  1.0
  H  H161  1  0.517500  0.121400  0.354200  1.0
  H  H162  1  0.982500  0.121400  0.145800  1.0
  H  H163  1  0.482500  0.878600  0.645800  1.0
  H  H164  1  0.017500  0.878600  0.854200  1.0
  H  H165  1  0.417000  0.087400  0.442500  1.0
  H  H166  1  0.083000  0.087400  0.057500  1.0
  H  H167  1  0.583000  0.912600  0.557500  1.0
  H  H168  1  0.917000  0.912600  0.942500  1.0
  H  H169  1  0.388900  0.024400  0.408800  1.0
  H  H170  1  0.111100  0.024400  0.091200  1.0
  H  H171  1  0.611100  0.975600  0.591200  1.0
  H  H172  1  0.888900  0.975600  0.908800  1.0
  H  H173  1  0.402900  0.969800  0.351200  1.0
  H  H174  1  0.097100  0.969800  0.148800  1.0
  H  H175  1  0.597100  0.030200  0.648800  1.0
  H  H176  1  0.902900  0.030200  0.851200  1.0
  H  H177  1  0.441200  0.957900  0.233900  1.0
  H  H178  1  0.058800  0.957900  0.266100  1.0
  H  H179  1  0.558800  0.042100  0.766100  1.0
  H  H180  1  0.941200  0.042100  0.733900  1.0
  H  H181  1  0.442300  0.887100  0.207100  1.0
  H  H182  1  0.057700  0.887100  0.292900  1.0
  H  H183  1  0.557700  0.112900  0.792900  1.0
  H  H184  1  0.942300  0.112900  0.707100  1.0
  H  H185  1  0.453500  0.834800  0.317000  1.0
  H  H186  1  0.046500  0.834800  0.183000  1.0
  H  H187  1  0.546500  0.165200  0.683000  1.0
  H  H188  1  0.953500  0.165200  0.817000  1.0
  H  H189  1  0.452400  0.905500  0.343800  1.0
  H  H190  1  0.047600  0.905500  0.156200  1.0
  H  H191  1  0.547600  0.094500  0.656200  1.0
  H  H192  1  0.952400  0.094500  0.843800  1.0
  H  H193  1  0.492800  0.802100  0.235200  1.0
  H  H194  1  0.007200  0.802100  0.264800  1.0
  H  H195  1  0.507200  0.197900  0.764800  1.0
  H  H196  1  0.992800  0.197900  0.735200  1.0
  H  H197  1  0.419900  0.805600  0.218200  1.0
  H  H198  1  0.080100  0.805600  0.281800  1.0
  H  H199  1  0.580100  0.194400  0.781800  1.0
  H  H200  1  0.919900  0.194400  0.718200  1.0
  H  H201  1  0.440400  0.786100  0.261400  1.0
  H  H202  1  0.059600  0.786100  0.238600  1.0
  H  H203  1  0.559600  0.213900  0.738600  1.0
  H  H204  1  0.940400  0.213900  0.761400  1.0
  H  H205  1  0.610200  0.061600  0.387100  1.0
  H  H206  1  0.889800  0.061600  0.112900  1.0
  H  H207  1  0.389800  0.938400  0.612900  1.0
  H  H208  1  0.110200  0.938400  0.887100  1.0
  H  H209  1  0.608600  0.066800  0.455200  1.0
  H  H210  1  0.891400  0.066800  0.044800  1.0
  H  H211  1  0.391400  0.933200  0.544800  1.0
  H  H212  1  0.108600  0.933200  0.955200  1.0
  H  H213  1  0.565900  0.936900  0.459300  1.0
  H  H214  1  0.934100  0.936900  0.040700  1.0
  H  H215  1  0.434100  0.063100  0.540700  1.0
  H  H216  1  0.065900  0.063100  0.959300  1.0
  H  H217  1  0.567500  0.931500  0.391200  1.0
  H  H218  1  0.932500  0.931500  0.108800  1.0
  H  H219  1  0.432500  0.068500  0.608800  1.0
  H  H220  1  0.067500  0.068500  0.891200  1.0
  H  H221  1  0.543000  0.996200  0.514200  1.0
  H  H222  1  0.957000  0.996200  0.985800  1.0
  H  H223  1  0.457000  0.003800  0.485800  1.0
  H  H224  1  0.043000  0.003800  0.014200  1.0
  H  H225  1  0.590900  0.036800  0.516500  1.0
  H  H226  1  0.909100  0.036800  0.983500  1.0
  H  H227  1  0.409100  0.963200  0.483500  1.0
  H  H228  1  0.090900  0.963200  0.016500  1.0
  H  H229  1  0.617100  0.987700  0.522500  1.0
  H  H230  1  0.882900  0.987700  0.977500  1.0
  H  H231  1  0.382900  0.012300  0.477500  1.0
  H  H232  1  0.117100  0.012300  0.022500  1.0
  H  H233  1  0.625400  0.939600  0.338500  1.0
  H  H234  1  0.874600  0.939600  0.161500  1.0
  H  H235  1  0.374600  0.060400  0.661500  1.0
  H  H236  1  0.125400  0.060400  0.838500  1.0
  H  H237  1  0.648800  0.904800  0.272100  1.0
  H  H238  1  0.851200  0.904800  0.227900  1.0
  H  H239  1  0.351200  0.095200  0.727900  1.0
  H  H240  1  0.148800  0.095200  0.772100  1.0
  H  H241  1  0.642300  0.912000  0.204100  1.0
  H  H242  1  0.857700  0.912000  0.295900  1.0
  H  H243  1  0.357700  0.088000  0.795900  1.0
  H  H244  1  0.142300  0.088000  0.704100  1.0
  H  H245  1  0.542900  0.024200  0.210800  1.0
  H  H246  1  0.957100  0.024200  0.289200  1.0
  H  H247  1  0.457100  0.975800  0.789200  1.0
  H  H248  1  0.042900  0.975800  0.710800  1.0
  H  H249  1  0.606000  0.041300  0.155800  1.0
  H  H250  1  0.894000  0.041300  0.344200  1.0
  H  H251  1  0.394000  0.958700  0.844200  1.0
  H  H252  1  0.106000  0.958700  0.655800  1.0
  H  H253  1  0.571700  0.907900  0.142700  1.0
  H  H254  1  0.928300  0.907900  0.357300  1.0
  H  H255  1  0.428300  0.092100  0.857300  1.0
  H  H256  1  0.071700  0.092100  0.642700  1.0
  H  H257  1  0.560600  0.921200  0.072300  1.0
  H  H258  1  0.939400  0.921200  0.427700  1.0
  H  H259  1  0.439400  0.078800  0.927700  1.0
  H  H260  1  0.060600  0.078800  0.572300  1.0
  H  H261  1  0.560300  0.971900  0.017200  1.0
  H  H262  1  0.939700  0.971900  0.482800  1.0
  H  H263  1  0.439700  0.028100  0.982800  1.0
  H  H264  1  0.060300  0.028100  0.517200  1.0
  H  H265  1  0.619600  0.985700  0.963800  1.0
  H  H266  1  0.880400  0.985700  0.536200  1.0
  H  H267  1  0.380400  0.014300  0.036200  1.0
  H  H268  1  0.119600  0.014300  0.463800  1.0
  H  H269  1  0.620100  0.001700  0.896900  1.0
  H  H270  1  0.879900  0.001700  0.603100  1.0
  H  H271  1  0.379900  0.998300  0.103100  1.0
  H  H272  1  0.120100  0.998300  0.396900  1.0
  H  H273  1  0.559000  0.125500  0.915100  1.0
  H  H274  1  0.941000  0.125500  0.584900  1.0
  H  H275  1  0.441000  0.874500  0.084900  1.0
  H  H276  1  0.059000  0.874500  0.415100  1.0
  H  H277  1  0.558500  0.109600  0.981900  1.0
  H  H278  1  0.941500  0.109600  0.518100  1.0
  H  H279  1  0.441500  0.890400  0.018100  1.0
  H  H280  1  0.058500  0.890400  0.481900  1.0
  H  H281  1  0.560300  0.054300  0.840000  1.0
  H  H282  1  0.939700  0.054300  0.660000  1.0
  H  H283  1  0.439700  0.945700  0.160000  1.0
  H  H284  1  0.060300  0.945700  0.340000  1.0
  H  H285  1  0.630800  0.072500  0.848300  1.0
  H  H286  1  0.869200  0.072500  0.651700  1.0
  H  H287  1  0.369200  0.927500  0.151700  1.0
  H  H288  1  0.130800  0.927500  0.348300  1.0
  H  H289  1  0.572800  0.105300  0.850100  1.0
  H  H290  1  0.927200  0.105300  0.649900  1.0
  H  H291  1  0.427200  0.894700  0.149900  1.0
  H  H292  1  0.072800  0.894700  0.350100  1.0
  H  H293  1  0.733300  0.009700  0.140400  1.0
  H  H294  1  0.766700  0.009700  0.359600  1.0
  H  H295  1  0.266700  0.990300  0.859600  1.0
  H  H296  1  0.233300  0.990300  0.640400  1.0
  H  H297  1  0.743600  0.940400  0.170100  1.0
  H  H298  1  0.756400  0.940400  0.329900  1.0
  H  H299  1  0.256400  0.059600  0.829900  1.0
  H  H300  1  0.243600  0.059600  0.670100  1.0
  H  H301  1  0.744500  0.883700  0.062700  1.0
  H  H302  1  0.755500  0.883700  0.437300  1.0
  H  H303  1  0.255500  0.116300  0.937300  1.0
  H  H304  1  0.244500  0.116300  0.562700  1.0
  H  H305  1  0.734200  0.953000  0.032900  1.0
  H  H306  1  0.765800  0.953000  0.467100  1.0
  H  H307  1  0.265800  0.047000  0.967100  1.0
  H  H308  1  0.234200  0.047000  0.532900  1.0
  H  H309  1  0.710100  0.844000  0.132300  1.0
  H  H310  1  0.789900  0.844000  0.367700  1.0
  H  H311  1  0.289900  0.156000  0.867700  1.0
  H  H312  1  0.210100  0.156000  0.632300  1.0
  H  H313  1  0.759300  0.863100  0.167300  1.0
  H  H314  1  0.740700  0.863100  0.332700  1.0
  H  H315  1  0.240700  0.136900  0.832700  1.0
  H  H316  1  0.259300  0.136900  0.667300  1.0
  H  H317  1  0.783800  0.843000  0.128800  1.0
  H  H318  1  0.716200  0.843000  0.371200  1.0
  H  H319  1  0.216200  0.157000  0.871200  1.0
  H  H320  1  0.283800  0.157000  0.628800  1.0
  H  H321  1  0.776100  0.023100  0.026600  1.0
  H  H322  1  0.723900  0.023100  0.473400  1.0
  H  H323  1  0.223900  0.976900  0.973400  1.0
  H  H324  1  0.276100  0.976900  0.526600  1.0
  H  H325  1  0.793300  0.080300  0.975500  1.0
  H  H326  1  0.706700  0.080300  0.524500  1.0
  H  H327  1  0.206700  0.919700  0.024500  1.0
  H  H328  1  0.293300  0.919700  0.475500  1.0
  H  H329  1  0.767500  0.151800  0.950600  1.0
  H  H330  1  0.732500  0.151800  0.549400  1.0
  H  H331  1  0.232500  0.848200  0.049400  1.0
  H  H332  1  0.267500  0.848200  0.450600  1.0
  H  H333  1  0.646200  0.160800  0.028400  1.0
  H  H334  1  0.853800  0.160800  0.471600  1.0
  H  H335  1  0.353800  0.839200  0.971600  1.0
  H  H336  1  0.146200  0.839200  0.528400  1.0
  H  H337  1  0.672700  0.237300  0.022500  1.0
  H  H338  1  0.827300  0.237300  0.477500  1.0
  H  H339  1  0.327300  0.762700  0.977500  1.0
  H  H340  1  0.172700  0.762700  0.522500  1.0
  H  H341  1  0.680900  0.197600  0.909200  1.0
  H  H342  1  0.819100  0.197600  0.590800  1.0
  H  H343  1  0.319100  0.802400  0.090800  1.0
  H  H344  1  0.180900  0.802400  0.409200  1.0
  H  H345  1  0.643700  0.266900  0.890900  1.0
  H  H346  1  0.856300  0.266900  0.609100  1.0
  H  H347  1  0.356300  0.733100  0.109100  1.0
  H  H348  1  0.143700  0.733100  0.390900  1.0
  H  H349  1  0.616000  0.344400  0.907800  1.0
  H  H350  1  0.884000  0.344400  0.592200  1.0
  H  H351  1  0.384000  0.655600  0.092200  1.0
  H  H352  1  0.116000  0.655600  0.407800  1.0
  H  H353  1  0.541900  0.418500  0.989300  1.0
  H  H354  1  0.958100  0.418500  0.510700  1.0
  H  H355  1  0.458100  0.581500  0.010700  1.0
  H  H356  1  0.041900  0.581500  0.489300  1.0
  H  H357  1  0.516700  0.491400  0.972200  1.0
  H  H358  1  0.983300  0.491400  0.527800  1.0
  H  H359  1  0.483300  0.508600  0.027800  1.0
  H  H360  1  0.016700  0.508600  0.472200  1.0
  H  H361  1  0.637200  0.488100  0.890100  1.0
  H  H362  1  0.862800  0.488100  0.609900  1.0
  H  H363  1  0.362800  0.511900  0.109900  1.0
  H  H364  1  0.137200  0.511900  0.390100  1.0
  H  H365  1  0.662600  0.415100  0.907100  1.0
  H  H366  1  0.837400  0.415100  0.592900  1.0
  H  H367  1  0.337400  0.584900  0.092900  1.0
  H  H368  1  0.162600  0.584900  0.407100  1.0
  H  H369  1  0.549900  0.560700  0.942800  1.0
  H  H370  1  0.950100  0.560700  0.557200  1.0
  H  H371  1  0.450100  0.439300  0.057200  1.0
  H  H372  1  0.049900  0.439300  0.442800  1.0
  H  H373  1  0.522700  0.546400  0.898800  1.0
  H  H374  1  0.977300  0.546400  0.601200  1.0
  H  H375  1  0.477300  0.453600  0.101200  1.0
  H  H376  1  0.022700  0.453600  0.398800  1.0
  H  H377  1  0.595400  0.558900  0.909300  1.0
  H  H378  1  0.904600  0.558900  0.590700  1.0
  H  H379  1  0.404600  0.441100  0.090700  1.0
  H  H380  1  0.095400  0.441100  0.409300  1.0
  H  H381  1  0.797200  0.282400  0.014200  1.0
  H  H382  1  0.702800  0.282400  0.485800  1.0
  H  H383  1  0.202800  0.717600  0.985800  1.0
  H  H384  1  0.297200  0.717600  0.514200  1.0
  H  H385  1  0.844300  0.236000  0.972100  1.0
  H  H386  1  0.655700  0.236000  0.527900  1.0
  H  H387  1  0.155700  0.764000  0.027900  1.0
  H  H388  1  0.344300  0.764000  0.472100  1.0
  H  H389  1  0.820300  0.329000  0.886300  1.0
  H  H390  1  0.679700  0.329000  0.613700  1.0
  H  H391  1  0.179700  0.671000  0.113700  1.0
  H  H392  1  0.320300  0.671000  0.386300  1.0
  H  H393  1  0.773100  0.375500  0.928300  1.0
  H  H394  1  0.726900  0.375500  0.571700  1.0
  H  H395  1  0.226900  0.624500  0.071700  1.0
  H  H396  1  0.273100  0.624500  0.428300  1.0
  H  H397  1  0.898800  0.229200  0.912300  1.0
  H  H398  1  0.601200  0.229200  0.587700  1.0
  H  H399  1  0.101200  0.770800  0.087700  1.0
  H  H400  1  0.398800  0.770800  0.412300  1.0
  H  H401  1  0.884700  0.264500  0.877500  1.0
  H  H402  1  0.615300  0.264500  0.622500  1.0
  H  H403  1  0.115300  0.735500  0.122500  1.0
  H  H404  1  0.384700  0.735500  0.377500  1.0
  H  H405  1  0.833500  0.227700  0.883700  1.0
  H  H406  1  0.666500  0.227700  0.616300  1.0
  H  H407  1  0.166500  0.772300  0.116300  1.0
  H  H408  1  0.333500  0.772300  0.383700  1.0
  H  H409  1  0.791300  0.414800  0.992100  1.0
  H  H410  1  0.708700  0.414800  0.507900  1.0
  H  H411  1  0.208700  0.585200  0.007900  1.0
  H  H412  1  0.291300  0.585200  0.492100  1.0
  H  H413  1  0.772600  0.483100  0.026400  1.0
  H  H414  1  0.727400  0.483100  0.473600  1.0
  H  H415  1  0.227400  0.516900  0.973600  1.0
  H  H416  1  0.272600  0.516900  0.526400  1.0
  H  H417  1  0.712300  0.525600  0.066000  1.0
  H  H418  1  0.787700  0.525600  0.434000  1.0
  H  H419  1  0.287700  0.474400  0.934000  1.0
  H  H420  1  0.212300  0.474400  0.566000  1.0
  H  H421  1  0.608300  0.414800  0.075800  1.0
  H  H422  1  0.891700  0.414800  0.424200  1.0
  H  H423  1  0.391700  0.585200  0.924200  1.0
  H  H424  1  0.108300  0.585200  0.575800  1.0
  H  H425  1  0.613100  0.449000  0.143400  1.0
  H  H426  1  0.886900  0.449000  0.356600  1.0
  H  H427  1  0.386900  0.551000  0.856600  1.0
  H  H428  1  0.113100  0.551000  0.643400  1.0
  H  H429  1  0.605300  0.553600  0.068200  1.0
  H  H430  1  0.894700  0.553600  0.431800  1.0
  H  H431  1  0.394700  0.446400  0.931800  1.0
  H  H432  1  0.105300  0.446400  0.568200  1.0
  H  H433  1  0.545600  0.590300  0.111800  1.0
  H  H434  1  0.954400  0.590300  0.388200  1.0
  H  H435  1  0.454400  0.409700  0.888200  1.0
  H  H436  1  0.045600  0.409700  0.611800  1.0
  H  H437  1  0.490300  0.591200  0.171900  1.0
  H  H438  1  0.009700  0.591200  0.328100  1.0
  H  H439  1  0.509700  0.408800  0.828100  1.0
  H  H440  1  0.990300  0.408800  0.671900  1.0
  H  H441  1  0.515800  0.626800  0.233400  1.0
  H  H442  1  0.984200  0.626800  0.266600  1.0
  H  H443  1  0.484200  0.373200  0.766600  1.0
  H  H444  1  0.015800  0.373200  0.733400  1.0
  H  H445  1  0.467100  0.664400  0.280900  1.0
  H  H446  1  0.032900  0.664400  0.219100  1.0
  H  H447  1  0.532900  0.335600  0.719100  1.0
  H  H448  1  0.967100  0.335600  0.780900  1.0
  H  H449  1  0.377100  0.552300  0.305500  1.0
  H  H450  1  0.122900  0.552300  0.194500  1.0
  H  H451  1  0.622900  0.447700  0.694500  1.0
  H  H452  1  0.877100  0.447700  0.805500  1.0
  H  H453  1  0.425600  0.514500  0.258100  1.0
  H  H454  1  0.074400  0.514500  0.241900  1.0
  H  H455  1  0.574400  0.485500  0.741900  1.0
  H  H456  1  0.925600  0.485500  0.758100  1.0
  H  H457  1  0.344400  0.622200  0.331200  1.0
  H  H458  1  0.155600  0.622200  0.168800  1.0
  H  H459  1  0.655600  0.377800  0.668800  1.0
  H  H460  1  0.844400  0.377800  0.831200  1.0
  H  H461  1  0.375500  0.667200  0.318900  1.0
  H  H462  1  0.124500  0.667200  0.181100  1.0
  H  H463  1  0.624500  0.332800  0.681100  1.0
  H  H464  1  0.875500  0.332800  0.818900  1.0
  H  H465  1  0.411200  0.637500  0.353400  1.0
  H  H466  1  0.088800  0.637500  0.146600  1.0
  H  H467  1  0.588800  0.362500  0.646600  1.0
  H  H468  1  0.911200  0.362500  0.853400  1.0
  H  H469  1  0.642600  0.621300  0.237300  1.0
  H  H470  1  0.857400  0.621300  0.262700  1.0
  H  H471  1  0.357400  0.378700  0.762700  1.0
  H  H472  1  0.142600  0.378700  0.737300  1.0
  H  H473  1  0.695900  0.662100  0.194100  1.0
  H  H474  1  0.804100  0.662100  0.305900  1.0
  H  H475  1  0.304100  0.337900  0.805900  1.0
  H  H476  1  0.195900  0.337900  0.694100  1.0
  H  H477  1  0.756200  0.549000  0.148300  1.0
  H  H478  1  0.743800  0.549000  0.351700  1.0
  H  H479  1  0.243800  0.451000  0.851700  1.0
  H  H480  1  0.256200  0.451000  0.648300  1.0
  H  H481  1  0.703000  0.508000  0.191500  1.0
  H  H482  1  0.797000  0.508000  0.308500  1.0
  H  H483  1  0.297000  0.492000  0.808500  1.0
  H  H484  1  0.203000  0.492000  0.691500  1.0
  H  H485  1  0.812000  0.627500  0.143300  1.0
  H  H486  1  0.688000  0.627500  0.356700  1.0
  H  H487  1  0.188000  0.372500  0.856700  1.0
  H  H488  1  0.312000  0.372500  0.643300  1.0
  H  H489  1  0.764300  0.667700  0.145400  1.0
  H  H490  1  0.735700  0.667700  0.354600  1.0
  H  H491  1  0.235700  0.332300  0.854600  1.0
  H  H492  1  0.264300  0.332300  0.645400  1.0
  H  H493  1  0.749800  0.630800  0.112000  1.0
  H  H494  1  0.750200  0.630800  0.388000  1.0
  H  H495  1  0.250200  0.369200  0.888000  1.0
  H  H496  1  0.249800  0.369200  0.612000  1.0
  H  H497  1  0.647500  0.573300  0.290600  1.0
  H  H498  1  0.852500  0.573300  0.209400  1.0
  H  H499  1  0.352500  0.426700  0.709400  1.0
  H  H500  1  0.147500  0.426700  0.790600  1.0
  H  H501  1  0.608000  0.557900  0.353600  1.0
  H  H502  1  0.892000  0.557900  0.146400  1.0
  H  H503  1  0.392000  0.442100  0.646400  1.0
  H  H504  1  0.108000  0.442100  0.853600  1.0
  H  H505  1  0.550600  0.512800  0.390900  1.0
  H  H506  1  0.949400  0.512800  0.109100  1.0
  H  H507  1  0.449400  0.487200  0.609100  1.0
  H  H508  1  0.050600  0.487200  0.890900  1.0
  H  H509  1  0.502200  0.439100  0.292500  1.0
  H  H510  1  0.997800  0.439100  0.207500  1.0
  H  H511  1  0.497800  0.560900  0.707500  1.0
  H  H512  1  0.002200  0.560900  0.792500  1.0
  H  H513  1  0.521900  0.383800  0.350000  1.0
  H  H514  1  0.978100  0.383800  0.150000  1.0
  H  H515  1  0.478100  0.616200  0.650000  1.0
  H  H516  1  0.021900  0.616200  0.850000  1.0
  H  H517  1  0.433700  0.484700  0.396700  1.0
  H  H518  1  0.066300  0.484700  0.103300  1.0
  H  H519  1  0.566300  0.515300  0.603300  1.0
  H  H520  1  0.933700  0.515300  0.896700  1.0
  H  H521  1  0.383400  0.435000  0.431400  1.0
  H  H522  1  0.116600  0.435000  0.068600  1.0
  H  H523  1  0.616600  0.565000  0.568600  1.0
  H  H524  1  0.883400  0.565000  0.931400  1.0
  H  H525  1  0.367500  0.356300  0.453600  1.0
  H  H526  1  0.132500  0.356300  0.046400  1.0
  H  H527  1  0.632500  0.643700  0.546400  1.0
  H  H528  1  0.867500  0.643700  0.953600  1.0
  H  H529  1  0.393700  0.311200  0.504400  1.0
  H  H530  1  0.106300  0.311200  0.995600  1.0
  H  H531  1  0.606300  0.688800  0.495600  1.0
  H  H532  1  0.893700  0.688800  0.004400  1.0
  H  H533  1  0.377000  0.253600  0.547200  1.0
  H  H534  1  0.123000  0.253600  0.952800  1.0
  H  H535  1  0.623000  0.746400  0.452800  1.0
  H  H536  1  0.877000  0.746400  0.047200  1.0
  H  H537  1  0.341700  0.170700  0.454000  1.0
  H  H538  1  0.158300  0.170700  0.046000  1.0
  H  H539  1  0.658300  0.829300  0.546000  1.0
  H  H540  1  0.841700  0.829300  0.954000  1.0
  H  H541  1  0.358400  0.228200  0.411100  1.0
  H  H542  1  0.141600  0.228200  0.088900  1.0
  H  H543  1  0.641600  0.771800  0.588900  1.0
  H  H544  1  0.858400  0.771800  0.911100  1.0
  H  H545  1  0.380500  0.166600  0.553700  1.0
  H  H546  1  0.119500  0.166600  0.946300  1.0
  H  H547  1  0.619500  0.833400  0.446300  1.0
  H  H548  1  0.880500  0.833400  0.053700  1.0
  H  H549  1  0.339800  0.141500  0.518000  1.0
  H  H550  1  0.160200  0.141500  0.982000  1.0
  H  H551  1  0.660200  0.858500  0.482000  1.0
  H  H552  1  0.839800  0.858500  0.018000  1.0
  H  H553  1  0.306500  0.175500  0.544400  1.0
  H  H554  1  0.193500  0.175500  0.955600  1.0
  H  H555  1  0.693500  0.824500  0.455600  1.0
  H  H556  1  0.806500  0.824500  0.044400  1.0
  H  H557  1  0.837800  0.068900  0.175500  1.0
  H  H558  1  0.662200  0.068900  0.324500  1.0
  H  H559  1  0.162200  0.931100  0.824500  1.0
  H  H560  1  0.337800  0.931100  0.675500  1.0
  H  H561  1  0.822800  0.191400  0.218000  1.0
  H  H562  1  0.677200  0.191400  0.282000  1.0
  H  H563  1  0.177200  0.808600  0.782000  1.0
  H  H564  1  0.322800  0.808600  0.718000  1.0
  H  H565  1  0.928800  0.185800  0.246300  1.0
  H  H566  1  0.571200  0.185800  0.253700  1.0
  H  H567  1  0.071200  0.814200  0.753700  1.0
  H  H568  1  0.428800  0.814200  0.746300  1.0
  H  H569  1  0.027400  0.139400  0.263400  1.0
  H  H570  1  0.472600  0.139400  0.236600  1.0
  H  H571  1  0.972600  0.860600  0.736600  1.0
  H  H572  1  0.527400  0.860600  0.763400  1.0
  H  H573  1  0.084300  0.012600  0.276800  1.0
  H  H574  1  0.415700  0.012600  0.223200  1.0
  H  H575  1  0.915700  0.987400  0.723200  1.0
  H  H576  1  0.584300  0.987400  0.776800  1.0
  H  H577  1  0.187200  0.002200  0.307300  1.0
  H  H578  1  0.312800  0.002200  0.192700  1.0
  H  H579  1  0.812800  0.997800  0.692700  1.0
  H  H580  1  0.687200  0.997800  0.807300  1.0
  H  H581  1  0.228400  0.129000  0.283600  1.0
  H  H582  1  0.271600  0.129000  0.216400  1.0
  H  H583  1  0.771600  0.871000  0.716400  1.0
  H  H584  1  0.728400  0.871000  0.783600  1.0
  H  H585  1  0.125400  0.139500  0.253200  1.0
  H  H586  1  0.374600  0.139500  0.246800  1.0
  H  H587  1  0.874600  0.860500  0.746800  1.0
  H  H588  1  0.625400  0.860500  0.753200  1.0
  H  H589  1  0.311600  0.048200  0.297200  1.0
  H  H590  1  0.188400  0.048200  0.202800  1.0
  H  H591  1  0.688400  0.951800  0.702800  1.0
  H  H592  1  0.811600  0.951800  0.797200  1.0
  H  H593  1  0.286800  0.034500  0.337600  1.0
  H  H594  1  0.213200  0.034500  0.162400  1.0
  H  H595  1  0.713200  0.965500  0.662400  1.0
  H  H596  1  0.786800  0.965500  0.837600  1.0
  H  H597  1  0.302400  0.084900  0.329500  1.0
  H  H598  1  0.197600  0.084900  0.170500  1.0
  H  H599  1  0.697600  0.915100  0.670500  1.0
  H  H600  1  0.802400  0.915100  0.829500  1.0
  H  H601  1  0.763400  0.087900  0.131800  1.0
  H  H602  1  0.736600  0.087900  0.368200  1.0
  H  H603  1  0.236600  0.912100  0.868200  1.0
  H  H604  1  0.263400  0.912100  0.631800  1.0
  H  H605  1  0.723300  0.177800  0.212200  1.0
  H  H606  1  0.776700  0.177800  0.287800  1.0
  H  H607  1  0.276700  0.822200  0.787800  1.0
  H  H608  1  0.223300  0.822200  0.712200  1.0
  H  H609  1  0.619900  0.178700  0.179500  1.0
  H  H610  1  0.880100  0.178700  0.320500  1.0
  H  H611  1  0.380100  0.821300  0.820500  1.0
  H  H612  1  0.119900  0.821300  0.679500  1.0
  H  H613  1  0.544000  0.163900  0.119500  1.0
  H  H614  1  0.956000  0.163900  0.380500  1.0
  H  H615  1  0.456000  0.836100  0.880500  1.0
  H  H616  1  0.044000  0.836100  0.619500  1.0
  H  H617  1  0.535400  0.203700  0.049300  1.0
  H  H618  1  0.964600  0.203700  0.450700  1.0
  H  H619  1  0.464600  0.796300  0.950700  1.0
  H  H620  1  0.035400  0.796300  0.549300  1.0
  H  H621  1  0.445700  0.226000  0.007800  1.0
  H  H622  1  0.054300  0.226000  0.492200  1.0
  H  H623  1  0.554300  0.774000  0.992200  1.0
  H  H624  1  0.945700  0.774000  0.507800  1.0
  H  H625  1  0.381200  0.100300  0.003000  1.0
  H  H626  1  0.118800  0.100300  0.497000  1.0
  H  H627  1  0.618800  0.899700  0.997000  1.0
  H  H628  1  0.881200  0.899700  0.503000  1.0
  H  H629  1  0.470800  0.077900  0.044500  1.0
  H  H630  1  0.029200  0.077900  0.455500  1.0
  H  H631  1  0.529200  0.922100  0.955500  1.0
  H  H632  1  0.970800  0.922100  0.544500  1.0
  H  H633  1  0.308800  0.172900  0.985000  1.0
  H  H634  1  0.191200  0.172900  0.515000  1.0
  H  H635  1  0.691200  0.827100  0.015000  1.0
  H  H636  1  0.808800  0.827100  0.485000  1.0
  H  H637  1  0.345900  0.164200  0.948100  1.0
  H  H638  1  0.154100  0.164200  0.551900  1.0
  H  H639  1  0.654100  0.835800  0.051900  1.0
  H  H640  1  0.845900  0.835800  0.448100  1.0
  H  H641  1  0.348900  0.211600  0.968700  1.0
  H  H642  1  0.151100  0.211600  0.531300  1.0
  H  H643  1  0.651100  0.788400  0.031300  1.0
  H  H644  1  0.848900  0.788400  0.468700  1.0
  H  H645  1  0.720100  0.323800  0.422800  1.0
  H  H646  1  0.779900  0.323800  0.077200  1.0
  H  H647  1  0.279900  0.676200  0.577200  1.0
  H  H648  1  0.220100  0.676200  0.922800  1.0
  H  H649  1  0.772900  0.264200  0.326700  1.0
  H  H650  1  0.727100  0.264200  0.173300  1.0
  H  H651  1  0.227100  0.735800  0.673300  1.0
  H  H652  1  0.272900  0.735800  0.826700  1.0
  H  H653  1  0.875500  0.266100  0.356400  1.0
  H  H654  1  0.624500  0.266100  0.143600  1.0
  H  H655  1  0.124500  0.733900  0.643600  1.0
  H  H656  1  0.375500  0.733900  0.856400  1.0
  H  H657  1  0.955100  0.287600  0.416700  1.0
  H  H658  1  0.544900  0.287600  0.083300  1.0
  H  H659  1  0.044900  0.712400  0.583300  1.0
  H  H660  1  0.455100  0.712400  0.916700  1.0
  H  H661  1  0.980800  0.312900  0.532800  1.0
  H  H662  1  0.519200  0.312900  0.967200  1.0
  H  H663  1  0.019200  0.687100  0.467200  1.0
  H  H664  1  0.480800  0.687100  0.032800  1.0
  H  H665  1  0.086000  0.319200  0.560400  1.0
  H  H666  1  0.414000  0.319200  0.939600  1.0
  H  H667  1  0.914000  0.680800  0.439600  1.0
  H  H668  1  0.586000  0.680800  0.060400  1.0
  H  H669  1  0.133600  0.353800  0.453500  1.0
  H  H670  1  0.366400  0.353800  0.046500  1.0
  H  H671  1  0.866400  0.646200  0.546500  1.0
  H  H672  1  0.633600  0.646200  0.953500  1.0
  H  H673  1  0.028500  0.347500  0.425900  1.0
  H  H674  1  0.471500  0.347500  0.074100  1.0
  H  H675  1  0.971500  0.652500  0.574100  1.0
  H  H676  1  0.528500  0.652500  0.925900  1.0
  H  H677  1  0.192600  0.336200  0.556200  1.0
  H  H678  1  0.307400  0.336200  0.943800  1.0
  H  H679  1  0.807400  0.663800  0.443800  1.0
  H  H680  1  0.692600  0.663800  0.056200  1.0
  H  H681  1  0.206000  0.368900  0.521600  1.0
  H  H682  1  0.294000  0.368900  0.978400  1.0
  H  H683  1  0.794000  0.631100  0.478400  1.0
  H  H684  1  0.706000  0.631100  0.021600  1.0
  H  H685  1  0.213400  0.316900  0.516200  1.0
  H  H686  1  0.286600  0.316900  0.983800  1.0
  H  H687  1  0.786600  0.683100  0.483800  1.0
  H  H688  1  0.713400  0.683100  0.016200  1.0
  H  H689  1  0.700400  0.454500  0.249000  1.0
  H  H690  1  0.799600  0.454500  0.251000  1.0
  H  H691  1  0.299600  0.545500  0.751000  1.0
  H  H692  1  0.200400  0.545500  0.749000  1.0
  H  H693  1  0.707100  0.326600  0.227400  1.0
  H  H694  1  0.792900  0.326600  0.272600  1.0
  H  H695  1  0.292900  0.673400  0.772600  1.0
  H  H696  1  0.207100  0.673400  0.727400  1.0
  H  H697  1  0.602800  0.325400  0.205800  1.0
  H  H698  1  0.897200  0.325400  0.294200  1.0
  H  H699  1  0.397200  0.674600  0.794200  1.0
  H  H700  1  0.102800  0.674600  0.705800  1.0
  H  H701  1  0.503500  0.368100  0.199100  1.0
  H  H702  1  0.996500  0.368100  0.300900  1.0
  H  H703  1  0.496500  0.631900  0.800900  1.0
  H  H704  1  0.003500  0.631900  0.699100  1.0
  H  H705  1  0.418100  0.367700  0.236500  1.0
  H  H706  1  0.081900  0.367700  0.263500  1.0
  H  H707  1  0.581900  0.632300  0.763500  1.0
  H  H708  1  0.918100  0.632300  0.736500  1.0
  H  H709  1  0.309100  0.361500  0.220700  1.0
  H  H710  1  0.190900  0.361500  0.279300  1.0
  H  H711  1  0.690900  0.638500  0.779300  1.0
  H  H712  1  0.809100  0.638500  0.720700  1.0
  H  H713  1  0.306200  0.474800  0.157700  1.0
  H  H714  1  0.193800  0.474800  0.342300  1.0
  H  H715  1  0.693800  0.525200  0.842300  1.0
  H  H716  1  0.806200  0.525200  0.657700  1.0
  H  H717  1  0.415200  0.481100  0.173400  1.0
  H  H718  1  0.084800  0.481100  0.326600  1.0
  H  H719  1  0.584800  0.518900  0.826600  1.0
  H  H720  1  0.915200  0.518900  0.673400  1.0
  H  H721  1  0.208100  0.401400  0.200900  1.0
  H  H722  1  0.291900  0.401400  0.299100  1.0
  H  H723  1  0.791900  0.598600  0.799100  1.0
  H  H724  1  0.708100  0.598600  0.700900  1.0
  H  H725  1  0.214800  0.395300  0.155100  1.0
  H  H726  1  0.285200  0.395300  0.344900  1.0
  H  H727  1  0.785200  0.604700  0.844900  1.0
  H  H728  1  0.714800  0.604700  0.655100  1.0
  H  H729  1  0.207600  0.443600  0.172800  1.0
  H  H730  1  0.292400  0.443600  0.327200  1.0
  H  H731  1  0.792400  0.556400  0.827200  1.0
  H  H732  1  0.707600  0.556400  0.672800  1.0
  H  H733  1  0.629800  0.298400  0.404300  1.0
  H  H734  1  0.870200  0.298400  0.095700  1.0
  H  H735  1  0.370200  0.701600  0.595700  1.0
  H  H736  1  0.129800  0.701600  0.904300  1.0
  H  H737  1  0.677700  0.285800  0.296000  1.0
  H  H738  1  0.822300  0.285800  0.204000  1.0
  H  H739  1  0.322300  0.714200  0.704000  1.0
  H  H740  1  0.177700  0.714200  0.796000  1.0
  H  H741  1  0.573600  0.276900  0.271000  1.0
  H  H742  1  0.926400  0.276900  0.229000  1.0
  H  H743  1  0.426400  0.723100  0.729000  1.0
  H  H744  1  0.073600  0.723100  0.771000  1.0
  H  H745  1  0.458000  0.276200  0.284400  1.0
  H  H746  1  0.042000  0.276200  0.215600  1.0
  H  H747  1  0.542000  0.723800  0.715600  1.0
  H  H748  1  0.958000  0.723800  0.784400  1.0
  H  H749  1  0.174700  0.219100  0.281800  1.0
  H  H750  1  0.325300  0.219100  0.218200  1.0
  H  H751  1  0.825300  0.780900  0.718200  1.0
  H  H752  1  0.674700  0.780900  0.781800  1.0
  H  H753  1  0.167000  0.263800  0.256900  1.0
  H  H754  1  0.333000  0.263800  0.243100  1.0
  H  H755  1  0.833000  0.736200  0.743100  1.0
  H  H756  1  0.667000  0.736200  0.756900  1.0
  H  H757  1  0.154800  0.263500  0.302100  1.0
  H  H758  1  0.345200  0.263500  0.197900  1.0
  H  H759  1  0.845200  0.736500  0.697900  1.0
  H  H760  1  0.654800  0.736500  0.802100  1.0
  H  H761  1  0.338200  0.308600  0.366200  1.0
  H  H762  1  0.161800  0.308600  0.133800  1.0
  H  H763  1  0.661800  0.691400  0.633800  1.0
  H  H764  1  0.838200  0.691400  0.866200  1.0
  H  H765  1  0.231700  0.299300  0.342300  1.0
  H  H766  1  0.268300  0.299300  0.157700  1.0
  H  H767  1  0.768300  0.700700  0.657700  1.0
  H  H768  1  0.731700  0.700700  0.842300  1.0
  H  H769  1  0.279600  0.225000  0.252300  1.0
  H  H770  1  0.220400  0.225000  0.247700  1.0
  H  H771  1  0.720400  0.775000  0.747700  1.0
  H  H772  1  0.779600  0.775000  0.752300  1.0
  H  H773  1  0.386100  0.234300  0.276200  1.0
  H  H774  1  0.113900  0.234300  0.223800  1.0
  H  H775  1  0.613900  0.765700  0.723800  1.0
  H  H776  1  0.886100  0.765700  0.776200  1.0
  C  C777  1  0.394400  0.125000  0.125400  1
  C  C778  1  0.105600  0.125000  0.374600  1
  C  C779  1  0.605600  0.875000  0.874600  1
  C  C780  1  0.894400  0.875000  0.625400  1
  C  C781  1  0.451500  0.100000  0.146200  1
  C  C782  1  0.048500  0.100000  0.353800  1
  C  C783  1  0.548500  0.900000  0.853800  1
  C  C784  1  0.951500  0.900000  0.646200  1
  C  C785  1  0.426500  0.954500  0.282200  1
  C  C786  1  0.073500  0.954500  0.217800  1
  C  C787  1  0.573500  0.045500  0.717800  1
  C  C788  1  0.926500  0.045500  0.782200  1
  C  C789  1  0.363500  0.947100  0.267600  1
  C  C790  1  0.136500  0.947100  0.232400  1
  C  C791  1  0.636500  0.052900  0.732400  1
  C  C792  1  0.863500  0.052900  0.767600  1
  C  C793  1  0.345500  0.907900  0.248000  1
  C  C794  1  0.154500  0.907900  0.252000  1
  C  C795  1  0.654500  0.092100  0.752000  1
  C  C796  1  0.845500  0.092100  0.748000  1
  C  C797  1  0.389900  0.875400  0.242400  1
  C  C798  1  0.110100  0.875400  0.257600  1
  C  C799  1  0.610100  0.124600  0.757600  1
  C  C800  1  0.889900  0.124600  0.742400  1
  C  C801  1  0.453000  0.883200  0.257400  1
  C  C802  1  0.047000  0.883200  0.242600  1
  C  C803  1  0.547000  0.116800  0.742600  1
  C  C804  1  0.953000  0.116800  0.757400  1
  C  C805  1  0.471200  0.922300  0.277100  1
  C  C806  1  0.028800  0.922300  0.222900  1
  C  C807  1  0.528800  0.077700  0.722900  1
  C  C808  1  0.971200  0.077700  0.777100  1
  C  C809  1  0.370600  0.833600  0.220400  1
  C  C810  1  0.129400  0.833600  0.279600  1
  C  C811  1  0.629400  0.166400  0.779600  1
  C  C812  1  0.870600  0.166400  0.720400  1
  C  C813  1  0.593400  0.030200  0.982870  1
  C  C814  1  0.906600  0.030200  0.517130  1
  C  C815  1  0.406600  0.969800  0.017130  1
  C  C816  1  0.093400  0.969800  0.482870  1
  C  C817  1  0.610100  0.995400  0.959740  1
  C  C818  1  0.889900  0.995400  0.540260  1
  C  C819  1  0.389900  0.004600  0.040260  1
  C  C820  1  0.110100  0.004600  0.459740  1
  C  C821  1  0.609800  0.000900  0.919170  1
  C  C822  1  0.890200  0.000900  0.580830  1
  C  C823  1  0.390200  0.999100  0.080830  1
  C  C824  1  0.109800  0.999100  0.419170  1
  C  C825  1  0.592700  0.041200  0.900860  1
  C  C826  1  0.907300  0.041200  0.599140  1
  C  C827  1  0.407300  0.958800  0.099140  1
  C  C828  1  0.092700  0.958800  0.400860  1
  C  C829  1  0.576200  0.076000  0.924500  1
  C  C830  1  0.923800  0.076000  0.575500  1
  C  C831  1  0.423800  0.924000  0.075500  1
  C  C832  1  0.076200  0.924000  0.424500  1
  C  C833  1  0.576500  0.070600  0.965100  1
  C  C834  1  0.923500  0.070600  0.534900  1
  C  C835  1  0.423500  0.929400  0.034900  1
  C  C836  1  0.076500  0.929400  0.465100  1
  C  C837  1  0.590900  0.046800  0.856920  1
  C  C838  1  0.909100  0.046800  0.643080  1
  C  C839  1  0.409100  0.953200  0.143080  1
  C  C840  1  0.090900  0.953200  0.356920  1
  C  C841  1  0.428800  0.429800  0.186500  1
  C  C842  1  0.071200  0.429800  0.313500  1
  C  C843  1  0.571200  0.570200  0.813500  1
  C  C844  1  0.928800  0.570200  0.686500  1
  C  C845  1  0.407400  0.392600  0.164900  1
  C  C846  1  0.092600  0.392600  0.335100  1
  C  C847  1  0.592600  0.607400  0.835100  1
  C  C848  1  0.907400  0.607400  0.664900  1
  C  C849  1  0.345000  0.390100  0.147200  1
  C  C850  1  0.155000  0.390100  0.352800  1
  C  C851  1  0.655000  0.609900  0.852800  1
  C  C852  1  0.845000  0.609900  0.647200  1
  C  C853  1  0.302800  0.424700  0.150800  1
  C  C854  1  0.197200  0.424700  0.349200  1
  C  C855  1  0.697200  0.575300  0.849200  1
  C  C856  1  0.802800  0.575300  0.650800  1
  C  C857  1  0.325000  0.461900  0.172500  1
  C  C858  1  0.175000  0.461900  0.327500  1
  C  C859  1  0.675000  0.538100  0.827500  1
  C  C860  1  0.825000  0.538100  0.672500  1
  C  C861  1  0.387300  0.464500  0.190300  1
  C  C862  1  0.112700  0.464500  0.309700  1
  C  C863  1  0.612700  0.535500  0.809700  1
  C  C864  1  0.887300  0.535500  0.690300  1
  C  C865  1  0.235100  0.421500  0.132600  1
  C  C866  1  0.264900  0.421500  0.367400  1
  C  C867  1  0.764900  0.578500  0.867400  1
  C  C868  1  0.735100  0.578500  0.632600  1
  C  C869  1  0.551300  0.352000  0.471300  1.0
  C  C870  1  0.948700  0.352000  0.028700  1.0
  C  C871  1  0.448700  0.648000  0.528700  1.0
  C  C872  1  0.051300  0.648000  0.971300  1.0
  C  C873  1  0.582500  0.381600  0.449400  1.0
  C  C874  1  0.917500  0.381600  0.050600  1.0
  C  C875  1  0.417500  0.618400  0.550600  1.0
  C  C876  1  0.082500  0.618400  0.949400  1.0
  C  C877  1  0.593000  0.424800  0.462600  1.0
  C  C878  1  0.907000  0.424800  0.037400  1.0
  C  C879  1  0.407000  0.575200  0.537400  1.0
  C  C880  1  0.093000  0.575200  0.962600  1.0
  C  C881  1  0.572600  0.439300  0.497800  1.0
  C  C882  1  0.927400  0.439300  0.002200  1.0
  C  C883  1  0.427400  0.560700  0.502200  1.0
  C  C884  1  0.072600  0.560700  0.997800  1.0
  C  C885  1  0.541600  0.409100  0.519500  1.0
  C  C886  1  0.958400  0.409100  0.980500  1.0
  C  C887  1  0.458400  0.590900  0.480500  1.0
  C  C888  1  0.041600  0.590900  0.019500  1.0
  C  C889  1  0.530900  0.365900  0.506500  1.0
  C  C890  1  0.969100  0.365900  0.993500  1.0
  C  C891  1  0.469100  0.634100  0.493500  1.0
  C  C892  1  0.030900  0.634100  0.006500  1.0
  C  C893  1  0.582700  0.486200  0.511500  1.0
  C  C894  1  0.917300  0.486200  0.988500  1.0
  C  C895  1  0.417300  0.513800  0.488500  1.0
  C  C896  1  0.082700  0.513800  0.011500  1.0
  C  C897  1  0.538400  0.275600  0.476800  1.0
  C  C898  1  0.961600  0.275600  0.023200  1.0
  C  C899  1  0.461600  0.724400  0.523200  1.0
  C  C900  1  0.038400  0.724400  0.976800  1.0
  C  C901  1  0.521700  0.231100  0.458600  1.0
  C  C902  1  0.978300  0.231100  0.041400  1.0
  C  C903  1  0.478300  0.768900  0.541400  1.0
  C  C904  1  0.021700  0.768900  0.958600  1.0
  C  C905  1  0.524000  0.194000  0.480800  1.0
  C  C906  1  0.976000  0.194000  0.019200  1.0
  C  C907  1  0.476000  0.806000  0.519200  1.0
  C  C908  1  0.024000  0.806000  0.980800  1.0
  C  C909  1  0.508200  0.155200  0.461000  1.0
  C  C910  1  0.991800  0.155200  0.039000  1.0
  C  C911  1  0.491800  0.844800  0.539000  1.0
  C  C912  1  0.008200  0.844800  0.961000  1.0
  C  C913  1  0.489400  0.153500  0.422000  1.0
  C  C914  1  0.010600  0.153500  0.078000  1.0
  C  C915  1  0.510600  0.846500  0.578000  1.0
  C  C916  1  0.989400  0.846500  0.922000  1.0
  C  C917  1  0.485600  0.192700  0.401700  1.0
  C  C918  1  0.014400  0.192700  0.098300  1.0
  C  C919  1  0.514400  0.807300  0.598300  1.0
  C  C920  1  0.985600  0.807300  0.901700  1.0
  C  C921  1  0.491100  0.101200  0.365500  1.0
  C  C922  1  0.008900  0.101200  0.134500  1.0
  C  C923  1  0.508900  0.898800  0.634500  1.0
  C  C924  1  0.991100  0.898800  0.865500  1.0
  C  C925  1  0.470400  0.113600  0.401400  1.0
  C  C926  1  0.029600  0.113600  0.098600  1.0
  C  C927  1  0.529600  0.886400  0.598600  1.0
  C  C928  1  0.970400  0.886400  0.901400  1.0
  C  C929  1  0.431600  0.081900  0.417800  1.0
  C  C930  1  0.068400  0.081900  0.082200  1.0
  C  C931  1  0.568400  0.918100  0.582200  1.0
  C  C932  1  0.931600  0.918100  0.917800  1.0
  C  C933  1  0.416100  0.044500  0.398100  1.0
  C  C934  1  0.083900  0.044500  0.101900  1.0
  C  C935  1  0.583900  0.955500  0.601900  1.0
  C  C936  1  0.916100  0.955500  0.898100  1.0
  C  C937  1  0.438500  0.033500  0.361700  1.0
  C  C938  1  0.061500  0.033500  0.138300  1.0
  C  C939  1  0.561500  0.966500  0.638300  1.0
  C  C940  1  0.938500  0.966500  0.861700  1.0
  C  C941  1  0.426500  0.992300  0.340600  1.0
  C  C942  1  0.073500  0.992300  0.159400  1.0
  C  C943  1  0.573500  0.007700  0.659400  1.0
  C  C944  1  0.926500  0.007700  0.840600  1.0
  C  C945  1  0.446800  0.938800  0.291500  1.0
  C  C946  1  0.053200  0.938800  0.208500  1.0
  C  C947  1  0.553200  0.061200  0.708500  1.0
  C  C948  1  0.946800  0.061200  0.791500  1.0
  C  C949  1  0.443700  0.933000  0.250800  1.0
  C  C950  1  0.056300  0.933000  0.249200  1.0
  C  C951  1  0.556300  0.067000  0.749200  1.0
  C  C952  1  0.943700  0.067000  0.750800  1.0
  C  C953  1  0.444400  0.890700  0.234900  1.0
  C  C954  1  0.055600  0.890700  0.265100  1.0
  C  C955  1  0.555600  0.109300  0.765100  1.0
  C  C956  1  0.944400  0.109300  0.734900  1.0
  C  C957  1  0.448200  0.853400  0.259200  1.0
  C  C958  1  0.051800  0.853400  0.240800  1.0
  C  C959  1  0.551800  0.146600  0.740800  1.0
  C  C960  1  0.948200  0.146600  0.759200  1.0
  C  C961  1  0.451100  0.859700  0.300000  1.0
  C  C962  1  0.048900  0.859700  0.200000  1.0
  C  C963  1  0.548900  0.140300  0.700000  1.0
  C  C964  1  0.951100  0.140300  0.800000  1.0
  C  C965  1  0.450400  0.901900  0.316100  1.0
  C  C966  1  0.049600  0.901900  0.183900  1.0
  C  C967  1  0.549600  0.098100  0.683900  1.0
  C  C968  1  0.950400  0.098100  0.816100  1.0
  C  C969  1  0.450600  0.807800  0.242000  1.0
  C  C970  1  0.049400  0.807800  0.258000  1.0
  C  C971  1  0.549400  0.192200  0.758000  1.0
  C  C972  1  0.950600  0.192200  0.742000  1.0
  C  C973  1  0.589000  0.996000  0.382410  1.0
  C  C974  1  0.911000  0.996000  0.117590  1.0
  C  C975  1  0.411000  0.004000  0.617590  1.0
  C  C976  1  0.089000  0.004000  0.882410  1.0
  C  C977  1  0.601200  0.036200  0.401700  1.0
  C  C978  1  0.898800  0.036200  0.098300  1.0
  C  C979  1  0.398800  0.963800  0.598300  1.0
  C  C980  1  0.101200  0.963800  0.901700  1.0
  C  C981  1  0.600200  0.039300  0.442400  1.0
  C  C982  1  0.899800  0.039300  0.057600  1.0
  C  C983  1  0.399800  0.960700  0.557600  1.0
  C  C984  1  0.100200  0.960700  0.942400  1.0
  C  C985  1  0.586900  0.002500  0.464570  1.0
  C  C986  1  0.913100  0.002500  0.035430  1.0
  C  C987  1  0.413100  0.997500  0.535430  1.0
  C  C988  1  0.086900  0.997500  0.964570  1.0
  C  C989  1  0.574900  0.962300  0.444790  1.0
  C  C990  1  0.925100  0.962300  0.055210  1.0
  C  C991  1  0.425100  0.037700  0.555210  1.0
  C  C992  1  0.074900  0.037700  0.944790  1.0
  C  C993  1  0.575800  0.959000  0.404140  1.0
  C  C994  1  0.924200  0.959000  0.095860  1.0
  C  C995  1  0.424200  0.041000  0.595860  1.0
  C  C996  1  0.075800  0.041000  0.904140  1.0
  C  C997  1  0.584200  0.006100  0.508290  1.0
  C  C998  1  0.915800  0.006100  0.991710  1.0
  C  C999  1  0.415800  0.993900  0.491710  1.0
  C  C1000  1  0.084200  0.993900  0.008290  1.0
  C  C1001  1  0.606300  0.963300  0.323300  1.0
  C  C1002  1  0.893700  0.963300  0.176700  1.0
  C  C1003  1  0.393700  0.036700  0.676700  1.0
  C  C1004  1  0.106300  0.036700  0.823300  1.0
  C  C1005  1  0.601700  0.961400  0.280600  1.0
  C  C1006  1  0.898300  0.961400  0.219400  1.0
  C  C1007  1  0.398300  0.038600  0.719400  1.0
  C  C1008  1  0.101700  0.038600  0.780600  1.0
  C  C1009  1  0.627800  0.929400  0.259200  1.0
  C  C1010  1  0.872200  0.929400  0.240800  1.0
  C  C1011  1  0.372200  0.070600  0.740800  1.0
  C  C1012  1  0.127800  0.070600  0.759200  1.0
  C  C1013  1  0.623100  0.933400  0.218800  1.0
  C  C1014  1  0.876900  0.933400  0.281200  1.0
  C  C1015  1  0.376900  0.066600  0.781200  1.0
  C  C1016  1  0.123100  0.066600  0.718800  1.0
  C  C1017  1  0.592100  0.966600  0.200200  1.0
  C  C1018  1  0.907900  0.966600  0.299800  1.0
  C  C1019  1  0.407900  0.033400  0.799800  1.0
  C  C1020  1  0.092100  0.033400  0.700200  1.0
  C  C1021  1  0.564100  0.999600  0.223400  1.0
  C  C1022  1  0.935900  0.999600  0.276600  1.0
  C  C1023  1  0.435900  0.000400  0.776600  1.0
  C  C1024  1  0.064100  0.000400  0.723400  1.0
  C  C1025  1  0.597500  0.016400  0.139100  1.0
  C  C1026  1  0.902500  0.016400  0.360900  1.0
  C  C1027  1  0.402500  0.983600  0.860900  1.0
  C  C1028  1  0.097500  0.983600  0.639100  1.0
  C  C1029  1  0.588500  0.975400  0.155900  1.0
  C  C1030  1  0.911500  0.975400  0.344100  1.0
  C  C1031  1  0.411500  0.024600  0.844100  1.0
  C  C1032  1  0.088500  0.024600  0.655900  1.0
  C  C1033  1  0.575900  0.936300  0.131900  1.0
  C  C1034  1  0.924100  0.936300  0.368100  1.0
  C  C1035  1  0.424100  0.063700  0.868100  1.0
  C  C1036  1  0.075900  0.063700  0.631900  1.0
  C  C1037  1  0.570500  0.944400  0.090600  1.0
  C  C1038  1  0.929500  0.944400  0.409400  1.0
  C  C1039  1  0.429500  0.055600  0.909400  1.0
  C  C1040  1  0.070500  0.055600  0.590600  1.0
  C  C1041  1  0.579900  0.987200  0.077500  1.0
  C  C1042  1  0.920100  0.987200  0.422500  1.0
  C  C1043  1  0.420100  0.012800  0.922500  1.0
  C  C1044  1  0.079900  0.012800  0.577500  1.0
  C  C1045  1  0.574600  0.994700  0.035100  1.0
  C  C1046  1  0.925400  0.994700  0.464900  1.0
  C  C1047  1  0.425400  0.005300  0.964900  1.0
  C  C1048  1  0.074600  0.005300  0.535100  1.0
  C  C1049  1  0.588900  0.046000  0.979480  1.0
  C  C1050  1  0.911100  0.046000  0.520520  1.0
  C  C1051  1  0.411100  0.954000  0.020520  1.0
  C  C1052  1  0.088900  0.954000  0.479480  1.0
  C  C1053  1  0.607300  0.014100  0.953950  1.0
  C  C1054  1  0.892700  0.014100  0.546050  1.0
  C  C1055  1  0.392700  0.985900  0.046050  1.0
  C  C1056  1  0.107300  0.985900  0.453950  1.0
  C  C1057  1  0.607500  0.023700  0.914040  1.0
  C  C1058  1  0.892500  0.023700  0.585960  1.0
  C  C1059  1  0.392500  0.976300  0.085960  1.0
  C  C1060  1  0.107500  0.976300  0.414040  1.0
  C  C1061  1  0.589400  0.065300  0.898780  1.0
  C  C1062  1  0.910600  0.065300  0.601220  1.0
  C  C1063  1  0.410600  0.934700  0.101220  1.0
  C  C1064  1  0.089400  0.934700  0.398780  1.0
  C  C1065  1  0.571300  0.097100  0.924800  1.0
  C  C1066  1  0.928700  0.097100  0.575200  1.0
  C  C1067  1  0.428700  0.902900  0.075200  1.0
  C  C1068  1  0.071300  0.902900  0.424800  1.0
  C  C1069  1  0.570900  0.087700  0.964800  1.0
  C  C1070  1  0.929100  0.087700  0.535200  1.0
  C  C1071  1  0.429100  0.912300  0.035200  1.0
  C  C1072  1  0.070900  0.912300  0.464800  1.0
  C  C1073  1  0.588200  0.075200  0.855500  1.0
  C  C1074  1  0.911800  0.075200  0.644500  1.0
  C  C1075  1  0.411800  0.924800  0.144500  1.0
  C  C1076  1  0.088200  0.924800  0.355500  1.0
  C  C1077  1  0.732600  0.988300  0.083670  1.0
  C  C1078  1  0.767400  0.988300  0.416330  1.0
  C  C1079  1  0.267400  0.011700  0.916330  1.0
  C  C1080  1  0.232600  0.011700  0.583670  1.0
  C  C1081  1  0.735500  0.984200  0.124550  1.0
  C  C1082  1  0.764500  0.984200  0.375450  1.0
  C  C1083  1  0.264500  0.015800  0.875450  1.0
  C  C1084  1  0.235500  0.015800  0.624550  1.0
  C  C1085  1  0.741700  0.942700  0.142230  1.0
  C  C1086  1  0.758300  0.942700  0.357770  1.0
  C  C1087  1  0.258300  0.057300  0.857770  1.0
  C  C1088  1  0.241700  0.057300  0.642230  1.0
  C  C1089  1  0.744900  0.904500  0.119600  1.0
  C  C1090  1  0.755100  0.904500  0.380400  1.0
  C  C1091  1  0.255100  0.095500  0.880400  1.0
  C  C1092  1  0.244900  0.095500  0.619600  1.0
  C  C1093  1  0.742200  0.909100  0.078600  1.0
  C  C1094  1  0.757800  0.909100  0.421400  1.0
  C  C1095  1  0.257800  0.090900  0.921400  1.0
  C  C1096  1  0.242200  0.090900  0.578600  1.0
  C  C1097  1  0.736000  0.950500  0.060720  1.0
  C  C1098  1  0.764000  0.950500  0.439280  1.0
  C  C1099  1  0.264000  0.049500  0.939280  1.0
  C  C1100  1  0.236000  0.049500  0.560720  1.0
  C  C1101  1  0.750000  0.859700  0.138700  1.0
  C  C1102  1  0.750000  0.859700  0.361300  1.0
  C  C1103  1  0.250000  0.140300  0.861300  1.0
  C  C1104  1  0.250000  0.140300  0.638700  1.0
  C  C1105  1  0.746200  0.042000  0.036200  1.0
  C  C1106  1  0.753800  0.042000  0.463800  1.0
  C  C1107  1  0.253800  0.958000  0.963800  1.0
  C  C1108  1  0.246200  0.958000  0.536200  1.0
  C  C1109  1  0.732300  0.083200  0.016200  1.0
  C  C1110  1  0.767700  0.083200  0.483800  1.0
  C  C1111  1  0.267700  0.916800  0.983800  1.0
  C  C1112  1  0.232300  0.916800  0.516200  1.0
  C  C1113  1  0.762700  0.097800  0.985900  1.0
  C  C1114  1  0.737300  0.097800  0.514100  1.0
  C  C1115  1  0.237300  0.902200  0.014100  1.0
  C  C1116  1  0.262700  0.902200  0.485900  1.0
  C  C1117  1  0.746500  0.139800  0.971000  1.0
  C  C1118  1  0.753500  0.139800  0.529000  1.0
  C  C1119  1  0.253500  0.860200  0.029000  1.0
  C  C1120  1  0.246500  0.860200  0.471000  1.0
  C  C1121  1  0.700700  0.163800  0.985600  1.0
  C  C1122  1  0.799300  0.163800  0.514400  1.0
  C  C1123  1  0.299300  0.836200  0.014400  1.0
  C  C1124  1  0.200700  0.836200  0.485600  1.0
  C  C1125  1  0.676100  0.143800  0.016700  1.0
  C  C1126  1  0.823900  0.143800  0.483300  1.0
  C  C1127  1  0.323900  0.856200  0.983300  1.0
  C  C1128  1  0.176100  0.856200  0.516700  1.0
  C  C1129  1  0.669700  0.243900  0.995100  1.0
  C  C1130  1  0.830300  0.243900  0.504900  1.0
  C  C1131  1  0.330300  0.756100  0.004900  1.0
  C  C1132  1  0.169700  0.756100  0.495100  1.0
  C  C1133  1  0.681100  0.209300  0.970300  1.0
  C  C1134  1  0.818900  0.209300  0.529700  1.0
  C  C1135  1  0.318900  0.790700  0.029700  1.0
  C  C1136  1  0.181100  0.790700  0.470300  1.0
  C  C1137  1  0.672800  0.218800  0.928200  1.0
  C  C1138  1  0.827200  0.218800  0.571800  1.0
  C  C1139  1  0.327200  0.781200  0.071800  1.0
  C  C1140  1  0.172800  0.781200  0.428200  1.0
  C  C1141  1  0.652800  0.259700  0.918100  1.0
  C  C1142  1  0.847200  0.259700  0.581900  1.0
  C  C1143  1  0.347200  0.740300  0.081900  1.0
  C  C1144  1  0.152800  0.740300  0.418100  1.0
  C  C1145  1  0.645200  0.290800  0.945100  1.0
  C  C1146  1  0.854800  0.290800  0.554900  1.0
  C  C1147  1  0.354800  0.709200  0.054900  1.0
  C  C1148  1  0.145200  0.709200  0.445100  1.0
  C  C1149  1  0.624900  0.336900  0.934900  1.0
  C  C1150  1  0.875100  0.336900  0.565100  1.0
  C  C1151  1  0.375100  0.663100  0.065100  1.0
  C  C1152  1  0.124900  0.663100  0.434900  1.0
  C  C1153  1  0.604800  0.409600  0.949900  1.0
  C  C1154  1  0.895200  0.409600  0.550100  1.0
  C  C1155  1  0.395200  0.590400  0.050100  1.0
  C  C1156  1  0.104800  0.590400  0.449900  1.0
  C  C1157  1  0.561400  0.432500  0.969200  1.0
  C  C1158  1  0.938600  0.432500  0.530800  1.0
  C  C1159  1  0.438600  0.567500  0.030800  1.0
  C  C1160  1  0.061400  0.567500  0.469200  1.0
  C  C1161  1  0.546400  0.476100  0.959000  1.0
  C  C1162  1  0.953600  0.476100  0.541000  1.0
  C  C1163  1  0.453600  0.523900  0.041000  1.0
  C  C1164  1  0.046400  0.523900  0.459000  1.0
  C  C1165  1  0.574400  0.497700  0.929400  1.0
  C  C1166  1  0.925600  0.497700  0.570600  1.0
  C  C1167  1  0.425600  0.502300  0.070600  1.0
  C  C1168  1  0.074400  0.502300  0.429400  1.0
  C  C1169  1  0.617800  0.474100  0.910300  1.0
  C  C1170  1  0.882200  0.474100  0.589700  1.0
  C  C1171  1  0.382200  0.525900  0.089700  1.0
  C  C1172  1  0.117800  0.525900  0.410300  1.0
  C  C1173  1  0.633000  0.430500  0.920350  1.0
  C  C1174  1  0.867000  0.430500  0.579650  1.0
  C  C1175  1  0.367000  0.569500  0.079650  1.0
  C  C1176  1  0.133000  0.569500  0.420350  1.0
  C  C1177  1  0.559300  0.545100  0.919200  1.0
  C  C1178  1  0.940700  0.545100  0.580800  1.0
  C  C1179  1  0.440700  0.454900  0.080800  1.0
  C  C1180  1  0.059300  0.454900  0.419200  1.0
  C  C1181  1  0.780400  0.333600  0.975430  1.0
  C  C1182  1  0.719600  0.333600  0.524570  1.0
  C  C1183  1  0.219600  0.666400  0.024570  1.0
  C  C1184  1  0.280400  0.666400  0.475430  1.0
  C  C1185  1  0.801800  0.291900  0.988300  1.0
  C  C1186  1  0.698200  0.291900  0.511700  1.0
  C  C1187  1  0.198200  0.708100  0.011700  1.0
  C  C1188  1  0.301800  0.708100  0.488300  1.0
  C  C1189  1  0.829900  0.264300  0.963000  1.0
  C  C1190  1  0.670100  0.264300  0.537000  1.0
  C  C1191  1  0.170100  0.735700  0.037000  1.0
  C  C1192  1  0.329900  0.735700  0.463000  1.0
  C  C1193  1  0.837100  0.277400  0.924600  1.0
  C  C1194  1  0.662900  0.277400  0.575400  1.0
  C  C1195  1  0.162900  0.722600  0.075400  1.0
  C  C1196  1  0.337100  0.722600  0.424600  1.0
  C  C1197  1  0.815600  0.319400  0.912200  1.0
  C  C1198  1  0.684400  0.319400  0.587800  1.0
  C  C1199  1  0.184400  0.680600  0.087800  1.0
  C  C1200  1  0.315600  0.680600  0.412200  1.0
  C  C1201  1  0.787500  0.347200  0.937300  1.0
  C  C1202  1  0.712500  0.347200  0.562700  1.0
  C  C1203  1  0.212500  0.652800  0.062700  1.0
  C  C1204  1  0.287500  0.652800  0.437300  1.0
  C  C1205  1  0.866100  0.247100  0.897100  1.0
  C  C1206  1  0.633900  0.247100  0.602900  1.0
  C  C1207  1  0.133900  0.752900  0.102900  1.0
  C  C1208  1  0.366100  0.752900  0.397100  1.0
  C  C1209  1  0.758600  0.401200  0.004100  1.0
  C  C1210  1  0.741400  0.401200  0.495900  1.0
  C  C1211  1  0.241400  0.598800  0.995900  1.0
  C  C1212  1  0.258600  0.598800  0.504100  1.0
  C  C1213  1  0.721500  0.427400  0.026500  1.0
  C  C1214  1  0.778500  0.427400  0.473500  1.0
  C  C1215  1  0.278500  0.572600  0.973500  1.0
  C  C1216  1  0.221500  0.572600  0.526500  1.0
  C  C1217  1  0.737300  0.470300  0.036200  1.0
  C  C1218  1  0.762700  0.470300  0.463800  1.0
  C  C1219  1  0.262700  0.529700  0.963800  1.0
  C  C1220  1  0.237300  0.529700  0.536200  1.0
  C  C1221  1  0.703100  0.495500  0.060200  1.0
  C  C1222  1  0.796900  0.495500  0.439800  1.0
  C  C1223  1  0.296900  0.504500  0.939800  1.0
  C  C1224  1  0.203100  0.504500  0.560200  1.0
  C  C1225  1  0.654200  0.472900  0.075000  1.0
  C  C1226  1  0.845800  0.472900  0.425000  1.0
  C  C1227  1  0.345800  0.527100  0.925000  1.0
  C  C1228  1  0.154200  0.527100  0.575000  1.0
  C  C1229  1  0.641500  0.429000  0.064900  1.0
  C  C1230  1  0.858500  0.429000  0.435100  1.0
  C  C1231  1  0.358500  0.571000  0.935100  1.0
  C  C1232  1  0.141500  0.571000  0.564900  1.0
  C  C1233  1  0.600300  0.478200  0.136400  1.0
  C  C1234  1  0.899700  0.478200  0.363600  1.0
  C  C1235  1  0.399700  0.521800  0.863600  1.0
  C  C1236  1  0.100300  0.521800  0.636400  1.0
  C  C1237  1  0.615800  0.496400  0.101900  1.0
  C  C1238  1  0.884200  0.496400  0.398100  1.0
  C  C1239  1  0.384200  0.503600  0.898100  1.0
  C  C1240  1  0.115800  0.503600  0.601900  1.0
  C  C1241  1  0.595600  0.539800  0.091600  1.0
  C  C1242  1  0.904400  0.539800  0.408400  1.0
  C  C1243  1  0.404400  0.460200  0.908400  1.0
  C  C1244  1  0.095600  0.460200  0.591600  1.0
  C  C1245  1  0.560200  0.561200  0.117900  1.0
  C  C1246  1  0.939800  0.561200  0.382100  1.0
  C  C1247  1  0.439800  0.438800  0.882100  1.0
  C  C1248  1  0.060200  0.438800  0.617900  1.0
  C  C1249  1  0.545900  0.541900  0.151800  1.0
  C  C1250  1  0.954100  0.541900  0.348200  1.0
  C  C1251  1  0.454100  0.458100  0.848200  1.0
  C  C1252  1  0.045900  0.458100  0.651800  1.0
  C  C1253  1  0.508800  0.563200  0.178000  1.0
  C  C1254  1  0.991200  0.563200  0.322000  1.0
  C  C1255  1  0.491200  0.436800  0.822000  1.0
  C  C1256  1  0.008800  0.436800  0.678000  1.0
  C  C1257  1  0.475500  0.566900  0.241000  1.0
  C  C1258  1  0.024500  0.566900  0.259000  1.0
  C  C1259  1  0.524500  0.433100  0.759000  1.0
  C  C1260  1  0.975500  0.433100  0.741000  1.0
  C  C1261  1  0.487600  0.611600  0.248000  1.0
  C  C1262  1  0.012400  0.611600  0.252000  1.0
  C  C1263  1  0.512400  0.388400  0.752000  1.0
  C  C1264  1  0.987600  0.388400  0.748000  1.0
  C  C1265  1  0.458500  0.634000  0.276300  1.0
  C  C1266  1  0.041500  0.634000  0.223700  1.0
  C  C1267  1  0.541500  0.366000  0.723700  1.0
  C  C1268  1  0.958500  0.366000  0.776300  1.0
  C  C1269  1  0.416600  0.612400  0.298200  1.0
  C  C1270  1  0.083400  0.612400  0.201800  1.0
  C  C1271  1  0.583400  0.387600  0.701800  1.0
  C  C1272  1  0.916600  0.387600  0.798200  1.0
  C  C1273  1  0.405100  0.567600  0.290900  1.0
  C  C1274  1  0.094900  0.567600  0.209100  1.0
  C  C1275  1  0.594900  0.432400  0.709100  1.0
  C  C1276  1  0.905100  0.432400  0.790900  1.0
  C  C1277  1  0.434100  0.544900  0.262600  1.0
  C  C1278  1  0.065900  0.544900  0.237400  1.0
  C  C1279  1  0.565900  0.455100  0.737400  1.0
  C  C1280  1  0.934100  0.455100  0.762600  1.0
  C  C1281  1  0.384100  0.637000  0.328000  1.0
  C  C1282  1  0.115900  0.637000  0.172000  1.0
  C  C1283  1  0.615900  0.363000  0.672000  1.0
  C  C1284  1  0.884100  0.363000  0.828000  1.0
  C  C1285  1  0.667600  0.560600  0.218700  1.0
  C  C1286  1  0.832400  0.560600  0.281300  1.0
  C  C1287  1  0.332400  0.439400  0.781300  1.0
  C  C1288  1  0.167600  0.439400  0.718700  1.0
  C  C1289  1  0.665700  0.606500  0.219300  1.0
  C  C1290  1  0.834300  0.606500  0.280700  1.0
  C  C1291  1  0.334300  0.393500  0.780700  1.0
  C  C1292  1  0.165700  0.393500  0.719300  1.0
  C  C1293  1  0.697600  0.630900  0.193400  1.0
  C  C1294  1  0.802400  0.630900  0.306600  1.0
  C  C1295  1  0.302400  0.369100  0.806600  1.0
  C  C1296  1  0.197600  0.369100  0.693400  1.0
  C  C1297  1  0.732000  0.609900  0.166600  1.0
  C  C1298  1  0.768000  0.609900  0.333400  1.0
  C  C1299  1  0.268000  0.390100  0.833400  1.0
  C  C1300  1  0.232000  0.390100  0.666600  1.0
  C  C1301  1  0.733300  0.563800  0.166300  1.0
  C  C1302  1  0.766700  0.563800  0.333700  1.0
  C  C1303  1  0.266700  0.436200  0.833700  1.0
  C  C1304  1  0.233300  0.436200  0.666300  1.0
  C  C1305  1  0.701500  0.539300  0.192100  1.0
  C  C1306  1  0.798500  0.539300  0.307900  1.0
  C  C1307  1  0.298500  0.460700  0.807900  1.0
  C  C1308  1  0.201500  0.460700  0.692100  1.0
  C  C1309  1  0.767600  0.636300  0.139500  1.0
  C  C1310  1  0.732400  0.636300  0.360500  1.0
  C  C1311  1  0.232400  0.363700  0.860500  1.0
  C  C1312  1  0.267600  0.363700  0.639500  1.0
  C  C1313  1  0.626600  0.547800  0.279400  1.0
  C  C1314  1  0.873400  0.547800  0.220600  1.0
  C  C1315  1  0.373400  0.452200  0.720600  1.0
  C  C1316  1  0.126600  0.452200  0.779400  1.0
  C  C1317  1  0.588700  0.522200  0.302100  1.0
  C  C1318  1  0.911300  0.522200  0.197900  1.0
  C  C1319  1  0.411300  0.477800  0.697900  1.0
  C  C1320  1  0.088700  0.477800  0.802100  1.0
  C  C1321  1  0.586500  0.532700  0.342100  1.0
  C  C1322  1  0.913500  0.532700  0.157900  1.0
  C  C1323  1  0.413500  0.467300  0.657900  1.0
  C  C1324  1  0.086500  0.467300  0.842100  1.0
  C  C1325  1  0.552900  0.506200  0.364000  1.0
  C  C1326  1  0.947100  0.506200  0.136000  1.0
  C  C1327  1  0.447100  0.493800  0.636000  1.0
  C  C1328  1  0.052900  0.493800  0.864000  1.0
  C  C1329  1  0.521500  0.468700  0.346000  1.0
  C  C1330  1  0.978500  0.468700  0.154000  1.0
  C  C1331  1  0.478500  0.531300  0.654000  1.0
  C  C1332  1  0.021500  0.531300  0.846000  1.0
  C  C1333  1  0.525200  0.462900  0.305400  1.0
  C  C1334  1  0.974800  0.462900  0.194600  1.0
  C  C1335  1  0.474800  0.537100  0.694600  1.0
  C  C1336  1  0.025200  0.537100  0.805400  1.0
  C  C1337  1  0.492600  0.394300  0.366400  1.0
  C  C1338  1  0.007400  0.394300  0.133600  1.0
  C  C1339  1  0.507400  0.605700  0.633600  1.0
  C  C1340  1  0.992600  0.605700  0.866400  1.0
  C  C1341  1  0.483200  0.438300  0.367500  1.0
  C  C1342  1  0.016800  0.438300  0.132500  1.0
  C  C1343  1  0.516800  0.561700  0.632500  1.0
  C  C1344  1  0.983200  0.561700  0.867500  1.0
  C  C1345  1  0.440700  0.454000  0.393900  1.0
  C  C1346  1  0.059300  0.454000  0.106100  1.0
  C  C1347  1  0.559300  0.546000  0.606100  1.0
  C  C1348  1  0.940700  0.546000  0.893900  1.0
  C  C1349  1  0.411800  0.425200  0.414100  1.0
  C  C1350  1  0.088200  0.425200  0.085900  1.0
  C  C1351  1  0.588200  0.574800  0.585900  1.0
  C  C1352  1  0.911800  0.574800  0.914100  1.0
  C  C1353  1  0.422500  0.381300  0.410200  1.0
  C  C1354  1  0.077500  0.381300  0.089800  1.0
  C  C1355  1  0.577500  0.618700  0.589800  1.0
  C  C1356  1  0.922500  0.618700  0.910200  1.0
  C  C1357  1  0.393400  0.347200  0.434600  1.0
  C  C1358  1  0.106600  0.347200  0.065400  1.0
  C  C1359  1  0.606600  0.652800  0.565400  1.0
  C  C1360  1  0.893400  0.652800  0.934600  1.0
  C  C1361  1  0.377600  0.275400  0.453500  1.0
  C  C1362  1  0.122400  0.275400  0.046500  1.0
  C  C1363  1  0.622400  0.724600  0.546500  1.0
  C  C1364  1  0.877600  0.724600  0.953500  1.0
  C  C1365  1  0.383100  0.282700  0.494100  1.0
  C  C1366  1  0.116900  0.282700  0.005900  1.0
  C  C1367  1  0.616900  0.717300  0.505900  1.0
  C  C1368  1  0.883100  0.717300  0.994100  1.0
  C  C1369  1  0.373100  0.248300  0.519600  1.0
  C  C1370  1  0.126900  0.248300  0.980400  1.0
  C  C1371  1  0.626900  0.751700  0.480400  1.0
  C  C1372  1  0.873100  0.751700  0.019600  1.0
  C  C1373  1  0.357300  0.206000  0.505200  1.0
  C  C1374  1  0.142700  0.206000  0.994800  1.0
  C  C1375  1  0.642700  0.794000  0.494800  1.0
  C  C1376  1  0.857300  0.794000  0.005200  1.0
  C  C1377  1  0.352200  0.199100  0.464300  1.0
  C  C1378  1  0.147800  0.199100  0.035700  1.0
  C  C1379  1  0.647800  0.800900  0.535700  1.0
  C  C1380  1  0.852200  0.800900  0.964300  1.0
  C  C1381  1  0.362200  0.233400  0.438700  1.0
  C  C1382  1  0.137800  0.233400  0.061300  1.0
  C  C1383  1  0.637800  0.766600  0.561300  1.0
  C  C1384  1  0.862200  0.766600  0.938700  1.0
  C  C1385  1  0.344900  0.169200  0.532700  1.0
  C  C1386  1  0.155100  0.169200  0.967300  1.0
  C  C1387  1  0.655100  0.830800  0.467300  1.0
  C  C1388  1  0.844900  0.830800  0.032700  1.0
  C  C1389  1  0.856200  0.093500  0.189900  1.0
  C  C1390  1  0.643800  0.093500  0.310100  1.0
  C  C1391  1  0.143800  0.906500  0.810100  1.0
  C  C1392  1  0.356200  0.906500  0.689900  1.0
  C  C1393  1  0.818700  0.130000  0.192900  1.0
  C  C1394  1  0.681300  0.130000  0.307100  1.0
  C  C1395  1  0.181300  0.870000  0.807100  1.0
  C  C1396  1  0.318700  0.870000  0.692900  1.0
  C  C1397  1  0.846100  0.165400  0.214800  1.0
  C  C1398  1  0.653900  0.165400  0.285200  1.0
  C  C1399  1  0.153900  0.834600  0.785200  1.0
  C  C1400  1  0.346100  0.834600  0.714800  1.0
  C  C1401  1  0.908900  0.161600  0.232100  1.0
  C  C1402  1  0.591100  0.161600  0.267900  1.0
  C  C1403  1  0.091100  0.838400  0.767900  1.0
  C  C1404  1  0.408900  0.838400  0.732100  1.0
  C  C1405  1  0.941800  0.123600  0.228600  1.0
  C  C1406  1  0.558200  0.123600  0.271400  1.0
  C  C1407  1  0.058200  0.876400  0.771400  1.0
  C  C1408  1  0.441800  0.876400  0.728600  1.0
  C  C1409  1  0.006000  0.116600  0.248100  1.0
  C  C1410  1  0.494000  0.116600  0.251900  1.0
  C  C1411  1  0.994000  0.883400  0.751900  1.0
  C  C1412  1  0.506000  0.883400  0.748100  1.0
  C  C1413  1  0.094600  0.077100  0.261900  1.0
  C  C1414  1  0.405400  0.077100  0.238100  1.0
  C  C1415  1  0.905400  0.922900  0.738100  1.0
  C  C1416  1  0.594600  0.922900  0.761900  1.0
  C  C1417  1  0.113400  0.036200  0.278200  1.0
  C  C1418  1  0.386600  0.036200  0.221800  1.0
  C  C1419  1  0.886600  0.963800  0.721800  1.0
  C  C1420  1  0.613400  0.963800  0.778200  1.0
  C  C1421  1  0.175000  0.030100  0.296300  1.0
  C  C1422  1  0.325000  0.030100  0.203700  1.0
  C  C1423  1  0.825000  0.969900  0.703700  1.0
  C  C1424  1  0.675000  0.969900  0.796300  1.0
  C  C1425  1  0.219000  0.064500  0.298600  1.0
  C  C1426  1  0.281000  0.064500  0.201400  1.0
  C  C1427  1  0.781000  0.935500  0.701400  1.0
  C  C1428  1  0.719000  0.935500  0.798600  1.0
  C  C1429  1  0.199400  0.105300  0.282300  1.0
  C  C1430  1  0.300600  0.105300  0.217700  1.0
  C  C1431  1  0.800600  0.894700  0.717700  1.0
  C  C1432  1  0.699400  0.894700  0.782300  1.0
  C  C1433  1  0.137900  0.111600  0.264100  1.0
  C  C1434  1  0.362100  0.111600  0.235900  1.0
  C  C1435  1  0.862100  0.888400  0.735900  1.0
  C  C1436  1  0.637900  0.888400  0.764100  1.0
  C  C1437  1  0.285800  0.057400  0.317400  1.0
  C  C1438  1  0.214200  0.057400  0.182600  1.0
  C  C1439  1  0.714200  0.942600  0.682600  1.0
  C  C1440  1  0.785800  0.942600  0.817400  1.0
  C  C1441  1  0.734200  0.107100  0.141600  1.0
  C  C1442  1  0.765800  0.107100  0.358400  1.0
  C  C1443  1  0.265800  0.892900  0.858400  1.0
  C  C1444  1  0.234200  0.892900  0.641600  1.0
  C  C1445  1  0.754400  0.132000  0.175500  1.0
  C  C1446  1  0.745600  0.132000  0.324500  1.0
  C  C1447  1  0.245600  0.868000  0.824500  1.0
  C  C1448  1  0.254400  0.868000  0.675500  1.0
  C  C1449  1  0.711700  0.159900  0.189600  1.0
  C  C1450  1  0.788300  0.159900  0.310400  1.0
  C  C1451  1  0.288300  0.840100  0.810400  1.0
  C  C1452  1  0.211700  0.840100  0.689600  1.0
  C  C1453  1  0.650700  0.161000  0.169500  1.0
  C  C1454  1  0.849300  0.161000  0.330500  1.0
  C  C1455  1  0.349300  0.839000  0.830500  1.0
  C  C1456  1  0.150700  0.839000  0.669500  1.0
  C  C1457  1  0.634500  0.137500  0.136100  1.0
  C  C1458  1  0.865500  0.137500  0.363900  1.0
  C  C1459  1  0.365500  0.862500  0.863900  1.0
  C  C1460  1  0.134500  0.862500  0.636100  1.0
  C  C1461  1  0.574700  0.144600  0.111500  1.0
  C  C1462  1  0.925300  0.144600  0.388500  1.0
  C  C1463  1  0.425300  0.855400  0.888500  1.0
  C  C1464  1  0.074700  0.855400  0.611500  1.0
  C  C1465  1  0.512000  0.138500  0.051000  1.0
  C  C1466  1  0.988000  0.138500  0.449000  1.0
  C  C1467  1  0.488000  0.861500  0.949000  1.0
  C  C1468  1  0.012000  0.861500  0.551000  1.0
  C  C1469  1  0.504200  0.182600  0.039900  1.0
  C  C1470  1  0.995800  0.182600  0.460100  1.0
  C  C1471  1  0.495800  0.817400  0.960100  1.0
  C  C1472  1  0.004200  0.817400  0.539900  1.0
  C  C1473  1  0.450600  0.195900  0.015100  1.0
  C  C1474  1  0.049400  0.195900  0.484900  1.0
  C  C1475  1  0.549400  0.804100  0.984900  1.0
  C  C1476  1  0.950600  0.804100  0.515100  1.0
  C  C1477  1  0.403900  0.165600  0.000800  1.0
  C  C1478  1  0.096100  0.165600  0.499200  1.0
  C  C1479  1  0.596100  0.834400  0.999200  1.0
  C  C1480  1  0.903900  0.834400  0.500800  1.0
  C  C1481  1  0.412400  0.121400  0.012200  1.0
  C  C1482  1  0.087600  0.121400  0.487800  1.0
  C  C1483  1  0.587600  0.878600  0.987800  1.0
  C  C1484  1  0.912400  0.878600  0.512200  1.0
  C  C1485  1  0.465800  0.107900  0.037000  1.0
  C  C1486  1  0.034200  0.107900  0.463000  1.0
  C  C1487  1  0.534200  0.892100  0.963000  1.0
  C  C1488  1  0.965800  0.892100  0.537000  1.0
  C  C1489  1  0.346900  0.179800  0.973200  1.0
  C  C1490  1  0.153100  0.179800  0.526800  1.0
  C  C1491  1  0.653100  0.820200  0.026800  1.0
  C  C1492  1  0.846900  0.820200  0.473200  1.0
  C  C1493  1  0.751900  0.311900  0.409000  1.0
  C  C1494  1  0.748100  0.311900  0.091000  1.0
  C  C1495  1  0.248100  0.688100  0.591000  1.0
  C  C1496  1  0.251900  0.688100  0.909000  1.0
  C  C1497  1  0.734400  0.292300  0.371000  1.0
  C  C1498  1  0.765600  0.292300  0.129000  1.0
  C  C1499  1  0.265600  0.707700  0.629000  1.0
  C  C1500  1  0.234400  0.707700  0.871000  1.0
  C  C1501  1  0.782300  0.276600  0.352300  1.0
  C  C1502  1  0.717700  0.276600  0.147700  1.0
  C  C1503  1  0.217700  0.723400  0.647700  1.0
  C  C1504  1  0.282300  0.723400  0.852300  1.0
  C  C1505  1  0.842900  0.278400  0.369300  1.0
  C  C1506  1  0.657100  0.278400  0.130700  1.0
  C  C1507  1  0.157100  0.721600  0.630700  1.0
  C  C1508  1  0.342900  0.721600  0.869300  1.0
  C  C1509  1  0.856500  0.298800  0.406400  1.0
  C  C1510  1  0.643500  0.298800  0.093600  1.0
  C  C1511  1  0.143500  0.701200  0.593600  1.0
  C  C1512  1  0.356500  0.701200  0.906400  1.0
  C  C1513  1  0.921200  0.302200  0.426600  1.0
  C  C1514  1  0.578800  0.302200  0.073400  1.0
  C  C1515  1  0.078800  0.697800  0.573400  1.0
  C  C1516  1  0.421200  0.697800  0.926600  1.0
  C  C1517  1  0.994200  0.329500  0.476600  1.0
  C  C1518  1  0.505800  0.329500  0.023400  1.0
  C  C1519  1  0.005800  0.670500  0.523400  1.0
  C  C1520  1  0.494200  0.670500  0.976600  1.0
  C  C1521  1  0.011700  0.321100  0.516700  1.0
  C  C1522  1  0.488300  0.321100  0.983300  1.0
  C  C1523  1  0.988300  0.678900  0.483300  1.0
  C  C1524  1  0.511700  0.678900  0.016700  1.0
  C  C1525  1  0.074600  0.324900  0.533100  1.0
  C  C1526  1  0.425400  0.324900  0.966900  1.0
  C  C1527  1  0.925400  0.675100  0.466900  1.0
  C  C1528  1  0.574600  0.675100  0.033100  1.0
  C  C1529  1  0.121200  0.337000  0.509900  1.0
  C  C1530  1  0.378800  0.337000  0.990100  1.0
  C  C1531  1  0.878800  0.663000  0.490100  1.0
  C  C1532  1  0.621200  0.663000  0.009900  1.0
  C  C1533  1  0.102800  0.345400  0.469700  1.0
  C  C1534  1  0.397200  0.345400  0.030300  1.0
  C  C1535  1  0.897200  0.654600  0.530300  1.0
  C  C1536  1  0.602800  0.654600  0.969700  1.0
  C  C1537  1  0.040000  0.341700  0.453200  1.0
  C  C1538  1  0.460000  0.341700  0.046800  1.0
  C  C1539  1  0.960000  0.658300  0.546800  1.0
  C  C1540  1  0.540000  0.658300  0.953200  1.0
  C  C1541  1  0.189200  0.340000  0.527500  1.0
  C  C1542  1  0.310800  0.340000  0.972500  1.0
  C  C1543  1  0.810800  0.660000  0.472500  1.0
  C  C1544  1  0.689200  0.660000  0.027500  1.0
  C  C1545  1  0.680800  0.427500  0.240600  1.0
  C  C1546  1  0.819200  0.427500  0.259400  1.0
  C  C1547  1  0.319200  0.572500  0.759400  1.0
  C  C1548  1  0.180800  0.572500  0.740600  1.0
  C  C1549  1  0.717800  0.390900  0.243300  1.0
  C  C1550  1  0.782200  0.390900  0.256700  1.0
  C  C1551  1  0.282200  0.609100  0.756700  1.0
  C  C1552  1  0.217800  0.609100  0.743300  1.0
  C  C1553  1  0.684100  0.353300  0.228300  1.0
  C  C1554  1  0.815900  0.353300  0.271700  1.0
  C  C1555  1  0.315900  0.646700  0.771700  1.0
  C  C1556  1  0.184100  0.646700  0.728300  1.0
  C  C1557  1  0.622600  0.352000  0.215200  1.0
  C  C1558  1  0.877400  0.352000  0.284800  1.0
  C  C1559  1  0.377400  0.648000  0.784800  1.0
  C  C1560  1  0.122600  0.648000  0.715200  1.0
  C  C1561  1  0.590800  0.388400  0.215700  1.0
  C  C1562  1  0.909200  0.388400  0.284300  1.0
  C  C1563  1  0.409200  0.611600  0.784300  1.0
  C  C1564  1  0.090800  0.611600  0.715700  1.0
  C  C1565  1  0.526700  0.394100  0.206600  1.0
  C  C1566  1  0.973300  0.394100  0.293400  1.0
  C  C1567  1  0.473300  0.605900  0.793400  1.0
  C  C1568  1  0.026700  0.605900  0.706600  1.0
  C  C1569  1  0.427500  0.425100  0.206600  1.0
  C  C1570  1  0.072500  0.425100  0.293400  1.0
  C  C1571  1  0.572500  0.574900  0.793400  1.0
  C  C1572  1  0.927500  0.574900  0.706600  1.0
  C  C1573  1  0.395500  0.389500  0.220500  1.0
  C  C1574  1  0.104500  0.389500  0.279500  1.0
  C  C1575  1  0.604500  0.610500  0.779500  1.0
  C  C1576  1  0.895500  0.610500  0.720500  1.0
  C  C1577  1  0.330400  0.385900  0.211100  1.0
  C  C1578  1  0.169600  0.385900  0.288900  1.0
  C  C1579  1  0.669600  0.614100  0.788900  1.0
  C  C1580  1  0.830400  0.614100  0.711100  1.0
  C  C1581  1  0.295900  0.417600  0.187600  1.0
  C  C1582  1  0.204100  0.417600  0.312400  1.0
  C  C1583  1  0.704100  0.582400  0.812400  1.0
  C  C1584  1  0.795900  0.582400  0.687600  1.0
  C  C1585  1  0.328700  0.453000  0.173700  1.0
  C  C1586  1  0.171300  0.453000  0.326300  1.0
  C  C1587  1  0.671300  0.547000  0.826300  1.0
  C  C1588  1  0.828700  0.547000  0.673700  1.0
  C  C1589  1  0.393800  0.456800  0.183100  1.0
  C  C1590  1  0.106200  0.456800  0.316900  1.0
  C  C1591  1  0.606200  0.543200  0.816900  1.0
  C  C1592  1  0.893800  0.543200  0.683100  1.0
  C  C1593  1  0.225400  0.414200  0.178300  1.0
  C  C1594  1  0.274600  0.414200  0.321700  1.0
  C  C1595  1  0.774600  0.585800  0.821700  1.0
  C  C1596  1  0.725400  0.585800  0.678300  1.0
  C  C1597  1  0.619500  0.294300  0.376700  1.0
  C  C1598  1  0.880500  0.294300  0.123300  1.0
  C  C1599  1  0.380500  0.705700  0.623300  1.0
  C  C1600  1  0.119500  0.705700  0.876700  1.0
  C  C1601  1  0.669300  0.291300  0.354000  1.0
  C  C1602  1  0.830700  0.291300  0.146000  1.0
  C  C1603  1  0.330700  0.708700  0.646000  1.0
  C  C1604  1  0.169300  0.708700  0.854000  1.0
  C  C1605  1  0.647300  0.286200  0.313800  1.0
  C  C1606  1  0.852700  0.286200  0.186200  1.0
  C  C1607  1  0.352700  0.713800  0.686200  1.0
  C  C1608  1  0.147300  0.713800  0.813800  1.0
  C  C1609  1  0.586000  0.281700  0.298300  1.0
  C  C1610  1  0.914000  0.281700  0.201700  1.0
  C  C1611  1  0.414000  0.718300  0.701700  1.0
  C  C1612  1  0.086000  0.718300  0.798300  1.0
  C  C1613  1  0.546000  0.284300  0.323100  1.0
  C  C1614  1  0.954000  0.284300  0.176900  1.0
  C  C1615  1  0.454000  0.715700  0.676900  1.0
  C  C1616  1  0.046000  0.715700  0.823100  1.0
  C  C1617  1  0.474800  0.279000  0.311400  1.0
  C  C1618  1  0.025200  0.279000  0.188600  1.0
  C  C1619  1  0.525200  0.721000  0.688600  1.0
  C  C1620  1  0.974800  0.721000  0.811400  1.0
  C  C1621  1  0.180300  0.251100  0.283000  1.0
  C  C1622  1  0.319700  0.251100  0.217000  1.0
  C  C1623  1  0.819700  0.748900  0.717000  1.0
  C  C1624  1  0.680300  0.748900  0.783000  1.0
  C  C1625  1  0.372100  0.272300  0.323400  1.0
  C  C1626  1  0.127900  0.272300  0.176600  1.0
  C  C1627  1  0.627900  0.727700  0.676600  1.0
  C  C1628  1  0.872100  0.727700  0.823400  1.0
  C  C1629  1  0.326300  0.291600  0.343100  1.0
  C  C1630  1  0.173700  0.291600  0.156900  1.0
  C  C1631  1  0.673700  0.708400  0.656900  1.0
  C  C1632  1  0.826300  0.708400  0.843100  1.0
  C  C1633  1  0.263000  0.286100  0.328900  1.0
  C  C1634  1  0.237000  0.286100  0.171100  1.0
  C  C1635  1  0.737000  0.713900  0.671100  1.0
  C  C1636  1  0.763000  0.713900  0.828900  1.0
  C  C1637  1  0.245700  0.261300  0.295100  1.0
  C  C1638  1  0.254300  0.261300  0.204900  1.0
  C  C1639  1  0.754300  0.738700  0.704900  1.0
  C  C1640  1  0.745700  0.738700  0.795100  1.0
  C  C1641  1  0.291500  0.242000  0.275500  1.0
  C  C1642  1  0.208500  0.242000  0.224500  1.0
  C  C1643  1  0.708500  0.758000  0.724500  1.0
  C  C1644  1  0.791500  0.758000  0.775500  1.0
  C  C1645  1  0.354700  0.247500  0.289600  1.0
  C  C1646  1  0.145300  0.247500  0.210400  1.0
  C  C1647  1  0.645300  0.752500  0.710400  1.0
  C  C1648  1  0.854700  0.752500  0.789600  1.0
  N  N1649  1  0.497500  0.085400  0.160200  1
  N  N1650  1  0.002500  0.085400  0.339800  1
  N  N1651  1  0.502500  0.914600  0.839800  1
  N  N1652  1  0.997500  0.914600  0.660200  1
  N  N1653  1  0.538300  0.309900  0.454700  1.0
  N  N1654  1  0.961700  0.309900  0.045300  1.0
  N  N1655  1  0.461700  0.690100  0.545300  1.0
  N  N1656  1  0.038300  0.690100  0.954700  1.0
  N  N1657  1  0.499200  0.231700  0.419400  1.0
  N  N1658  1  0.000800  0.231700  0.080600  1.0
  N  N1659  1  0.500800  0.768300  0.580600  1.0
  N  N1660  1  0.999200  0.768300  0.919400  1.0
  N  N1661  1  0.477100  0.064400  0.346500  1.0
  N  N1662  1  0.022900  0.064400  0.153500  1.0
  N  N1663  1  0.522900  0.935600  0.653500  1.0
  N  N1664  1  0.977100  0.935600  0.846500  1.0
  N  N1665  1  0.447100  0.986800  0.309100  1.0
  N  N1666  1  0.052900  0.986800  0.190900  1.0
  N  N1667  1  0.552900  0.013200  0.690900  1.0
  N  N1668  1  0.947100  0.013200  0.809100  1.0
  N  N1669  1  0.585400  0.996000  0.340800  1.0
  N  N1670  1  0.914600  0.996000  0.159200  1.0
  N  N1671  1  0.414600  0.004000  0.659200  1.0
  N  N1672  1  0.085400  0.004000  0.840800  1.0
  N  N1673  1  0.568300  0.995100  0.262600  1.0
  N  N1674  1  0.931700  0.995100  0.237400  1.0
  N  N1675  1  0.431700  0.004900  0.737400  1.0
  N  N1676  1  0.068300  0.004900  0.762600  1.0
  N  N1677  1  0.594400  0.021700  0.100100  1.0
  N  N1678  1  0.905600  0.021700  0.399900  1.0
  N  N1679  1  0.405600  0.978300  0.899900  1.0
  N  N1680  1  0.094400  0.978300  0.600100  1.0
  N  N1681  1  0.589300  0.031500  0.022600  1.0
  N  N1682  1  0.910700  0.031500  0.477400  1.0
  N  N1683  1  0.410700  0.968500  0.977400  1.0
  N  N1684  1  0.089300  0.968500  0.522600  1.0
  N  N1685  1  0.720500  0.029000  0.066300  1.0
  N  N1686  1  0.779500  0.029000  0.433700  1.0
  N  N1687  1  0.279500  0.971000  0.933700  1.0
  N  N1688  1  0.220500  0.971000  0.566300  1.0
  N  N1689  1  0.688300  0.105200  0.031900  1.0
  N  N1690  1  0.811700  0.105200  0.468100  1.0
  N  N1691  1  0.311700  0.894800  0.968100  1.0
  N  N1692  1  0.188300  0.894800  0.531900  1.0
  N  N1693  1  0.655400  0.284200  0.984900  1.0
  N  N1694  1  0.844600  0.284200  0.515100  1.0
  N  N1695  1  0.344600  0.715800  0.015100  1.0
  N  N1696  1  0.155400  0.715800  0.484900  1.0
  N  N1697  1  0.618900  0.366500  0.960100  1.0
  N  N1698  1  0.881100  0.366500  0.539900  1.0
  N  N1699  1  0.381100  0.633500  0.039900  1.0
  N  N1700  1  0.118900  0.633500  0.460100  1.0
  N  N1701  1  0.749400  0.359600  0.999500  1.0
  N  N1702  1  0.750600  0.359600  0.500500  1.0
  N  N1703  1  0.250600  0.640400  0.000500  1.0
  N  N1704  1  0.249400  0.640400  0.499500  1.0
  N  N1705  1  0.673000  0.406200  0.041100  1.0
  N  N1706  1  0.827000  0.406200  0.458900  1.0
  N  N1707  1  0.327000  0.593800  0.958900  1.0
  N  N1708  1  0.173000  0.593800  0.541100  1.0
  N  N1709  1  0.566700  0.501900  0.160400  1.0
  N  N1710  1  0.933300  0.501900  0.339600  1.0
  N  N1711  1  0.433300  0.498100  0.839600  1.0
  N  N1712  1  0.066700  0.498100  0.660400  1.0
  N  N1713  1  0.501300  0.543400  0.209800  1.0
  N  N1714  1  0.998700  0.543400  0.290200  1.0
  N  N1715  1  0.498700  0.456600  0.790200  1.0
  N  N1716  1  0.001300  0.456600  0.709800  1.0
  N  N1717  1  0.632900  0.536200  0.243200  1.0
  N  N1718  1  0.867100  0.536200  0.256800  1.0
  N  N1719  1  0.367100  0.463800  0.756800  1.0
  N  N1720  1  0.132900  0.463800  0.743200  1.0
  N  N1721  1  0.558000  0.487700  0.283700  1.0
  N  N1722  1  0.942000  0.487700  0.216300  1.0
  N  N1723  1  0.442000  0.512300  0.716300  1.0
  N  N1724  1  0.058000  0.512300  0.783700  1.0
  N  N1725  1  0.464000  0.364200  0.386500  1.0
  N  N1726  1  0.036000  0.364200  0.113500  1.0
  N  N1727  1  0.536000  0.635800  0.613500  1.0
  N  N1728  1  0.964000  0.635800  0.886500  1.0
  N  N1729  1  0.403500  0.306900  0.429800  1.0
  N  N1730  1  0.096500  0.306900  0.070200  1.0
  N  N1731  1  0.596500  0.693100  0.570200  1.0
  N  N1732  1  0.903500  0.693100  0.929800  1.0
  N  N1733  1  0.676700  0.109100  0.122800  1.0
  N  N1734  1  0.823300  0.109100  0.377200  1.0
  N  N1735  1  0.323300  0.890900  0.877200  1.0
  N  N1736  1  0.176700  0.890900  0.622800  1.0
  N  N1737  1  0.564900  0.123900  0.078400  1.0
  N  N1738  1  0.935100  0.123900  0.421600  1.0
  N  N1739  1  0.435100  0.876100  0.921600  1.0
  N  N1740  1  0.064900  0.876100  0.578400  1.0
  N  N1741  1  0.916300  0.090200  0.205700  1.0
  N  N1742  1  0.583700  0.090200  0.294300  1.0
  N  N1743  1  0.083700  0.909800  0.794300  1.0
  N  N1744  1  0.416300  0.909800  0.705700  1.0
  N  N1745  1  0.033200  0.079400  0.244400  1.0
  N  N1746  1  0.466800  0.079400  0.255600  1.0
  N  N1747  1  0.966800  0.920600  0.755600  1.0
  N  N1748  1  0.533200  0.920600  0.744400  1.0
  N  N1749  1  0.559900  0.292100  0.362600  1.0
  N  N1750  1  0.940100  0.292100  0.137400  1.0
  N  N1751  1  0.440100  0.707900  0.637400  1.0
  N  N1752  1  0.059900  0.707900  0.862600  1.0
  N  N1753  1  0.438900  0.278300  0.337700  1.0
  N  N1754  1  0.061100  0.278300  0.162300  1.0
  N  N1755  1  0.561100  0.721700  0.662300  1.0
  N  N1756  1  0.938900  0.721700  0.837700  1.0
  N  N1757  1  0.619600  0.428900  0.227200  1.0
  N  N1758  1  0.880400  0.428900  0.272800  1.0
  N  N1759  1  0.380400  0.571100  0.772800  1.0
  N  N1760  1  0.119600  0.571100  0.727200  1.0
  N  N1761  1  0.493900  0.429300  0.206700  1.0
  N  N1762  1  0.006100  0.429300  0.293300  1.0
  N  N1763  1  0.506100  0.570700  0.793300  1.0
  N  N1764  1  0.993900  0.570700  0.706700  1.0
  N  N1765  1  0.811000  0.313800  0.425000  1.0
  N  N1766  1  0.689000  0.313800  0.075000  1.0
  N  N1767  1  0.189000  0.686200  0.575000  1.0
  N  N1768  1  0.311000  0.686200  0.925000  1.0
  N  N1769  1  0.930000  0.325100  0.457300  1.0
  N  N1770  1  0.570000  0.325100  0.042700  1.0
  N  N1771  1  0.070000  0.674900  0.542700  1.0
  N  N1772  1  0.430000  0.674900  0.957300  1.0
  Cl  Cl1773  1  0.798900  0.417200  0.148200  1
  Cl  Cl1774  1  0.701100  0.417200  0.351800  1
  Cl  Cl1775  1  0.201100  0.582800  0.851800  1
  Cl  Cl1776  1  0.298900  0.582800  0.648200  1
  Cl  Cl1777  1  0.821000  0.184160  0.085090  1
  Cl  Cl1778  1  0.679000  0.184160  0.414910  1
  Cl  Cl1779  1  0.179000  0.815840  0.914910  1
  Cl  Cl1780  1  0.321000  0.815840  0.585090  1
  Cl  Cl1781  1  0.750000  0.035400  0.250000  1
  Cl  Cl1782  1  0.250000  0.964600  0.750000  1
  Cl  Cl1783  1  0.483000  0.248160  0.180040  1
  Cl  Cl1784  1  0.017000  0.248160  0.319960  1
  Cl  Cl1785  1  0.517000  0.751840  0.819960  1
  Cl  Cl1786  1  0.983000  0.751840  0.680040  1
  Cl  Cl1787  1  0.243700  0.068400  0.055270  1
  Cl  Cl1788  1  0.256300  0.068400  0.444730  1
  Cl  Cl1789  1  0.756300  0.931600  0.944730  1
  Cl  Cl1790  1  0.743700  0.931600  0.555270  1
  Cl  Cl1791  1  0.857100  0.590300  0.046930  1
  Cl  Cl1792  1  0.642900  0.590300  0.453070  1
  Cl  Cl1793  1  0.142900  0.409700  0.953070  1
  Cl  Cl1794  1  0.357100  0.409700  0.546930  1
  Cl  Cl1795  1  0.199800  0.537800  0.111700  1
  Cl  Cl1796  1  0.300200  0.537800  0.388300  1
  Cl  Cl1797  1  0.800200  0.462200  0.888300  1
  Cl  Cl1798  1  0.699800  0.462200  0.611700  1
  Cl  Cl1799  1  0.083200  0.885100  0.076680  1
  Cl  Cl1800  1  0.416800  0.885100  0.423320  1
  Cl  Cl1801  1  0.916800  0.114900  0.923320  1
  Cl  Cl1802  1  0.583200  0.114900  0.576680  1
  Cl  Cl1803  1  0.750000  0.247270  0.250000  1
  Cl  Cl1804  1  0.250000  0.752730  0.750000  1
  O  O1805  1  0.793800  0.460700  0.160900  1
  O  O1806  1  0.706200  0.460700  0.339100  1
  O  O1807  1  0.206200  0.539300  0.839100  1
  O  O1808  1  0.293800  0.539300  0.660900  1
  O  O1809  1  0.848800  0.395500  0.173800  1
  O  O1810  1  0.651200  0.395500  0.326200  1
  O  O1811  1  0.151200  0.604500  0.826200  1
  O  O1812  1  0.348800  0.604500  0.673800  1
  O  O1813  1  0.809700  0.413000  0.109500  1
  O  O1814  1  0.690300  0.413000  0.390500  1
  O  O1815  1  0.190300  0.587000  0.890500  1
  O  O1816  1  0.309700  0.587000  0.609500  1
  O  O1817  1  0.736200  0.398200  0.148900  1
  O  O1818  1  0.763800  0.398200  0.351100  1
  O  O1819  1  0.263800  0.601800  0.851100  1
  O  O1820  1  0.236200  0.601800  0.648900  1
  O  O1821  1  0.859900  0.191300  0.120800  1
  O  O1822  1  0.640100  0.191300  0.379200  1
  O  O1823  1  0.140100  0.808700  0.879200  1
  O  O1824  1  0.359900  0.808700  0.620800  1
  O  O1825  1  0.839500  0.213600  0.057000  1
  O  O1826  1  0.660500  0.213600  0.443000  1
  O  O1827  1  0.160500  0.786400  0.943000  1
  O  O1828  1  0.339500  0.786400  0.557000  1
  O  O1829  1  0.754500  0.193800  0.089500  1
  O  O1830  1  0.745500  0.193800  0.410500  1
  O  O1831  1  0.245500  0.806200  0.910500  1
  O  O1832  1  0.254500  0.806200  0.589500  1
  O  O1833  1  0.825600  0.139700  0.073000  1
  O  O1834  1  0.674400  0.139700  0.427000  1
  O  O1835  1  0.174400  0.860300  0.927000  1
  O  O1836  1  0.325600  0.860300  0.573000  1
  O  O1837  1  0.558000  0.246100  0.198200  1
  O  O1838  1  0.942000  0.246100  0.301800  1
  O  O1839  1  0.442000  0.753900  0.801800  1
  O  O1840  1  0.058000  0.753900  0.698200  1
  O  O1841  1  0.464900  0.208100  0.188800  1
  O  O1842  1  0.035100  0.208100  0.311200  1
  O  O1843  1  0.535100  0.791900  0.811200  1
  O  O1844  1  0.964900  0.791900  0.688800  1
  O  O1845  1  0.487100  0.259000  0.142600  1
  O  O1846  1  0.012900  0.259000  0.357400  1
  O  O1847  1  0.512900  0.741000  0.857400  1
  O  O1848  1  0.987100  0.741000  0.642600  1
  O  O1849  1  0.467000  0.283000  0.204000  1
  O  O1850  1  0.033000  0.283000  0.296000  1
  O  O1851  1  0.533000  0.717000  0.796000  1
  O  O1852  1  0.967000  0.717000  0.704000  1
  O  O1853  1  0.242900  0.021500  0.034300  1
  O  O1854  1  0.257100  0.021500  0.465700  1
  O  O1855  1  0.757100  0.978500  0.965700  1
  O  O1856  1  0.742900  0.978500  0.534300  1
  O  O1857  1  0.265400  0.055700  0.098200  1
  O  O1858  1  0.234600  0.055700  0.401800  1
  O  O1859  1  0.734600  0.944300  0.901800  1
  O  O1860  1  0.765400  0.944300  0.598200  1
  O  O1861  1  0.286100  0.105400  0.038900  1
  O  O1862  1  0.213900  0.105400  0.461100  1
  O  O1863  1  0.713900  0.894600  0.961100  1
  O  O1864  1  0.786100  0.894600  0.538900  1
  O  O1865  1  0.186300  0.088300  0.038900  1
  O  O1866  1  0.313700  0.088300  0.461100  1
  O  O1867  1  0.813700  0.911700  0.961100  1
  O  O1868  1  0.686300  0.911700  0.538900  1
  O  O1869  1  0.817900  0.562000  0.064700  1
  O  O1870  1  0.682100  0.562000  0.435300  1
  O  O1871  1  0.182100  0.438000  0.935300  1
  O  O1872  1  0.317900  0.438000  0.564700  1
  O  O1873  1  0.916900  0.582100  0.069800  1
  O  O1874  1  0.583100  0.582100  0.430200  1
  O  O1875  1  0.083100  0.417900  0.930200  1
  O  O1876  1  0.416900  0.417900  0.569800  1
  O  O1877  1  0.856900  0.585700  0.005500  1
  O  O1878  1  0.643100  0.585700  0.494500  1
  O  O1879  1  0.143100  0.414300  0.994500  1
  O  O1880  1  0.356900  0.414300  0.505500  1
  O  O1881  1  0.845700  0.635600  0.056500  1
  O  O1882  1  0.654300  0.635600  0.443500  1
  O  O1883  1  0.154300  0.364400  0.943500  1
  O  O1884  1  0.345700  0.364400  0.556500  1
  O  O1885  1  0.133300  0.553500  0.108300  1
  O  O1886  1  0.366700  0.553500  0.391700  1
  O  O1887  1  0.866700  0.446500  0.891700  1
  O  O1888  1  0.633300  0.446500  0.608300  1
  O  O1889  1  0.215500  0.539100  0.067400  1
  O  O1890  1  0.284500  0.539100  0.432600  1
  O  O1891  1  0.784500  0.460900  0.932600  1
  O  O1892  1  0.715500  0.460900  0.567400  1
  O  O1893  1  0.201600  0.487400  0.123400  1
  O  O1894  1  0.298400  0.487400  0.376600  1
  O  O1895  1  0.798400  0.512600  0.876600  1
  O  O1896  1  0.701600  0.512600  0.623400  1
  O  O1897  1  0.257300  0.560600  0.138700  1
  O  O1898  1  0.242700  0.560600  0.361300  1
  O  O1899  1  0.742700  0.439400  0.861300  1
  O  O1900  1  0.757300  0.439400  0.638700  1
  O  O1901  1  0.073800  0.929600  0.090300  1
  O  O1902  1  0.426200  0.929600  0.409700  1
  O  O1903  1  0.926200  0.070400  0.909700  1
  O  O1904  1  0.573800  0.070400  0.590300  1
  O  O1905  1  0.144600  0.865700  0.092000  1
  O  O1906  1  0.355400  0.865700  0.408000  1
  O  O1907  1  0.855400  0.134300  0.908000  1
  O  O1908  1  0.644600  0.134300  0.592000  1
  O  O1909  1  0.089900  0.891600  0.035200  1
  O  O1910  1  0.410100  0.891600  0.464800  1
  O  O1911  1  0.910100  0.108400  0.964800  1
  O  O1912  1  0.589900  0.108400  0.535200  1
  O  O1913  1  0.025100  0.861700  0.079400  1
  O  O1914  1  0.474900  0.861700  0.420600  1
  O  O1915  1  0.974900  0.138300  0.920600  1
  O  O1916  1  0.525100  0.138300  0.579400  1
  O  O1917  1  0.490800  0.230100  0.144800  1
  O  O1918  1  0.009200  0.230100  0.355200  1
  O  O1919  1  0.509200  0.769900  0.855200  1
  O  O1920  1  0.990800  0.769900  0.644800  1
  O  O1921  1  0.471000  0.290500  0.177000  1
  O  O1922  1  0.029000  0.290500  0.323000  1
  O  O1923  1  0.529000  0.709500  0.823000  1
  O  O1924  1  0.971000  0.709500  0.677000  1
  O  O1925  1  0.469700  0.225500  0.212300  1
  O  O1926  1  0.030300  0.225500  0.287700  1
  O  O1927  1  0.530300  0.774500  0.787700  1
  O  O1928  1  0.969700  0.774500  0.712300  1
  O  O1929  1  0.232400  0.104900  0.086000  1
  O  O1930  1  0.267600  0.104900  0.414000  1
  O  O1931  1  0.767600  0.895100  0.914000  1
  O  O1932  1  0.732400  0.895100  0.586000  1
  O  O1933  1  0.307800  0.080400  0.042400  1
  O  O1934  1  0.192200  0.080400  0.457600  1
  O  O1935  1  0.692200  0.919600  0.957600  1
  O  O1936  1  0.807800  0.919600  0.542400  1
  O  O1937  1  0.229000  0.017700  0.057900  1
  O  O1938  1  0.271000  0.017700  0.442100  1
  O  O1939  1  0.771000  0.982300  0.942100  1
  O  O1940  1  0.729000  0.982300  0.557900  1
  O  O1941  1  0.182000  0.076600  0.025900  1
  O  O1942  1  0.318000  0.076600  0.474100  1
  O  O1943  1  0.818000  0.923400  0.974100  1
  O  O1944  1  0.682000  0.923400  0.525900  1
  O  O1945  1  0.793300  0.582000  0.051200  1
  O  O1946  1  0.706700  0.582000  0.448800  1
  O  O1947  1  0.206700  0.418000  0.948800  1
  O  O1948  1  0.293300  0.418000  0.551200  1
  O  O1949  1  0.888000  0.548800  0.054500  1
  O  O1950  1  0.612000  0.548800  0.445500  1
  O  O1951  1  0.112000  0.451200  0.945500  1
  O  O1952  1  0.388000  0.451200  0.554500  1
  O  O1953  1  0.875500  0.611400  0.014000  1
  O  O1954  1  0.624500  0.611400  0.486000  1
  O  O1955  1  0.124500  0.388600  0.986000  1
  O  O1956  1  0.375500  0.388600  0.514000  1
  O  O1957  1  0.885300  0.622800  0.074200  1
  O  O1958  1  0.614700  0.622800  0.425800  1
  O  O1959  1  0.114700  0.377200  0.925800  1
  O  O1960  1  0.385300  0.377200  0.574200  1
  O  O1961  1  0.220000  0.491700  0.094200  1
  O  O1962  1  0.280000  0.491700  0.405800  1
  O  O1963  1  0.780000  0.508300  0.905800  1
  O  O1964  1  0.720000  0.508300  0.594200  1
  O  O1965  1  0.185000  0.518300  0.153000  1
  O  O1966  1  0.315000  0.518300  0.347000  1
  O  O1967  1  0.815000  0.481700  0.847000  1
  O  O1968  1  0.685000  0.481700  0.653000  1
  O  O1969  1  0.236000  0.580600  0.130600  1
  O  O1970  1  0.264000  0.580600  0.369400  1
  O  O1971  1  0.764000  0.419400  0.869400  1
  O  O1972  1  0.736000  0.419400  0.630600  1
  O  O1973  1  0.075300  0.858800  0.111700  1
  O  O1974  1  0.424700  0.858800  0.388300  1
  O  O1975  1  0.924700  0.141200  0.888300  1
  O  O1976  1  0.575300  0.141200  0.611700  1
  O  O1977  1  0.118100  0.926300  0.087100  1
  O  O1978  1  0.381900  0.926300  0.412900  1
  O  O1979  1  0.881900  0.073700  0.912900  1
  O  O1980  1  0.618100  0.073700  0.587100  1
  O  O1981  1  0.123500  0.859000  0.055600  1
  O  O1982  1  0.376500  0.859000  0.444400  1
  O  O1983  1  0.876500  0.141000  0.944400  1
  O  O1984  1  0.623500  0.141000  0.555600  1
  O  O1985  1  0.020400  0.883800  0.053700  1
  O  O1986  1  0.479600  0.883800  0.446300  1
  O  O1987  1  0.979600  0.116200  0.946300  1
  O  O1988  1  0.520400  0.116200  0.553700  1
  O  O1989  1  0.698400  0.062700  0.233200  1.0
  O  O1990  1  0.801600  0.062700  0.266800  1.0
  O  O1991  1  0.301600  0.937300  0.766800  1.0
  O  O1992  1  0.198400  0.937300  0.733200  1.0
  O  O1993  1  0.769100  0.010800  0.220900  1.0
  O  O1994  1  0.730900  0.010800  0.279100  1.0
  O  O1995  1  0.230900  0.989200  0.779100  1.0
  O  O1996  1  0.269100  0.989200  0.720900  1.0
