
#######################################################################
#
#                 Cambridge Crystallographic Data Centre
#                                CCDC 
#
#######################################################################
#
# If this CIF has been generated from an entry in the Cambridge 
# Structural Database, then it will include bibliographic, chemical, 
# crystal, experimental, refinement or atomic coordinate data resulting 
# from the CCDC's data processing and validation procedures.
#
#######################################################################

data_NUJBIF
_chemical_formula_moiety         'C156 H132 Co4 N24 8+,Br4 Co1 2-,6(B1 F4 1-)'
_chemical_name_systematic        
"hexakis( -3,3'-bipyridine-6,6'-diylbis(N-(4-methylphenyl)methanimine))-tetra-cobalt tetrabromo-cobalt hexakis(tetrafluoroborate) unknown solvate"
_symmetry_cell_setting           cubic
_symmetry_space_group_name_H-M   'F 41 3 2'
_symmetry_Int_Tables_number      210
_space_group_name_Hall           'F 4d 2 3'
loop_
_symmetry_equiv_pos_site_id
_symmetry_equiv_pos_as_xyz
1 x,y,z
2 -x,1/2-y,1/2+z
3 1/2-x,1/2+y,-z
4 1/2+x,-y,1/2-z
5 z,x,y
6 1/2+z,-x,1/2-y
7 -z,1/2-x,1/2+y
8 1/2-z,1/2+x,-y
9 y,z,x
10 1/2-y,1/2+z,-x
11 1/2+y,-z,1/2-x
12 -y,1/2-z,1/2+x
13 3/4+y,1/4+x,3/4-z
14 1/4-y,1/4-x,1/4-z
15 1/4+y,3/4-x,3/4+z
16 3/4-y,3/4+x,1/4+z
17 3/4+x,1/4+z,3/4-y
18 3/4-x,3/4+z,1/4+y
19 1/4-x,1/4-z,1/4-y
20 1/4+x,3/4-z,3/4+y
21 3/4+z,1/4+y,3/4-x
22 1/4+z,3/4-y,3/4+x
23 3/4-z,3/4+y,1/4+x
24 1/4-z,1/4-y,1/4-x
25 x,1/2+y,1/2+z
26 -x,-y,z
27 1/2-x,y,1/2-z
28 1/2+x,1/2-y,-z
29 z,1/2+x,1/2+y
30 1/2+z,1/2-x,-y
31 -z,-x,y
32 1/2-z,x,1/2-y
33 y,1/2+z,1/2+x
34 1/2-y,z,1/2-x
35 1/2+y,1/2-z,-x
36 -y,-z,x
37 3/4+y,3/4+x,1/4-z
38 1/4-y,3/4-x,3/4-z
39 1/4+y,1/4-x,1/4+z
40 3/4-y,1/4+x,3/4+z
41 3/4+x,3/4+z,1/4-y
42 3/4-x,1/4+z,3/4+y
43 1/4-x,3/4-z,3/4-y
44 1/4+x,1/4-z,1/4+y
45 3/4+z,3/4+y,1/4-x
46 1/4+z,1/4-y,1/4+x
47 3/4-z,1/4+y,3/4+x
48 1/4-z,3/4-y,3/4-x
49 1/2+x,y,1/2+z
50 1/2-x,1/2-y,z
51 -x,1/2+y,1/2-z
52 x,-y,-z
53 1/2+z,x,1/2+y
54 z,-x,-y
55 1/2-z,1/2-x,y
56 -z,1/2+x,1/2-y
57 1/2+y,z,1/2+x
58 -y,1/2+z,1/2-x
59 y,-z,-x
60 1/2-y,1/2-z,x
61 1/4+y,1/4+x,1/4-z
62 3/4-y,1/4-x,3/4-z
63 3/4+y,3/4-x,1/4+z
64 1/4-y,3/4+x,3/4+z
65 1/4+x,1/4+z,1/4-y
66 1/4-x,3/4+z,3/4+y
67 3/4-x,1/4-z,3/4-y
68 3/4+x,3/4-z,1/4+y
69 1/4+z,1/4+y,1/4-x
70 3/4+z,3/4-y,1/4+x
71 1/4-z,3/4+y,3/4+x
72 3/4-z,1/4-y,3/4-x
73 1/2+x,1/2+y,z
74 1/2-x,-y,1/2+z
75 -x,y,-z
76 x,1/2-y,1/2-z
77 1/2+z,1/2+x,y
78 z,1/2-x,1/2-y
79 1/2-z,-x,1/2+y
80 -z,x,-y
81 1/2+y,1/2+z,x
82 -y,z,-x
83 y,1/2-z,1/2-x
84 1/2-y,-z,1/2+x
85 1/4+y,3/4+x,3/4-z
86 3/4-y,3/4-x,1/4-z
87 3/4+y,1/4-x,3/4+z
88 1/4-y,1/4+x,1/4+z
89 1/4+x,3/4+z,3/4-y
90 1/4-x,1/4+z,1/4+y
91 3/4-x,3/4-z,1/4-y
92 3/4+x,1/4-z,3/4+y
93 1/4+z,3/4+y,3/4-x
94 3/4+z,1/4-y,3/4+x
95 1/4-z,1/4+y,1/4+x
96 3/4-z,3/4-y,1/4-x
_cell_length_a                   34.5284(4)
_cell_length_b                   34.5284(4)
_cell_length_c                   34.5284(4)
_cell_angle_alpha                90
_cell_angle_beta                 90
_cell_angle_gamma                90
_cell_volume                     41165.1
_exptl_crystal_colour            orange
_exptl_crystal_description       cube
_cell_formula_units_Z            8
_exptl_crystal_recrystallization_method 
'Re-crystallisation from solvent: acetonitrile. diethyl ether'
loop_
_atom_site_label
_atom_site_type_symbol
_atom_site_fract_x
_atom_site_fract_y
_atom_site_fract_z
Br1 Br 0.209474(17) 0.290526(17) 0.290526(17)
Co2 Co 0.2500 0.2500 0.2500
Br1D Br 0.290526(17) 0.209474(17) 0.290526(17)
Br1H Br 0.290526(17) 0.290526(17) 0.209474(17)
Br1EA Br 0.209474(17) 0.209474(17) 0.209474(17)
Co1 Co 0.34997(3) 0.34997(3) 0.34997(3)
N1 N 0.3233(3) 0.3946(2) 0.3792(2)
N2 N 0.29835(14) 0.32318(16) 0.37125(15)
C1 C 0.28927(14) 0.28403(15) 0.36893(14)
H1 H 0.3071 0.2664 0.3576
C2 C 0.25408(16) 0.27065(13) 0.38320(15)
C3 C 0.22798(13) 0.2964(2) 0.39978(15)
H2 H 0.2039 0.2873 0.4095
C4 C 0.23705(18) 0.33556(18) 0.40211(16)
H3 H 0.2192 0.3532 0.4134
C5 C 0.2722(2) 0.34895(12) 0.38784(17)
C6 C 0.2863(4) 0.3879(3) 0.3920(4)
H4 H 0.2708 0.4079 0.4031
C7 C 0.3340(3) 0.4307(3) 0.3905(4)
C8 C 0.3453(4) 0.4561(4) 0.3611(3)
H5 H 0.3465 0.4473 0.3351
C9 C 0.3550(4) 0.4944(4) 0.3699(3)
H6 H 0.3627 0.5114 0.3497
C10 C 0.3535(3) 0.5081(3) 0.4081(4)
C11 C 0.3422(4) 0.4822(4) 0.4373(3)
H7 H 0.3411 0.4909 0.4634
C12 C 0.3325(4) 0.4439(4) 0.4287(4)
H8 H 0.3248 0.4268 0.4489
C13 C 0.3631(5) 0.5497(3) 0.4174(6)
H9 H 0.3605 0.5539 0.4454
H10 H 0.3452 0.5668 0.4035
H11 H 0.3897 0.5553 0.4094
N1WA N 0.1767(3) 0.1054(2) 0.3792(2)
N2WA N 0.20165(14) 0.17682(16) 0.37125(15)
C1WA C 0.21073(14) 0.21597(15) 0.36893(14)
H1WA H 0.1929 0.2336 0.3576
C2WA C 0.24592(16) 0.22935(13) 0.38320(15)
C3WA C 0.27202(13) 0.2036(2) 0.39978(15)
H2WA H 0.2961 0.2127 0.4095
C4WA C 0.26295(18) 0.16444(18) 0.40211(16)
H3WA H 0.2808 0.1468 0.4134
C5WA C 0.2278(2) 0.15105(12) 0.38784(17)
C6WA C 0.2137(4) 0.1121(3) 0.3920(4)
H4WA H 0.2292 0.0921 0.4031
C7WA C 0.1660(3) 0.0693(3) 0.3905(4)
C8WA C 0.1547(4) 0.0439(4) 0.3611(3)
H5WA H 0.1535 0.0527 0.3351
C9WA C 0.1450(4) 0.0056(4) 0.3699(3)
H6WA H 0.1373 -0.0114 0.3497
C10WA C 0.1465(3) -0.0081(3) 0.4081(4)
C11WA C 0.1578(4) 0.0178(4) 0.4373(3)
H7WA H 0.1589 0.0091 0.4634
C12WA C 0.1675(4) 0.0561(4) 0.4287(4)
H8WA H 0.1752 0.0732 0.4489
C13WA C 0.1369(5) -0.0497(3) 0.4174(6)
H9WA H 0.1395 -0.0539 0.4454
H10WA H 0.1548 -0.0668 0.4035
H11WA H 0.1103 -0.0553 0.4094
N1D N 0.3792(2) 0.3233(3) 0.3946(2)
N2D N 0.37125(15) 0.29835(14) 0.32318(16)
C1D C 0.36893(14) 0.28927(14) 0.28403(15)
H1D H 0.3576 0.3071 0.2664
C2D C 0.38320(15) 0.25408(16) 0.27065(13)
C3D C 0.39978(15) 0.22798(13) 0.2964(2)
H2D H 0.4095 0.2039 0.2873
C4D C 0.40211(16) 0.23705(18) 0.33556(18)
H3D H 0.4134 0.2192 0.3532
C5D C 0.38784(17) 0.2722(2) 0.34895(12)
C6D C 0.3920(4) 0.2863(4) 0.3879(3)
H4D H 0.4031 0.2708 0.4079
C7D C 0.3905(4) 0.3340(3) 0.4307(3)
C8D C 0.3611(3) 0.3453(4) 0.4561(4)
H5D H 0.3351 0.3465 0.4473
C9D C 0.3699(3) 0.3550(4) 0.4944(4)
H6D H 0.3497 0.3627 0.5114
C10D C 0.4081(4) 0.3535(3) 0.5081(3)
C11D C 0.4373(3) 0.3422(4) 0.4822(4)
H7D H 0.4634 0.3411 0.4909
C12D C 0.4287(4) 0.3325(4) 0.4439(4)
H8D H 0.4489 0.3248 0.4268
C13D C 0.4174(6) 0.3631(5) 0.5497(3)
H9D H 0.4454 0.3605 0.5539
H10D H 0.4035 0.3452 0.5668
H11D H 0.4094 0.3897 0.5553
N1YB N 0.3792(2) 0.1767(3) 0.1054(2)
N2YB N 0.37125(15) 0.20165(14) 0.17682(16)
C1YB C 0.36893(14) 0.21073(14) 0.21597(15)
H1YB H 0.3576 0.1929 0.2336
C2YB C 0.38320(15) 0.24592(16) 0.22935(13)
C3YB C 0.39978(15) 0.27202(13) 0.2036(2)
H2YB H 0.4095 0.2961 0.2127
C4YB C 0.40211(16) 0.26295(18) 0.16444(18)
H3YB H 0.4134 0.2808 0.1468
C5YB C 0.38784(17) 0.2278(2) 0.15105(12)
C6YB C 0.3920(4) 0.2137(4) 0.1121(3)
H4YB H 0.4031 0.2292 0.0921
C7YB C 0.3905(4) 0.1660(3) 0.0693(3)
C8YB C 0.3611(3) 0.1547(4) 0.0439(4)
H5YB H 0.3351 0.1535 0.0527
C9YB C 0.3699(3) 0.1450(4) 0.0056(4)
H6YB H 0.3497 0.1373 -0.0114
C10YB C 0.4081(4) 0.1465(3) -0.0081(3)
C11YB C 0.4373(3) 0.1578(4) 0.0178(4)
H7YB H 0.4634 0.1589 0.0091
C12YB C 0.4287(4) 0.1675(4) 0.0561(4)
H8YB H 0.4489 0.1752 0.0732
C13YB C 0.4174(6) 0.1369(5) -0.0497(3)
H9YB H 0.4454 0.1395 -0.0539
H10YB H 0.4035 0.1548 -0.0668
H11YB H 0.4094 0.1103 -0.0553
N1H N 0.3946(2) 0.3792(2) 0.3233(3)
N2H N 0.32318(16) 0.37125(15) 0.29835(14)
C1H C 0.28403(15) 0.36893(14) 0.28927(14)
H1H H 0.2664 0.3576 0.3071
C2H C 0.27065(13) 0.38320(15) 0.25408(16)
C3H C 0.2964(2) 0.39978(15) 0.22798(13)
H2H H 0.2873 0.4095 0.2039
C4H C 0.33556(18) 0.40211(16) 0.23705(18)
H3H H 0.3532 0.4134 0.2192
C5H C 0.34895(12) 0.38784(17) 0.2722(2)
C6H C 0.3879(3) 0.3920(4) 0.2863(4)
H4H H 0.4079 0.4031 0.2708
C7H C 0.4307(3) 0.3905(4) 0.3340(3)
C8H C 0.4561(4) 0.3611(3) 0.3453(4)
H5H H 0.4473 0.3351 0.3465
C9H C 0.4944(4) 0.3699(3) 0.3550(4)
H6H H 0.5114 0.3497 0.3627
C10H C 0.5081(3) 0.4081(4) 0.3535(3)
C11H C 0.4822(4) 0.4373(3) 0.3422(4)
H7H H 0.4909 0.4634 0.3411
C12H C 0.4439(4) 0.4287(4) 0.3325(4)
H8H H 0.4268 0.4489 0.3248
C13H C 0.5497(3) 0.4174(6) 0.3631(5)
H9H H 0.5539 0.4454 0.3605
H10H H 0.5668 0.4035 0.3452
H11H H 0.5553 0.4094 0.3897
N1GA N 0.1054(2) 0.3792(2) 0.1767(3)
N2GA N 0.17682(16) 0.37125(15) 0.20165(14)
C1GA C 0.21597(15) 0.36893(14) 0.21073(14)
H1GA H 0.2336 0.3576 0.1929
C2GA C 0.22935(13) 0.38320(15) 0.24592(16)
C3GA C 0.2036(2) 0.39978(15) 0.27202(13)
H2GA H 0.2127 0.4095 0.2961
C4GA C 0.16444(18) 0.40211(16) 0.26295(18)
H3GA H 0.1468 0.4134 0.2808
C5GA C 0.15105(12) 0.38784(17) 0.2278(2)
C6GA C 0.1121(3) 0.3920(4) 0.2137(4)
H4GA H 0.0921 0.4031 0.2292
C7GA C 0.0693(3) 0.3905(4) 0.1660(3)
C8GA C 0.0439(4) 0.3611(3) 0.1547(4)
H5GA H 0.0527 0.3351 0.1535
C9GA C 0.0056(4) 0.3699(3) 0.1450(4)
H6GA H -0.0114 0.3497 0.1373
C10GA C -0.0081(3) 0.4081(4) 0.1465(3)
C11GA C 0.0178(4) 0.4373(3) 0.1578(4)
H7GA H 0.0091 0.4634 0.1589
C12GA C 0.0561(4) 0.4287(4) 0.1675(4)
H8GA H 0.0732 0.4489 0.1752
C13GA C -0.0497(3) 0.4174(6) 0.1369(5)
H9GA H -0.0539 0.4454 0.1395
H10GA H -0.0668 0.4035 0.1548
H11GA H -0.0553 0.4094 0.1103
Co1Z Co 0.15003(3) 0.34997(3) 0.15003(3)
N1EA N 0.1208(2) 0.3233(3) 0.1054(2)
N2EA N 0.12875(15) 0.29835(14) 0.17682(16)
C1EA C 0.13107(14) 0.28927(14) 0.21597(15)
H1EA H 0.1424 0.3071 0.2336
C2EA C 0.11680(15) 0.25408(16) 0.22935(13)
C3EA C 0.10022(15) 0.22798(13) 0.2036(2)
H2EA H 0.0905 0.2039 0.2127
C4EA C 0.09789(16) 0.23705(18) 0.16444(18)
H3EA H 0.0866 0.2192 0.1468
C5EA C 0.11216(17) 0.2722(2) 0.15105(12)
C6EA C 0.1080(4) 0.2863(4) 0.1121(3)
H4EA H 0.0969 0.2708 0.0921
C7EA C 0.1095(4) 0.3340(3) 0.0693(3)
C8EA C 0.1389(3) 0.3453(4) 0.0439(4)
H5EA H 0.1649 0.3465 0.0527
C9EA C 0.1301(3) 0.3550(4) 0.0056(4)
H6EA H 0.1503 0.3627 -0.0114
C10EA C 0.0919(4) 0.3535(3) -0.0081(3)
C11EA C 0.0627(3) 0.3422(4) 0.0178(4)
H7EA H 0.0366 0.3411 0.0091
C12EA C 0.0713(4) 0.3325(4) 0.0561(4)
H8EA H 0.0511 0.3248 0.0732
C13EA C 0.0826(6) 0.3631(5) -0.0497(3)
H9EA H 0.0546 0.3605 -0.0539
H10EA H 0.0965 0.3452 -0.0668
H11EA H 0.0906 0.3897 -0.0553
N1BB N 0.1208(2) 0.1767(3) 0.3946(2)
N2BB N 0.12875(15) 0.20165(14) 0.32318(16)
C1BB C 0.13107(14) 0.21073(14) 0.28403(15)
H1BB H 0.1424 0.1929 0.2664
C2BB C 0.11680(15) 0.24592(16) 0.27065(13)
C3BB C 0.10022(15) 0.27202(13) 0.2964(2)
H2BB H 0.0905 0.2961 0.2873
C4BB C 0.09789(16) 0.26295(18) 0.33556(18)
H3BB H 0.0866 0.2808 0.3532
C5BB C 0.11216(17) 0.2278(2) 0.34895(12)
C6BB C 0.1080(4) 0.2137(4) 0.3879(3)
H4BB H 0.0969 0.2292 0.4079
C7BB C 0.1095(4) 0.1660(3) 0.4307(3)
C8BB C 0.1389(3) 0.1547(4) 0.4561(4)
H5BB H 0.1649 0.1535 0.4473
C9BB C 0.1301(3) 0.1450(4) 0.4944(4)
H6BB H 0.1503 0.1373 0.5114
C10BB C 0.0919(4) 0.1465(3) 0.5081(3)
C11BB C 0.0627(3) 0.1578(4) 0.4822(4)
H7BB H 0.0366 0.1589 0.4909
C12BB C 0.0713(4) 0.1675(4) 0.4439(4)
H8BB H 0.0511 0.1752 0.4268
C13BB C 0.0826(6) 0.1369(5) 0.5497(3)
H9BB H 0.0546 0.1395 0.5539
H10BB H 0.0965 0.1548 0.5668
H11BB H 0.0906 0.1103 0.5553
Co1WA Co 0.15003(3) 0.15003(3) 0.34997(3)
N1GB N 0.1054(2) 0.1208(2) 0.3233(3)
N2GB N 0.17682(16) 0.12875(15) 0.29835(14)
C1GB C 0.21597(15) 0.13107(14) 0.28927(14)
H1GB H 0.2336 0.1424 0.3071
C2GB C 0.22935(13) 0.11680(15) 0.25408(16)
C3GB C 0.2036(2) 0.10022(15) 0.22798(13)
H2GB H 0.2127 0.0905 0.2039
C4GB C 0.16444(18) 0.09789(16) 0.23705(18)
H3GB H 0.1468 0.0866 0.2192
C5GB C 0.15105(12) 0.11216(17) 0.2722(2)
C6GB C 0.1121(3) 0.1080(4) 0.2863(4)
H4GB H 0.0921 0.0969 0.2708
C7GB C 0.0693(3) 0.1095(4) 0.3340(3)
C8GB C 0.0439(4) 0.1389(3) 0.3453(4)
H5GB H 0.0527 0.1649 0.3465
C9GB C 0.0056(4) 0.1301(3) 0.3550(4)
H6GB H -0.0114 0.1503 0.3627
C10GB C -0.0081(3) 0.0919(4) 0.3535(3)
C11GB C 0.0178(4) 0.0627(3) 0.3422(4)
H7GB H 0.0091 0.0366 0.3411
C12GB C 0.0561(4) 0.0713(4) 0.3325(4)
H8GB H 0.0732 0.0511 0.3248
C13GB C -0.0497(3) 0.0826(6) 0.3631(5)
H9GB H -0.0539 0.0546 0.3605
H10GB H -0.0668 0.0965 0.3452
H11GB H -0.0553 0.0906 0.3897
N1DC N 0.3946(2) 0.1208(2) 0.1767(3)
N2DC N 0.32318(16) 0.12875(15) 0.20165(14)
C1DC C 0.28403(15) 0.13107(14) 0.21073(14)
H1DC H 0.2664 0.1424 0.1929
C2DC C 0.27065(13) 0.11680(15) 0.24592(16)
C3DC C 0.2964(2) 0.10022(15) 0.27202(13)
H2DC H 0.2873 0.0905 0.2961
C4DC C 0.33556(18) 0.09789(16) 0.26295(18)
H3DC H 0.3532 0.0866 0.2808
C5DC C 0.34895(12) 0.11216(17) 0.2278(2)
C6DC C 0.3879(3) 0.1080(4) 0.2137(4)
H4DC H 0.4079 0.0969 0.2292
C7DC C 0.4307(3) 0.1095(4) 0.1660(3)
C8DC C 0.4561(4) 0.1389(3) 0.1547(4)
H5DC H 0.4473 0.1649 0.1535
C9DC C 0.4944(4) 0.1301(3) 0.1450(4)
H6DC H 0.5114 0.1503 0.1373
C10DC C 0.5081(3) 0.0919(4) 0.1465(3)
C11DC C 0.4822(4) 0.0627(3) 0.1578(4)
H7DC H 0.4909 0.0366 0.1589
C12DC C 0.4439(4) 0.0713(4) 0.1675(4)
H8DC H 0.4268 0.0511 0.1752
C13DC C 0.5497(3) 0.0826(6) 0.1369(5)
H9DC H 0.5539 0.0546 0.1395
H10DC H 0.5668 0.0965 0.1548
H11DC H 0.5553 0.0906 0.1103
Co1WB Co 0.34997(3) 0.15003(3) 0.15003(3)
N1Z N 0.1767(3) 0.3946(2) 0.1208(2)
N2Z N 0.20165(14) 0.32318(16) 0.12875(15)
C1Z C 0.21073(14) 0.28403(15) 0.13107(14)
H1Z H 0.1929 0.2664 0.1424
C2Z C 0.24592(16) 0.27065(13) 0.11680(15)
C3Z C 0.27202(13) 0.2964(2) 0.10022(15)
H2Z H 0.2961 0.2873 0.0905
C4Z C 0.26295(18) 0.33556(18) 0.09789(16)
H3Z H 0.2808 0.3532 0.0866
C5Z C 0.2278(2) 0.34895(12) 0.11216(17)
C6Z C 0.2137(4) 0.3879(3) 0.1080(4)
H4Z H 0.2292 0.4079 0.0969
C7Z C 0.1660(3) 0.4307(3) 0.1095(4)
C8Z C 0.1547(4) 0.4561(4) 0.1389(3)
H5Z H 0.1535 0.4473 0.1649
C9Z C 0.1450(4) 0.4944(4) 0.1301(3)
H6Z H 0.1373 0.5114 0.1503
C10Z C 0.1465(3) 0.5081(3) 0.0919(4)
C11Z C 0.1578(4) 0.4822(4) 0.0627(3)
H7Z H 0.1589 0.4909 0.0366
C12Z C 0.1675(4) 0.4439(4) 0.0713(4)
H8Z H 0.1752 0.4268 0.0511
C13Z C 0.1369(5) 0.5497(3) 0.0826(6)
H9Z H 0.1395 0.5539 0.0546
H10Z H 0.1548 0.5668 0.0965
H11Z H 0.1103 0.5553 0.0906
N1WB N 0.3233(3) 0.1054(2) 0.1208(2)
N2WB N 0.29835(14) 0.17682(16) 0.12875(15)
C1WB C 0.28927(14) 0.21597(15) 0.13107(14)
H1WB H 0.3071 0.2336 0.1424
C2WB C 0.25408(16) 0.22935(13) 0.11680(15)
C3WB C 0.22798(13) 0.2036(2) 0.10022(15)
H2WB H 0.2039 0.2127 0.0905
C4WB C 0.23705(18) 0.16444(18) 0.09789(16)
H3WB H 0.2192 0.1468 0.0866
C5WB C 0.2722(2) 0.15105(12) 0.11216(17)
C6WB C 0.2863(4) 0.1121(3) 0.1080(4)
H4WB H 0.2708 0.0921 0.0969
C7WB C 0.3340(3) 0.0693(3) 0.1095(4)
C8WB C 0.3453(4) 0.0439(4) 0.1389(3)
H5WB H 0.3465 0.0527 0.1649
C9WB C 0.3550(4) 0.0056(4) 0.1301(3)
H6WB H 0.3627 -0.0114 0.1503
C10WB C 0.3535(3) -0.0081(3) 0.0919(4)
C11WB C 0.3422(4) 0.0178(4) 0.0627(3)
H7WB H 0.3411 0.0091 0.0366
C12WB C 0.3325(4) 0.0561(4) 0.0713(4)
H8WB H 0.3248 0.0732 0.0511
C13WB C 0.3631(5) -0.0497(3) 0.0826(6)
H9WB H 0.3605 -0.0539 0.0546
H10WB H 0.3452 -0.0668 0.0965
H11WB H 0.3897 -0.0553 0.0906
loop_
_geom_bond_atom_site_label_1
_geom_bond_atom_site_label_2
_geom_bond_site_symmetry_1
_geom_bond_site_symmetry_2
Co1 N1 1_555 1_555
N1 C6 1_555 1_555
N2 Co1 1_555 1_555
C1 N2 1_555 1_555
H1 C1 1_555 1_555
C2 C1 1_555 1_555
C3 C2 1_555 1_555
H2 C3 1_555 1_555
C4 C3 1_555 1_555
H3 C4 1_555 1_555
C5 N2 1_555 1_555
C6 C5 1_555 1_555
H4 C6 1_555 1_555
C7 N1 1_555 1_555
C8 C7 1_555 1_555
H5 C8 1_555 1_555
C9 C8 1_555 1_555
H6 C9 1_555 1_555
C10 C9 1_555 1_555
C11 C10 1_555 1_555
H7 C11 1_555 1_555
C12 C7 1_555 1_555
H8 C12 1_555 1_555
C13 C10 1_555 1_555
H9 C13 1_555 1_555
H10 C13 1_555 1_555
H11 C13 1_555 1_555
Br1 Co2 1_555 1_555
Co2 Br1D 1_555 1_555
N1WA C6WA 1_555 1_555
N2WA C1WA 1_555 1_555
C1WA H1WA 1_555 1_555
C2WA C2 1_555 1_555
C3WA C2WA 1_555 1_555
H2WA C3WA 1_555 1_555
C4WA C3WA 1_555 1_555
H3WA C4WA 1_555 1_555
C5WA N2WA 1_555 1_555
C6WA C5WA 1_555 1_555
H4WA C6WA 1_555 1_555
C7WA N1WA 1_555 1_555
C8WA C7WA 1_555 1_555
H5WA C8WA 1_555 1_555
C9WA C8WA 1_555 1_555
H6WA C9WA 1_555 1_555
C10WA C9WA 1_555 1_555
C11WA C10WA 1_555 1_555
H7WA C11WA 1_555 1_555
C12WA C7WA 1_555 1_555
H8WA C12WA 1_555 1_555
C13WA C10WA 1_555 1_555
H9WA C13WA 1_555 1_555
H10WA C13WA 1_555 1_555
H11WA C13WA 1_555 1_555
N1D Co1 1_555 1_555
N2D Co1 1_555 1_555
C1D N2D 1_555 1_555
H1D C1D 1_555 1_555
C2D C1D 1_555 1_555
C3D C2D 1_555 1_555
H2D C3D 1_555 1_555
C4D C3D 1_555 1_555
H3D C4D 1_555 1_555
C5D N2D 1_555 1_555
C6D N1D 1_555 1_555
H4D C6D 1_555 1_555
C7D N1D 1_555 1_555
C8D C7D 1_555 1_555
H5D C8D 1_555 1_555
C9D C8D 1_555 1_555
H6D C9D 1_555 1_555
C10D C9D 1_555 1_555
C11D C10D 1_555 1_555
H7D C11D 1_555 1_555
C12D C7D 1_555 1_555
H8D C12D 1_555 1_555
C13D C10D 1_555 1_555
H9D C13D 1_555 1_555
H10D C13D 1_555 1_555
H11D C13D 1_555 1_555
N1YB C6YB 1_555 1_555
N2YB C1YB 1_555 1_555
C1YB H1YB 1_555 1_555
C2YB C2D 1_555 1_555
C3YB C2YB 1_555 1_555
H2YB C3YB 1_555 1_555
C4YB C3YB 1_555 1_555
H3YB C4YB 1_555 1_555
C5YB N2YB 1_555 1_555
C6YB C5YB 1_555 1_555
H4YB C6YB 1_555 1_555
C7YB N1YB 1_555 1_555
C8YB C7YB 1_555 1_555
H5YB C8YB 1_555 1_555
C9YB C8YB 1_555 1_555
H6YB C9YB 1_555 1_555
C10YB C9YB 1_555 1_555
C11YB C10YB 1_555 1_555
H7YB C11YB 1_555 1_555
C12YB C7YB 1_555 1_555
H8YB C12YB 1_555 1_555
C13YB C10YB 1_555 1_555
H9YB C13YB 1_555 1_555
H10YB C13YB 1_555 1_555
H11YB C13YB 1_555 1_555
N1H Co1 1_555 1_555
N2H Co1 1_555 1_555
C1H N2H 1_555 1_555
H1H C1H 1_555 1_555
C2H C1H 1_555 1_555
C3H C2H 1_555 1_555
H2H C3H 1_555 1_555
C4H C3H 1_555 1_555
H3H C4H 1_555 1_555
C5H N2H 1_555 1_555
C6H N1H 1_555 1_555
H4H C6H 1_555 1_555
C7H N1H 1_555 1_555
C8H C7H 1_555 1_555
H5H C8H 1_555 1_555
C9H C8H 1_555 1_555
H6H C9H 1_555 1_555
C10H C9H 1_555 1_555
C11H C10H 1_555 1_555
H7H C11H 1_555 1_555
C12H C7H 1_555 1_555
H8H C12H 1_555 1_555
C13H C10H 1_555 1_555
H9H C13H 1_555 1_555
H10H C13H 1_555 1_555
H11H C13H 1_555 1_555
N1GA C6GA 1_555 1_555
N2GA C1GA 1_555 1_555
C1GA H1GA 1_555 1_555
C2GA C2H 1_555 1_555
C3GA C2GA 1_555 1_555
H2GA C3GA 1_555 1_555
C4GA C3GA 1_555 1_555
H3GA C4GA 1_555 1_555
C5GA N2GA 1_555 1_555
C6GA C5GA 1_555 1_555
H4GA C6GA 1_555 1_555
C7GA N1GA 1_555 1_555
C8GA C7GA 1_555 1_555
H5GA C8GA 1_555 1_555
C9GA C8GA 1_555 1_555
H6GA C9GA 1_555 1_555
C10GA C9GA 1_555 1_555
C11GA C10GA 1_555 1_555
H7GA C11GA 1_555 1_555
C12GA C7GA 1_555 1_555
H8GA C12GA 1_555 1_555
C13GA C10GA 1_555 1_555
H9GA C13GA 1_555 1_555
H10GA C13GA 1_555 1_555
H11GA C13GA 1_555 1_555
Co1Z N1GA 1_555 1_555
N1EA Co1Z 1_555 1_555
N2EA Co1Z 1_555 1_555
C1EA N2EA 1_555 1_555
H1EA C1EA 1_555 1_555
C2EA C1EA 1_555 1_555
C3EA C2EA 1_555 1_555
H2EA C3EA 1_555 1_555
C4EA C3EA 1_555 1_555
H3EA C4EA 1_555 1_555
C5EA N2EA 1_555 1_555
C6EA N1EA 1_555 1_555
H4EA C6EA 1_555 1_555
C7EA N1EA 1_555 1_555
C8EA C7EA 1_555 1_555
H5EA C8EA 1_555 1_555
C9EA C8EA 1_555 1_555
H6EA C9EA 1_555 1_555
C10EA C9EA 1_555 1_555
C11EA C10EA 1_555 1_555
H7EA C11EA 1_555 1_555
C12EA C7EA 1_555 1_555
H8EA C12EA 1_555 1_555
C13EA C10EA 1_555 1_555
H9EA C13EA 1_555 1_555
H10EA C13EA 1_555 1_555
H11EA C13EA 1_555 1_555
N1BB C6BB 1_555 1_555
N2BB C1BB 1_555 1_555
C1BB H1BB 1_555 1_555
C2BB C2EA 1_555 1_555
C3BB C2BB 1_555 1_555
H2BB C3BB 1_555 1_555
C4BB C3BB 1_555 1_555
H3BB C4BB 1_555 1_555
C5BB N2BB 1_555 1_555
C6BB C5BB 1_555 1_555
H4BB C6BB 1_555 1_555
C7BB N1BB 1_555 1_555
C8BB C7BB 1_555 1_555
H5BB C8BB 1_555 1_555
C9BB C8BB 1_555 1_555
H6BB C9BB 1_555 1_555
C10BB C9BB 1_555 1_555
C11BB C10BB 1_555 1_555
H7BB C11BB 1_555 1_555
C12BB C7BB 1_555 1_555
H8BB C12BB 1_555 1_555
C13BB C10BB 1_555 1_555
H9BB C13BB 1_555 1_555
H10BB C13BB 1_555 1_555
H11BB C13BB 1_555 1_555
Co1WA N1WA 1_555 1_555
N1GB Co1WA 1_555 1_555
N2GB Co1WA 1_555 1_555
C1GB N2GB 1_555 1_555
H1GB C1GB 1_555 1_555
C2GB C1GB 1_555 1_555
C3GB C2GB 1_555 1_555
H2GB C3GB 1_555 1_555
C4GB C3GB 1_555 1_555
H3GB C4GB 1_555 1_555
C5GB N2GB 1_555 1_555
C6GB N1GB 1_555 1_555
H4GB C6GB 1_555 1_555
C7GB N1GB 1_555 1_555
C8GB C7GB 1_555 1_555
H5GB C8GB 1_555 1_555
C9GB C8GB 1_555 1_555
H6GB C9GB 1_555 1_555
C10GB C9GB 1_555 1_555
C11GB C10GB 1_555 1_555
H7GB C11GB 1_555 1_555
C12GB C7GB 1_555 1_555
H8GB C12GB 1_555 1_555
C13GB C10GB 1_555 1_555
H9GB C13GB 1_555 1_555
H10GB C13GB 1_555 1_555
H11GB C13GB 1_555 1_555
N1DC C6DC 1_555 1_555
N2DC C1DC 1_555 1_555
C1DC H1DC 1_555 1_555
C2DC C2GB 1_555 1_555
C3DC C2DC 1_555 1_555
H2DC C3DC 1_555 1_555
C4DC C3DC 1_555 1_555
H3DC C4DC 1_555 1_555
C5DC N2DC 1_555 1_555
C6DC C5DC 1_555 1_555
H4DC C6DC 1_555 1_555
C7DC N1DC 1_555 1_555
C8DC C7DC 1_555 1_555
H5DC C8DC 1_555 1_555
C9DC C8DC 1_555 1_555
H6DC C9DC 1_555 1_555
C10DC C9DC 1_555 1_555
C11DC C10DC 1_555 1_555
H7DC C11DC 1_555 1_555
C12DC C7DC 1_555 1_555
H8DC C12DC 1_555 1_555
C13DC C10DC 1_555 1_555
H9DC C13DC 1_555 1_555
H10DC C13DC 1_555 1_555
H11DC C13DC 1_555 1_555
Co1WB N1YB 1_555 1_555
N1Z Co1Z 1_555 1_555
N2Z Co1Z 1_555 1_555
C1Z N2Z 1_555 1_555
H1Z C1Z 1_555 1_555
C2Z C1Z 1_555 1_555
C3Z C2Z 1_555 1_555
H2Z C3Z 1_555 1_555
C4Z C3Z 1_555 1_555
H3Z C4Z 1_555 1_555
C5Z N2Z 1_555 1_555
C6Z N1Z 1_555 1_555
H4Z C6Z 1_555 1_555
C7Z N1Z 1_555 1_555
C8Z C7Z 1_555 1_555
H5Z C8Z 1_555 1_555
C9Z C8Z 1_555 1_555
H6Z C9Z 1_555 1_555
C10Z C9Z 1_555 1_555
C11Z C10Z 1_555 1_555
H7Z C11Z 1_555 1_555
C12Z C7Z 1_555 1_555
H8Z C12Z 1_555 1_555
C13Z C10Z 1_555 1_555
H9Z C13Z 1_555 1_555
H10Z C13Z 1_555 1_555
H11Z C13Z 1_555 1_555
N1WB Co1WB 1_555 1_555
N2WB Co1WB 1_555 1_555
C1WB N2WB 1_555 1_555
H1WB C1WB 1_555 1_555
C2WB C2Z 1_555 1_555
C3WB C2WB 1_555 1_555
H2WB C3WB 1_555 1_555
C4WB C3WB 1_555 1_555
H3WB C4WB 1_555 1_555
C5WB N2WB 1_555 1_555
C6WB N1WB 1_555 1_555
H4WB C6WB 1_555 1_555
C7WB N1WB 1_555 1_555
C8WB C7WB 1_555 1_555
H5WB C8WB 1_555 1_555
C9WB C8WB 1_555 1_555
H6WB C9WB 1_555 1_555
C10WB C9WB 1_555 1_555
C11WB C10WB 1_555 1_555
H7WB C11WB 1_555 1_555
C12WB C7WB 1_555 1_555
H8WB C12WB 1_555 1_555
C13WB C10WB 1_555 1_555
H9WB C13WB 1_555 1_555
H10WB C13WB 1_555 1_555
H11WB C13WB 1_555 1_555
Br1H Co2 1_555 1_555
Br1EA Co2 1_555 1_555
C4 C5 1_555 1_555
C11 C12 1_555 1_555
N2WA Co1WA 1_555 1_555
C1WA C2WA 1_555 1_555
C4WA C5WA 1_555 1_555
C11WA C12WA 1_555 1_555
C4D C5D 1_555 1_555
C5D C6D 1_555 1_555
C11D C12D 1_555 1_555
N2YB Co1WB 1_555 1_555
C1YB C2YB 1_555 1_555
C4YB C5YB 1_555 1_555
C11YB C12YB 1_555 1_555
C4H C5H 1_555 1_555
C5H C6H 1_555 1_555
C11H C12H 1_555 1_555
N2GA Co1Z 1_555 1_555
C1GA C2GA 1_555 1_555
C4GA C5GA 1_555 1_555
C11GA C12GA 1_555 1_555
C4EA C5EA 1_555 1_555
C5EA C6EA 1_555 1_555
C11EA C12EA 1_555 1_555
N1BB Co1WA 1_555 1_555
N2BB Co1WA 1_555 1_555
C1BB C2BB 1_555 1_555
C4BB C5BB 1_555 1_555
C11BB C12BB 1_555 1_555
C4GB C5GB 1_555 1_555
C5GB C6GB 1_555 1_555
C11GB C12GB 1_555 1_555
N1DC Co1WB 1_555 1_555
N2DC Co1WB 1_555 1_555
C1DC C2DC 1_555 1_555
C4DC C5DC 1_555 1_555
C11DC C12DC 1_555 1_555
C4Z C5Z 1_555 1_555
C5Z C6Z 1_555 1_555
C11Z C12Z 1_555 1_555
C1WB C2WB 1_555 1_555
C4WB C5WB 1_555 1_555
C5WB C6WB 1_555 1_555
C11WB C12WB 1_555 1_555

#END
