
#######################################################################
#
#                 Cambridge Crystallographic Data Centre
#                                CCDC 
#
#######################################################################
#
# If this CIF has been generated from an entry in the Cambridge 
# Structural Database, then it will include bibliographic, chemical, 
# crystal, experimental, refinement or atomic coordinate data resulting 
# from the CCDC's data processing and validation procedures.
#
#######################################################################

data_NUJBEB
_chemical_formula_moiety         
'C390 H330 N60 Zn10 20+,2(C2 H3 N1),19(Cl1 O4 1-),Cl1 1-'
_chemical_name_systematic        
"pentadecakis( -3,3'-bipyridine-6,6'-diylbis(N-(4-methylphenyl)methanimine))-deca-zinc chloride nonadecaperchlorate acetonitrile unknown solvate"
_symmetry_cell_setting           monoclinic
_symmetry_space_group_name_H-M   'P 2/n'
_symmetry_Int_Tables_number      13
_space_group_name_Hall           '-P 2yac'
loop_
_symmetry_equiv_pos_site_id
_symmetry_equiv_pos_as_xyz
1 x,y,z
2 1/2-x,y,1/2-z
3 -x,-y,-z
4 1/2+x,-y,1/2+z
_cell_length_a                   21.4479(14)
_cell_length_b                   30.381(2)
_cell_length_c                   34.189(2)
_cell_angle_alpha                90
_cell_angle_beta                 97.460(3)
_cell_angle_gamma                90
_cell_volume                     22089.3
_exptl_crystal_colour            orange
_exptl_crystal_description       block
_cell_formula_units_Z            2
_exptl_crystal_recrystallization_method 
'Re-crystallisation from solvent: acetonitrile. diethyl ether'
loop_
_atom_site_label
_atom_site_type_symbol
_atom_site_fract_x
_atom_site_fract_y
_atom_site_fract_z
Zn1 Zn 0.48308(8) 0.29632(6) 0.39581(4)
Zn2 Zn 0.52056(8) 0.03645(6) 0.29839(4)
Zn3 Zn 0.63668(8) 0.07401(6) 0.07164(4)
Zn4 Zn 0.65635(8) 0.34193(7) 0.01919(5)
Zn5 Zn 0.55942(9) 0.48466(6) 0.22260(5)
N1 N 0.5383(5) 0.3099(5) 0.4547(3)
N2 N 0.4992(6) 0.2317(5) 0.4194(4)
N3 N 0.4771(6) 0.0644(5) 0.3465(3)
N4 N 0.4471(5) -0.0132(4) 0.3091(4)
N5 N 0.5854(6) -0.0040(4) 0.3408(3)
N6 N 0.5683(6) -0.0049(5) 0.2626(4)
N7 N 0.5944(5) 0.0217(4) 0.1001(4)
N8 N 0.5893(5) 0.0315(5) 0.0226(3)
N9 N 0.7205(5) 0.0290(4) 0.0663(4)
N10 N 0.6883(7) 0.1052(5) 0.0319(3)
N11 N 0.6554(6) 0.2842(6) -0.0151(4)
N12 N 0.6189(6) 0.3665(5) -0.0399(4)
N13 N 0.7494(6) 0.3596(5) -0.0005(3)
N14 N 0.6730(6) 0.4062(5) 0.0411(3)
N15 N 0.5667(6) 0.5019(5) 0.1604(3)
N16 N 0.5013(6) 0.5434(5) 0.2098(4)
N17 N 0.6329(6) 0.5362(4) 0.2432(4)
N18 N 0.5580(7) 0.4877(5) 0.2837(4)
N19 N 0.4640(6) 0.3642(4) 0.3865(3)
N20 N 0.4035(5) 0.3069(5) 0.4298(3)
N21 N 0.6767(7) 0.1091(4) 0.1228(3)
N22 N 0.5649(5) 0.1239(4) 0.0784(4)
N23 N 0.9163(7) 0.0902(4) 0.2057(3)
N24 N 1.0332(5) 0.0794(5) 0.2444(3)
N25 N 0.5599(6) 0.2921(3) 0.3626(4)
N26 N 0.4389(6) 0.2783(4) 0.3377(4)
N27 N 0.6196(8) 0.4289(5) 0.2272(3)
N28 N 0.4939(6) 0.4293(5) 0.2067(3)
N29 N 0.8110(6) 0.3138(4) 0.4250(3)
N30 N 0.9300(5) 0.3251(5) 0.4573(4)
C1 C 0.5513(4) 0.3520(3) 0.4713(3)
C2 C 0.5825(4) 0.3816(3) 0.4494(2)
H1 H 0.5965 0.3724 0.4255
C3 C 0.5930(4) 0.4248(3) 0.4626(2)
H2 H 0.6143 0.4447 0.4475
C4 C 0.5726(3) 0.4393(3) 0.4978(2)
C5 C 0.5416(4) 0.4091(3) 0.5195(2)
H3 H 0.5276 0.4182 0.5435
C6 C 0.5309(4) 0.3659(3) 0.5065(3)
H4 H 0.5097 0.3458 0.5216
C7 C 0.5827(6) 0.4862(3) 0.5115(4)
H5 H 0.6237 0.4889 0.5276
H6 H 0.5495 0.4947 0.5271
H7 H 0.5813 0.5057 0.4885
C8 C 0.5384(7) 0.2756(6) 0.4768(5)
H8 H 0.5491 0.2782 0.5046
C9 C 0.5217(7) 0.2311(6) 0.4586(5)
C10 C 0.5240(7) 0.1940(5) 0.4808(4)
H9 H 0.5359 0.1947 0.5085
C11 C 0.5082(7) 0.1552(6) 0.4610(4)
H10 H 0.5107 0.1285 0.4756
C12 C 0.4894(7) 0.1535(6) 0.4220(4)
C13 C 0.4856(7) 0.1927(6) 0.4017(5)
H11 H 0.4729 0.1922 0.3741
C14 C 0.4911(6) 0.1012(6) 0.3655(4)
H12 H 0.5175 0.1214 0.3542
C15 C 0.4704(7) 0.1136(5) 0.4014(4)
C16 C 0.4316(7) 0.0819(5) 0.4178(4)
H13 H 0.4170 0.0874 0.4425
C17 C 0.4161(7) 0.0445(6) 0.3981(4)
H14 H 0.3889 0.0244 0.4088
C18 C 0.4385(7) 0.0335(5) 0.3617(4)
C19 C 0.4265(8) -0.0077(6) 0.3406(4)
H15 H 0.4029 -0.0302 0.3512
C20 C 0.4468(4) -0.0612(3) 0.2915(2)
C21 C 0.4437(5) -0.0670(4) 0.2508(2)
H16 H 0.4412 -0.0421 0.2339
C22 C 0.4444(6) -0.1093(4) 0.2349(2)
H17 H 0.4423 -0.1129 0.2071
C23 C 0.4482(6) -0.1466(4) 0.2592(3)
C24 C 0.4511(6) -0.1403(3) 0.3000(3)
H18 H 0.4535 -0.1652 0.3170
C25 C 0.4504(4) -0.0981(3) 0.3161(2)
H19 H 0.4524 -0.0945 0.3438
C26 C 0.4506(8) -0.1922(4) 0.2420(4)
H20 H 0.4928 -0.1979 0.2352
H21 H 0.4199 -0.1944 0.2182
H22 H 0.4404 -0.2139 0.2614
C27 C 0.5890(3) -0.0040(2) 0.38241(18)
C28 C 0.6012(3) 0.0362(2) 0.4017(2)
H23 H 0.6102 0.0616 0.3871
C29 C 0.6002(3) 0.0393(2) 0.4424(2)
H24 H 0.6086 0.0668 0.4552
C30 C 0.5869(3) 0.0025(2) 0.46457(18)
C31 C 0.5749(4) -0.0377(2) 0.44479(18)
H25 H 0.5659 -0.0631 0.4593
C32 C 0.5758(3) -0.0410(2) 0.40414(18)
H26 H 0.5675 -0.0685 0.3912
C33 C 0.5842(4) 0.0061(3) 0.50829(18)
H27 H 0.5430 -0.0038 0.5142
H28 H 0.5909 0.0368 0.5165
H29 H 0.6171 -0.0123 0.5225
C34 C 0.6063(8) -0.0367(6) 0.3233(5)
H30 H 0.6254 -0.0604 0.3385
C35 C 0.6017(9) -0.0386(6) 0.2806(5)
C36 C 0.6278(8) -0.0706(6) 0.2592(5)
H31 H 0.6488 -0.0952 0.2721
C37 C 0.6231(8) -0.0666(6) 0.2188(5)
H32 H 0.6423 -0.0880 0.2041
C38 C 0.5921(7) -0.0334(5) 0.2002(5)
C39 C 0.5641(7) -0.0004(5) 0.2234(5)
H33 H 0.5429 0.0242 0.2108
C40 C 0.5975(6) 0.0164(5) 0.1391(5)
H34 H 0.6060 0.0413 0.1558
C41 C 0.5885(7) -0.0246(6) 0.1559(5)
C42 C 0.5759(7) -0.0637(5) 0.1319(5)
H35 H 0.5717 -0.0921 0.1427
C43 C 0.5705(7) -0.0556(5) 0.0906(4)
H36 H 0.5606 -0.0788 0.0723
C44 C 0.5799(6) -0.0128(6) 0.0775(5)
C45 C 0.5746(7) -0.0053(6) 0.0351(5)
H37 H 0.5603 -0.0281 0.0172
C46 C 0.5889(2) 0.0460(4) -0.02052(17)
C47 C 0.6073(3) 0.0141(4) -0.04605(16)
H38 H 0.6196 -0.0143 -0.0362
C48 C 0.6075(3) 0.0237(5) -0.08596(16)
H39 H 0.6201 0.0017 -0.1031
C49 C 0.5894(3) 0.0653(5) -0.10122(19)
C50 C 0.5713(3) 0.0971(4) -0.0752(2)
H40 H 0.5590 0.1255 -0.0849
C51 C 0.5709(4) 0.0877(4) -0.0352(2)
H41 H 0.5585 0.1096 -0.0181
C52 C 0.5882(4) 0.0752(6) -0.1445(2)
H42 H 0.5603 0.0543 -0.1600
H43 H 0.6308 0.0725 -0.1517
H44 H 0.5728 0.1053 -0.1499
C53 C 0.7326(3) -0.0117(2) 0.08367(17)
C54 C 0.7355(3) -0.0158(2) 0.12455(17)
H45 H 0.7333 0.0097 0.1404
C55 C 0.7417(3) -0.0573(3) 0.14223(19)
H46 H 0.7436 -0.0596 0.1701
C56 C 0.7449(3) -0.0955(2) 0.1196(2)
C57 C 0.7422(4) -0.0909(3) 0.0786(2)
H47 H 0.7445 -0.1163 0.0627
C58 C 0.7360(3) -0.0495(3) 0.06072(19)
H48 H 0.7342 -0.0470 0.0329
C59 C 0.7500(5) -0.1403(3) 0.1387(3)
H49 H 0.7101 -0.1560 0.1323
H50 H 0.7593 -0.1369 0.1673
H51 H 0.7838 -0.1570 0.1288
C60 C 0.7462(8) 0.0420(6) 0.0362(5)
H52 H 0.7761 0.0231 0.0266
C61 C 0.7323(9) 0.0832(7) 0.0162(5)
C62 C 0.7627(8) 0.0978(7) -0.0141(5)
H53 H 0.7933 0.0803 -0.0245
C63 C 0.7465(8) 0.1398(7) -0.0290(5)
H54 H 0.7675 0.1518 -0.0494
C64 C 0.7007(7) 0.1638(6) -0.0144(5)
C65 C 0.6761(7) 0.1438(7) 0.0167(4)
H55 H 0.6462 0.1608 0.0284
C66 C 0.6697(8) 0.2439(7) -0.0049(5)
H56 H 0.6727 0.2373 0.0225
C67 C 0.6811(7) 0.2093(7) -0.0297(5)
C68 C 0.6728(9) 0.2188(7) -0.0718(5)
H57 H 0.6809 0.1976 -0.0908
C69 C 0.6528(9) 0.2597(7) -0.0819(6)
H58 H 0.6437 0.2669 -0.1091
C70 C 0.6452(8) 0.2908(7) -0.0549(6)
C71 C 0.6249(8) 0.3369(7) -0.0651(5)
H59 H 0.6160 0.3444 -0.0922
C72 C 0.6048(3) 0.4096(2) -0.0501(2)
C73 C 0.5614(3) 0.4325(3) -0.0308(3)
H60 H 0.5419 0.4185 -0.0107
C74 C 0.5464(3) 0.4761(3) -0.0410(2)
H61 H 0.5167 0.4914 -0.0278
C75 C 0.5744(3) 0.4977(2) -0.0706(2)
C76 C 0.6178(4) 0.4741(2) -0.0897(2)
H62 H 0.6372 0.4881 -0.1099
C77 C 0.6330(3) 0.4305(2) -0.07965(18)
H63 H 0.6626 0.4151 -0.0929
C78 C 0.5593(4) 0.5451(3) -0.0808(3)
H64 H 0.5499 0.5607 -0.0572
H65 H 0.5227 0.5464 -0.1012
H66 H 0.5954 0.5589 -0.0907
C79 C 0.7804(3) 0.3336(2) -0.02457(19)
C80 C 0.8018(4) 0.2919(2) -0.0117(2)
H67 H 0.7972 0.2824 0.0142
C81 C 0.8299(3) 0.2643(2) -0.0370(3)
H68 H 0.8443 0.2360 -0.0279
C82 C 0.8371(3) 0.2774(2) -0.0754(2)
C83 C 0.8156(3) 0.3194(2) -0.0878(2)
H69 H 0.8203 0.3290 -0.1137
C84 C 0.7875(3) 0.3472(2) -0.0627(2)
H70 H 0.7731 0.3755 -0.0717
C85 C 0.8661(4) 0.2471(3) -0.1029(3)
H71 H 0.8988 0.2292 -0.0877
H72 H 0.8847 0.2645 -0.1225
H73 H 0.8335 0.2277 -0.1163
C86 C 0.7586(8) 0.4012(6) 0.0041(4)
H74 H 0.7913 0.4148 -0.0079
C87 C 0.7215(8) 0.4274(6) 0.0265(4)
C88 C 0.7373(8) 0.4703(6) 0.0362(4)
H75 H 0.7726 0.4831 0.0264
C89 C 0.7031(8) 0.4955(6) 0.0602(4)
H76 H 0.7123 0.5256 0.0660
C90 C 0.6542(8) 0.4729(7) 0.0750(5)
C91 C 0.6415(8) 0.4290(6) 0.0649(4)
H77 H 0.6083 0.4148 0.0758
C92 C 0.6003(8) 0.4782(6) 0.1364(5)
H78 H 0.6131 0.4490 0.1434
C93 C 0.6158(8) 0.4964(6) 0.1019(5)
C94 C 0.5956(8) 0.5398(6) 0.0916(5)
H79 H 0.6053 0.5536 0.0682
C95 C 0.5602(8) 0.5612(6) 0.1179(5)
H80 H 0.5456 0.5903 0.1118
C96 C 0.5459(8) 0.5419(6) 0.1518(5)
C97 C 0.5088(9) 0.5632(7) 0.1780(6)
H81 H 0.4903 0.5912 0.1719
C98 C 0.4755(3) 0.5669(3) 0.2410(3)
C99 C 0.4876(3) 0.6116(3) 0.2480(2)
H82 H 0.5158 0.6268 0.2334
C100 C 0.4585(4) 0.6340(4) 0.2763(3)
H83 H 0.4671 0.6644 0.2809
C101 C 0.4166(4) 0.6124(4) 0.2982(3)
C102 C 0.4051(4) 0.5676(4) 0.2909(3)
H84 H 0.3771 0.5523 0.3055
C103 C 0.4341(4) 0.5449(4) 0.2626(3)
H85 H 0.4256 0.5145 0.2581
C104 C 0.3841(5) 0.6370(5) 0.3280(4)
H86 H 0.3444 0.6222 0.3312
H87 H 0.3755 0.6672 0.3189
H88 H 0.4112 0.6375 0.3534
C105 C 0.6676(3) 0.5606(2) 0.2187(2)
C106 C 0.6657(3) 0.6065(2) 0.2193(2)
H89 H 0.6426 0.6213 0.2373
C107 C 0.6976(4) 0.6309(3) 0.1934(3)
H90 H 0.6959 0.6621 0.1941
C108 C 0.7320(3) 0.6099(3) 0.1666(2)
C109 C 0.7333(3) 0.5638(3) 0.1663(2)
H91 H 0.7562 0.5490 0.1483
C110 C 0.7015(4) 0.5393(3) 0.1921(3)
H92 H 0.7030 0.5080 0.1915
C111 C 0.7676(4) 0.6363(4) 0.1395(3)
H93 H 0.8120 0.6275 0.1433
H94 H 0.7643 0.6677 0.1454
H95 H 0.7498 0.6308 0.1120
C112 C 0.6266(7) 0.5478(5) 0.2794(5)
H96 H 0.6475 0.5733 0.2906
C113 C 0.5887(8) 0.5222(6) 0.3021(5)
C114 C 0.5865(8) 0.5327(5) 0.3421(5)
H97 H 0.6080 0.5579 0.3536
C115 C 0.5529(8) 0.5062(5) 0.3640(4)
H98 H 0.5506 0.5128 0.3909
C116 C 0.5215(7) 0.4687(5) 0.3460(4)
C117 C 0.5252(8) 0.4629(5) 0.3054(5)
H99 H 0.5022 0.4391 0.2925
C118 C 0.4926(7) 0.3943(5) 0.3664(4)
H100 H 0.5219 0.3838 0.3500
C119 C 0.4832(7) 0.4383(6) 0.3675(4)
C120 C 0.4407(7) 0.4540(5) 0.3939(4)
H101 H 0.4337 0.4847 0.3967
C121 C 0.4118(7) 0.4252(5) 0.4141(4)
H102 H 0.3834 0.4350 0.4314
C122 C 0.4225(7) 0.3813(5) 0.4102(5)
C123 C 0.3934(8) 0.3472(6) 0.4346(5)
H103 H 0.3675 0.3563 0.4536
C124 C 0.3776(5) 0.2754(4) 0.4535(4)
C125 C 0.3831(6) 0.2827(3) 0.4941(4)
H104 H 0.3937 0.3112 0.5044
C126 C 0.3731(6) 0.2483(4) 0.5196(3)
H105 H 0.3770 0.2536 0.5472
C127 C 0.3573(5) 0.2060(4) 0.5052(3)
C128 C 0.3522(6) 0.1991(3) 0.4643(3)
H106 H 0.3417 0.1707 0.4540
C129 C 0.3622(6) 0.2334(4) 0.4387(3)
H107 H 0.3584 0.2282 0.4111
C130 C 0.3449(9) 0.1692(5) 0.5327(5)
H108 H 0.3805 0.1666 0.5537
H109 H 0.3398 0.1415 0.5180
H110 H 0.3065 0.1755 0.5444
C131 C 0.8562(8) 0.0935(5) 0.1899(4)
H111 H 0.8378 0.0689 0.1755
C132 C 0.8187(8) 0.1300(5) 0.1929(4)
C133 C 0.8461(8) 0.1654(5) 0.2148(4)
H112 H 0.8228 0.1914 0.2180
C134 C 0.9089(8) 0.1616(5) 0.2321(4)
H113 H 0.9288 0.1858 0.2463
C135 C 0.9418(7) 0.1236(6) 0.2286(4)
C136 C 1.0060(8) 0.1166(6) 0.2481(4)
H114 H 1.0274 0.1394 0.2634
C137 C 1.0946(6) 0.0771(5) 0.2619(4)
C138 C 1.1134(6) 0.0362(5) 0.2782(4)
H115 H 1.0843 0.0126 0.2768
C139 C 1.1750(7) 0.0301(3) 0.2963(4)
H116 H 1.1872 0.0022 0.3073
C140 C 1.2190(6) 0.0645(4) 0.2986(3)
C141 C 1.1994(7) 0.1053(4) 0.2823(4)
H117 H 1.2284 0.1290 0.2836
C142 C 1.1379(7) 0.1116(4) 0.2641(4)
H118 H 1.1254 0.1395 0.2532
C143 C 1.2858(6) 0.0574(7) 0.3174(5)
H119 H 1.3116 0.0482 0.2972
H120 H 1.2868 0.0345 0.3376
H121 H 1.3024 0.0849 0.3295
C144 C 0.7342(8) 0.1071(5) 0.1416(4)
H122 H 0.7634 0.0879 0.1318
C145 C 0.7544(8) 0.1320(5) 0.1755(4)
C146 C 0.7117(8) 0.1599(5) 0.1896(4)
H123 H 0.7233 0.1778 0.2122
C147 C 0.6507(8) 0.1610(5) 0.1695(4)
H124 H 0.6199 0.1787 0.1795
C148 C 0.6345(8) 0.1375(5) 0.1361(4)
C149 C 0.5747(8) 0.1446(6) 0.1115(5)
H125 H 0.5440 0.1639 0.1195
C150 C 0.5120(6) 0.1385(6) 0.0510(4)
C151 C 0.5042(8) 0.1826(5) 0.0399(5)
H126 H 0.5354 0.2037 0.0493
C152 C 0.4506(9) 0.1959(4) 0.0151(5)
H127 H 0.4457 0.2260 0.0078
C153 C 0.4039(7) 0.1656(5) 0.0008(4)
C154 C 0.4124(6) 0.1214(4) 0.0122(4)
H128 H 0.3812 0.1003 0.0030
C155 C 0.4658(7) 0.1079(4) 0.0370(4)
H129 H 0.4708 0.0779 0.0445
C156 C 0.3469(9) 0.1798(8) -0.0268(6)
H130 H 0.3088 0.1729 -0.0150
H131 H 0.3459 0.1642 -0.0519
H132 H 0.3489 0.2116 -0.0313
C157 C 0.7519(8) 0.3119(4) 0.4090(4)
H133 H 0.7201 0.3238 0.4228
C158 C 0.7344(7) 0.2923(4) 0.3710(3)
C159 C 0.7823(7) 0.2766(5) 0.3523(4)
H134 H 0.7729 0.2642 0.3267
C160 C 0.8429(7) 0.2784(5) 0.3693(4)
H135 H 0.8755 0.2661 0.3564
C161 C 0.8565(7) 0.2988(5) 0.4064(4)
C162 C 0.9212(7) 0.3022(5) 0.4266(5)
H136 H 0.9551 0.2876 0.4167
C163 C 0.9942(8) 0.3295(5) 0.4766(7)
C164 C 1.0117(9) 0.3211(6) 0.5167(7)
H137 H 0.9808 0.3129 0.5328
C165 C 1.0746(10) 0.3249(6) 0.5331(5)
H138 H 1.0860 0.3192 0.5604
C166 C 1.1212(8) 0.3370(4) 0.5099(5)
C167 C 1.1028(10) 0.3454(6) 0.4697(5)
H139 H 1.1336 0.3538 0.4535
C168 C 1.0400(11) 0.3417(6) 0.4532(5)
H140 H 1.0285 0.3475 0.4259
C169 C 1.1892(8) 0.3400(7) 0.5275(8)
H141 H 1.1926 0.3362 0.5562
H142 H 1.2060 0.3689 0.5216
H143 H 1.2134 0.3169 0.5162
C170 C 0.6808(9) 0.4275(6) 0.2406(4)
H144 H 0.7004 0.4545 0.2490
C171 C 0.7178(7) 0.3909(5) 0.2433(4)
C172 C 0.6841(9) 0.3533(6) 0.2283(5)
H145 H 0.7071 0.3266 0.2274
C173 C 0.6226(9) 0.3520(6) 0.2152(5)
H146 H 0.6028 0.3254 0.2058
C174 C 0.5908(10) 0.3884(8) 0.2157(5)
C175 C 0.5267(10) 0.3941(7) 0.2066(5)
H147 H 0.5035 0.3681 0.1991
C176 C 0.4275(9) 0.4251(8) 0.2066(6)
C177 C 0.3955(12) 0.3895(8) 0.2205(6)
H148 H 0.4181 0.3677 0.2365
C178 C 0.3304(12) 0.3859(7) 0.2111(7)
H149 H 0.3091 0.3615 0.2207
C179 C 0.2959(9) 0.4176(6) 0.1876(6)
C180 C 0.3287(10) 0.4530(5) 0.1737(5)
H150 H 0.3062 0.4748 0.1577
C181 C 0.3938(10) 0.4568(7) 0.1831(6)
H151 H 0.4152 0.4811 0.1734
C182 C 0.2254(8) 0.4142(9) 0.1783(10)
H152 H 0.2081 0.4014 0.2009
H153 H 0.2148 0.3953 0.1551
H154 H 0.2076 0.4436 0.1728
C183 C 0.6195(8) 0.2943(4) 0.3767(4)
H155 H 0.6298 0.2984 0.4043
C184 C 0.6693(7) 0.2913(4) 0.3540(4)
C185 C 0.6473(8) 0.2862(6) 0.3138(4)
H156 H 0.6777 0.2858 0.2960
C186 C 0.5860(8) 0.2817(5) 0.2983(4)
H157 H 0.5736 0.2769 0.2710
C187 C 0.5460(7) 0.2843(5) 0.3231(4)
C188 C 0.4748(8) 0.2790(5) 0.3114(4)
H158 H 0.4580 0.2762 0.2844
C189 C 0.1803(13) 0.2511(11) 0.2830(11)
H159 H 0.1747 0.2191 0.2818
H160 H 0.1670 0.2638 0.2569
H161 H 0.1548 0.2635 0.3021
C190 C 0.3721(11) 0.2723(9) 0.3234(9)
C191 C 0.3263(15) 0.2916(7) 0.3431(6)
H162 H 0.3382 0.3086 0.3662
C192 C 0.2630(13) 0.2861(7) 0.3289(6)
H163 H 0.2317 0.2993 0.3423
C193 C 0.2457(10) 0.2613(7) 0.2951(6)
C194 C 0.2915(13) 0.2420(7) 0.2755(6)
H164 H 0.2796 0.2250 0.2523
C195 C 0.3547(11) 0.2475(8) 0.2896(9)
H165 H 0.3861 0.2343 0.2762
N27A N 0.8804(8) 0.4289(5) 0.2728(3)
N28A N 1.0061(6) 0.4293(5) 0.2933(3)
C170A C 0.8192(9) 0.4275(6) 0.2594(4)
H144A H 0.7996 0.4545 0.2510
C171A C 0.7822(7) 0.3909(5) 0.2567(4)
C172A C 0.8159(9) 0.3533(6) 0.2717(5)
H145A H 0.7929 0.3266 0.2726
C173A C 0.8774(9) 0.3520(6) 0.2848(5)
H146A H 0.8972 0.3254 0.2942
C174A C 0.9092(10) 0.3884(8) 0.2843(5)
C175A C 0.9733(10) 0.3941(7) 0.2934(5)
H147A H 0.9965 0.3681 0.3009
C176A C 1.0725(9) 0.4251(8) 0.2934(6)
C177A C 1.1045(12) 0.3895(8) 0.2795(6)
H148A H 1.0819 0.3677 0.2635
C178A C 1.1696(12) 0.3859(7) 0.2889(7)
H149A H 1.1909 0.3615 0.2793
C179A C 1.2041(9) 0.4176(6) 0.3124(6)
C180A C 1.1713(10) 0.4530(5) 0.3263(5)
H150A H 1.1938 0.4748 0.3423
C181A C 1.1062(10) 0.4568(7) 0.3169(6)
H151A H 1.0848 0.4811 0.3266
C182A C 1.2746(8) 0.4142(9) 0.3217(10)
H152A H 1.2919 0.4014 0.2991
H153A H 1.2852 0.3953 0.3449
H154A H 1.2924 0.4436 0.3272
Zn1A Zn 1.01692(8) 0.29632(6) 0.10419(4)
Zn2A Zn 0.97944(8) 0.03645(6) 0.20161(4)
Zn3A Zn 0.86332(8) 0.07401(6) 0.42836(4)
Zn4A Zn 0.84365(8) 0.34193(7) 0.48081(5)
Zn5A Zn 0.94058(9) 0.48466(6) 0.27740(5)
N1A N 0.9617(5) 0.3099(5) 0.0453(3)
N2A N 1.0008(6) 0.2317(5) 0.0806(4)
N3A N 1.0229(6) 0.0644(5) 0.1535(3)
N4A N 1.0529(5) -0.0132(4) 0.1909(4)
N5A N 0.9146(6) -0.0040(4) 0.1592(3)
N6A N 0.9317(6) -0.0049(5) 0.2374(4)
N7A N 0.9056(5) 0.0217(4) 0.3999(4)
N8A N 0.9107(5) 0.0315(5) 0.4774(3)
N9A N 0.7795(5) 0.0290(4) 0.4337(4)
N10A N 0.8117(7) 0.1052(5) 0.4681(3)
N11A N 0.8446(6) 0.2842(6) 0.5151(4)
N12A N 0.8811(6) 0.3665(5) 0.5399(4)
N13A N 0.7506(6) 0.3596(5) 0.5005(3)
N14A N 0.8270(6) 0.4062(5) 0.4589(3)
N15A N 0.9333(6) 0.5019(5) 0.3396(3)
N16A N 0.9987(6) 0.5434(5) 0.2902(4)
N17A N 0.8671(6) 0.5362(4) 0.2568(4)
N18A N 0.9420(7) 0.4877(5) 0.2163(4)
N19A N 1.0360(6) 0.3642(4) 0.1135(3)
N20A N 1.0965(5) 0.3069(5) 0.0702(3)
N21A N 0.8233(7) 0.1091(4) 0.3772(3)
N22A N 0.9351(5) 0.1239(4) 0.4216(4)
N23A N 0.5837(7) 0.0902(4) 0.2943(3)
N24A N 0.4668(5) 0.0794(5) 0.2556(3)
N25A N 0.9401(6) 0.2921(3) 0.1374(4)
N26A N 1.0611(6) 0.2783(4) 0.1623(4)
N29A N 0.6890(6) 0.3138(4) 0.0750(3)
N30A N 0.5700(5) 0.3251(5) 0.0427(4)
C1A C 0.9487(4) 0.3520(3) 0.0287(3)
C2A C 0.9175(4) 0.3816(3) 0.0506(2)
H1A H 0.9035 0.3724 0.0745
C3A C 0.9070(4) 0.4248(3) 0.0374(2)
H2A H 0.8857 0.4447 0.0525
C4A C 0.9274(3) 0.4393(3) 0.0022(2)
C5A C 0.9584(4) 0.4091(3) -0.0195(2)
H3A H 0.9724 0.4182 -0.0435
C6A C 0.9691(4) 0.3659(3) -0.0065(3)
H4A H 0.9903 0.3458 -0.0216
C7A C 0.9173(6) 0.4862(3) -0.0115(4)
H5A H 0.8763 0.4889 -0.0276
H6A H 0.9505 0.4947 -0.0271
H7A H 0.9187 0.5057 0.0115
C8A C 0.9616(7) 0.2756(6) 0.0232(5)
H8A H 0.9509 0.2782 -0.0046
C9A C 0.9783(7) 0.2311(6) 0.0414(5)
C10A C 0.9760(7) 0.1940(5) 0.0192(4)
H9A H 0.9641 0.1947 -0.0085
C11A C 0.9918(7) 0.1552(6) 0.0390(4)
H10A H 0.9893 0.1285 0.0244
C12A C 1.0106(7) 0.1535(6) 0.0780(4)
C13A C 1.0144(7) 0.1927(6) 0.0983(5)
H11A H 1.0271 0.1922 0.1259
C14A C 1.0089(6) 0.1012(6) 0.1345(4)
H12A H 0.9825 0.1214 0.1458
C15A C 1.0296(7) 0.1136(5) 0.0986(4)
C16A C 1.0684(7) 0.0819(5) 0.0822(4)
H13A H 1.0830 0.0874 0.0575
C17A C 1.0839(7) 0.0445(6) 0.1019(4)
H14A H 1.1111 0.0244 0.0912
C18A C 1.0615(7) 0.0335(5) 0.1383(4)
C19A C 1.0735(8) -0.0077(6) 0.1594(4)
H15A H 1.0971 -0.0302 0.1488
C20A C 1.0532(4) -0.0612(3) 0.2085(2)
C21A C 1.0563(5) -0.0670(4) 0.2492(2)
H16A H 1.0588 -0.0421 0.2661
C22A C 1.0556(6) -0.1093(4) 0.2651(2)
H17A H 1.0577 -0.1129 0.2929
C23A C 1.0518(6) -0.1466(4) 0.2408(3)
C24A C 1.0489(6) -0.1403(3) 0.2000(3)
H18A H 1.0465 -0.1652 0.1830
C25A C 1.0496(4) -0.0981(3) 0.1839(2)
H19A H 1.0476 -0.0945 0.1562
C26A C 1.0494(8) -0.1922(4) 0.2580(4)
H20A H 1.0072 -0.1979 0.2648
H21A H 1.0801 -0.1944 0.2818
H22A H 1.0596 -0.2139 0.2386
C27A C 0.9110(3) -0.0040(2) 0.11759(18)
C28A C 0.8988(3) 0.0362(2) 0.0983(2)
H23A H 0.8898 0.0616 0.1129
C29A C 0.8998(3) 0.0393(2) 0.0576(2)
H24A H 0.8914 0.0668 0.0448
C30A C 0.9131(3) 0.0025(2) 0.03543(18)
C31A C 0.9251(4) -0.0377(2) 0.05521(18)
H25A H 0.9341 -0.0631 0.0407
C32A C 0.9242(3) -0.0410(2) 0.09586(18)
H26A H 0.9325 -0.0685 0.1088
C33A C 0.9158(4) 0.0061(3) -0.00829(18)
H27A H 0.9570 -0.0038 -0.0142
H28A H 0.9091 0.0368 -0.0165
H29A H 0.8829 -0.0123 -0.0225
C34A C 0.8937(8) -0.0367(6) 0.1767(5)
H30A H 0.8746 -0.0604 0.1615
C35A C 0.8983(9) -0.0386(6) 0.2194(5)
C36A C 0.8722(8) -0.0706(6) 0.2408(5)
H31A H 0.8512 -0.0952 0.2279
C37A C 0.8769(8) -0.0666(6) 0.2812(5)
H32A H 0.8577 -0.0880 0.2959
C38A C 0.9079(7) -0.0334(5) 0.2998(5)
C39A C 0.9359(7) -0.0004(5) 0.2766(5)
H33A H 0.9571 0.0242 0.2892
C40A C 0.9025(6) 0.0164(5) 0.3609(5)
H34A H 0.8940 0.0413 0.3442
C41A C 0.9115(7) -0.0246(6) 0.3441(5)
C42A C 0.9241(7) -0.0637(5) 0.3681(5)
H35A H 0.9283 -0.0921 0.3573
C43A C 0.9295(7) -0.0556(5) 0.4094(4)
H36A H 0.9394 -0.0788 0.4277
C44A C 0.9201(6) -0.0128(6) 0.4225(5)
C45A C 0.9254(7) -0.0053(6) 0.4649(5)
H37A H 0.9397 -0.0281 0.4828
C46A C 0.9111(2) 0.0460(4) 0.52052(17)
C47A C 0.8927(3) 0.0141(4) 0.54605(16)
H38A H 0.8804 -0.0143 0.5362
C48A C 0.8925(3) 0.0237(5) 0.58596(16)
H39A H 0.8799 0.0017 0.6031
C49A C 0.9106(3) 0.0653(5) 0.60122(19)
C50A C 0.9287(3) 0.0971(4) 0.5752(2)
H40A H 0.9410 0.1255 0.5849
C51A C 0.9291(4) 0.0877(4) 0.5352(2)
H41A H 0.9415 0.1096 0.5181
C52A C 0.9118(4) 0.0752(6) 0.6445(2)
H42A H 0.9397 0.0543 0.6600
H43A H 0.8692 0.0725 0.6517
H44A H 0.9272 0.1053 0.6499
C53A C 0.7674(3) -0.0117(2) 0.41633(17)
C54A C 0.7645(3) -0.0158(2) 0.37545(17)
H45A H 0.7667 0.0097 0.3596
C55A C 0.7583(3) -0.0573(3) 0.35777(19)
H46A H 0.7564 -0.0596 0.3299
C56A C 0.7551(3) -0.0955(2) 0.3804(2)
C57A C 0.7578(4) -0.0909(3) 0.4214(2)
H47A H 0.7555 -0.1163 0.4373
C58A C 0.7640(3) -0.0495(3) 0.43928(19)
H48A H 0.7658 -0.0470 0.4671
C59A C 0.7500(5) -0.1403(3) 0.3613(3)
H49A H 0.7899 -0.1560 0.3677
H50A H 0.7407 -0.1369 0.3327
H51A H 0.7162 -0.1570 0.3712
C60A C 0.7538(8) 0.0420(6) 0.4638(5)
H52A H 0.7239 0.0231 0.4734
C61A C 0.7677(9) 0.0832(7) 0.4838(5)
C62A C 0.7373(8) 0.0978(7) 0.5141(5)
H53A H 0.7067 0.0803 0.5245
C63A C 0.7535(8) 0.1398(7) 0.5290(5)
H54A H 0.7325 0.1518 0.5494
C64A C 0.7993(7) 0.1638(6) 0.5144(5)
C65A C 0.8239(7) 0.1438(7) 0.4833(4)
H55A H 0.8538 0.1608 0.4716
C66A C 0.8303(8) 0.2439(7) 0.5049(5)
H56A H 0.8273 0.2373 0.4775
C67A C 0.8189(7) 0.2093(7) 0.5297(5)
C68A C 0.8272(9) 0.2188(7) 0.5718(5)
H57A H 0.8191 0.1976 0.5908
C69A C 0.8472(9) 0.2597(7) 0.5819(6)
H58A H 0.8563 0.2669 0.6091
C70A C 0.8548(8) 0.2908(7) 0.5549(6)
C71A C 0.8751(8) 0.3369(7) 0.5651(5)
H59A H 0.8840 0.3444 0.5922
C72A C 0.8952(3) 0.4096(2) 0.5501(2)
C73A C 0.9386(3) 0.4325(3) 0.5308(3)
H60A H 0.9581 0.4185 0.5107
C74A C 0.9536(3) 0.4761(3) 0.5410(2)
H61A H 0.9833 0.4914 0.5278
C75A C 0.9256(3) 0.4977(2) 0.5706(2)
C76A C 0.8822(4) 0.4741(2) 0.5897(2)
H62A H 0.8628 0.4881 0.6099
C77A C 0.8670(3) 0.4305(2) 0.57965(18)
H63A H 0.8374 0.4151 0.5929
C78A C 0.9407(4) 0.5451(3) 0.5808(3)
H64A H 0.9501 0.5607 0.5572
H65A H 0.9773 0.5464 0.6012
H66A H 0.9046 0.5589 0.5907
C79A C 0.7196(3) 0.3336(2) 0.52457(19)
C80A C 0.6982(4) 0.2919(2) 0.5117(2)
H67A H 0.7028 0.2824 0.4858
C81A C 0.6701(3) 0.2643(2) 0.5370(3)
H68A H 0.6557 0.2360 0.5279
C82A C 0.6629(3) 0.2774(2) 0.5754(2)
C83A C 0.6844(3) 0.3194(2) 0.5878(2)
H69A H 0.6797 0.3290 0.6137
C84A C 0.7125(3) 0.3472(2) 0.5627(2)
H70A H 0.7269 0.3755 0.5717
C85A C 0.6339(4) 0.2471(3) 0.6029(3)
H71A H 0.6012 0.2292 0.5877
H72A H 0.6153 0.2645 0.6225
H73A H 0.6665 0.2277 0.6163
C86A C 0.7414(8) 0.4012(6) 0.4959(4)
H74A H 0.7087 0.4148 0.5079
C87A C 0.7785(8) 0.4274(6) 0.4735(4)
C88A C 0.7627(8) 0.4703(6) 0.4638(4)
H75A H 0.7274 0.4831 0.4736
C89A C 0.7969(8) 0.4955(6) 0.4398(4)
H76A H 0.7877 0.5256 0.4340
C90A C 0.8458(8) 0.4729(7) 0.4250(5)
C91A C 0.8585(8) 0.4290(6) 0.4351(4)
H77A H 0.8917 0.4148 0.4242
C92A C 0.8997(8) 0.4782(6) 0.3636(5)
H78A H 0.8869 0.4490 0.3566
C93A C 0.8842(8) 0.4964(6) 0.3981(5)
C94A C 0.9044(8) 0.5398(6) 0.4084(5)
H79A H 0.8947 0.5536 0.4318
C95A C 0.9398(8) 0.5612(6) 0.3821(5)
H80A H 0.9544 0.5903 0.3882
C96A C 0.9541(8) 0.5419(6) 0.3482(5)
C97A C 0.9912(9) 0.5632(7) 0.3220(6)
H81A H 1.0097 0.5912 0.3281
C98A C 1.0245(3) 0.5669(3) 0.2590(3)
C99A C 1.0124(3) 0.6116(3) 0.2520(2)
H82A H 0.9842 0.6268 0.2666
C100A C 1.0415(4) 0.6340(4) 0.2237(3)
H83A H 1.0329 0.6644 0.2191
C101A C 1.0834(4) 0.6124(4) 0.2018(3)
C102A C 1.0949(4) 0.5676(4) 0.2091(3)
H84A H 1.1229 0.5523 0.1945
C103A C 1.0659(4) 0.5449(4) 0.2374(3)
H85A H 1.0744 0.5145 0.2419
C104A C 1.1159(5) 0.6370(5) 0.1720(4)
H86A H 1.1556 0.6222 0.1688
H87A H 1.1245 0.6672 0.1811
H88A H 1.0888 0.6375 0.1466
C105A C 0.8324(3) 0.5606(2) 0.2813(2)
C106A C 0.8343(3) 0.6065(2) 0.2807(2)
H89A H 0.8574 0.6213 0.2627
C107A C 0.8024(4) 0.6309(3) 0.3066(3)
H90A H 0.8041 0.6621 0.3059
C108A C 0.7680(3) 0.6099(3) 0.3334(2)
C109A C 0.7667(3) 0.5638(3) 0.3337(2)
H91A H 0.7438 0.5490 0.3517
C110A C 0.7985(4) 0.5393(3) 0.3079(3)
H92A H 0.7970 0.5080 0.3085
C111A C 0.7324(4) 0.6363(4) 0.3605(3)
H93A H 0.6880 0.6275 0.3567
H94A H 0.7357 0.6677 0.3546
H95A H 0.7502 0.6308 0.3880
C112A C 0.8734(7) 0.5478(5) 0.2206(5)
H96A H 0.8525 0.5733 0.2094
C113A C 0.9113(8) 0.5222(6) 0.1979(5)
C114A C 0.9135(8) 0.5327(5) 0.1579(5)
H97A H 0.8920 0.5579 0.1464
C115A C 0.9471(8) 0.5062(5) 0.1360(4)
H98A H 0.9494 0.5128 0.1091
C116A C 0.9785(7) 0.4687(5) 0.1540(4)
C117A C 0.9748(8) 0.4629(5) 0.1946(5)
H99A H 0.9978 0.4391 0.2075
C118A C 1.0074(7) 0.3943(5) 0.1336(4)
H100A H 0.9781 0.3838 0.1500
C119A C 1.0168(7) 0.4383(6) 0.1325(4)
C120A C 1.0593(7) 0.4540(5) 0.1061(4)
H101A H 1.0663 0.4847 0.1033
C121A C 1.0882(7) 0.4252(5) 0.0859(4)
H102A H 1.1166 0.4350 0.0686
C122A C 1.0775(7) 0.3813(5) 0.0898(5)
C123A C 1.1066(8) 0.3472(6) 0.0654(5)
H103A H 1.1325 0.3563 0.0464
C124A C 1.1224(5) 0.2754(4) 0.0465(4)
C125A C 1.1169(6) 0.2827(3) 0.0059(4)
H104A H 1.1063 0.3112 -0.0044
C126A C 1.1269(6) 0.2483(4) -0.0196(3)
H105A H 1.1230 0.2536 -0.0472
C127A C 1.1427(5) 0.2060(4) -0.0052(3)
C128A C 1.1478(6) 0.1991(3) 0.0357(3)
H106A H 1.1583 0.1707 0.0460
C129A C 1.1378(6) 0.2334(4) 0.0613(3)
H107A H 1.1416 0.2282 0.0889
C130A C 1.1551(9) 0.1692(5) -0.0327(5)
H108A H 1.1195 0.1666 -0.0537
H109A H 1.1602 0.1415 -0.0180
H110A H 1.1935 0.1755 -0.0444
C131A C 0.6438(8) 0.0935(5) 0.3101(4)
H111A H 0.6622 0.0689 0.3245
C132A C 0.6813(8) 0.1300(5) 0.3071(4)
C133A C 0.6539(8) 0.1654(5) 0.2852(4)
H112A H 0.6772 0.1914 0.2820
C134A C 0.5911(8) 0.1616(5) 0.2679(4)
H113A H 0.5712 0.1858 0.2537
C135A C 0.5582(7) 0.1236(6) 0.2714(4)
C136A C 0.4940(8) 0.1166(6) 0.2519(4)
H114A H 0.4726 0.1394 0.2366
C137A C 0.4054(6) 0.0771(5) 0.2381(4)
C138A C 0.3866(6) 0.0362(5) 0.2218(4)
H115A H 0.4157 0.0126 0.2232
C139A C 0.3250(7) 0.0301(3) 0.2037(4)
H116A H 0.3128 0.0022 0.1927
C140A C 0.2810(6) 0.0645(4) 0.2014(3)
C141A C 0.3006(7) 0.1053(4) 0.2177(4)
H117A H 0.2716 0.1290 0.2164
C142A C 0.3621(7) 0.1116(4) 0.2359(4)
H118A H 0.3746 0.1395 0.2468
C143A C 0.2142(6) 0.0574(7) 0.1826(5)
H119A H 0.1884 0.0482 0.2028
H120A H 0.2132 0.0345 0.1624
H121A H 0.1976 0.0849 0.1705
C144A C 0.7658(8) 0.1071(5) 0.3584(4)
H122A H 0.7366 0.0879 0.3682
C145A C 0.7456(8) 0.1320(5) 0.3245(4)
C146A C 0.7883(8) 0.1599(5) 0.3104(4)
H123A H 0.7767 0.1778 0.2878
C147A C 0.8493(8) 0.1610(5) 0.3305(4)
H124A H 0.8801 0.1787 0.3205
C148A C 0.8655(8) 0.1375(5) 0.3639(4)
C149A C 0.9253(8) 0.1446(6) 0.3885(5)
H125A H 0.9560 0.1639 0.3805
C150A C 0.9880(6) 0.1385(6) 0.4490(4)
C151A C 0.9958(8) 0.1826(5) 0.4601(5)
H126A H 0.9646 0.2037 0.4507
C152A C 1.0494(9) 0.1959(4) 0.4849(5)
H127A H 1.0543 0.2260 0.4922
C153A C 1.0961(7) 0.1656(5) 0.4992(4)
C154A C 1.0876(6) 0.1214(4) 0.4878(4)
H128A H 1.1188 0.1003 0.4970
C155A C 1.0342(7) 0.1079(4) 0.4630(4)
H129A H 1.0292 0.0779 0.4555
C156A C 1.1531(9) 0.1798(8) 0.5268(6)
H130A H 1.1912 0.1729 0.5150
H131A H 1.1541 0.1642 0.5519
H132A H 1.1511 0.2116 0.5313
C157A C 0.7481(8) 0.3119(4) 0.0910(4)
H133A H 0.7799 0.3238 0.0772
C158A C 0.7656(7) 0.2923(4) 0.1290(3)
C159A C 0.7177(7) 0.2766(5) 0.1477(4)
H134A H 0.7271 0.2642 0.1733
C160A C 0.6571(7) 0.2784(5) 0.1307(4)
H135A H 0.6245 0.2661 0.1436
C161A C 0.6435(7) 0.2988(5) 0.0936(4)
C162A C 0.5788(7) 0.3022(5) 0.0734(5)
H136A H 0.5449 0.2876 0.0833
C163A C 0.5058(8) 0.3295(5) 0.0234(7)
C164A C 0.4883(9) 0.3211(6) -0.0167(7)
H137A H 0.5192 0.3129 -0.0328
C165A C 0.4254(10) 0.3249(6) -0.0331(5)
H138A H 0.4140 0.3192 -0.0604
C166A C 0.3788(8) 0.3370(4) -0.0099(5)
C167A C 0.3972(10) 0.3454(6) 0.0303(5)
H139A H 0.3664 0.3538 0.0465
C168A C 0.4600(11) 0.3417(6) 0.0468(5)
H140A H 0.4715 0.3475 0.0741
C169A C 0.3108(8) 0.3400(7) -0.0275(8)
H141A H 0.3074 0.3362 -0.0562
H142A H 0.2940 0.3689 -0.0216
H143A H 0.2866 0.3169 -0.0162
C183A C 0.8805(8) 0.2943(4) 0.1233(4)
H155A H 0.8702 0.2984 0.0957
C184A C 0.8307(7) 0.2913(4) 0.1460(4)
C185A C 0.8527(8) 0.2862(6) 0.1862(4)
H156A H 0.8223 0.2858 0.2040
C186A C 0.9140(8) 0.2817(5) 0.2017(4)
H157A H 0.9264 0.2769 0.2290
C187A C 0.9540(7) 0.2843(5) 0.1769(4)
C188A C 1.0252(8) 0.2790(5) 0.1886(4)
H158A H 1.0420 0.2762 0.2156
C189A C 1.3197(13) 0.2511(11) 0.2170(11)
H159A H 1.3253 0.2191 0.2182
H160A H 1.3330 0.2638 0.2431
H161A H 1.3452 0.2635 0.1979
C190A C 1.1279(11) 0.2723(9) 0.1766(9)
C191A C 1.1737(15) 0.2916(7) 0.1569(6)
H162A H 1.1618 0.3086 0.1338
C192A C 1.2370(13) 0.2861(7) 0.1711(6)
H163A H 1.2683 0.2993 0.1577
C193A C 1.2543(10) 0.2613(7) 0.2049(6)
C194A C 1.2085(13) 0.2420(7) 0.2245(6)
H164A H 1.2204 0.2250 0.2477
C195A C 1.1453(11) 0.2475(8) 0.2104(9)
H165A H 1.1139 0.2343 0.2238
Cl1 Cl 0.7989(3) 0.4172(2) 0.14820(16)
O1 O 0.7938(7) 0.4607(5) 0.1609(4)
O2 O 0.8488(9) 0.3955(5) 0.1738(4)
O3 O 0.8097(6) 0.4130(5) 0.1095(4)
O4 O 0.7362(9) 0.3982(6) 0.1489(4)
Cl2 Cl 0.8210(3) 0.18416(19) 0.08509(15)
O5 O 0.8599(7) 0.1913(4) 0.1208(4)
O6 O 0.8395(6) 0.2136(4) 0.0570(3)
O7 O 0.7545(7) 0.1938(4) 0.0895(3)
O8 O 0.8256(5) 0.1397(4) 0.0730(3)
Cl3 Cl 0.7500 0.0354(3) 0.2500
O9 O 0.6984(9) 0.0627(5) 0.2332(4)
O10 O 0.7691(7) 0.0108(5) 0.2209(4)
O9A O 0.8016(9) 0.0627(5) 0.2668(4)
O10A O 0.7309(7) 0.0108(5) 0.2791(4)
Cl4 Cl 0.4830(2) 0.24816(13) 0.18004(11)
O11 O 0.5580(5) 0.2461(3) 0.1982(3)
O12 O 0.4649(9) 0.2081(6) 0.1888(8)
O13 O 0.4871(10) 0.2590(10) 0.1426(5)
O14 O 0.4670(8) 0.2830(6) 0.2040(6)
Cl5 Cl 0.2437(3) 0.0684(3) 0.05527(16)
O18 O 0.2429(18) 0.0215(8) 0.0343(11)
O19 O 0.2654(17) 0.0557(12) 0.0982(9)
O20 O 0.2861(17) 0.1054(11) 0.0389(11)
O21 O 0.1863(18) 0.0883(15) 0.0389(14)
Cl6 Cl 0.8571(3) 0.5903(3) 0.04693(19)
O26 O 0.8179(11) 0.5620(7) 0.0647(7)
O27 O 0.9169(8) 0.5821(8) 0.0698(6)
O28 O 0.8569(11) 0.5857(9) 0.0055(5)
O29 O 0.8457(13) 0.6356(6) 0.0565(7)
Cl7 Cl 0.1998(5) 0.5378(4) 0.1117(4)
O34 O 0.1333(11) 0.5535(7) 0.1083(6)
O35 O 0.2155(13) 0.5391(9) 0.0674(6)
O36 O 0.2016(19) 0.4874(7) 0.1234(12)
O37 O 0.2573(19) 0.5606(15) 0.1387(13)
Cl8 Cl 0.0832(4) 0.8851(2) 0.07668(18)
O41 O 0.0738(14) 0.9296(6) 0.0903(7)
O42 O 0.1446(11) 0.8657(11) 0.0920(10)
O43 O 0.0899(15) 0.8916(10) 0.0352(5)
O44 O 0.0251(11) 0.8617(10) 0.0794(11)
Cl9 Cl 0.7500 0.24727(18) 0.2500
N31 N 0.4975(10) 0.0854(6) 0.1602(5)
C217 C 0.3944(14) 0.1250(9) 0.1254(8)
H187 H 0.3923 0.1542 0.1373
H188 H 0.3559 0.1086 0.1283
H189 H 0.3986 0.1282 0.0973
C218 C 0.4515(13) 0.1000(8) 0.1462(7)
loop_
_geom_bond_atom_site_label_1
_geom_bond_atom_site_label_2
_geom_bond_site_symmetry_1
_geom_bond_site_symmetry_2
Zn1 N1 1_555 1_555
Zn2 N3 1_555 1_555
Zn3 N7 1_555 1_555
Zn4 N11 1_555 1_555
Zn5 N15 1_555 1_555
N1 C1 1_555 1_555
N2 Zn1 1_555 1_555
N3 C14 1_555 1_555
N4 Zn2 1_555 1_555
N5 Zn2 1_555 1_555
N6 Zn2 1_555 1_555
N7 C40 1_555 1_555
N8 Zn3 1_555 1_555
N9 Zn3 1_555 1_555
N10 Zn3 1_555 1_555
N11 C66 1_555 1_555
N12 Zn4 1_555 1_555
N13 Zn4 1_555 1_555
N14 Zn4 1_555 1_555
N15 C92 1_555 1_555
N16 Zn5 1_555 1_555
N17 Zn5 1_555 1_555
N18 Zn5 1_555 1_555
N19 Zn1 1_555 1_555
N20 Zn1 1_555 1_555
N21 Zn3 1_555 1_555
N22 Zn3 1_555 1_555
N23 C131 1_555 1_555
N24 C136 1_555 1_555
N25 Zn1 1_555 1_555
N26 Zn1 1_555 1_555
N27 Zn5 1_555 1_555
N28 Zn5 1_555 1_555
N29 C157 1_555 1_555
N30 C162 1_555 1_555
C1 C2 1_555 1_555
C2 H1 1_555 1_555
C3 C2 1_555 1_555
H2 C3 1_555 1_555
C4 C3 1_555 1_555
C5 C4 1_555 1_555
H3 C5 1_555 1_555
C6 C1 1_555 1_555
H4 C6 1_555 1_555
C7 C4 1_555 1_555
H5 C7 1_555 1_555
H6 C7 1_555 1_555
H7 C7 1_555 1_555
C8 N1 1_555 1_555
H8 C8 1_555 1_555
C9 N2 1_555 1_555
C10 C9 1_555 1_555
H9 C10 1_555 1_555
C11 C10 1_555 1_555
H10 C11 1_555 1_555
C12 C11 1_555 1_555
C13 N2 1_555 1_555
H11 C13 1_555 1_555
C14 H12 1_555 1_555
C15 C12 1_555 1_555
C16 C15 1_555 1_555
H13 C16 1_555 1_555
C17 C16 1_555 1_555
H14 C17 1_555 1_555
C18 N3 1_555 1_555
C19 N4 1_555 1_555
H15 C19 1_555 1_555
C20 N4 1_555 1_555
C21 C20 1_555 1_555
H16 C21 1_555 1_555
C22 C21 1_555 1_555
H17 C22 1_555 1_555
C23 C22 1_555 1_555
C24 C23 1_555 1_555
H18 C24 1_555 1_555
C25 C20 1_555 1_555
H19 C25 1_555 1_555
C26 C23 1_555 1_555
H20 C26 1_555 1_555
H21 C26 1_555 1_555
H22 C26 1_555 1_555
C27 N5 1_555 1_555
C28 C27 1_555 1_555
H23 C28 1_555 1_555
C29 C28 1_555 1_555
H24 C29 1_555 1_555
C30 C29 1_555 1_555
C31 C30 1_555 1_555
H25 C31 1_555 1_555
C32 C27 1_555 1_555
H26 C32 1_555 1_555
C33 C30 1_555 1_555
H27 C33 1_555 1_555
H28 C33 1_555 1_555
H29 C33 1_555 1_555
C34 N5 1_555 1_555
H30 C34 1_555 1_555
C35 N6 1_555 1_555
C36 C35 1_555 1_555
H31 C36 1_555 1_555
C37 C36 1_555 1_555
H32 C37 1_555 1_555
C38 C37 1_555 1_555
C39 N6 1_555 1_555
H33 C39 1_555 1_555
C40 H34 1_555 1_555
C41 C38 1_555 1_555
C42 C41 1_555 1_555
H35 C42 1_555 1_555
C43 C42 1_555 1_555
H36 C43 1_555 1_555
C44 N7 1_555 1_555
C45 N8 1_555 1_555
H37 C45 1_555 1_555
C46 N8 1_555 1_555
C47 C46 1_555 1_555
H38 C47 1_555 1_555
C48 C47 1_555 1_555
H39 C48 1_555 1_555
C49 C48 1_555 1_555
C50 C49 1_555 1_555
H40 C50 1_555 1_555
C51 C46 1_555 1_555
H41 C51 1_555 1_555
C52 C49 1_555 1_555
H42 C52 1_555 1_555
H43 C52 1_555 1_555
H44 C52 1_555 1_555
C53 N9 1_555 1_555
C54 C53 1_555 1_555
H45 C54 1_555 1_555
C55 C54 1_555 1_555
H46 C55 1_555 1_555
C56 C55 1_555 1_555
C57 C56 1_555 1_555
H47 C57 1_555 1_555
C58 C53 1_555 1_555
H48 C58 1_555 1_555
C59 C56 1_555 1_555
H49 C59 1_555 1_555
H50 C59 1_555 1_555
H51 C59 1_555 1_555
C60 N9 1_555 1_555
H52 C60 1_555 1_555
C61 N10 1_555 1_555
C62 C61 1_555 1_555
H53 C62 1_555 1_555
C63 C62 1_555 1_555
H54 C63 1_555 1_555
C64 C63 1_555 1_555
C65 N10 1_555 1_555
H55 C65 1_555 1_555
C66 H56 1_555 1_555
C67 C64 1_555 1_555
C68 C67 1_555 1_555
H57 C68 1_555 1_555
C69 C68 1_555 1_555
H58 C69 1_555 1_555
C70 N11 1_555 1_555
C71 N12 1_555 1_555
H59 C71 1_555 1_555
C72 N12 1_555 1_555
C73 C72 1_555 1_555
H60 C73 1_555 1_555
C74 C73 1_555 1_555
H61 C74 1_555 1_555
C75 C74 1_555 1_555
C76 C75 1_555 1_555
H62 C76 1_555 1_555
C77 C72 1_555 1_555
H63 C77 1_555 1_555
C78 C75 1_555 1_555
H64 C78 1_555 1_555
H65 C78 1_555 1_555
H66 C78 1_555 1_555
C79 N13 1_555 1_555
C80 C79 1_555 1_555
H67 C80 1_555 1_555
C81 C80 1_555 1_555
H68 C81 1_555 1_555
C82 C81 1_555 1_555
C83 C82 1_555 1_555
H69 C83 1_555 1_555
C84 C79 1_555 1_555
H70 C84 1_555 1_555
C85 C82 1_555 1_555
H71 C85 1_555 1_555
H72 C85 1_555 1_555
H73 C85 1_555 1_555
C86 N13 1_555 1_555
H74 C86 1_555 1_555
C87 N14 1_555 1_555
C88 C87 1_555 1_555
H75 C88 1_555 1_555
C89 C88 1_555 1_555
H76 C89 1_555 1_555
C90 C89 1_555 1_555
C91 N14 1_555 1_555
H77 C91 1_555 1_555
C92 H78 1_555 1_555
C93 C90 1_555 1_555
C94 C93 1_555 1_555
H79 C94 1_555 1_555
C95 C94 1_555 1_555
H80 C95 1_555 1_555
C96 N15 1_555 1_555
C97 N16 1_555 1_555
H81 C97 1_555 1_555
C98 N16 1_555 1_555
C99 C98 1_555 1_555
H82 C99 1_555 1_555
C100 C99 1_555 1_555
H83 C100 1_555 1_555
C101 C100 1_555 1_555
C102 C101 1_555 1_555
H84 C102 1_555 1_555
C103 C98 1_555 1_555
H85 C103 1_555 1_555
C104 C101 1_555 1_555
H86 C104 1_555 1_555
H87 C104 1_555 1_555
H88 C104 1_555 1_555
C105 N17 1_555 1_555
C106 C105 1_555 1_555
H89 C106 1_555 1_555
C107 C106 1_555 1_555
H90 C107 1_555 1_555
C108 C107 1_555 1_555
C109 C108 1_555 1_555
H91 C109 1_555 1_555
C110 C105 1_555 1_555
H92 C110 1_555 1_555
C111 C108 1_555 1_555
H93 C111 1_555 1_555
H94 C111 1_555 1_555
H95 C111 1_555 1_555
C112 N17 1_555 1_555
H96 C112 1_555 1_555
C113 N18 1_555 1_555
C114 C113 1_555 1_555
H97 C114 1_555 1_555
C115 C114 1_555 1_555
H98 C115 1_555 1_555
C116 C115 1_555 1_555
C117 N18 1_555 1_555
H99 C117 1_555 1_555
C118 N19 1_555 1_555
H100 C118 1_555 1_555
C119 C116 1_555 1_555
C120 C119 1_555 1_555
H101 C120 1_555 1_555
C121 C120 1_555 1_555
H102 C121 1_555 1_555
C122 N19 1_555 1_555
C123 N20 1_555 1_555
H103 C123 1_555 1_555
C124 N20 1_555 1_555
C125 C124 1_555 1_555
H104 C125 1_555 1_555
C126 C125 1_555 1_555
H105 C126 1_555 1_555
C127 C126 1_555 1_555
C128 C127 1_555 1_555
H106 C128 1_555 1_555
C129 C124 1_555 1_555
H107 C129 1_555 1_555
C130 C127 1_555 1_555
H108 C130 1_555 1_555
H109 C130 1_555 1_555
H110 C130 1_555 1_555
C131 H111 1_555 1_555
C132 C131 1_555 1_555
C133 C132 1_555 1_555
H112 C133 1_555 1_555
C134 C133 1_555 1_555
H113 C134 1_555 1_555
C135 N23 1_555 1_555
C136 C135 1_555 1_555
H114 C136 1_555 1_555
C137 N24 1_555 1_555
C138 C137 1_555 1_555
H115 C138 1_555 1_555
C139 C138 1_555 1_555
H116 C139 1_555 1_555
C140 C139 1_555 1_555
C141 C140 1_555 1_555
H117 C141 1_555 1_555
C142 C137 1_555 1_555
H118 C142 1_555 1_555
C143 C140 1_555 1_555
H119 C143 1_555 1_555
H120 C143 1_555 1_555
H121 C143 1_555 1_555
C144 N21 1_555 1_555
H122 C144 1_555 1_555
C145 C132 1_555 1_555
C146 C145 1_555 1_555
H123 C146 1_555 1_555
C147 C146 1_555 1_555
H124 C147 1_555 1_555
C148 N21 1_555 1_555
C149 N22 1_555 1_555
H125 C149 1_555 1_555
C150 N22 1_555 1_555
C151 C150 1_555 1_555
H126 C151 1_555 1_555
C152 C151 1_555 1_555
H127 C152 1_555 1_555
C153 C152 1_555 1_555
C154 C153 1_555 1_555
H128 C154 1_555 1_555
C155 C150 1_555 1_555
H129 C155 1_555 1_555
C156 C153 1_555 1_555
H130 C156 1_555 1_555
H131 C156 1_555 1_555
H132 C156 1_555 1_555
C157 H133 1_555 1_555
C158 C157 1_555 1_555
C159 C158 1_555 1_555
H134 C159 1_555 1_555
C160 C159 1_555 1_555
H135 C160 1_555 1_555
C161 N29 1_555 1_555
C162 C161 1_555 1_555
H136 C162 1_555 1_555
C163 N30 1_555 1_555
C164 C163 1_555 1_555
H137 C164 1_555 1_555
C165 C164 1_555 1_555
H138 C165 1_555 1_555
C166 C165 1_555 1_555
C167 C166 1_555 1_555
H139 C167 1_555 1_555
C168 C163 1_555 1_555
H140 C168 1_555 1_555
C169 C166 1_555 1_555
H141 C169 1_555 1_555
H142 C169 1_555 1_555
H143 C169 1_555 1_555
C170 N27 1_555 1_555
H144 C170 1_555 1_555
C171 C170 1_555 1_555
C172 C171 1_555 1_555
H145 C172 1_555 1_555
C173 C172 1_555 1_555
H146 C173 1_555 1_555
C174 N27 1_555 1_555
C175 N28 1_555 1_555
H147 C175 1_555 1_555
C176 N28 1_555 1_555
C177 C176 1_555 1_555
H148 C177 1_555 1_555
C178 C177 1_555 1_555
H149 C178 1_555 1_555
C179 C178 1_555 1_555
C180 C179 1_555 1_555
H150 C180 1_555 1_555
C181 C176 1_555 1_555
H151 C181 1_555 1_555
C182 C179 1_555 1_555
H152 C182 1_555 1_555
H153 C182 1_555 1_555
H154 C182 1_555 1_555
C183 N25 1_555 1_555
H155 C183 1_555 1_555
C184 C158 1_555 1_555
C185 C184 1_555 1_555
H156 C185 1_555 1_555
C186 C185 1_555 1_555
H157 C186 1_555 1_555
C187 N25 1_555 1_555
C188 N26 1_555 1_555
H158 C188 1_555 1_555
C189 H159 1_555 1_555
H160 C189 1_555 1_555
H161 C189 1_555 1_555
C190 N26 1_555 1_555
C191 C190 1_555 1_555
H162 C191 1_555 1_555
C192 C191 1_555 1_555
H163 C192 1_555 1_555
C193 C189 1_555 1_555
C194 C193 1_555 1_555
H164 C194 1_555 1_555
C195 C190 1_555 1_555
H165 C195 1_555 1_555
Cl1 O1 1_555 1_555
O2 Cl1 1_555 1_555
O3 Cl1 1_555 1_555
O4 Cl1 1_555 1_555
Cl2 O5 1_555 1_555
O6 Cl2 1_555 1_555
O7 Cl2 1_555 1_555
O8 Cl2 1_555 1_555
Cl3 O9 1_555 1_555
O10 Cl3 1_555 1_555
Cl4 O11 1_555 1_555
O12 Cl4 1_555 1_555
O13 Cl4 1_555 1_555
O14 Cl4 1_555 1_555
Cl5 O18 1_555 1_555
O19 Cl5 1_555 1_555
O20 Cl5 1_555 1_555
O21 Cl5 1_555 1_555
Cl6 O26 1_555 1_555
O27 Cl6 1_555 1_555
O28 Cl6 1_555 1_555
O29 Cl6 1_555 1_555
Cl7 O34 1_555 1_555
O35 Cl7 1_555 1_555
O36 Cl7 1_555 1_555
O37 Cl7 1_555 1_555
Cl8 O41 1_555 1_555
O42 Cl8 1_555 1_555
O43 Cl8 1_555 1_555
O44 Cl8 1_555 1_555
N31 C218 1_555 1_555
C217 H187 1_555 1_555
H188 C217 1_555 1_555
H189 C217 1_555 1_555
C218 C217 1_555 1_555
N27A C170A 1_555 1_555
N28A C175A 1_555 1_555
C170A H144A 1_555 1_555
C171A C171 1_555 1_555
C172A C171A 1_555 1_555
H145A C172A 1_555 1_555
C173A C172A 1_555 1_555
H146A C173A 1_555 1_555
C174A N27A 1_555 1_555
C175A C174A 1_555 1_555
H147A C175A 1_555 1_555
C176A N28A 1_555 1_555
C177A C176A 1_555 1_555
H148A C177A 1_555 1_555
C178A C177A 1_555 1_555
H149A C178A 1_555 1_555
C179A C178A 1_555 1_555
C180A C179A 1_555 1_555
H150A C180A 1_555 1_555
C181A C176A 1_555 1_555
H151A C181A 1_555 1_555
C182A C179A 1_555 1_555
H152A C182A 1_555 1_555
H153A C182A 1_555 1_555
H154A C182A 1_555 1_555
Zn1A N1A 1_555 1_555
Zn2A N23 1_555 1_555
Zn3A N7A 1_555 1_555
Zn4A N29 1_555 1_555
Zn5A N27A 1_555 1_555
N1A C1A 1_555 1_555
N2A Zn1A 1_555 1_555
N3A Zn2A 1_555 1_555
N4A Zn2A 1_555 1_555
N5A Zn2A 1_555 1_555
N6A Zn2A 1_555 1_555
N7A C40A 1_555 1_555
N8A Zn3A 1_555 1_555
N9A Zn3A 1_555 1_555
N10A Zn3A 1_555 1_555
N11A Zn4A 1_555 1_555
N12A Zn4A 1_555 1_555
N13A Zn4A 1_555 1_555
N14A Zn4A 1_555 1_555
N15A Zn5A 1_555 1_555
N16A Zn5A 1_555 1_555
N17A Zn5A 1_555 1_555
N18A Zn5A 1_555 1_555
N19A Zn1A 1_555 1_555
N20A Zn1A 1_555 1_555
N21A Zn3A 1_555 1_555
N22A Zn3A 1_555 1_555
N23A Zn2 1_555 1_555
N24A Zn2 1_555 1_555
N25A Zn1A 1_555 1_555
N26A Zn1A 1_555 1_555
N29A Zn4 1_555 1_555
N30A Zn4 1_555 1_555
C1A C2A 1_555 1_555
C2A H1A 1_555 1_555
C3A C2A 1_555 1_555
H2A C3A 1_555 1_555
C4A C3A 1_555 1_555
C5A C4A 1_555 1_555
H3A C5A 1_555 1_555
C6A C1A 1_555 1_555
H4A C6A 1_555 1_555
C7A C4A 1_555 1_555
H5A C7A 1_555 1_555
H6A C7A 1_555 1_555
H7A C7A 1_555 1_555
C8A N1A 1_555 1_555
H8A C8A 1_555 1_555
C9A N2A 1_555 1_555
C10A C9A 1_555 1_555
H9A C10A 1_555 1_555
C11A C10A 1_555 1_555
H10A C11A 1_555 1_555
C12A C11A 1_555 1_555
C13A N2A 1_555 1_555
H11A C13A 1_555 1_555
C14A N3A 1_555 1_555
H12A C14A 1_555 1_555
C15A C12A 1_555 1_555
C16A C15A 1_555 1_555
H13A C16A 1_555 1_555
C17A C16A 1_555 1_555
H14A C17A 1_555 1_555
C18A N3A 1_555 1_555
C19A N4A 1_555 1_555
H15A C19A 1_555 1_555
C20A N4A 1_555 1_555
C21A C20A 1_555 1_555
H16A C21A 1_555 1_555
C22A C21A 1_555 1_555
H17A C22A 1_555 1_555
C23A C22A 1_555 1_555
C24A C23A 1_555 1_555
H18A C24A 1_555 1_555
C25A C20A 1_555 1_555
H19A C25A 1_555 1_555
C26A C23A 1_555 1_555
H20A C26A 1_555 1_555
H21A C26A 1_555 1_555
H22A C26A 1_555 1_555
C27A N5A 1_555 1_555
C28A C27A 1_555 1_555
H23A C28A 1_555 1_555
C29A C28A 1_555 1_555
H24A C29A 1_555 1_555
C30A C29A 1_555 1_555
C31A C30A 1_555 1_555
H25A C31A 1_555 1_555
C32A C27A 1_555 1_555
H26A C32A 1_555 1_555
C33A C30A 1_555 1_555
H27A C33A 1_555 1_555
H28A C33A 1_555 1_555
H29A C33A 1_555 1_555
C34A N5A 1_555 1_555
H30A C34A 1_555 1_555
C35A N6A 1_555 1_555
C36A C35A 1_555 1_555
H31A C36A 1_555 1_555
C37A C36A 1_555 1_555
H32A C37A 1_555 1_555
C38A C37A 1_555 1_555
C39A N6A 1_555 1_555
H33A C39A 1_555 1_555
C40A H34A 1_555 1_555
C41A C38A 1_555 1_555
C42A C41A 1_555 1_555
H35A C42A 1_555 1_555
C43A C42A 1_555 1_555
H36A C43A 1_555 1_555
C44A N7A 1_555 1_555
C45A N8A 1_555 1_555
H37A C45A 1_555 1_555
C46A N8A 1_555 1_555
C47A C46A 1_555 1_555
H38A C47A 1_555 1_555
C48A C47A 1_555 1_555
H39A C48A 1_555 1_555
C49A C48A 1_555 1_555
C50A C49A 1_555 1_555
H40A C50A 1_555 1_555
C51A C46A 1_555 1_555
H41A C51A 1_555 1_555
C52A C49A 1_555 1_555
H42A C52A 1_555 1_555
H43A C52A 1_555 1_555
H44A C52A 1_555 1_555
C53A N9A 1_555 1_555
C54A C53A 1_555 1_555
H45A C54A 1_555 1_555
C55A C54A 1_555 1_555
H46A C55A 1_555 1_555
C56A C55A 1_555 1_555
C57A C56A 1_555 1_555
H47A C57A 1_555 1_555
C58A C53A 1_555 1_555
H48A C58A 1_555 1_555
C59A C56A 1_555 1_555
H49A C59A 1_555 1_555
H50A C59A 1_555 1_555
H51A C59A 1_555 1_555
C60A N9A 1_555 1_555
H52A C60A 1_555 1_555
C61A N10A 1_555 1_555
C62A C61A 1_555 1_555
H53A C62A 1_555 1_555
C63A C62A 1_555 1_555
H54A C63A 1_555 1_555
C64A C63A 1_555 1_555
C65A N10A 1_555 1_555
H55A C65A 1_555 1_555
C66A N11A 1_555 1_555
H56A C66A 1_555 1_555
C67A C64A 1_555 1_555
C68A C67A 1_555 1_555
H57A C68A 1_555 1_555
C69A C68A 1_555 1_555
H58A C69A 1_555 1_555
C70A N11A 1_555 1_555
C71A N12A 1_555 1_555
H59A C71A 1_555 1_555
C72A N12A 1_555 1_555
C73A C72A 1_555 1_555
H60A C73A 1_555 1_555
C74A C73A 1_555 1_555
H61A C74A 1_555 1_555
C75A C74A 1_555 1_555
C76A C75A 1_555 1_555
H62A C76A 1_555 1_555
C77A C72A 1_555 1_555
H63A C77A 1_555 1_555
C78A C75A 1_555 1_555
H64A C78A 1_555 1_555
H65A C78A 1_555 1_555
H66A C78A 1_555 1_555
C79A N13A 1_555 1_555
C80A C79A 1_555 1_555
H67A C80A 1_555 1_555
C81A C80A 1_555 1_555
H68A C81A 1_555 1_555
C82A C81A 1_555 1_555
C83A C82A 1_555 1_555
H69A C83A 1_555 1_555
C84A C79A 1_555 1_555
H70A C84A 1_555 1_555
C85A C82A 1_555 1_555
H71A C85A 1_555 1_555
H72A C85A 1_555 1_555
H73A C85A 1_555 1_555
C86A N13A 1_555 1_555
H74A C86A 1_555 1_555
C87A N14A 1_555 1_555
C88A C87A 1_555 1_555
H75A C88A 1_555 1_555
C89A C88A 1_555 1_555
H76A C89A 1_555 1_555
C90A C89A 1_555 1_555
C91A N14A 1_555 1_555
H77A C91A 1_555 1_555
C92A N15A 1_555 1_555
H78A C92A 1_555 1_555
C93A C90A 1_555 1_555
C94A C93A 1_555 1_555
H79A C94A 1_555 1_555
C95A C94A 1_555 1_555
H80A C95A 1_555 1_555
C96A N15A 1_555 1_555
C97A N16A 1_555 1_555
H81A C97A 1_555 1_555
C98A N16A 1_555 1_555
C99A C98A 1_555 1_555
H82A C99A 1_555 1_555
C100A C99A 1_555 1_555
H83A C100A 1_555 1_555
C101A C100A 1_555 1_555
C102A C101A 1_555 1_555
H84A C102A 1_555 1_555
C103A C98A 1_555 1_555
H85A C103A 1_555 1_555
C104A C101A 1_555 1_555
H86A C104A 1_555 1_555
H87A C104A 1_555 1_555
H88A C104A 1_555 1_555
C105A N17A 1_555 1_555
C106A C105A 1_555 1_555
H89A C106A 1_555 1_555
C107A C106A 1_555 1_555
H90A C107A 1_555 1_555
C108A C107A 1_555 1_555
C109A C108A 1_555 1_555
H91A C109A 1_555 1_555
C110A C105A 1_555 1_555
H92A C110A 1_555 1_555
C111A C108A 1_555 1_555
H93A C111A 1_555 1_555
H94A C111A 1_555 1_555
H95A C111A 1_555 1_555
C112A N17A 1_555 1_555
H96A C112A 1_555 1_555
C113A N18A 1_555 1_555
C114A C113A 1_555 1_555
H97A C114A 1_555 1_555
C115A C114A 1_555 1_555
H98A C115A 1_555 1_555
C116A C115A 1_555 1_555
C117A N18A 1_555 1_555
H99A C117A 1_555 1_555
C118A N19A 1_555 1_555
H100A C118A 1_555 1_555
C119A C116A 1_555 1_555
C120A C119A 1_555 1_555
H101A C120A 1_555 1_555
C121A C120A 1_555 1_555
H102A C121A 1_555 1_555
C122A N19A 1_555 1_555
C123A N20A 1_555 1_555
H103A C123A 1_555 1_555
C124A N20A 1_555 1_555
C125A C124A 1_555 1_555
H104A C125A 1_555 1_555
C126A C125A 1_555 1_555
H105A C126A 1_555 1_555
C127A C126A 1_555 1_555
C128A C127A 1_555 1_555
H106A C128A 1_555 1_555
C129A C124A 1_555 1_555
H107A C129A 1_555 1_555
C130A C127A 1_555 1_555
H108A C130A 1_555 1_555
H109A C130A 1_555 1_555
H110A C130A 1_555 1_555
C131A N23A 1_555 1_555
H111A C131A 1_555 1_555
C132A C131A 1_555 1_555
C133A C132A 1_555 1_555
H112A C133A 1_555 1_555
C134A C133A 1_555 1_555
H113A C134A 1_555 1_555
C135A N23A 1_555 1_555
C136A N24A 1_555 1_555
H114A C136A 1_555 1_555
C137A N24A 1_555 1_555
C138A C137A 1_555 1_555
H115A C138A 1_555 1_555
C139A C138A 1_555 1_555
H116A C139A 1_555 1_555
C140A C139A 1_555 1_555
C141A C140A 1_555 1_555
H117A C141A 1_555 1_555
C142A C137A 1_555 1_555
H118A C142A 1_555 1_555
C143A C140A 1_555 1_555
H119A C143A 1_555 1_555
H120A C143A 1_555 1_555
H121A C143A 1_555 1_555
C144A N21A 1_555 1_555
H122A C144A 1_555 1_555
C145A C132A 1_555 1_555
C146A C145A 1_555 1_555
H123A C146A 1_555 1_555
C147A C146A 1_555 1_555
H124A C147A 1_555 1_555
C148A N21A 1_555 1_555
C149A N22A 1_555 1_555
H125A C149A 1_555 1_555
C150A N22A 1_555 1_555
C151A C150A 1_555 1_555
H126A C151A 1_555 1_555
C152A C151A 1_555 1_555
H127A C152A 1_555 1_555
C153A C152A 1_555 1_555
C154A C153A 1_555 1_555
H128A C154A 1_555 1_555
C155A C150A 1_555 1_555
H129A C155A 1_555 1_555
C156A C153A 1_555 1_555
H130A C156A 1_555 1_555
H131A C156A 1_555 1_555
H132A C156A 1_555 1_555
C157A N29A 1_555 1_555
H133A C157A 1_555 1_555
C158A C157A 1_555 1_555
C159A C158A 1_555 1_555
H134A C159A 1_555 1_555
C160A C159A 1_555 1_555
H135A C160A 1_555 1_555
C161A N29A 1_555 1_555
C162A N30A 1_555 1_555
H136A C162A 1_555 1_555
C163A N30A 1_555 1_555
C164A C163A 1_555 1_555
H137A C164A 1_555 1_555
C165A C164A 1_555 1_555
H138A C165A 1_555 1_555
C166A C165A 1_555 1_555
C167A C166A 1_555 1_555
H139A C167A 1_555 1_555
C168A C163A 1_555 1_555
H140A C168A 1_555 1_555
C169A C166A 1_555 1_555
H141A C169A 1_555 1_555
H142A C169A 1_555 1_555
H143A C169A 1_555 1_555
C183A N25A 1_555 1_555
H155A C183A 1_555 1_555
C184A C158A 1_555 1_555
C185A C184A 1_555 1_555
H156A C185A 1_555 1_555
C186A C185A 1_555 1_555
H157A C186A 1_555 1_555
C187A N25A 1_555 1_555
C188A N26A 1_555 1_555
H158A C188A 1_555 1_555
C189A H159A 1_555 1_555
H160A C189A 1_555 1_555
H161A C189A 1_555 1_555
C190A N26A 1_555 1_555
C191A C190A 1_555 1_555
H162A C191A 1_555 1_555
C192A C191A 1_555 1_555
H163A C192A 1_555 1_555
C193A C189A 1_555 1_555
C194A C193A 1_555 1_555
H164A C194A 1_555 1_555
C195A C190A 1_555 1_555
H165A C195A 1_555 1_555
O9A Cl3 1_555 1_555
O10A Cl3 1_555 1_555
N24 Zn2A 1_555 1_555
N30 Zn4A 1_555 1_555
C5 C6 1_555 1_555
C8 C9 1_555 1_555
C12 C13 1_555 1_555
C14 C15 1_555 1_555
C17 C18 1_555 1_555
C18 C19 1_555 1_555
C24 C25 1_555 1_555
C31 C32 1_555 1_555
C34 C35 1_555 1_555
C38 C39 1_555 1_555
C40 C41 1_555 1_555
C43 C44 1_555 1_555
C44 C45 1_555 1_555
C50 C51 1_555 1_555
C57 C58 1_555 1_555
C60 C61 1_555 1_555
C64 C65 1_555 1_555
C66 C67 1_555 1_555
C69 C70 1_555 1_555
C70 C71 1_555 1_555
C76 C77 1_555 1_555
C83 C84 1_555 1_555
C86 C87 1_555 1_555
C90 C91 1_555 1_555
C92 C93 1_555 1_555
C95 C96 1_555 1_555
C96 C97 1_555 1_555
C102 C103 1_555 1_555
C109 C110 1_555 1_555
C112 C113 1_555 1_555
C116 C117 1_555 1_555
C118 C119 1_555 1_555
C121 C122 1_555 1_555
C122 C123 1_555 1_555
C128 C129 1_555 1_555
C134 C135 1_555 1_555
C141 C142 1_555 1_555
C144 C145 1_555 1_555
C147 C148 1_555 1_555
C148 C149 1_555 1_555
C154 C155 1_555 1_555
C160 C161 1_555 1_555
C167 C168 1_555 1_555
C173 C174 1_555 1_555
C174 C175 1_555 1_555
C180 C181 1_555 1_555
C183 C184 1_555 1_555
C186 C187 1_555 1_555
C187 C188 1_555 1_555
C192 C193 1_555 1_555
C194 C195 1_555 1_555
N28A Zn5A 1_555 1_555
C170A C171A 1_555 1_555
C173A C174A 1_555 1_555
C180A C181A 1_555 1_555
C5A C6A 1_555 1_555
C8A C9A 1_555 1_555
C12A C13A 1_555 1_555
C14A C15A 1_555 1_555
C17A C18A 1_555 1_555
C18A C19A 1_555 1_555
C24A C25A 1_555 1_555
C31A C32A 1_555 1_555
C34A C35A 1_555 1_555
C38A C39A 1_555 1_555
C40A C41A 1_555 1_555
C43A C44A 1_555 1_555
C44A C45A 1_555 1_555
C50A C51A 1_555 1_555
C57A C58A 1_555 1_555
C60A C61A 1_555 1_555
C64A C65A 1_555 1_555
C66A C67A 1_555 1_555
C69A C70A 1_555 1_555
C70A C71A 1_555 1_555
C76A C77A 1_555 1_555
C83A C84A 1_555 1_555
C86A C87A 1_555 1_555
C90A C91A 1_555 1_555
C92A C93A 1_555 1_555
C95A C96A 1_555 1_555
C96A C97A 1_555 1_555
C102A C103A 1_555 1_555
C109A C110A 1_555 1_555
C112A C113A 1_555 1_555
C116A C117A 1_555 1_555
C118A C119A 1_555 1_555
C121A C122A 1_555 1_555
C122A C123A 1_555 1_555
C128A C129A 1_555 1_555
C134A C135A 1_555 1_555
C135A C136A 1_555 1_555
C141A C142A 1_555 1_555
C144A C145A 1_555 1_555
C147A C148A 1_555 1_555
C148A C149A 1_555 1_555
C154A C155A 1_555 1_555
C160A C161A 1_555 1_555
C161A C162A 1_555 1_555
C167A C168A 1_555 1_555
C183A C184A 1_555 1_555
C186A C187A 1_555 1_555
C187A C188A 1_555 1_555
C192A C193A 1_555 1_555
C194A C195A 1_555 1_555

#END
