
#######################################################################
#
#                 Cambridge Crystallographic Data Centre
#                                CCDC 
#
#######################################################################
#
# If this CIF has been generated from an entry in the Cambridge 
# Structural Database, then it will include bibliographic, chemical, 
# crystal, experimental, refinement or atomic coordinate data resulting 
# from the CCDC's data processing and validation procedures.
#
#######################################################################

data_NUPJAL
_chemical_formula_moiety         'C336 H264 Co4 N72 Os4 16+,16(Cl1 O4 1-),H2 O1'
_chemical_name_systematic        
"dodecakis(\m~2~-2,2'-(Naphthalene-1,5-diylbis(methylene-1H-pyrazole-1,3-diyl))dipyridine)-tetra-cobalt(ii)-tetra-osmium(ii) hexadecaperchlorate unknown solvate monohydrate"
_symmetry_cell_setting           rhombohedral
_symmetry_space_group_name_H-M   'R -3'
_symmetry_Int_Tables_number      148
_space_group_name_Hall           '-R 3'
loop_
_symmetry_equiv_pos_site_id
_symmetry_equiv_pos_as_xyz
1 x,y,z
2 -y,x-y,z
3 -x+y,-x,z
4 2/3+x,1/3+y,1/3+z
5 2/3-y,1/3+x-y,1/3+z
6 2/3-x+y,1/3-x,1/3+z
7 1/3+x,2/3+y,2/3+z
8 1/3-y,2/3+x-y,2/3+z
9 1/3-x+y,2/3-x,2/3+z
10 -x,-y,-z
11 y,-x+y,-z
12 x-y,x,-z
13 1/3-x,2/3-y,2/3-z
14 1/3+y,2/3-x+y,2/3-z
15 1/3+x-y,2/3+x,2/3-z
16 2/3-x,1/3-y,1/3-z
17 2/3+y,1/3-x+y,1/3-z
18 2/3+x-y,1/3+x,1/3-z
_cell_length_a                   28.9579(16)
_cell_length_b                   28.9579(16)
_cell_length_c                   52.757(3)
_cell_angle_alpha                90
_cell_angle_beta                 90
_cell_angle_gamma                120
_cell_volume                     38312.9
_exptl_crystal_colour            red
_exptl_crystal_description       Block
_cell_formula_units_Z            3
_chemical_properties_physical    Efflorescent
_exptl_crystal_recrystallization_method 'nitromethane/di-isopropyl ether'
loop_
_atom_site_label
_atom_site_type_symbol
_atom_site_fract_x
_atom_site_fract_y
_atom_site_fract_z
Co1 Co 0.27874(4) 0.35679(3) 0.94072(2)
N1 N 0.2562(4) 0.4017(3) 0.96385(19)
C1 C 0.2102(4) 0.4016(4) 0.95616(19)
C2 C 0.1914(4) 0.4297(5) 0.9700(2)
H1 H 0.1600 0.4296 0.9647
C3 C 0.2185(5) 0.4578(4) 0.9915(2)
H2 H 0.2056 0.4769 1.0010
C4 C 0.2645(5) 0.4579(4) 0.99923(18)
H3 H 0.2830 0.4771 1.0140
C5 C 0.2833(4) 0.4299(4) 0.9854(2)
H4 H 0.3147 0.4299 0.9906
N2 N 0.1802(5) 0.3257(4) 0.89954(19)
N3 N 0.2095(3) 0.3482(4) 0.9222(2)
C6 C 0.1880(5) 0.3771(4) 0.93423(19)
C7 C 0.1454(5) 0.3726(5) 0.9191(3)
H5 H 0.1240 0.3881 0.9226
C8 C 0.1406(5) 0.3408(6) 0.8976(2)
H6 H 0.1153 0.3314 0.8843
C9 C 0.1898(8) 0.2895(7) 0.8826(4)
H7 H 0.1799 0.2923 0.8649
H8 H 0.2281 0.3003 0.8828
N4 N -0.0008(4) -0.0624(3) 0.80125(17)
C10 C 0.0373(4) -0.0762(4) 0.80778(17)
C11 C 0.0408(4) -0.1155(5) 0.7942(2)
H9 H 0.0668 -0.1249 0.7987
C12 C 0.0062(5) -0.1410(4) 0.7741(2)
H10 H 0.0086 -0.1679 0.7649
C13 C -0.0318(5) -0.1272(5) 0.76759(18)
H11 H -0.0555 -0.1447 0.7539
C14 C -0.0353(4) -0.0879(5) 0.7812(2)
H12 H -0.0613 -0.0785 0.7767
N5 N 0.0915(4) 0.0049(3) 0.86281(15)
N6 N 0.0568(3) -0.0154(4) 0.84161(17)
C15 C 0.0690(4) -0.0505(4) 0.82824(15)
C16 C 0.1112(4) -0.0520(4) 0.84118(19)
H13 H 0.1273 -0.0723 0.8364
C17 C 0.1252(3) -0.0177(4) 0.86255(16)
H14 H 0.1522 -0.0111 0.8746
C18 C 0.0940(6) 0.0428(6) 0.8802(3)
H15 H 0.1071 0.0373 0.8966
H16 H 0.0575 0.0366 0.8829
C19 C 0.1569(3) 0.2331(2) 0.89171(15)
C20 C 0.1228(3) 0.2201(3) 0.91235(15)
H17 H 0.1213 0.2475 0.9216
C21 C 0.0910(3) 0.1672(4) 0.91951(13)
H18 H 0.0677 0.1583 0.9336
C22 C 0.0932(3) 0.1271(3) 0.90602(13)
H19 H 0.0715 0.0909 0.9109
C23 C 0.1274(2) 0.1400(2) 0.88538(11)
C24 C 0.1592(2) 0.1930(2) 0.87823(11)
C25 C 0.1933(3) 0.2060(3) 0.85759(14)
H20 H 0.2151 0.2422 0.8527
C26 C 0.1956(3) 0.1659(4) 0.84410(14)
H21 H 0.2189 0.1747 0.8300
C27 C 0.1638(3) 0.1129(3) 0.85126(15)
H22 H 0.1653 0.0855 0.8420
C28 C 0.1296(3) 0.1000(2) 0.87190(15)
N7 N 0.3274(4) 0.4247(3) 0.91742(18)
C29 C 0.3809(4) 0.4529(4) 0.92424(17)
C30 C 0.4171(3) 0.4953(4) 0.9094(2)
H23 H 0.4536 0.5146 0.9141
C31 C 0.3997(5) 0.5095(4) 0.8878(2)
H24 H 0.4245 0.5385 0.8776
C32 C 0.3462(5) 0.4813(5) 0.88093(19)
H25 H 0.3344 0.4910 0.8661
C33 C 0.3101(4) 0.4388(4) 0.8958(2)
H26 H 0.2735 0.4195 0.8911
N8 N 0.3796(4) 0.3812(3) 0.97803(16)
N9 N 0.3555(3) 0.3899(3) 0.95650(18)
C34 C 0.3949(4) 0.4363(4) 0.94390(17)
C35 C 0.4433(3) 0.4563(4) 0.9577(2)
H27 H 0.4763 0.4870 0.9535
C36 C 0.4339(4) 0.4222(4) 0.9787(2)
H28 H 0.4594 0.4262 0.9912
C37 C 0.3504(6) 0.3377(6) 0.9943(3)
H29 H 0.3131 0.3304 0.9952
H30 H 0.3657 0.3474 1.0116
N10 N 0.3053(3) 0.0095(5) 1.08154(17)
C38 C 0.2522(4) -0.0163(5) 1.07406(16)
C39 C 0.2143(3) -0.0600(5) 1.0877(2)
H31 H 0.1780 -0.0776 1.0826
C40 C 0.2296(4) -0.0777(6) 1.1089(2)
H32 H 0.2038 -0.1074 1.1182
C41 C 0.2828(5) -0.0518(6) 1.11637(18)
H33 H 0.2932 -0.0639 1.1308
C42 C 0.3206(3) -0.0082(5) 1.1027(2)
H34 H 0.3569 0.0095 1.1078
N11 N 0.2616(3) 0.0544(4) 1.01701(15)
N12 N 0.2835(3) 0.0453(4) 1.03925(17)
C43 C 0.2420(4) 0.0010(6) 1.05219(16)
C44 C 0.1944(3) -0.0172(5) 1.0379(2)
H35 H 0.1604 -0.0464 1.0422
C45 C 0.2065(3) 0.0157(4) 1.01621(17)
H36 H 0.1820 0.0125 1.0034
C46 C 0.2912(6) 0.0971(8) 1.0021(3)
H37 H 0.3285 0.1046 1.0030
H38 H 0.2789 0.0864 0.9845
C47 C 0.3500(3) 0.2864(2) 0.98591(14)
C48 C 0.3773(3) 0.2859(3) 0.96432(14)
H39 H 0.3967 0.3175 0.9546
C49 C 0.3761(3) 0.2393(4) 0.95696(12)
H40 H 0.3948 0.2390 0.9422
C50 C 0.3477(3) 0.1931(3) 0.97121(13)
H41 H 0.3469 0.1612 0.9662
C51 C 0.3204(2) 0.1935(2) 0.99280(10)
C52 C 0.3216(2) 0.2401(2) 1.00016(10)
C53 C 0.2943(3) 0.2406(3) 1.02175(13)
H42 H 0.2951 0.2724 1.0268
C54 C 0.2659(3) 0.1943(3) 1.03600(12)
H43 H 0.2472 0.1946 1.0508
C55 C 0.2647(3) 0.1477(3) 1.02865(14)
H44 H 0.2453 0.1161 1.0384
C56 C 0.2920(3) 0.1473(2) 1.00705(14)
Os1 Os 0.0000 0.0000 0.82323(3)
Co1A Co -0.35679(3) -0.07805(5) 0.94072(2)
N1A N -0.4017(3) -0.1455(5) 0.96385(19)
C1A C -0.4016(4) -0.1914(6) 0.95616(19)
C2A C -0.4297(5) -0.2383(6) 0.9700(2)
H1A H -0.4296 -0.2696 0.9647
C3A C -0.4578(4) -0.2393(6) 0.9915(2)
H2A H -0.4769 -0.2713 1.0010
C4A C -0.4579(4) -0.1934(6) 0.99923(18)
H3A H -0.4771 -0.1941 1.0140
C5A C -0.4299(4) -0.1466(6) 0.9854(2)
H4A H -0.4299 -0.1152 0.9906
N2A N -0.3257(4) -0.1455(6) 0.89954(19)
N3A N -0.3482(4) -0.1387(5) 0.9222(2)
C6A C -0.3771(4) -0.1891(6) 0.93423(19)
C7A C -0.3726(5) -0.2272(7) 0.9191(3)
H5A H -0.3881 -0.2641 0.9226
C8A C -0.3408(6) -0.2002(8) 0.8976(2)
H6A H -0.3314 -0.2161 0.8843
C9A C -0.2895(7) -0.0997(11) 0.8826(4)
H7A H -0.2923 -0.1124 0.8649
H8A H -0.3003 -0.0722 0.8828
N4A N 0.0624(3) 0.0616(5) 0.80125(17)
C10A C 0.0762(4) 0.1135(6) 0.80778(17)
C11A C 0.1155(5) 0.1563(6) 0.7942(2)
H9A H 0.1249 0.1917 0.7987
C12A C 0.1410(4) 0.1472(6) 0.7741(2)
H10A H 0.1679 0.1765 0.7649
C13A C 0.1272(5) 0.0954(7) 0.76759(18)
H11A H 0.1447 0.0892 0.7539
C14A C 0.0879(5) 0.0526(6) 0.7812(2)
H12A H 0.0785 0.0172 0.7767
N5A N -0.0049(3) 0.0866(5) 0.86281(15)
N6A N 0.0154(4) 0.0722(5) 0.84161(17)
C15A C 0.0505(4) 0.1195(6) 0.82824(15)
C16A C 0.0520(4) 0.1632(6) 0.84118(19)
H13A H 0.0723 0.1996 0.8364
C17A C 0.0177(4) 0.1429(5) 0.86255(16)
H14A H 0.0111 0.1633 0.8746
C18A C -0.0428(6) 0.0512(8) 0.8802(3)
H15A H -0.0373 0.0698 0.8966
H16A H -0.0366 0.0209 0.8829
C19A C -0.2331(2) -0.0762(4) 0.89171(15)
C20A C -0.2201(3) -0.0973(4) 0.91235(15)
H17A H -0.2475 -0.1262 0.9216
C21A C -0.1672(4) -0.0762(5) 0.91951(13)
H18A H -0.1583 -0.0906 0.9336
C22A C -0.1271(3) -0.0339(4) 0.90602(13)
H19A H -0.0909 -0.0194 0.9109
C23A C -0.1400(2) -0.0126(3) 0.88538(11)
C24A C -0.1930(2) -0.0338(3) 0.87823(11)
C25A C -0.2060(3) -0.0127(4) 0.85759(14)
H20A H -0.2422 -0.0271 0.8527
C26A C -0.1659(4) 0.0297(5) 0.84410(14)
H21A H -0.1747 0.0442 0.8300
C27A C -0.1129(3) 0.0509(4) 0.85126(15)
H22A H -0.0855 0.0798 0.8420
C28A C -0.1000(2) 0.0296(4) 0.87190(15)
N7A N -0.4247(3) -0.0973(5) 0.91742(18)
C29A C -0.4529(4) -0.0720(6) 0.92424(17)
C30A C -0.4953(4) -0.0782(5) 0.9094(2)
H23A H -0.5146 -0.0610 0.9141
C31A C -0.5095(4) -0.1098(6) 0.8878(2)
H24A H -0.5385 -0.1140 0.8776
C32A C -0.4813(5) -0.1351(7) 0.88093(19)
H25A H -0.4910 -0.1566 0.8661
C33A C -0.4388(4) -0.1287(6) 0.8958(2)
H26A H -0.4195 -0.1460 0.8911
N8A N -0.3812(3) -0.0016(5) 0.97803(16)
N9A N -0.3899(3) -0.0344(4) 0.95650(18)
C34A C -0.4363(4) -0.0414(6) 0.94390(17)
C35A C -0.4563(4) -0.0130(5) 0.9577(2)
H27A H -0.4870 -0.0107 0.9535
C36A C -0.4222(4) 0.0117(6) 0.9787(2)
H28A H -0.4262 0.0332 0.9912
C37A C -0.3377(6) 0.0127(8) 0.9943(3)
H29A H -0.3304 -0.0173 0.9952
H30A H -0.3474 0.0183 1.0116
N10A N -0.0095(5) 0.2958(6) 1.08154(17)
C38A C 0.0163(5) 0.2685(6) 1.07406(16)
C39A C 0.0600(5) 0.2743(6) 1.0877(2)
H31A H 0.0776 0.2556 1.0826
C40A C 0.0777(6) 0.3073(7) 1.1089(2)
H32A H 0.1074 0.3112 1.1182
C41A C 0.0518(6) 0.3346(8) 1.11637(18)
H33A H 0.0639 0.3571 1.1308
C42A C 0.0082(5) 0.3288(6) 1.1027(2)
H34A H -0.0095 0.3474 1.1078
N11A N -0.0544(4) 0.2072(5) 1.01701(15)
N12A N -0.0453(4) 0.2382(5) 1.03925(17)
C43A C -0.0010(6) 0.2410(7) 1.05219(16)
C44A C 0.0172(5) 0.2116(6) 1.0379(2)
H35A H 0.0464 0.2068 1.0422
C45A C -0.0157(4) 0.1908(5) 1.01621(17)
H36A H -0.0125 0.1695 1.0034
C46A C -0.0971(8) 0.1941(10) 1.0021(3)
H37A H -0.1046 0.2239 1.0030
H38A H -0.0864 0.1925 0.9845
C47A C -0.2864(2) 0.0636(4) 0.98591(14)
C48A C -0.2859(3) 0.0914(4) 0.96432(14)
H39A H -0.3175 0.0792 0.9546
C49A C -0.2393(4) 0.1368(5) 0.95696(12)
H40A H -0.2390 0.1558 0.9422
C50A C -0.1931(3) 0.1546(4) 0.97121(13)
H41A H -0.1612 0.1857 0.9662
C51A C -0.1935(2) 0.1269(3) 0.99280(10)
C52A C -0.2401(2) 0.0815(3) 1.00016(10)
C53A C -0.2406(3) 0.0537(4) 1.02175(13)
H42A H -0.2724 0.0227 1.0268
C54A C -0.1943(3) 0.0716(4) 1.03600(12)
H43A H -0.1946 0.0526 1.0508
C55A C -0.1477(3) 0.1170(4) 1.02865(14)
H44A H -0.1161 0.1292 1.0384
C56A C -0.1473(2) 0.1447(4) 1.00705(14)
Co1B Co 0.07805(5) -0.27874(4) 0.94072(2)
N1B N 0.1455(5) -0.2562(4) 0.96385(19)
C1B C 0.1914(6) -0.2102(4) 0.95616(19)
C2B C 0.2383(6) -0.1914(4) 0.9700(2)
H1B H 0.2696 -0.1600 0.9647
C3B C 0.2393(6) -0.2185(5) 0.9915(2)
H2B H 0.2713 -0.2056 1.0010
C4B C 0.1934(6) -0.2645(5) 0.99923(18)
H3B H 0.1941 -0.2830 1.0140
C5B C 0.1466(6) -0.2833(4) 0.9854(2)
H4B H 0.1152 -0.3147 0.9906
N2B N 0.1455(6) -0.1802(5) 0.89954(19)
N3B N 0.1387(5) -0.2095(3) 0.9222(2)
C6B C 0.1891(6) -0.1880(5) 0.93423(19)
C7B C 0.2272(7) -0.1454(5) 0.9191(3)
H5B H 0.2641 -0.1240 0.9226
C8B C 0.2002(8) -0.1406(5) 0.8976(2)
H6B H 0.2161 -0.1153 0.8843
C9B C 0.0997(11) -0.1898(8) 0.8826(4)
H7B H 0.1124 -0.1799 0.8649
H8B H 0.0722 -0.2281 0.8828
N4B N -0.0616(5) 0.0008(4) 0.80125(17)
C10B C -0.1135(6) -0.0373(4) 0.80778(17)
C11B C -0.1563(6) -0.0408(4) 0.7942(2)
H9B H -0.1917 -0.0668 0.7987
C12B C -0.1472(6) -0.0062(5) 0.7741(2)
H10B H -0.1765 -0.0086 0.7649
C13B C -0.0954(7) 0.0318(5) 0.76759(18)
H11B H -0.0892 0.0555 0.7539
C14B C -0.0526(6) 0.0353(4) 0.7812(2)
H12B H -0.0172 0.0613 0.7767
N5B N -0.0866(5) -0.0915(4) 0.86281(15)
N6B N -0.0722(5) -0.0568(3) 0.84161(17)
C15B C -0.1195(6) -0.0690(4) 0.82824(15)
C16B C -0.1632(6) -0.1112(4) 0.84118(19)
H13B H -0.1996 -0.1273 0.8364
C17B C -0.1429(5) -0.1252(3) 0.86255(16)
H14B H -0.1633 -0.1522 0.8746
C18B C -0.0512(8) -0.0940(6) 0.8802(3)
H15B H -0.0698 -0.1071 0.8966
H16B H -0.0209 -0.0575 0.8829
C19B C 0.0762(4) -0.1569(3) 0.89171(15)
C20B C 0.0973(4) -0.1228(3) 0.91235(15)
H17B H 0.1262 -0.1213 0.9216
C21B C 0.0762(5) -0.0910(3) 0.91951(13)
H18B H 0.0906 -0.0677 0.9336
C22B C 0.0339(4) -0.0932(3) 0.90602(13)
H19B H 0.0194 -0.0715 0.9109
C23B C 0.0126(3) -0.1274(2) 0.88538(11)
C24B C 0.0338(3) -0.1592(2) 0.87823(11)
C25B C 0.0127(4) -0.1933(3) 0.85759(14)
H20B H 0.0271 -0.2151 0.8527
C26B C -0.0297(5) -0.1956(3) 0.84410(14)
H21B H -0.0442 -0.2189 0.8300
C27B C -0.0509(4) -0.1638(3) 0.85126(15)
H22B H -0.0798 -0.1653 0.8420
C28B C -0.0296(4) -0.1296(3) 0.87190(15)
N7B N 0.0973(5) -0.3274(4) 0.91742(18)
C29B C 0.0720(6) -0.3809(4) 0.92424(17)
C30B C 0.0782(5) -0.4171(3) 0.9094(2)
H23B H 0.0610 -0.4536 0.9141
C31B C 0.1098(6) -0.3997(5) 0.8878(2)
H24B H 0.1140 -0.4245 0.8776
C32B C 0.1351(7) -0.3462(5) 0.88093(19)
H25B H 0.1566 -0.3344 0.8661
C33B C 0.1287(6) -0.3101(4) 0.8958(2)
H26B H 0.1460 -0.2735 0.8911
N8B N 0.0016(5) -0.3796(4) 0.97803(16)
N9B N 0.0344(4) -0.3555(3) 0.95650(18)
C34B C 0.0414(6) -0.3949(4) 0.94390(17)
C35B C 0.0130(5) -0.4433(3) 0.9577(2)
H27B H 0.0107 -0.4763 0.9535
C36B C -0.0117(6) -0.4339(4) 0.9787(2)
H28B H -0.0332 -0.4594 0.9912
C37B C -0.0127(8) -0.3504(6) 0.9943(3)
H29B H 0.0173 -0.3131 0.9952
H30B H -0.0183 -0.3657 1.0116
N10B N -0.2958(6) -0.3053(3) 1.08154(17)
C38B C -0.2685(6) -0.2522(4) 1.07406(16)
C39B C -0.2743(6) -0.2143(3) 1.0877(2)
H31B H -0.2556 -0.1780 1.0826
C40B C -0.3073(7) -0.2296(4) 1.1089(2)
H32B H -0.3112 -0.2038 1.1182
C41B C -0.3346(8) -0.2828(5) 1.11637(18)
H33B H -0.3571 -0.2932 1.1308
C42B C -0.3288(6) -0.3206(3) 1.1027(2)
H34B H -0.3474 -0.3569 1.1078
N11B N -0.2072(5) -0.2616(3) 1.01701(15)
N12B N -0.2382(5) -0.2835(3) 1.03925(17)
C43B C -0.2410(7) -0.2420(4) 1.05219(16)
C44B C -0.2116(6) -0.1944(3) 1.0379(2)
H35B H -0.2068 -0.1604 1.0422
C45B C -0.1908(5) -0.2065(3) 1.01621(17)
H36B H -0.1695 -0.1820 1.0034
C46B C -0.1941(10) -0.2912(6) 1.0021(3)
H37B H -0.2239 -0.3285 1.0030
H38B H -0.1925 -0.2789 0.9845
C47B C -0.0636(4) -0.3500(3) 0.98591(14)
C48B C -0.0914(4) -0.3773(3) 0.96432(14)
H39B H -0.0792 -0.3967 0.9546
C49B C -0.1368(5) -0.3761(3) 0.95696(12)
H40B H -0.1558 -0.3948 0.9422
C50B C -0.1546(4) -0.3477(3) 0.97121(13)
H41B H -0.1857 -0.3469 0.9662
C51B C -0.1269(3) -0.3204(2) 0.99280(10)
C52B C -0.0815(3) -0.3216(2) 1.00016(10)
C53B C -0.0537(4) -0.2943(3) 1.02175(13)
H42B H -0.0227 -0.2951 1.0268
C54B C -0.0716(4) -0.2659(3) 1.03600(12)
H43B H -0.0526 -0.2472 1.0508
C55B C -0.1170(4) -0.2647(3) 1.02865(14)
H44B H -0.1292 -0.2453 1.0384
C56B C -0.1447(4) -0.2920(3) 1.00705(14)
Co1I Co -0.27874(4) -0.35679(3) 1.05928(2)
N1I N -0.2562(4) -0.4017(3) 1.03615(19)
C1I C -0.2102(4) -0.4016(4) 1.04384(19)
C2I C -0.1914(4) -0.4297(5) 1.0300(2)
H1I H -0.1600 -0.4296 1.0353
C3I C -0.2185(5) -0.4578(4) 1.0085(2)
H2I H -0.2056 -0.4769 0.9990
C4I C -0.2645(5) -0.4579(4) 1.00077(18)
H3I H -0.2830 -0.4771 0.9860
C5I C -0.2833(4) -0.4299(4) 1.0146(2)
H4I H -0.3147 -0.4299 1.0094
N2I N -0.1802(5) -0.3257(4) 1.10046(19)
N3I N -0.2095(3) -0.3482(4) 1.0778(2)
C6I C -0.1880(5) -0.3771(4) 1.06577(19)
C7I C -0.1454(5) -0.3726(5) 1.0809(3)
H5I H -0.1240 -0.3881 1.0774
C8I C -0.1406(5) -0.3408(6) 1.1024(2)
H6I H -0.1153 -0.3314 1.1157
C9I C -0.1898(8) -0.2895(7) 1.1174(4)
H7I H -0.1799 -0.2923 1.1351
H8I H -0.2281 -0.3003 1.1172
N4I N 0.0008(4) 0.0624(3) 1.19875(17)
C10I C -0.0373(4) 0.0762(4) 1.19222(17)
C11I C -0.0408(4) 0.1155(5) 1.2058(2)
H9I H -0.0668 0.1249 1.2013
C12I C -0.0062(5) 0.1410(4) 1.2259(2)
H10I H -0.0086 0.1679 1.2351
C13I C 0.0318(5) 0.1272(5) 1.23241(18)
H11I H 0.0555 0.1447 1.2461
C14I C 0.0353(4) 0.0879(5) 1.2188(2)
H12I H 0.0613 0.0785 1.2233
N5I N -0.0915(4) -0.0049(3) 1.13719(15)
N6I N -0.0568(3) 0.0154(4) 1.15839(17)
C15I C -0.0690(4) 0.0505(4) 1.17176(15)
C16I C -0.1112(4) 0.0520(4) 1.15882(19)
H13I H -0.1273 0.0723 1.1636
C17I C -0.1252(3) 0.0177(4) 1.13745(16)
H14I H -0.1522 0.0111 1.1254
C18I C -0.0940(6) -0.0428(6) 1.1198(3)
H15I H -0.1071 -0.0373 1.1034
H16I H -0.0575 -0.0366 1.1171
C19I C -0.1569(3) -0.2331(2) 1.10829(15)
C20I C -0.1228(3) -0.2201(3) 1.08765(15)
H17I H -0.1213 -0.2475 1.0784
C21I C -0.0910(3) -0.1672(4) 1.08049(13)
H18I H -0.0677 -0.1583 1.0664
C22I C -0.0932(3) -0.1271(3) 1.09398(13)
H19I H -0.0715 -0.0909 1.0891
C23I C -0.1274(2) -0.1400(2) 1.11462(11)
C24I C -0.1592(2) -0.1930(2) 1.12177(11)
C25I C -0.1933(3) -0.2060(3) 1.14241(14)
H20I H -0.2151 -0.2422 1.1473
C26I C -0.1956(3) -0.1659(4) 1.15590(14)
H21I H -0.2189 -0.1747 1.1700
C27I C -0.1638(3) -0.1129(3) 1.14874(15)
H22I H -0.1653 -0.0855 1.1580
C28I C -0.1296(3) -0.1000(2) 1.12810(15)
N7I N -0.3274(4) -0.4247(3) 1.08258(18)
C29I C -0.3809(4) -0.4529(4) 1.07576(17)
C30I C -0.4171(3) -0.4953(4) 1.0906(2)
H23I H -0.4536 -0.5146 1.0859
C31I C -0.3997(5) -0.5095(4) 1.1122(2)
H24I H -0.4245 -0.5385 1.1224
C32I C -0.3462(5) -0.4813(5) 1.11907(19)
H25I H -0.3344 -0.4910 1.1339
C33I C -0.3101(4) -0.4388(4) 1.1042(2)
H26I H -0.2735 -0.4195 1.1089
N8I N -0.3796(4) -0.3812(3) 1.02197(16)
N9I N -0.3555(3) -0.3899(3) 1.04350(18)
C34I C -0.3949(4) -0.4363(4) 1.05610(17)
C35I C -0.4433(3) -0.4563(4) 1.0423(2)
H27I H -0.4763 -0.4870 1.0465
C36I C -0.4339(4) -0.4222(4) 1.0213(2)
H28I H -0.4594 -0.4262 1.0088
C37I C -0.3504(6) -0.3377(6) 1.0057(3)
H29I H -0.3131 -0.3304 1.0048
H30I H -0.3657 -0.3474 0.9884
N10I N -0.3053(3) -0.0095(5) 0.91846(17)
C38I C -0.2522(4) 0.0163(5) 0.92594(16)
C39I C -0.2143(3) 0.0600(5) 0.9123(2)
H31I H -0.1780 0.0776 0.9174
C40I C -0.2296(4) 0.0777(6) 0.8911(2)
H32I H -0.2038 0.1074 0.8818
C41I C -0.2828(5) 0.0518(6) 0.88363(18)
H33I H -0.2932 0.0639 0.8692
C42I C -0.3206(3) 0.0082(5) 0.8973(2)
H34I H -0.3569 -0.0095 0.8922
N11I N -0.2616(3) -0.0544(4) 0.98299(15)
N12I N -0.2835(3) -0.0453(4) 0.96075(17)
C43I C -0.2420(4) -0.0010(6) 0.94781(16)
C44I C -0.1944(3) 0.0172(5) 0.9621(2)
H35I H -0.1604 0.0464 0.9578
C45I C -0.2065(3) -0.0157(4) 0.98379(17)
H36I H -0.1820 -0.0125 0.9966
C46I C -0.2912(6) -0.0971(8) 0.9979(3)
H37I H -0.3285 -0.1046 0.9970
H38I H -0.2789 -0.0864 1.0155
C47I C -0.3500(3) -0.2864(2) 1.01409(14)
C48I C -0.3773(3) -0.2859(3) 1.03568(14)
H39I H -0.3967 -0.3175 1.0454
C49I C -0.3761(3) -0.2393(4) 1.04304(12)
H40I H -0.3948 -0.2390 1.0578
C50I C -0.3477(3) -0.1931(3) 1.02879(13)
H41I H -0.3469 -0.1612 1.0338
C51I C -0.3204(2) -0.1935(2) 1.00720(10)
C52I C -0.3216(2) -0.2401(2) 0.99984(10)
C53I C -0.2943(3) -0.2406(3) 0.97825(13)
H42I H -0.2951 -0.2724 0.9732
C54I C -0.2659(3) -0.1943(3) 0.96400(12)
H43I H -0.2472 -0.1946 0.9492
C55I C -0.2647(3) -0.1477(3) 0.97135(14)
H44I H -0.2453 -0.1161 0.9616
C56I C -0.2920(3) -0.1473(2) 0.99295(14)
Os1I Os 0.0000 0.0000 1.17677(3)
Co1J Co 0.35679(3) 0.07805(5) 1.05928(2)
N1J N 0.4017(3) 0.1455(5) 1.03615(19)
C1J C 0.4016(4) 0.1914(6) 1.04384(19)
C2J C 0.4297(5) 0.2383(6) 1.0300(2)
H1J H 0.4296 0.2696 1.0353
C3J C 0.4578(4) 0.2393(6) 1.0085(2)
H2J H 0.4769 0.2713 0.9990
C4J C 0.4579(4) 0.1934(6) 1.00077(18)
H3J H 0.4771 0.1941 0.9860
C5J C 0.4299(4) 0.1466(6) 1.0146(2)
H4J H 0.4299 0.1152 1.0094
N2J N 0.3257(4) 0.1455(6) 1.10046(19)
N3J N 0.3482(4) 0.1387(5) 1.0778(2)
C6J C 0.3771(4) 0.1891(6) 1.06577(19)
C7J C 0.3726(5) 0.2272(7) 1.0809(3)
H5J H 0.3881 0.2641 1.0774
C8J C 0.3408(6) 0.2002(8) 1.1024(2)
H6J H 0.3314 0.2161 1.1157
C9J C 0.2895(7) 0.0997(11) 1.1174(4)
H7J H 0.2923 0.1124 1.1351
H8J H 0.3003 0.0722 1.1172
N4J N -0.0624(3) -0.0616(5) 1.19875(17)
C10J C -0.0762(4) -0.1135(6) 1.19222(17)
C11J C -0.1155(5) -0.1563(6) 1.2058(2)
H9J H -0.1249 -0.1917 1.2013
C12J C -0.1410(4) -0.1472(6) 1.2259(2)
H10J H -0.1679 -0.1765 1.2351
C13J C -0.1272(5) -0.0954(7) 1.23241(18)
H11J H -0.1447 -0.0892 1.2461
C14J C -0.0879(5) -0.0526(6) 1.2188(2)
H12J H -0.0785 -0.0172 1.2233
N5J N 0.0049(3) -0.0866(5) 1.13719(15)
N6J N -0.0154(4) -0.0722(5) 1.15839(17)
C15J C -0.0505(4) -0.1195(6) 1.17176(15)
C16J C -0.0520(4) -0.1632(6) 1.15882(19)
H13J H -0.0723 -0.1996 1.1636
C17J C -0.0177(4) -0.1429(5) 1.13745(16)
H14J H -0.0111 -0.1633 1.1254
C18J C 0.0428(6) -0.0512(8) 1.1198(3)
H15J H 0.0373 -0.0698 1.1034
H16J H 0.0366 -0.0209 1.1171
C19J C 0.2331(2) 0.0762(4) 1.10829(15)
C20J C 0.2201(3) 0.0973(4) 1.08765(15)
H17J H 0.2475 0.1262 1.0784
C21J C 0.1672(4) 0.0762(5) 1.08049(13)
H18J H 0.1583 0.0906 1.0664
C22J C 0.1271(3) 0.0339(4) 1.09398(13)
H19J H 0.0909 0.0194 1.0891
C23J C 0.1400(2) 0.0126(3) 1.11462(11)
C24J C 0.1930(2) 0.0338(3) 1.12177(11)
C25J C 0.2060(3) 0.0127(4) 1.14241(14)
H20J H 0.2422 0.0271 1.1473
C26J C 0.1659(4) -0.0297(5) 1.15590(14)
H21J H 0.1747 -0.0442 1.1700
C27J C 0.1129(3) -0.0509(4) 1.14874(15)
H22J H 0.0855 -0.0798 1.1580
C28J C 0.1000(2) -0.0296(4) 1.12810(15)
N7J N 0.4247(3) 0.0973(5) 1.08258(18)
C29J C 0.4529(4) 0.0720(6) 1.07576(17)
C30J C 0.4953(4) 0.0782(5) 1.0906(2)
H23J H 0.5146 0.0610 1.0859
C31J C 0.5095(4) 0.1098(6) 1.1122(2)
H24J H 0.5385 0.1140 1.1224
C32J C 0.4813(5) 0.1351(7) 1.11907(19)
H25J H 0.4910 0.1566 1.1339
C33J C 0.4388(4) 0.1287(6) 1.1042(2)
H26J H 0.4195 0.1460 1.1089
N8J N 0.3812(3) 0.0016(5) 1.02197(16)
N9J N 0.3899(3) 0.0344(4) 1.04350(18)
C34J C 0.4363(4) 0.0414(6) 1.05610(17)
C35J C 0.4563(4) 0.0130(5) 1.0423(2)
H27J H 0.4870 0.0107 1.0465
C36J C 0.4222(4) -0.0117(6) 1.0213(2)
H28J H 0.4262 -0.0332 1.0088
C37J C 0.3377(6) -0.0127(8) 1.0057(3)
H29J H 0.3304 0.0173 1.0048
H30J H 0.3474 -0.0183 0.9884
N10J N 0.0095(5) -0.2958(6) 0.91846(17)
C38J C -0.0163(5) -0.2685(6) 0.92594(16)
C39J C -0.0600(5) -0.2743(6) 0.9123(2)
H31J H -0.0776 -0.2556 0.9174
C40J C -0.0777(6) -0.3073(7) 0.8911(2)
H32J H -0.1074 -0.3112 0.8818
C41J C -0.0518(6) -0.3346(8) 0.88363(18)
H33J H -0.0639 -0.3571 0.8692
C42J C -0.0082(5) -0.3288(6) 0.8973(2)
H34J H 0.0095 -0.3474 0.8922
N11J N 0.0544(4) -0.2072(5) 0.98299(15)
N12J N 0.0453(4) -0.2382(5) 0.96075(17)
C43J C 0.0010(6) -0.2410(7) 0.94781(16)
C44J C -0.0172(5) -0.2116(6) 0.9621(2)
H35J H -0.0464 -0.2068 0.9578
C45J C 0.0157(4) -0.1908(5) 0.98379(17)
H36J H 0.0125 -0.1695 0.9966
C46J C 0.0971(8) -0.1941(10) 0.9979(3)
H37J H 0.1046 -0.2239 0.9970
H38J H 0.0864 -0.1925 1.0155
C47J C 0.2864(2) -0.0636(4) 1.01409(14)
C48J C 0.2859(3) -0.0914(4) 1.03568(14)
H39J H 0.3175 -0.0792 1.0454
C49J C 0.2393(4) -0.1368(5) 1.04304(12)
H40J H 0.2390 -0.1558 1.0578
C50J C 0.1931(3) -0.1546(4) 1.02879(13)
H41J H 0.1612 -0.1857 1.0338
C51J C 0.1935(2) -0.1269(3) 1.00720(10)
C52J C 0.2401(2) -0.0815(3) 0.99984(10)
C53J C 0.2406(3) -0.0537(4) 0.97825(13)
H42J H 0.2724 -0.0227 0.9732
C54J C 0.1943(3) -0.0716(4) 0.96400(12)
H43J H 0.1946 -0.0526 0.9492
C55J C 0.1477(3) -0.1170(4) 0.97135(14)
H44J H 0.1161 -0.1292 0.9616
C56J C 0.1473(2) -0.1447(4) 0.99295(14)
Co1K Co -0.07805(5) 0.27874(4) 1.05928(2)
N1K N -0.1455(5) 0.2562(4) 1.03615(19)
C1K C -0.1914(6) 0.2102(4) 1.04384(19)
C2K C -0.2383(6) 0.1914(4) 1.0300(2)
H1K H -0.2696 0.1600 1.0353
C3K C -0.2393(6) 0.2185(5) 1.0085(2)
H2K H -0.2713 0.2056 0.9990
C4K C -0.1934(6) 0.2645(5) 1.00077(18)
H3K H -0.1941 0.2830 0.9860
C5K C -0.1466(6) 0.2833(4) 1.0146(2)
H4K H -0.1152 0.3147 1.0094
N2K N -0.1455(6) 0.1802(5) 1.10046(19)
N3K N -0.1387(5) 0.2095(3) 1.0778(2)
C6K C -0.1891(6) 0.1880(5) 1.06577(19)
C7K C -0.2272(7) 0.1454(5) 1.0809(3)
H5K H -0.2641 0.1240 1.0774
C8K C -0.2002(8) 0.1406(5) 1.1024(2)
H6K H -0.2161 0.1153 1.1157
C9K C -0.0997(11) 0.1898(8) 1.1174(4)
H7K H -0.1124 0.1799 1.1351
H8K H -0.0722 0.2281 1.1172
N4K N 0.0616(5) -0.0008(4) 1.19875(17)
C10K C 0.1135(6) 0.0373(4) 1.19222(17)
C11K C 0.1563(6) 0.0408(4) 1.2058(2)
H9K H 0.1917 0.0668 1.2013
C12K C 0.1472(6) 0.0062(5) 1.2259(2)
H10K H 0.1765 0.0086 1.2351
C13K C 0.0954(7) -0.0318(5) 1.23241(18)
H11K H 0.0892 -0.0555 1.2461
C14K C 0.0526(6) -0.0353(4) 1.2188(2)
H12K H 0.0172 -0.0613 1.2233
N5K N 0.0866(5) 0.0915(4) 1.13719(15)
N6K N 0.0722(5) 0.0568(3) 1.15839(17)
C15K C 0.1195(6) 0.0690(4) 1.17176(15)
C16K C 0.1632(6) 0.1112(4) 1.15882(19)
H13K H 0.1996 0.1273 1.1636
C17K C 0.1429(5) 0.1252(3) 1.13745(16)
H14K H 0.1633 0.1522 1.1254
C18K C 0.0512(8) 0.0940(6) 1.1198(3)
H15K H 0.0698 0.1071 1.1034
H16K H 0.0209 0.0575 1.1171
C19K C -0.0762(4) 0.1569(3) 1.10829(15)
C20K C -0.0973(4) 0.1228(3) 1.08765(15)
H17K H -0.1262 0.1213 1.0784
C21K C -0.0762(5) 0.0910(3) 1.08049(13)
H18K H -0.0906 0.0677 1.0664
C22K C -0.0339(4) 0.0932(3) 1.09398(13)
H19K H -0.0194 0.0715 1.0891
C23K C -0.0126(3) 0.1274(2) 1.11462(11)
C24K C -0.0338(3) 0.1592(2) 1.12177(11)
C25K C -0.0127(4) 0.1933(3) 1.14241(14)
H20K H -0.0271 0.2151 1.1473
C26K C 0.0297(5) 0.1956(3) 1.15590(14)
H21K H 0.0442 0.2189 1.1700
C27K C 0.0509(4) 0.1638(3) 1.14874(15)
H22K H 0.0798 0.1653 1.1580
C28K C 0.0296(4) 0.1296(3) 1.12810(15)
N7K N -0.0973(5) 0.3274(4) 1.08258(18)
C29K C -0.0720(6) 0.3809(4) 1.07576(17)
C30K C -0.0782(5) 0.4171(3) 1.0906(2)
H23K H -0.0610 0.4536 1.0859
C31K C -0.1098(6) 0.3997(5) 1.1122(2)
H24K H -0.1140 0.4245 1.1224
C32K C -0.1351(7) 0.3462(5) 1.11907(19)
H25K H -0.1566 0.3344 1.1339
C33K C -0.1287(6) 0.3101(4) 1.1042(2)
H26K H -0.1460 0.2735 1.1089
N8K N -0.0016(5) 0.3796(4) 1.02197(16)
N9K N -0.0344(4) 0.3555(3) 1.04350(18)
C34K C -0.0414(6) 0.3949(4) 1.05610(17)
C35K C -0.0130(5) 0.4433(3) 1.0423(2)
H27K H -0.0107 0.4763 1.0465
C36K C 0.0117(6) 0.4339(4) 1.0213(2)
H28K H 0.0332 0.4594 1.0088
C37K C 0.0127(8) 0.3504(6) 1.0057(3)
H29K H -0.0173 0.3131 1.0048
H30K H 0.0183 0.3657 0.9884
N10K N 0.2958(6) 0.3053(3) 0.91846(17)
C38K C 0.2685(6) 0.2522(4) 0.92594(16)
C39K C 0.2743(6) 0.2143(3) 0.9123(2)
H31K H 0.2556 0.1780 0.9174
C40K C 0.3073(7) 0.2296(4) 0.8911(2)
H32K H 0.3112 0.2038 0.8818
C41K C 0.3346(8) 0.2828(5) 0.88363(18)
H33K H 0.3571 0.2932 0.8692
C42K C 0.3288(6) 0.3206(3) 0.8973(2)
H34K H 0.3474 0.3569 0.8922
N11K N 0.2072(5) 0.2616(3) 0.98299(15)
N12K N 0.2382(5) 0.2835(3) 0.96075(17)
C43K C 0.2410(7) 0.2420(4) 0.94781(16)
C44K C 0.2116(6) 0.1944(3) 0.9621(2)
H35K H 0.2068 0.1604 0.9578
C45K C 0.1908(5) 0.2065(3) 0.98379(17)
H36K H 0.1695 0.1820 0.9966
C46K C 0.1941(10) 0.2912(6) 0.9979(3)
H37K H 0.2239 0.3285 0.9970
H38K H 0.1925 0.2789 1.0155
C47K C 0.0636(4) 0.3500(3) 1.01409(14)
C48K C 0.0914(4) 0.3773(3) 1.03568(14)
H39K H 0.0792 0.3967 1.0454
C49K C 0.1368(5) 0.3761(3) 1.04304(12)
H40K H 0.1558 0.3948 1.0578
C50K C 0.1546(4) 0.3477(3) 1.02879(13)
H41K H 0.1857 0.3469 1.0338
C51K C 0.1269(3) 0.3204(2) 1.00720(10)
C52K C 0.0815(3) 0.3216(2) 0.99984(10)
C53K C 0.0537(4) 0.2943(3) 0.97825(13)
H42K H 0.0227 0.2951 0.9732
C54K C 0.0716(4) 0.2659(3) 0.96400(12)
H43K H 0.0526 0.2472 0.9492
C55K C 0.1170(4) 0.2647(3) 0.97135(14)
H44K H 0.1292 0.2453 0.9616
C56K C 0.1447(4) 0.2920(3) 0.99295(14)
Cl1 Cl 0.5478(3) 0.6161(3) 0.94236(13)
O1 O 0.5379(8) 0.5775(7) 0.9609(3)
O2 O 0.6002(5) 0.6603(7) 0.9456(5)
O3 O 0.5435(10) 0.5950(9) 0.9181(3)
O4 O 0.5108(8) 0.6341(9) 0.9453(4)
O5 O 0.0000 0.0000 0.9308(7)
Cl2 Cl 0.0539(3) 0.3009(3) 0.84043(16)
O6 O 0.0305(6) 0.2616(5) 0.8591(2)
O7 O 0.0932(6) 0.2939(7) 0.8274(3)
O8 O 0.0165(6) 0.2983(8) 0.8230(3)
O9 O 0.0801(8) 0.3520(5) 0.8520(4)
Cl3 Cl 0.1475(4) 0.2067(4) 0.07111(19)
O10 O 0.1293(8) 0.1746(7) 0.0492(3)
O11 O 0.1789(6) 0.1914(7) 0.0856(3)
O12 O 0.1768(9) 0.2603(5) 0.0651(4)
O13 O 0.1021(8) 0.1965(12) 0.0857(4)
loop_
_geom_bond_atom_site_label_1
_geom_bond_atom_site_label_2
_geom_bond_site_symmetry_1
_geom_bond_site_symmetry_2
Co1 N1 1_555 1_555
N1 C1 1_555 1_555
C1 C2 1_555 1_555
C2 H1 1_555 1_555
C3 C2 1_555 1_555
H2 C3 1_555 1_555
C4 C3 1_555 1_555
H3 C4 1_555 1_555
C5 N1 1_555 1_555
H4 C5 1_555 1_555
N2 N3 1_555 1_555
N3 Co1 1_555 1_555
C6 C1 1_555 1_555
C7 C6 1_555 1_555
H5 C7 1_555 1_555
C8 N2 1_555 1_555
H6 C8 1_555 1_555
C9 N2 1_555 1_555
H7 C9 1_555 1_555
H8 C9 1_555 1_555
N4 C10 1_555 1_555
C10 C11 1_555 1_555
C11 H9 1_555 1_555
C12 C11 1_555 1_555
H10 C12 1_555 1_555
C13 C12 1_555 1_555
H11 C13 1_555 1_555
C14 N4 1_555 1_555
H12 C14 1_555 1_555
N5 N6 1_555 1_555
N6 C15 1_555 1_555
C15 C10 1_555 1_555
C16 C15 1_555 1_555
H13 C16 1_555 1_555
C17 N5 1_555 1_555
H14 C17 1_555 1_555
C18 N5 1_555 1_555
H15 C18 1_555 1_555
H16 C18 1_555 1_555
C19 C9 1_555 1_555
C20 C19 1_555 1_555
H17 C20 1_555 1_555
C21 C20 1_555 1_555
H18 C21 1_555 1_555
C22 C21 1_555 1_555
H19 C22 1_555 1_555
C23 C22 1_555 1_555
C24 C19 1_555 1_555
C25 C24 1_555 1_555
H20 C25 1_555 1_555
C26 C25 1_555 1_555
H21 C26 1_555 1_555
C27 C26 1_555 1_555
H22 C27 1_555 1_555
C28 C18 1_555 1_555
N7 Co1 1_555 1_555
C29 N7 1_555 1_555
C30 C29 1_555 1_555
H23 C30 1_555 1_555
C31 C30 1_555 1_555
H24 C31 1_555 1_555
C32 C31 1_555 1_555
H25 C32 1_555 1_555
C33 N7 1_555 1_555
H26 C33 1_555 1_555
N8 N9 1_555 1_555
N9 Co1 1_555 1_555
C34 C29 1_555 1_555
C35 C34 1_555 1_555
H27 C35 1_555 1_555
C36 N8 1_555 1_555
H28 C36 1_555 1_555
C37 N8 1_555 1_555
H29 C37 1_555 1_555
H30 C37 1_555 1_555
N10 C38 1_555 1_555
C38 C39 1_555 1_555
C39 H31 1_555 1_555
C40 C39 1_555 1_555
H32 C40 1_555 1_555
C41 C40 1_555 1_555
H33 C41 1_555 1_555
C42 N10 1_555 1_555
H34 C42 1_555 1_555
N11 N12 1_555 1_555
N12 C43 1_555 1_555
C43 C38 1_555 1_555
C44 C43 1_555 1_555
H35 C44 1_555 1_555
C45 N11 1_555 1_555
H36 C45 1_555 1_555
C46 N11 1_555 1_555
H37 C46 1_555 1_555
H38 C46 1_555 1_555
C47 C37 1_555 1_555
C48 C47 1_555 1_555
H39 C48 1_555 1_555
C49 C48 1_555 1_555
H40 C49 1_555 1_555
C50 C49 1_555 1_555
H41 C50 1_555 1_555
C51 C50 1_555 1_555
C52 C47 1_555 1_555
C53 C52 1_555 1_555
H42 C53 1_555 1_555
C54 C53 1_555 1_555
H43 C54 1_555 1_555
C55 C54 1_555 1_555
H44 C55 1_555 1_555
C56 C46 1_555 1_555
Os1 N4 1_555 1_555
Cl1 O1 1_555 1_555
O2 Cl1 1_555 1_555
O3 Cl1 1_555 1_555
O4 Cl1 1_555 1_555
Cl2 O6 1_555 1_555
O7 Cl2 1_555 1_555
O8 Cl2 1_555 1_555
O9 Cl2 1_555 1_555
Cl3 O10 1_555 1_555
O11 Cl3 1_555 1_555
O12 Cl3 1_555 1_555
O13 Cl3 1_555 1_555
Co1A N1A 1_555 1_555
N1A C1A 1_555 1_555
C1A C2A 1_555 1_555
C2A H1A 1_555 1_555
C3A C2A 1_555 1_555
H2A C3A 1_555 1_555
C4A C3A 1_555 1_555
H3A C4A 1_555 1_555
C5A N1A 1_555 1_555
H4A C5A 1_555 1_555
N2A N3A 1_555 1_555
N3A Co1A 1_555 1_555
C6A C1A 1_555 1_555
C7A C6A 1_555 1_555
H5A C7A 1_555 1_555
C8A N2A 1_555 1_555
H6A C8A 1_555 1_555
C9A N2A 1_555 1_555
H7A C9A 1_555 1_555
H8A C9A 1_555 1_555
N4A Os1 1_555 1_555
C10A N4A 1_555 1_555
C11A C10A 1_555 1_555
H9A C11A 1_555 1_555
C12A C11A 1_555 1_555
H10A C12A 1_555 1_555
C13A C12A 1_555 1_555
H11A C13A 1_555 1_555
C14A N4A 1_555 1_555
H12A C14A 1_555 1_555
N5A N6A 1_555 1_555
N6A Os1 1_555 1_555
C15A C10A 1_555 1_555
C16A C15A 1_555 1_555
H13A C16A 1_555 1_555
C17A N5A 1_555 1_555
H14A C17A 1_555 1_555
C18A N5A 1_555 1_555
H15A C18A 1_555 1_555
H16A C18A 1_555 1_555
C19A C9A 1_555 1_555
C20A C19A 1_555 1_555
H17A C20A 1_555 1_555
C21A C20A 1_555 1_555
H18A C21A 1_555 1_555
C22A C21A 1_555 1_555
H19A C22A 1_555 1_555
C23A C22A 1_555 1_555
C24A C19A 1_555 1_555
C25A C24A 1_555 1_555
H20A C25A 1_555 1_555
C26A C25A 1_555 1_555
H21A C26A 1_555 1_555
C27A C26A 1_555 1_555
H22A C27A 1_555 1_555
C28A C18A 1_555 1_555
N7A Co1A 1_555 1_555
C29A N7A 1_555 1_555
C30A C29A 1_555 1_555
H23A C30A 1_555 1_555
C31A C30A 1_555 1_555
H24A C31A 1_555 1_555
C32A C31A 1_555 1_555
H25A C32A 1_555 1_555
C33A N7A 1_555 1_555
H26A C33A 1_555 1_555
N8A N9A 1_555 1_555
N9A Co1A 1_555 1_555
C34A C29A 1_555 1_555
C35A C34A 1_555 1_555
H27A C35A 1_555 1_555
C36A N8A 1_555 1_555
H28A C36A 1_555 1_555
C37A N8A 1_555 1_555
H29A C37A 1_555 1_555
H30A C37A 1_555 1_555
N10A C38A 1_555 1_555
C38A C39A 1_555 1_555
C39A H31A 1_555 1_555
C40A C39A 1_555 1_555
H32A C40A 1_555 1_555
C41A C40A 1_555 1_555
H33A C41A 1_555 1_555
C42A N10A 1_555 1_555
H34A C42A 1_555 1_555
N11A N12A 1_555 1_555
N12A C43A 1_555 1_555
C43A C38A 1_555 1_555
C44A C43A 1_555 1_555
H35A C44A 1_555 1_555
C45A N11A 1_555 1_555
H36A C45A 1_555 1_555
C46A N11A 1_555 1_555
H37A C46A 1_555 1_555
H38A C46A 1_555 1_555
C47A C37A 1_555 1_555
C48A C47A 1_555 1_555
H39A C48A 1_555 1_555
C49A C48A 1_555 1_555
H40A C49A 1_555 1_555
C50A C49A 1_555 1_555
H41A C50A 1_555 1_555
C51A C50A 1_555 1_555
C52A C47A 1_555 1_555
C53A C52A 1_555 1_555
H42A C53A 1_555 1_555
C54A C53A 1_555 1_555
H43A C54A 1_555 1_555
C55A C54A 1_555 1_555
H44A C55A 1_555 1_555
C56A C46A 1_555 1_555
Co1B N1B 1_555 1_555
N1B C1B 1_555 1_555
C1B C2B 1_555 1_555
C2B H1B 1_555 1_555
C3B C2B 1_555 1_555
H2B C3B 1_555 1_555
C4B C3B 1_555 1_555
H3B C4B 1_555 1_555
C5B N1B 1_555 1_555
H4B C5B 1_555 1_555
N2B N3B 1_555 1_555
N3B Co1B 1_555 1_555
C6B C1B 1_555 1_555
C7B C6B 1_555 1_555
H5B C7B 1_555 1_555
C8B N2B 1_555 1_555
H6B C8B 1_555 1_555
C9B N2B 1_555 1_555
H7B C9B 1_555 1_555
H8B C9B 1_555 1_555
N4B Os1 1_555 1_555
C10B N4B 1_555 1_555
C11B C10B 1_555 1_555
H9B C11B 1_555 1_555
C12B C11B 1_555 1_555
H10B C12B 1_555 1_555
C13B C12B 1_555 1_555
H11B C13B 1_555 1_555
C14B N4B 1_555 1_555
H12B C14B 1_555 1_555
N5B N6B 1_555 1_555
N6B Os1 1_555 1_555
C15B C10B 1_555 1_555
C16B C15B 1_555 1_555
H13B C16B 1_555 1_555
C17B N5B 1_555 1_555
H14B C17B 1_555 1_555
C18B N5B 1_555 1_555
H15B C18B 1_555 1_555
H16B C18B 1_555 1_555
C19B C9B 1_555 1_555
C20B C19B 1_555 1_555
H17B C20B 1_555 1_555
C21B C20B 1_555 1_555
H18B C21B 1_555 1_555
C22B C21B 1_555 1_555
H19B C22B 1_555 1_555
C23B C22B 1_555 1_555
C24B C19B 1_555 1_555
C25B C24B 1_555 1_555
H20B C25B 1_555 1_555
C26B C25B 1_555 1_555
H21B C26B 1_555 1_555
C27B C26B 1_555 1_555
H22B C27B 1_555 1_555
C28B C18B 1_555 1_555
N7B Co1B 1_555 1_555
C29B N7B 1_555 1_555
C30B C29B 1_555 1_555
H23B C30B 1_555 1_555
C31B C30B 1_555 1_555
H24B C31B 1_555 1_555
C32B C31B 1_555 1_555
H25B C32B 1_555 1_555
C33B N7B 1_555 1_555
H26B C33B 1_555 1_555
N8B N9B 1_555 1_555
N9B Co1B 1_555 1_555
C34B C29B 1_555 1_555
C35B C34B 1_555 1_555
H27B C35B 1_555 1_555
C36B N8B 1_555 1_555
H28B C36B 1_555 1_555
C37B N8B 1_555 1_555
H29B C37B 1_555 1_555
H30B C37B 1_555 1_555
N10B C38B 1_555 1_555
C38B C39B 1_555 1_555
C39B H31B 1_555 1_555
C40B C39B 1_555 1_555
H32B C40B 1_555 1_555
C41B C40B 1_555 1_555
H33B C41B 1_555 1_555
C42B N10B 1_555 1_555
H34B C42B 1_555 1_555
N11B N12B 1_555 1_555
N12B C43B 1_555 1_555
C43B C38B 1_555 1_555
C44B C43B 1_555 1_555
H35B C44B 1_555 1_555
C45B N11B 1_555 1_555
H36B C45B 1_555 1_555
C46B N11B 1_555 1_555
H37B C46B 1_555 1_555
H38B C46B 1_555 1_555
C47B C37B 1_555 1_555
C48B C47B 1_555 1_555
H39B C48B 1_555 1_555
C49B C48B 1_555 1_555
H40B C49B 1_555 1_555
C50B C49B 1_555 1_555
H41B C50B 1_555 1_555
C51B C50B 1_555 1_555
C52B C47B 1_555 1_555
C53B C52B 1_555 1_555
H42B C53B 1_555 1_555
C54B C53B 1_555 1_555
H43B C54B 1_555 1_555
C55B C54B 1_555 1_555
H44B C55B 1_555 1_555
C56B C46B 1_555 1_555
Co1I N10B 1_555 1_555
N1I Co1I 1_555 1_555
C1I N1I 1_555 1_555
C2I C1I 1_555 1_555
H1I C2I 1_555 1_555
C3I C2I 1_555 1_555
H2I C3I 1_555 1_555
C4I C3I 1_555 1_555
H3I C4I 1_555 1_555
C5I N1I 1_555 1_555
H4I C5I 1_555 1_555
N2I N3I 1_555 1_555
N3I Co1I 1_555 1_555
C6I C1I 1_555 1_555
C7I C6I 1_555 1_555
H5I C7I 1_555 1_555
C8I N2I 1_555 1_555
H6I C8I 1_555 1_555
C9I N2I 1_555 1_555
H7I C9I 1_555 1_555
H8I C9I 1_555 1_555
N4I C10I 1_555 1_555
C10I C11I 1_555 1_555
C11I H9I 1_555 1_555
C12I C11I 1_555 1_555
H10I C12I 1_555 1_555
C13I C12I 1_555 1_555
H11I C13I 1_555 1_555
C14I N4I 1_555 1_555
H12I C14I 1_555 1_555
N5I N6I 1_555 1_555
N6I C15I 1_555 1_555
C15I C10I 1_555 1_555
C16I C15I 1_555 1_555
H13I C16I 1_555 1_555
C17I N5I 1_555 1_555
H14I C17I 1_555 1_555
C18I N5I 1_555 1_555
H15I C18I 1_555 1_555
H16I C18I 1_555 1_555
C19I C9I 1_555 1_555
C20I C19I 1_555 1_555
H17I C20I 1_555 1_555
C21I C20I 1_555 1_555
H18I C21I 1_555 1_555
C22I C21I 1_555 1_555
H19I C22I 1_555 1_555
C23I C22I 1_555 1_555
C24I C19I 1_555 1_555
C25I C24I 1_555 1_555
H20I C25I 1_555 1_555
C26I C25I 1_555 1_555
H21I C26I 1_555 1_555
C27I C26I 1_555 1_555
H22I C27I 1_555 1_555
C28I C18I 1_555 1_555
N7I Co1I 1_555 1_555
C29I N7I 1_555 1_555
C30I C29I 1_555 1_555
H23I C30I 1_555 1_555
C31I C30I 1_555 1_555
H24I C31I 1_555 1_555
C32I C31I 1_555 1_555
H25I C32I 1_555 1_555
C33I N7I 1_555 1_555
H26I C33I 1_555 1_555
N8I N9I 1_555 1_555
N9I Co1I 1_555 1_555
C34I C29I 1_555 1_555
C35I C34I 1_555 1_555
H27I C35I 1_555 1_555
C36I N8I 1_555 1_555
H28I C36I 1_555 1_555
C37I N8I 1_555 1_555
H29I C37I 1_555 1_555
H30I C37I 1_555 1_555
N10I Co1A 1_555 1_555
C38I N10I 1_555 1_555
C39I C38I 1_555 1_555
H31I C39I 1_555 1_555
C40I C39I 1_555 1_555
H32I C40I 1_555 1_555
C41I C40I 1_555 1_555
H33I C41I 1_555 1_555
C42I N10I 1_555 1_555
H34I C42I 1_555 1_555
N11I N12I 1_555 1_555
N12I Co1A 1_555 1_555
C43I C38I 1_555 1_555
C44I C43I 1_555 1_555
H35I C44I 1_555 1_555
C45I N11I 1_555 1_555
H36I C45I 1_555 1_555
C46I N11I 1_555 1_555
H37I C46I 1_555 1_555
H38I C46I 1_555 1_555
C47I C37I 1_555 1_555
C48I C47I 1_555 1_555
H39I C48I 1_555 1_555
C49I C48I 1_555 1_555
H40I C49I 1_555 1_555
C50I C49I 1_555 1_555
H41I C50I 1_555 1_555
C51I C50I 1_555 1_555
C52I C47I 1_555 1_555
C53I C52I 1_555 1_555
H42I C53I 1_555 1_555
C54I C53I 1_555 1_555
H43I C54I 1_555 1_555
C55I C54I 1_555 1_555
H44I C55I 1_555 1_555
C56I C46I 1_555 1_555
Os1I N4I 1_555 1_555
Co1J N10 1_555 1_555
N1J Co1J 1_555 1_555
C1J N1J 1_555 1_555
C2J C1J 1_555 1_555
H1J C2J 1_555 1_555
C3J C2J 1_555 1_555
H2J C3J 1_555 1_555
C4J C3J 1_555 1_555
H3J C4J 1_555 1_555
C5J N1J 1_555 1_555
H4J C5J 1_555 1_555
N2J N3J 1_555 1_555
N3J Co1J 1_555 1_555
C6J C1J 1_555 1_555
C7J C6J 1_555 1_555
H5J C7J 1_555 1_555
C8J N2J 1_555 1_555
H6J C8J 1_555 1_555
C9J N2J 1_555 1_555
H7J C9J 1_555 1_555
H8J C9J 1_555 1_555
N4J Os1I 1_555 1_555
C10J N4J 1_555 1_555
C11J C10J 1_555 1_555
H9J C11J 1_555 1_555
C12J C11J 1_555 1_555
H10J C12J 1_555 1_555
C13J C12J 1_555 1_555
H11J C13J 1_555 1_555
C14J N4J 1_555 1_555
H12J C14J 1_555 1_555
N5J N6J 1_555 1_555
N6J Os1I 1_555 1_555
C15J C10J 1_555 1_555
C16J C15J 1_555 1_555
H13J C16J 1_555 1_555
C17J N5J 1_555 1_555
H14J C17J 1_555 1_555
C18J N5J 1_555 1_555
H15J C18J 1_555 1_555
H16J C18J 1_555 1_555
C19J C9J 1_555 1_555
C20J C19J 1_555 1_555
H17J C20J 1_555 1_555
C21J C20J 1_555 1_555
H18J C21J 1_555 1_555
C22J C21J 1_555 1_555
H19J C22J 1_555 1_555
C23J C22J 1_555 1_555
C24J C19J 1_555 1_555
C25J C24J 1_555 1_555
H20J C25J 1_555 1_555
C26J C25J 1_555 1_555
H21J C26J 1_555 1_555
C27J C26J 1_555 1_555
H22J C27J 1_555 1_555
C28J C18J 1_555 1_555
N7J Co1J 1_555 1_555
C29J N7J 1_555 1_555
C30J C29J 1_555 1_555
H23J C30J 1_555 1_555
C31J C30J 1_555 1_555
H24J C31J 1_555 1_555
C32J C31J 1_555 1_555
H25J C32J 1_555 1_555
C33J N7J 1_555 1_555
H26J C33J 1_555 1_555
N8J N9J 1_555 1_555
N9J Co1J 1_555 1_555
C34J C29J 1_555 1_555
C35J C34J 1_555 1_555
H27J C35J 1_555 1_555
C36J N8J 1_555 1_555
H28J C36J 1_555 1_555
C37J N8J 1_555 1_555
H29J C37J 1_555 1_555
H30J C37J 1_555 1_555
N10J Co1B 1_555 1_555
C38J N10J 1_555 1_555
C39J C38J 1_555 1_555
H31J C39J 1_555 1_555
C40J C39J 1_555 1_555
H32J C40J 1_555 1_555
C41J C40J 1_555 1_555
H33J C41J 1_555 1_555
C42J N10J 1_555 1_555
H34J C42J 1_555 1_555
N11J N12J 1_555 1_555
N12J Co1B 1_555 1_555
C43J C38J 1_555 1_555
C44J C43J 1_555 1_555
H35J C44J 1_555 1_555
C45J N11J 1_555 1_555
H36J C45J 1_555 1_555
C46J N11J 1_555 1_555
H37J C46J 1_555 1_555
H38J C46J 1_555 1_555
C47J C37J 1_555 1_555
C48J C47J 1_555 1_555
H39J C48J 1_555 1_555
C49J C48J 1_555 1_555
H40J C49J 1_555 1_555
C50J C49J 1_555 1_555
H41J C50J 1_555 1_555
C51J C50J 1_555 1_555
C52J C47J 1_555 1_555
C53J C52J 1_555 1_555
H42J C53J 1_555 1_555
C54J C53J 1_555 1_555
H43J C54J 1_555 1_555
C55J C54J 1_555 1_555
H44J C55J 1_555 1_555
C56J C46J 1_555 1_555
Co1K N10A 1_555 1_555
N1K Co1K 1_555 1_555
C1K N1K 1_555 1_555
C2K C1K 1_555 1_555
H1K C2K 1_555 1_555
C3K C2K 1_555 1_555
H2K C3K 1_555 1_555
C4K C3K 1_555 1_555
H3K C4K 1_555 1_555
C5K N1K 1_555 1_555
H4K C5K 1_555 1_555
N2K N3K 1_555 1_555
N3K Co1K 1_555 1_555
C6K C1K 1_555 1_555
C7K C6K 1_555 1_555
H5K C7K 1_555 1_555
C8K N2K 1_555 1_555
H6K C8K 1_555 1_555
C9K N2K 1_555 1_555
H7K C9K 1_555 1_555
H8K C9K 1_555 1_555
N4K Os1I 1_555 1_555
C10K N4K 1_555 1_555
C11K C10K 1_555 1_555
H9K C11K 1_555 1_555
C12K C11K 1_555 1_555
H10K C12K 1_555 1_555
C13K C12K 1_555 1_555
H11K C13K 1_555 1_555
C14K N4K 1_555 1_555
H12K C14K 1_555 1_555
N5K N6K 1_555 1_555
N6K Os1I 1_555 1_555
C15K C10K 1_555 1_555
C16K C15K 1_555 1_555
H13K C16K 1_555 1_555
C17K N5K 1_555 1_555
H14K C17K 1_555 1_555
C18K N5K 1_555 1_555
H15K C18K 1_555 1_555
H16K C18K 1_555 1_555
C19K C9K 1_555 1_555
C20K C19K 1_555 1_555
H17K C20K 1_555 1_555
C21K C20K 1_555 1_555
H18K C21K 1_555 1_555
C22K C21K 1_555 1_555
H19K C22K 1_555 1_555
C23K C22K 1_555 1_555
C24K C19K 1_555 1_555
C25K C24K 1_555 1_555
H20K C25K 1_555 1_555
C26K C25K 1_555 1_555
H21K C26K 1_555 1_555
C27K C26K 1_555 1_555
H22K C27K 1_555 1_555
C28K C18K 1_555 1_555
N7K Co1K 1_555 1_555
C29K N7K 1_555 1_555
C30K C29K 1_555 1_555
H23K C30K 1_555 1_555
C31K C30K 1_555 1_555
H24K C31K 1_555 1_555
C32K C31K 1_555 1_555
H25K C32K 1_555 1_555
C33K N7K 1_555 1_555
H26K C33K 1_555 1_555
N8K N9K 1_555 1_555
N9K Co1K 1_555 1_555
C34K C29K 1_555 1_555
C35K C34K 1_555 1_555
H27K C35K 1_555 1_555
C36K N8K 1_555 1_555
H28K C36K 1_555 1_555
C37K N8K 1_555 1_555
H29K C37K 1_555 1_555
H30K C37K 1_555 1_555
N10K Co1 1_555 1_555
C38K N10K 1_555 1_555
C39K C38K 1_555 1_555
H31K C39K 1_555 1_555
C40K C39K 1_555 1_555
H32K C40K 1_555 1_555
C41K C40K 1_555 1_555
H33K C41K 1_555 1_555
C42K N10K 1_555 1_555
H34K C42K 1_555 1_555
N11K N12K 1_555 1_555
N12K Co1 1_555 1_555
C43K C38K 1_555 1_555
C44K C43K 1_555 1_555
H35K C44K 1_555 1_555
C45K N11K 1_555 1_555
H36K C45K 1_555 1_555
C46K N11K 1_555 1_555
H37K C46K 1_555 1_555
H38K C46K 1_555 1_555
C47K C37K 1_555 1_555
C48K C47K 1_555 1_555
H39K C48K 1_555 1_555
C49K C48K 1_555 1_555
H40K C49K 1_555 1_555
C50K C49K 1_555 1_555
H41K C50K 1_555 1_555
C51K C50K 1_555 1_555
C52K C47K 1_555 1_555
C53K C52K 1_555 1_555
H42K C53K 1_555 1_555
C54K C53K 1_555 1_555
H43K C54K 1_555 1_555
C55K C54K 1_555 1_555
H44K C55K 1_555 1_555
C56K C46K 1_555 1_555
C4 C5 1_555 1_555
N3 C6 1_555 1_555
C7 C8 1_555 1_555
C13 C14 1_555 1_555
N6 Os1 1_555 1_555
C16 C17 1_555 1_555
C23 C24 1_555 1_555
C23 C28 1_555 1_555
C27 C28 1_555 1_555
C32 C33 1_555 1_555
N9 C34 1_555 1_555
C35 C36 1_555 1_555
C41 C42 1_555 1_555
N12 Co1J 1_555 1_555
C44 C45 1_555 1_555
C51 C52 1_555 1_555
C51 C56 1_555 1_555
C55 C56 1_555 1_555
C4A C5A 1_555 1_555
N3A C6A 1_555 1_555
C7A C8A 1_555 1_555
C13A C14A 1_555 1_555
N6A C15A 1_555 1_555
C16A C17A 1_555 1_555
C23A C24A 1_555 1_555
C23A C28A 1_555 1_555
C27A C28A 1_555 1_555
C32A C33A 1_555 1_555
N9A C34A 1_555 1_555
C35A C36A 1_555 1_555
C41A C42A 1_555 1_555
N12A Co1K 1_555 1_555
C44A C45A 1_555 1_555
C51A C52A 1_555 1_555
C51A C56A 1_555 1_555
C55A C56A 1_555 1_555
C4B C5B 1_555 1_555
N3B C6B 1_555 1_555
C7B C8B 1_555 1_555
C13B C14B 1_555 1_555
N6B C15B 1_555 1_555
C16B C17B 1_555 1_555
C23B C24B 1_555 1_555
C23B C28B 1_555 1_555
C27B C28B 1_555 1_555
C32B C33B 1_555 1_555
N9B C34B 1_555 1_555
C35B C36B 1_555 1_555
C41B C42B 1_555 1_555
N12B Co1I 1_555 1_555
C44B C45B 1_555 1_555
C51B C52B 1_555 1_555
C51B C56B 1_555 1_555
C55B C56B 1_555 1_555
C4I C5I 1_555 1_555
N3I C6I 1_555 1_555
C7I C8I 1_555 1_555
C13I C14I 1_555 1_555
N6I Os1I 1_555 1_555
C16I C17I 1_555 1_555
C23I C24I 1_555 1_555
C23I C28I 1_555 1_555
C27I C28I 1_555 1_555
C32I C33I 1_555 1_555
N9I C34I 1_555 1_555
C35I C36I 1_555 1_555
C41I C42I 1_555 1_555
N12I C43I 1_555 1_555
C44I C45I 1_555 1_555
C51I C52I 1_555 1_555
C51I C56I 1_555 1_555
C55I C56I 1_555 1_555
C4J C5J 1_555 1_555
N3J C6J 1_555 1_555
C7J C8J 1_555 1_555
C13J C14J 1_555 1_555
N6J C15J 1_555 1_555
C16J C17J 1_555 1_555
C23J C24J 1_555 1_555
C23J C28J 1_555 1_555
C27J C28J 1_555 1_555
C32J C33J 1_555 1_555
N9J C34J 1_555 1_555
C35J C36J 1_555 1_555
C41J C42J 1_555 1_555
N12J C43J 1_555 1_555
C44J C45J 1_555 1_555
C51J C52J 1_555 1_555
C51J C56J 1_555 1_555
C55J C56J 1_555 1_555
C4K C5K 1_555 1_555
N3K C6K 1_555 1_555
C7K C8K 1_555 1_555
C13K C14K 1_555 1_555
N6K C15K 1_555 1_555
C16K C17K 1_555 1_555
C23K C24K 1_555 1_555
C23K C28K 1_555 1_555
C27K C28K 1_555 1_555
C32K C33K 1_555 1_555
N9K C34K 1_555 1_555
C35K C36K 1_555 1_555
C41K C42K 1_555 1_555
N12K C43K 1_555 1_555
C44K C45K 1_555 1_555
C51K C52K 1_555 1_555
C51K C56K 1_555 1_555
C55K C56K 1_555 1_555

#END
