# generated using pymatgen
data_Cd17.42857143Os6.57142857H792C1008N216Cl108O438
_symmetry_space_group_name_H-M   'P 1'
_cell_length_a   28.98700000
_cell_length_b   28.98700000
_cell_length_c   54.10000000
_cell_angle_alpha   90.00000000
_cell_angle_beta   90.00000000
_cell_angle_gamma   120.00000000
_symmetry_Int_Tables_number   1
_chemical_formula_structural
Cd17.42857143Os6.57142857H792C1008N216Cl108O438
_chemical_formula_sum
'Cd17.42857143 Os6.57142857 H792 C1008 N216 Cl108 O438'
_cell_volume   39367.19195325
_cell_formula_units_Z   1
loop_
 _symmetry_equiv_pos_site_id
 _symmetry_equiv_pos_as_xyz
  1  'x, y, z'
loop_
 _atom_site_type_symbol
 _atom_site_label
 _atom_site_symmetry_multiplicity
 _atom_site_fract_x
 _atom_site_fract_y
 _atom_site_fract_z
 _atom_site_occupancy
  Cd  Cd1  1  0.389950  0.410610  0.893140  0.8571428571428571
  Os  Os2  1  0.389950  0.410610  0.893140  0.14285714285714285
  Cd  Cd3  1  0.020660  0.610050  0.893140  0.8571428571428571
  Os  Os4  1  0.020660  0.610050  0.893140  0.14285714285714285
  Cd  Cd5  1  0.589390  0.979340  0.893140  0.8571428571428571
  Os  Os6  1  0.589390  0.979340  0.893140  0.14285714285714285
  Cd  Cd7  1  0.723283  0.077277  0.559807  0.8571428571428571
  Os  Os8  1  0.723283  0.077277  0.559807  0.14285714285714285
  Cd  Cd9  1  0.353993  0.276717  0.559807  0.8571428571428571
  Os  Os10  1  0.353993  0.276717  0.559807  0.14285714285714285
  Cd  Cd11  1  0.922723  0.646007  0.559807  0.8571428571428571
  Os  Os12  1  0.922723  0.646007  0.559807  0.14285714285714285
  Cd  Cd13  1  0.056617  0.743943  0.226473  0.8571428571428571
  Os  Os14  1  0.056617  0.743943  0.226473  0.14285714285714285
  Cd  Cd15  1  0.687327  0.943383  0.226473  0.8571428571428571
  Os  Os16  1  0.687327  0.943383  0.226473  0.14285714285714285
  Cd  Cd17  1  0.256057  0.312673  0.226473  0.8571428571428571
  Os  Os18  1  0.256057  0.312673  0.226473  0.14285714285714285
  Cd  Cd19  1  0.610050  0.589390  0.106860  0.8571428571428571
  Os  Os20  1  0.610050  0.589390  0.106860  0.14285714285714285
  Cd  Cd21  1  0.979340  0.389950  0.106860  0.8571428571428571
  Os  Os22  1  0.979340  0.389950  0.106860  0.14285714285714285
  Cd  Cd23  1  0.410610  0.020660  0.106860  0.8571428571428571
  Os  Os24  1  0.410610  0.020660  0.106860  0.14285714285714285
  Cd  Cd25  1  0.276717  0.922723  0.440193  0.8571428571428571
  Os  Os26  1  0.276717  0.922723  0.440193  0.14285714285714285
  Cd  Cd27  1  0.646007  0.723283  0.440193  0.8571428571428571
  Os  Os28  1  0.646007  0.723283  0.440193  0.14285714285714285
  Cd  Cd29  1  0.077277  0.353993  0.440193  0.8571428571428571
  Os  Os30  1  0.077277  0.353993  0.440193  0.14285714285714285
  Cd  Cd31  1  0.943383  0.256057  0.773527  0.8571428571428571
  Os  Os32  1  0.943383  0.256057  0.773527  0.14285714285714285
  Cd  Cd33  1  0.312673  0.056617  0.773527  0.8571428571428571
  Os  Os34  1  0.312673  0.056617  0.773527  0.14285714285714285
  Cd  Cd35  1  0.743943  0.687327  0.773527  0.8571428571428571
  Os  Os36  1  0.743943  0.687327  0.773527  0.14285714285714285
  Cd  Cd37  1  0.666667  0.333333  0.008020  0.3333333333333333
  Os  Os38  1  0.666667  0.333333  0.008020  0.6666666666666666
  Cd  Cd39  1  0.000000  0.000000  0.674687  0.3333333333333333
  Os  Os40  1  0.000000  0.000000  0.674687  0.6666666666666666
  Cd  Cd41  1  0.333333  0.666667  0.341353  0.3333333333333333
  Os  Os42  1  0.333333  0.666667  0.341353  0.6666666666666666
  Cd  Cd43  1  0.333333  0.666667  0.991980  0.3333333333333333
  Os  Os44  1  0.333333  0.666667  0.991980  0.6666666666666666
  Cd  Cd45  1  0.000000  0.000000  0.325313  0.3333333333333333
  Os  Os46  1  0.000000  0.000000  0.325313  0.6666666666666666
  Cd  Cd47  1  0.666667  0.333333  0.658647  0.3333333333333333
  Os  Os48  1  0.666667  0.333333  0.658647  0.6666666666666666
  H  H49  1  0.511800  0.608100  0.869700  1.0
  H  H50  1  0.096300  0.488200  0.869700  1.0
  H  H51  1  0.391900  0.903700  0.869700  1.0
  H  H52  1  0.845133  0.274767  0.536367  1.0
  H  H53  1  0.429633  0.154867  0.536367  1.0
  H  H54  1  0.725233  0.570367  0.536367  1.0
  H  H55  1  0.178467  0.941433  0.203033  1.0
  H  H56  1  0.762967  0.821533  0.203033  1.0
  H  H57  1  0.058567  0.237033  0.203033  1.0
  H  H58  1  0.488200  0.391900  0.130300  1.0
  H  H59  1  0.903700  0.511800  0.130300  1.0
  H  H60  1  0.608100  0.096300  0.130300  1.0
  H  H61  1  0.154867  0.725233  0.463633  1.0
  H  H62  1  0.570367  0.845133  0.463633  1.0
  H  H63  1  0.274767  0.429633  0.463633  1.0
  H  H64  1  0.821533  0.058567  0.796967  1.0
  H  H65  1  0.237033  0.178467  0.796967  1.0
  H  H66  1  0.941433  0.762967  0.796967  1.0
  H  H67  1  0.467300  0.609400  0.833900  1.0
  H  H68  1  0.142100  0.532700  0.833900  1.0
  H  H69  1  0.390600  0.857900  0.833900  1.0
  H  H70  1  0.800633  0.276067  0.500567  1.0
  H  H71  1  0.475433  0.199367  0.500567  1.0
  H  H72  1  0.723933  0.524567  0.500567  1.0
  H  H73  1  0.133967  0.942733  0.167233  1.0
  H  H74  1  0.808767  0.866033  0.167233  1.0
  H  H75  1  0.057267  0.191233  0.167233  1.0
  H  H76  1  0.532700  0.390600  0.166100  1.0
  H  H77  1  0.857900  0.467300  0.166100  1.0
  H  H78  1  0.609400  0.142100  0.166100  1.0
  H  H79  1  0.199367  0.723933  0.499433  1.0
  H  H80  1  0.524567  0.800633  0.499433  1.0
  H  H81  1  0.276067  0.475433  0.499433  1.0
  H  H82  1  0.866033  0.057267  0.832767  1.0
  H  H83  1  0.191233  0.133967  0.832767  1.0
  H  H84  1  0.942733  0.808767  0.832767  1.0
  H  H85  1  0.390600  0.532100  0.820900  1.0
  H  H86  1  0.141500  0.609400  0.820900  1.0
  H  H87  1  0.467900  0.858500  0.820900  1.0
  H  H88  1  0.723933  0.198767  0.487567  1.0
  H  H89  1  0.474833  0.276067  0.487567  1.0
  H  H90  1  0.801233  0.525167  0.487567  1.0
  H  H91  1  0.057267  0.865433  0.154233  1.0
  H  H92  1  0.808167  0.942733  0.154233  1.0
  H  H93  1  0.134567  0.191833  0.154233  1.0
  H  H94  1  0.609400  0.467900  0.179100  1.0
  H  H95  1  0.858500  0.390600  0.179100  1.0
  H  H96  1  0.532100  0.141500  0.179100  1.0
  H  H97  1  0.276067  0.801233  0.512433  1.0
  H  H98  1  0.525167  0.723933  0.512433  1.0
  H  H99  1  0.198767  0.474833  0.512433  1.0
  H  H100  1  0.942733  0.134567  0.845767  1.0
  H  H101  1  0.191833  0.057267  0.845767  1.0
  H  H102  1  0.865433  0.808167  0.845767  1.0
  H  H103  1  0.358200  0.453500  0.843900  1.0
  H  H104  1  0.095300  0.641800  0.843900  1.0
  H  H105  1  0.546500  0.904700  0.843900  1.0
  H  H106  1  0.691533  0.120167  0.510567  1.0
  H  H107  1  0.428633  0.308467  0.510567  1.0
  H  H108  1  0.879833  0.571367  0.510567  1.0
  H  H109  1  0.024867  0.786833  0.177233  1.0
  H  H110  1  0.761967  0.975133  0.177233  1.0
  H  H111  1  0.213167  0.238033  0.177233  1.0
  H  H112  1  0.641800  0.546500  0.156100  1.0
  H  H113  1  0.904700  0.358200  0.156100  1.0
  H  H114  1  0.453500  0.095300  0.156100  1.0
  H  H115  1  0.308467  0.879833  0.489433  1.0
  H  H116  1  0.571367  0.691533  0.489433  1.0
  H  H117  1  0.120167  0.428633  0.489433  1.0
  H  H118  1  0.975133  0.213167  0.822767  1.0
  H  H119  1  0.238033  0.024867  0.822767  1.0
  H  H120  1  0.786833  0.761967  0.822767  1.0
  H  H121  1  0.546300  0.598800  0.912200  1.0
  H  H122  1  0.052500  0.453700  0.912200  1.0
  H  H123  1  0.401200  0.947500  0.912200  1.0
  H  H124  1  0.879633  0.265467  0.578867  1.0
  H  H125  1  0.385833  0.120367  0.578867  1.0
  H  H126  1  0.734533  0.614167  0.578867  1.0
  H  H127  1  0.212967  0.932133  0.245533  1.0
  H  H128  1  0.719167  0.787033  0.245533  1.0
  H  H129  1  0.067867  0.280833  0.245533  1.0
  H  H130  1  0.453700  0.401200  0.087800  1.0
  H  H131  1  0.947500  0.546300  0.087800  1.0
  H  H132  1  0.598800  0.052500  0.087800  1.0
  H  H133  1  0.120367  0.734533  0.421133  1.0
  H  H134  1  0.614167  0.879633  0.421133  1.0
  H  H135  1  0.265467  0.385833  0.421133  1.0
  H  H136  1  0.787033  0.067867  0.754467  1.0
  H  H137  1  0.280833  0.212967  0.754467  1.0
  H  H138  1  0.932133  0.719167  0.754467  1.0
  H  H139  1  0.551400  0.549400  0.949900  1.0
  H  H140  1  0.998000  0.448600  0.949900  1.0
  H  H141  1  0.450600  0.002000  0.949900  1.0
  H  H142  1  0.884733  0.216067  0.616567  1.0
  H  H143  1  0.331333  0.115267  0.616567  1.0
  H  H144  1  0.783933  0.668667  0.616567  1.0
  H  H145  1  0.218067  0.882733  0.283233  1.0
  H  H146  1  0.664667  0.781933  0.283233  1.0
  H  H147  1  0.117267  0.335333  0.283233  1.0
  H  H148  1  0.448600  0.450600  0.050100  1.0
  H  H149  1  0.002000  0.551400  0.050100  1.0
  H  H150  1  0.549400  0.998000  0.050100  1.0
  H  H151  1  0.115267  0.783933  0.383433  1.0
  H  H152  1  0.668667  0.884733  0.383433  1.0
  H  H153  1  0.216067  0.331333  0.383433  1.0
  H  H154  1  0.781933  0.117267  0.716767  1.0
  H  H155  1  0.335333  0.218067  0.716767  1.0
  H  H156  1  0.882733  0.664667  0.716767  1.0
  H  H157  1  0.441500  0.408000  0.947700  1.0
  H  H158  1  0.966500  0.558500  0.947700  1.0
  H  H159  1  0.592000  0.033500  0.947700  1.0
  H  H160  1  0.774833  0.074667  0.614367  1.0
  H  H161  1  0.299833  0.225167  0.614367  1.0
  H  H162  1  0.925333  0.700167  0.614367  1.0
  H  H163  1  0.108167  0.741333  0.281033  1.0
  H  H164  1  0.633167  0.891833  0.281033  1.0
  H  H165  1  0.258667  0.366833  0.281033  1.0
  H  H166  1  0.558500  0.592000  0.052300  1.0
  H  H167  1  0.033500  0.441500  0.052300  1.0
  H  H168  1  0.408000  0.966500  0.052300  1.0
  H  H169  1  0.225167  0.925333  0.385633  1.0
  H  H170  1  0.700167  0.774833  0.385633  1.0
  H  H171  1  0.074667  0.299833  0.385633  1.0
  H  H172  1  0.891833  0.258667  0.718967  1.0
  H  H173  1  0.366833  0.108167  0.718967  1.0
  H  H174  1  0.741333  0.633167  0.718967  1.0
  H  H175  1  0.488300  0.447100  0.965800  1.0
  H  H176  1  0.958800  0.511700  0.965800  1.0
  H  H177  1  0.552900  0.041200  0.965800  1.0
  H  H178  1  0.821633  0.113767  0.632467  1.0
  H  H179  1  0.292133  0.178367  0.632467  1.0
  H  H180  1  0.886233  0.707867  0.632467  1.0
  H  H181  1  0.154967  0.780433  0.299133  1.0
  H  H182  1  0.625467  0.845033  0.299133  1.0
  H  H183  1  0.219567  0.374533  0.299133  1.0
  H  H184  1  0.511700  0.552900  0.034200  1.0
  H  H185  1  0.041200  0.488300  0.034200  1.0
  H  H186  1  0.447100  0.958800  0.034200  1.0
  H  H187  1  0.178367  0.886233  0.367533  1.0
  H  H188  1  0.707867  0.821633  0.367533  1.0
  H  H189  1  0.113767  0.292133  0.367533  1.0
  H  H190  1  0.845033  0.219567  0.700867  1.0
  H  H191  1  0.374533  0.154967  0.700867  1.0
  H  H192  1  0.780433  0.625467  0.700867  1.0
  H  H193  1  0.596500  0.137000  0.031000  1.0
  H  H194  1  0.540500  0.403500  0.031000  1.0
  H  H195  1  0.863000  0.459500  0.031000  1.0
  H  H196  1  0.929833  0.803667  0.697667  1.0
  H  H197  1  0.873833  0.070167  0.697667  1.0
  H  H198  1  0.196333  0.126167  0.697667  1.0
  H  H199  1  0.263167  0.470333  0.364333  1.0
  H  H200  1  0.207167  0.736833  0.364333  1.0
  H  H201  1  0.529667  0.792833  0.364333  1.0
  H  H202  1  0.403500  0.863000  0.969000  1.0
  H  H203  1  0.459500  0.596500  0.969000  1.0
  H  H204  1  0.137000  0.540500  0.969000  1.0
  H  H205  1  0.070167  0.196333  0.302333  1.0
  H  H206  1  0.126167  0.929833  0.302333  1.0
  H  H207  1  0.803667  0.873833  0.302333  1.0
  H  H208  1  0.736833  0.529667  0.635667  1.0
  H  H209  1  0.792833  0.263167  0.635667  1.0
  H  H210  1  0.470333  0.207167  0.635667  1.0
  H  H211  1  0.654700  0.150600  0.063800  1.0
  H  H212  1  0.495900  0.345300  0.063800  1.0
  H  H213  1  0.849400  0.504100  0.063800  1.0
  H  H214  1  0.988033  0.817267  0.730467  1.0
  H  H215  1  0.829233  0.011967  0.730467  1.0
  H  H216  1  0.182733  0.170767  0.730467  1.0
  H  H217  1  0.321367  0.483933  0.397133  1.0
  H  H218  1  0.162567  0.678633  0.397133  1.0
  H  H219  1  0.516067  0.837433  0.397133  1.0
  H  H220  1  0.345300  0.849400  0.936200  1.0
  H  H221  1  0.504100  0.654700  0.936200  1.0
  H  H222  1  0.150600  0.495900  0.936200  1.0
  H  H223  1  0.011967  0.182733  0.269533  1.0
  H  H224  1  0.170767  0.988033  0.269533  1.0
  H  H225  1  0.817267  0.829233  0.269533  1.0
  H  H226  1  0.678633  0.516067  0.602867  1.0
  H  H227  1  0.837433  0.321367  0.602867  1.0
  H  H228  1  0.483933  0.162567  0.602867  1.0
  H  H229  1  0.718400  0.237200  0.075300  1.0
  H  H230  1  0.518800  0.281600  0.075300  1.0
  H  H231  1  0.762800  0.481200  0.075300  1.0
  H  H232  1  0.051733  0.903867  0.741967  1.0
  H  H233  1  0.852133  0.948267  0.741967  1.0
  H  H234  1  0.096133  0.147867  0.741967  1.0
  H  H235  1  0.385067  0.570533  0.408633  1.0
  H  H236  1  0.185467  0.614933  0.408633  1.0
  H  H237  1  0.429467  0.814533  0.408633  1.0
  H  H238  1  0.281600  0.762800  0.924700  1.0
  H  H239  1  0.481200  0.718400  0.924700  1.0
  H  H240  1  0.237200  0.518800  0.924700  1.0
  H  H241  1  0.948267  0.096133  0.258033  1.0
  H  H242  1  0.147867  0.051733  0.258033  1.0
  H  H243  1  0.903867  0.852133  0.258033  1.0
  H  H244  1  0.614933  0.429467  0.591367  1.0
  H  H245  1  0.814533  0.385067  0.591367  1.0
  H  H246  1  0.570533  0.185467  0.591367  1.0
  H  H247  1  0.724000  0.310300  0.054200  1.0
  H  H248  1  0.586300  0.276000  0.054200  1.0
  H  H249  1  0.689700  0.413700  0.054200  1.0
  H  H250  1  0.057333  0.976967  0.720867  1.0
  H  H251  1  0.919633  0.942667  0.720867  1.0
  H  H252  1  0.023033  0.080367  0.720867  1.0
  H  H253  1  0.390667  0.643633  0.387533  1.0
  H  H254  1  0.252967  0.609333  0.387533  1.0
  H  H255  1  0.356367  0.747033  0.387533  1.0
  H  H256  1  0.276000  0.689700  0.945800  1.0
  H  H257  1  0.413700  0.724000  0.945800  1.0
  H  H258  1  0.310300  0.586300  0.945800  1.0
  H  H259  1  0.942667  0.023033  0.279133  1.0
  H  H260  1  0.080367  0.057333  0.279133  1.0
  H  H261  1  0.976967  0.919633  0.279133  1.0
  H  H262  1  0.609333  0.356367  0.612467  1.0
  H  H263  1  0.747033  0.390667  0.612467  1.0
  H  H264  1  0.643633  0.252967  0.612467  1.0
  H  H265  1  0.537400  0.131700  0.996100  1.0
  H  H266  1  0.594300  0.462600  0.996100  1.0
  H  H267  1  0.868300  0.405700  0.996100  1.0
  H  H268  1  0.870733  0.798367  0.662767  1.0
  H  H269  1  0.927633  0.129267  0.662767  1.0
  H  H270  1  0.201633  0.072367  0.662767  1.0
  H  H271  1  0.204067  0.465033  0.329433  1.0
  H  H272  1  0.260967  0.795933  0.329433  1.0
  H  H273  1  0.534967  0.739033  0.329433  1.0
  H  H274  1  0.462600  0.868300  0.003900  1.0
  H  H275  1  0.405700  0.537400  0.003900  1.0
  H  H276  1  0.131700  0.594300  0.003900  1.0
  H  H277  1  0.129267  0.201633  0.337233  1.0
  H  H278  1  0.072367  0.870733  0.337233  1.0
  H  H279  1  0.798367  0.927633  0.337233  1.0
  H  H280  1  0.795933  0.534967  0.670567  1.0
  H  H281  1  0.739033  0.204067  0.670567  1.0
  H  H282  1  0.465033  0.260967  0.670567  1.0
  H  H283  1  0.510500  0.166800  0.959100  1.0
  H  H284  1  0.656300  0.489500  0.959100  1.0
  H  H285  1  0.833200  0.343700  0.959100  1.0
  H  H286  1  0.843833  0.833467  0.625767  1.0
  H  H287  1  0.989633  0.156167  0.625767  1.0
  H  H288  1  0.166533  0.010367  0.625767  1.0
  H  H289  1  0.177167  0.500133  0.292433  1.0
  H  H290  1  0.322967  0.822833  0.292433  1.0
  H  H291  1  0.499867  0.677033  0.292433  1.0
  H  H292  1  0.489500  0.833200  0.040900  1.0
  H  H293  1  0.343700  0.510500  0.040900  1.0
  H  H294  1  0.166800  0.656300  0.040900  1.0
  H  H295  1  0.156167  0.166533  0.374233  1.0
  H  H296  1  0.010367  0.843833  0.374233  1.0
  H  H297  1  0.833467  0.989633  0.374233  1.0
  H  H298  1  0.822833  0.499867  0.707567  1.0
  H  H299  1  0.677033  0.177167  0.707567  1.0
  H  H300  1  0.500133  0.322967  0.707567  1.0
  H  H301  1  0.559900  0.264200  0.936600  1.0
  H  H302  1  0.704300  0.440100  0.936600  1.0
  H  H303  1  0.735800  0.295700  0.936600  1.0
  H  H304  1  0.893233  0.930867  0.603267  1.0
  H  H305  1  0.037633  0.106767  0.603267  1.0
  H  H306  1  0.069133  0.962367  0.603267  1.0
  H  H307  1  0.226567  0.597533  0.269933  1.0
  H  H308  1  0.370967  0.773433  0.269933  1.0
  H  H309  1  0.402467  0.629033  0.269933  1.0
  H  H310  1  0.440100  0.735800  0.063400  1.0
  H  H311  1  0.295700  0.559900  0.063400  1.0
  H  H312  1  0.264200  0.704300  0.063400  1.0
  H  H313  1  0.106767  0.069133  0.396733  1.0
  H  H314  1  0.962367  0.893233  0.396733  1.0
  H  H315  1  0.930867  0.037633  0.396733  1.0
  H  H316  1  0.773433  0.402467  0.730067  1.0
  H  H317  1  0.629033  0.226567  0.730067  1.0
  H  H318  1  0.597533  0.370967  0.730067  1.0
  H  H319  1  0.607800  0.311800  0.951300  1.0
  H  H320  1  0.704000  0.392200  0.951300  1.0
  H  H321  1  0.688200  0.296000  0.951300  1.0
  H  H322  1  0.941133  0.978467  0.617967  1.0
  H  H323  1  0.037333  0.058867  0.617967  1.0
  H  H324  1  0.021533  0.962667  0.617967  1.0
  H  H325  1  0.274467  0.645133  0.284633  1.0
  H  H326  1  0.370667  0.725533  0.284633  1.0
  H  H327  1  0.354867  0.629333  0.284633  1.0
  H  H328  1  0.392200  0.688200  0.048700  1.0
  H  H329  1  0.296000  0.607800  0.048700  1.0
  H  H330  1  0.311800  0.704000  0.048700  1.0
  H  H331  1  0.058867  0.021533  0.382033  1.0
  H  H332  1  0.962667  0.941133  0.382033  1.0
  H  H333  1  0.978467  0.037333  0.382033  1.0
  H  H334  1  0.725533  0.354867  0.715367  1.0
  H  H335  1  0.629333  0.274467  0.715367  1.0
  H  H336  1  0.645133  0.370667  0.715367  1.0
  H  H337  1  0.546200  0.458900  0.911900  1.0
  H  H338  1  0.912700  0.453800  0.911900  1.0
  H  H339  1  0.541100  0.087300  0.911900  1.0
  H  H340  1  0.879533  0.125567  0.578567  1.0
  H  H341  1  0.246033  0.120467  0.578567  1.0
  H  H342  1  0.874433  0.753967  0.578567  1.0
  H  H343  1  0.212867  0.792233  0.245233  1.0
  H  H344  1  0.579367  0.787133  0.245233  1.0
  H  H345  1  0.207767  0.420633  0.245233  1.0
  H  H346  1  0.453800  0.541100  0.088100  1.0
  H  H347  1  0.087300  0.546200  0.088100  1.0
  H  H348  1  0.458900  0.912700  0.088100  1.0
  H  H349  1  0.120467  0.874433  0.421433  1.0
  H  H350  1  0.753967  0.879533  0.421433  1.0
  H  H351  1  0.125567  0.246033  0.421433  1.0
  H  H352  1  0.787133  0.207767  0.754767  1.0
  H  H353  1  0.420633  0.212867  0.754767  1.0
  H  H354  1  0.792233  0.579367  0.754767  1.0
  H  H355  1  0.597400  0.421100  0.899500  1.0
  H  H356  1  0.823700  0.402600  0.899500  1.0
  H  H357  1  0.578900  0.176300  0.899500  1.0
  H  H358  1  0.930733  0.087767  0.566167  1.0
  H  H359  1  0.157033  0.069267  0.566167  1.0
  H  H360  1  0.912233  0.842967  0.566167  1.0
  H  H361  1  0.264067  0.754433  0.232833  1.0
  H  H362  1  0.490367  0.735933  0.232833  1.0
  H  H363  1  0.245567  0.509633  0.232833  1.0
  H  H364  1  0.402600  0.578900  0.100500  1.0
  H  H365  1  0.176300  0.597400  0.100500  1.0
  H  H366  1  0.421100  0.823700  0.100500  1.0
  H  H367  1  0.069267  0.912233  0.433833  1.0
  H  H368  1  0.842967  0.930733  0.433833  1.0
  H  H369  1  0.087767  0.157033  0.433833  1.0
  H  H370  1  0.735933  0.245567  0.767167  1.0
  H  H371  1  0.509633  0.264067  0.767167  1.0
  H  H372  1  0.754433  0.490367  0.767167  1.0
  H  H373  1  0.592600  0.349300  0.921600  1.0
  H  H374  1  0.756700  0.407400  0.921600  1.0
  H  H375  1  0.650700  0.243300  0.921600  1.0
  H  H376  1  0.925933  0.015967  0.588267  1.0
  H  H377  1  0.090033  0.074067  0.588267  1.0
  H  H378  1  0.984033  0.909967  0.588267  1.0
  H  H379  1  0.259267  0.682633  0.254933  1.0
  H  H380  1  0.423367  0.740733  0.254933  1.0
  H  H381  1  0.317367  0.576633  0.254933  1.0
  H  H382  1  0.407400  0.650700  0.078400  1.0
  H  H383  1  0.243300  0.592600  0.078400  1.0
  H  H384  1  0.349300  0.756700  0.078400  1.0
  H  H385  1  0.074067  0.984033  0.411733  1.0
  H  H386  1  0.909967  0.925933  0.411733  1.0
  H  H387  1  0.015967  0.090033  0.411733  1.0
  H  H388  1  0.740733  0.317367  0.745067  1.0
  H  H389  1  0.576633  0.259267  0.745067  1.0
  H  H390  1  0.682633  0.423367  0.745067  1.0
  H  H391  1  0.454100  0.362100  0.979900  1.0
  H  H392  1  0.908000  0.545900  0.979900  1.0
  H  H393  1  0.637900  0.092000  0.979900  1.0
  H  H394  1  0.787433  0.028767  0.646567  1.0
  H  H395  1  0.241333  0.212567  0.646567  1.0
  H  H396  1  0.971233  0.758667  0.646567  1.0
  H  H397  1  0.120767  0.695433  0.313233  1.0
  H  H398  1  0.574667  0.879233  0.313233  1.0
  H  H399  1  0.304567  0.425333  0.313233  1.0
  H  H400  1  0.545900  0.637900  0.020100  1.0
  H  H401  1  0.092000  0.454100  0.020100  1.0
  H  H402  1  0.362100  0.908000  0.020100  1.0
  H  H403  1  0.212567  0.971233  0.353433  1.0
  H  H404  1  0.758667  0.787433  0.353433  1.0
  H  H405  1  0.028767  0.241333  0.353433  1.0
  H  H406  1  0.879233  0.304567  0.686767  1.0
  H  H407  1  0.425333  0.120767  0.686767  1.0
  H  H408  1  0.695433  0.574667  0.686767  1.0
  H  H409  1  0.449300  0.290300  0.001900  1.0
  H  H410  1  0.841000  0.550700  0.001900  1.0
  H  H411  1  0.709700  0.159000  0.001900  1.0
  H  H412  1  0.782633  0.956967  0.668567  1.0
  H  H413  1  0.174333  0.217367  0.668567  1.0
  H  H414  1  0.043033  0.825667  0.668567  1.0
  H  H415  1  0.115967  0.623633  0.335233  1.0
  H  H416  1  0.507667  0.884033  0.335233  1.0
  H  H417  1  0.376367  0.492333  0.335233  1.0
  H  H418  1  0.550700  0.709700  0.998100  1.0
  H  H419  1  0.159000  0.449300  0.998100  1.0
  H  H420  1  0.290300  0.841000  0.998100  1.0
  H  H421  1  0.217367  0.043033  0.331433  1.0
  H  H422  1  0.825667  0.782633  0.331433  1.0
  H  H423  1  0.956967  0.174333  0.331433  1.0
  H  H424  1  0.884033  0.376367  0.664767  1.0
  H  H425  1  0.492333  0.115967  0.664767  1.0
  H  H426  1  0.623633  0.507667  0.664767  1.0
  H  H427  1  0.500500  0.252500  0.989500  1.0
  H  H428  1  0.752000  0.499500  0.989500  1.0
  H  H429  1  0.747500  0.248000  0.989500  1.0
  H  H430  1  0.833833  0.919167  0.656167  1.0
  H  H431  1  0.085333  0.166167  0.656167  1.0
  H  H432  1  0.080833  0.914667  0.656167  1.0
  H  H433  1  0.167167  0.585833  0.322833  1.0
  H  H434  1  0.418667  0.832833  0.322833  1.0
  H  H435  1  0.414167  0.581333  0.322833  1.0
  H  H436  1  0.499500  0.747500  0.010500  1.0
  H  H437  1  0.248000  0.500500  0.010500  1.0
  H  H438  1  0.252500  0.752000  0.010500  1.0
  H  H439  1  0.166167  0.080833  0.343833  1.0
  H  H440  1  0.914667  0.833833  0.343833  1.0
  H  H441  1  0.919167  0.085333  0.343833  1.0
  H  H442  1  0.832833  0.414167  0.677167  1.0
  H  H443  1  0.581333  0.167167  0.677167  1.0
  H  H444  1  0.585833  0.418667  0.677167  1.0
  H  H445  1  0.212900  0.395800  0.919500  1.0
  H  H446  1  0.182900  0.787100  0.919500  1.0
  H  H447  1  0.604200  0.817100  0.919500  1.0
  H  H448  1  0.546233  0.062467  0.586167  1.0
  H  H449  1  0.516233  0.453767  0.586167  1.0
  H  H450  1  0.937533  0.483767  0.586167  1.0
  H  H451  1  0.879567  0.729133  0.252833  1.0
  H  H452  1  0.849567  0.120433  0.252833  1.0
  H  H453  1  0.270867  0.150433  0.252833  1.0
  H  H454  1  0.787100  0.604200  0.080500  1.0
  H  H455  1  0.817100  0.212900  0.080500  1.0
  H  H456  1  0.395800  0.182900  0.080500  1.0
  H  H457  1  0.453767  0.937533  0.413833  1.0
  H  H458  1  0.483767  0.546233  0.413833  1.0
  H  H459  1  0.062467  0.516233  0.413833  1.0
  H  H460  1  0.120433  0.270867  0.747167  1.0
  H  H461  1  0.150433  0.879567  0.747167  1.0
  H  H462  1  0.729133  0.849567  0.747167  1.0
  H  H463  1  0.241300  0.444700  0.956300  1.0
  H  H464  1  0.203400  0.758700  0.956300  1.0
  H  H465  1  0.555300  0.796600  0.956300  1.0
  H  H466  1  0.574633  0.111367  0.622967  1.0
  H  H467  1  0.536733  0.425367  0.622967  1.0
  H  H468  1  0.888633  0.463267  0.622967  1.0
  H  H469  1  0.907967  0.778033  0.289633  1.0
  H  H470  1  0.870067  0.092033  0.289633  1.0
  H  H471  1  0.221967  0.129933  0.289633  1.0
  H  H472  1  0.758700  0.555300  0.043700  1.0
  H  H473  1  0.796600  0.241300  0.043700  1.0
  H  H474  1  0.444700  0.203400  0.043700  1.0
  H  H475  1  0.425367  0.888633  0.377033  1.0
  H  H476  1  0.463267  0.574633  0.377033  1.0
  H  H477  1  0.111367  0.536733  0.377033  1.0
  H  H478  1  0.092033  0.221967  0.710367  1.0
  H  H479  1  0.129933  0.907967  0.710367  1.0
  H  H480  1  0.778033  0.870067  0.710367  1.0
  H  H481  1  0.330600  0.483700  0.968400  1.0
  H  H482  1  0.153100  0.669400  0.968400  1.0
  H  H483  1  0.516300  0.846900  0.968400  1.0
  H  H484  1  0.663933  0.150367  0.635067  1.0
  H  H485  1  0.486433  0.336067  0.635067  1.0
  H  H486  1  0.849633  0.513567  0.635067  1.0
  H  H487  1  0.997267  0.817033  0.301733  1.0
  H  H488  1  0.819767  0.002733  0.301733  1.0
  H  H489  1  0.182967  0.180233  0.301733  1.0
  H  H490  1  0.669400  0.516300  0.031600  1.0
  H  H491  1  0.846900  0.330600  0.031600  1.0
  H  H492  1  0.483700  0.153100  0.031600  1.0
  H  H493  1  0.336067  0.849633  0.364933  1.0
  H  H494  1  0.513567  0.663933  0.364933  1.0
  H  H495  1  0.150367  0.486433  0.364933  1.0
  H  H496  1  0.002733  0.182967  0.698267  1.0
  H  H497  1  0.180233  0.997267  0.698267  1.0
  H  H498  1  0.817033  0.819767  0.698267  1.0
  H  H499  1  0.391400  0.473800  0.943700  1.0
  H  H500  1  0.082400  0.608600  0.943700  1.0
  H  H501  1  0.526200  0.917600  0.943700  1.0
  H  H502  1  0.724733  0.140467  0.610367  1.0
  H  H503  1  0.415733  0.275267  0.610367  1.0
  H  H504  1  0.859533  0.584267  0.610367  1.0
  H  H505  1  0.058067  0.807133  0.277033  1.0
  H  H506  1  0.749067  0.941933  0.277033  1.0
  H  H507  1  0.192867  0.250933  0.277033  1.0
  H  H508  1  0.608600  0.526200  0.056300  1.0
  H  H509  1  0.917600  0.391400  0.056300  1.0
  H  H510  1  0.473800  0.082400  0.056300  1.0
  H  H511  1  0.275267  0.859533  0.389633  1.0
  H  H512  1  0.584267  0.724733  0.389633  1.0
  H  H513  1  0.140467  0.415733  0.389633  1.0
  H  H514  1  0.941933  0.192867  0.722967  1.0
  H  H515  1  0.250933  0.058067  0.722967  1.0
  H  H516  1  0.807133  0.749067  0.722967  1.0
  H  H517  1  0.188600  0.342200  0.879500  1.0
  H  H518  1  0.153600  0.811400  0.879500  1.0
  H  H519  1  0.657800  0.846400  0.879500  1.0
  H  H520  1  0.521933  0.008867  0.546167  1.0
  H  H521  1  0.486933  0.478067  0.546167  1.0
  H  H522  1  0.991133  0.513067  0.546167  1.0
  H  H523  1  0.855267  0.675533  0.212833  1.0
  H  H524  1  0.820267  0.144733  0.212833  1.0
  H  H525  1  0.324467  0.179733  0.212833  1.0
  H  H526  1  0.811400  0.657800  0.120500  1.0
  H  H527  1  0.846400  0.188600  0.120500  1.0
  H  H528  1  0.342200  0.153600  0.120500  1.0
  H  H529  1  0.478067  0.991133  0.453833  1.0
  H  H530  1  0.513067  0.521933  0.453833  1.0
  H  H531  1  0.008867  0.486933  0.453833  1.0
  H  H532  1  0.144733  0.324467  0.787167  1.0
  H  H533  1  0.179733  0.855267  0.787167  1.0
  H  H534  1  0.675533  0.820267  0.787167  1.0
  H  H535  1  0.207500  0.301800  0.842000  1.0
  H  H536  1  0.094300  0.792500  0.842000  1.0
  H  H537  1  0.698200  0.905700  0.842000  1.0
  H  H538  1  0.540833  0.968467  0.508667  1.0
  H  H539  1  0.427633  0.459167  0.508667  1.0
  H  H540  1  0.031533  0.572367  0.508667  1.0
  H  H541  1  0.874167  0.635133  0.175333  1.0
  H  H542  1  0.760967  0.125833  0.175333  1.0
  H  H543  1  0.364867  0.239033  0.175333  1.0
  H  H544  1  0.792500  0.698200  0.158000  1.0
  H  H545  1  0.905700  0.207500  0.158000  1.0
  H  H546  1  0.301800  0.094300  0.158000  1.0
  H  H547  1  0.459167  0.031533  0.491333  1.0
  H  H548  1  0.572367  0.540833  0.491333  1.0
  H  H549  1  0.968467  0.427633  0.491333  1.0
  H  H550  1  0.125833  0.364867  0.824667  1.0
  H  H551  1  0.239033  0.874167  0.824667  1.0
  H  H552  1  0.635133  0.760967  0.824667  1.0
  H  H553  1  0.352200  0.350000  0.837900  1.0
  H  H554  1  0.997800  0.647800  0.837900  1.0
  H  H555  1  0.650000  0.002200  0.837900  1.0
  H  H556  1  0.685533  0.016667  0.504567  1.0
  H  H557  1  0.331133  0.314467  0.504567  1.0
  H  H558  1  0.983333  0.668867  0.504567  1.0
  H  H559  1  0.018867  0.683333  0.171233  1.0
  H  H560  1  0.664467  0.981133  0.171233  1.0
  H  H561  1  0.316667  0.335533  0.171233  1.0
  H  H562  1  0.647800  0.650000  0.162100  1.0
  H  H563  1  0.002200  0.352200  0.162100  1.0
  H  H564  1  0.350000  0.997800  0.162100  1.0
  H  H565  1  0.314467  0.983333  0.495433  1.0
  H  H566  1  0.668867  0.685533  0.495433  1.0
  H  H567  1  0.016667  0.331133  0.495433  1.0
  H  H568  1  0.981133  0.316667  0.828767  1.0
  H  H569  1  0.335533  0.018867  0.828767  1.0
  H  H570  1  0.683333  0.664467  0.828767  1.0
  H  H571  1  0.298800  0.313400  0.822800  1.0
  H  H572  1  0.014600  0.701200  0.822800  1.0
  H  H573  1  0.686600  0.985400  0.822800  1.0
  H  H574  1  0.632133  0.980067  0.489467  1.0
  H  H575  1  0.347933  0.367867  0.489467  1.0
  H  H576  1  0.019933  0.652067  0.489467  1.0
  H  H577  1  0.965467  0.646733  0.156133  1.0
  H  H578  1  0.681267  0.034533  0.156133  1.0
  H  H579  1  0.353267  0.318733  0.156133  1.0
  H  H580  1  0.701200  0.686600  0.177200  1.0
  H  H581  1  0.985400  0.298800  0.177200  1.0
  H  H582  1  0.313400  0.014600  0.177200  1.0
  H  H583  1  0.367867  0.019933  0.510533  1.0
  H  H584  1  0.652067  0.632133  0.510533  1.0
  H  H585  1  0.980067  0.347933  0.510533  1.0
  H  H586  1  0.034533  0.353267  0.843867  1.0
  H  H587  1  0.318733  0.965467  0.843867  1.0
  H  H588  1  0.646733  0.681267  0.843867  1.0
  H  H589  1  0.497400  0.081600  0.752800  1.0
  H  H590  1  0.584200  0.502600  0.752800  1.0
  H  H591  1  0.918400  0.415800  0.752800  1.0
  H  H592  1  0.830733  0.748267  0.419467  1.0
  H  H593  1  0.917533  0.169267  0.419467  1.0
  H  H594  1  0.251733  0.082467  0.419467  1.0
  H  H595  1  0.164067  0.414933  0.086133  1.0
  H  H596  1  0.250867  0.835933  0.086133  1.0
  H  H597  1  0.585067  0.749133  0.086133  1.0
  H  H598  1  0.502600  0.918400  0.247200  1.0
  H  H599  1  0.415800  0.497400  0.247200  1.0
  H  H600  1  0.081600  0.584200  0.247200  1.0
  H  H601  1  0.169267  0.251733  0.580533  1.0
  H  H602  1  0.082467  0.830733  0.580533  1.0
  H  H603  1  0.748267  0.917533  0.580533  1.0
  H  H604  1  0.835933  0.585067  0.913867  1.0
  H  H605  1  0.749133  0.164067  0.913867  1.0
  H  H606  1  0.414933  0.250867  0.913867  1.0
  H  H607  1  0.474400  0.028900  0.717100  1.0
  H  H608  1  0.554500  0.525600  0.717100  1.0
  H  H609  1  0.971100  0.445500  0.717100  1.0
  H  H610  1  0.807733  0.695567  0.383767  1.0
  H  H611  1  0.887833  0.192267  0.383767  1.0
  H  H612  1  0.304433  0.112167  0.383767  1.0
  H  H613  1  0.141067  0.362233  0.050433  1.0
  H  H614  1  0.221167  0.858933  0.050433  1.0
  H  H615  1  0.637767  0.778833  0.050433  1.0
  H  H616  1  0.525600  0.971100  0.282900  1.0
  H  H617  1  0.445500  0.474400  0.282900  1.0
  H  H618  1  0.028900  0.554500  0.282900  1.0
  H  H619  1  0.192267  0.304433  0.616233  1.0
  H  H620  1  0.112167  0.807733  0.616233  1.0
  H  H621  1  0.695567  0.887833  0.616233  1.0
  H  H622  1  0.858933  0.637767  0.949567  1.0
  H  H623  1  0.778833  0.141067  0.949567  1.0
  H  H624  1  0.362233  0.221167  0.949567  1.0
  H  H625  1  0.386100  0.984800  0.703200  1.0
  H  H626  1  0.598700  0.613900  0.703200  1.0
  H  H627  1  0.015200  0.401300  0.703200  1.0
  H  H628  1  0.719433  0.651467  0.369867  1.0
  H  H629  1  0.932033  0.280567  0.369867  1.0
  H  H630  1  0.348533  0.067967  0.369867  1.0
  H  H631  1  0.052767  0.318133  0.036533  1.0
  H  H632  1  0.265367  0.947233  0.036533  1.0
  H  H633  1  0.681867  0.734633  0.036533  1.0
  H  H634  1  0.613900  0.015200  0.296800  1.0
  H  H635  1  0.401300  0.386100  0.296800  1.0
  H  H636  1  0.984800  0.598700  0.296800  1.0
  H  H637  1  0.280567  0.348533  0.630133  1.0
  H  H638  1  0.067967  0.719433  0.630133  1.0
  H  H639  1  0.651467  0.932033  0.630133  1.0
  H  H640  1  0.947233  0.681867  0.963467  1.0
  H  H641  1  0.734633  0.052767  0.963467  1.0
  H  H642  1  0.318133  0.265367  0.963467  1.0
  H  H643  1  0.321000  0.993400  0.724900  1.0
  H  H644  1  0.672400  0.679000  0.724900  1.0
  H  H645  1  0.006600  0.327600  0.724900  1.0
  H  H646  1  0.654333  0.660067  0.391567  1.0
  H  H647  1  0.005733  0.345667  0.391567  1.0
  H  H648  1  0.339933  0.994267  0.391567  1.0
  H  H649  1  0.987667  0.326733  0.058233  1.0
  H  H650  1  0.339067  0.012333  0.058233  1.0
  H  H651  1  0.673267  0.660933  0.058233  1.0
  H  H652  1  0.679000  0.006600  0.275100  1.0
  H  H653  1  0.327600  0.321000  0.275100  1.0
  H  H654  1  0.993400  0.672400  0.275100  1.0
  H  H655  1  0.345667  0.339933  0.608433  1.0
  H  H656  1  0.994267  0.654333  0.608433  1.0
  H  H657  1  0.660067  0.005733  0.608433  1.0
  H  H658  1  0.012333  0.673267  0.941767  1.0
  H  H659  1  0.660933  0.987667  0.941767  1.0
  H  H660  1  0.326733  0.339067  0.941767  1.0
  H  H661  1  0.513400  0.131200  0.792000  1.0
  H  H662  1  0.617800  0.486600  0.792000  1.0
  H  H663  1  0.868800  0.382200  0.792000  1.0
  H  H664  1  0.846733  0.797867  0.458667  1.0
  H  H665  1  0.951133  0.153267  0.458667  1.0
  H  H666  1  0.202133  0.048867  0.458667  1.0
  H  H667  1  0.180067  0.464533  0.125333  1.0
  H  H668  1  0.284467  0.819933  0.125333  1.0
  H  H669  1  0.535467  0.715533  0.125333  1.0
  H  H670  1  0.486600  0.868800  0.208000  1.0
  H  H671  1  0.382200  0.513400  0.208000  1.0
  H  H672  1  0.131200  0.617800  0.208000  1.0
  H  H673  1  0.153267  0.202133  0.541333  1.0
  H  H674  1  0.048867  0.846733  0.541333  1.0
  H  H675  1  0.797867  0.951133  0.541333  1.0
  H  H676  1  0.819933  0.535467  0.874667  1.0
  H  H677  1  0.715533  0.180067  0.874667  1.0
  H  H678  1  0.464533  0.284467  0.874667  1.0
  H  H679  1  0.489500  0.165600  0.830200  1.0
  H  H680  1  0.676100  0.510500  0.830200  1.0
  H  H681  1  0.834400  0.323900  0.830200  1.0
  H  H682  1  0.822833  0.832267  0.496867  1.0
  H  H683  1  0.009433  0.177167  0.496867  1.0
  H  H684  1  0.167733  0.990567  0.496867  1.0
  H  H685  1  0.156167  0.498933  0.163533  1.0
  H  H686  1  0.342767  0.843833  0.163533  1.0
  H  H687  1  0.501067  0.657233  0.163533  1.0
  H  H688  1  0.510500  0.834400  0.169800  1.0
  H  H689  1  0.323900  0.489500  0.169800  1.0
  H  H690  1  0.165600  0.676100  0.169800  1.0
  H  H691  1  0.177167  0.167733  0.503133  1.0
  H  H692  1  0.990567  0.822833  0.503133  1.0
  H  H693  1  0.832267  0.009433  0.503133  1.0
  H  H694  1  0.843833  0.501067  0.836467  1.0
  H  H695  1  0.657233  0.156167  0.836467  1.0
  H  H696  1  0.498933  0.342767  0.836467  1.0
  H  H697  1  0.341900  0.109800  0.832700  1.0
  H  H698  1  0.767900  0.658100  0.832700  1.0
  H  H699  1  0.890200  0.232100  0.832700  1.0
  H  H700  1  0.675233  0.776467  0.499367  1.0
  H  H701  1  0.101233  0.324767  0.499367  1.0
  H  H702  1  0.223533  0.898767  0.499367  1.0
  H  H703  1  0.008567  0.443133  0.166033  1.0
  H  H704  1  0.434567  0.991433  0.166033  1.0
  H  H705  1  0.556867  0.565433  0.166033  1.0
  H  H706  1  0.658100  0.890200  0.167300  1.0
  H  H707  1  0.232100  0.341900  0.167300  1.0
  H  H708  1  0.109800  0.767900  0.167300  1.0
  H  H709  1  0.324767  0.223533  0.500633  1.0
  H  H710  1  0.898767  0.675233  0.500633  1.0
  H  H711  1  0.776467  0.101233  0.500633  1.0
  H  H712  1  0.991433  0.556867  0.833967  1.0
  H  H713  1  0.565433  0.008567  0.833967  1.0
  H  H714  1  0.443133  0.434567  0.833967  1.0
  H  H715  1  0.393000  0.143400  0.849700  1.0
  H  H716  1  0.750400  0.607000  0.849700  1.0
  H  H717  1  0.856600  0.249600  0.849700  1.0
  H  H718  1  0.726333  0.810067  0.516367  1.0
  H  H719  1  0.083733  0.273667  0.516367  1.0
  H  H720  1  0.189933  0.916267  0.516367  1.0
  H  H721  1  0.059667  0.476733  0.183033  1.0
  H  H722  1  0.417067  0.940333  0.183033  1.0
  H  H723  1  0.523267  0.582933  0.183033  1.0
  H  H724  1  0.607000  0.856600  0.150300  1.0
  H  H725  1  0.249600  0.393000  0.150300  1.0
  H  H726  1  0.143400  0.750400  0.150300  1.0
  H  H727  1  0.273667  0.189933  0.483633  1.0
  H  H728  1  0.916267  0.726333  0.483633  1.0
  H  H729  1  0.810067  0.083733  0.483633  1.0
  H  H730  1  0.940333  0.523267  0.816967  1.0
  H  H731  1  0.582933  0.059667  0.816967  1.0
  H  H732  1  0.476733  0.417067  0.816967  1.0
  H  H733  1  0.271300  0.252900  0.878600  1.0
  H  H734  1  0.981600  0.728700  0.878600  1.0
  H  H735  1  0.747100  0.018400  0.878600  1.0
  H  H736  1  0.604633  0.919567  0.545267  1.0
  H  H737  1  0.314933  0.395367  0.545267  1.0
  H  H738  1  0.080433  0.685067  0.545267  1.0
  H  H739  1  0.937967  0.586233  0.211933  1.0
  H  H740  1  0.648267  0.062033  0.211933  1.0
  H  H741  1  0.413767  0.351733  0.211933  1.0
  H  H742  1  0.728700  0.747100  0.121400  1.0
  H  H743  1  0.018400  0.271300  0.121400  1.0
  H  H744  1  0.252900  0.981600  0.121400  1.0
  H  H745  1  0.395367  0.080433  0.454733  1.0
  H  H746  1  0.685067  0.604633  0.454733  1.0
  H  H747  1  0.919567  0.314933  0.454733  1.0
  H  H748  1  0.062033  0.413767  0.788067  1.0
  H  H749  1  0.351733  0.937967  0.788067  1.0
  H  H750  1  0.586233  0.648267  0.788067  1.0
  H  H751  1  0.276100  0.177800  0.890500  1.0
  H  H752  1  0.901700  0.723900  0.890500  1.0
  H  H753  1  0.822200  0.098300  0.890500  1.0
  H  H754  1  0.609433  0.844467  0.557167  1.0
  H  H755  1  0.235033  0.390567  0.557167  1.0
  H  H756  1  0.155533  0.764967  0.557167  1.0
  H  H757  1  0.942767  0.511133  0.223833  1.0
  H  H758  1  0.568367  0.057233  0.223833  1.0
  H  H759  1  0.488867  0.431633  0.223833  1.0
  H  H760  1  0.723900  0.822200  0.109500  1.0
  H  H761  1  0.098300  0.276100  0.109500  1.0
  H  H762  1  0.177800  0.901700  0.109500  1.0
  H  H763  1  0.390567  0.155533  0.442833  1.0
  H  H764  1  0.764967  0.609433  0.442833  1.0
  H  H765  1  0.844467  0.235033  0.442833  1.0
  H  H766  1  0.057233  0.488867  0.776167  1.0
  H  H767  1  0.431633  0.942767  0.776167  1.0
  H  H768  1  0.511133  0.568367  0.776167  1.0
  H  H769  1  0.324700  0.149600  0.866600  1.0
  H  H770  1  0.824900  0.675300  0.866600  1.0
  H  H771  1  0.850400  0.175100  0.866600  1.0
  H  H772  1  0.658033  0.816267  0.533267  1.0
  H  H773  1  0.158233  0.341967  0.533267  1.0
  H  H774  1  0.183733  0.841767  0.533267  1.0
  H  H775  1  0.991367  0.482933  0.199933  1.0
  H  H776  1  0.491567  0.008633  0.199933  1.0
  H  H777  1  0.517067  0.508433  0.199933  1.0
  H  H778  1  0.675300  0.850400  0.133400  1.0
  H  H779  1  0.175100  0.324700  0.133400  1.0
  H  H780  1  0.149600  0.824900  0.133400  1.0
  H  H781  1  0.341967  0.183733  0.466733  1.0
  H  H782  1  0.841767  0.658033  0.466733  1.0
  H  H783  1  0.816267  0.158233  0.466733  1.0
  H  H784  1  0.008633  0.517067  0.800067  1.0
  H  H785  1  0.508433  0.991367  0.800067  1.0
  H  H786  1  0.482933  0.491567  0.800067  1.0
  H  H787  1  0.370200  0.311100  0.807500  1.0
  H  H788  1  0.940900  0.629800  0.807500  1.0
  H  H789  1  0.688900  0.059100  0.807500  1.0
  H  H790  1  0.703533  0.977767  0.474167  1.0
  H  H791  1  0.274233  0.296467  0.474167  1.0
  H  H792  1  0.022233  0.725767  0.474167  1.0
  H  H793  1  0.036867  0.644433  0.140833  1.0
  H  H794  1  0.607567  0.963133  0.140833  1.0
  H  H795  1  0.355567  0.392433  0.140833  1.0
  H  H796  1  0.629800  0.688900  0.192500  1.0
  H  H797  1  0.059100  0.370200  0.192500  1.0
  H  H798  1  0.311100  0.940900  0.192500  1.0
  H  H799  1  0.296467  0.022233  0.525833  1.0
  H  H800  1  0.725767  0.703533  0.525833  1.0
  H  H801  1  0.977767  0.274233  0.525833  1.0
  H  H802  1  0.963133  0.355567  0.859167  1.0
  H  H803  1  0.392433  0.036867  0.859167  1.0
  H  H804  1  0.644433  0.607567  0.859167  1.0
  H  H805  1  0.418900  0.282900  0.783600  1.0
  H  H806  1  0.864000  0.581100  0.783600  1.0
  H  H807  1  0.717100  0.136000  0.783600  1.0
  H  H808  1  0.752233  0.949567  0.450267  1.0
  H  H809  1  0.197333  0.247767  0.450267  1.0
  H  H810  1  0.050433  0.802667  0.450267  1.0
  H  H811  1  0.085567  0.616233  0.116933  1.0
  H  H812  1  0.530667  0.914433  0.116933  1.0
  H  H813  1  0.383767  0.469333  0.116933  1.0
  H  H814  1  0.581100  0.717100  0.216400  1.0
  H  H815  1  0.136000  0.418900  0.216400  1.0
  H  H816  1  0.282900  0.864000  0.216400  1.0
  H  H817  1  0.247767  0.050433  0.549733  1.0
  H  H818  1  0.802667  0.752233  0.549733  1.0
  H  H819  1  0.949567  0.197333  0.549733  1.0
  H  H820  1  0.914433  0.383767  0.883067  1.0
  H  H821  1  0.469333  0.085567  0.883067  1.0
  H  H822  1  0.616233  0.530667  0.883067  1.0
  H  H823  1  0.423600  0.207700  0.795500  1.0
  H  H824  1  0.784100  0.576400  0.795500  1.0
  H  H825  1  0.792300  0.215900  0.795500  1.0
  H  H826  1  0.756933  0.874367  0.462167  1.0
  H  H827  1  0.117433  0.243067  0.462167  1.0
  H  H828  1  0.125633  0.882567  0.462167  1.0
  H  H829  1  0.090267  0.541033  0.128833  1.0
  H  H830  1  0.450767  0.909733  0.128833  1.0
  H  H831  1  0.458967  0.549233  0.128833  1.0
  H  H832  1  0.576400  0.792300  0.204500  1.0
  H  H833  1  0.215900  0.423600  0.204500  1.0
  H  H834  1  0.207700  0.784100  0.204500  1.0
  H  H835  1  0.243067  0.125633  0.537833  1.0
  H  H836  1  0.882567  0.756933  0.537833  1.0
  H  H837  1  0.874367  0.117433  0.537833  1.0
  H  H838  1  0.909733  0.458967  0.871167  1.0
  H  H839  1  0.549233  0.090267  0.871167  1.0
  H  H840  1  0.541033  0.450767  0.871167  1.0
  C  C841  1  0.461400  0.530000  0.878130  1.0
  C  C842  1  0.068600  0.538600  0.878130  1.0
  C  C843  1  0.470000  0.931400  0.878130  1.0
  C  C844  1  0.794733  0.196667  0.544797  1.0
  C  C845  1  0.401933  0.205267  0.544797  1.0
  C  C846  1  0.803333  0.598067  0.544797  1.0
  C  C847  1  0.128067  0.863333  0.211463  1.0
  C  C848  1  0.735267  0.871933  0.211463  1.0
  C  C849  1  0.136667  0.264733  0.211463  1.0
  C  C850  1  0.538600  0.470000  0.121870  1.0
  C  C851  1  0.931400  0.461400  0.121870  1.0
  C  C852  1  0.530000  0.068600  0.121870  1.0
  C  C853  1  0.205267  0.803333  0.455203  1.0
  C  C854  1  0.598067  0.794733  0.455203  1.0
  C  C855  1  0.196667  0.401933  0.455203  1.0
  C  C856  1  0.871933  0.136667  0.788537  1.0
  C  C857  1  0.264733  0.128067  0.788537  1.0
  C  C858  1  0.863333  0.735267  0.788537  1.0
  C  C859  1  0.480600  0.576700  0.864490  1.0
  C  C860  1  0.096100  0.519400  0.864490  1.0
  C  C861  1  0.423300  0.903900  0.864490  1.0
  C  C862  1  0.813933  0.243367  0.531157  1.0
  C  C863  1  0.429433  0.186067  0.531157  1.0
  C  C864  1  0.756633  0.570567  0.531157  1.0
  C  C865  1  0.147267  0.910033  0.197823  1.0
  C  C866  1  0.762767  0.852733  0.197823  1.0
  C  C867  1  0.089967  0.237233  0.197823  1.0
  C  C868  1  0.519400  0.423300  0.135510  1.0
  C  C869  1  0.903900  0.480600  0.135510  1.0
  C  C870  1  0.576700  0.096100  0.135510  1.0
  C  C871  1  0.186067  0.756633  0.468843  1.0
  C  C872  1  0.570567  0.813933  0.468843  1.0
  C  C873  1  0.243367  0.429433  0.468843  1.0
  C  C874  1  0.852733  0.089967  0.802177  1.0
  C  C875  1  0.237233  0.147267  0.802177  1.0
  C  C876  1  0.910033  0.762767  0.802177  1.0
  C  C877  1  0.454200  0.577500  0.843180  1.0
  C  C878  1  0.123300  0.545800  0.843180  1.0
  C  C879  1  0.422500  0.876700  0.843180  1.0
  C  C880  1  0.787533  0.244167  0.509847  1.0
  C  C881  1  0.456633  0.212467  0.509847  1.0
  C  C882  1  0.755833  0.543367  0.509847  1.0
  C  C883  1  0.120867  0.910833  0.176513  1.0
  C  C884  1  0.789967  0.879133  0.176513  1.0
  C  C885  1  0.089167  0.210033  0.176513  1.0
  C  C886  1  0.545800  0.422500  0.156820  1.0
  C  C887  1  0.876700  0.454200  0.156820  1.0
  C  C888  1  0.577500  0.123300  0.156820  1.0
  C  C889  1  0.212467  0.755833  0.490153  1.0
  C  C890  1  0.543367  0.787533  0.490153  1.0
  C  C891  1  0.244167  0.456633  0.490153  1.0
  C  C892  1  0.879133  0.089167  0.823487  1.0
  C  C893  1  0.210033  0.120867  0.823487  1.0
  C  C894  1  0.910833  0.789967  0.823487  1.0
  C  C895  1  0.408600  0.531600  0.835510  1.0
  C  C896  1  0.123000  0.591400  0.835510  1.0
  C  C897  1  0.468400  0.877000  0.835510  1.0
  C  C898  1  0.741933  0.198267  0.502177  1.0
  C  C899  1  0.456333  0.258067  0.502177  1.0
  C  C900  1  0.801733  0.543667  0.502177  1.0
  C  C901  1  0.075267  0.864933  0.168843  1.0
  C  C902  1  0.789667  0.924733  0.168843  1.0
  C  C903  1  0.135067  0.210333  0.168843  1.0
  C  C904  1  0.591400  0.468400  0.164490  1.0
  C  C905  1  0.877000  0.408600  0.164490  1.0
  C  C906  1  0.531600  0.123000  0.164490  1.0
  C  C907  1  0.258067  0.801733  0.497823  1.0
  C  C908  1  0.543667  0.741933  0.497823  1.0
  C  C909  1  0.198267  0.456333  0.497823  1.0
  C  C910  1  0.924733  0.135067  0.831157  1.0
  C  C911  1  0.210333  0.075267  0.831157  1.0
  C  C912  1  0.864933  0.789667  0.831157  1.0
  C  C913  1  0.389400  0.484900  0.849140  1.0
  C  C914  1  0.095500  0.610600  0.849140  1.0
  C  C915  1  0.515100  0.904500  0.849140  1.0
  C  C916  1  0.722733  0.151567  0.515807  1.0
  C  C917  1  0.428833  0.277267  0.515807  1.0
  C  C918  1  0.848433  0.571167  0.515807  1.0
  C  C919  1  0.056067  0.818233  0.182473  1.0
  C  C920  1  0.762167  0.943933  0.182473  1.0
  C  C921  1  0.181767  0.237833  0.182473  1.0
  C  C922  1  0.610600  0.515100  0.150860  1.0
  C  C923  1  0.904500  0.389400  0.150860  1.0
  C  C924  1  0.484900  0.095500  0.150860  1.0
  C  C925  1  0.277267  0.848433  0.484193  1.0
  C  C926  1  0.571167  0.722733  0.484193  1.0
  C  C927  1  0.151567  0.428833  0.484193  1.0
  C  C928  1  0.943933  0.181767  0.817527  1.0
  C  C929  1  0.237833  0.056067  0.817527  1.0
  C  C930  1  0.818233  0.762167  0.817527  1.0
  C  C931  1  0.482600  0.524500  0.899980  1.0
  C  C932  1  0.041900  0.517400  0.899980  1.0
  C  C933  1  0.475500  0.958100  0.899980  1.0
  C  C934  1  0.815933  0.191167  0.566647  1.0
  C  C935  1  0.375233  0.184067  0.566647  1.0
  C  C936  1  0.808833  0.624767  0.566647  1.0
  C  C937  1  0.149267  0.857833  0.233313  1.0
  C  C938  1  0.708567  0.850733  0.233313  1.0
  C  C939  1  0.142167  0.291433  0.233313  1.0
  C  C940  1  0.517400  0.475500  0.100020  1.0
  C  C941  1  0.958100  0.482600  0.100020  1.0
  C  C942  1  0.524500  0.041900  0.100020  1.0
  C  C943  1  0.184067  0.808833  0.433353  1.0
  C  C944  1  0.624767  0.815933  0.433353  1.0
  C  C945  1  0.191167  0.375233  0.433353  1.0
  C  C946  1  0.850733  0.142167  0.766687  1.0
  C  C947  1  0.291433  0.149267  0.766687  1.0
  C  C948  1  0.857833  0.708567  0.766687  1.0
  C  C949  1  0.524200  0.561800  0.915410  1.0
  C  C950  1  0.037600  0.475800  0.915410  1.0
  C  C951  1  0.438200  0.962400  0.915410  1.0
  C  C952  1  0.857533  0.228467  0.582077  1.0
  C  C953  1  0.370933  0.142467  0.582077  1.0
  C  C954  1  0.771533  0.629067  0.582077  1.0
  C  C955  1  0.190867  0.895133  0.248743  1.0
  C  C956  1  0.704267  0.809133  0.248743  1.0
  C  C957  1  0.104867  0.295733  0.248743  1.0
  C  C958  1  0.475800  0.438200  0.084590  1.0
  C  C959  1  0.962400  0.524200  0.084590  1.0
  C  C960  1  0.561800  0.037600  0.084590  1.0
  C  C961  1  0.142467  0.771533  0.417923  1.0
  C  C962  1  0.629067  0.857533  0.417923  1.0
  C  C963  1  0.228467  0.370933  0.417923  1.0
  C  C964  1  0.809133  0.104867  0.751257  1.0
  C  C965  1  0.295733  0.190867  0.751257  1.0
  C  C966  1  0.895133  0.704267  0.751257  1.0
  C  C967  1  0.527100  0.534200  0.936490  1.0
  C  C968  1  0.007100  0.472900  0.936490  1.0
  C  C969  1  0.465800  0.992900  0.936490  1.0
  C  C970  1  0.860433  0.200867  0.603157  1.0
  C  C971  1  0.340433  0.139567  0.603157  1.0
  C  C972  1  0.799133  0.659567  0.603157  1.0
  C  C973  1  0.193767  0.867533  0.269823  1.0
  C  C974  1  0.673767  0.806233  0.269823  1.0
  C  C975  1  0.132467  0.326233  0.269823  1.0
  C  C976  1  0.472900  0.465800  0.063510  1.0
  C  C977  1  0.992900  0.527100  0.063510  1.0
  C  C978  1  0.534200  0.007100  0.063510  1.0
  C  C979  1  0.139567  0.799133  0.396843  1.0
  C  C980  1  0.659567  0.860433  0.396843  1.0
  C  C981  1  0.200867  0.340433  0.396843  1.0
  C  C982  1  0.806233  0.132467  0.730177  1.0
  C  C983  1  0.326233  0.193767  0.730177  1.0
  C  C984  1  0.867533  0.673767  0.730177  1.0
  C  C985  1  0.479800  0.435400  0.948390  1.0
  C  C986  1  0.955600  0.520200  0.948390  1.0
  C  C987  1  0.564600  0.044400  0.948390  1.0
  C  C988  1  0.813133  0.102067  0.615057  1.0
  C  C989  1  0.288933  0.186867  0.615057  1.0
  C  C990  1  0.897933  0.711067  0.615057  1.0
  C  C991  1  0.146467  0.768733  0.281723  1.0
  C  C992  1  0.622267  0.853533  0.281723  1.0
  C  C993  1  0.231267  0.377733  0.281723  1.0
  C  C994  1  0.520200  0.564600  0.051610  1.0
  C  C995  1  0.044400  0.479800  0.051610  1.0
  C  C996  1  0.435400  0.955600  0.051610  1.0
  C  C997  1  0.186867  0.897933  0.384943  1.0
  C  C998  1  0.711067  0.813133  0.384943  1.0
  C  C999  1  0.102067  0.288933  0.384943  1.0
  C  C1000  1  0.853533  0.231267  0.718277  1.0
  C  C1001  1  0.377733  0.146467  0.718277  1.0
  C  C1002  1  0.768733  0.622267  0.718277  1.0
  C  C1003  1  0.625600  0.215500  0.023150  1.0
  C  C1004  1  0.589900  0.374400  0.023150  1.0
  C  C1005  1  0.784500  0.410100  0.023150  1.0
  C  C1006  1  0.958933  0.882167  0.689817  1.0
  C  C1007  1  0.923233  0.041067  0.689817  1.0
  C  C1008  1  0.117833  0.076767  0.689817  1.0
  C  C1009  1  0.292267  0.548833  0.356483  1.0
  C  C1010  1  0.256567  0.707733  0.356483  1.0
  C  C1011  1  0.451167  0.743433  0.356483  1.0
  C  C1012  1  0.374400  0.784500  0.976850  1.0
  C  C1013  1  0.410100  0.625600  0.976850  1.0
  C  C1014  1  0.215500  0.589900  0.976850  1.0
  C  C1015  1  0.041067  0.117833  0.310183  1.0
  C  C1016  1  0.076767  0.958933  0.310183  1.0
  C  C1017  1  0.882167  0.923233  0.310183  1.0
  C  C1018  1  0.707733  0.451167  0.643517  1.0
  C  C1019  1  0.743433  0.292267  0.643517  1.0
  C  C1020  1  0.548833  0.256567  0.643517  1.0
  C  C1021  1  0.622300  0.172100  0.035720  1.0
  C  C1022  1  0.549800  0.377700  0.035720  1.0
  C  C1023  1  0.827900  0.450200  0.035720  1.0
  C  C1024  1  0.955633  0.838767  0.702387  1.0
  C  C1025  1  0.883133  0.044367  0.702387  1.0
  C  C1026  1  0.161233  0.116867  0.702387  1.0
  C  C1027  1  0.288967  0.505433  0.369053  1.0
  C  C1028  1  0.216467  0.711033  0.369053  1.0
  C  C1029  1  0.494567  0.783533  0.369053  1.0
  C  C1030  1  0.377700  0.827900  0.964280  1.0
  C  C1031  1  0.450200  0.622300  0.964280  1.0
  C  C1032  1  0.172100  0.549800  0.964280  1.0
  C  C1033  1  0.044367  0.161233  0.297613  1.0
  C  C1034  1  0.116867  0.955633  0.297613  1.0
  C  C1035  1  0.838767  0.883133  0.297613  1.0
  C  C1036  1  0.711033  0.494567  0.630947  1.0
  C  C1037  1  0.783533  0.288967  0.630947  1.0
  C  C1038  1  0.505433  0.216467  0.630947  1.0
  C  C1039  1  0.656900  0.180200  0.055170  1.0
  C  C1040  1  0.523300  0.343100  0.055170  1.0
  C  C1041  1  0.819800  0.476700  0.055170  1.0
  C  C1042  1  0.990233  0.846867  0.721837  1.0
  C  C1043  1  0.856633  0.009767  0.721837  1.0
  C  C1044  1  0.153133  0.143367  0.721837  1.0
  C  C1045  1  0.323567  0.513533  0.388503  1.0
  C  C1046  1  0.189967  0.676433  0.388503  1.0
  C  C1047  1  0.486467  0.810033  0.388503  1.0
  C  C1048  1  0.343100  0.819800  0.944830  1.0
  C  C1049  1  0.476700  0.656900  0.944830  1.0
  C  C1050  1  0.180200  0.523300  0.944830  1.0
  C  C1051  1  0.009767  0.153133  0.278163  1.0
  C  C1052  1  0.143367  0.990233  0.278163  1.0
  C  C1053  1  0.846867  0.856633  0.278163  1.0
  C  C1054  1  0.676433  0.486467  0.611497  1.0
  C  C1055  1  0.810033  0.323567  0.611497  1.0
  C  C1056  1  0.513533  0.189967  0.611497  1.0
  C  C1057  1  0.694800  0.231700  0.062050  1.0
  C  C1058  1  0.536900  0.305200  0.062050  1.0
  C  C1059  1  0.768300  0.463100  0.062050  1.0
  C  C1060  1  0.028133  0.898367  0.728717  1.0
  C  C1061  1  0.870233  0.971867  0.728717  1.0
  C  C1062  1  0.101633  0.129767  0.728717  1.0
  C  C1063  1  0.361467  0.565033  0.395383  1.0
  C  C1064  1  0.203567  0.638533  0.395383  1.0
  C  C1065  1  0.434967  0.796433  0.395383  1.0
  C  C1066  1  0.305200  0.768300  0.937950  1.0
  C  C1067  1  0.463100  0.694800  0.937950  1.0
  C  C1068  1  0.231700  0.536900  0.937950  1.0
  C  C1069  1  0.971867  0.101633  0.271283  1.0
  C  C1070  1  0.129767  0.028133  0.271283  1.0
  C  C1071  1  0.898367  0.870233  0.271283  1.0
  C  C1072  1  0.638533  0.434967  0.604617  1.0
  C  C1073  1  0.796433  0.361467  0.604617  1.0
  C  C1074  1  0.565033  0.203567  0.604617  1.0
  C  C1075  1  0.698100  0.275100  0.049480  1.0
  C  C1076  1  0.577000  0.301900  0.049480  1.0
  C  C1077  1  0.724900  0.423000  0.049480  1.0
  C  C1078  1  0.031433  0.941767  0.716147  1.0
  C  C1079  1  0.910333  0.968567  0.716147  1.0
  C  C1080  1  0.058233  0.089667  0.716147  1.0
  C  C1081  1  0.364767  0.608433  0.382813  1.0
  C  C1082  1  0.243667  0.635233  0.382813  1.0
  C  C1083  1  0.391567  0.756333  0.382813  1.0
  C  C1084  1  0.301900  0.724900  0.950520  1.0
  C  C1085  1  0.423000  0.698100  0.950520  1.0
  C  C1086  1  0.275100  0.577000  0.950520  1.0
  C  C1087  1  0.968567  0.058233  0.283853  1.0
  C  C1088  1  0.089667  0.031433  0.283853  1.0
  C  C1089  1  0.941767  0.910333  0.283853  1.0
  C  C1090  1  0.635233  0.391567  0.617187  1.0
  C  C1091  1  0.756333  0.364767  0.617187  1.0
  C  C1092  1  0.608433  0.243667  0.617187  1.0
  C  C1093  1  0.596400  0.211800  0.003200  1.0
  C  C1094  1  0.615400  0.403600  0.003200  1.0
  C  C1095  1  0.788200  0.384600  0.003200  1.0
  C  C1096  1  0.929733  0.878467  0.669867  1.0
  C  C1097  1  0.948733  0.070267  0.669867  1.0
  C  C1098  1  0.121533  0.051267  0.669867  1.0
  C  C1099  1  0.263067  0.545133  0.336533  1.0
  C  C1100  1  0.282067  0.736933  0.336533  1.0
  C  C1101  1  0.454867  0.717933  0.336533  1.0
  C  C1102  1  0.403600  0.788200  0.996800  1.0
  C  C1103  1  0.384600  0.596400  0.996800  1.0
  C  C1104  1  0.211800  0.615400  0.996800  1.0
  C  C1105  1  0.070267  0.121533  0.330133  1.0
  C  C1106  1  0.051267  0.929733  0.330133  1.0
  C  C1107  1  0.878467  0.948733  0.330133  1.0
  C  C1108  1  0.736933  0.454867  0.663467  1.0
  C  C1109  1  0.717933  0.263067  0.663467  1.0
  C  C1110  1  0.545133  0.282067  0.663467  1.0
  C  C1111  1  0.553300  0.167800  0.991160  1.0
  C  C1112  1  0.614500  0.446700  0.991160  1.0
  C  C1113  1  0.832200  0.385500  0.991160  1.0
  C  C1114  1  0.886633  0.834467  0.657827  1.0
  C  C1115  1  0.947833  0.113367  0.657827  1.0
  C  C1116  1  0.165533  0.052167  0.657827  1.0
  C  C1117  1  0.219967  0.501133  0.324493  1.0
  C  C1118  1  0.281167  0.780033  0.324493  1.0
  C  C1119  1  0.498867  0.718833  0.324493  1.0
  C  C1120  1  0.446700  0.832200  0.008840  1.0
  C  C1121  1  0.385500  0.553300  0.008840  1.0
  C  C1122  1  0.167800  0.614500  0.008840  1.0
  C  C1123  1  0.113367  0.165533  0.342173  1.0
  C  C1124  1  0.052167  0.886633  0.342173  1.0
  C  C1125  1  0.834467  0.947833  0.342173  1.0
  C  C1126  1  0.780033  0.498867  0.675507  1.0
  C  C1127  1  0.718833  0.219967  0.675507  1.0
  C  C1128  1  0.501133  0.281167  0.675507  1.0
  C  C1129  1  0.538300  0.187600  0.970490  1.0
  C  C1130  1  0.649300  0.461700  0.970490  1.0
  C  C1131  1  0.812400  0.350700  0.970490  1.0
  C  C1132  1  0.871633  0.854267  0.637157  1.0
  C  C1133  1  0.982633  0.128367  0.637157  1.0
  C  C1134  1  0.145733  0.017367  0.637157  1.0
  C  C1135  1  0.204967  0.520933  0.303823  1.0
  C  C1136  1  0.315967  0.795033  0.303823  1.0
  C  C1137  1  0.479067  0.684033  0.303823  1.0
  C  C1138  1  0.461700  0.812400  0.029510  1.0
  C  C1139  1  0.350700  0.538300  0.029510  1.0
  C  C1140  1  0.187600  0.649300  0.029510  1.0
  C  C1141  1  0.128367  0.145733  0.362843  1.0
  C  C1142  1  0.017367  0.871633  0.362843  1.0
  C  C1143  1  0.854267  0.982633  0.362843  1.0
  C  C1144  1  0.795033  0.479067  0.696177  1.0
  C  C1145  1  0.684033  0.204967  0.696177  1.0
  C  C1146  1  0.520933  0.315967  0.696177  1.0
  C  C1147  1  0.571100  0.281300  0.953000  1.0
  C  C1148  1  0.710200  0.428900  0.953000  1.0
  C  C1149  1  0.718700  0.289800  0.953000  1.0
  C  C1150  1  0.904433  0.947967  0.619667  1.0
  C  C1151  1  0.043533  0.095567  0.619667  1.0
  C  C1152  1  0.052033  0.956467  0.619667  1.0
  C  C1153  1  0.237767  0.614633  0.286333  1.0
  C  C1154  1  0.376867  0.762233  0.286333  1.0
  C  C1155  1  0.385367  0.623133  0.286333  1.0
  C  C1156  1  0.428900  0.718700  0.047000  1.0
  C  C1157  1  0.289800  0.571100  0.047000  1.0
  C  C1158  1  0.281300  0.710200  0.047000  1.0
  C  C1159  1  0.095567  0.052033  0.380333  1.0
  C  C1160  1  0.956467  0.904433  0.380333  1.0
  C  C1161  1  0.947967  0.043533  0.380333  1.0
  C  C1162  1  0.762233  0.385367  0.713667  1.0
  C  C1163  1  0.623133  0.237767  0.713667  1.0
  C  C1164  1  0.614633  0.376867  0.713667  1.0
  C  C1165  1  0.511000  0.409540  0.941320  1.0
  C  C1166  1  0.898540  0.489000  0.941320  1.0
  C  C1167  1  0.590460  0.101460  0.941320  1.0
  C  C1168  1  0.844333  0.076207  0.607987  1.0
  C  C1169  1  0.231873  0.155667  0.607987  1.0
  C  C1170  1  0.923793  0.768127  0.607987  1.0
  C  C1171  1  0.177667  0.742873  0.274653  1.0
  C  C1172  1  0.565207  0.822333  0.274653  1.0
  C  C1173  1  0.257127  0.434793  0.274653  1.0
  C  C1174  1  0.489000  0.590460  0.058680  1.0
  C  C1175  1  0.101460  0.511000  0.058680  1.0
  C  C1176  1  0.409540  0.898540  0.058680  1.0
  C  C1177  1  0.155667  0.923793  0.392013  1.0
  C  C1178  1  0.768127  0.844333  0.392013  1.0
  C  C1179  1  0.076207  0.231873  0.392013  1.0
  C  C1180  1  0.822333  0.257127  0.725347  1.0
  C  C1181  1  0.434793  0.177667  0.725347  1.0
  C  C1182  1  0.742873  0.565207  0.725347  1.0
  C  C1183  1  0.544300  0.429800  0.920870  1.0
  C  C1184  1  0.885500  0.455700  0.920870  1.0
  C  C1185  1  0.570200  0.114500  0.920870  1.0
  C  C1186  1  0.877633  0.096467  0.587537  1.0
  C  C1187  1  0.218833  0.122367  0.587537  1.0
  C  C1188  1  0.903533  0.781167  0.587537  1.0
  C  C1189  1  0.210967  0.763133  0.254203  1.0
  C  C1190  1  0.552167  0.789033  0.254203  1.0
  C  C1191  1  0.236867  0.447833  0.254203  1.0
  C  C1192  1  0.455700  0.570200  0.079130  1.0
  C  C1193  1  0.114500  0.544300  0.079130  1.0
  C  C1194  1  0.429800  0.885500  0.079130  1.0
  C  C1195  1  0.122367  0.903533  0.412463  1.0
  C  C1196  1  0.781167  0.877633  0.412463  1.0
  C  C1197  1  0.096467  0.218833  0.412463  1.0
  C  C1198  1  0.789033  0.236867  0.745797  1.0
  C  C1199  1  0.447833  0.210967  0.745797  1.0
  C  C1200  1  0.763133  0.552167  0.745797  1.0
  C  C1201  1  0.574700  0.407300  0.913500  1.0
  C  C1202  1  0.832600  0.425300  0.913500  1.0
  C  C1203  1  0.592700  0.167400  0.913500  1.0
  C  C1204  1  0.908033  0.073967  0.580167  1.0
  C  C1205  1  0.165933  0.091967  0.580167  1.0
  C  C1206  1  0.926033  0.834067  0.580167  1.0
  C  C1207  1  0.241367  0.740633  0.246833  1.0
  C  C1208  1  0.499267  0.758633  0.246833  1.0
  C  C1209  1  0.259367  0.500733  0.246833  1.0
  C  C1210  1  0.425300  0.592700  0.086500  1.0
  C  C1211  1  0.167400  0.574700  0.086500  1.0
  C  C1212  1  0.407300  0.832600  0.086500  1.0
  C  C1213  1  0.091967  0.926033  0.419833  1.0
  C  C1214  1  0.834067  0.908033  0.419833  1.0
  C  C1215  1  0.073967  0.165933  0.419833  1.0
  C  C1216  1  0.758633  0.259367  0.753167  1.0
  C  C1217  1  0.500733  0.241367  0.753167  1.0
  C  C1218  1  0.740633  0.499267  0.753167  1.0
  C  C1219  1  0.571850  0.364650  0.926590  1.0
  C  C1220  1  0.792800  0.428150  0.926590  1.0
  C  C1221  1  0.635350  0.207200  0.926590  1.0
  C  C1222  1  0.905183  0.031317  0.593257  1.0
  C  C1223  1  0.126133  0.094817  0.593257  1.0
  C  C1224  1  0.968683  0.873867  0.593257  1.0
  C  C1225  1  0.238517  0.697983  0.259923  1.0
  C  C1226  1  0.459467  0.761483  0.259923  1.0
  C  C1227  1  0.302017  0.540533  0.259923  1.0
  C  C1228  1  0.428150  0.635350  0.073410  1.0
  C  C1229  1  0.207200  0.571850  0.073410  1.0
  C  C1230  1  0.364650  0.792800  0.073410  1.0
  C  C1231  1  0.094817  0.968683  0.406743  1.0
  C  C1232  1  0.873867  0.905183  0.406743  1.0
  C  C1233  1  0.031317  0.126133  0.406743  1.0
  C  C1234  1  0.761483  0.302017  0.740077  1.0
  C  C1235  1  0.540533  0.238517  0.740077  1.0
  C  C1236  1  0.697983  0.459467  0.740077  1.0
  C  C1237  1  0.538580  0.344500  0.947040  1.0
  C  C1238  1  0.805920  0.461420  0.947040  1.0
  C  C1239  1  0.655500  0.194080  0.947040  1.0
  C  C1240  1  0.871913  0.011167  0.613707  1.0
  C  C1241  1  0.139253  0.128087  0.613707  1.0
  C  C1242  1  0.988833  0.860747  0.613707  1.0
  C  C1243  1  0.205247  0.677833  0.280373  1.0
  C  C1244  1  0.472587  0.794753  0.280373  1.0
  C  C1245  1  0.322167  0.527413  0.280373  1.0
  C  C1246  1  0.461420  0.655500  0.052960  1.0
  C  C1247  1  0.194080  0.538580  0.052960  1.0
  C  C1248  1  0.344500  0.805920  0.052960  1.0
  C  C1249  1  0.128087  0.988833  0.386293  1.0
  C  C1250  1  0.860747  0.871913  0.386293  1.0
  C  C1251  1  0.011167  0.139253  0.386293  1.0
  C  C1252  1  0.794753  0.322167  0.719627  1.0
  C  C1253  1  0.527413  0.205247  0.719627  1.0
  C  C1254  1  0.677833  0.472587  0.719627  1.0
  C  C1255  1  0.508150  0.366920  0.954400  1.0
  C  C1256  1  0.858770  0.491850  0.954400  1.0
  C  C1257  1  0.633080  0.141230  0.954400  1.0
  C  C1258  1  0.841483  0.033587  0.621067  1.0
  C  C1259  1  0.192103  0.158517  0.621067  1.0
  C  C1260  1  0.966413  0.807897  0.621067  1.0
  C  C1261  1  0.174817  0.700253  0.287733  1.0
  C  C1262  1  0.525437  0.825183  0.287733  1.0
  C  C1263  1  0.299747  0.474563  0.287733  1.0
  C  C1264  1  0.491850  0.633080  0.045600  1.0
  C  C1265  1  0.141230  0.508150  0.045600  1.0
  C  C1266  1  0.366920  0.858770  0.045600  1.0
  C  C1267  1  0.158517  0.966413  0.378933  1.0
  C  C1268  1  0.807897  0.841483  0.378933  1.0
  C  C1269  1  0.033587  0.192103  0.378933  1.0
  C  C1270  1  0.825183  0.299747  0.712267  1.0
  C  C1271  1  0.474563  0.174817  0.712267  1.0
  C  C1272  1  0.700253  0.525437  0.712267  1.0
  C  C1273  1  0.474880  0.346680  0.974850  1.0
  C  C1274  1  0.871800  0.525120  0.974850  1.0
  C  C1275  1  0.653320  0.128200  0.974850  1.0
  C  C1276  1  0.808213  0.013347  0.641517  1.0
  C  C1277  1  0.205133  0.191787  0.641517  1.0
  C  C1278  1  0.986653  0.794867  0.641517  1.0
  C  C1279  1  0.141547  0.680013  0.308183  1.0
  C  C1280  1  0.538467  0.858453  0.308183  1.0
  C  C1281  1  0.319987  0.461533  0.308183  1.0
  C  C1282  1  0.525120  0.653320  0.025150  1.0
  C  C1283  1  0.128200  0.474880  0.025150  1.0
  C  C1284  1  0.346680  0.871800  0.025150  1.0
  C  C1285  1  0.191787  0.986653  0.358483  1.0
  C  C1286  1  0.794867  0.808213  0.358483  1.0
  C  C1287  1  0.013347  0.205133  0.358483  1.0
  C  C1288  1  0.858453  0.319987  0.691817  1.0
  C  C1289  1  0.461533  0.141547  0.691817  1.0
  C  C1290  1  0.680013  0.538467  0.691817  1.0
  C  C1291  1  0.472000  0.304100  0.987940  1.0
  C  C1292  1  0.832100  0.528000  0.987940  1.0
  C  C1293  1  0.695900  0.167900  0.987940  1.0
  C  C1294  1  0.805333  0.970767  0.654607  1.0
  C  C1295  1  0.165433  0.194667  0.654607  1.0
  C  C1296  1  0.029233  0.834567  0.654607  1.0
  C  C1297  1  0.138667  0.637433  0.321273  1.0
  C  C1298  1  0.498767  0.861333  0.321273  1.0
  C  C1299  1  0.362567  0.501233  0.321273  1.0
  C  C1300  1  0.528000  0.695900  0.012060  1.0
  C  C1301  1  0.167900  0.472000  0.012060  1.0
  C  C1302  1  0.304100  0.832100  0.012060  1.0
  C  C1303  1  0.194667  0.029233  0.345393  1.0
  C  C1304  1  0.834567  0.805333  0.345393  1.0
  C  C1305  1  0.970767  0.165433  0.345393  1.0
  C  C1306  1  0.861333  0.362567  0.678727  1.0
  C  C1307  1  0.501233  0.138667  0.678727  1.0
  C  C1308  1  0.637433  0.498767  0.678727  1.0
  C  C1309  1  0.502500  0.281700  0.980570  1.0
  C  C1310  1  0.779200  0.497500  0.980570  1.0
  C  C1311  1  0.718300  0.220800  0.980570  1.0
  C  C1312  1  0.835833  0.948367  0.647237  1.0
  C  C1313  1  0.112533  0.164167  0.647237  1.0
  C  C1314  1  0.051633  0.887467  0.647237  1.0
  C  C1315  1  0.169167  0.615033  0.313903  1.0
  C  C1316  1  0.445867  0.830833  0.313903  1.0
  C  C1317  1  0.384967  0.554133  0.313903  1.0
  C  C1318  1  0.497500  0.718300  0.019430  1.0
  C  C1319  1  0.220800  0.502500  0.019430  1.0
  C  C1320  1  0.281700  0.779200  0.019430  1.0
  C  C1321  1  0.164167  0.051633  0.352763  1.0
  C  C1322  1  0.887467  0.835833  0.352763  1.0
  C  C1323  1  0.948367  0.112533  0.352763  1.0
  C  C1324  1  0.830833  0.384967  0.686097  1.0
  C  C1325  1  0.554133  0.169167  0.686097  1.0
  C  C1326  1  0.615033  0.445867  0.686097  1.0
  C  C1327  1  0.535700  0.301850  0.960120  1.0
  C  C1328  1  0.766150  0.464300  0.960120  1.0
  C  C1329  1  0.698150  0.233850  0.960120  1.0
  C  C1330  1  0.869033  0.968517  0.626787  1.0
  C  C1331  1  0.099483  0.130967  0.626787  1.0
  C  C1332  1  0.031483  0.900517  0.626787  1.0
  C  C1333  1  0.202367  0.635183  0.293453  1.0
  C  C1334  1  0.432817  0.797633  0.293453  1.0
  C  C1335  1  0.364817  0.567183  0.293453  1.0
  C  C1336  1  0.464300  0.698150  0.039880  1.0
  C  C1337  1  0.233850  0.535700  0.039880  1.0
  C  C1338  1  0.301850  0.766150  0.039880  1.0
  C  C1339  1  0.130967  0.031483  0.373213  1.0
  C  C1340  1  0.900517  0.869033  0.373213  1.0
  C  C1341  1  0.968517  0.099483  0.373213  1.0
  C  C1342  1  0.797633  0.364817  0.706547  1.0
  C  C1343  1  0.567183  0.202367  0.706547  1.0
  C  C1344  1  0.635183  0.432817  0.706547  1.0
  C  C1345  1  0.285300  0.405800  0.909770  1.0
  C  C1346  1  0.120500  0.714700  0.909770  1.0
  C  C1347  1  0.594200  0.879500  0.909770  1.0
  C  C1348  1  0.618633  0.072467  0.576437  1.0
  C  C1349  1  0.453833  0.381367  0.576437  1.0
  C  C1350  1  0.927533  0.546167  0.576437  1.0
  C  C1351  1  0.951967  0.739133  0.243103  1.0
  C  C1352  1  0.787167  0.048033  0.243103  1.0
  C  C1353  1  0.260867  0.212833  0.243103  1.0
  C  C1354  1  0.714700  0.594200  0.090230  1.0
  C  C1355  1  0.879500  0.285300  0.090230  1.0
  C  C1356  1  0.405800  0.120500  0.090230  1.0
  C  C1357  1  0.381367  0.927533  0.423563  1.0
  C  C1358  1  0.546167  0.618633  0.423563  1.0
  C  C1359  1  0.072467  0.453833  0.423563  1.0
  C  C1360  1  0.048033  0.260867  0.756897  1.0
  C  C1361  1  0.212833  0.951967  0.756897  1.0
  C  C1362  1  0.739133  0.787167  0.756897  1.0
  C  C1363  1  0.249200  0.411700  0.924410  1.0
  C  C1364  1  0.162500  0.750800  0.924410  1.0
  C  C1365  1  0.588300  0.837500  0.924410  1.0
  C  C1366  1  0.582533  0.078367  0.591077  1.0
  C  C1367  1  0.495833  0.417467  0.591077  1.0
  C  C1368  1  0.921633  0.504167  0.591077  1.0
  C  C1369  1  0.915867  0.745033  0.257743  1.0
  C  C1370  1  0.829167  0.084133  0.257743  1.0
  C  C1371  1  0.254967  0.170833  0.257743  1.0
  C  C1372  1  0.750800  0.588300  0.075590  1.0
  C  C1373  1  0.837500  0.249200  0.075590  1.0
  C  C1374  1  0.411700  0.162500  0.075590  1.0
  C  C1375  1  0.417467  0.921633  0.408923  1.0
  C  C1376  1  0.504167  0.582533  0.408923  1.0
  C  C1377  1  0.078367  0.495833  0.408923  1.0
  C  C1378  1  0.084133  0.254967  0.742257  1.0
  C  C1379  1  0.170833  0.915867  0.742257  1.0
  C  C1380  1  0.745033  0.829167  0.742257  1.0
  C  C1381  1  0.266000  0.440600  0.946250  1.0
  C  C1382  1  0.174600  0.734000  0.946250  1.0
  C  C1383  1  0.559400  0.825400  0.946250  1.0
  C  C1384  1  0.599333  0.107267  0.612917  1.0
  C  C1385  1  0.507933  0.400667  0.612917  1.0
  C  C1386  1  0.892733  0.492067  0.612917  1.0
  C  C1387  1  0.932667  0.773933  0.279583  1.0
  C  C1388  1  0.841267  0.067333  0.279583  1.0
  C  C1389  1  0.226067  0.158733  0.279583  1.0
  C  C1390  1  0.734000  0.559400  0.053750  1.0
  C  C1391  1  0.825400  0.266000  0.053750  1.0
  C  C1392  1  0.440600  0.174600  0.053750  1.0
  C  C1393  1  0.400667  0.892733  0.387083  1.0
  C  C1394  1  0.492067  0.599333  0.387083  1.0
  C  C1395  1  0.107267  0.507933  0.387083  1.0
  C  C1396  1  0.067333  0.226067  0.720417  1.0
  C  C1397  1  0.158733  0.932667  0.720417  1.0
  C  C1398  1  0.773933  0.841267  0.720417  1.0
  C  C1399  1  0.319000  0.463800  0.953460  1.0
  C  C1400  1  0.144800  0.681000  0.953460  1.0
  C  C1401  1  0.536200  0.855200  0.953460  1.0
  C  C1402  1  0.652333  0.130467  0.620127  1.0
  C  C1403  1  0.478133  0.347667  0.620127  1.0
  C  C1404  1  0.869533  0.521867  0.620127  1.0
  C  C1405  1  0.985667  0.797133  0.286793  1.0
  C  C1406  1  0.811467  0.014333  0.286793  1.0
  C  C1407  1  0.202867  0.188533  0.286793  1.0
  C  C1408  1  0.681000  0.536200  0.046540  1.0
  C  C1409  1  0.855200  0.319000  0.046540  1.0
  C  C1410  1  0.463800  0.144800  0.046540  1.0
  C  C1411  1  0.347667  0.869533  0.379873  1.0
  C  C1412  1  0.521867  0.652333  0.379873  1.0
  C  C1413  1  0.130467  0.478133  0.379873  1.0
  C  C1414  1  0.014333  0.202867  0.713207  1.0
  C  C1415  1  0.188533  0.985667  0.713207  1.0
  C  C1416  1  0.797133  0.811467  0.713207  1.0
  C  C1417  1  0.355200  0.458000  0.938820  1.0
  C  C1418  1  0.102800  0.644800  0.938820  1.0
  C  C1419  1  0.542000  0.897200  0.938820  1.0
  C  C1420  1  0.688533  0.124667  0.605487  1.0
  C  C1421  1  0.436133  0.311467  0.605487  1.0
  C  C1422  1  0.875333  0.563867  0.605487  1.0
  C  C1423  1  0.021867  0.791333  0.272153  1.0
  C  C1424  1  0.769467  0.978133  0.272153  1.0
  C  C1425  1  0.208667  0.230533  0.272153  1.0
  C  C1426  1  0.644800  0.542000  0.061180  1.0
  C  C1427  1  0.897200  0.355200  0.061180  1.0
  C  C1428  1  0.458000  0.102800  0.061180  1.0
  C  C1429  1  0.311467  0.875333  0.394513  1.0
  C  C1430  1  0.563867  0.688533  0.394513  1.0
  C  C1431  1  0.124667  0.436133  0.394513  1.0
  C  C1432  1  0.978133  0.208667  0.727847  1.0
  C  C1433  1  0.230533  0.021867  0.727847  1.0
  C  C1434  1  0.791333  0.769467  0.727847  1.0
  C  C1435  1  0.269800  0.373100  0.889220  1.0
  C  C1436  1  0.103300  0.730200  0.889220  1.0
  C  C1437  1  0.626900  0.896700  0.889220  1.0
  C  C1438  1  0.603133  0.039767  0.555887  1.0
  C  C1439  1  0.436633  0.396867  0.555887  1.0
  C  C1440  1  0.960233  0.563367  0.555887  1.0
  C  C1441  1  0.936467  0.706433  0.222553  1.0
  C  C1442  1  0.769967  0.063533  0.222553  1.0
  C  C1443  1  0.293567  0.230033  0.222553  1.0
  C  C1444  1  0.730200  0.626900  0.110780  1.0
  C  C1445  1  0.896700  0.269800  0.110780  1.0
  C  C1446  1  0.373100  0.103300  0.110780  1.0
  C  C1447  1  0.396867  0.960233  0.444113  1.0
  C  C1448  1  0.563367  0.603133  0.444113  1.0
  C  C1449  1  0.039767  0.436633  0.444113  1.0
  C  C1450  1  0.063533  0.293567  0.777447  1.0
  C  C1451  1  0.230033  0.936467  0.777447  1.0
  C  C1452  1  0.706433  0.769967  0.777447  1.0
  C  C1453  1  0.221900  0.345200  0.875430  1.0
  C  C1454  1  0.123300  0.778100  0.875430  1.0
  C  C1455  1  0.654800  0.876700  0.875430  1.0
  C  C1456  1  0.555233  0.011867  0.542097  1.0
  C  C1457  1  0.456633  0.444767  0.542097  1.0
  C  C1458  1  0.988133  0.543367  0.542097  1.0
  C  C1459  1  0.888567  0.678533  0.208763  1.0
  C  C1460  1  0.789967  0.111433  0.208763  1.0
  C  C1461  1  0.321467  0.210033  0.208763  1.0
  C  C1462  1  0.778100  0.654800  0.124570  1.0
  C  C1463  1  0.876700  0.221900  0.124570  1.0
  C  C1464  1  0.345200  0.123300  0.124570  1.0
  C  C1465  1  0.444767  0.988133  0.457903  1.0
  C  C1466  1  0.543367  0.555233  0.457903  1.0
  C  C1467  1  0.011867  0.456633  0.457903  1.0
  C  C1468  1  0.111433  0.321467  0.791237  1.0
  C  C1469  1  0.210033  0.888567  0.791237  1.0
  C  C1470  1  0.678533  0.789967  0.791237  1.0
  C  C1471  1  0.232400  0.322500  0.854420  1.0
  C  C1472  1  0.090100  0.767600  0.854420  1.0
  C  C1473  1  0.677500  0.909900  0.854420  1.0
  C  C1474  1  0.565733  0.989167  0.521087  1.0
  C  C1475  1  0.423433  0.434267  0.521087  1.0
  C  C1476  1  0.010833  0.576567  0.521087  1.0
  C  C1477  1  0.899067  0.655833  0.187753  1.0
  C  C1478  1  0.756767  0.100933  0.187753  1.0
  C  C1479  1  0.344167  0.243233  0.187753  1.0
  C  C1480  1  0.767600  0.677500  0.145580  1.0
  C  C1481  1  0.909900  0.232400  0.145580  1.0
  C  C1482  1  0.322500  0.090100  0.145580  1.0
  C  C1483  1  0.434267  0.010833  0.478913  1.0
  C  C1484  1  0.576567  0.565733  0.478913  1.0
  C  C1485  1  0.989167  0.423433  0.478913  1.0
  C  C1486  1  0.100933  0.344167  0.812247  1.0
  C  C1487  1  0.243233  0.899067  0.812247  1.0
  C  C1488  1  0.655833  0.756767  0.812247  1.0
  C  C1489  1  0.315200  0.320200  0.839410  1.0
  C  C1490  1  0.005000  0.684800  0.839410  1.0
  C  C1491  1  0.679800  0.995000  0.839410  1.0
  C  C1492  1  0.648533  0.986867  0.506077  1.0
  C  C1493  1  0.338333  0.351467  0.506077  1.0
  C  C1494  1  0.013133  0.661667  0.506077  1.0
  C  C1495  1  0.981867  0.653533  0.172743  1.0
  C  C1496  1  0.671667  0.018133  0.172743  1.0
  C  C1497  1  0.346467  0.328333  0.172743  1.0
  C  C1498  1  0.684800  0.679800  0.160590  1.0
  C  C1499  1  0.995000  0.315200  0.160590  1.0
  C  C1500  1  0.320200  0.005000  0.160590  1.0
  C  C1501  1  0.351467  0.013133  0.493923  1.0
  C  C1502  1  0.661667  0.648533  0.493923  1.0
  C  C1503  1  0.986867  0.338333  0.493923  1.0
  C  C1504  1  0.018133  0.346467  0.827257  1.0
  C  C1505  1  0.328333  0.981867  0.827257  1.0
  C  C1506  1  0.653533  0.671667  0.827257  1.0
  C  C1507  1  0.422900  0.068800  0.759980  1.0
  C  C1508  1  0.645900  0.577100  0.759980  1.0
  C  C1509  1  0.931200  0.354100  0.759980  1.0
  C  C1510  1  0.756233  0.735467  0.426647  1.0
  C  C1511  1  0.979233  0.243767  0.426647  1.0
  C  C1512  1  0.264533  0.020767  0.426647  1.0
  C  C1513  1  0.089567  0.402133  0.093313  1.0
  C  C1514  1  0.312567  0.910433  0.093313  1.0
  C  C1515  1  0.597867  0.687433  0.093313  1.0
  C  C1516  1  0.577100  0.931200  0.240020  1.0
  C  C1517  1  0.354100  0.422900  0.240020  1.0
  C  C1518  1  0.068800  0.645900  0.240020  1.0
  C  C1519  1  0.243767  0.264533  0.573353  1.0
  C  C1520  1  0.020767  0.756233  0.573353  1.0
  C  C1521  1  0.735467  0.979233  0.573353  1.0
  C  C1522  1  0.910433  0.597867  0.906687  1.0
  C  C1523  1  0.687433  0.089567  0.906687  1.0
  C  C1524  1  0.402133  0.312567  0.906687  1.0
  C  C1525  1  0.461600  0.063700  0.747090  1.0
  C  C1526  1  0.602100  0.538400  0.747090  1.0
  C  C1527  1  0.936300  0.397900  0.747090  1.0
  C  C1528  1  0.794933  0.730367  0.413757  1.0
  C  C1529  1  0.935433  0.205067  0.413757  1.0
  C  C1530  1  0.269633  0.064567  0.413757  1.0
  C  C1531  1  0.128267  0.397033  0.080423  1.0
  C  C1532  1  0.268767  0.871733  0.080423  1.0
  C  C1533  1  0.602967  0.731233  0.080423  1.0
  C  C1534  1  0.538400  0.936300  0.252910  1.0
  C  C1535  1  0.397900  0.461600  0.252910  1.0
  C  C1536  1  0.063700  0.602100  0.252910  1.0
  C  C1537  1  0.205067  0.269633  0.586243  1.0
  C  C1538  1  0.064567  0.794933  0.586243  1.0
  C  C1539  1  0.730367  0.935433  0.586243  1.0
  C  C1540  1  0.871733  0.602967  0.919577  1.0
  C  C1541  1  0.731233  0.128267  0.919577  1.0
  C  C1542  1  0.397033  0.268767  0.919577  1.0
  C  C1543  1  0.447900  0.032400  0.725910  1.0
  C  C1544  1  0.584500  0.552100  0.725910  1.0
  C  C1545  1  0.967600  0.415500  0.725910  1.0
  C  C1546  1  0.781233  0.699067  0.392577  1.0
  C  C1547  1  0.917833  0.218767  0.392577  1.0
  C  C1548  1  0.300933  0.082167  0.392577  1.0
  C  C1549  1  0.114567  0.365733  0.059243  1.0
  C  C1550  1  0.251167  0.885433  0.059243  1.0
  C  C1551  1  0.634267  0.748833  0.059243  1.0
  C  C1552  1  0.552100  0.967600  0.274090  1.0
  C  C1553  1  0.415500  0.447900  0.274090  1.0
  C  C1554  1  0.032400  0.584500  0.274090  1.0
  C  C1555  1  0.218767  0.300933  0.607423  1.0
  C  C1556  1  0.082167  0.781233  0.607423  1.0
  C  C1557  1  0.699067  0.917833  0.607423  1.0
  C  C1558  1  0.885433  0.634267  0.940757  1.0
  C  C1559  1  0.748833  0.114567  0.940757  1.0
  C  C1560  1  0.365733  0.251167  0.940757  1.0
  C  C1561  1  0.395500  0.006200  0.717620  1.0
  C  C1562  1  0.610700  0.604500  0.717620  1.0
  C  C1563  1  0.993800  0.389300  0.717620  1.0
  C  C1564  1  0.728833  0.672867  0.384287  1.0
  C  C1565  1  0.944033  0.271167  0.384287  1.0
  C  C1566  1  0.327133  0.055967  0.384287  1.0
  C  C1567  1  0.062167  0.339533  0.050953  1.0
  C  C1568  1  0.277367  0.937833  0.050953  1.0
  C  C1569  1  0.660467  0.722633  0.050953  1.0
  C  C1570  1  0.604500  0.993800  0.282380  1.0
  C  C1571  1  0.389300  0.395500  0.282380  1.0
  C  C1572  1  0.006200  0.610700  0.282380  1.0
  C  C1573  1  0.271167  0.327133  0.615713  1.0
  C  C1574  1  0.055967  0.728833  0.615713  1.0
  C  C1575  1  0.672867  0.944033  0.615713  1.0
  C  C1576  1  0.937833  0.660467  0.949047  1.0
  C  C1577  1  0.722633  0.062167  0.949047  1.0
  C  C1578  1  0.339533  0.277367  0.949047  1.0
  C  C1579  1  0.356800  0.011300  0.730510  1.0
  C  C1580  1  0.654500  0.643200  0.730510  1.0
  C  C1581  1  0.988700  0.345500  0.730510  1.0
  C  C1582  1  0.690133  0.677967  0.397177  1.0
  C  C1583  1  0.987833  0.309867  0.397177  1.0
  C  C1584  1  0.322033  0.012167  0.397177  1.0
  C  C1585  1  0.023467  0.344633  0.063843  1.0
  C  C1586  1  0.321167  0.976533  0.063843  1.0
  C  C1587  1  0.655367  0.678833  0.063843  1.0
  C  C1588  1  0.643200  0.988700  0.269490  1.0
  C  C1589  1  0.345500  0.356800  0.269490  1.0
  C  C1590  1  0.011300  0.654500  0.269490  1.0
  C  C1591  1  0.309867  0.322033  0.602823  1.0
  C  C1592  1  0.012167  0.690133  0.602823  1.0
  C  C1593  1  0.677967  0.987833  0.602823  1.0
  C  C1594  1  0.976533  0.655367  0.936157  1.0
  C  C1595  1  0.678833  0.023467  0.936157  1.0
  C  C1596  1  0.344633  0.321167  0.936157  1.0
  C  C1597  1  0.432000  0.096200  0.781810  1.0
  C  C1598  1  0.664200  0.568000  0.781810  1.0
  C  C1599  1  0.903800  0.335800  0.781810  1.0
  C  C1600  1  0.765333  0.762867  0.448477  1.0
  C  C1601  1  0.997533  0.234667  0.448477  1.0
  C  C1602  1  0.237133  0.002467  0.448477  1.0
  C  C1603  1  0.098667  0.429533  0.115143  1.0
  C  C1604  1  0.330867  0.901333  0.115143  1.0
  C  C1605  1  0.570467  0.669133  0.115143  1.0
  C  C1606  1  0.568000  0.903800  0.218190  1.0
  C  C1607  1  0.335800  0.432000  0.218190  1.0
  C  C1608  1  0.096200  0.664200  0.218190  1.0
  C  C1609  1  0.234667  0.237133  0.551523  1.0
  C  C1610  1  0.002467  0.765333  0.551523  1.0
  C  C1611  1  0.762867  0.997533  0.551523  1.0
  C  C1612  1  0.901333  0.570467  0.884857  1.0
  C  C1613  1  0.669133  0.098667  0.884857  1.0
  C  C1614  1  0.429533  0.330867  0.884857  1.0
  C  C1615  1  0.479020  0.125560  0.796070  1.0
  C  C1616  1  0.646540  0.520980  0.796070  1.0
  C  C1617  1  0.874440  0.353460  0.796070  1.0
  C  C1618  1  0.812353  0.792227  0.462737  1.0
  C  C1619  1  0.979873  0.187647  0.462737  1.0
  C  C1620  1  0.207773  0.020127  0.462737  1.0
  C  C1621  1  0.145687  0.458893  0.129403  1.0
  C  C1622  1  0.313207  0.854313  0.129403  1.0
  C  C1623  1  0.541107  0.686793  0.129403  1.0
  C  C1624  1  0.520980  0.874440  0.203930  1.0
  C  C1625  1  0.353460  0.479020  0.203930  1.0
  C  C1626  1  0.125560  0.646540  0.203930  1.0
  C  C1627  1  0.187647  0.207773  0.537263  1.0
  C  C1628  1  0.020127  0.812353  0.537263  1.0
  C  C1629  1  0.792227  0.979873  0.537263  1.0
  C  C1630  1  0.854313  0.541107  0.870597  1.0
  C  C1631  1  0.686793  0.145687  0.870597  1.0
  C  C1632  1  0.458893  0.313207  0.870597  1.0
  C  C1633  1  0.465600  0.144800  0.817450  1.0
  C  C1634  1  0.679200  0.534400  0.817450  1.0
  C  C1635  1  0.855200  0.320800  0.817450  1.0
  C  C1636  1  0.798933  0.811467  0.484117  1.0
  C  C1637  1  0.012533  0.201067  0.484117  1.0
  C  C1638  1  0.188533  0.987467  0.484117  1.0
  C  C1639  1  0.132267  0.478133  0.150783  1.0
  C  C1640  1  0.345867  0.867733  0.150783  1.0
  C  C1641  1  0.521867  0.654133  0.150783  1.0
  C  C1642  1  0.534400  0.855200  0.182550  1.0
  C  C1643  1  0.320800  0.465600  0.182550  1.0
  C  C1644  1  0.144800  0.679200  0.182550  1.0
  C  C1645  1  0.201067  0.188533  0.515883  1.0
  C  C1646  1  0.987467  0.798933  0.515883  1.0
  C  C1647  1  0.811467  0.012533  0.515883  1.0
  C  C1648  1  0.867733  0.521867  0.849217  1.0
  C  C1649  1  0.654133  0.132267  0.849217  1.0
  C  C1650  1  0.478133  0.345867  0.849217  1.0
  C  C1651  1  0.379000  0.140000  0.832700  1.0
  C  C1652  1  0.761000  0.621000  0.832700  1.0
  C  C1653  1  0.860000  0.239000  0.832700  1.0
  C  C1654  1  0.712333  0.806667  0.499367  1.0
  C  C1655  1  0.094333  0.287667  0.499367  1.0
  C  C1656  1  0.193333  0.905667  0.499367  1.0
  C  C1657  1  0.045667  0.473333  0.166033  1.0
  C  C1658  1  0.427667  0.954333  0.166033  1.0
  C  C1659  1  0.526667  0.572333  0.166033  1.0
  C  C1660  1  0.621000  0.860000  0.167300  1.0
  C  C1661  1  0.239000  0.379000  0.167300  1.0
  C  C1662  1  0.140000  0.761000  0.167300  1.0
  C  C1663  1  0.287667  0.193333  0.500633  1.0
  C  C1664  1  0.905667  0.712333  0.500633  1.0
  C  C1665  1  0.806667  0.094333  0.500633  1.0
  C  C1666  1  0.954333  0.526667  0.833967  1.0
  C  C1667  1  0.572333  0.045667  0.833967  1.0
  C  C1668  1  0.473333  0.427667  0.833967  1.0
  C  C1669  1  0.317200  0.269450  0.847700  1.0
  C  C1670  1  0.952250  0.682800  0.847700  1.0
  C  C1671  1  0.730550  0.047750  0.847700  1.0
  C  C1672  1  0.650533  0.936117  0.514367  1.0
  C  C1673  1  0.285583  0.349467  0.514367  1.0
  C  C1674  1  0.063883  0.714417  0.514367  1.0
  C  C1675  1  0.983867  0.602783  0.181033  1.0
  C  C1676  1  0.618917  0.016133  0.181033  1.0
  C  C1677  1  0.397217  0.381083  0.181033  1.0
  C  C1678  1  0.682800  0.730550  0.152300  1.0
  C  C1679  1  0.047750  0.317200  0.152300  1.0
  C  C1680  1  0.269450  0.952250  0.152300  1.0
  C  C1681  1  0.349467  0.063883  0.485633  1.0
  C  C1682  1  0.714417  0.650533  0.485633  1.0
  C  C1683  1  0.936117  0.285583  0.485633  1.0
  C  C1684  1  0.016133  0.397217  0.818967  1.0
  C  C1685  1  0.381083  0.983867  0.818967  1.0
  C  C1686  1  0.602783  0.618917  0.818967  1.0
  C  C1687  1  0.291100  0.241500  0.868920  1.0
  C  C1688  1  0.950400  0.708900  0.868920  1.0
  C  C1689  1  0.758500  0.049600  0.868920  1.0
  C  C1690  1  0.624433  0.908167  0.535587  1.0
  C  C1691  1  0.283733  0.375567  0.535587  1.0
  C  C1692  1  0.091833  0.716267  0.535587  1.0
  C  C1693  1  0.957767  0.574833  0.202253  1.0
  C  C1694  1  0.617067  0.042233  0.202253  1.0
  C  C1695  1  0.425167  0.382933  0.202253  1.0
  C  C1696  1  0.708900  0.758500  0.131080  1.0
  C  C1697  1  0.049600  0.291100  0.131080  1.0
  C  C1698  1  0.241500  0.950400  0.131080  1.0
  C  C1699  1  0.375567  0.091833  0.464413  1.0
  C  C1700  1  0.716267  0.624433  0.464413  1.0
  C  C1701  1  0.908167  0.283733  0.464413  1.0
  C  C1702  1  0.042233  0.425167  0.797747  1.0
  C  C1703  1  0.382933  0.957767  0.797747  1.0
  C  C1704  1  0.574833  0.617067  0.797747  1.0
  C  C1705  1  0.293900  0.196900  0.875970  1.0
  C  C1706  1  0.903000  0.706100  0.875970  1.0
  C  C1707  1  0.803100  0.097000  0.875970  1.0
  C  C1708  1  0.627233  0.863567  0.542637  1.0
  C  C1709  1  0.236333  0.372767  0.542637  1.0
  C  C1710  1  0.136433  0.763667  0.542637  1.0
  C  C1711  1  0.960567  0.530233  0.209303  1.0
  C  C1712  1  0.569667  0.039433  0.209303  1.0
  C  C1713  1  0.469767  0.430333  0.209303  1.0
  C  C1714  1  0.706100  0.803100  0.124030  1.0
  C  C1715  1  0.097000  0.293900  0.124030  1.0
  C  C1716  1  0.196900  0.903000  0.124030  1.0
  C  C1717  1  0.372767  0.136433  0.457363  1.0
  C  C1718  1  0.763667  0.627233  0.457363  1.0
  C  C1719  1  0.863567  0.236333  0.457363  1.0
  C  C1720  1  0.039433  0.469767  0.790697  1.0
  C  C1721  1  0.430333  0.960567  0.790697  1.0
  C  C1722  1  0.530233  0.569667  0.790697  1.0
  C  C1723  1  0.322800  0.180100  0.861790  1.0
  C  C1724  1  0.857300  0.677200  0.861790  1.0
  C  C1725  1  0.819900  0.142700  0.861790  1.0
  C  C1726  1  0.656133  0.846767  0.528457  1.0
  C  C1727  1  0.190633  0.343867  0.528457  1.0
  C  C1728  1  0.153233  0.809367  0.528457  1.0
  C  C1729  1  0.989467  0.513433  0.195123  1.0
  C  C1730  1  0.523967  0.010533  0.195123  1.0
  C  C1731  1  0.486567  0.476033  0.195123  1.0
  C  C1732  1  0.677200  0.819900  0.138210  1.0
  C  C1733  1  0.142700  0.322800  0.138210  1.0
  C  C1734  1  0.180100  0.857300  0.138210  1.0
  C  C1735  1  0.343867  0.153233  0.471543  1.0
  C  C1736  1  0.809367  0.656133  0.471543  1.0
  C  C1737  1  0.846767  0.190633  0.471543  1.0
  C  C1738  1  0.010533  0.486567  0.804877  1.0
  C  C1739  1  0.476033  0.989467  0.804877  1.0
  C  C1740  1  0.513433  0.523967  0.804877  1.0
  C  C1741  1  0.348880  0.208030  0.840570  1.0
  C  C1742  1  0.859150  0.651120  0.840570  1.0
  C  C1743  1  0.791970  0.140850  0.840570  1.0
  C  C1744  1  0.682213  0.874697  0.507237  1.0
  C  C1745  1  0.192483  0.317787  0.507237  1.0
  C  C1746  1  0.125303  0.807517  0.507237  1.0
  C  C1747  1  0.015547  0.541363  0.173903  1.0
  C  C1748  1  0.525817  0.984453  0.173903  1.0
  C  C1749  1  0.458637  0.474183  0.173903  1.0
  C  C1750  1  0.651120  0.791970  0.159430  1.0
  C  C1751  1  0.140850  0.348880  0.159430  1.0
  C  C1752  1  0.208030  0.859150  0.159430  1.0
  C  C1753  1  0.317787  0.125303  0.492763  1.0
  C  C1754  1  0.807517  0.682213  0.492763  1.0
  C  C1755  1  0.874697  0.192483  0.492763  1.0
  C  C1756  1  0.984453  0.458637  0.826097  1.0
  C  C1757  1  0.474183  0.015547  0.826097  1.0
  C  C1758  1  0.541363  0.525817  0.826097  1.0
  C  C1759  1  0.346060  0.252670  0.833530  1.0
  C  C1760  1  0.906610  0.653940  0.833530  1.0
  C  C1761  1  0.747330  0.093390  0.833530  1.0
  C  C1762  1  0.679393  0.919337  0.500197  1.0
  C  C1763  1  0.239943  0.320607  0.500197  1.0
  C  C1764  1  0.080663  0.760057  0.500197  1.0
  C  C1765  1  0.012727  0.586003  0.166863  1.0
  C  C1766  1  0.573277  0.987273  0.166863  1.0
  C  C1767  1  0.413997  0.426723  0.166863  1.0
  C  C1768  1  0.653940  0.747330  0.166470  1.0
  C  C1769  1  0.093390  0.346060  0.166470  1.0
  C  C1770  1  0.252670  0.906610  0.166470  1.0
  C  C1771  1  0.320607  0.080663  0.499803  1.0
  C  C1772  1  0.760057  0.679393  0.499803  1.0
  C  C1773  1  0.919337  0.239943  0.499803  1.0
  C  C1774  1  0.987273  0.413997  0.833137  1.0
  C  C1775  1  0.426723  0.012727  0.833137  1.0
  C  C1776  1  0.586003  0.573277  0.833137  1.0
  C  C1777  1  0.372100  0.280530  0.812310  1.0
  C  C1778  1  0.908430  0.627900  0.812310  1.0
  C  C1779  1  0.719470  0.091570  0.812310  1.0
  C  C1780  1  0.705433  0.947197  0.478977  1.0
  C  C1781  1  0.241763  0.294567  0.478977  1.0
  C  C1782  1  0.052803  0.758237  0.478977  1.0
  C  C1783  1  0.038767  0.613863  0.145643  1.0
  C  C1784  1  0.575097  0.961233  0.145643  1.0
  C  C1785  1  0.386137  0.424903  0.145643  1.0
  C  C1786  1  0.627900  0.719470  0.187690  1.0
  C  C1787  1  0.091570  0.372100  0.187690  1.0
  C  C1788  1  0.280530  0.908430  0.187690  1.0
  C  C1789  1  0.294567  0.052803  0.521023  1.0
  C  C1790  1  0.758237  0.705433  0.521023  1.0
  C  C1791  1  0.947197  0.241763  0.521023  1.0
  C  C1792  1  0.961233  0.386137  0.854357  1.0
  C  C1793  1  0.424903  0.038767  0.854357  1.0
  C  C1794  1  0.613863  0.575097  0.854357  1.0
  C  C1795  1  0.401000  0.263800  0.798130  1.0
  C  C1796  1  0.862800  0.599000  0.798130  1.0
  C  C1797  1  0.736200  0.137200  0.798130  1.0
  C  C1798  1  0.734333  0.930467  0.464797  1.0
  C  C1799  1  0.196133  0.265667  0.464797  1.0
  C  C1800  1  0.069533  0.803867  0.464797  1.0
  C  C1801  1  0.067667  0.597133  0.131463  1.0
  C  C1802  1  0.529467  0.932333  0.131463  1.0
  C  C1803  1  0.402867  0.470533  0.131463  1.0
  C  C1804  1  0.599000  0.736200  0.201870  1.0
  C  C1805  1  0.137200  0.401000  0.201870  1.0
  C  C1806  1  0.263800  0.862800  0.201870  1.0
  C  C1807  1  0.265667  0.069533  0.535203  1.0
  C  C1808  1  0.803867  0.734333  0.535203  1.0
  C  C1809  1  0.930467  0.196133  0.535203  1.0
  C  C1810  1  0.932333  0.402867  0.868537  1.0
  C  C1811  1  0.470533  0.067667  0.868537  1.0
  C  C1812  1  0.597133  0.529467  0.868537  1.0
  C  C1813  1  0.403900  0.219230  0.805170  1.0
  C  C1814  1  0.815330  0.596100  0.805170  1.0
  C  C1815  1  0.780770  0.184670  0.805170  1.0
  C  C1816  1  0.737233  0.885897  0.471837  1.0
  C  C1817  1  0.148663  0.262767  0.471837  1.0
  C  C1818  1  0.114103  0.851337  0.471837  1.0
  C  C1819  1  0.070567  0.552563  0.138503  1.0
  C  C1820  1  0.481997  0.929433  0.138503  1.0
  C  C1821  1  0.447437  0.518003  0.138503  1.0
  C  C1822  1  0.596100  0.780770  0.194830  1.0
  C  C1823  1  0.184670  0.403900  0.194830  1.0
  C  C1824  1  0.219230  0.815330  0.194830  1.0
  C  C1825  1  0.262767  0.114103  0.528163  1.0
  C  C1826  1  0.851337  0.737233  0.528163  1.0
  C  C1827  1  0.885897  0.148663  0.528163  1.0
  C  C1828  1  0.929433  0.447437  0.861497  1.0
  C  C1829  1  0.518003  0.070567  0.861497  1.0
  C  C1830  1  0.552563  0.481997  0.861497  1.0
  C  C1831  1  0.377800  0.191310  0.826390  1.0
  C  C1832  1  0.813510  0.622200  0.826390  1.0
  C  C1833  1  0.808690  0.186490  0.826390  1.0
  C  C1834  1  0.711133  0.857977  0.493057  1.0
  C  C1835  1  0.146843  0.288867  0.493057  1.0
  C  C1836  1  0.142023  0.853157  0.493057  1.0
  C  C1837  1  0.044467  0.524643  0.159723  1.0
  C  C1838  1  0.480177  0.955533  0.159723  1.0
  C  C1839  1  0.475357  0.519823  0.159723  1.0
  C  C1840  1  0.622200  0.808690  0.173610  1.0
  C  C1841  1  0.186490  0.377800  0.173610  1.0
  C  C1842  1  0.191310  0.813510  0.173610  1.0
  C  C1843  1  0.288867  0.142023  0.506943  1.0
  C  C1844  1  0.853157  0.711133  0.506943  1.0
  C  C1845  1  0.857977  0.146843  0.506943  1.0
  C  C1846  1  0.955533  0.475357  0.840277  1.0
  C  C1847  1  0.519823  0.044467  0.840277  1.0
  C  C1848  1  0.524643  0.480177  0.840277  1.0
  N  N1849  1  0.415800  0.484100  0.870450  1.0
  N  N1850  1  0.068300  0.584200  0.870450  1.0
  N  N1851  1  0.515900  0.931700  0.870450  1.0
  N  N1852  1  0.749133  0.150767  0.537117  1.0
  N  N1853  1  0.401633  0.250867  0.537117  1.0
  N  N1854  1  0.849233  0.598367  0.537117  1.0
  N  N1855  1  0.082467  0.817433  0.203783  1.0
  N  N1856  1  0.734967  0.917533  0.203783  1.0
  N  N1857  1  0.182567  0.265033  0.203783  1.0
  N  N1858  1  0.584200  0.515900  0.129550  1.0
  N  N1859  1  0.931700  0.415800  0.129550  1.0
  N  N1860  1  0.484100  0.068300  0.129550  1.0
  N  N1861  1  0.250867  0.849233  0.462883  1.0
  N  N1862  1  0.598367  0.749133  0.462883  1.0
  N  N1863  1  0.150767  0.401633  0.462883  1.0
  N  N1864  1  0.917533  0.182567  0.796217  1.0
  N  N1865  1  0.265033  0.082467  0.796217  1.0
  N  N1866  1  0.817433  0.734967  0.796217  1.0
  N  N1867  1  0.487300  0.479800  0.934090  1.0
  N  N1868  1  0.992500  0.512700  0.934090  1.0
  N  N1869  1  0.520200  0.007500  0.934090  1.0
  N  N1870  1  0.820633  0.146467  0.600757  1.0
  N  N1871  1  0.325833  0.179367  0.600757  1.0
  N  N1872  1  0.853533  0.674167  0.600757  1.0
  N  N1873  1  0.153967  0.813133  0.267423  1.0
  N  N1874  1  0.659167  0.846033  0.267423  1.0
  N  N1875  1  0.186867  0.340833  0.267423  1.0
  N  N1876  1  0.512700  0.520200  0.065910  1.0
  N  N1877  1  0.007500  0.487300  0.065910  1.0
  N  N1878  1  0.479800  0.992500  0.065910  1.0
  N  N1879  1  0.179367  0.853533  0.399243  1.0
  N  N1880  1  0.674167  0.820633  0.399243  1.0
  N  N1881  1  0.146467  0.325833  0.399243  1.0
  N  N1882  1  0.846033  0.186867  0.732577  1.0
  N  N1883  1  0.340833  0.153967  0.732577  1.0
  N  N1884  1  0.813133  0.659167  0.732577  1.0
  N  N1885  1  0.459800  0.473800  0.911530  1.0
  N  N1886  1  0.014000  0.540200  0.911530  1.0
  N  N1887  1  0.526200  0.986000  0.911530  1.0
  N  N1888  1  0.793133  0.140467  0.578197  1.0
  N  N1889  1  0.347333  0.206867  0.578197  1.0
  N  N1890  1  0.859533  0.652667  0.578197  1.0
  N  N1891  1  0.126467  0.807133  0.244863  1.0
  N  N1892  1  0.680667  0.873533  0.244863  1.0
  N  N1893  1  0.192867  0.319333  0.244863  1.0
  N  N1894  1  0.540200  0.526200  0.088470  1.0
  N  N1895  1  0.986000  0.459800  0.088470  1.0
  N  N1896  1  0.473800  0.014000  0.088470  1.0
  N  N1897  1  0.206867  0.859533  0.421803  1.0
  N  N1898  1  0.652667  0.793133  0.421803  1.0
  N  N1899  1  0.140467  0.347333  0.421803  1.0
  N  N1900  1  0.873533  0.192867  0.755137  1.0
  N  N1901  1  0.319333  0.126467  0.755137  1.0
  N  N1902  1  0.807133  0.680667  0.755137  1.0
  N  N1903  1  0.663500  0.267000  0.030030  1.0
  N  N1904  1  0.603500  0.336500  0.030030  1.0
  N  N1905  1  0.733000  0.396500  0.030030  1.0
  N  N1906  1  0.996833  0.933667  0.696697  1.0
  N  N1907  1  0.936833  0.003167  0.696697  1.0
  N  N1908  1  0.066333  0.063167  0.696697  1.0
  N  N1909  1  0.330167  0.600333  0.363363  1.0
  N  N1910  1  0.270167  0.669833  0.363363  1.0
  N  N1911  1  0.399667  0.729833  0.363363  1.0
  N  N1912  1  0.336500  0.733000  0.969970  1.0
  N  N1913  1  0.396500  0.663500  0.969970  1.0
  N  N1914  1  0.267000  0.603500  0.969970  1.0
  N  N1915  1  0.003167  0.066333  0.303303  1.0
  N  N1916  1  0.063167  0.996833  0.303303  1.0
  N  N1917  1  0.933667  0.936833  0.303303  1.0
  N  N1918  1  0.669833  0.399667  0.636637  1.0
  N  N1919  1  0.729833  0.330167  0.636637  1.0
  N  N1920  1  0.600333  0.270167  0.636637  1.0
  N  N1921  1  0.572100  0.243800  0.969750  1.0
  N  N1922  1  0.671700  0.427900  0.969750  1.0
  N  N1923  1  0.756200  0.328300  0.969750  1.0
  N  N1924  1  0.905433  0.910467  0.636417  1.0
  N  N1925  1  0.005033  0.094567  0.636417  1.0
  N  N1926  1  0.089533  0.994967  0.636417  1.0
  N  N1927  1  0.238767  0.577133  0.303083  1.0
  N  N1928  1  0.338367  0.761233  0.303083  1.0
  N  N1929  1  0.422867  0.661633  0.303083  1.0
  N  N1930  1  0.427900  0.756200  0.030250  1.0
  N  N1931  1  0.328300  0.572100  0.030250  1.0
  N  N1932  1  0.243800  0.671700  0.030250  1.0
  N  N1933  1  0.094567  0.089533  0.363583  1.0
  N  N1934  1  0.994967  0.905433  0.363583  1.0
  N  N1935  1  0.910467  0.005033  0.363583  1.0
  N  N1936  1  0.761233  0.422867  0.696917  1.0
  N  N1937  1  0.661633  0.238767  0.696917  1.0
  N  N1938  1  0.577133  0.338367  0.696917  1.0
  N  N1939  1  0.608000  0.258800  0.989970  1.0
  N  N1940  1  0.650800  0.392000  0.989970  1.0
  N  N1941  1  0.741200  0.349200  0.989970  1.0
  N  N1942  1  0.941333  0.925467  0.656637  1.0
  N  N1943  1  0.984133  0.058667  0.656637  1.0
  N  N1944  1  0.074533  0.015867  0.656637  1.0
  N  N1945  1  0.274667  0.592133  0.323303  1.0
  N  N1946  1  0.317467  0.725333  0.323303  1.0
  N  N1947  1  0.407867  0.682533  0.323303  1.0
  N  N1948  1  0.392000  0.741200  0.010030  1.0
  N  N1949  1  0.349200  0.608000  0.010030  1.0
  N  N1950  1  0.258800  0.650800  0.010030  1.0
  N  N1951  1  0.058667  0.074533  0.343363  1.0
  N  N1952  1  0.015867  0.941333  0.343363  1.0
  N  N1953  1  0.925467  0.984133  0.343363  1.0
  N  N1954  1  0.725333  0.407867  0.676697  1.0
  N  N1955  1  0.682533  0.274667  0.676697  1.0
  N  N1956  1  0.592133  0.317467  0.676697  1.0
  N  N1957  1  0.338300  0.428900  0.916980  1.0
  N  N1958  1  0.090600  0.661700  0.916980  1.0
  N  N1959  1  0.571100  0.909400  0.916980  1.0
  N  N1960  1  0.671633  0.095567  0.583647  1.0
  N  N1961  1  0.423933  0.328367  0.583647  1.0
  N  N1962  1  0.904433  0.576067  0.583647  1.0
  N  N1963  1  0.004967  0.762233  0.250313  1.0
  N  N1964  1  0.757267  0.995033  0.250313  1.0
  N  N1965  1  0.237767  0.242733  0.250313  1.0
  N  N1966  1  0.661700  0.571100  0.083020  1.0
  N  N1967  1  0.909400  0.338300  0.083020  1.0
  N  N1968  1  0.428900  0.090600  0.083020  1.0
  N  N1969  1  0.328367  0.904433  0.416353  1.0
  N  N1970  1  0.576067  0.671633  0.416353  1.0
  N  N1971  1  0.095567  0.423933  0.416353  1.0
  N  N1972  1  0.995033  0.237767  0.749687  1.0
  N  N1973  1  0.242733  0.004967  0.749687  1.0
  N  N1974  1  0.762233  0.757267  0.749687  1.0
  N  N1975  1  0.286800  0.336500  0.855220  1.0
  N  N1976  1  0.049700  0.713200  0.855220  1.0
  N  N1977  1  0.663500  0.950300  0.855220  1.0
  N  N1978  1  0.620133  0.003167  0.521887  1.0
  N  N1979  1  0.383033  0.379867  0.521887  1.0
  N  N1980  1  0.996833  0.616967  0.521887  1.0
  N  N1981  1  0.953467  0.669833  0.188553  1.0
  N  N1982  1  0.716367  0.046533  0.188553  1.0
  N  N1983  1  0.330167  0.283633  0.188553  1.0
  N  N1984  1  0.713200  0.663500  0.144780  1.0
  N  N1985  1  0.950300  0.286800  0.144780  1.0
  N  N1986  1  0.336500  0.049700  0.144780  1.0
  N  N1987  1  0.379867  0.996833  0.478113  1.0
  N  N1988  1  0.616967  0.620133  0.478113  1.0
  N  N1989  1  0.003167  0.383033  0.478113  1.0
  N  N1990  1  0.046533  0.330167  0.811447  1.0
  N  N1991  1  0.283633  0.953467  0.811447  1.0
  N  N1992  1  0.669833  0.716367  0.811447  1.0
  N  N1993  1  0.309900  0.367700  0.876740  1.0
  N  N1994  1  0.057800  0.690100  0.876740  1.0
  N  N1995  1  0.632300  0.942200  0.876740  1.0
  N  N1996  1  0.643233  0.034367  0.543407  1.0
  N  N1997  1  0.391133  0.356767  0.543407  1.0
  N  N1998  1  0.965633  0.608867  0.543407  1.0
  N  N1999  1  0.976567  0.701033  0.210073  1.0
  N  N2000  1  0.724467  0.023433  0.210073  1.0
  N  N2001  1  0.298967  0.275533  0.210073  1.0
  N  N2002  1  0.690100  0.632300  0.123260  1.0
  N  N2003  1  0.942200  0.309900  0.123260  1.0
  N  N2004  1  0.367700  0.057800  0.123260  1.0
  N  N2005  1  0.356767  0.965633  0.456593  1.0
  N  N2006  1  0.608867  0.643233  0.456593  1.0
  N  N2007  1  0.034367  0.391133  0.456593  1.0
  N  N2008  1  0.023433  0.298967  0.789927  1.0
  N  N2009  1  0.275533  0.976567  0.789927  1.0
  N  N2010  1  0.701033  0.724467  0.789927  1.0
  N  N2011  1  0.370500  0.042600  0.751690  1.0
  N  N2012  1  0.672100  0.629500  0.751690  1.0
  N  N2013  1  0.957400  0.327900  0.751690  1.0
  N  N2014  1  0.703833  0.709267  0.418357  1.0
  N  N2015  1  0.005433  0.296167  0.418357  1.0
  N  N2016  1  0.290733  0.994567  0.418357  1.0
  N  N2017  1  0.037167  0.375933  0.085023  1.0
  N  N2018  1  0.338767  0.962833  0.085023  1.0
  N  N2019  1  0.624067  0.661233  0.085023  1.0
  N  N2020  1  0.629500  0.957400  0.248310  1.0
  N  N2021  1  0.327900  0.370500  0.248310  1.0
  N  N2022  1  0.042600  0.672100  0.248310  1.0
  N  N2023  1  0.296167  0.290733  0.581643  1.0
  N  N2024  1  0.994567  0.703833  0.581643  1.0
  N  N2025  1  0.709267  0.005433  0.581643  1.0
  N  N2026  1  0.962833  0.624067  0.914977  1.0
  N  N2027  1  0.661233  0.037167  0.914977  1.0
  N  N2028  1  0.375933  0.338767  0.914977  1.0
  N  N2029  1  0.410300  0.127300  0.816400  1.0
  N  N2030  1  0.717000  0.589700  0.816400  1.0
  N  N2031  1  0.872700  0.283000  0.816400  1.0
  N  N2032  1  0.743633  0.793967  0.483067  1.0
  N  N2033  1  0.050333  0.256367  0.483067  1.0
  N  N2034  1  0.206033  0.949667  0.483067  1.0
  N  N2035  1  0.076967  0.460633  0.149733  1.0
  N  N2036  1  0.383667  0.923033  0.149733  1.0
  N  N2037  1  0.539367  0.616333  0.149733  1.0
  N  N2038  1  0.589700  0.872700  0.183600  1.0
  N  N2039  1  0.283000  0.410300  0.183600  1.0
  N  N2040  1  0.127300  0.717000  0.183600  1.0
  N  N2041  1  0.256367  0.206033  0.516933  1.0
  N  N2042  1  0.949667  0.743633  0.516933  1.0
  N  N2043  1  0.793967  0.050333  0.516933  1.0
  N  N2044  1  0.923033  0.539367  0.850267  1.0
  N  N2045  1  0.616333  0.076967  0.850267  1.0
  N  N2046  1  0.460633  0.383667  0.850267  1.0
  N  N2047  1  0.389580  0.097360  0.794380  1.0
  N  N2048  1  0.707780  0.610420  0.794380  1.0
  N  N2049  1  0.902640  0.292220  0.794380  1.0
  N  N2050  1  0.722913  0.764027  0.461047  1.0
  N  N2051  1  0.041113  0.277087  0.461047  1.0
  N  N2052  1  0.235973  0.958887  0.461047  1.0
  N  N2053  1  0.056247  0.430693  0.127713  1.0
  N  N2054  1  0.374447  0.943753  0.127713  1.0
  N  N2055  1  0.569307  0.625553  0.127713  1.0
  N  N2056  1  0.610420  0.902640  0.205620  1.0
  N  N2057  1  0.292220  0.389580  0.205620  1.0
  N  N2058  1  0.097360  0.707780  0.205620  1.0
  N  N2059  1  0.277087  0.235973  0.538953  1.0
  N  N2060  1  0.958887  0.722913  0.538953  1.0
  N  N2061  1  0.764027  0.041113  0.538953  1.0
  N  N2062  1  0.943753  0.569307  0.872287  1.0
  N  N2063  1  0.625553  0.056247  0.872287  1.0
  N  N2064  1  0.430693  0.374447  0.872287  1.0
  Cl  Cl2065  1  0.430900  0.025300  0.999480  1
  Cl  Cl2066  1  0.594400  0.569100  0.999480  1
  Cl  Cl2067  1  0.974700  0.405600  0.999480  1
  Cl  Cl2068  1  0.764233  0.691967  0.666147  1
  Cl  Cl2069  1  0.927733  0.235767  0.666147  1
  Cl  Cl2070  1  0.308033  0.072267  0.666147  1
  Cl  Cl2071  1  0.097567  0.358633  0.332813  1
  Cl  Cl2072  1  0.261067  0.902433  0.332813  1
  Cl  Cl2073  1  0.641367  0.738933  0.332813  1
  Cl  Cl2074  1  0.569100  0.974700  0.000520  1
  Cl  Cl2075  1  0.405600  0.430900  0.000520  1
  Cl  Cl2076  1  0.025300  0.594400  0.000520  1
  Cl  Cl2077  1  0.235767  0.308033  0.333853  1
  Cl  Cl2078  1  0.072267  0.764233  0.333853  1
  Cl  Cl2079  1  0.691967  0.927733  0.333853  1
  Cl  Cl2080  1  0.902433  0.641367  0.667187  1
  Cl  Cl2081  1  0.738933  0.097567  0.667187  1
  Cl  Cl2082  1  0.358633  0.261067  0.667187  1
  Cl  Cl2083  1  0.102200  0.380000  0.892970  1
  Cl  Cl2084  1  0.277800  0.897800  0.892970  1
  Cl  Cl2085  1  0.620000  0.722200  0.892970  1
  Cl  Cl2086  1  0.435533  0.046667  0.559637  1
  Cl  Cl2087  1  0.611133  0.564467  0.559637  1
  Cl  Cl2088  1  0.953333  0.388867  0.559637  1
  Cl  Cl2089  1  0.768867  0.713333  0.226303  1
  Cl  Cl2090  1  0.944467  0.231133  0.226303  1
  Cl  Cl2091  1  0.286667  0.055533  0.226303  1
  Cl  Cl2092  1  0.897800  0.620000  0.107030  1
  Cl  Cl2093  1  0.722200  0.102200  0.107030  1
  Cl  Cl2094  1  0.380000  0.277800  0.107030  1
  Cl  Cl2095  1  0.564467  0.953333  0.440363  1
  Cl  Cl2096  1  0.388867  0.435533  0.440363  1
  Cl  Cl2097  1  0.046667  0.611133  0.440363  1
  Cl  Cl2098  1  0.231133  0.286667  0.773697  1
  Cl  Cl2099  1  0.055533  0.768867  0.773697  1
  Cl  Cl2100  1  0.713333  0.944467  0.773697  1
  Cl  Cl2101  1  0.464300  0.184300  0.901500  1
  Cl  Cl2102  1  0.720000  0.535700  0.901500  1
  Cl  Cl2103  1  0.815700  0.280000  0.901500  1
  Cl  Cl2104  1  0.797633  0.850967  0.568167  1
  Cl  Cl2105  1  0.053333  0.202367  0.568167  1
  Cl  Cl2106  1  0.149033  0.946667  0.568167  1
  Cl  Cl2107  1  0.130967  0.517633  0.234833  1
  Cl  Cl2108  1  0.386667  0.869033  0.234833  1
  Cl  Cl2109  1  0.482367  0.613333  0.234833  1
  Cl  Cl2110  1  0.535700  0.815700  0.098500  1
  Cl  Cl2111  1  0.280000  0.464300  0.098500  1
  Cl  Cl2112  1  0.184300  0.720000  0.098500  1
  Cl  Cl2113  1  0.202367  0.149033  0.431833  1
  Cl  Cl2114  1  0.946667  0.797633  0.431833  1
  Cl  Cl2115  1  0.850967  0.053333  0.431833  1
  Cl  Cl2116  1  0.869033  0.482367  0.765167  1
  Cl  Cl2117  1  0.613333  0.130967  0.765167  1
  Cl  Cl2118  1  0.517633  0.386667  0.765167  1
  Cl  Cl2119  1  0.404200  0.033100  0.992260  1
  Cl  Cl2120  1  0.628900  0.595800  0.992260  1
  Cl  Cl2121  1  0.966900  0.371100  0.992260  1
  Cl  Cl2122  1  0.737533  0.699767  0.658927  1
  Cl  Cl2123  1  0.962233  0.262467  0.658927  1
  Cl  Cl2124  1  0.300233  0.037767  0.658927  1
  Cl  Cl2125  1  0.070867  0.366433  0.325593  1
  Cl  Cl2126  1  0.295567  0.929133  0.325593  1
  Cl  Cl2127  1  0.633567  0.704433  0.325593  1
  Cl  Cl2128  1  0.595800  0.966900  0.007740  1
  Cl  Cl2129  1  0.371100  0.404200  0.007740  1
  Cl  Cl2130  1  0.033100  0.628900  0.007740  1
  Cl  Cl2131  1  0.262467  0.300233  0.341073  1
  Cl  Cl2132  1  0.037767  0.737533  0.341073  1
  Cl  Cl2133  1  0.699767  0.962233  0.341073  1
  Cl  Cl2134  1  0.929133  0.633567  0.674407  1
  Cl  Cl2135  1  0.704433  0.070867  0.674407  1
  Cl  Cl2136  1  0.366433  0.295567  0.674407  1
  Cl  Cl2137  1  0.124800  0.408100  0.888080  1
  Cl  Cl2138  1  0.283300  0.875200  0.888080  1
  Cl  Cl2139  1  0.591900  0.716700  0.888080  1
  Cl  Cl2140  1  0.458133  0.074767  0.554747  1
  Cl  Cl2141  1  0.616633  0.541867  0.554747  1
  Cl  Cl2142  1  0.925233  0.383367  0.554747  1
  Cl  Cl2143  1  0.791467  0.741433  0.221413  1
  Cl  Cl2144  1  0.949967  0.208533  0.221413  1
  Cl  Cl2145  1  0.258567  0.050033  0.221413  1
  Cl  Cl2146  1  0.875200  0.591900  0.111920  1
  Cl  Cl2147  1  0.716700  0.124800  0.111920  1
  Cl  Cl2148  1  0.408100  0.283300  0.111920  1
  Cl  Cl2149  1  0.541867  0.925233  0.445253  1
  Cl  Cl2150  1  0.383367  0.458133  0.445253  1
  Cl  Cl2151  1  0.074767  0.616633  0.445253  1
  Cl  Cl2152  1  0.208533  0.258567  0.778587  1
  Cl  Cl2153  1  0.050033  0.791467  0.778587  1
  Cl  Cl2154  1  0.741433  0.949967  0.778587  1
  Cl  Cl2155  1  0.427200  0.153300  0.911700  1
  Cl  Cl2156  1  0.726100  0.572800  0.911700  1
  Cl  Cl2157  1  0.846700  0.273900  0.911700  1
  Cl  Cl2158  1  0.760533  0.819967  0.578367  1
  Cl  Cl2159  1  0.059433  0.239467  0.578367  1
  Cl  Cl2160  1  0.180033  0.940567  0.578367  1
  Cl  Cl2161  1  0.093867  0.486633  0.245033  1
  Cl  Cl2162  1  0.392767  0.906133  0.245033  1
  Cl  Cl2163  1  0.513367  0.607233  0.245033  1
  Cl  Cl2164  1  0.572800  0.846700  0.088300  1
  Cl  Cl2165  1  0.273900  0.427200  0.088300  1
  Cl  Cl2166  1  0.153300  0.726100  0.088300  1
  Cl  Cl2167  1  0.239467  0.180033  0.421633  1
  Cl  Cl2168  1  0.940567  0.760533  0.421633  1
  Cl  Cl2169  1  0.819967  0.059433  0.421633  1
  Cl  Cl2170  1  0.906133  0.513367  0.754967  1
  Cl  Cl2171  1  0.607233  0.093867  0.754967  1
  Cl  Cl2172  1  0.486633  0.392767  0.754967  1
  O  O2173  1  0.420900  0.975400  0.990900  1
  O  O2174  1  0.554500  0.579100  0.990900  1
  O  O2175  1  0.024600  0.445500  0.990900  1
  O  O2176  1  0.754233  0.642067  0.657567  1
  O  O2177  1  0.887833  0.245767  0.657567  1
  O  O2178  1  0.357933  0.112167  0.657567  1
  O  O2179  1  0.087567  0.308733  0.324233  1
  O  O2180  1  0.221167  0.912433  0.324233  1
  O  O2181  1  0.691267  0.778833  0.324233  1
  O  O2182  1  0.579100  0.024600  0.009100  1
  O  O2183  1  0.445500  0.420900  0.009100  1
  O  O2184  1  0.975400  0.554500  0.009100  1
  O  O2185  1  0.245767  0.357933  0.342433  1
  O  O2186  1  0.112167  0.754233  0.342433  1
  O  O2187  1  0.642067  0.887833  0.342433  1
  O  O2188  1  0.912433  0.691267  0.675767  1
  O  O2189  1  0.778833  0.087567  0.675767  1
  O  O2190  1  0.308733  0.221167  0.675767  1
  O  O2191  1  0.389600  0.018600  0.015400  1
  O  O2192  1  0.629000  0.610400  0.015400  1
  O  O2193  1  0.981400  0.371000  0.015400  1
  O  O2194  1  0.722933  0.685267  0.682067  1
  O  O2195  1  0.962333  0.277067  0.682067  1
  O  O2196  1  0.314733  0.037667  0.682067  1
  O  O2197  1  0.056267  0.351933  0.348733  1
  O  O2198  1  0.295667  0.943733  0.348733  1
  O  O2199  1  0.648067  0.704333  0.348733  1
  O  O2200  1  0.610400  0.981400  0.984600  1
  O  O2201  1  0.371000  0.389600  0.984600  1
  O  O2202  1  0.018600  0.629000  0.984600  1
  O  O2203  1  0.277067  0.314733  0.317933  1
  O  O2204  1  0.037667  0.722933  0.317933  1
  O  O2205  1  0.685267  0.962333  0.317933  1
  O  O2206  1  0.943733  0.648067  0.651267  1
  O  O2207  1  0.704333  0.056267  0.651267  1
  O  O2208  1  0.351933  0.295667  0.651267  1
  O  O2209  1  0.433800  0.058000  0.979140  1
  O  O2210  1  0.624200  0.566200  0.979140  1
  O  O2211  1  0.942000  0.375800  0.979140  1
  O  O2212  1  0.767133  0.724667  0.645807  1
  O  O2213  1  0.957533  0.232867  0.645807  1
  O  O2214  1  0.275333  0.042467  0.645807  1
  O  O2215  1  0.100467  0.391333  0.312473  1
  O  O2216  1  0.290867  0.899533  0.312473  1
  O  O2217  1  0.608667  0.709133  0.312473  1
  O  O2218  1  0.566200  0.942000  0.020860  1
  O  O2219  1  0.375800  0.433800  0.020860  1
  O  O2220  1  0.058000  0.624200  0.020860  1
  O  O2221  1  0.232867  0.275333  0.354193  1
  O  O2222  1  0.042467  0.767133  0.354193  1
  O  O2223  1  0.724667  0.957533  0.354193  1
  O  O2224  1  0.899533  0.608667  0.687527  1
  O  O2225  1  0.709133  0.100467  0.687527  1
  O  O2226  1  0.391333  0.290867  0.687527  1
  O  O2227  1  0.479600  0.050900  0.012400  1
  O  O2228  1  0.571300  0.520400  0.012400  1
  O  O2229  1  0.949100  0.428700  0.012400  1
  O  O2230  1  0.812933  0.717567  0.679067  1
  O  O2231  1  0.904633  0.187067  0.679067  1
  O  O2232  1  0.282433  0.095367  0.679067  1
  O  O2233  1  0.146267  0.384233  0.345733  1
  O  O2234  1  0.237967  0.853733  0.345733  1
  O  O2235  1  0.615767  0.762033  0.345733  1
  O  O2236  1  0.520400  0.949100  0.987600  1
  O  O2237  1  0.428700  0.479600  0.987600  1
  O  O2238  1  0.050900  0.571300  0.987600  1
  O  O2239  1  0.187067  0.282433  0.320933  1
  O  O2240  1  0.095367  0.812933  0.320933  1
  O  O2241  1  0.717567  0.904633  0.320933  1
  O  O2242  1  0.853733  0.615767  0.654267  1
  O  O2243  1  0.762033  0.146267  0.654267  1
  O  O2244  1  0.384233  0.237967  0.654267  1
  O  O2245  1  0.047100  0.359000  0.891600  1
  O  O2246  1  0.311900  0.952900  0.891600  1
  O  O2247  1  0.641000  0.688100  0.891600  1
  O  O2248  1  0.380433  0.025667  0.558267  1
  O  O2249  1  0.645233  0.619567  0.558267  1
  O  O2250  1  0.974333  0.354767  0.558267  1
  O  O2251  1  0.713767  0.692333  0.224933  1
  O  O2252  1  0.978567  0.286233  0.224933  1
  O  O2253  1  0.307667  0.021433  0.224933  1
  O  O2254  1  0.952900  0.641000  0.108400  1
  O  O2255  1  0.688100  0.047100  0.108400  1
  O  O2256  1  0.359000  0.311900  0.108400  1
  O  O2257  1  0.619567  0.974333  0.441733  1
  O  O2258  1  0.354767  0.380433  0.441733  1
  O  O2259  1  0.025667  0.645233  0.441733  1
  O  O2260  1  0.286233  0.307667  0.775067  1
  O  O2261  1  0.021433  0.713767  0.775067  1
  O  O2262  1  0.692333  0.978567  0.775067  1
  O  O2263  1  0.124800  0.393500  0.869000  1
  O  O2264  1  0.268700  0.875200  0.869000  1
  O  O2265  1  0.606500  0.731300  0.869000  1
  O  O2266  1  0.458133  0.060167  0.535667  1
  O  O2267  1  0.602033  0.541867  0.535667  1
  O  O2268  1  0.939833  0.397967  0.535667  1
  O  O2269  1  0.791467  0.726833  0.202333  1
  O  O2270  1  0.935367  0.208533  0.202333  1
  O  O2271  1  0.273167  0.064633  0.202333  1
  O  O2272  1  0.875200  0.606500  0.131000  1
  O  O2273  1  0.731300  0.124800  0.131000  1
  O  O2274  1  0.393500  0.268700  0.131000  1
  O  O2275  1  0.541867  0.939833  0.464333  1
  O  O2276  1  0.397967  0.458133  0.464333  1
  O  O2277  1  0.060167  0.602033  0.464333  1
  O  O2278  1  0.208533  0.273167  0.797667  1
  O  O2279  1  0.064633  0.791467  0.797667  1
  O  O2280  1  0.726833  0.935367  0.797667  1
  O  O2281  1  0.114000  0.342500  0.903300  1
  O  O2282  1  0.228500  0.886000  0.903300  1
  O  O2283  1  0.657500  0.771500  0.903300  1
  O  O2284  1  0.447333  0.009167  0.569967  1
  O  O2285  1  0.561833  0.552667  0.569967  1
  O  O2286  1  0.990833  0.438167  0.569967  1
  O  O2287  1  0.780667  0.675833  0.236633  1
  O  O2288  1  0.895167  0.219333  0.236633  1
  O  O2289  1  0.324167  0.104833  0.236633  1
  O  O2290  1  0.886000  0.657500  0.096700  1
  O  O2291  1  0.771500  0.114000  0.096700  1
  O  O2292  1  0.342500  0.228500  0.096700  1
  O  O2293  1  0.552667  0.990833  0.430033  1
  O  O2294  1  0.438167  0.447333  0.430033  1
  O  O2295  1  0.009167  0.561833  0.430033  1
  O  O2296  1  0.219333  0.324167  0.763367  1
  O  O2297  1  0.104833  0.780667  0.763367  1
  O  O2298  1  0.675833  0.895167  0.763367  1
  O  O2299  1  0.125700  0.426600  0.907600  1
  O  O2300  1  0.300900  0.874300  0.907600  1
  O  O2301  1  0.573400  0.699100  0.907600  1
  O  O2302  1  0.459033  0.093267  0.574267  1
  O  O2303  1  0.634233  0.540967  0.574267  1
  O  O2304  1  0.906733  0.365767  0.574267  1
  O  O2305  1  0.792367  0.759933  0.240933  1
  O  O2306  1  0.967567  0.207633  0.240933  1
  O  O2307  1  0.240067  0.032433  0.240933  1
  O  O2308  1  0.874300  0.573400  0.092400  1
  O  O2309  1  0.699100  0.125700  0.092400  1
  O  O2310  1  0.426600  0.300900  0.092400  1
  O  O2311  1  0.540967  0.906733  0.425733  1
  O  O2312  1  0.365767  0.459033  0.425733  1
  O  O2313  1  0.093267  0.634233  0.425733  1
  O  O2314  1  0.207633  0.240067  0.759067  1
  O  O2315  1  0.032433  0.792367  0.759067  1
  O  O2316  1  0.759933  0.967567  0.759067  1
  O  O2317  1  0.460900  0.222300  0.916700  1
  O  O2318  1  0.761400  0.539100  0.916700  1
  O  O2319  1  0.777700  0.238600  0.916700  1
  O  O2320  1  0.794233  0.888967  0.583367  1
  O  O2321  1  0.094733  0.205767  0.583367  1
  O  O2322  1  0.111033  0.905267  0.583367  1
  O  O2323  1  0.127567  0.555633  0.250033  1
  O  O2324  1  0.428067  0.872433  0.250033  1
  O  O2325  1  0.444367  0.571933  0.250033  1
  O  O2326  1  0.539100  0.777700  0.083300  1
  O  O2327  1  0.238600  0.460900  0.083300  1
  O  O2328  1  0.222300  0.761400  0.083300  1
  O  O2329  1  0.205767  0.111033  0.416633  1
  O  O2330  1  0.905267  0.794233  0.416633  1
  O  O2331  1  0.888967  0.094733  0.416633  1
  O  O2332  1  0.872433  0.444367  0.749967  1
  O  O2333  1  0.571933  0.127567  0.749967  1
  O  O2334  1  0.555633  0.428067  0.749967  1
  O  O2335  1  0.415200  0.150500  0.890600  1
  O  O2336  1  0.735300  0.584800  0.890600  1
  O  O2337  1  0.849500  0.264700  0.890600  1
  O  O2338  1  0.748533  0.817167  0.557267  1
  O  O2339  1  0.068633  0.251467  0.557267  1
  O  O2340  1  0.182833  0.931367  0.557267  1
  O  O2341  1  0.081867  0.483833  0.223933  1
  O  O2342  1  0.401967  0.918133  0.223933  1
  O  O2343  1  0.516167  0.598033  0.223933  1
  O  O2344  1  0.584800  0.849500  0.109400  1
  O  O2345  1  0.264700  0.415200  0.109400  1
  O  O2346  1  0.150500  0.735300  0.109400  1
  O  O2347  1  0.251467  0.182833  0.442733  1
  O  O2348  1  0.931367  0.748533  0.442733  1
  O  O2349  1  0.817167  0.068633  0.442733  1
  O  O2350  1  0.918133  0.516167  0.776067  1
  O  O2351  1  0.598033  0.081867  0.776067  1
  O  O2352  1  0.483833  0.401967  0.776067  1
  O  O2353  1  0.504200  0.211500  0.883770  1
  O  O2354  1  0.707300  0.495800  0.883770  1
  O  O2355  1  0.788500  0.292700  0.883770  1
  O  O2356  1  0.837533  0.878167  0.550437  1
  O  O2357  1  0.040633  0.162467  0.550437  1
  O  O2358  1  0.121833  0.959367  0.550437  1
  O  O2359  1  0.170867  0.544833  0.217103  1
  O  O2360  1  0.373967  0.829133  0.217103  1
  O  O2361  1  0.455167  0.626033  0.217103  1
  O  O2362  1  0.495800  0.788500  0.116230  1
  O  O2363  1  0.292700  0.504200  0.116230  1
  O  O2364  1  0.211500  0.707300  0.116230  1
  O  O2365  1  0.162467  0.121833  0.449563  1
  O  O2366  1  0.959367  0.837533  0.449563  1
  O  O2367  1  0.878167  0.040633  0.449563  1
  O  O2368  1  0.829133  0.455167  0.782897  1
  O  O2369  1  0.626033  0.170867  0.782897  1
  O  O2370  1  0.544833  0.373967  0.782897  1
  O  O2371  1  0.479500  0.154100  0.916700  1
  O  O2372  1  0.674600  0.520500  0.916700  1
  O  O2373  1  0.845900  0.325400  0.916700  1
  O  O2374  1  0.812833  0.820767  0.583367  1
  O  O2375  1  0.007933  0.187167  0.583367  1
  O  O2376  1  0.179233  0.992067  0.583367  1
  O  O2377  1  0.146167  0.487433  0.250033  1
  O  O2378  1  0.341267  0.853833  0.250033  1
  O  O2379  1  0.512567  0.658733  0.250033  1
  O  O2380  1  0.520500  0.845900  0.083300  1
  O  O2381  1  0.325400  0.479500  0.083300  1
  O  O2382  1  0.154100  0.674600  0.083300  1
  O  O2383  1  0.187167  0.179233  0.416633  1
  O  O2384  1  0.992067  0.812833  0.416633  1
  O  O2385  1  0.820767  0.007933  0.416633  1
  O  O2386  1  0.853833  0.512567  0.749967  1
  O  O2387  1  0.658733  0.146167  0.749967  1
  O  O2388  1  0.487433  0.341267  0.749967  1
  O  O2389  1  0.666667  0.333333  0.902400  1
  O  O2390  1  0.000000  0.000000  0.569067  1
  O  O2391  1  0.333333  0.666667  0.235733  1
  O  O2392  1  0.333333  0.666667  0.097600  1
  O  O2393  1  0.000000  0.000000  0.430933  1
  O  O2394  1  0.666667  0.333333  0.764267  1
  O  O2395  1  0.413300  0.079800  0.981100  1
  O  O2396  1  0.666500  0.586700  0.981100  1
  O  O2397  1  0.920200  0.333500  0.981100  1
  O  O2398  1  0.746633  0.746467  0.647767  1
  O  O2399  1  0.999833  0.253367  0.647767  1
  O  O2400  1  0.253533  0.000167  0.647767  1
  O  O2401  1  0.079967  0.413133  0.314433  1
  O  O2402  1  0.333167  0.920033  0.314433  1
  O  O2403  1  0.586867  0.666833  0.314433  1
  O  O2404  1  0.586700  0.920200  0.018900  1
  O  O2405  1  0.333500  0.413300  0.018900  1
  O  O2406  1  0.079800  0.666500  0.018900  1
  O  O2407  1  0.253367  0.253533  0.352233  1
  O  O2408  1  0.000167  0.746633  0.352233  1
  O  O2409  1  0.746467  0.999833  0.352233  1
  O  O2410  1  0.920033  0.586867  0.685567  1
  O  O2411  1  0.666833  0.079967  0.685567  1
  O  O2412  1  0.413133  0.333167  0.685567  1
  O  O2413  1  0.368800  0.019400  0.012400  1
  O  O2414  1  0.650600  0.631200  0.012400  1
  O  O2415  1  0.980600  0.349400  0.012400  1
  O  O2416  1  0.702133  0.686067  0.679067  1
  O  O2417  1  0.983933  0.297867  0.679067  1
  O  O2418  1  0.313933  0.016067  0.679067  1
  O  O2419  1  0.035467  0.352733  0.345733  1
  O  O2420  1  0.317267  0.964533  0.345733  1
  O  O2421  1  0.647267  0.682733  0.345733  1
  O  O2422  1  0.631200  0.980600  0.987600  1
  O  O2423  1  0.349400  0.368800  0.987600  1
  O  O2424  1  0.019400  0.650600  0.987600  1
  O  O2425  1  0.297867  0.313933  0.320933  1
  O  O2426  1  0.016067  0.702133  0.320933  1
  O  O2427  1  0.686067  0.983933  0.320933  1
  O  O2428  1  0.964533  0.647267  0.654267  1
  O  O2429  1  0.682733  0.035467  0.654267  1
  O  O2430  1  0.352733  0.317267  0.654267  1
  O  O2431  1  0.384000  0.990100  0.975500  1
  O  O2432  1  0.606100  0.616000  0.975500  1
  O  O2433  1  0.009900  0.393900  0.975500  1
  O  O2434  1  0.717333  0.656767  0.642167  1
  O  O2435  1  0.939433  0.282667  0.642167  1
  O  O2436  1  0.343233  0.060567  0.642167  1
  O  O2437  1  0.050667  0.323433  0.308833  1
  O  O2438  1  0.272767  0.949333  0.308833  1
  O  O2439  1  0.676567  0.727233  0.308833  1
  O  O2440  1  0.616000  0.009900  0.024500  1
  O  O2441  1  0.393900  0.384000  0.024500  1
  O  O2442  1  0.990100  0.606100  0.024500  1
  O  O2443  1  0.282667  0.343233  0.357833  1
  O  O2444  1  0.060567  0.717333  0.357833  1
  O  O2445  1  0.656767  0.939433  0.357833  1
  O  O2446  1  0.949333  0.676567  0.691167  1
  O  O2447  1  0.727233  0.050667  0.691167  1
  O  O2448  1  0.323433  0.272767  0.691167  1
  O  O2449  1  0.453300  0.039600  0.001900  1
  O  O2450  1  0.586300  0.546700  0.001900  1
  O  O2451  1  0.960400  0.413700  0.001900  1
  O  O2452  1  0.786633  0.706267  0.668567  1
  O  O2453  1  0.919633  0.213367  0.668567  1
  O  O2454  1  0.293733  0.080367  0.668567  1
  O  O2455  1  0.119967  0.372933  0.335233  1
  O  O2456  1  0.252967  0.880033  0.335233  1
  O  O2457  1  0.627067  0.747033  0.335233  1
  O  O2458  1  0.546700  0.960400  0.998100  1
  O  O2459  1  0.413700  0.453300  0.998100  1
  O  O2460  1  0.039600  0.586300  0.998100  1
  O  O2461  1  0.213367  0.293733  0.331433  1
  O  O2462  1  0.080367  0.786633  0.331433  1
  O  O2463  1  0.706267  0.919633  0.331433  1
  O  O2464  1  0.880033  0.627067  0.664767  1
  O  O2465  1  0.747033  0.119967  0.664767  1
  O  O2466  1  0.372933  0.252967  0.664767  1
  O  O2467  1  0.159800  0.463300  0.887300  1
  O  O2468  1  0.303500  0.840200  0.887300  1
  O  O2469  1  0.536700  0.696500  0.887300  1
  O  O2470  1  0.493133  0.129967  0.553967  1
  O  O2471  1  0.636833  0.506867  0.553967  1
  O  O2472  1  0.870033  0.363167  0.553967  1
  O  O2473  1  0.826467  0.796633  0.220633  1
  O  O2474  1  0.970167  0.173533  0.220633  1
  O  O2475  1  0.203367  0.029833  0.220633  1
  O  O2476  1  0.840200  0.536700  0.112700  1
  O  O2477  1  0.696500  0.159800  0.112700  1
  O  O2478  1  0.463300  0.303500  0.112700  1
  O  O2479  1  0.506867  0.870033  0.446033  1
  O  O2480  1  0.363167  0.493133  0.446033  1
  O  O2481  1  0.129967  0.636833  0.446033  1
  O  O2482  1  0.173533  0.203367  0.779367  1
  O  O2483  1  0.029833  0.826467  0.779367  1
  O  O2484  1  0.796633  0.970167  0.779367  1
  O  O2485  1  0.136200  0.382500  0.869100  1
  O  O2486  1  0.246300  0.863800  0.869100  1
  O  O2487  1  0.617500  0.753700  0.869100  1
  O  O2488  1  0.469533  0.049167  0.535767  1
  O  O2489  1  0.579633  0.530467  0.535767  1
  O  O2490  1  0.950833  0.420367  0.535767  1
  O  O2491  1  0.802867  0.715833  0.202433  1
  O  O2492  1  0.912967  0.197133  0.202433  1
  O  O2493  1  0.284167  0.087033  0.202433  1
  O  O2494  1  0.863800  0.617500  0.130900  1
  O  O2495  1  0.753700  0.136200  0.130900  1
  O  O2496  1  0.382500  0.246300  0.130900  1
  O  O2497  1  0.530467  0.950833  0.464233  1
  O  O2498  1  0.420367  0.469533  0.464233  1
  O  O2499  1  0.049167  0.579633  0.464233  1
  O  O2500  1  0.197133  0.284167  0.797567  1
  O  O2501  1  0.087033  0.802867  0.797567  1
  O  O2502  1  0.715833  0.912967  0.797567  1
  O  O2503  1  0.130000  0.388200  0.911300  1
  O  O2504  1  0.258200  0.870000  0.911300  1
  O  O2505  1  0.611800  0.741800  0.911300  1
  O  O2506  1  0.463333  0.054867  0.577967  1
  O  O2507  1  0.591533  0.536667  0.577967  1
  O  O2508  1  0.945133  0.408467  0.577967  1
  O  O2509  1  0.796667  0.721533  0.244633  1
  O  O2510  1  0.924867  0.203333  0.244633  1
  O  O2511  1  0.278467  0.075133  0.244633  1
  O  O2512  1  0.870000  0.611800  0.088700  1
  O  O2513  1  0.741800  0.130000  0.088700  1
  O  O2514  1  0.388200  0.258200  0.088700  1
  O  O2515  1  0.536667  0.945133  0.422033  1
  O  O2516  1  0.408467  0.463333  0.422033  1
  O  O2517  1  0.054867  0.591533  0.422033  1
  O  O2518  1  0.203333  0.278467  0.755367  1
  O  O2519  1  0.075133  0.796667  0.755367  1
  O  O2520  1  0.721533  0.924867  0.755367  1
  O  O2521  1  0.071800  0.397700  0.885700  1
  O  O2522  1  0.325900  0.928200  0.885700  1
  O  O2523  1  0.602300  0.674100  0.885700  1
  O  O2524  1  0.405133  0.064367  0.552367  1
  O  O2525  1  0.659233  0.594867  0.552367  1
  O  O2526  1  0.935633  0.340767  0.552367  1
  O  O2527  1  0.738467  0.731033  0.219033  1
  O  O2528  1  0.992567  0.261533  0.219033  1
  O  O2529  1  0.268967  0.007433  0.219033  1
  O  O2530  1  0.928200  0.602300  0.114300  1
  O  O2531  1  0.674100  0.071800  0.114300  1
  O  O2532  1  0.397700  0.325900  0.114300  1
  O  O2533  1  0.594867  0.935633  0.447633  1
  O  O2534  1  0.340767  0.405133  0.447633  1
  O  O2535  1  0.064367  0.659233  0.447633  1
  O  O2536  1  0.261533  0.268967  0.780967  1
  O  O2537  1  0.007433  0.738467  0.780967  1
  O  O2538  1  0.731033  0.992567  0.780967  1
  O  O2539  1  0.433800  0.186000  0.891000  1
  O  O2540  1  0.752200  0.566200  0.891000  1
  O  O2541  1  0.814000  0.247800  0.891000  1
  O  O2542  1  0.767133  0.852667  0.557667  1
  O  O2543  1  0.085533  0.232867  0.557667  1
  O  O2544  1  0.147333  0.914467  0.557667  1
  O  O2545  1  0.100467  0.519333  0.224333  1
  O  O2546  1  0.418867  0.899533  0.224333  1
  O  O2547  1  0.480667  0.581133  0.224333  1
  O  O2548  1  0.566200  0.814000  0.109000  1
  O  O2549  1  0.247800  0.433800  0.109000  1
  O  O2550  1  0.186000  0.752200  0.109000  1
  O  O2551  1  0.232867  0.147333  0.442333  1
  O  O2552  1  0.914467  0.767133  0.442333  1
  O  O2553  1  0.852667  0.085533  0.442333  1
  O  O2554  1  0.899533  0.480667  0.775667  1
  O  O2555  1  0.581133  0.100467  0.775667  1
  O  O2556  1  0.519333  0.418867  0.775667  1
  O  O2557  1  0.474000  0.150200  0.914800  1
  O  O2558  1  0.676200  0.526000  0.914800  1
  O  O2559  1  0.849800  0.323800  0.914800  1
  O  O2560  1  0.807333  0.816867  0.581467  1
  O  O2561  1  0.009533  0.192667  0.581467  1
  O  O2562  1  0.183133  0.990467  0.581467  1
  O  O2563  1  0.140667  0.483533  0.248133  1
  O  O2564  1  0.342867  0.859333  0.248133  1
  O  O2565  1  0.516467  0.657133  0.248133  1
  O  O2566  1  0.526000  0.849800  0.085200  1
  O  O2567  1  0.323800  0.474000  0.085200  1
  O  O2568  1  0.150200  0.676200  0.085200  1
  O  O2569  1  0.192667  0.183133  0.418533  1
  O  O2570  1  0.990467  0.807333  0.418533  1
  O  O2571  1  0.816867  0.009533  0.418533  1
  O  O2572  1  0.859333  0.516467  0.751867  1
  O  O2573  1  0.657133  0.140667  0.751867  1
  O  O2574  1  0.483533  0.342867  0.751867  1
  O  O2575  1  0.383900  0.102000  0.907300  1
  O  O2576  1  0.718100  0.616100  0.907300  1
  O  O2577  1  0.898000  0.281900  0.907300  1
  O  O2578  1  0.717233  0.768667  0.573967  1
  O  O2579  1  0.051433  0.282767  0.573967  1
  O  O2580  1  0.231333  0.948567  0.573967  1
  O  O2581  1  0.050567  0.435333  0.240633  1
  O  O2582  1  0.384767  0.949433  0.240633  1
  O  O2583  1  0.564667  0.615233  0.240633  1
  O  O2584  1  0.616100  0.898000  0.092700  1
  O  O2585  1  0.281900  0.383900  0.092700  1
  O  O2586  1  0.102000  0.718100  0.092700  1
  O  O2587  1  0.282767  0.231333  0.426033  1
  O  O2588  1  0.948567  0.717233  0.426033  1
  O  O2589  1  0.768667  0.051433  0.426033  1
  O  O2590  1  0.949433  0.564667  0.759367  1
  O  O2591  1  0.615233  0.050567  0.759367  1
  O  O2592  1  0.435333  0.384767  0.759367  1
  O  O2593  1  0.418000  0.174900  0.933000  1
  O  O2594  1  0.756900  0.582000  0.933000  1
  O  O2595  1  0.825100  0.243100  0.933000  1
  O  O2596  1  0.751333  0.841567  0.599667  1
  O  O2597  1  0.090233  0.248667  0.599667  1
  O  O2598  1  0.158433  0.909767  0.599667  1
  O  O2599  1  0.084667  0.508233  0.266333  1
  O  O2600  1  0.423567  0.915333  0.266333  1
  O  O2601  1  0.491767  0.576433  0.266333  1
  O  O2602  1  0.582000  0.825100  0.067000  1
  O  O2603  1  0.243100  0.418000  0.067000  1
  O  O2604  1  0.174900  0.756900  0.067000  1
  O  O2605  1  0.248667  0.158433  0.400333  1
  O  O2606  1  0.909767  0.751333  0.400333  1
  O  O2607  1  0.841567  0.090233  0.400333  1
  O  O2608  1  0.915333  0.491767  0.733667  1
  O  O2609  1  0.576433  0.084667  0.733667  1
  O  O2610  1  0.508233  0.423567  0.733667  1
