
#######################################################################
#
#                 Cambridge Crystallographic Data Centre
#                                CCDC 
#
#######################################################################
#
# If this CIF has been generated from an entry in the Cambridge 
# Structural Database, then it will include bibliographic, chemical, 
# crystal, experimental, refinement or atomic coordinate data resulting 
# from the CCDC's data processing and validation procedures.
#
#######################################################################

data_NUQQEX
_chemical_formula_moiety         
'C336 H264 Co4 N72 Ru4 16+,3(C1 H3 N1 O2),16(B1 F4 1-)'
_chemical_name_systematic        
"dodecakis(\m~2~-2,2'-(naphthalene-1,5-diylbis(methylene-1H-pyrazole-1,3-diyl))dipyridine)-tetra-cobalt-tetra-ruthenium hexakis(tetrafluoroborate) nitromethane unknown solvate"
_symmetry_cell_setting           rhombohedral
_symmetry_space_group_name_H-M   'R -3'
_symmetry_Int_Tables_number      148
_space_group_name_Hall           '-R 3'
loop_
_symmetry_equiv_pos_site_id
_symmetry_equiv_pos_as_xyz
1 x,y,z
2 -y,x-y,z
3 -x+y,-x,z
4 2/3+x,1/3+y,1/3+z
5 2/3-y,1/3+x-y,1/3+z
6 2/3-x+y,1/3-x,1/3+z
7 1/3+x,2/3+y,2/3+z
8 1/3-y,2/3+x-y,2/3+z
9 1/3-x+y,2/3-x,2/3+z
10 -x,-y,-z
11 y,-x+y,-z
12 x-y,x,-z
13 1/3-x,2/3-y,2/3-z
14 1/3+y,2/3-x+y,2/3-z
15 1/3+x-y,2/3+x,2/3-z
16 2/3-x,1/3-y,1/3-z
17 2/3+y,1/3-x+y,1/3-z
18 2/3+x-y,1/3+x,1/3-z
_cell_length_a                   34.091(2)
_cell_length_b                   34.091(2)
_cell_length_c                   35.5084(17)
_cell_angle_alpha                90
_cell_angle_beta                 90
_cell_angle_gamma                120
_cell_volume                     35738.9
_exptl_crystal_colour            orange
_exptl_crystal_description       block
_cell_formula_units_Z            3
loop_
_atom_site_label
_atom_site_type_symbol
_atom_site_fract_x
_atom_site_fract_y
_atom_site_fract_z
Co1 Co 0.62337(3) 0.92733(3) 0.07669(2)
N1 N 0.61981(18) 0.97473(15) 0.11256(12)
C1 C 0.58870(17) 0.98771(17) 0.10194(11)
C2 C 0.58336(18) 1.01860(18) 0.12373(15)
H1 H 0.5621 1.0275 0.1165
C3 C 0.6091(2) 1.03649(16) 0.15614(14)
H2 H 0.6055 1.0576 0.1710
C4 C 0.64022(19) 1.02351(18) 0.16676(12)
H3 H 0.6578 1.0357 0.1889
C5 C 0.64556(17) 0.99262(18) 0.14498(14)
H4 H 0.6668 0.9837 0.1522
N2 N 0.54947(17) 0.92626(15) 0.01629(11)
N3 N 0.57439(15) 0.93802(16) 0.05049(12)
C6 C 0.56730(19) 0.97078(17) 0.06920(11)
C7 C 0.5380(2) 0.97927(17) 0.04656(15)
H5 H 0.5276 0.9998 0.0523
C8 C 0.52699(16) 0.95175(18) 0.01386(13)
H6 H 0.5079 0.9506 -0.0061
C9 C 0.5442(3) 0.8911(2) -0.00722(19)
H7 H 0.5725 0.8897 -0.0068
H8 H 0.5396 0.8981 -0.0333
N4 N 0.31545(19) 0.60791(16) -0.13133(13)
C10 C 0.33629(18) 0.58332(19) -0.12122(12)
C11 C 0.3276(2) 0.54496(19) -0.14157(16)
H9 H 0.3418 0.5282 -0.1347
C12 C 0.2980(2) 0.53119(18) -0.17203(16)
H10 H 0.2921 0.5050 -0.1859
C13 C 0.2772(2) 0.5558(2) -0.18214(14)
H11 H 0.2570 0.5464 -0.2030
C14 C 0.2859(2) 0.5941(2) -0.16179(15)
H12 H 0.2717 0.6109 -0.1687
N5 N 0.39642(15) 0.64634(13) -0.04098(10)
N6 N 0.36685(15) 0.63672(15) -0.07213(11)
C15 C 0.36306(16) 0.59829(16) -0.09108(11)
C16 C 0.39028(18) 0.58417(15) -0.07164(14)
H13 H 0.3940 0.5592 -0.0782
C17 C 0.41090(15) 0.61386(17) -0.04068(12)
H14 H 0.4309 0.6123 -0.0229
C18 C 0.4074(2) 0.6815(2) -0.01563(17)
H15 H 0.4124 0.6721 0.0095
H16 H 0.3812 0.6865 -0.0135
C19 C 0.50486(12) 0.84475(9) 0.00346(9)
C20 C 0.47797(14) 0.84210(11) 0.03387(9)
H17 H 0.4846 0.8687 0.0476
C21 C 0.44131(13) 0.80058(13) 0.04424(8)
H18 H 0.4229 0.7988 0.0650
C22 C 0.43154(10) 0.76171(11) 0.02420(8)
H19 H 0.4065 0.7333 0.0313
C23 C 0.45843(9) 0.76436(9) -0.00621(7)
C24 C 0.49509(9) 0.80588(9) -0.01659(7)
C25 C 0.52198(11) 0.80852(12) -0.04700(9)
H20 H 0.5470 0.8369 -0.0541
C26 C 0.51221(13) 0.76965(14) -0.06704(8)
H21 H 0.5306 0.7715 -0.0878
C27 C 0.47555(14) 0.72813(12) -0.05667(9)
H22 H 0.4689 0.7016 -0.0704
C28 C 0.44866(12) 0.72549(9) -0.02626(9)
N7 N 0.62155(18) 0.87713(16) 0.04099(12)
C29 C 0.58907(16) 0.83277(18) 0.04959(12)
C30 C 0.58487(17) 0.79735(14) 0.02730(15)
H23 H 0.5627 0.7670 0.0332
C31 C 0.6132(2) 0.80629(18) -0.00359(14)
H24 H 0.6103 0.7821 -0.0188
C32 C 0.64564(18) 0.8507(2) -0.01219(12)
H25 H 0.6650 0.8568 -0.0333
C33 C 0.64983(16) 0.88607(16) 0.01010(14)
H26 H 0.6720 0.9164 0.0042
N8 N 0.54690(16) 0.85209(15) 0.13536(11)
N9 N 0.57449(14) 0.86639(13) 0.10260(12)
C34 C 0.56494(17) 0.82724(17) 0.08146(11)
C35 C 0.53145(18) 0.78875(13) 0.10115(14)
H27 H 0.5187 0.7581 0.0934
C36 C 0.52030(15) 0.80410(15) 0.13446(12)
H28 H 0.4988 0.7855 0.1529
C37 C 0.5462(3) 0.8814(3) 0.16284(19)
H29 H 0.5765 0.9089 0.1640
H30 H 0.5401 0.8662 0.1877
N10 N 0.36036(24) 1.00905(17) 0.28657(14)
C38 C 0.3921(3) 1.0528(2) 0.27563(14)
C39 C 0.39286(26) 1.08972(16) 0.29302(18)
H31 H 0.4145 1.1196 0.2855
C40 C 0.36192(27) 1.08288(18) 0.32134(17)
H32 H 0.3625 1.1081 0.3332
C41 C 0.3302(3) 1.0391(2) 0.33228(16)
H33 H 0.3091 1.0344 0.3516
C42 C 0.32945(26) 1.00221(17) 0.31490(16)
H34 H 0.3078 0.9723 0.3223
N11 N 0.44487(23) 1.02634(17) 0.20115(13)
N12 N 0.41357(24) 1.01509(15) 0.23122(14)
C43 C 0.42009(28) 1.0561(2) 0.24722(14)
C44 C 0.45531(24) 1.09267(14) 0.22704(17)
H35 H 0.4667 1.1239 0.2317
C45 C 0.47073(26) 1.07429(17) 0.19857(15)
H36 H 0.4942 1.0911 0.1809
C46 C 0.4454(4) 0.9940(3) 0.1779(2)
H37 H 0.4144 0.9676 0.1768
H38 H 0.4535 1.0067 0.1521
C47 C 0.51076(13) 0.89576(12) 0.15578(10)
C48 C 0.48365(15) 0.87873(12) 0.12395(9)
H39 H 0.4850 0.8563 0.1090
C49 C 0.45460(13) 0.89455(13) 0.11393(8)
H40 H 0.4361 0.8829 0.0922
C50 C 0.45266(12) 0.92740(13) 0.13574(9)
H41 H 0.4328 0.9382 0.1289
C51 C 0.47978(9) 0.94443(10) 0.16757(7)
C52 C 0.50883(9) 0.92861(10) 0.17759(7)
C53 C 0.53594(12) 0.94564(14) 0.20942(9)
H42 H 0.5558 0.9348 0.2163
C54 C 0.53401(14) 0.97849(14) 0.23123(9)
H43 H 0.5525 0.9901 0.2530
C55 C 0.50496(15) 0.99431(13) 0.22121(10)
H44 H 0.5036 1.0168 0.2361
C56 C 0.47785(14) 0.97728(12) 0.18938(10)
Ru1 Ru 0.3333 0.6667 -0.09897(3)
Co1A Co 0.07267(3) 0.69604(4) 0.07669(2)
N1A N 0.02527(15) 0.64508(23) 0.11256(12)
C1A C 0.01229(17) 0.60099(24) 0.10194(11)
C2A C -0.01860(18) 0.56476(25) 0.12373(15)
H1A H -0.0275 0.5346 0.1165
C3A C -0.03649(16) 0.57261(26) 0.15614(14)
H2A H -0.0576 0.5479 0.1710
C4A C -0.02351(18) 0.61671(26) 0.16676(12)
H3A H -0.0357 0.6221 0.1889
C5A C 0.00738(18) 0.65294(25) 0.14498(14)
H4A H 0.0163 0.6831 0.1522
N2A N 0.07374(15) 0.62321(23) 0.01629(11)
N3A N 0.06198(16) 0.63637(22) 0.05049(12)
C6A C 0.02922(17) 0.59652(25) 0.06920(11)
C7A C 0.02073(17) 0.55873(26) 0.04656(15)
H5A H 0.0002 0.5278 0.0523
C8A C 0.04825(18) 0.57524(24) 0.01386(13)
H6A H 0.0494 0.5573 -0.0061
C9A C 0.1089(2) 0.6531(4) -0.00722(19)
H7A H 0.1103 0.6828 -0.0068
H8A H 0.1019 0.6415 -0.0333
N4A N 0.39209(16) 0.70754(25) -0.13133(13)
C10A C 0.41668(19) 0.75297(26) -0.12122(12)
C11A C 0.45504(19) 0.78264(28) -0.14157(16)
H9A H 0.4718 0.8136 -0.1347
C12A C 0.46881(18) 0.76681(27) -0.17203(16)
H10A H 0.4950 0.7871 -0.1859
C13A C 0.4442(2) 0.7214(3) -0.18214(14)
H11A H 0.4536 0.7106 -0.2030
C14A C 0.4059(2) 0.6918(3) -0.16179(15)
H12A H 0.3891 0.6608 -0.1687
N5A N 0.35366(13) 0.75008(20) -0.04098(10)
N6A N 0.36328(15) 0.73013(21) -0.07213(11)
C15A C 0.40171(16) 0.76477(23) -0.09108(11)
C16A C 0.41583(15) 0.80611(23) -0.07164(14)
H13A H 0.4408 0.8348 -0.0782
C17A C 0.38614(17) 0.79704(23) -0.04068(12)
H14A H 0.3877 0.8186 -0.0229
C18A C 0.3185(2) 0.7259(3) -0.01563(17)
H15A H 0.3279 0.7403 0.0095
H16A H 0.3135 0.6947 -0.0135
C19A C 0.15525(9) 0.66011(15) 0.00346(9)
C20A C 0.15790(11) 0.63587(18) 0.03387(9)
H17A H 0.1313 0.6159 0.0476
C21A C 0.19942(13) 0.64073(18) 0.04424(8)
H18A H 0.2012 0.6241 0.0650
C22A C 0.23829(11) 0.66983(15) 0.02420(8)
H19A H 0.2667 0.6732 0.0313
C23A C 0.23564(9) 0.69407(13) -0.00621(7)
C24A C 0.19412(9) 0.68921(13) -0.01659(7)
C25A C 0.19148(12) 0.71346(16) -0.04700(9)
H20A H 0.1631 0.7101 -0.0541
C26A C 0.23035(14) 0.74256(19) -0.06704(8)
H21A H 0.2285 0.7591 -0.0878
C27A C 0.27187(12) 0.74742(18) -0.05667(9)
H22A H 0.2984 0.7673 -0.0704
C28A C 0.27451(9) 0.72317(15) -0.02626(9)
N7A N 0.12287(16) 0.74442(24) 0.04099(12)
C29A C 0.16723(18) 0.75630(24) 0.04959(12)
C30A C 0.20265(14) 0.78752(22) 0.02730(15)
H23A H 0.2330 0.7957 0.0332
C31A C 0.19371(18) 0.80691(27) -0.00359(14)
H24A H 0.2179 0.8282 -0.0188
C32A C 0.1493(2) 0.79494(27) -0.01219(12)
H25A H 0.1432 0.8082 -0.0333
C33A C 0.11393(16) 0.76376(23) 0.01010(14)
H26A H 0.0836 0.7556 0.0042
N8A N 0.14791(15) 0.69481(22) 0.13536(11)
N9A N 0.13361(13) 0.70810(19) 0.10260(12)
C34A C 0.17276(17) 0.73770(24) 0.08146(11)
C35A C 0.21125(13) 0.74270(22) 0.10115(14)
H27A H 0.2419 0.7606 0.0934
C36A C 0.19590(15) 0.71620(21) 0.13446(12)
H28A H 0.2145 0.7133 0.1529
C37A C 0.1186(3) 0.6648(4) 0.16284(19)
H29A H 0.0911 0.6676 0.1640
H30A H 0.1338 0.6739 0.1877
N10A N -0.00905(17) 0.35131(29) 0.28657(14)
C38A C -0.0528(2) 0.3393(4) 0.27563(14)
C39A C -0.08972(16) 0.30314(31) 0.29302(18)
H31A H -0.1196 0.2949 0.2855
C40A C -0.08288(18) 0.27904(32) 0.32134(17)
H32A H -0.1081 0.2544 0.3332
C41A C -0.0391(2) 0.2911(4) 0.33228(16)
H33A H -0.0344 0.2747 0.3516
C42A C -0.00221(17) 0.32724(31) 0.31490(16)
H34A H 0.0277 0.3355 0.3223
N11A N -0.02634(17) 0.41853(29) 0.20115(13)
N12A N -0.01509(15) 0.39848(28) 0.23122(14)
C43A C -0.0561(2) 0.36399(34) 0.24722(14)
C44A C -0.09267(14) 0.36264(28) 0.22704(17)
H35A H -0.1239 0.3428 0.2317
C45A C -0.07429(17) 0.39644(31) 0.19857(15)
H36A H -0.0911 0.4031 0.1809
C46A C 0.0060(3) 0.4514(5) 0.1779(2)
H37A H 0.0324 0.4468 0.1768
H38A H -0.0067 0.4468 0.1521
C47A C 0.10424(12) 0.61500(18) 0.15578(10)
C48A C 0.12127(12) 0.60492(19) 0.12395(9)
H39A H 0.1437 0.6287 0.1090
C49A C 0.10545(13) 0.56005(18) 0.11393(8)
H40A H 0.1171 0.5532 0.0922
C50A C 0.07260(13) 0.52526(18) 0.13574(9)
H41A H 0.0618 0.4946 0.1289
C51A C 0.05557(10) 0.53535(13) 0.16757(7)
C52A C 0.07139(10) 0.58022(13) 0.17759(7)
C53A C 0.05436(14) 0.59030(18) 0.20942(9)
H42A H 0.0652 0.6210 0.2163
C54A C 0.02151(14) 0.55552(20) 0.23123(9)
H43A H 0.0099 0.5624 0.2530
C55A C 0.00569(13) 0.51065(20) 0.22121(10)
H44A H -0.0168 0.4868 0.2361
C56A C 0.02272(12) 0.50057(18) 0.18938(10)
Co1B Co 0.30396(4) 0.37663(3) 0.07669(2)
N1B N 0.35492(23) 0.38019(18) 0.11256(12)
C1B C 0.39901(24) 0.41130(17) 0.10194(11)
C2B C 0.43524(25) 0.41664(18) 0.12373(15)
H1B H 0.4654 0.4379 0.1165
C3B C 0.42739(26) 0.3909(2) 0.15614(14)
H2B H 0.4521 0.3945 0.1710
C4B C 0.38329(26) 0.35978(19) 0.16676(12)
H3B H 0.3779 0.3422 0.1889
C5B C 0.34706(25) 0.35444(17) 0.14498(14)
H4B H 0.3169 0.3332 0.1522
N2B N 0.37679(23) 0.45053(17) 0.01629(11)
N3B N 0.36363(22) 0.42561(15) 0.05049(12)
C6B C 0.40348(25) 0.43270(19) 0.06920(11)
C7B C 0.44127(26) 0.4620(2) 0.04656(15)
H5B H 0.4722 0.4724 0.0523
C8B C 0.42476(24) 0.47301(16) 0.01386(13)
H6B H 0.4427 0.4921 -0.0061
C9B C 0.3469(4) 0.4558(3) -0.00722(19)
H7B H 0.3172 0.4275 -0.0068
H8B H 0.3585 0.4604 -0.0333
N4B N 0.29246(25) 0.68455(19) -0.13133(13)
C10B C 0.24703(26) 0.66371(18) -0.12122(12)
C11B C 0.21736(28) 0.6724(2) -0.14157(16)
H9B H 0.1864 0.6582 -0.1347
C12B C 0.23319(27) 0.7020(2) -0.17203(16)
H10B H 0.2129 0.7079 -0.1859
C13B C 0.2786(3) 0.7228(2) -0.18214(14)
H11B H 0.2894 0.7430 -0.2030
C14B C 0.3082(3) 0.7141(2) -0.16179(15)
H12B H 0.3392 0.7283 -0.1687
N5B N 0.24992(20) 0.60358(15) -0.04098(10)
N6B N 0.26987(21) 0.63315(15) -0.07213(11)
C15B C 0.23523(23) 0.63694(16) -0.09108(11)
C16B C 0.19389(23) 0.60972(18) -0.07164(14)
H13B H 0.1652 0.6060 -0.0782
C17B C 0.20296(23) 0.58910(15) -0.04068(12)
H14B H 0.1814 0.5691 -0.0229
C18B C 0.2741(3) 0.5926(2) -0.01563(17)
H15B H 0.2597 0.5876 0.0095
H16B H 0.3053 0.6188 -0.0135
C19B C 0.33989(15) 0.49514(12) 0.00346(9)
C20B C 0.36413(18) 0.52203(14) 0.03387(9)
H17B H 0.3841 0.5154 0.0476
C21B C 0.35927(18) 0.55869(13) 0.04424(8)
H18B H 0.3759 0.5771 0.0650
C22B C 0.33017(15) 0.56846(10) 0.02420(8)
H19B H 0.3268 0.5935 0.0313
C23B C 0.30593(13) 0.54157(9) -0.00621(7)
C24B C 0.31079(13) 0.50491(9) -0.01659(7)
C25B C 0.28654(16) 0.47802(11) -0.04700(9)
H20B H 0.2899 0.4530 -0.0541
C26B C 0.25744(19) 0.48779(13) -0.06704(8)
H21B H 0.2409 0.4694 -0.0878
C27B C 0.25258(18) 0.52445(14) -0.05667(9)
H22B H 0.2327 0.5311 -0.0704
C28B C 0.27683(15) 0.55134(12) -0.02626(9)
N7B N 0.25558(24) 0.37845(18) 0.04099(12)
C29B C 0.24370(24) 0.41093(16) 0.04959(12)
C30B C 0.21248(22) 0.41513(17) 0.02730(15)
H23B H 0.2043 0.4373 0.0332
C31B C 0.19309(27) 0.3868(2) -0.00359(14)
H24B H 0.1718 0.3897 -0.0188
C32B C 0.20506(27) 0.35436(18) -0.01219(12)
H25B H 0.1918 0.3350 -0.0333
C33B C 0.23624(23) 0.35017(16) 0.01010(14)
H26B H 0.2444 0.3280 0.0042
N8B N 0.30519(22) 0.45310(16) 0.13536(11)
N9B N 0.29190(19) 0.42551(14) 0.10260(12)
C34B C 0.26230(24) 0.43506(17) 0.08146(11)
C35B C 0.25730(22) 0.46855(18) 0.10115(14)
H27B H 0.2394 0.4813 0.0934
C36B C 0.28380(21) 0.47970(15) 0.13446(12)
H28B H 0.2867 0.5012 0.1529
C37B C 0.3352(4) 0.4538(3) 0.16284(19)
H29B H 0.3324 0.4235 0.1640
H30B H 0.3261 0.4599 0.1877
N10B N 0.64869(29) 0.63964(24) 0.28657(14)
C38B C 0.6607(4) 0.6079(3) 0.27563(14)
C39B C 0.69686(31) 0.60714(26) 0.29302(18)
H31B H 0.7051 0.5855 0.2855
C40B C 0.72096(32) 0.63808(27) 0.32134(17)
H32B H 0.7456 0.6375 0.3332
C41B C 0.7089(4) 0.6698(3) 0.33228(16)
H33B H 0.7253 0.6909 0.3516
C42B C 0.67276(31) 0.67055(26) 0.31490(16)
H34B H 0.6645 0.6922 0.3223
N11B N 0.58147(29) 0.55513(23) 0.20115(13)
N12B N 0.60152(28) 0.58643(24) 0.23122(14)
C43B C 0.63601(34) 0.57991(28) 0.24722(14)
C44B C 0.63736(28) 0.54469(24) 0.22704(17)
H35B H 0.6572 0.5333 0.2317
C45B C 0.60356(31) 0.52927(26) 0.19857(15)
H36B H 0.5969 0.5058 0.1809
C46B C 0.5486(5) 0.5546(4) 0.1779(2)
H37B H 0.5532 0.5856 0.1768
H38B H 0.5532 0.5465 0.1521
C47B C 0.38500(18) 0.48924(13) 0.15578(10)
C48B C 0.39508(19) 0.51635(15) 0.12395(9)
H39B H 0.3713 0.5150 0.1090
C49B C 0.43995(18) 0.54540(13) 0.11393(8)
H40B H 0.4468 0.5639 0.0922
C50B C 0.47474(18) 0.54734(12) 0.13574(9)
H41B H 0.5054 0.5672 0.1289
C51B C 0.46465(13) 0.52022(9) 0.16757(7)
C52B C 0.41978(13) 0.49117(9) 0.17759(7)
C53B C 0.40970(18) 0.46406(12) 0.20942(9)
H42B H 0.3790 0.4442 0.2163
C54B C 0.44448(20) 0.46599(14) 0.23123(9)
H43B H 0.4376 0.4475 0.2530
C55B C 0.48935(20) 0.49504(15) 0.22121(10)
H44B H 0.5132 0.4964 0.2361
C56B C 0.49943(18) 0.52215(14) 0.18938(10)
Co1O Co 0.04330(3) 0.40600(3) 0.25664(2)
N1O N 0.04686(18) 0.35860(15) 0.22077(12)
C1O C 0.07797(17) 0.34562(17) 0.23139(11)
C2O C 0.08331(18) 0.31473(18) 0.20960(15)
H1O H 0.1046 0.3058 0.2168
C3O C 0.0576(2) 0.29684(16) 0.17719(14)
H2O H 0.0612 0.2757 0.1623
C4O C 0.02645(19) 0.30982(18) 0.16657(12)
H3O H 0.0089 0.2976 0.1444
C5O C 0.02111(17) 0.34071(18) 0.18835(14)
H4O H -0.0001 0.3496 0.1811
N2O N 0.11720(17) 0.40707(15) 0.31704(11)
N3O N 0.09228(15) 0.39531(16) 0.28284(12)
C6O C 0.09937(19) 0.36255(17) 0.26413(11)
C7O C 0.1287(2) 0.35406(17) 0.28677(15)
H5O H 0.1391 0.3335 0.2810
C8O C 0.13968(16) 0.38158(18) 0.31947(13)
H6O H 0.1588 0.3827 0.3394
C9O C 0.1225(3) 0.4422(2) 0.34055(19)
H7O H 0.0942 0.4436 0.3401
H8O H 0.1271 0.4352 0.3666
N4O N 0.35122(19) 0.72542(16) 0.46466(13)
C10O C 0.33038(18) 0.75001(19) 0.45455(12)
C11O C 0.3391(2) 0.78837(19) 0.47490(16)
H9O H 0.3249 0.8051 0.4680
C12O C 0.3687(2) 0.80214(18) 0.50536(16)
H10O H 0.3746 0.8283 0.5192
C13O C 0.3895(2) 0.7775(2) 0.51547(14)
H11O H 0.4097 0.7869 0.5363
C14O C 0.3808(2) 0.7392(2) 0.49512(15)
H12O H 0.3950 0.7224 0.5020
N5O N 0.27025(15) 0.68699(13) 0.37431(10)
N6O N 0.29982(15) 0.69661(15) 0.40546(11)
C15O C 0.30361(16) 0.73504(16) 0.42441(11)
C16O C 0.27639(18) 0.74916(15) 0.40497(14)
H13O H 0.2727 0.7741 0.4115
C17O C 0.25577(15) 0.71947(17) 0.37401(12)
H14O H 0.2358 0.7210 0.3562
C18O C 0.2593(2) 0.6518(2) 0.34896(17)
H15O H 0.2543 0.6612 0.3238
H16O H 0.2855 0.6468 0.3468
C19O C 0.16181(12) 0.48858(9) 0.32987(9)
C20O C 0.18870(14) 0.49123(11) 0.29946(9)
H17O H 0.1821 0.4646 0.2857
C21O C 0.22536(13) 0.53275(13) 0.28909(8)
H18O H 0.2438 0.5345 0.2683
C22O C 0.23513(10) 0.57162(11) 0.30913(8)
H19O H 0.2602 0.6000 0.3020
C23O C 0.20824(9) 0.56897(9) 0.33954(7)
C24O C 0.17158(9) 0.52745(9) 0.34992(7)
C25O C 0.14469(11) 0.52481(12) 0.38033(9)
H20O H 0.1197 0.4964 0.3874
C26O C 0.15446(13) 0.56368(14) 0.40037(8)
H21O H 0.1361 0.5618 0.4211
C27O C 0.19112(14) 0.60520(12) 0.39000(9)
H22O H 0.1978 0.6317 0.4037
C28O C 0.21801(12) 0.60784(9) 0.35959(9)
N7O N 0.04512(18) 0.45620(16) 0.29234(12)
C29O C 0.07760(16) 0.50056(18) 0.28374(12)
C30O C 0.08180(17) 0.53598(14) 0.30603(15)
H23O H 0.1040 0.5663 0.3001
C31O C 0.0535(2) 0.52704(18) 0.33692(14)
H24O H 0.0564 0.5512 0.3521
C32O C 0.02103(18) 0.4826(2) 0.34552(12)
H25O H 0.0017 0.4765 0.3666
C33O C 0.01684(16) 0.44726(16) 0.32323(14)
H26O H -0.0053 0.4169 0.3291
N8O N 0.11977(16) 0.48124(15) 0.19797(11)
N9O N 0.09218(14) 0.46694(13) 0.23073(12)
C34O C 0.10173(17) 0.50609(17) 0.25187(11)
C35O C 0.13522(18) 0.54458(13) 0.23218(14)
H27O H 0.1480 0.5752 0.2399
C36O C 0.14637(15) 0.52923(15) 0.19887(12)
H28O H 0.1679 0.5478 0.1804
C37O C 0.1205(3) 0.4519(3) 0.17049(19)
H29O H 0.0902 0.4244 0.1693
H30O H 0.1266 0.4671 0.1456
N10O N 0.30631(24) 0.32428(17) 0.04676(14)
C38O C 0.2746(3) 0.2805(2) 0.05770(14)
C39O C 0.27381(26) 0.24361(16) 0.04031(18)
H31O H 0.2522 0.2137 0.0478
C40O C 0.30475(27) 0.25045(18) 0.01199(17)
H32O H 0.3042 0.2252 0.0001
C41O C 0.3365(3) 0.2942(2) 0.00105(16)
H33O H 0.3576 0.2989 -0.0183
C42O C 0.33722(26) 0.33112(17) 0.01843(16)
H34O H 0.3589 0.3610 0.0110
N11O N 0.22180(23) 0.30699(17) 0.13218(13)
N12O N 0.25310(24) 0.31824(15) 0.10211(14)
C43O C 0.24658(28) 0.2772(2) 0.08611(14)
C44O C 0.21136(24) 0.24066(14) 0.10629(17)
H35O H 0.2000 0.2094 0.1016
C45O C 0.19594(26) 0.25904(17) 0.13476(15)
H36O H 0.1725 0.2422 0.1524
C46O C 0.2213(4) 0.3393(3) 0.1554(2)
H37O H 0.2523 0.3657 0.1565
H38O H 0.2132 0.3266 0.1812
C47O C 0.15591(13) 0.43757(12) 0.17755(10)
C48O C 0.18302(15) 0.45460(12) 0.20938(9)
H39O H 0.1817 0.4770 0.2243
C49O C 0.21207(13) 0.43878(13) 0.21940(8)
H40O H 0.2306 0.4504 0.2411
C50O C 0.21401(12) 0.40593(13) 0.19759(9)
H41O H 0.2339 0.3951 0.2044
C51O C 0.18689(9) 0.38890(10) 0.16576(7)
C52O C 0.15784(9) 0.40472(10) 0.15574(7)
C53O C 0.13073(12) 0.38769(14) 0.12391(9)
H42O H 0.1109 0.3985 0.1170
C54O C 0.13266(14) 0.35484(14) 0.10210(9)
H43O H 0.1142 0.3432 0.0803
C55O C 0.16171(15) 0.33902(13) 0.11212(10)
H44O H 0.1631 0.3165 0.0972
C56O C 0.18882(14) 0.35605(12) 0.14395(10)
Ru1O Ru 0.3334 0.6666 0.43230(3)
Co1P Co 0.59400(3) 0.63729(4) 0.25664(2)
N1P N 0.64140(15) 0.68825(23) 0.22077(12)
C1P C 0.65438(17) 0.73234(24) 0.23139(11)
C2P C 0.68527(18) 0.76857(25) 0.20960(15)
H1P H 0.6942 0.7987 0.2168
C3P C 0.70316(16) 0.76072(26) 0.17719(14)
H2P H 0.7243 0.7854 0.1623
C4P C 0.69018(18) 0.71662(26) 0.16657(12)
H3P H 0.7024 0.7112 0.1444
C5P C 0.65929(18) 0.68039(25) 0.18835(14)
H4P H 0.6504 0.6502 0.1811
N2P N 0.59293(15) 0.71012(23) 0.31704(11)
N3P N 0.60469(16) 0.69696(22) 0.28284(12)
C6P C 0.63745(17) 0.73681(25) 0.26413(11)
C7P C 0.64594(17) 0.77460(26) 0.28677(15)
H5P H 0.6665 0.8055 0.2810
C8P C 0.61842(18) 0.75809(24) 0.31947(13)
H6P H 0.6173 0.7760 0.3394
C9P C 0.5578(2) 0.6802(4) 0.34055(19)
H7P H 0.5564 0.6505 0.3401
H8P H 0.5648 0.6918 0.3666
N4P N 0.27458(16) 0.62579(25) 0.46466(13)
C10P C 0.24999(19) 0.58036(26) 0.45455(12)
C11P C 0.21163(19) 0.55069(28) 0.47490(16)
H9P H 0.1949 0.5197 0.4680
C12P C 0.19786(18) 0.56652(27) 0.50536(16)
H10P H 0.1717 0.5462 0.5192
C13P C 0.2225(2) 0.6119(3) 0.51547(14)
H11P H 0.2131 0.6227 0.5363
C14P C 0.2608(2) 0.6415(3) 0.49512(15)
H12P H 0.2776 0.6725 0.5020
N5P N 0.31301(13) 0.58325(20) 0.37431(10)
N6P N 0.30339(15) 0.60320(21) 0.40546(11)
C15P C 0.26496(16) 0.56856(23) 0.42441(11)
C16P C 0.25084(15) 0.52722(23) 0.40497(14)
H13P H 0.2259 0.4985 0.4115
C17P C 0.28053(17) 0.53629(23) 0.37401(12)
H14P H 0.2790 0.5147 0.3562
C18P C 0.3482(2) 0.6074(3) 0.34896(17)
H15P H 0.3388 0.5930 0.3238
H16P H 0.3532 0.6386 0.3468
C19P C 0.51142(9) 0.67322(15) 0.32987(9)
C20P C 0.50877(11) 0.69746(18) 0.29946(9)
H17P H 0.5354 0.7174 0.2857
C21P C 0.46725(13) 0.69260(18) 0.28909(8)
H18P H 0.4655 0.7092 0.2683
C22P C 0.42838(11) 0.66350(15) 0.30913(8)
H19P H 0.4000 0.6601 0.3020
C23P C 0.43103(9) 0.63926(13) 0.33954(7)
C24P C 0.47255(9) 0.64412(13) 0.34992(7)
C25P C 0.47519(12) 0.61987(16) 0.38033(9)
H20P H 0.5036 0.6232 0.3874
C26P C 0.43632(14) 0.59077(19) 0.40037(8)
H21P H 0.4382 0.5742 0.4211
C27P C 0.39480(12) 0.58591(18) 0.39000(9)
H22P H 0.3683 0.5660 0.4037
C28P C 0.39216(9) 0.61016(15) 0.35959(9)
N7P N 0.54380(16) 0.58891(24) 0.29234(12)
C29P C 0.49944(18) 0.57703(24) 0.28374(12)
C30P C 0.46402(14) 0.54581(22) 0.30603(15)
H23P H 0.4337 0.5376 0.3001
C31P C 0.47296(18) 0.52642(27) 0.33692(14)
H24P H 0.4488 0.5051 0.3521
C32P C 0.5174(2) 0.53839(27) 0.34552(12)
H25P H 0.5235 0.5251 0.3666
C33P C 0.55274(16) 0.56957(23) 0.32323(14)
H26P H 0.5831 0.5777 0.3291
N8P N 0.51876(15) 0.63852(22) 0.19797(11)
N9P N 0.53306(13) 0.62523(19) 0.23073(12)
C34P C 0.49391(17) 0.59563(24) 0.25187(11)
C35P C 0.45542(13) 0.59063(22) 0.23218(14)
H27P H 0.4248 0.5727 0.2399
C36P C 0.47077(15) 0.61713(21) 0.19887(12)
H28P H 0.4522 0.6200 0.1804
C37P C 0.5481(3) 0.6685(4) 0.17049(19)
H29P H 0.5756 0.6657 0.1693
H30P H 0.5329 0.6594 0.1456
N10P N 0.67572(17) 0.98202(29) 0.04676(14)
C38P C 0.7195(2) 0.9940(4) 0.05770(14)
C39P C 0.75639(16) 1.03019(31) 0.04031(18)
H31P H 0.7863 1.0384 0.0478
C40P C 0.74955(18) 1.05429(32) 0.01199(17)
H32P H 0.7748 1.0789 0.0001
C41P C 0.7058(2) 1.0422(4) 0.00105(16)
H33P H 0.7011 1.0586 -0.0183
C42P C 0.66888(17) 1.00609(31) 0.01843(16)
H34P H 0.6390 0.9978 0.0110
N11P N 0.69301(17) 0.91480(29) 0.13218(13)
N12P N 0.68176(15) 0.93485(28) 0.10211(14)
C43P C 0.7228(2) 0.96934(34) 0.08611(14)
C44P C 0.75934(14) 0.97069(28) 0.10629(17)
H35P H 0.7906 0.9905 0.1016
C45P C 0.74096(17) 0.93689(31) 0.13476(15)
H36P H 0.7578 0.9302 0.1524
C46P C 0.6607(3) 0.8819(5) 0.1554(2)
H37P H 0.6343 0.8865 0.1565
H38P H 0.6734 0.8865 0.1812
C47P C 0.56243(12) 0.71833(18) 0.17755(10)
C48P C 0.54540(12) 0.72841(19) 0.20938(9)
H39P H 0.5230 0.7046 0.2243
C49P C 0.56122(13) 0.77328(18) 0.21940(8)
H40P H 0.5496 0.7801 0.2411
C50P C 0.59407(13) 0.80807(18) 0.19759(9)
H41P H 0.6049 0.8387 0.2044
C51P C 0.61110(10) 0.79798(13) 0.16576(7)
C52P C 0.59528(10) 0.75311(13) 0.15574(7)
C53P C 0.61231(14) 0.74303(18) 0.12391(9)
H42P H 0.6015 0.7123 0.1170
C54P C 0.64516(14) 0.77781(20) 0.10210(9)
H43P H 0.6568 0.7709 0.0803
C55P C 0.66098(13) 0.82268(20) 0.11212(10)
H44P H 0.6835 0.8465 0.0972
C56P C 0.64395(12) 0.83276(18) 0.14395(10)
Co1Q Co 0.36271(4) 0.95670(3) 0.25664(2)
N1Q N 0.31175(23) 0.95314(18) 0.22077(12)
C1Q C 0.26766(24) 0.92203(17) 0.23139(11)
C2Q C 0.23143(25) 0.91669(18) 0.20960(15)
H1Q H 0.2013 0.8954 0.2168
C3Q C 0.23928(26) 0.9424(2) 0.17719(14)
H2Q H 0.2146 0.9388 0.1623
C4Q C 0.28338(26) 0.97355(19) 0.16657(12)
H3Q H 0.2888 0.9911 0.1444
C5Q C 0.31961(25) 0.97889(17) 0.18835(14)
H4Q H 0.3498 1.0001 0.1811
N2Q N 0.28988(23) 0.88280(17) 0.31704(11)
N3Q N 0.30304(22) 0.90772(15) 0.28284(12)
C6Q C 0.26319(25) 0.90063(19) 0.26413(11)
C7Q C 0.22540(26) 0.8713(2) 0.28677(15)
H5Q H 0.1945 0.8609 0.2810
C8Q C 0.24191(24) 0.86032(16) 0.31947(13)
H6Q H 0.2240 0.8412 0.3394
C9Q C 0.3198(4) 0.8775(3) 0.34055(19)
H7Q H 0.3495 0.9058 0.3401
H8Q H 0.3082 0.8729 0.3666
N4Q N 0.37421(25) 0.64878(19) 0.46466(13)
C10Q C 0.41964(26) 0.66962(18) 0.45455(12)
C11Q C 0.44931(28) 0.6609(2) 0.47490(16)
H9Q H 0.4803 0.6751 0.4680
C12Q C 0.43348(27) 0.6313(2) 0.50536(16)
H10Q H 0.4538 0.6254 0.5192
C13Q C 0.3881(3) 0.6105(2) 0.51547(14)
H11Q H 0.3773 0.5903 0.5363
C14Q C 0.3585(3) 0.6192(2) 0.49512(15)
H12Q H 0.3275 0.6050 0.5020
N5Q N 0.41675(20) 0.72975(15) 0.37431(10)
N6Q N 0.39680(21) 0.70018(15) 0.40546(11)
C15Q C 0.43144(23) 0.69639(16) 0.42441(11)
C16Q C 0.47278(23) 0.72361(18) 0.40497(14)
H13Q H 0.5015 0.7273 0.4115
C17Q C 0.46371(23) 0.74423(15) 0.37401(12)
H14Q H 0.4853 0.7642 0.3562
C18Q C 0.3926(3) 0.7407(2) 0.34896(17)
H15Q H 0.4070 0.7457 0.3238
H16Q H 0.3614 0.7145 0.3468
C19Q C 0.32678(15) 0.83819(12) 0.32987(9)
C20Q C 0.30254(18) 0.81130(14) 0.29946(9)
H17Q H 0.2826 0.8179 0.2857
C21Q C 0.30740(18) 0.77464(13) 0.28909(8)
H18Q H 0.2908 0.7562 0.2683
C22Q C 0.33650(15) 0.76487(10) 0.30913(8)
H19Q H 0.3399 0.7398 0.3020
C23Q C 0.36074(13) 0.79176(9) 0.33954(7)
C24Q C 0.35588(13) 0.82842(9) 0.34992(7)
C25Q C 0.38013(16) 0.85531(11) 0.38033(9)
H20Q H 0.3768 0.8803 0.3874
C26Q C 0.40923(19) 0.84554(13) 0.40037(8)
H21Q H 0.4258 0.8639 0.4211
C27Q C 0.41409(18) 0.80888(14) 0.39000(9)
H22Q H 0.4340 0.8022 0.4037
C28Q C 0.38984(15) 0.78199(12) 0.35959(9)
N7Q N 0.41109(24) 0.95488(18) 0.29234(12)
C29Q C 0.42297(24) 0.92240(16) 0.28374(12)
C30Q C 0.45419(22) 0.91820(17) 0.30603(15)
H23Q H 0.4624 0.8960 0.3001
C31Q C 0.47358(27) 0.9465(2) 0.33692(14)
H24Q H 0.4949 0.9436 0.3521
C32Q C 0.46161(27) 0.97897(18) 0.34552(12)
H25Q H 0.4749 0.9983 0.3666
C33Q C 0.43043(23) 0.98316(16) 0.32323(14)
H26Q H 0.4223 1.0053 0.3291
N8Q N 0.36148(22) 0.88023(16) 0.19797(11)
N9Q N 0.37477(19) 0.90782(14) 0.23073(12)
C34Q C 0.40437(24) 0.89827(17) 0.25187(11)
C35Q C 0.40937(22) 0.86478(18) 0.23218(14)
H27Q H 0.4273 0.8520 0.2399
C36Q C 0.38287(21) 0.85363(15) 0.19887(12)
H28Q H 0.3800 0.8321 0.1804
C37Q C 0.3315(4) 0.8795(3) 0.17049(19)
H29Q H 0.3343 0.9098 0.1693
H30Q H 0.3406 0.8734 0.1456
N10Q N 0.01798(29) 0.69369(24) 0.04676(14)
C38Q C 0.0060(4) 0.7254(3) 0.05770(14)
C39Q C -0.03019(31) 0.72619(26) 0.04031(18)
H31Q H -0.0384 0.7478 0.0478
C40Q C -0.05429(32) 0.69525(27) 0.01199(17)
H32Q H -0.0789 0.6958 0.0001
C41Q C -0.0422(4) 0.6635(3) 0.00105(16)
H33Q H -0.0586 0.6424 -0.0183
C42Q C -0.00609(31) 0.66278(26) 0.01843(16)
H34Q H 0.0022 0.6411 0.0110
N11Q N 0.08520(29) 0.77820(23) 0.13218(13)
N12Q N 0.06515(28) 0.74690(24) 0.10211(14)
C43Q C 0.03066(34) 0.75342(28) 0.08611(14)
C44Q C 0.02931(28) 0.78864(24) 0.10629(17)
H35Q H 0.0095 0.8000 0.1016
C45Q C 0.06311(31) 0.80406(26) 0.13476(15)
H36Q H 0.0698 0.8275 0.1524
C46Q C 0.1181(5) 0.7787(4) 0.1554(2)
H37Q H 0.1135 0.7477 0.1565
H38Q H 0.1135 0.7868 0.1812
C47Q C 0.28167(18) 0.84409(13) 0.17755(10)
C48Q C 0.27159(19) 0.81698(15) 0.20938(9)
H39Q H 0.2954 0.8183 0.2243
C49Q C 0.22672(18) 0.78793(13) 0.21940(8)
H40Q H 0.2199 0.7694 0.2411
C50Q C 0.19193(18) 0.78599(12) 0.19759(9)
H41Q H 0.1613 0.7661 0.2044
C51Q C 0.20202(13) 0.81311(9) 0.16576(7)
C52Q C 0.24689(13) 0.84216(9) 0.15574(7)
C53Q C 0.25697(18) 0.86927(12) 0.12391(9)
H42Q H 0.2877 0.8891 0.1170
C54Q C 0.22219(20) 0.86734(14) 0.10210(9)
H43Q H 0.2291 0.8858 0.0803
C55Q C 0.17732(20) 0.83829(15) 0.11212(10)
H44Q H 0.1535 0.8369 0.0972
C56Q C 0.16724(18) 0.81118(14) 0.14395(10)
B1 B 0.5634(5) 0.4888(4) 0.0928(3)
F1 F 0.54854(19) 0.46203(19) 0.06168(15)
F2 F 0.6090(2) 0.5112(2) 0.09549(15)
F3 F 0.5463(2) 0.4638(2) 0.12459(16)
F4 F 0.5466(2) 0.5172(2) 0.09062(16)
B2 B 0.1636(5) 0.5002(6) 0.0518(4)
F5 F 0.1485(2) 0.5245(2) 0.03339(15)
F6 F 0.2094(2) 0.5182(2) 0.04512(18)
F7 F 0.1563(2) 0.4974(3) 0.08703(17)
F8 F 0.1408(3) 0.4543(3) 0.0372(2)
N13 N 0.6158(4) 0.0154(4) 0.9244(3)
O1 O 0.6134(3) -0.0186(3) 0.9392(2)
O2 O 0.6249(3) 0.0260(3) 0.8915(2)
C57 C 0.6022(5) 0.0429(4) 0.9464(3)
H45 H 0.5841 0.0514 0.9306
H46 H 0.6292 0.0702 0.9553
H47 H 0.5841 0.0253 0.9680
loop_
_geom_bond_atom_site_label_1
_geom_bond_atom_site_label_2
_geom_bond_site_symmetry_1
_geom_bond_site_symmetry_2
Co1 N1 1_555 1_555
N1 C1 1_555 1_555
C1 C2 1_555 1_555
C2 H1 1_555 1_555
C3 C2 1_555 1_555
H2 C3 1_555 1_555
C4 C3 1_555 1_555
H3 C4 1_555 1_555
C5 N1 1_555 1_555
H4 C5 1_555 1_555
N2 N3 1_555 1_555
N3 Co1 1_555 1_555
C6 C1 1_555 1_555
C7 C6 1_555 1_555
H5 C7 1_555 1_555
C8 N2 1_555 1_555
H6 C8 1_555 1_555
C9 N2 1_555 1_555
H7 C9 1_555 1_555
H8 C9 1_555 1_555
N4 C10 1_555 1_555
C10 C11 1_555 1_555
C11 H9 1_555 1_555
C12 C11 1_555 1_555
H10 C12 1_555 1_555
C13 C12 1_555 1_555
H11 C13 1_555 1_555
C14 N4 1_555 1_555
H12 C14 1_555 1_555
N5 N6 1_555 1_555
N6 C15 1_555 1_555
C15 C10 1_555 1_555
C16 C15 1_555 1_555
H13 C16 1_555 1_555
C17 N5 1_555 1_555
H14 C17 1_555 1_555
C18 N5 1_555 1_555
H15 C18 1_555 1_555
H16 C18 1_555 1_555
C19 C9 1_555 1_555
C20 C19 1_555 1_555
H17 C20 1_555 1_555
C21 C20 1_555 1_555
H18 C21 1_555 1_555
C22 C21 1_555 1_555
H19 C22 1_555 1_555
C23 C22 1_555 1_555
C24 C19 1_555 1_555
C25 C24 1_555 1_555
H20 C25 1_555 1_555
C26 C25 1_555 1_555
H21 C26 1_555 1_555
C27 C26 1_555 1_555
H22 C27 1_555 1_555
C28 C18 1_555 1_555
N7 Co1 1_555 1_555
C29 N7 1_555 1_555
C30 C29 1_555 1_555
H23 C30 1_555 1_555
C31 C30 1_555 1_555
H24 C31 1_555 1_555
C32 C31 1_555 1_555
H25 C32 1_555 1_555
C33 N7 1_555 1_555
H26 C33 1_555 1_555
N8 N9 1_555 1_555
N9 Co1 1_555 1_555
C34 C29 1_555 1_555
C35 C34 1_555 1_555
H27 C35 1_555 1_555
C36 N8 1_555 1_555
H28 C36 1_555 1_555
C37 N8 1_555 1_555
H29 C37 1_555 1_555
H30 C37 1_555 1_555
N10 C38 1_555 1_555
C38 C39 1_555 1_555
C39 H31 1_555 1_555
C40 C39 1_555 1_555
H32 C40 1_555 1_555
C41 C40 1_555 1_555
H33 C41 1_555 1_555
C42 N10 1_555 1_555
H34 C42 1_555 1_555
N11 N12 1_555 1_555
N12 C43 1_555 1_555
C43 C38 1_555 1_555
C44 C43 1_555 1_555
H35 C44 1_555 1_555
C45 N11 1_555 1_555
H36 C45 1_555 1_555
C46 N11 1_555 1_555
H37 C46 1_555 1_555
H38 C46 1_555 1_555
C47 C37 1_555 1_555
C48 C47 1_555 1_555
H39 C48 1_555 1_555
C49 C48 1_555 1_555
H40 C49 1_555 1_555
C50 C49 1_555 1_555
H41 C50 1_555 1_555
C51 C50 1_555 1_555
C52 C47 1_555 1_555
C53 C52 1_555 1_555
H42 C53 1_555 1_555
C54 C53 1_555 1_555
H43 C54 1_555 1_555
C55 C54 1_555 1_555
H44 C55 1_555 1_555
C56 C46 1_555 1_555
Ru1 N4 1_555 1_555
B1 F1 1_555 1_555
F2 B1 1_555 1_555
F3 B1 1_555 1_555
F4 B1 1_555 1_555
B2 F5 1_555 1_555
F6 B2 1_555 1_555
F7 B2 1_555 1_555
F8 B2 1_555 1_555
N13 O1 1_555 1_555
O2 N13 1_555 1_555
C57 N13 1_555 1_555
H45 C57 1_555 1_555
H46 C57 1_555 1_555
H47 C57 1_555 1_555
Co1A N1A 1_555 1_555
N1A C1A 1_555 1_555
C1A C2A 1_555 1_555
C2A H1A 1_555 1_555
C3A C2A 1_555 1_555
H2A C3A 1_555 1_555
C4A C3A 1_555 1_555
H3A C4A 1_555 1_555
C5A N1A 1_555 1_555
H4A C5A 1_555 1_555
N2A N3A 1_555 1_555
N3A Co1A 1_555 1_555
C6A C1A 1_555 1_555
C7A C6A 1_555 1_555
H5A C7A 1_555 1_555
C8A N2A 1_555 1_555
H6A C8A 1_555 1_555
C9A N2A 1_555 1_555
H7A C9A 1_555 1_555
H8A C9A 1_555 1_555
N4A Ru1 1_555 1_555
C10A N4A 1_555 1_555
C11A C10A 1_555 1_555
H9A C11A 1_555 1_555
C12A C11A 1_555 1_555
H10A C12A 1_555 1_555
C13A C12A 1_555 1_555
H11A C13A 1_555 1_555
C14A N4A 1_555 1_555
H12A C14A 1_555 1_555
N5A N6A 1_555 1_555
N6A Ru1 1_555 1_555
C15A C10A 1_555 1_555
C16A C15A 1_555 1_555
H13A C16A 1_555 1_555
C17A N5A 1_555 1_555
H14A C17A 1_555 1_555
C18A N5A 1_555 1_555
H15A C18A 1_555 1_555
H16A C18A 1_555 1_555
C19A C9A 1_555 1_555
C20A C19A 1_555 1_555
H17A C20A 1_555 1_555
C21A C20A 1_555 1_555
H18A C21A 1_555 1_555
C22A C21A 1_555 1_555
H19A C22A 1_555 1_555
C23A C22A 1_555 1_555
C24A C19A 1_555 1_555
C25A C24A 1_555 1_555
H20A C25A 1_555 1_555
C26A C25A 1_555 1_555
H21A C26A 1_555 1_555
C27A C26A 1_555 1_555
H22A C27A 1_555 1_555
C28A C18A 1_555 1_555
N7A Co1A 1_555 1_555
C29A N7A 1_555 1_555
C30A C29A 1_555 1_555
H23A C30A 1_555 1_555
C31A C30A 1_555 1_555
H24A C31A 1_555 1_555
C32A C31A 1_555 1_555
H25A C32A 1_555 1_555
C33A N7A 1_555 1_555
H26A C33A 1_555 1_555
N8A N9A 1_555 1_555
N9A Co1A 1_555 1_555
C34A C29A 1_555 1_555
C35A C34A 1_555 1_555
H27A C35A 1_555 1_555
C36A N8A 1_555 1_555
H28A C36A 1_555 1_555
C37A N8A 1_555 1_555
H29A C37A 1_555 1_555
H30A C37A 1_555 1_555
N10A C38A 1_555 1_555
C38A C39A 1_555 1_555
C39A H31A 1_555 1_555
C40A C39A 1_555 1_555
H32A C40A 1_555 1_555
C41A C40A 1_555 1_555
H33A C41A 1_555 1_555
C42A N10A 1_555 1_555
H34A C42A 1_555 1_555
N11A N12A 1_555 1_555
N12A C43A 1_555 1_555
C43A C38A 1_555 1_555
C44A C43A 1_555 1_555
H35A C44A 1_555 1_555
C45A N11A 1_555 1_555
H36A C45A 1_555 1_555
C46A N11A 1_555 1_555
H37A C46A 1_555 1_555
H38A C46A 1_555 1_555
C47A C37A 1_555 1_555
C48A C47A 1_555 1_555
H39A C48A 1_555 1_555
C49A C48A 1_555 1_555
H40A C49A 1_555 1_555
C50A C49A 1_555 1_555
H41A C50A 1_555 1_555
C51A C50A 1_555 1_555
C52A C47A 1_555 1_555
C53A C52A 1_555 1_555
H42A C53A 1_555 1_555
C54A C53A 1_555 1_555
H43A C54A 1_555 1_555
C55A C54A 1_555 1_555
H44A C55A 1_555 1_555
C56A C46A 1_555 1_555
Co1B N1B 1_555 1_555
N1B C1B 1_555 1_555
C1B C2B 1_555 1_555
C2B H1B 1_555 1_555
C3B C2B 1_555 1_555
H2B C3B 1_555 1_555
C4B C3B 1_555 1_555
H3B C4B 1_555 1_555
C5B N1B 1_555 1_555
H4B C5B 1_555 1_555
N2B N3B 1_555 1_555
N3B Co1B 1_555 1_555
C6B C1B 1_555 1_555
C7B C6B 1_555 1_555
H5B C7B 1_555 1_555
C8B N2B 1_555 1_555
H6B C8B 1_555 1_555
C9B N2B 1_555 1_555
H7B C9B 1_555 1_555
H8B C9B 1_555 1_555
N4B Ru1 1_555 1_555
C10B N4B 1_555 1_555
C11B C10B 1_555 1_555
H9B C11B 1_555 1_555
C12B C11B 1_555 1_555
H10B C12B 1_555 1_555
C13B C12B 1_555 1_555
H11B C13B 1_555 1_555
C14B N4B 1_555 1_555
H12B C14B 1_555 1_555
N5B N6B 1_555 1_555
N6B Ru1 1_555 1_555
C15B C10B 1_555 1_555
C16B C15B 1_555 1_555
H13B C16B 1_555 1_555
C17B N5B 1_555 1_555
H14B C17B 1_555 1_555
C18B N5B 1_555 1_555
H15B C18B 1_555 1_555
H16B C18B 1_555 1_555
C19B C9B 1_555 1_555
C20B C19B 1_555 1_555
H17B C20B 1_555 1_555
C21B C20B 1_555 1_555
H18B C21B 1_555 1_555
C22B C21B 1_555 1_555
H19B C22B 1_555 1_555
C23B C22B 1_555 1_555
C24B C19B 1_555 1_555
C25B C24B 1_555 1_555
H20B C25B 1_555 1_555
C26B C25B 1_555 1_555
H21B C26B 1_555 1_555
C27B C26B 1_555 1_555
H22B C27B 1_555 1_555
C28B C18B 1_555 1_555
N7B Co1B 1_555 1_555
C29B N7B 1_555 1_555
C30B C29B 1_555 1_555
H23B C30B 1_555 1_555
C31B C30B 1_555 1_555
H24B C31B 1_555 1_555
C32B C31B 1_555 1_555
H25B C32B 1_555 1_555
C33B N7B 1_555 1_555
H26B C33B 1_555 1_555
N8B N9B 1_555 1_555
N9B Co1B 1_555 1_555
C34B C29B 1_555 1_555
C35B C34B 1_555 1_555
H27B C35B 1_555 1_555
C36B N8B 1_555 1_555
H28B C36B 1_555 1_555
C37B N8B 1_555 1_555
H29B C37B 1_555 1_555
H30B C37B 1_555 1_555
N10B C38B 1_555 1_555
C38B C39B 1_555 1_555
C39B H31B 1_555 1_555
C40B C39B 1_555 1_555
H32B C40B 1_555 1_555
C41B C40B 1_555 1_555
H33B C41B 1_555 1_555
C42B N10B 1_555 1_555
H34B C42B 1_555 1_555
N11B N12B 1_555 1_555
N12B C43B 1_555 1_555
C43B C38B 1_555 1_555
C44B C43B 1_555 1_555
H35B C44B 1_555 1_555
C45B N11B 1_555 1_555
H36B C45B 1_555 1_555
C46B N11B 1_555 1_555
H37B C46B 1_555 1_555
H38B C46B 1_555 1_555
C47B C37B 1_555 1_555
C48B C47B 1_555 1_555
H39B C48B 1_555 1_555
C49B C48B 1_555 1_555
H40B C49B 1_555 1_555
C50B C49B 1_555 1_555
H41B C50B 1_555 1_555
C51B C50B 1_555 1_555
C52B C47B 1_555 1_555
C53B C52B 1_555 1_555
H42B C53B 1_555 1_555
C54B C53B 1_555 1_555
H43B C54B 1_555 1_555
C55B C54B 1_555 1_555
H44B C55B 1_555 1_555
C56B C46B 1_555 1_555
Co1O N10A 1_555 1_555
N1O Co1O 1_555 1_555
C1O N1O 1_555 1_555
C2O C1O 1_555 1_555
H1O C2O 1_555 1_555
C3O C2O 1_555 1_555
H2O C3O 1_555 1_555
C4O C3O 1_555 1_555
H3O C4O 1_555 1_555
C5O N1O 1_555 1_555
H4O C5O 1_555 1_555
N2O N3O 1_555 1_555
N3O Co1O 1_555 1_555
C6O C1O 1_555 1_555
C7O C6O 1_555 1_555
H5O C7O 1_555 1_555
C8O N2O 1_555 1_555
H6O C8O 1_555 1_555
C9O N2O 1_555 1_555
H7O C9O 1_555 1_555
H8O C9O 1_555 1_555
N4O C10O 1_555 1_555
C10O C11O 1_555 1_555
C11O H9O 1_555 1_555
C12O C11O 1_555 1_555
H10O C12O 1_555 1_555
C13O C12O 1_555 1_555
H11O C13O 1_555 1_555
C14O N4O 1_555 1_555
H12O C14O 1_555 1_555
N5O N6O 1_555 1_555
N6O C15O 1_555 1_555
C15O C10O 1_555 1_555
C16O C15O 1_555 1_555
H13O C16O 1_555 1_555
C17O N5O 1_555 1_555
H14O C17O 1_555 1_555
C18O N5O 1_555 1_555
H15O C18O 1_555 1_555
H16O C18O 1_555 1_555
C19O C9O 1_555 1_555
C20O C19O 1_555 1_555
H17O C20O 1_555 1_555
C21O C20O 1_555 1_555
H18O C21O 1_555 1_555
C22O C21O 1_555 1_555
H19O C22O 1_555 1_555
C23O C22O 1_555 1_555
C24O C19O 1_555 1_555
C25O C24O 1_555 1_555
H20O C25O 1_555 1_555
C26O C25O 1_555 1_555
H21O C26O 1_555 1_555
C27O C26O 1_555 1_555
H22O C27O 1_555 1_555
C28O C18O 1_555 1_555
N7O Co1O 1_555 1_555
C29O N7O 1_555 1_555
C30O C29O 1_555 1_555
H23O C30O 1_555 1_555
C31O C30O 1_555 1_555
H24O C31O 1_555 1_555
C32O C31O 1_555 1_555
H25O C32O 1_555 1_555
C33O N7O 1_555 1_555
H26O C33O 1_555 1_555
N8O N9O 1_555 1_555
N9O Co1O 1_555 1_555
C34O C29O 1_555 1_555
C35O C34O 1_555 1_555
H27O C35O 1_555 1_555
C36O N8O 1_555 1_555
H28O C36O 1_555 1_555
C37O N8O 1_555 1_555
H29O C37O 1_555 1_555
H30O C37O 1_555 1_555
N10O Co1B 1_555 1_555
C38O N10O 1_555 1_555
C39O C38O 1_555 1_555
H31O C39O 1_555 1_555
C40O C39O 1_555 1_555
H32O C40O 1_555 1_555
C41O C40O 1_555 1_555
H33O C41O 1_555 1_555
C42O N10O 1_555 1_555
H34O C42O 1_555 1_555
N11O N12O 1_555 1_555
N12O Co1B 1_555 1_555
C43O C38O 1_555 1_555
C44O C43O 1_555 1_555
H35O C44O 1_555 1_555
C45O N11O 1_555 1_555
H36O C45O 1_555 1_555
C46O N11O 1_555 1_555
H37O C46O 1_555 1_555
H38O C46O 1_555 1_555
C47O C37O 1_555 1_555
C48O C47O 1_555 1_555
H39O C48O 1_555 1_555
C49O C48O 1_555 1_555
H40O C49O 1_555 1_555
C50O C49O 1_555 1_555
H41O C50O 1_555 1_555
C51O C50O 1_555 1_555
C52O C47O 1_555 1_555
C53O C52O 1_555 1_555
H42O C53O 1_555 1_555
C54O C53O 1_555 1_555
H43O C54O 1_555 1_555
C55O C54O 1_555 1_555
H44O C55O 1_555 1_555
C56O C46O 1_555 1_555
Ru1O N4O 1_555 1_555
Co1P N10B 1_555 1_555
N1P Co1P 1_555 1_555
C1P N1P 1_555 1_555
C2P C1P 1_555 1_555
H1P C2P 1_555 1_555
C3P C2P 1_555 1_555
H2P C3P 1_555 1_555
C4P C3P 1_555 1_555
H3P C4P 1_555 1_555
C5P N1P 1_555 1_555
H4P C5P 1_555 1_555
N2P N3P 1_555 1_555
N3P Co1P 1_555 1_555
C6P C1P 1_555 1_555
C7P C6P 1_555 1_555
H5P C7P 1_555 1_555
C8P N2P 1_555 1_555
H6P C8P 1_555 1_555
C9P N2P 1_555 1_555
H7P C9P 1_555 1_555
H8P C9P 1_555 1_555
N4P Ru1O 1_555 1_555
C10P N4P 1_555 1_555
C11P C10P 1_555 1_555
H9P C11P 1_555 1_555
C12P C11P 1_555 1_555
H10P C12P 1_555 1_555
C13P C12P 1_555 1_555
H11P C13P 1_555 1_555
C14P N4P 1_555 1_555
H12P C14P 1_555 1_555
N5P N6P 1_555 1_555
N6P Ru1O 1_555 1_555
C15P C10P 1_555 1_555
C16P C15P 1_555 1_555
H13P C16P 1_555 1_555
C17P N5P 1_555 1_555
H14P C17P 1_555 1_555
C18P N5P 1_555 1_555
H15P C18P 1_555 1_555
H16P C18P 1_555 1_555
C19P C9P 1_555 1_555
C20P C19P 1_555 1_555
H17P C20P 1_555 1_555
C21P C20P 1_555 1_555
H18P C21P 1_555 1_555
C22P C21P 1_555 1_555
H19P C22P 1_555 1_555
C23P C22P 1_555 1_555
C24P C19P 1_555 1_555
C25P C24P 1_555 1_555
H20P C25P 1_555 1_555
C26P C25P 1_555 1_555
H21P C26P 1_555 1_555
C27P C26P 1_555 1_555
H22P C27P 1_555 1_555
C28P C18P 1_555 1_555
N7P Co1P 1_555 1_555
C29P N7P 1_555 1_555
C30P C29P 1_555 1_555
H23P C30P 1_555 1_555
C31P C30P 1_555 1_555
H24P C31P 1_555 1_555
C32P C31P 1_555 1_555
H25P C32P 1_555 1_555
C33P N7P 1_555 1_555
H26P C33P 1_555 1_555
N8P N9P 1_555 1_555
N9P Co1P 1_555 1_555
C34P C29P 1_555 1_555
C35P C34P 1_555 1_555
H27P C35P 1_555 1_555
C36P N8P 1_555 1_555
H28P C36P 1_555 1_555
C37P N8P 1_555 1_555
H29P C37P 1_555 1_555
H30P C37P 1_555 1_555
N10P Co1 1_555 1_555
C38P N10P 1_555 1_555
C39P C38P 1_555 1_555
H31P C39P 1_555 1_555
C40P C39P 1_555 1_555
H32P C40P 1_555 1_555
C41P C40P 1_555 1_555
H33P C41P 1_555 1_555
C42P N10P 1_555 1_555
H34P C42P 1_555 1_555
N11P N12P 1_555 1_555
N12P Co1 1_555 1_555
C43P C38P 1_555 1_555
C44P C43P 1_555 1_555
H35P C44P 1_555 1_555
C45P N11P 1_555 1_555
H36P C45P 1_555 1_555
C46P N11P 1_555 1_555
H37P C46P 1_555 1_555
H38P C46P 1_555 1_555
C47P C37P 1_555 1_555
C48P C47P 1_555 1_555
H39P C48P 1_555 1_555
C49P C48P 1_555 1_555
H40P C49P 1_555 1_555
C50P C49P 1_555 1_555
H41P C50P 1_555 1_555
C51P C50P 1_555 1_555
C52P C47P 1_555 1_555
C53P C52P 1_555 1_555
H42P C53P 1_555 1_555
C54P C53P 1_555 1_555
H43P C54P 1_555 1_555
C55P C54P 1_555 1_555
H44P C55P 1_555 1_555
C56P C46P 1_555 1_555
Co1Q N10 1_555 1_555
N1Q Co1Q 1_555 1_555
C1Q N1Q 1_555 1_555
C2Q C1Q 1_555 1_555
H1Q C2Q 1_555 1_555
C3Q C2Q 1_555 1_555
H2Q C3Q 1_555 1_555
C4Q C3Q 1_555 1_555
H3Q C4Q 1_555 1_555
C5Q N1Q 1_555 1_555
H4Q C5Q 1_555 1_555
N2Q N3Q 1_555 1_555
N3Q Co1Q 1_555 1_555
C6Q C1Q 1_555 1_555
C7Q C6Q 1_555 1_555
H5Q C7Q 1_555 1_555
C8Q N2Q 1_555 1_555
H6Q C8Q 1_555 1_555
C9Q N2Q 1_555 1_555
H7Q C9Q 1_555 1_555
H8Q C9Q 1_555 1_555
N4Q Ru1O 1_555 1_555
C10Q N4Q 1_555 1_555
C11Q C10Q 1_555 1_555
H9Q C11Q 1_555 1_555
C12Q C11Q 1_555 1_555
H10Q C12Q 1_555 1_555
C13Q C12Q 1_555 1_555
H11Q C13Q 1_555 1_555
C14Q N4Q 1_555 1_555
H12Q C14Q 1_555 1_555
N5Q N6Q 1_555 1_555
N6Q Ru1O 1_555 1_555
C15Q C10Q 1_555 1_555
C16Q C15Q 1_555 1_555
H13Q C16Q 1_555 1_555
C17Q N5Q 1_555 1_555
H14Q C17Q 1_555 1_555
C18Q N5Q 1_555 1_555
H15Q C18Q 1_555 1_555
H16Q C18Q 1_555 1_555
C19Q C9Q 1_555 1_555
C20Q C19Q 1_555 1_555
H17Q C20Q 1_555 1_555
C21Q C20Q 1_555 1_555
H18Q C21Q 1_555 1_555
C22Q C21Q 1_555 1_555
H19Q C22Q 1_555 1_555
C23Q C22Q 1_555 1_555
C24Q C19Q 1_555 1_555
C25Q C24Q 1_555 1_555
H20Q C25Q 1_555 1_555
C26Q C25Q 1_555 1_555
H21Q C26Q 1_555 1_555
C27Q C26Q 1_555 1_555
H22Q C27Q 1_555 1_555
C28Q C18Q 1_555 1_555
N7Q Co1Q 1_555 1_555
C29Q N7Q 1_555 1_555
C30Q C29Q 1_555 1_555
H23Q C30Q 1_555 1_555
C31Q C30Q 1_555 1_555
H24Q C31Q 1_555 1_555
C32Q C31Q 1_555 1_555
H25Q C32Q 1_555 1_555
C33Q N7Q 1_555 1_555
H26Q C33Q 1_555 1_555
N8Q N9Q 1_555 1_555
N9Q Co1Q 1_555 1_555
C34Q C29Q 1_555 1_555
C35Q C34Q 1_555 1_555
H27Q C35Q 1_555 1_555
C36Q N8Q 1_555 1_555
H28Q C36Q 1_555 1_555
C37Q N8Q 1_555 1_555
H29Q C37Q 1_555 1_555
H30Q C37Q 1_555 1_555
N10Q Co1A 1_555 1_555
C38Q N10Q 1_555 1_555
C39Q C38Q 1_555 1_555
H31Q C39Q 1_555 1_555
C40Q C39Q 1_555 1_555
H32Q C40Q 1_555 1_555
C41Q C40Q 1_555 1_555
H33Q C41Q 1_555 1_555
C42Q N10Q 1_555 1_555
H34Q C42Q 1_555 1_555
N11Q N12Q 1_555 1_555
N12Q Co1A 1_555 1_555
C43Q C38Q 1_555 1_555
C44Q C43Q 1_555 1_555
H35Q C44Q 1_555 1_555
C45Q N11Q 1_555 1_555
H36Q C45Q 1_555 1_555
C46Q N11Q 1_555 1_555
H37Q C46Q 1_555 1_555
H38Q C46Q 1_555 1_555
C47Q C37Q 1_555 1_555
C48Q C47Q 1_555 1_555
H39Q C48Q 1_555 1_555
C49Q C48Q 1_555 1_555
H40Q C49Q 1_555 1_555
C50Q C49Q 1_555 1_555
H41Q C50Q 1_555 1_555
C51Q C50Q 1_555 1_555
C52Q C47Q 1_555 1_555
C53Q C52Q 1_555 1_555
H42Q C53Q 1_555 1_555
C54Q C53Q 1_555 1_555
H43Q C54Q 1_555 1_555
C55Q C54Q 1_555 1_555
H44Q C55Q 1_555 1_555
C56Q C46Q 1_555 1_555
C4 C5 1_555 1_555
N3 C6 1_555 1_555
C7 C8 1_555 1_555
C13 C14 1_555 1_555
N6 Ru1 1_555 1_555
C16 C17 1_555 1_555
C23 C24 1_555 1_555
C23 C28 1_555 1_555
C27 C28 1_555 1_555
C32 C33 1_555 1_555
N9 C34 1_555 1_555
C35 C36 1_555 1_555
C41 C42 1_555 1_555
N12 Co1Q 1_555 1_555
C44 C45 1_555 1_555
C51 C52 1_555 1_555
C51 C56 1_555 1_555
C55 C56 1_555 1_555
C4A C5A 1_555 1_555
N3A C6A 1_555 1_555
C7A C8A 1_555 1_555
C13A C14A 1_555 1_555
N6A C15A 1_555 1_555
C16A C17A 1_555 1_555
C23A C24A 1_555 1_555
C23A C28A 1_555 1_555
C27A C28A 1_555 1_555
C32A C33A 1_555 1_555
N9A C34A 1_555 1_555
C35A C36A 1_555 1_555
C41A C42A 1_555 1_555
N12A Co1O 1_555 1_555
C44A C45A 1_555 1_555
C51A C52A 1_555 1_555
C51A C56A 1_555 1_555
C55A C56A 1_555 1_555
C4B C5B 1_555 1_555
N3B C6B 1_555 1_555
C7B C8B 1_555 1_555
C13B C14B 1_555 1_555
N6B C15B 1_555 1_555
C16B C17B 1_555 1_555
C23B C24B 1_555 1_555
C23B C28B 1_555 1_555
C27B C28B 1_555 1_555
C32B C33B 1_555 1_555
N9B C34B 1_555 1_555
C35B C36B 1_555 1_555
C41B C42B 1_555 1_555
N12B Co1P 1_555 1_555
C44B C45B 1_555 1_555
C51B C52B 1_555 1_555
C51B C56B 1_555 1_555
C55B C56B 1_555 1_555
C4O C5O 1_555 1_555
N3O C6O 1_555 1_555
C7O C8O 1_555 1_555
C13O C14O 1_555 1_555
N6O Ru1O 1_555 1_555
C16O C17O 1_555 1_555
C23O C24O 1_555 1_555
C23O C28O 1_555 1_555
C27O C28O 1_555 1_555
C32O C33O 1_555 1_555
N9O C34O 1_555 1_555
C35O C36O 1_555 1_555
C41O C42O 1_555 1_555
N12O C43O 1_555 1_555
C44O C45O 1_555 1_555
C51O C52O 1_555 1_555
C51O C56O 1_555 1_555
C55O C56O 1_555 1_555
C4P C5P 1_555 1_555
N3P C6P 1_555 1_555
C7P C8P 1_555 1_555
C13P C14P 1_555 1_555
N6P C15P 1_555 1_555
C16P C17P 1_555 1_555
C23P C24P 1_555 1_555
C23P C28P 1_555 1_555
C27P C28P 1_555 1_555
C32P C33P 1_555 1_555
N9P C34P 1_555 1_555
C35P C36P 1_555 1_555
C41P C42P 1_555 1_555
N12P C43P 1_555 1_555
C44P C45P 1_555 1_555
C51P C52P 1_555 1_555
C51P C56P 1_555 1_555
C55P C56P 1_555 1_555
C4Q C5Q 1_555 1_555
N3Q C6Q 1_555 1_555
C7Q C8Q 1_555 1_555
C13Q C14Q 1_555 1_555
N6Q C15Q 1_555 1_555
C16Q C17Q 1_555 1_555
C23Q C24Q 1_555 1_555
C23Q C28Q 1_555 1_555
C27Q C28Q 1_555 1_555
C32Q C33Q 1_555 1_555
N9Q C34Q 1_555 1_555
C35Q C36Q 1_555 1_555
C41Q C42Q 1_555 1_555
N12Q C43Q 1_555 1_555
C44Q C45Q 1_555 1_555
C51Q C52Q 1_555 1_555
C51Q C56Q 1_555 1_555
C55Q C56Q 1_555 1_555

#END
