
#######################################################################
#
#                 Cambridge Crystallographic Data Centre
#                                CCDC 
#
#######################################################################
#
# If this CIF has been generated from an entry in the Cambridge 
# Structural Database, then it will include bibliographic, chemical, 
# crystal, experimental, refinement or atomic coordinate data resulting 
# from the CCDC's data processing and validation procedures.
#
#######################################################################

data_NUQQAT
_chemical_formula_moiety         'C336 H264 Cd4 N72 Os4 16+,H2 O1,16(Cl1 O4 1-)'
_chemical_name_systematic        
"dodecakis(\m~2~-2,2'-(naphthalene-1,5-diylbis(methylene-1H-pyrazole-1,3-diyl))dipyridine)-tetra-cadmium-tetra-osmium hexadecaperchlorate unknown solvate monohydrate"
_symmetry_cell_setting           rhombohedral
_symmetry_space_group_name_H-M   'R -3'
_symmetry_Int_Tables_number      148
_space_group_name_Hall           '-R 3'
loop_
_symmetry_equiv_pos_site_id
_symmetry_equiv_pos_as_xyz
1 x,y,z
2 -y,x-y,z
3 -x+y,-x,z
4 2/3+x,1/3+y,1/3+z
5 2/3-y,1/3+x-y,1/3+z
6 2/3-x+y,1/3-x,1/3+z
7 1/3+x,2/3+y,2/3+z
8 1/3-y,2/3+x-y,2/3+z
9 1/3-x+y,2/3-x,2/3+z
10 -x,-y,-z
11 y,-x+y,-z
12 x-y,x,-z
13 1/3-x,2/3-y,2/3-z
14 1/3+y,2/3-x+y,2/3-z
15 1/3+x-y,2/3+x,2/3-z
16 2/3-x,1/3-y,1/3-z
17 2/3+y,1/3-x+y,1/3-z
18 2/3+x-y,1/3+x,1/3-z
_cell_length_a                   28.987(8)
_cell_length_b                   28.987(8)
_cell_length_c                   54.10(2)
_cell_angle_alpha                90
_cell_angle_beta                 90
_cell_angle_gamma                120
_cell_volume                     39367.2
_exptl_crystal_colour            brown
_exptl_crystal_description       Prism
_cell_formula_units_Z            3
loop_
_atom_site_label
_atom_site_type_symbol
_atom_site_fract_x
_atom_site_fract_y
_atom_site_fract_z
N1 N 0.5842(2) 1.0683(2) 0.12955(11)
C1 C 0.5386(2) 1.0686(2) 0.12187(10)
C2 C 0.5194(2) 1.0961(3) 0.13551(13)
H1 H 0.4882 1.0963 0.1303
C3 C 0.5458(3) 1.1233(3) 0.15682(12)
H2 H 0.5327 1.1421 0.1661
C4 C 0.5914(3) 1.1230(3) 0.16449(10)
H3 H 0.6094 1.1415 0.1791
C5 C 0.6106(2) 1.0955(3) 0.15086(12)
H4 H 0.6418 1.0953 0.1561
N2 N 0.5127(3) 0.9925(3) 0.06591(10)
N3 N 0.5402(2) 1.0140(3) 0.08847(11)
C6 C 0.5174(3) 1.0419(3) 0.10002(10)
C7 C 0.4758(3) 1.0376(3) 0.08459(14)
H5 H 0.4537 1.0525 0.0878
C8 C 0.4729(3) 1.0071(3) 0.06351(12)
H6 H 0.4486 0.9980 0.0501
C9 C 0.5202(4) 0.9556(5) 0.05161(19)
H7 H 0.5585 0.9665 0.0523
H8 H 0.5117 0.9588 0.0342
N4 N 0.3365(3) 0.6035(3) -0.03003(12)
C10 C 0.3744(3) 0.5899(3) -0.02315(12)
C11 C 0.3777(3) 0.5498(4) -0.03572(16)
H9 H 0.4035 0.5405 -0.0310
C12 C 0.3431(4) 0.5233(3) -0.05517(17)
H10 H 0.3453 0.4959 -0.0638
C13 C 0.3052(4) 0.5369(4) -0.06205(14)
H11 H 0.2816 0.5188 -0.0753
C14 C 0.3019(3) 0.5770(3) -0.04948(13)
H12 H 0.2760 0.5863 -0.0542
N5 N 0.4279(2) 0.6717(2) 0.03025(11)
N6 N 0.3920(2) 0.6508(2) 0.01003(11)
C15 C 0.4036(2) 0.6154(3) -0.00320(11)
C16 C 0.4467(3) 0.6145(3) 0.00884(14)
H13 H 0.4626 0.5943 0.0039
C17 C 0.4617(2) 0.6493(3) 0.02951(13)
H14 H 0.4895 0.6563 0.0409
C18 C 0.4289(4) 0.7102(5) 0.0470(2)
H15 H 0.4401 0.7043 0.0634
H16 H 0.3922 0.7040 0.0487
C19 C 0.4890(2) 0.89854(18) 0.05868(10)
C20 C 0.4557(2) 0.8855(2) 0.07913(10)
H17 H 0.4538 0.9127 0.0881
C21 C 0.4253(2) 0.8326(3) 0.08650(9)
H18 H 0.4026 0.8237 0.1005
C22 C 0.42815(19) 0.7928(2) 0.07341(9)
H19 H 0.4074 0.7567 0.0784
C23 C 0.46142(14) 0.80592(17) 0.05296(7)
C24 C 0.49185(14) 0.85877(17) 0.04560(7)
C25 C 0.52512(19) 0.8718(2) 0.02515(9)
H20 H 0.5459 0.9080 0.0201
C26 C 0.5280(2) 0.8321(3) 0.01206(9)
H21 H 0.5507 0.8410 -0.0019
C27 C 0.4975(2) 0.7792(2) 0.01943(11)
H22 H 0.4995 0.7520 0.0105
C28 C 0.4643(2) 0.76615(18) 0.03988(10)
N7 N 0.6617(3) 1.0906(2) 0.08302(12)
C29 C 0.7147(3) 1.1205(3) 0.09023(12)
C30 C 0.7508(3) 1.1625(3) 0.07559(17)
H23 H 0.7871 1.1829 0.0805
C31 C 0.7340(4) 1.1746(3) 0.05375(16)
H24 H 0.7587 1.2034 0.0437
C32 C 0.6810(4) 1.1448(3) 0.04654(13)
H25 H 0.6694 1.1531 0.0316
C33 C 0.6448(3) 1.1028(3) 0.06118(15)
H26 H 0.6086 1.0824 0.0563
N8 N 0.7132(3) 1.0497(2) 0.14478(11)
N9 N 0.6901(2) 1.0578(2) 0.12326(12)
C34 C 0.7302(3) 1.1033(3) 0.11078(12)
C35 C 0.7781(2) 1.1233(3) 0.12457(16)
H27 H 0.8114 1.1536 0.1205
C36 C 0.7676(3) 1.0901(3) 0.14558(14)
H28 H 0.7925 1.0943 0.1580
C37 C 0.6848(5) 1.0050(4) 0.16059(18)
H29 H 0.6478 0.9978 0.1621
H30 H 0.7012 1.0146 0.1772
N10 N 0.6295(2) 0.6721(3) 0.24831(11)
C38 C 0.5771(3) 0.6459(4) 0.24002(10)
C39 C 0.5384(2) 0.6021(4) 0.25291(14)
H31 H 0.5026 0.5842 0.2472
C40 C 0.5521(3) 0.5845(4) 0.27409(14)
H32 H 0.5256 0.5545 0.2829
C41 C 0.6045(4) 0.6107(5) 0.28238(12)
H33 H 0.6139 0.5987 0.2968
C42 C 0.6432(3) 0.6545(4) 0.26949(12)
H34 H 0.6790 0.6724 0.2751
N11 N 0.5897(3) 0.7170(4) 0.18360(10)
N12 N 0.61042(18) 0.70778(27) 0.20562(10)
C43 C 0.5680(2) 0.6642(4) 0.21819(10)
C44 C 0.52098(19) 0.64654(36) 0.20393(14)
H35 H 0.4866 0.6178 0.2080
C45 C 0.5344(2) 0.6792(4) 0.18255(12)
H36 H 0.5105 0.6761 0.1698
C46 C 0.6210(5) 0.7610(6) 0.16730(17)
H37 H 0.6581 0.7679 0.1673
H38 H 0.6070 0.7504 0.1503
C47 C 0.6828(2) 0.95225(16) 0.15230(9)
C48 C 0.7089(2) 0.9504(2) 0.13108(8)
H39 H 0.7287 0.9816 0.1214
C49 C 0.7061(2) 0.9030(2) 0.12403(7)
H40 H 0.7239 0.9017 0.1095
C50 C 0.6772(2) 0.8573(2) 0.13821(7)
H41 H 0.6753 0.8249 0.1334
C51 C 0.65112(15) 0.85915(15) 0.15943(6)
C52 C 0.65394(15) 0.90661(14) 0.16647(6)
C53 C 0.6279(2) 0.90843(18) 0.18769(8)
H42 H 0.6298 0.9409 0.1925
C54 C 0.5990(2) 0.8628(2) 0.20187(7)
H43 H 0.5811 0.8640 0.2164
C55 C 0.5961(2) 0.81533(18) 0.19483(8)
H44 H 0.5764 0.7841 0.2045
C56 C 0.6222(2) 0.81351(15) 0.17361(8)
Cd1 Cd 0.61005(2) 1.02066(2) 0.10686(2)
Os1 Os 0.3333 0.6667 -0.00802(2)
N1A N -0.0683(2) 0.5159(3) 0.12955(11)
C1A C -0.0686(2) 0.4700(3) 0.12187(10)
C2A C -0.0961(3) 0.4233(4) 0.13551(13)
H1A H -0.0963 0.3919 0.1303
C3A C -0.1233(3) 0.4225(4) 0.15682(12)
H2A H -0.1421 0.3906 0.1661
C4A C -0.1230(3) 0.4684(4) 0.16449(10)
H3A H -0.1415 0.4679 0.1791
C5A C -0.0955(3) 0.5151(4) 0.15086(12)
H4A H -0.0953 0.5465 0.1561
N2A N 0.0075(3) 0.5202(4) 0.06591(10)
N3A N -0.0140(3) 0.5262(4) 0.08847(11)
C6A C -0.0419(3) 0.4755(4) 0.10002(10)
C7A C -0.0376(3) 0.4382(4) 0.08459(14)
H5A H -0.0525 0.4012 0.0878
C8A C -0.0071(3) 0.4658(4) 0.06351(12)
H6A H 0.0020 0.4506 0.0501
C9A C 0.0444(5) 0.5646(6) 0.05161(19)
H7A H 0.0335 0.5920 0.0523
H8A H 0.0412 0.5529 0.0342
N4A N 0.3965(3) 0.7330(4) -0.03003(12)
C10A C 0.4101(3) 0.7845(4) -0.02315(12)
C11A C 0.4502(4) 0.8279(5) -0.03572(16)
H9A H 0.4595 0.8630 -0.0310
C12A C 0.4767(3) 0.8198(5) -0.05517(17)
H10A H 0.5041 0.8494 -0.0638
C13A C 0.4631(4) 0.7683(6) -0.06205(14)
H11A H 0.4812 0.7628 -0.0753
C14A C 0.4230(3) 0.7249(4) -0.04948(13)
H12A H 0.4137 0.6897 -0.0542
N5A N 0.3283(2) 0.7562(3) 0.03025(11)
N6A N 0.3492(2) 0.7412(3) 0.01003(11)
C15A C 0.3846(3) 0.7882(4) -0.00320(11)
C16A C 0.3855(3) 0.8322(4) 0.00884(14)
H13A H 0.4057 0.8683 0.0039
C17A C 0.3507(3) 0.8124(4) 0.02951(13)
H14A H 0.3437 0.8332 0.0409
C18A C 0.2898(5) 0.7187(6) 0.0470(2)
H15A H 0.2957 0.7358 0.0634
H16A H 0.2960 0.6882 0.0487
C19A C 0.10146(18) 0.59046(27) 0.05868(10)
C20A C 0.1145(2) 0.5702(3) 0.07913(10)
H17A H 0.0873 0.5411 0.0881
C21A C 0.1674(3) 0.5927(4) 0.08650(9)
H18A H 0.1763 0.5789 0.1005
C22A C 0.2072(2) 0.63535(28) 0.07341(9)
H19A H 0.2433 0.6507 0.0784
C23A C 0.19408(17) 0.65550(22) 0.05296(7)
C24A C 0.14123(17) 0.63308(22) 0.04560(7)
C25A C 0.1282(2) 0.65332(28) 0.02515(9)
H20A H 0.0920 0.6379 0.0201
C26A C 0.1679(3) 0.6959(4) 0.01206(9)
H21A H 0.1590 0.7097 -0.0019
C27A C 0.2208(2) 0.7183(3) 0.01943(11)
H22A H 0.2480 0.7475 0.0105
C28A C 0.23385(18) 0.69815(27) 0.03988(10)
N7A N -0.0906(2) 0.5711(4) 0.08302(12)
C29A C -0.1205(3) 0.5942(4) 0.09023(12)
C30A C -0.1625(3) 0.5883(4) 0.07559(17)
H23A H -0.1829 0.6042 0.0805
C31A C -0.1746(3) 0.5594(5) 0.05375(16)
H24A H -0.2034 0.5553 0.0437
C32A C -0.1448(3) 0.5362(5) 0.04654(13)
H25A H -0.1531 0.5163 0.0316
C33A C -0.1028(3) 0.5420(4) 0.06118(15)
H26A H -0.0824 0.5262 0.0563
N8A N -0.0497(2) 0.6635(4) 0.14478(11)
N9A N -0.0578(2) 0.6323(3) 0.12326(12)
C34A C -0.1033(3) 0.6269(4) 0.11078(12)
C35A C -0.1233(3) 0.6548(4) 0.12457(16)
H27A H -0.1536 0.6578 0.1205
C36A C -0.0901(3) 0.6775(4) 0.14558(14)
H28A H -0.0943 0.6982 0.1580
C37A C -0.0050(4) 0.6798(6) 0.16059(18)
H29A H 0.0022 0.6500 0.1621
H30A H -0.0146 0.6866 0.1772
N10A N 0.3279(3) 0.9574(4) 0.24831(11)
C38A C 0.3541(4) 0.9312(5) 0.24002(10)
C39A C 0.3979(4) 0.9363(4) 0.25291(14)
H31A H 0.4158 0.9184 0.2472
C40A C 0.4155(4) 0.9676(5) 0.27409(14)
H32A H 0.4455 0.9711 0.2829
C41A C 0.3893(5) 0.9938(6) 0.28238(12)
H33A H 0.4013 1.0152 0.2968
C42A C 0.3455(4) 0.9887(5) 0.26949(12)
H34A H 0.3276 1.0066 0.2751
N11A N 0.2830(4) 0.8727(5) 0.18360(10)
N12A N 0.29222(27) 0.90264(32) 0.20562(10)
C43A C 0.3358(4) 0.9038(4) 0.21819(10)
C44A C 0.35346(36) 0.87444(41) 0.20393(14)
H35A H 0.3822 0.8688 0.2080
C45A C 0.3208(4) 0.8552(4) 0.18255(12)
H36A H 0.3239 0.8344 0.1698
C46A C 0.2390(6) 0.8600(8) 0.16730(17)
H37A H 0.2321 0.8902 0.1673
H38A H 0.2496 0.8566 0.1503
C47A C 0.04775(16) 0.73055(26) 0.15230(9)
C48A C 0.0496(2) 0.7585(3) 0.13108(8)
H39A H 0.0184 0.7471 0.1214
C49A C 0.0970(2) 0.8031(3) 0.12403(7)
H40A H 0.0983 0.8222 0.1095
C50A C 0.1427(2) 0.8199(3) 0.13821(7)
H41A H 0.1751 0.8504 0.1334
C51A C 0.14085(15) 0.79197(21) 0.15943(6)
C52A C 0.09339(14) 0.74733(21) 0.16647(6)
C53A C 0.09157(18) 0.71947(27) 0.18769(8)
H42A H 0.0591 0.6889 0.1925
C54A C 0.1372(2) 0.7362(3) 0.20187(7)
H43A H 0.1360 0.7171 0.2164
C55A C 0.18467(18) 0.78077(27) 0.19483(8)
H44A H 0.2159 0.7923 0.2045
C56A C 0.18649(15) 0.80869(25) 0.17361(8)
Cd1A Cd -0.02066(2) 0.58939(3) 0.10686(2)
N1B N 0.4841(3) 0.4158(2) 0.12955(11)
C1B C 0.5300(3) 0.4614(2) 0.12187(10)
C2B C 0.5767(4) 0.4806(2) 0.13551(13)
H1B H 0.6081 0.5118 0.1303
C3B C 0.5775(4) 0.4542(3) 0.15682(12)
H2B H 0.6094 0.4673 0.1661
C4B C 0.5316(4) 0.4086(3) 0.16449(10)
H3B H 0.5321 0.3906 0.1791
C5B C 0.4849(4) 0.3894(2) 0.15086(12)
H4B H 0.4535 0.3582 0.1561
N2B N 0.4798(4) 0.4873(3) 0.06591(10)
N3B N 0.4738(4) 0.4598(2) 0.08847(11)
C6B C 0.5245(4) 0.4826(3) 0.10002(10)
C7B C 0.5618(4) 0.5242(3) 0.08459(14)
H5B H 0.5988 0.5463 0.0878
C8B C 0.5342(4) 0.5271(3) 0.06351(12)
H6B H 0.5494 0.5514 0.0501
C9B C 0.4354(6) 0.4798(4) 0.05161(19)
H7B H 0.4080 0.4415 0.0523
H8B H 0.4471 0.4883 0.0342
N4B N 0.2670(4) 0.6635(3) -0.03003(12)
C10B C 0.2155(4) 0.6256(3) -0.02315(12)
C11B C 0.1721(5) 0.6223(3) -0.03572(16)
H9B H 0.1370 0.5965 -0.0310
C12B C 0.1802(5) 0.6569(4) -0.05517(17)
H10B H 0.1506 0.6547 -0.0638
C13B C 0.2317(6) 0.6948(4) -0.06205(14)
H11B H 0.2372 0.7184 -0.0753
C14B C 0.2751(4) 0.6981(3) -0.04948(13)
H12B H 0.3103 0.7240 -0.0542
N5B N 0.2438(3) 0.5721(2) 0.03025(11)
N6B N 0.2588(3) 0.6080(2) 0.01003(11)
C15B C 0.2118(4) 0.5964(2) -0.00320(11)
C16B C 0.1678(4) 0.5533(3) 0.00884(14)
H13B H 0.1317 0.5374 0.0039
C17B C 0.1876(4) 0.5383(2) 0.02951(13)
H14B H 0.1668 0.5105 0.0409
C18B C 0.2813(6) 0.5711(4) 0.0470(2)
H15B H 0.2642 0.5599 0.0634
H16B H 0.3118 0.6078 0.0487
C19B C 0.40954(27) 0.5110(2) 0.05868(10)
C20B C 0.4298(3) 0.5443(2) 0.07913(10)
H17B H 0.4589 0.5462 0.0881
C21B C 0.4073(4) 0.5747(2) 0.08650(9)
H18B H 0.4211 0.5974 0.1005
C22B C 0.36465(28) 0.57185(19) 0.07341(9)
H19B H 0.3493 0.5926 0.0784
C23B C 0.34450(22) 0.53858(14) 0.05296(7)
C24B C 0.36692(22) 0.50815(14) 0.04560(7)
C25B C 0.34668(28) 0.47488(19) 0.02515(9)
H20B H 0.3621 0.4541 0.0201
C26B C 0.3041(4) 0.4720(2) 0.01206(9)
H21B H 0.2903 0.4493 -0.0019
C27B C 0.2817(3) 0.5025(2) 0.01943(11)
H22B H 0.2525 0.5005 0.0105
C28B C 0.30185(27) 0.5357(2) 0.03988(10)
N7B N 0.4289(4) 0.3383(3) 0.08302(12)
C29B C 0.4058(4) 0.2853(3) 0.09023(12)
C30B C 0.4117(4) 0.2492(3) 0.07559(17)
H23B H 0.3958 0.2129 0.0805
C31B C 0.4406(5) 0.2660(4) 0.05375(16)
H24B H 0.4447 0.2413 0.0437
C32B C 0.4638(5) 0.3190(4) 0.04654(13)
H25B H 0.4837 0.3306 0.0316
C33B C 0.4580(4) 0.3552(3) 0.06118(15)
H26B H 0.4738 0.3914 0.0563
N8B N 0.3365(4) 0.2868(3) 0.14478(11)
N9B N 0.3677(3) 0.3099(2) 0.12326(12)
C34B C 0.3731(4) 0.2698(3) 0.11078(12)
C35B C 0.3452(4) 0.2219(2) 0.12457(16)
H27B H 0.3422 0.1886 0.1205
C36B C 0.3225(4) 0.2324(3) 0.14558(14)
H28B H 0.3018 0.2075 0.1580
C37B C 0.3202(6) 0.3152(5) 0.16059(18)
H29B H 0.3500 0.3522 0.1621
H30B H 0.3134 0.2988 0.1772
N10B N 0.0426(4) 0.3705(2) 0.24831(11)
C38B C 0.0688(5) 0.4229(3) 0.24002(10)
C39B C 0.0637(4) 0.4616(2) 0.25291(14)
H31B H 0.0816 0.4974 0.2472
C40B C 0.0324(5) 0.4479(3) 0.27409(14)
H32B H 0.0289 0.4744 0.2829
C41B C 0.0062(6) 0.3955(4) 0.28238(12)
H33B H -0.0152 0.3861 0.2968
C42B C 0.0113(5) 0.3568(3) 0.26949(12)
H34B H -0.0066 0.3210 0.2751
N11B N 0.1273(5) 0.4103(3) 0.18360(10)
N12B N 0.09736(32) 0.38958(18) 0.20562(10)
C43B C 0.0962(4) 0.4320(2) 0.21819(10)
C44B C 0.12556(41) 0.47902(19) 0.20393(14)
H35B H 0.1312 0.5134 0.2080
C45B C 0.1448(4) 0.4656(2) 0.18255(12)
H36B H 0.1656 0.4895 0.1698
C46B C 0.1400(8) 0.3790(5) 0.16730(17)
H37B H 0.1098 0.3419 0.1673
H38B H 0.1434 0.3930 0.1503
C47B C 0.26945(26) 0.3172(2) 0.15230(9)
C48B C 0.2415(3) 0.2911(2) 0.13108(8)
H39B H 0.2529 0.2713 0.1214
C49B C 0.1969(3) 0.2939(2) 0.12403(7)
H40B H 0.1778 0.2761 0.1095
C50B C 0.1801(3) 0.3228(2) 0.13821(7)
H41B H 0.1496 0.3247 0.1334
C51B C 0.20803(21) 0.34888(15) 0.15943(6)
C52B C 0.25267(21) 0.34606(15) 0.16647(6)
C53B C 0.28053(27) 0.3721(2) 0.18769(8)
H42B H 0.3111 0.3702 0.1925
C54B C 0.2638(3) 0.4010(2) 0.20187(7)
H43B H 0.2829 0.4189 0.2164
C55B C 0.21923(27) 0.4039(2) 0.19483(8)
H44B H 0.2077 0.4236 0.2045
C56B C 0.19131(25) 0.3778(2) 0.17361(8)
Cd1B Cd 0.41061(3) 0.38995(2) 0.10686(2)
N1O N 0.0825(2) 0.2650(2) 0.20378(11)
C1O C 0.1281(2) 0.2647(2) 0.21146(10)
C2O C 0.1473(2) 0.2372(3) 0.19782(13)
H1O H 0.1785 0.2370 0.2030
C3O C 0.1209(3) 0.2100(3) 0.17651(12)
H2O H 0.1340 0.1912 0.1672
C4O C 0.0753(3) 0.2103(3) 0.16884(10)
H3O H 0.0573 0.1918 0.1542
C5O C 0.0561(2) 0.2378(3) 0.18247(12)
H4O H 0.0249 0.2380 0.1772
N2O N 0.1540(3) 0.3408(3) 0.26742(10)
N3O N 0.1265(2) 0.3193(3) 0.24486(11)
C6O C 0.1493(3) 0.2914(3) 0.23331(10)
C7O C 0.1909(3) 0.2957(3) 0.24874(14)
H5O H 0.2130 0.2808 0.2455
C8O C 0.1938(3) 0.3262(3) 0.26982(12)
H6O H 0.2181 0.3353 0.2832
C9O C 0.1465(4) 0.3777(5) 0.28172(19)
H7O H 0.1082 0.3668 0.2810
H8O H 0.1550 0.3745 0.2991
N4O N 0.3302(3) 0.7298(3) 0.36336(12)
C10O C 0.2923(3) 0.7434(3) 0.35648(12)
C11O C 0.2890(3) 0.7835(4) 0.36905(16)
H9O H 0.2632 0.7928 0.3643
C12O C 0.3236(4) 0.8100(3) 0.38850(17)
H10O H 0.3214 0.8374 0.3971
C13O C 0.3615(4) 0.7964(4) 0.39538(14)
H11O H 0.3851 0.8145 0.4086
C14O C 0.3648(3) 0.7563(3) 0.38281(13)
H12O H 0.3907 0.7470 0.3875
N5O N 0.2388(2) 0.6616(2) 0.30308(11)
N6O N 0.2747(2) 0.6825(2) 0.32330(11)
C15O C 0.2631(2) 0.7179(3) 0.33653(11)
C16O C 0.2200(3) 0.7188(3) 0.32449(14)
H13O H 0.2041 0.7390 0.3294
C17O C 0.2050(2) 0.6840(3) 0.30382(13)
H14O H 0.1772 0.6770 0.2924
C18O C 0.2378(4) 0.6231(5) 0.2863(2)
H15O H 0.2266 0.6290 0.2699
H16O H 0.2745 0.6293 0.2846
C19O C 0.1777(2) 0.43479(18) 0.27465(10)
C20O C 0.2110(2) 0.4478(2) 0.25420(10)
H17O H 0.2129 0.4206 0.2452
C21O C 0.2414(2) 0.5007(3) 0.24683(9)
H18O H 0.2641 0.5096 0.2328
C22O C 0.23852(19) 0.5405(2) 0.25992(9)
H19O H 0.2593 0.5766 0.2549
C23O C 0.20525(14) 0.52741(17) 0.28037(7)
C24O C 0.17482(14) 0.47456(17) 0.28773(7)
C25O C 0.14155(19) 0.4615(2) 0.30818(9)
H20O H 0.1208 0.4253 0.3132
C26O C 0.1387(2) 0.5012(3) 0.32127(9)
H21O H 0.1160 0.4923 0.3352
C27O C 0.1692(2) 0.5541(2) 0.31390(11)
H22O H 0.1672 0.5813 0.3228
C28O C 0.2024(2) 0.56718(18) 0.29345(10)
N7O N 0.0050(3) 0.2427(2) 0.25031(12)
C29O C -0.0480(3) 0.2128(3) 0.24310(12)
C30O C -0.0841(3) 0.1708(3) 0.25774(17)
H23O H -0.1204 0.1504 0.2528
C31O C -0.0673(4) 0.1587(3) 0.27958(16)
H24O H -0.0920 0.1299 0.2896
C32O C -0.0143(4) 0.1885(3) 0.28679(13)
H25O H -0.0027 0.1802 0.3017
C33O C 0.0219(3) 0.2305(3) 0.27215(15)
H26O H 0.0581 0.2509 0.2770
N8O N -0.0465(3) 0.2836(2) 0.18855(11)
N9O N -0.0234(2) 0.2755(2) 0.21007(12)
C34O C -0.0635(3) 0.2300(3) 0.22255(12)
C35O C -0.1114(2) 0.2100(3) 0.20876(16)
H27O H -0.1447 0.1797 0.2128
C36O C -0.1009(3) 0.2432(3) 0.18775(14)
H28O H -0.1258 0.2390 0.1753
C37O C -0.0181(5) 0.3283(4) 0.17274(18)
H29O H 0.0189 0.3355 0.1712
H30O H -0.0345 0.3187 0.1561
N10O N 0.0372(2) 0.6612(3) 0.08502(11)
C38O C 0.0896(3) 0.6874(4) 0.09331(10)
C39O C 0.1283(2) 0.7312(4) 0.08042(14)
H31O H 0.1641 0.7491 0.0861
C40O C 0.1146(3) 0.7488(4) 0.05924(14)
H32O H 0.1411 0.7788 0.0504
C41O C 0.0622(4) 0.7226(5) 0.05095(12)
H33O H 0.0528 0.7346 0.0365
C42O C 0.0235(3) 0.6788(4) 0.06384(12)
H34O H -0.0123 0.6609 0.0582
N11O N 0.0770(3) 0.6163(4) 0.14973(10)
N12O N 0.05625(18) 0.62555(27) 0.12771(10)
C43O C 0.0987(2) 0.6691(4) 0.11514(10)
C44O C 0.14569(19) 0.68679(36) 0.12940(14)
H35O H 0.1801 0.7155 0.1253
C45O C 0.1323(2) 0.6541(4) 0.15078(12)
H36O H 0.1562 0.6572 0.1635
C46O C 0.0457(5) 0.5723(6) 0.16603(17)
H37O H 0.0086 0.5654 0.1660
H38O H 0.0597 0.5829 0.1830
C47O C -0.0161(2) 0.38108(16) 0.18103(9)
C48O C -0.0422(2) 0.3829(2) 0.20225(8)
H39O H -0.0620 0.3517 0.2119
C49O C -0.0394(2) 0.4303(2) 0.20930(7)
H40O H -0.0572 0.4316 0.2238
C50O C -0.0105(2) 0.4760(2) 0.19512(7)
H41O H -0.0086 0.5084 0.1999
C51O C 0.01555(15) 0.47418(15) 0.17390(6)
C52O C 0.01273(15) 0.42672(14) 0.16686(6)
C53O C 0.0388(2) 0.42490(18) 0.14564(8)
H42O H 0.0369 0.3924 0.1408
C54O C 0.0677(2) 0.4705(2) 0.13146(7)
H43O H 0.0856 0.4693 0.1169
C55O C 0.0706(2) 0.51800(18) 0.13850(8)
H44O H 0.0903 0.5492 0.1288
C56O C 0.0445(2) 0.51982(15) 0.15972(8)
Cd1O Cd 0.05662(2) 0.31267(2) 0.22647(2)
Os1O Os 0.3334 0.6666 0.34135(2)
N1P N 0.7350(2) 0.8174(3) 0.20378(11)
C1P C 0.7353(2) 0.8633(3) 0.21146(10)
C2P C 0.7628(3) 0.9100(4) 0.19782(13)
H1P H 0.7630 0.9414 0.2030
C3P C 0.7900(3) 0.9108(4) 0.17651(12)
H2P H 0.8088 0.9427 0.1672
C4P C 0.7897(3) 0.8649(4) 0.16884(10)
H3P H 0.8082 0.8654 0.1542
C5P C 0.7622(3) 0.8182(4) 0.18247(12)
H4P H 0.7620 0.7868 0.1772
N2P N 0.6592(3) 0.8131(4) 0.26742(10)
N3P N 0.6807(3) 0.8071(4) 0.24486(11)
C6P C 0.7086(3) 0.8578(4) 0.23331(10)
C7P C 0.7043(3) 0.8951(4) 0.24874(14)
H5P H 0.7192 0.9321 0.2455
C8P C 0.6738(3) 0.8675(4) 0.26982(12)
H6P H 0.6647 0.8827 0.2832
C9P C 0.6223(5) 0.7687(6) 0.28172(19)
H7P H 0.6332 0.7413 0.2810
H8P H 0.6255 0.7804 0.2991
N4P N 0.2702(3) 0.6003(4) 0.36336(12)
C10P C 0.2566(3) 0.5488(4) 0.35648(12)
C11P C 0.2165(4) 0.5054(5) 0.36905(16)
H9P H 0.2072 0.4703 0.3643
C12P C 0.1900(3) 0.5135(5) 0.38850(17)
H10P H 0.1626 0.4839 0.3971
C13P C 0.2036(4) 0.5650(6) 0.39538(14)
H11P H 0.1855 0.5705 0.4086
C14P C 0.2437(3) 0.6084(4) 0.38281(13)
H12P H 0.2530 0.6436 0.3875
N5P N 0.3384(2) 0.5771(3) 0.30308(11)
N6P N 0.3175(2) 0.5921(3) 0.32330(11)
C15P C 0.2821(3) 0.5451(4) 0.33653(11)
C16P C 0.2812(3) 0.5011(4) 0.32449(14)
H13P H 0.2610 0.4650 0.3294
C17P C 0.3160(3) 0.5209(4) 0.30382(13)
H14P H 0.3230 0.5001 0.2924
C18P C 0.3769(5) 0.6146(6) 0.2863(2)
H15P H 0.3710 0.5975 0.2699
H16P H 0.3707 0.6451 0.2846
C19P C 0.56521(18) 0.74287(27) 0.27465(10)
C20P C 0.5522(2) 0.7631(3) 0.25420(10)
H17P H 0.5794 0.7922 0.2452
C21P C 0.4993(3) 0.7406(4) 0.24683(9)
H18P H 0.4904 0.7544 0.2328
C22P C 0.4595(2) 0.69798(28) 0.25992(9)
H19P H 0.4234 0.6826 0.2549
C23P C 0.47259(17) 0.67783(22) 0.28037(7)
C24P C 0.52544(17) 0.70025(22) 0.28773(7)
C25P C 0.5385(2) 0.68001(28) 0.30818(9)
H20P H 0.5747 0.6954 0.3132
C26P C 0.4988(3) 0.6374(4) 0.32127(9)
H21P H 0.5077 0.6236 0.3352
C27P C 0.4459(2) 0.6150(3) 0.31390(11)
H22P H 0.4187 0.5858 0.3228
C28P C 0.43282(18) 0.63518(27) 0.29345(10)
N7P N 0.7573(2) 0.7622(4) 0.25031(12)
C29P C 0.7872(3) 0.7391(4) 0.24310(12)
C30P C 0.8292(3) 0.7450(4) 0.25774(17)
H23P H 0.8496 0.7291 0.2528
C31P C 0.8413(3) 0.7739(5) 0.27958(16)
H24P H 0.8701 0.7780 0.2896
C32P C 0.8115(3) 0.7971(5) 0.28679(13)
H25P H 0.8198 0.8170 0.3017
C33P C 0.7695(3) 0.7913(4) 0.27215(15)
H26P H 0.7491 0.8071 0.2770
N8P N 0.7164(2) 0.6698(4) 0.18855(11)
N9P N 0.7245(2) 0.7010(3) 0.21007(12)
C34P C 0.7700(3) 0.7064(4) 0.22255(12)
C35P C 0.7900(3) 0.6785(4) 0.20876(16)
H27P H 0.8203 0.6755 0.2128
C36P C 0.7568(3) 0.6558(4) 0.18775(14)
H28P H 0.7610 0.6351 0.1753
C37P C 0.6717(4) 0.6535(6) 0.17274(18)
H29P H 0.6645 0.6833 0.1712
H30P H 0.6813 0.6467 0.1561
N10P N 0.3388(3) 0.3759(4) 0.08502(11)
C38P C 0.3126(4) 0.4021(5) 0.09331(10)
C39P C 0.2688(4) 0.3970(4) 0.08042(14)
H31P H 0.2509 0.4149 0.0861
C40P C 0.2512(4) 0.3657(5) 0.05924(14)
H32P H 0.2212 0.3622 0.0504
C41P C 0.2774(5) 0.3395(6) 0.05095(12)
H33P H 0.2654 0.3181 0.0365
C42P C 0.3212(4) 0.3446(5) 0.06384(12)
H34P H 0.3391 0.3267 0.0582
N11P N 0.3837(4) 0.4606(5) 0.14973(10)
N12P N 0.37445(27) 0.43069(32) 0.12771(10)
C43P C 0.3309(4) 0.4295(4) 0.11514(10)
C44P C 0.31321(36) 0.45889(41) 0.12940(14)
H35P H 0.2845 0.4645 0.1253
C45P C 0.3459(4) 0.4781(4) 0.15078(12)
H36P H 0.3428 0.4989 0.1635
C46P C 0.4277(6) 0.4733(8) 0.16603(17)
H37P H 0.4346 0.4431 0.1660
H38P H 0.4171 0.4767 0.1830
C47P C 0.61892(16) 0.60278(26) 0.18103(9)
C48P C 0.6171(2) 0.5748(3) 0.20225(8)
H39P H 0.6483 0.5862 0.2119
C49P C 0.5697(2) 0.5302(3) 0.20930(7)
H40P H 0.5684 0.5111 0.2238
C50P C 0.5240(2) 0.5134(3) 0.19512(7)
H41P H 0.4916 0.4829 0.1999
C51P C 0.52582(15) 0.54136(21) 0.17390(6)
C52P C 0.57328(14) 0.58600(21) 0.16686(6)
C53P C 0.57510(18) 0.61386(27) 0.14564(8)
H42P H 0.6076 0.6444 0.1408
C54P C 0.5295(2) 0.5971(3) 0.13146(7)
H43P H 0.5307 0.6162 0.1169
C55P C 0.48200(18) 0.55256(27) 0.13850(8)
H44P H 0.4508 0.5410 0.1288
C56P C 0.48018(15) 0.52464(25) 0.15972(8)
Cd1P Cd 0.68733(2) 0.74394(3) 0.22647(2)
N1Q N 0.1826(3) 0.9175(2) 0.20378(11)
C1Q C 0.1367(3) 0.8719(2) 0.21146(10)
C2Q C 0.0900(4) 0.8527(2) 0.19782(13)
H1Q H 0.0586 0.8215 0.2030
C3Q C 0.0892(4) 0.8791(3) 0.17651(12)
H2Q H 0.0573 0.8660 0.1672
C4Q C 0.1351(4) 0.9247(3) 0.16884(10)
H3Q H 0.1346 0.9427 0.1542
C5Q C 0.1818(4) 0.9439(2) 0.18247(12)
H4Q H 0.2132 0.9751 0.1772
N2Q N 0.1869(4) 0.8460(3) 0.26742(10)
N3Q N 0.1929(4) 0.8735(2) 0.24486(11)
C6Q C 0.1422(4) 0.8507(3) 0.23331(10)
C7Q C 0.1049(4) 0.8091(3) 0.24874(14)
H5Q H 0.0679 0.7870 0.2455
C8Q C 0.1325(4) 0.8062(3) 0.26982(12)
H6Q H 0.1173 0.7819 0.2832
C9Q C 0.2313(6) 0.8535(4) 0.28172(19)
H7Q H 0.2587 0.8918 0.2810
H8Q H 0.2196 0.8450 0.2991
N4Q N 0.3997(4) 0.6698(3) 0.36336(12)
C10Q C 0.4512(4) 0.7077(3) 0.35648(12)
C11Q C 0.4946(5) 0.7110(3) 0.36905(16)
H9Q H 0.5297 0.7368 0.3643
C12Q C 0.4865(5) 0.6764(4) 0.38850(17)
H10Q H 0.5161 0.6786 0.3971
C13Q C 0.4350(6) 0.6385(4) 0.39538(14)
H11Q H 0.4295 0.6149 0.4086
C14Q C 0.3916(4) 0.6352(3) 0.38281(13)
H12Q H 0.3564 0.6093 0.3875
N5Q N 0.4229(3) 0.7612(2) 0.30308(11)
N6Q N 0.4079(3) 0.7253(2) 0.32330(11)
C15Q C 0.4549(4) 0.7369(2) 0.33653(11)
C16Q C 0.4989(4) 0.7800(3) 0.32449(14)
H13Q H 0.5350 0.7959 0.3294
C17Q C 0.4791(4) 0.7950(2) 0.30382(13)
H14Q H 0.4999 0.8228 0.2924
C18Q C 0.3854(6) 0.7622(4) 0.2863(2)
H15Q H 0.4025 0.7734 0.2699
H16Q H 0.3549 0.7255 0.2846
C19Q C 0.25713(27) 0.8223(2) 0.27465(10)
C20Q C 0.2369(3) 0.7890(2) 0.25420(10)
H17Q H 0.2078 0.7871 0.2452
C21Q C 0.2594(4) 0.7586(2) 0.24683(9)
H18Q H 0.2456 0.7359 0.2328
C22Q C 0.30202(28) 0.76148(19) 0.25992(9)
H19Q H 0.3174 0.7407 0.2549
C23Q C 0.32217(22) 0.79475(14) 0.28037(7)
C24Q C 0.29975(22) 0.82518(14) 0.28773(7)
C25Q C 0.31999(28) 0.85845(19) 0.30818(9)
H20Q H 0.3046 0.8792 0.3132
C26Q C 0.3626(4) 0.8613(2) 0.32127(9)
H21Q H 0.3764 0.8840 0.3352
C27Q C 0.3850(3) 0.8308(2) 0.31390(11)
H22Q H 0.4142 0.8328 0.3228
C28Q C 0.36482(27) 0.7976(2) 0.29345(10)
N7Q N 0.2378(4) 0.9950(3) 0.25031(12)
C29Q C 0.2609(4) 1.0480(3) 0.24310(12)
C30Q C 0.2550(4) 1.0841(3) 0.25774(17)
H23Q H 0.2709 1.1204 0.2528
C31Q C 0.2261(5) 1.0673(4) 0.27958(16)
H24Q H 0.2220 1.0920 0.2896
C32Q C 0.2029(5) 1.0143(4) 0.28679(13)
H25Q H 0.1830 1.0027 0.3017
C33Q C 0.2087(4) 0.9781(3) 0.27215(15)
H26Q H 0.1929 0.9419 0.2770
N8Q N 0.3302(4) 1.0465(3) 0.18855(11)
N9Q N 0.2990(3) 1.0234(2) 0.21007(12)
C34Q C 0.2936(4) 1.0635(3) 0.22255(12)
C35Q C 0.3215(4) 1.1114(2) 0.20876(16)
H27Q H 0.3245 1.1447 0.2128
C36Q C 0.3442(4) 1.1009(3) 0.18775(14)
H28Q H 0.3649 1.1258 0.1753
C37Q C 0.3465(6) 1.0181(5) 0.17274(18)
H29Q H 0.3167 0.9811 0.1712
H30Q H 0.3533 1.0345 0.1561
N10Q N 0.6241(4) 0.9628(2) 0.08502(11)
C38Q C 0.5979(5) 0.9104(3) 0.09331(10)
C39Q C 0.6030(4) 0.8717(2) 0.08042(14)
H31Q H 0.5851 0.8359 0.0861
C40Q C 0.6343(5) 0.8854(3) 0.05924(14)
H32Q H 0.6378 0.8589 0.0504
C41Q C 0.6605(6) 0.9378(4) 0.05095(12)
H33Q H 0.6819 0.9472 0.0365
C42Q C 0.6554(5) 0.9765(3) 0.06384(12)
H34Q H 0.6733 1.0123 0.0582
N11Q N 0.5394(5) 0.9230(3) 0.14973(10)
N12Q N 0.56931(32) 0.94375(18) 0.12771(10)
C43Q C 0.5705(4) 0.9013(2) 0.11514(10)
C44Q C 0.54111(41) 0.85431(19) 0.12940(14)
H35Q H 0.5355 0.8199 0.1253
C45Q C 0.5219(4) 0.8677(2) 0.15078(12)
H36Q H 0.5011 0.8438 0.1635
C46Q C 0.5267(8) 0.9543(5) 0.16603(17)
H37Q H 0.5569 0.9914 0.1660
H38Q H 0.5233 0.9403 0.1830
C47Q C 0.39722(26) 1.0161(2) 0.18103(9)
C48Q C 0.4252(3) 1.0422(2) 0.20225(8)
H39Q H 0.4138 1.0620 0.2119
C49Q C 0.4698(3) 1.0394(2) 0.20930(7)
H40Q H 0.4889 1.0572 0.2238
C50Q C 0.4866(3) 1.0105(2) 0.19512(7)
H41Q H 0.5171 1.0086 0.1999
C51Q C 0.45864(21) 0.98445(15) 0.17390(6)
C52Q C 0.41400(21) 0.98727(15) 0.16686(6)
C53Q C 0.38614(27) 0.9612(2) 0.14564(8)
H42Q H 0.3556 0.9631 0.1408
C54Q C 0.4029(3) 0.9323(2) 0.13146(7)
H43Q H 0.3838 0.9144 0.1169
C55Q C 0.44744(27) 0.9294(2) 0.13850(8)
H44Q H 0.4590 0.9097 0.1288
C56Q C 0.47536(25) 0.9555(2) 0.15972(8)
Cd1Q Cd 0.25606(3) 0.94338(2) 0.22647(2)
Cl1 Cl 0.5691(2) 0.5944(2) 0.00052(9)
O1 O 0.5791(5) 0.5545(4) 0.0091(2)
O2 O 0.6104(4) 0.6290(4) -0.0154(2)
O3 O 0.5662(5) 0.6242(5) 0.02086(18)
O4 O 0.5204(3) 0.5713(4) -0.0124(2)
Cl2 Cl 0.8978(3) 0.2778(2) 0.10703(11)
O5 O 0.9529(4) 0.3119(5) 0.1084(3)
O6 O 0.8752(7) 0.2687(8) 0.1310(2)
O7 O 0.8860(7) 0.2285(4) 0.0967(3)
O8 O 0.8743(7) 0.3009(7) 0.0924(3)
Cl3 Cl 0.5357(4) 0.7200(5) 0.0985(2)
O9 O 0.5391(9) 0.7614(9) 0.0833(4)
O10 O 0.5848(5) 0.7353(10) 0.1094(4)
O11 O 0.4958(4) 0.7073(4) 0.11623(19)
O12 O 0.5205(10) 0.6746(8) 0.0833(4)
O13 O 0.3333 0.6667 0.0976(7)
Cl4? Cl 0.5958(2) 0.6289(3) 0.00774(11)
O14? O 0.5867(8) 0.6665(7) 0.0189(4)
O15? O 0.6312(7) 0.6506(8) -0.0124(3)
O16? O 0.6160(8) 0.6061(8) 0.0245(3)
O17? O 0.5467(6) 0.5863(6) -0.0019(4)
Cl5? Cl 0.8752(3) 0.2833(2) 0.11192(11)
O18? O 0.8402(7) 0.3035(8) 0.1127(4)
O19? O 0.8638(9) 0.2463(8) 0.1309(3)
O20? O 0.8700(9) 0.2582(9) 0.0887(3)
O21? O 0.9282(5) 0.3259(6) 0.1143(4)
Cl6? Cl 0.5728(5) 0.7261(5) 0.0883(2)
O22? O 0.5662(12) 0.7522(11) 0.1090(4)
O23? O 0.5260(9) 0.6762(8) 0.0852(7)
O24? O 0.6161(10) 0.7181(13) 0.0927(6)
O25? O 0.5820(14) 0.7569(12) 0.0670(4)
Os2? Os 0.61005(2) 1.02066(2) 0.10686(2)
Cd2? Cd 0.3333 0.6667 -0.00802(2)
loop_
_geom_bond_atom_site_label_1
_geom_bond_atom_site_label_2
_geom_bond_site_symmetry_1
_geom_bond_site_symmetry_2
N1 C1 1_555 1_555
C1 C2 1_555 1_555
C2 H1 1_555 1_555
C3 C2 1_555 1_555
H2 C3 1_555 1_555
C4 C3 1_555 1_555
H3 C4 1_555 1_555
C5 N1 1_555 1_555
H4 C5 1_555 1_555
N2 N3 1_555 1_555
N3 C6 1_555 1_555
C6 C1 1_555 1_555
C7 C6 1_555 1_555
H5 C7 1_555 1_555
C8 N2 1_555 1_555
H6 C8 1_555 1_555
C9 N2 1_555 1_555
H7 C9 1_555 1_555
H8 C9 1_555 1_555
N4 C10 1_555 1_555
C10 C11 1_555 1_555
C11 H9 1_555 1_555
C12 C11 1_555 1_555
H10 C12 1_555 1_555
C13 C12 1_555 1_555
H11 C13 1_555 1_555
C14 N4 1_555 1_555
H12 C14 1_555 1_555
N5 N6 1_555 1_555
N6 C15 1_555 1_555
C15 C10 1_555 1_555
C16 C15 1_555 1_555
H13 C16 1_555 1_555
C17 N5 1_555 1_555
H14 C17 1_555 1_555
C18 N5 1_555 1_555
H15 C18 1_555 1_555
H16 C18 1_555 1_555
C19 C9 1_555 1_555
C20 C19 1_555 1_555
H17 C20 1_555 1_555
C21 C20 1_555 1_555
H18 C21 1_555 1_555
C22 C21 1_555 1_555
H19 C22 1_555 1_555
C23 C22 1_555 1_555
C24 C19 1_555 1_555
C25 C24 1_555 1_555
H20 C25 1_555 1_555
C26 C25 1_555 1_555
H21 C26 1_555 1_555
C27 C26 1_555 1_555
H22 C27 1_555 1_555
C28 C18 1_555 1_555
N7 C29 1_555 1_555
C29 C30 1_555 1_555
C30 H23 1_555 1_555
C31 C30 1_555 1_555
H24 C31 1_555 1_555
C32 C31 1_555 1_555
H25 C32 1_555 1_555
C33 N7 1_555 1_555
H26 C33 1_555 1_555
N8 N9 1_555 1_555
N9 C34 1_555 1_555
C34 C29 1_555 1_555
C35 C34 1_555 1_555
H27 C35 1_555 1_555
C36 N8 1_555 1_555
H28 C36 1_555 1_555
C37 N8 1_555 1_555
H29 C37 1_555 1_555
H30 C37 1_555 1_555
N10 C38 1_555 1_555
C38 C39 1_555 1_555
C39 H31 1_555 1_555
C40 C39 1_555 1_555
H32 C40 1_555 1_555
C41 C40 1_555 1_555
H33 C41 1_555 1_555
C42 N10 1_555 1_555
H34 C42 1_555 1_555
N11 N12 1_555 1_555
N12 C43 1_555 1_555
C43 C38 1_555 1_555
C44 C43 1_555 1_555
H35 C44 1_555 1_555
C45 N11 1_555 1_555
H36 C45 1_555 1_555
C46 N11 1_555 1_555
H37 C46 1_555 1_555
H38 C46 1_555 1_555
C47 C37 1_555 1_555
C48 C47 1_555 1_555
H39 C48 1_555 1_555
C49 C48 1_555 1_555
H40 C49 1_555 1_555
C50 C49 1_555 1_555
H41 C50 1_555 1_555
C51 C50 1_555 1_555
C52 C47 1_555 1_555
C53 C52 1_555 1_555
H42 C53 1_555 1_555
C54 C53 1_555 1_555
H43 C54 1_555 1_555
C55 C54 1_555 1_555
H44 C55 1_555 1_555
C56 C46 1_555 1_555
Cd1 N1 1_555 1_555
Os1 N4 1_555 1_555
Cl1 O1 1_555 1_555
O2 Cl1 1_555 1_555
O3 Cl1 1_555 1_555
O4 Cl1 1_555 1_555
Cl2 O5 1_555 1_555
O6 Cl2 1_555 1_555
O7 Cl2 1_555 1_555
O8 Cl2 1_555 1_555
Cl3 O9 1_555 1_555
O10 Cl3 1_555 1_555
O11 Cl3 1_555 1_555
O12 Cl3 1_555 1_555
N1A C1A 1_555 1_555
C1A C2A 1_555 1_555
C2A H1A 1_555 1_555
C3A C2A 1_555 1_555
H2A C3A 1_555 1_555
C4A C3A 1_555 1_555
H3A C4A 1_555 1_555
C5A N1A 1_555 1_555
H4A C5A 1_555 1_555
N2A N3A 1_555 1_555
N3A C6A 1_555 1_555
C6A C1A 1_555 1_555
C7A C6A 1_555 1_555
H5A C7A 1_555 1_555
C8A N2A 1_555 1_555
H6A C8A 1_555 1_555
C9A N2A 1_555 1_555
H7A C9A 1_555 1_555
H8A C9A 1_555 1_555
N4A Os1 1_555 1_555
C10A N4A 1_555 1_555
C11A C10A 1_555 1_555
H9A C11A 1_555 1_555
C12A C11A 1_555 1_555
H10A C12A 1_555 1_555
C13A C12A 1_555 1_555
H11A C13A 1_555 1_555
C14A N4A 1_555 1_555
H12A C14A 1_555 1_555
N5A N6A 1_555 1_555
N6A Os1 1_555 1_555
C15A C10A 1_555 1_555
C16A C15A 1_555 1_555
H13A C16A 1_555 1_555
C17A N5A 1_555 1_555
H14A C17A 1_555 1_555
C18A N5A 1_555 1_555
H15A C18A 1_555 1_555
H16A C18A 1_555 1_555
C19A C9A 1_555 1_555
C20A C19A 1_555 1_555
H17A C20A 1_555 1_555
C21A C20A 1_555 1_555
H18A C21A 1_555 1_555
C22A C21A 1_555 1_555
H19A C22A 1_555 1_555
C23A C22A 1_555 1_555
C24A C19A 1_555 1_555
C25A C24A 1_555 1_555
H20A C25A 1_555 1_555
C26A C25A 1_555 1_555
H21A C26A 1_555 1_555
C27A C26A 1_555 1_555
H22A C27A 1_555 1_555
C28A C18A 1_555 1_555
N7A C29A 1_555 1_555
C29A C30A 1_555 1_555
C30A H23A 1_555 1_555
C31A C30A 1_555 1_555
H24A C31A 1_555 1_555
C32A C31A 1_555 1_555
H25A C32A 1_555 1_555
C33A N7A 1_555 1_555
H26A C33A 1_555 1_555
N8A N9A 1_555 1_555
N9A C34A 1_555 1_555
C34A C29A 1_555 1_555
C35A C34A 1_555 1_555
H27A C35A 1_555 1_555
C36A N8A 1_555 1_555
H28A C36A 1_555 1_555
C37A N8A 1_555 1_555
H29A C37A 1_555 1_555
H30A C37A 1_555 1_555
N10A C38A 1_555 1_555
C38A C39A 1_555 1_555
C39A H31A 1_555 1_555
C40A C39A 1_555 1_555
H32A C40A 1_555 1_555
C41A C40A 1_555 1_555
H33A C41A 1_555 1_555
C42A N10A 1_555 1_555
H34A C42A 1_555 1_555
N11A N12A 1_555 1_555
N12A C43A 1_555 1_555
C43A C38A 1_555 1_555
C44A C43A 1_555 1_555
H35A C44A 1_555 1_555
C45A N11A 1_555 1_555
H36A C45A 1_555 1_555
C46A N11A 1_555 1_555
H37A C46A 1_555 1_555
H38A C46A 1_555 1_555
C47A C37A 1_555 1_555
C48A C47A 1_555 1_555
H39A C48A 1_555 1_555
C49A C48A 1_555 1_555
H40A C49A 1_555 1_555
C50A C49A 1_555 1_555
H41A C50A 1_555 1_555
C51A C50A 1_555 1_555
C52A C47A 1_555 1_555
C53A C52A 1_555 1_555
H42A C53A 1_555 1_555
C54A C53A 1_555 1_555
H43A C54A 1_555 1_555
C55A C54A 1_555 1_555
H44A C55A 1_555 1_555
C56A C46A 1_555 1_555
Cd1A N1A 1_555 1_555
N1B C1B 1_555 1_555
C1B C2B 1_555 1_555
C2B H1B 1_555 1_555
C3B C2B 1_555 1_555
H2B C3B 1_555 1_555
C4B C3B 1_555 1_555
H3B C4B 1_555 1_555
C5B N1B 1_555 1_555
H4B C5B 1_555 1_555
N2B N3B 1_555 1_555
N3B C6B 1_555 1_555
C6B C1B 1_555 1_555
C7B C6B 1_555 1_555
H5B C7B 1_555 1_555
C8B N2B 1_555 1_555
H6B C8B 1_555 1_555
C9B N2B 1_555 1_555
H7B C9B 1_555 1_555
H8B C9B 1_555 1_555
N4B Os1 1_555 1_555
C10B N4B 1_555 1_555
C11B C10B 1_555 1_555
H9B C11B 1_555 1_555
C12B C11B 1_555 1_555
H10B C12B 1_555 1_555
C13B C12B 1_555 1_555
H11B C13B 1_555 1_555
C14B N4B 1_555 1_555
H12B C14B 1_555 1_555
N5B N6B 1_555 1_555
N6B Os1 1_555 1_555
C15B C10B 1_555 1_555
C16B C15B 1_555 1_555
H13B C16B 1_555 1_555
C17B N5B 1_555 1_555
H14B C17B 1_555 1_555
C18B N5B 1_555 1_555
H15B C18B 1_555 1_555
H16B C18B 1_555 1_555
C19B C9B 1_555 1_555
C20B C19B 1_555 1_555
H17B C20B 1_555 1_555
C21B C20B 1_555 1_555
H18B C21B 1_555 1_555
C22B C21B 1_555 1_555
H19B C22B 1_555 1_555
C23B C22B 1_555 1_555
C24B C19B 1_555 1_555
C25B C24B 1_555 1_555
H20B C25B 1_555 1_555
C26B C25B 1_555 1_555
H21B C26B 1_555 1_555
C27B C26B 1_555 1_555
H22B C27B 1_555 1_555
C28B C18B 1_555 1_555
N7B C29B 1_555 1_555
C29B C30B 1_555 1_555
C30B H23B 1_555 1_555
C31B C30B 1_555 1_555
H24B C31B 1_555 1_555
C32B C31B 1_555 1_555
H25B C32B 1_555 1_555
C33B N7B 1_555 1_555
H26B C33B 1_555 1_555
N8B N9B 1_555 1_555
N9B C34B 1_555 1_555
C34B C29B 1_555 1_555
C35B C34B 1_555 1_555
H27B C35B 1_555 1_555
C36B N8B 1_555 1_555
H28B C36B 1_555 1_555
C37B N8B 1_555 1_555
H29B C37B 1_555 1_555
H30B C37B 1_555 1_555
N10B C38B 1_555 1_555
C38B C39B 1_555 1_555
C39B H31B 1_555 1_555
C40B C39B 1_555 1_555
H32B C40B 1_555 1_555
C41B C40B 1_555 1_555
H33B C41B 1_555 1_555
C42B N10B 1_555 1_555
H34B C42B 1_555 1_555
N11B N12B 1_555 1_555
N12B C43B 1_555 1_555
C43B C38B 1_555 1_555
C44B C43B 1_555 1_555
H35B C44B 1_555 1_555
C45B N11B 1_555 1_555
H36B C45B 1_555 1_555
C46B N11B 1_555 1_555
H37B C46B 1_555 1_555
H38B C46B 1_555 1_555
C47B C37B 1_555 1_555
C48B C47B 1_555 1_555
H39B C48B 1_555 1_555
C49B C48B 1_555 1_555
H40B C49B 1_555 1_555
C50B C49B 1_555 1_555
H41B C50B 1_555 1_555
C51B C50B 1_555 1_555
C52B C47B 1_555 1_555
C53B C52B 1_555 1_555
H42B C53B 1_555 1_555
C54B C53B 1_555 1_555
H43B C54B 1_555 1_555
C55B C54B 1_555 1_555
H44B C55B 1_555 1_555
C56B C46B 1_555 1_555
Cd1B N1B 1_555 1_555
N1O C1O 1_555 1_555
C1O C2O 1_555 1_555
C2O H1O 1_555 1_555
C3O C2O 1_555 1_555
H2O C3O 1_555 1_555
C4O C3O 1_555 1_555
H3O C4O 1_555 1_555
C5O N1O 1_555 1_555
H4O C5O 1_555 1_555
N2O N3O 1_555 1_555
N3O C6O 1_555 1_555
C6O C1O 1_555 1_555
C7O C6O 1_555 1_555
H5O C7O 1_555 1_555
C8O N2O 1_555 1_555
H6O C8O 1_555 1_555
C9O N2O 1_555 1_555
H7O C9O 1_555 1_555
H8O C9O 1_555 1_555
N4O C10O 1_555 1_555
C10O C11O 1_555 1_555
C11O H9O 1_555 1_555
C12O C11O 1_555 1_555
H10O C12O 1_555 1_555
C13O C12O 1_555 1_555
H11O C13O 1_555 1_555
C14O N4O 1_555 1_555
H12O C14O 1_555 1_555
N5O N6O 1_555 1_555
N6O C15O 1_555 1_555
C15O C10O 1_555 1_555
C16O C15O 1_555 1_555
H13O C16O 1_555 1_555
C17O N5O 1_555 1_555
H14O C17O 1_555 1_555
C18O N5O 1_555 1_555
H15O C18O 1_555 1_555
H16O C18O 1_555 1_555
C19O C9O 1_555 1_555
C20O C19O 1_555 1_555
H17O C20O 1_555 1_555
C21O C20O 1_555 1_555
H18O C21O 1_555 1_555
C22O C21O 1_555 1_555
H19O C22O 1_555 1_555
C23O C22O 1_555 1_555
C24O C19O 1_555 1_555
C25O C24O 1_555 1_555
H20O C25O 1_555 1_555
C26O C25O 1_555 1_555
H21O C26O 1_555 1_555
C27O C26O 1_555 1_555
H22O C27O 1_555 1_555
C28O C18O 1_555 1_555
N7O C29O 1_555 1_555
C29O C30O 1_555 1_555
C30O H23O 1_555 1_555
C31O C30O 1_555 1_555
H24O C31O 1_555 1_555
C32O C31O 1_555 1_555
H25O C32O 1_555 1_555
C33O N7O 1_555 1_555
H26O C33O 1_555 1_555
N8O N9O 1_555 1_555
N9O C34O 1_555 1_555
C34O C29O 1_555 1_555
C35O C34O 1_555 1_555
H27O C35O 1_555 1_555
C36O N8O 1_555 1_555
H28O C36O 1_555 1_555
C37O N8O 1_555 1_555
H29O C37O 1_555 1_555
H30O C37O 1_555 1_555
N10O Cd1A 1_555 1_555
C38O N10O 1_555 1_555
C39O C38O 1_555 1_555
H31O C39O 1_555 1_555
C40O C39O 1_555 1_555
H32O C40O 1_555 1_555
C41O C40O 1_555 1_555
H33O C41O 1_555 1_555
C42O N10O 1_555 1_555
H34O C42O 1_555 1_555
N11O N12O 1_555 1_555
N12O Cd1A 1_555 1_555
C43O C38O 1_555 1_555
C44O C43O 1_555 1_555
H35O C44O 1_555 1_555
C45O N11O 1_555 1_555
H36O C45O 1_555 1_555
C46O N11O 1_555 1_555
H37O C46O 1_555 1_555
H38O C46O 1_555 1_555
C47O C37O 1_555 1_555
C48O C47O 1_555 1_555
H39O C48O 1_555 1_555
C49O C48O 1_555 1_555
H40O C49O 1_555 1_555
C50O C49O 1_555 1_555
H41O C50O 1_555 1_555
C51O C50O 1_555 1_555
C52O C47O 1_555 1_555
C53O C52O 1_555 1_555
H42O C53O 1_555 1_555
C54O C53O 1_555 1_555
H43O C54O 1_555 1_555
C55O C54O 1_555 1_555
H44O C55O 1_555 1_555
C56O C46O 1_555 1_555
Cd1O N10B 1_555 1_555
Os1O N4O 1_555 1_555
N1P C1P 1_555 1_555
C1P C2P 1_555 1_555
C2P H1P 1_555 1_555
C3P C2P 1_555 1_555
H2P C3P 1_555 1_555
C4P C3P 1_555 1_555
H3P C4P 1_555 1_555
C5P N1P 1_555 1_555
H4P C5P 1_555 1_555
N2P N3P 1_555 1_555
N3P C6P 1_555 1_555
C6P C1P 1_555 1_555
C7P C6P 1_555 1_555
H5P C7P 1_555 1_555
C8P N2P 1_555 1_555
H6P C8P 1_555 1_555
C9P N2P 1_555 1_555
H7P C9P 1_555 1_555
H8P C9P 1_555 1_555
N4P Os1O 1_555 1_555
C10P N4P 1_555 1_555
C11P C10P 1_555 1_555
H9P C11P 1_555 1_555
C12P C11P 1_555 1_555
H10P C12P 1_555 1_555
C13P C12P 1_555 1_555
H11P C13P 1_555 1_555
C14P N4P 1_555 1_555
H12P C14P 1_555 1_555
N5P N6P 1_555 1_555
N6P Os1O 1_555 1_555
C15P C10P 1_555 1_555
C16P C15P 1_555 1_555
H13P C16P 1_555 1_555
C17P N5P 1_555 1_555
H14P C17P 1_555 1_555
C18P N5P 1_555 1_555
H15P C18P 1_555 1_555
H16P C18P 1_555 1_555
C19P C9P 1_555 1_555
C20P C19P 1_555 1_555
H17P C20P 1_555 1_555
C21P C20P 1_555 1_555
H18P C21P 1_555 1_555
C22P C21P 1_555 1_555
H19P C22P 1_555 1_555
C23P C22P 1_555 1_555
C24P C19P 1_555 1_555
C25P C24P 1_555 1_555
H20P C25P 1_555 1_555
C26P C25P 1_555 1_555
H21P C26P 1_555 1_555
C27P C26P 1_555 1_555
H22P C27P 1_555 1_555
C28P C18P 1_555 1_555
N7P C29P 1_555 1_555
C29P C30P 1_555 1_555
C30P H23P 1_555 1_555
C31P C30P 1_555 1_555
H24P C31P 1_555 1_555
C32P C31P 1_555 1_555
H25P C32P 1_555 1_555
C33P N7P 1_555 1_555
H26P C33P 1_555 1_555
N8P N9P 1_555 1_555
N9P C34P 1_555 1_555
C34P C29P 1_555 1_555
C35P C34P 1_555 1_555
H27P C35P 1_555 1_555
C36P N8P 1_555 1_555
H28P C36P 1_555 1_555
C37P N8P 1_555 1_555
H29P C37P 1_555 1_555
H30P C37P 1_555 1_555
N10P Cd1B 1_555 1_555
C38P N10P 1_555 1_555
C39P C38P 1_555 1_555
H31P C39P 1_555 1_555
C40P C39P 1_555 1_555
H32P C40P 1_555 1_555
C41P C40P 1_555 1_555
H33P C41P 1_555 1_555
C42P N10P 1_555 1_555
H34P C42P 1_555 1_555
N11P N12P 1_555 1_555
N12P Cd1B 1_555 1_555
C43P C38P 1_555 1_555
C44P C43P 1_555 1_555
H35P C44P 1_555 1_555
C45P N11P 1_555 1_555
H36P C45P 1_555 1_555
C46P N11P 1_555 1_555
H37P C46P 1_555 1_555
H38P C46P 1_555 1_555
C47P C37P 1_555 1_555
C48P C47P 1_555 1_555
H39P C48P 1_555 1_555
C49P C48P 1_555 1_555
H40P C49P 1_555 1_555
C50P C49P 1_555 1_555
H41P C50P 1_555 1_555
C51P C50P 1_555 1_555
C52P C47P 1_555 1_555
C53P C52P 1_555 1_555
H42P C53P 1_555 1_555
C54P C53P 1_555 1_555
H43P C54P 1_555 1_555
C55P C54P 1_555 1_555
H44P C55P 1_555 1_555
C56P C46P 1_555 1_555
Cd1P N10 1_555 1_555
N1Q C1Q 1_555 1_555
C1Q C2Q 1_555 1_555
C2Q H1Q 1_555 1_555
C3Q C2Q 1_555 1_555
H2Q C3Q 1_555 1_555
C4Q C3Q 1_555 1_555
H3Q C4Q 1_555 1_555
C5Q N1Q 1_555 1_555
H4Q C5Q 1_555 1_555
N2Q N3Q 1_555 1_555
N3Q C6Q 1_555 1_555
C6Q C1Q 1_555 1_555
C7Q C6Q 1_555 1_555
H5Q C7Q 1_555 1_555
C8Q N2Q 1_555 1_555
H6Q C8Q 1_555 1_555
C9Q N2Q 1_555 1_555
H7Q C9Q 1_555 1_555
H8Q C9Q 1_555 1_555
N4Q Os1O 1_555 1_555
C10Q N4Q 1_555 1_555
C11Q C10Q 1_555 1_555
H9Q C11Q 1_555 1_555
C12Q C11Q 1_555 1_555
H10Q C12Q 1_555 1_555
C13Q C12Q 1_555 1_555
H11Q C13Q 1_555 1_555
C14Q N4Q 1_555 1_555
H12Q C14Q 1_555 1_555
N5Q N6Q 1_555 1_555
N6Q Os1O 1_555 1_555
C15Q C10Q 1_555 1_555
C16Q C15Q 1_555 1_555
H13Q C16Q 1_555 1_555
C17Q N5Q 1_555 1_555
H14Q C17Q 1_555 1_555
C18Q N5Q 1_555 1_555
H15Q C18Q 1_555 1_555
H16Q C18Q 1_555 1_555
C19Q C9Q 1_555 1_555
C20Q C19Q 1_555 1_555
H17Q C20Q 1_555 1_555
C21Q C20Q 1_555 1_555
H18Q C21Q 1_555 1_555
C22Q C21Q 1_555 1_555
H19Q C22Q 1_555 1_555
C23Q C22Q 1_555 1_555
C24Q C19Q 1_555 1_555
C25Q C24Q 1_555 1_555
H20Q C25Q 1_555 1_555
C26Q C25Q 1_555 1_555
H21Q C26Q 1_555 1_555
C27Q C26Q 1_555 1_555
H22Q C27Q 1_555 1_555
C28Q C18Q 1_555 1_555
N7Q C29Q 1_555 1_555
C29Q C30Q 1_555 1_555
C30Q H23Q 1_555 1_555
C31Q C30Q 1_555 1_555
H24Q C31Q 1_555 1_555
C32Q C31Q 1_555 1_555
H25Q C32Q 1_555 1_555
C33Q N7Q 1_555 1_555
H26Q C33Q 1_555 1_555
N8Q N9Q 1_555 1_555
N9Q C34Q 1_555 1_555
C34Q C29Q 1_555 1_555
C35Q C34Q 1_555 1_555
H27Q C35Q 1_555 1_555
C36Q N8Q 1_555 1_555
H28Q C36Q 1_555 1_555
C37Q N8Q 1_555 1_555
H29Q C37Q 1_555 1_555
H30Q C37Q 1_555 1_555
N10Q Cd1 1_555 1_555
C38Q N10Q 1_555 1_555
C39Q C38Q 1_555 1_555
H31Q C39Q 1_555 1_555
C40Q C39Q 1_555 1_555
H32Q C40Q 1_555 1_555
C41Q C40Q 1_555 1_555
H33Q C41Q 1_555 1_555
C42Q N10Q 1_555 1_555
H34Q C42Q 1_555 1_555
N11Q N12Q 1_555 1_555
N12Q Cd1 1_555 1_555
C43Q C38Q 1_555 1_555
C44Q C43Q 1_555 1_555
H35Q C44Q 1_555 1_555
C45Q N11Q 1_555 1_555
H36Q C45Q 1_555 1_555
C46Q N11Q 1_555 1_555
H37Q C46Q 1_555 1_555
H38Q C46Q 1_555 1_555
C47Q C37Q 1_555 1_555
C48Q C47Q 1_555 1_555
H39Q C48Q 1_555 1_555
C49Q C48Q 1_555 1_555
H40Q C49Q 1_555 1_555
C50Q C49Q 1_555 1_555
H41Q C50Q 1_555 1_555
C51Q C50Q 1_555 1_555
C52Q C47Q 1_555 1_555
C53Q C52Q 1_555 1_555
H42Q C53Q 1_555 1_555
C54Q C53Q 1_555 1_555
H43Q C54Q 1_555 1_555
C55Q C54Q 1_555 1_555
H44Q C55Q 1_555 1_555
C56Q C46Q 1_555 1_555
Cd1Q N10A 1_555 1_555
C4 C5 1_555 1_555
N3 Cd1 1_555 1_555
C7 C8 1_555 1_555
C13 C14 1_555 1_555
N6 Os1 1_555 1_555
C16 C17 1_555 1_555
C23 C24 1_555 1_555
C23 C28 1_555 1_555
C27 C28 1_555 1_555
N7 Cd1 1_555 1_555
C32 C33 1_555 1_555
N9 Cd1 1_555 1_555
C35 C36 1_555 1_555
C41 C42 1_555 1_555
N12 Cd1P 1_555 1_555
C44 C45 1_555 1_555
C51 C52 1_555 1_555
C51 C56 1_555 1_555
C55 C56 1_555 1_555
C4A C5A 1_555 1_555
N3A Cd1A 1_555 1_555
C7A C8A 1_555 1_555
C13A C14A 1_555 1_555
N6A C15A 1_555 1_555
C16A C17A 1_555 1_555
C23A C24A 1_555 1_555
C23A C28A 1_555 1_555
C27A C28A 1_555 1_555
N7A Cd1A 1_555 1_555
C32A C33A 1_555 1_555
N9A Cd1A 1_555 1_555
C35A C36A 1_555 1_555
C41A C42A 1_555 1_555
N12A Cd1Q 1_555 1_555
C44A C45A 1_555 1_555
C51A C52A 1_555 1_555
C51A C56A 1_555 1_555
C55A C56A 1_555 1_555
C4B C5B 1_555 1_555
N3B Cd1B 1_555 1_555
C7B C8B 1_555 1_555
C13B C14B 1_555 1_555
N6B C15B 1_555 1_555
C16B C17B 1_555 1_555
C23B C24B 1_555 1_555
C23B C28B 1_555 1_555
C27B C28B 1_555 1_555
N7B Cd1B 1_555 1_555
C32B C33B 1_555 1_555
N9B Cd1B 1_555 1_555
C35B C36B 1_555 1_555
C41B C42B 1_555 1_555
N12B Cd1O 1_555 1_555
C44B C45B 1_555 1_555
C51B C52B 1_555 1_555
C51B C56B 1_555 1_555
C55B C56B 1_555 1_555
N1O Cd1O 1_555 1_555
C4O C5O 1_555 1_555
N3O Cd1O 1_555 1_555
C7O C8O 1_555 1_555
C13O C14O 1_555 1_555
N6O Os1O 1_555 1_555
C16O C17O 1_555 1_555
C23O C24O 1_555 1_555
C23O C28O 1_555 1_555
C27O C28O 1_555 1_555
N7O Cd1O 1_555 1_555
C32O C33O 1_555 1_555
N9O Cd1O 1_555 1_555
C35O C36O 1_555 1_555
C41O C42O 1_555 1_555
N12O C43O 1_555 1_555
C44O C45O 1_555 1_555
C51O C52O 1_555 1_555
C51O C56O 1_555 1_555
C55O C56O 1_555 1_555
N1P Cd1P 1_555 1_555
C4P C5P 1_555 1_555
N3P Cd1P 1_555 1_555
C7P C8P 1_555 1_555
C13P C14P 1_555 1_555
N6P C15P 1_555 1_555
C16P C17P 1_555 1_555
C23P C24P 1_555 1_555
C23P C28P 1_555 1_555
C27P C28P 1_555 1_555
N7P Cd1P 1_555 1_555
C32P C33P 1_555 1_555
N9P Cd1P 1_555 1_555
C35P C36P 1_555 1_555
C41P C42P 1_555 1_555
N12P C43P 1_555 1_555
C44P C45P 1_555 1_555
C51P C52P 1_555 1_555
C51P C56P 1_555 1_555
C55P C56P 1_555 1_555
N1Q Cd1Q 1_555 1_555
C4Q C5Q 1_555 1_555
N3Q Cd1Q 1_555 1_555
C7Q C8Q 1_555 1_555
C13Q C14Q 1_555 1_555
N6Q C15Q 1_555 1_555
C16Q C17Q 1_555 1_555
C23Q C24Q 1_555 1_555
C23Q C28Q 1_555 1_555
C27Q C28Q 1_555 1_555
N7Q Cd1Q 1_555 1_555
C32Q C33Q 1_555 1_555
N9Q Cd1Q 1_555 1_555
C35Q C36Q 1_555 1_555
C41Q C42Q 1_555 1_555
N12Q C43Q 1_555 1_555
C44Q C45Q 1_555 1_555
C51Q C52Q 1_555 1_555
C51Q C56Q 1_555 1_555
C55Q C56Q 1_555 1_555

#END
