
#######################################################################
#
#                 Cambridge Crystallographic Data Centre
#                                CCDC 
#
#######################################################################
#
# If this CIF has been generated from an entry in the Cambridge 
# Structural Database, then it will include bibliographic, chemical, 
# crystal, experimental, refinement or atomic coordinate data resulting 
# from the CCDC's data processing and validation procedures.
#
#######################################################################

data_OBIQIZ
_chemical_formula_moiety         'C46 H32 F24 Mn2 N4 O8,C6 H6'
_chemical_name_systematic        
"bis((\m~2~-1,3-bis(4-Pyridyl)propane-N,N')-cis-bis(hexafluoroacetylacetonato)-manganese(ii)) benzene solvate"
_symmetry_cell_setting           triclinic
_symmetry_space_group_name_H-M   'P -1'
_symmetry_Int_Tables_number      2
_space_group_name_Hall           '-P 1'
loop_
_symmetry_equiv_pos_site_id
_symmetry_equiv_pos_as_xyz
1 x,y,z
2 -x,-y,-z
_cell_length_a                   10.2719(7)
_cell_length_b                   12.9946(9)
_cell_length_c                   13.0612(7)
_cell_angle_alpha                61.494(4)
_cell_angle_beta                 83.550(4)
_cell_angle_gamma                81.017(3)
_cell_volume                     1511.81
_exptl_crystal_colour            yellow
_exptl_crystal_description       prism
_cell_formula_units_Z            1
loop_
_atom_site_label
_atom_site_type_symbol
_atom_site_fract_x
_atom_site_fract_y
_atom_site_fract_z
Mn1 Mn 0.01465(5) 0.99649(4) 0.24383(4)
F1 F -0.4098(4) 0.8998(4) 0.1946(3)
F2 F -0.4699(3) 1.0699(4) 0.0686(4)
F3 F -0.3144(2) 0.9703(3) 0.0297(2)
F4 F -0.4115(2) 1.3275(2) 0.2036(3)
F5 F -0.2153(3) 1.3667(2) 0.1898(3)
F6 F -0.2969(3) 1.2559(3) 0.3551(2)
F7 F 0.1909(4) 1.3044(3) -0.1072(2)
F8 F 0.1206(4) 1.3976(3) -0.0221(3)
F9 F 0.3224(4) 1.3499(4) -0.0285(3)
F10 F 0.4159(3) 1.1417(2) 0.3676(2)
F11 F 0.4423(2) 0.9638(3) 0.4018(2)
F12 F 0.2918(2) 1.0199(2) 0.49556(17)
O1 O -0.1566(2) 0.9833(2) 0.17058(19)
O2 O -0.1198(2) 1.1350(2) 0.2615(2)
O3 O 0.1004(2) 1.14670(19) 0.09725(18)
O4 O 0.1732(2) 1.00513(19) 0.33257(18)
N1 N 0.1258(3) 0.8688(2) 0.1866(2)
N2 N -0.0365(3) 0.8443(2) 0.4157(2)
C1 C 0.0782(3) 0.8395(3) 0.1141(3)
H1 H -0.0014 0.8823 0.0770
C2 C 0.1391(3) 0.7502(3) 0.0906(3)
H2 H 0.1019 0.7336 0.0374
C3 C 0.2534(3) 0.6851(3) 0.1438(3)
C4 C 0.2396(4) 0.8077(3) 0.2360(3)
H3 H 0.2767 0.8279 0.2865
C5 C 0.3052(4) 0.7169(3) 0.2167(3)
H4 H 0.3856 0.6763 0.2534
C6 C 0.3147(4) 0.5787(3) 0.1311(3)
H5 H 0.4115 0.5795 0.1192
H6 H 0.2806 0.5814 0.0618
C7 C 0.2834(3) 0.4646(3) 0.2400(3)
H7 H 0.3282 0.3960 0.2310
H8 H 0.3184 0.4619 0.3090
C8 C 0.1359(4) 0.4554(3) 0.2605(3)
H9 H 0.0903 0.5280 0.2615
H10 H 0.1028 0.4506 0.1948
C9 C 0.1017(3) 0.3499(3) 0.3731(3)
C10 C 0.0379(3) 0.2628(3) 0.3757(3)
H11 H 0.0155 0.2674 0.3050
C11 C -0.0068(3) 0.8307(3) 0.5194(3)
H12 H 0.0382 0.8888 0.5202
C12 C -0.0988(4) 0.7596(3) 0.4187(3)
H13 H -0.1218 0.7669 0.3469
C13 C 0.1311(5) 0.3373(4) 0.4801(3)
H14 H 0.1734 0.3957 0.4832
C14 C -0.2694(3) 1.0381(3) 0.1584(3)
C15 C -0.3142(3) 1.1323(3) 0.1805(3)
H15 H -0.4018 1.1695 0.1620
C16 C -0.2354(3) 1.1739(3) 0.2286(3)
C17 C -0.3666(4) 0.9932(4) 0.1129(4)
C18 C -0.2917(4) 1.2814(3) 0.2447(4)
C19 C 0.1904(3) 1.2000(3) 0.0983(3)
C20 C 0.2696(3) 1.1738(3) 0.1900(3)
H16 H 0.3351 1.2232 0.1774
C21 C 0.2550(3) 1.0773(3) 0.2989(3)
C22 C 0.2125(4) 1.3116(4) -0.0149(3)
C23 C 0.3511(3) 1.0510(3) 0.3922(3)
C11A C 0.0068(3) 0.1693(3) 0.4806(3)
N2A N 0.0365(3) 0.1557(2) 0.5843(2)
Mn1A Mn -0.01465(5) 0.00351(4) 0.75617(4)
O1A O 0.1566(2) 0.0167(2) 0.82942(19)
C14A C 0.2694(3) -0.0381(3) 0.8416(3)
C15A C 0.3142(3) -0.1323(3) 0.8195(3)
H15A H 0.4018 -0.1695 0.8380
C16A C 0.2354(3) -0.1739(3) 0.7714(3)
O2A O 0.1198(2) -0.1350(2) 0.7385(2)
O3A O -0.1004(2) -0.14670(19) 0.90275(18)
C19A C -0.1904(3) -0.2000(3) 0.9017(3)
C20A C -0.2696(3) -0.1738(3) 0.8100(3)
H16A H -0.3351 -0.2232 0.8226
C21A C -0.2550(3) -0.0773(3) 0.7011(3)
O4A O -0.1732(2) -0.00513(19) 0.66743(18)
N1A N -0.1258(3) 0.1312(2) 0.8134(2)
C1A C -0.0782(3) 0.1605(3) 0.8859(3)
H1A H 0.0014 0.1177 0.9230
C2A C -0.1391(3) 0.2498(3) 0.9094(3)
H2A H -0.1019 0.2664 0.9626
C3A C -0.2534(3) 0.3149(3) 0.8562(3)
C5A C -0.3052(4) 0.2831(3) 0.7833(3)
C4A C -0.2396(4) 0.1923(3) 0.7640(3)
H3A H -0.2767 0.1721 0.7135
H4A H -0.3856 0.3237 0.7466
C6A C -0.3147(4) 0.4213(3) 0.8689(3)
H5A H -0.4115 0.4205 0.8808
H6A H -0.2806 0.4186 0.9382
C7A C -0.2834(3) 0.5354(3) 0.7600(3)
H7A H -0.3282 0.6040 0.7690
H8A H -0.3184 0.5381 0.6910
C8A C -0.1359(4) 0.5446(3) 0.7395(3)
H9A H -0.0903 0.4720 0.7385
H10A H -0.1028 0.5494 0.8052
C9A C -0.1017(3) 0.6501(3) 0.6269(3)
C10A C -0.0379(3) 0.7372(3) 0.6243(3)
H11A H -0.0155 0.7326 0.6950
C13A C -0.1311(5) 0.6627(4) 0.5199(3)
H14A H -0.1734 0.6043 0.5168
C23A C -0.3511(3) -0.0510(3) 0.6078(3)
F10A F -0.4159(3) -0.1417(2) 0.6324(2)
F11A F -0.4423(2) 0.0362(3) 0.5982(2)
F12A F -0.2918(2) -0.0199(2) 0.50444(17)
C22A C -0.2125(4) -0.3116(4) 1.0149(3)
F7A F -0.1909(4) -0.3044(3) 1.1072(2)
F8A F -0.1206(4) -0.3976(3) 1.0221(3)
F9A F -0.3224(4) -0.3499(4) 1.0285(3)
C18A C 0.2917(4) -0.2814(3) 0.7553(4)
F4A F 0.4115(2) -0.3275(2) 0.7964(3)
F5A F 0.2153(3) -0.3667(2) 0.8102(3)
F6A F 0.2969(3) -0.2559(3) 0.6449(2)
C17A C 0.3666(4) 0.0068(4) 0.8871(4)
F1A F 0.4098(4) 0.1002(4) 0.8054(3)
F2A F 0.4699(3) -0.0699(4) 0.9314(4)
F3A F 0.3144(2) 0.0297(3) 0.9703(2)
C12A C 0.0988(4) 0.2404(3) 0.5813(3)
H13A H 0.1218 0.2331 0.6531
H12A H -0.0382 0.1112 0.4798
C24 C 0.5790(8) 0.5821(8) 0.4253(7)
H17 H 0.6333 0.6395 0.3716
C25 C 0.5932(11) 0.4734(11) 0.4333(10)
H18 H 0.6610 0.4545 0.3871
C26 C 0.4854(11) 0.6091(10) 0.4955(10)
H19 H 0.4764 0.6838 0.4938
C26A C 0.5146(11) 0.3909(10) 0.5045(10)
C24A C 0.4210(8) 0.4179(8) 0.5747(7)
H17A H 0.3667 0.3605 0.6284
C25A C 0.4068(11) 0.5266(11) 0.5667(10)
H18A H 0.3390 0.5455 0.6129
H19A H 0.5236 0.3162 0.5062
loop_
_geom_bond_atom_site_label_1
_geom_bond_atom_site_label_2
_geom_bond_site_symmetry_1
_geom_bond_site_symmetry_2
Mn1 O1 1_555 1_555
F1 C17 1_555 1_555
F2 C17 1_555 1_555
F3 C17 1_555 1_555
F4 C18 1_555 1_555
F5 C18 1_555 1_555
F6 C18 1_555 1_555
F7 C22 1_555 1_555
F8 C22 1_555 1_555
F9 C22 1_555 1_555
F10 C23 1_555 1_555
F11 C23 1_555 1_555
F12 C23 1_555 1_555
O1 C14 1_555 1_555
O2 Mn1 1_555 1_555
O3 Mn1 1_555 1_555
O4 Mn1 1_555 1_555
N1 Mn1 1_555 1_555
N2 Mn1 1_555 1_555
C1 N1 1_555 1_555
H1 C1 1_555 1_555
C2 C1 1_555 1_555
H2 C2 1_555 1_555
C3 C2 1_555 1_555
C4 N1 1_555 1_555
H3 C4 1_555 1_555
C5 C3 1_555 1_555
H4 C5 1_555 1_555
C6 C3 1_555 1_555
H5 C6 1_555 1_555
H6 C6 1_555 1_555
C7 C6 1_555 1_555
H7 C7 1_555 1_555
H8 C7 1_555 1_555
C8 C7 1_555 1_555
H9 C8 1_555 1_555
H10 C8 1_555 1_555
C9 C8 1_555 1_555
C10 C9 1_555 1_555
H11 C10 1_555 1_555
C11 N2 1_555 1_555
H12 C11 1_555 1_555
C12 N2 1_555 1_555
H13 C12 1_555 1_555
C13 C9 1_555 1_555
H14 C13 1_555 1_555
C14 C15 1_555 1_555
C15 H15 1_555 1_555
C16 O2 1_555 1_555
C17 C14 1_555 1_555
C18 C16 1_555 1_555
C19 O3 1_555 1_555
C20 C19 1_555 1_555
H16 C20 1_555 1_555
C21 O4 1_555 1_555
C22 C19 1_555 1_555
C23 C21 1_555 1_555
C24 H17 1_555 1_555
C25 C24 1_555 1_555
H18 C25 1_555 1_555
C26 C24 1_555 1_555
H19 C26 1_555 1_555
C11A C10 1_555 1_555
N2A C11A 1_555 1_555
Mn1A N2A 1_555 1_555
O1A Mn1A 1_555 1_555
C14A O1A 1_555 1_555
C15A C14A 1_555 1_555
H15A C15A 1_555 1_555
C16A C15A 1_555 1_555
O2A Mn1A 1_555 1_555
O3A Mn1A 1_555 1_555
C19A O3A 1_555 1_555
C20A C19A 1_555 1_555
H16A C20A 1_555 1_555
C21A C20A 1_555 1_555
O4A Mn1A 1_555 1_555
N1A Mn1A 1_555 1_555
C1A N1A 1_555 1_555
H1A C1A 1_555 1_555
C2A C1A 1_555 1_555
H2A C2A 1_555 1_555
C3A C2A 1_555 1_555
C5A C3A 1_555 1_555
C4A N1A 1_555 1_555
H3A C4A 1_555 1_555
H4A C5A 1_555 1_555
C6A C3A 1_555 1_555
H5A C6A 1_555 1_555
H6A C6A 1_555 1_555
C7A C6A 1_555 1_555
H7A C7A 1_555 1_555
H8A C7A 1_555 1_555
C8A C7A 1_555 1_555
H9A C8A 1_555 1_555
H10A C8A 1_555 1_555
C9A C8A 1_555 1_555
C10A C11 1_555 1_555
H11A C10A 1_555 1_555
C13A C12 1_555 1_555
H14A C13A 1_555 1_555
C23A C21A 1_555 1_555
F10A C23A 1_555 1_555
F11A C23A 1_555 1_555
F12A C23A 1_555 1_555
C22A C19A 1_555 1_555
F7A C22A 1_555 1_555
F8A C22A 1_555 1_555
F9A C22A 1_555 1_555
C18A C16A 1_555 1_555
F4A C18A 1_555 1_555
F5A C18A 1_555 1_555
F6A C18A 1_555 1_555
C17A C14A 1_555 1_555
F1A C17A 1_555 1_555
F2A C17A 1_555 1_555
F3A C17A 1_555 1_555
C12A C13 1_555 1_555
H13A C12A 1_555 1_555
H12A C11A 1_555 1_555
C26A C25 1_555 1_555
C24A C26A 1_555 1_555
H17A C24A 1_555 1_555
C25A C26 1_555 1_555
H18A C25A 1_555 1_555
H19A C26A 1_555 1_555
C4 C5 1_555 1_555
C15 C16 1_555 1_555
C20 C21 1_555 1_555
N2A C12A 1_555 1_555
C16A O2A 1_555 1_555
C21A O4A 1_555 1_555
C5A C4A 1_555 1_555
C9A C10A 1_555 1_555
C9A C13A 1_555 1_555
C24A C25A 1_555 1_555

#END
