
#######################################################################
#
#                 Cambridge Crystallographic Data Centre
#                                CCDC 
#
#######################################################################
#
# If this CIF has been generated from an entry in the Cambridge 
# Structural Database, then it will include bibliographic, chemical, 
# crystal, experimental, refinement or atomic coordinate data resulting 
# from the CCDC's data processing and validation procedures.
#
#######################################################################

data_OBUGEX
_chemical_formula_moiety         'C26 H18 F6 N2 O8 S2 Zn1'
_chemical_name_systematic        
bis(2-Benzoylpyridine)-bis(trifluoromethanesulfonato)-zinc(ii)
_symmetry_cell_setting           orthorhombic
_symmetry_space_group_name_H-M   'P b c a'
_symmetry_Int_Tables_number      61
_space_group_name_Hall           '-P 2ac 2ab'
loop_
_symmetry_equiv_pos_site_id
_symmetry_equiv_pos_as_xyz
1 x,y,z
2 1/2-x,-y,1/2+z
3 -x,1/2+y,1/2-z
4 1/2+x,1/2-y,-z
5 -x,-y,-z
6 1/2+x,y,1/2-z
7 x,1/2-y,1/2+z
8 1/2-x,1/2+y,z
_cell_length_a                   10.0280(6)
_cell_length_b                   14.9310(15)
_cell_length_c                   19.3420(19)
_cell_angle_alpha                90
_cell_angle_beta                 90
_cell_angle_gamma                90
_cell_volume                     2896.04
_exptl_crystal_colour            colorless
_exptl_crystal_description       isometric
_chemical_melting_point          252deg.C
_cell_formula_units_Z            4
loop_
_atom_site_label
_atom_site_type_symbol
_atom_site_fract_x
_atom_site_fract_y
_atom_site_fract_z
Zn1 Zn 0.0000 0.0000 0.0000
N1 N -0.1631(3) -0.07600(18) 0.02513(16)
O1 O -0.0849(2) 0.07805(16) 0.08009(14)
O2 O 0.1124(3) -0.08406(18) 0.07183(15)
O3 O 0.3451(3) -0.0432(2) 0.06053(16)
O4 O 0.2816(3) -0.17490(18) 0.12595(16)
S1 S 0.24603(10) -0.08788(6) 0.10077(5)
C1 C -0.2422(3) -0.0382(2) 0.07300(17)
C2 C -0.3526(4) -0.0813(2) 0.0994(2)
H1 H -0.4050 -0.0544 0.1332
C3 C -0.3833(4) -0.1663(3) 0.0744(2)
H2 H -0.4561 -0.1976 0.0919
C4 C -0.3047(4) -0.2037(3) 0.0250(2)
H3 H -0.3262 -0.2592 0.0063
C5 C -0.1937(4) -0.1573(2) 0.0013(2)
H4 H -0.1386 -0.1837 -0.0316
C6 C -0.1982(3) 0.0532(2) 0.09497(18)
C7 C -0.2870(4) 0.1146(2) 0.13310(19)
C8 C -0.4199(4) 0.1255(3) 0.1136(2)
H5 H -0.4581 0.0889 0.0801
C9 C -0.4949(5) 0.1911(3) 0.1456(3)
H6 H -0.5825 0.2018 0.1320
C10 C -0.4407(5) 0.2432(3) 0.1964(3)
H7 H -0.4917 0.2869 0.2181
C11 C -0.3106(5) 0.2310(3) 0.2171(2)
H8 H -0.2756 0.2648 0.2533
C12 C -0.2325(4) 0.1676(3) 0.1846(2)
H9 H -0.1436 0.1604 0.1972
C13 C 0.2314(6) -0.0203(3) 0.1778(3)
F1 F 0.1393(4) -0.0510(3) 0.22001(17)
F2 F 0.3449(4) -0.0185(3) 0.21254(18)
F3 F 0.1992(4) 0.0634(2) 0.16199(19)
N1D N 0.1631(3) 0.07600(18) -0.02513(16)
C1D C 0.2422(3) 0.0382(2) -0.07300(17)
C2D C 0.3526(4) 0.0813(2) -0.0994(2)
H1D H 0.4050 0.0544 -0.1332
C3D C 0.3833(4) 0.1663(3) -0.0744(2)
H2D H 0.4561 0.1976 -0.0919
C4D C 0.3047(4) 0.2037(3) -0.0250(2)
H3D H 0.3262 0.2592 -0.0063
C5D C 0.1937(4) 0.1573(2) -0.0013(2)
H4D H 0.1386 0.1837 0.0316
C6D C 0.1982(3) -0.0532(2) -0.09497(18)
O1D O 0.0849(2) -0.07805(16) -0.08009(14)
O2D O -0.1124(3) 0.08406(18) -0.07183(15)
S1D S -0.24603(10) 0.08788(6) -0.10077(5)
O3D O -0.3451(3) 0.0432(2) -0.06053(16)
O4D O -0.2816(3) 0.17490(18) -0.12595(16)
C13D C -0.2314(6) 0.0203(3) -0.1778(3)
F1D F -0.1393(4) 0.0510(3) -0.22001(17)
F2D F -0.3449(4) 0.0185(3) -0.21254(18)
F3D F -0.1992(4) -0.0634(2) -0.16199(19)
C7D C 0.2870(4) -0.1146(2) -0.13310(19)
C8D C 0.4199(4) -0.1255(3) -0.1136(2)
H5D H 0.4581 -0.0889 -0.0801
C9D C 0.4949(5) -0.1911(3) -0.1456(3)
H6D H 0.5825 -0.2018 -0.1320
C10D C 0.4407(5) -0.2432(3) -0.1964(3)
H7D H 0.4917 -0.2869 -0.2181
C11D C 0.3106(5) -0.2310(3) -0.2171(2)
H8D H 0.2756 -0.2648 -0.2533
C12D C 0.2325(4) -0.1676(3) -0.1846(2)
H9D H 0.1436 -0.1604 -0.1972
loop_
_geom_bond_atom_site_label_1
_geom_bond_atom_site_label_2
_geom_bond_site_symmetry_1
_geom_bond_site_symmetry_2
Zn1 N1 1_555 1_555
N1 C1 1_555 1_555
O1 Zn1 1_555 1_555
O2 Zn1 1_555 1_555
O3 S1 1_555 1_555
O4 S1 1_555 1_555
S1 O2 1_555 1_555
C1 C2 1_555 1_555
C2 H1 1_555 1_555
C3 C2 1_555 1_555
H2 C3 1_555 1_555
C4 C3 1_555 1_555
H3 C4 1_555 1_555
C5 N1 1_555 1_555
H4 C5 1_555 1_555
C6 O1 1_555 1_555
C7 C6 1_555 1_555
C8 C7 1_555 1_555
H5 C8 1_555 1_555
C9 C8 1_555 1_555
H6 C9 1_555 1_555
C10 C9 1_555 1_555
H7 C10 1_555 1_555
C11 C10 1_555 1_555
H8 C11 1_555 1_555
C12 C7 1_555 1_555
H9 C12 1_555 1_555
C13 S1 1_555 1_555
F1 C13 1_555 1_555
F2 C13 1_555 1_555
F3 C13 1_555 1_555
N1D Zn1 1_555 1_555
C1D N1D 1_555 1_555
C2D C1D 1_555 1_555
H1D C2D 1_555 1_555
C3D C2D 1_555 1_555
H2D C3D 1_555 1_555
C4D C3D 1_555 1_555
H3D C4D 1_555 1_555
C5D N1D 1_555 1_555
H4D C5D 1_555 1_555
C6D C1D 1_555 1_555
O1D Zn1 1_555 1_555
O2D Zn1 1_555 1_555
S1D O2D 1_555 1_555
O3D S1D 1_555 1_555
O4D S1D 1_555 1_555
C13D S1D 1_555 1_555
F1D C13D 1_555 1_555
F2D C13D 1_555 1_555
F3D C13D 1_555 1_555
C7D C6D 1_555 1_555
C8D C7D 1_555 1_555
H5D C8D 1_555 1_555
C9D C8D 1_555 1_555
H6D C9D 1_555 1_555
C10D C9D 1_555 1_555
H7D C10D 1_555 1_555
C11D C10D 1_555 1_555
H8D C11D 1_555 1_555
C12D C7D 1_555 1_555
H9D C12D 1_555 1_555
C1 C6 1_555 1_555
C4 C5 1_555 1_555
C11 C12 1_555 1_555
C4D C5D 1_555 1_555
C6D O1D 1_555 1_555
C11D C12D 1_555 1_555

#END
