
#######################################################################
#
#                 Cambridge Crystallographic Data Centre
#                                CCDC 
#
#######################################################################
#
# If this CIF has been generated from an entry in the Cambridge 
# Structural Database, then it will include bibliographic, chemical, 
# crystal, experimental, refinement or atomic coordinate data resulting 
# from the CCDC's data processing and validation procedures.
#
#######################################################################

data_OCIKUG
_chemical_formula_moiety         'C34 H40 Ag2 N8 2+,2(F6 P1 1-),2(C2 H3 N1)'
_chemical_name_systematic        
"bis((\m~2~-1,3-bis(Imidazolylmethyl)-2,4,6-trimethylbenzene-N,N')-silver(i)) hexafluorophosphate clathrate hexafluorophosphate acetonitrile solvate"
_symmetry_cell_setting           triclinic
_symmetry_space_group_name_H-M   'P -1'
_symmetry_Int_Tables_number      2
_space_group_name_Hall           '-P 1'
loop_
_symmetry_equiv_pos_site_id
_symmetry_equiv_pos_as_xyz
1 x,y,z
2 -x,-y,-z
_cell_length_a                   8.799(2)
_cell_length_b                   9.907(2)
_cell_length_c                   13.853(3)
_cell_angle_alpha                98.37(3)
_cell_angle_beta                 101.74(3)
_cell_angle_gamma                102.62(3)
_cell_volume                     1130.71
_exptl_crystal_colour            colorless
_cell_formula_units_Z            1
loop_
_atom_site_label
_atom_site_type_symbol
_atom_site_fract_x
_atom_site_fract_y
_atom_site_fract_z
Ag1 Ag 0.00011(7) -0.54988(6) 0.21746(4)
N1 N -0.1933(7) -0.4545(7) 0.1946(4)
N2 N -0.3552(6) -0.3169(6) 0.2170(4)
C1 C -0.4318(7) -0.2082(7) 0.4493(5)
C2 C -0.3763(10) -0.3605(9) 0.1151(5)
H1 H -0.4536 -0.3397 0.0635
C3 C -0.2612(8) -0.0029(7) 0.5682(5)
C4 C -0.3801(7) -0.1273(7) 0.5479(5)
C5 C -0.3732(8) -0.1562(7) 0.3717(5)
C6 C -0.2543(8) -0.0318(7) 0.3917(5)
C7 C -0.1966(8) 0.0424(7) 0.4915(6)
H2 H -0.1118 0.1276 0.5073
C8 C -0.2436(8) -0.3760(7) 0.2620(5)
H3 H -0.2028 -0.3610 0.3335
C9 C -0.4491(9) -0.2306(8) 0.2632(5)
H4 H -0.5522 -0.2912 0.2599
H5 H -0.4660 -0.1611 0.2235
C10 C -0.2796(10) -0.4454(10) 0.1021(5)
H6 H -0.2677 -0.4876 0.0381
C11 C -0.5514(11) -0.3506(8) 0.4281(7)
H7 H -0.5755 -0.3934 0.3581
H8 H -0.5042 -0.4095 0.4679
H9 H -0.6485 -0.3402 0.4462
C12 C -0.1991(11) 0.0895(9) 0.6731(6)
H10 H -0.2527 0.0447 0.7183
H11 H -0.0853 0.1027 0.6962
H12 H -0.2221 0.1795 0.6709
C13 C -0.1865(11) 0.0270(10) 0.3107(7)
H13 H -0.2383 -0.0371 0.2478
H14 H -0.2074 0.1175 0.3073
H15 H -0.0728 0.0365 0.3243
N3 N -0.3729(7) -0.2508(6) 0.6942(4)
C14 C -0.2387(9) -0.2880(8) 0.6898(5)
H16 H -0.1762 -0.2637 0.6426
C15 C -0.4616(9) -0.1705(9) 0.6306(6)
H17 H -0.5691 -0.2262 0.5995
H18 H -0.4675 -0.0872 0.6733
N4 N 0.1956(7) -0.6452(6) 0.2386(4)
C16 C 0.3108(10) -0.6374(9) 0.1847(5)
H19 H 0.3054 -0.6000 0.1242
C17 C -0.4216(10) -0.3002(9) 0.7736(5)
H20 H -0.5169 -0.2933 0.7955
N4A N -0.1956(7) -0.3548(6) 0.7614(4)
Ag1A Ag -0.00011(7) -0.45012(6) 0.78254(4)
N1A N 0.1933(7) -0.5455(7) 0.8054(4)
C8A C 0.2436(8) -0.6240(7) 0.7380(5)
N2A N 0.3552(6) -0.6831(6) 0.7830(4)
C2A C 0.3763(10) -0.6395(9) 0.8849(5)
H1A H 0.4536 -0.6603 0.9365
C10A C 0.2796(10) -0.5546(10) 0.8979(5)
H6A H 0.2677 -0.5124 0.9619
C9A C 0.4491(9) -0.7694(8) 0.7368(5)
C5A C 0.3732(8) -0.8438(7) 0.6283(5)
C1A C 0.4318(7) -0.7918(7) 0.5507(5)
C4A C 0.3801(7) -0.8727(7) 0.4521(5)
C3A C 0.2612(8) -0.9971(7) 0.4318(5)
C7A C 0.1966(8) -1.0424(7) 0.5085(6)
C6A C 0.2543(8) -0.9682(7) 0.6083(5)
C13A C 0.1865(11) -1.0270(10) 0.6893(7)
H13A H 0.2383 -0.9629 0.7522
H14A H 0.2074 -1.1175 0.6927
H15A H 0.0728 -1.0365 0.6757
H2A H 0.1118 -1.1276 0.4927
C12A C 0.1991(11) -1.0895(9) 0.3269(6)
H10A H 0.2527 -1.0447 0.2817
H11A H 0.0853 -1.1027 0.3038
H12A H 0.2221 -1.1795 0.3291
C15A C 0.4616(9) -0.8295(9) 0.3694(6)
N3A N 0.3729(7) -0.7492(6) 0.3058(4)
C14A C 0.2387(9) -0.7120(8) 0.3102(5)
H16A H 0.1762 -0.7363 0.3574
C17A C 0.4216(10) -0.6998(9) 0.2264(5)
H20A H 0.5169 -0.7067 0.2045
H17A H 0.5691 -0.7738 0.4005
H18A H 0.4675 -0.9128 0.3267
C11A C 0.5514(11) -0.6494(8) 0.5719(7)
H7A H 0.5755 -0.6066 0.6419
H8A H 0.5042 -0.5905 0.5321
H9A H 0.6485 -0.6598 0.5538
H4A H 0.5522 -0.7088 0.7401
H5A H 0.4660 -0.8389 0.7765
H3A H 0.2028 -0.6390 0.6665
C16A C -0.3108(10) -0.3626(9) 0.8153(5)
H19A H -0.3054 -0.4000 0.8758
P1 P 0.0000 -0.5000 0.5000
F1 F 0.0645(6) -0.4073(5) 0.4242(3)
F2 F -0.1438(8) -0.4285(8) 0.4971(5)
F4 F 0.1057(8) -0.3840(6) 0.5934(4)
F1A F -0.0645(6) -0.5927(5) 0.5758(3)
F2A F 0.1438(8) -0.5715(8) 0.5029(5)
F4A F -0.1057(8) -0.6160(6) 0.4066(4)
P2 P -0.5000 0.0000 0.0000
F3 F -0.5491(10) -0.0116(8) 0.1036(4)
F5 F -0.3481(10) -0.0554(10) 0.0373(6)
F6 F -0.5988(11) -0.1576(7) -0.0452(6)
F3A F -0.4509(10) 0.0116(8) -0.1036(4)
F5A F -0.6519(10) 0.0554(10) -0.0373(6)
F6A F -0.4012(11) 0.1576(7) 0.0452(6)
N5 N -0.1616(13) -0.6366(11) -0.0942(7)
C18 C -0.1081(14) -0.7210(12) -0.0682(7)
C19 C -0.0432(15) -0.8374(13) -0.0355(9)
loop_
_geom_bond_atom_site_label_1
_geom_bond_atom_site_label_2
_geom_bond_site_symmetry_1
_geom_bond_site_symmetry_2
Ag1 N1 1_555 1_555
N1 C8 1_555 1_555
N2 C2 1_555 1_555
C1 C4 1_555 1_555
C2 H1 1_555 1_555
C3 C4 1_555 1_555
C4 C15 1_555 1_555
C5 C1 1_555 1_555
C6 C5 1_555 1_555
C7 C3 1_555 1_555
H2 C7 1_555 1_555
C8 N2 1_555 1_555
H3 C8 1_555 1_555
C9 N2 1_555 1_555
H4 C9 1_555 1_555
H5 C9 1_555 1_555
C10 N1 1_555 1_555
H6 C10 1_555 1_555
C11 C1 1_555 1_555
H7 C11 1_555 1_555
H8 C11 1_555 1_555
H9 C11 1_555 1_555
C12 C3 1_555 1_555
H10 C12 1_555 1_555
H11 C12 1_555 1_555
H12 C12 1_555 1_555
C13 C6 1_555 1_555
H13 C13 1_555 1_555
H14 C13 1_555 1_555
H15 C13 1_555 1_555
P1 F1 1_555 1_555
P2 F3 1_555 1_555
F2 P1 1_555 1_555
F4 P1 1_555 1_555
F5 P2 1_555 1_555
F6 P2 1_555 1_555
N3 C14 1_555 1_555
C14 H16 1_555 1_555
C15 N3 1_555 1_555
H17 C15 1_555 1_555
H18 C15 1_555 1_555
N4 Ag1 1_555 1_555
C16 N4 1_555 1_555
H19 C16 1_555 1_555
C17 N3 1_555 1_555
H20 C17 1_555 1_555
N5 C18 1_555 1_555
C18 C19 1_555 1_555
N4A C14 1_555 1_555
Ag1A N4A 1_555 1_555
N1A Ag1A 1_555 1_555
C8A N1A 1_555 1_555
N2A C8A 1_555 1_555
C2A N2A 1_555 1_555
H1A C2A 1_555 1_555
C10A N1A 1_555 1_555
H6A C10A 1_555 1_555
C9A N2A 1_555 1_555
C5A C9A 1_555 1_555
C1A C5A 1_555 1_555
C4A C1A 1_555 1_555
C3A C4A 1_555 1_555
C7A C3A 1_555 1_555
C6A C5A 1_555 1_555
C13A C6A 1_555 1_555
H13A C13A 1_555 1_555
H14A C13A 1_555 1_555
H15A C13A 1_555 1_555
H2A C7A 1_555 1_555
C12A C3A 1_555 1_555
H10A C12A 1_555 1_555
H11A C12A 1_555 1_555
H12A C12A 1_555 1_555
C15A C4A 1_555 1_555
N3A C15A 1_555 1_555
C14A N4 1_555 1_555
H16A C14A 1_555 1_555
C17A C16 1_555 1_555
H20A C17A 1_555 1_555
H17A C15A 1_555 1_555
H18A C15A 1_555 1_555
C11A C1A 1_555 1_555
H7A C11A 1_555 1_555
H8A C11A 1_555 1_555
H9A C11A 1_555 1_555
H4A C9A 1_555 1_555
H5A C9A 1_555 1_555
H3A C8A 1_555 1_555
C16A C17 1_555 1_555
H19A C16A 1_555 1_555
F1A P1 1_555 1_555
F2A P1 1_555 1_555
F4A P1 1_555 1_555
F3A P2 1_555 1_555
F5A P2 1_555 1_555
F6A P2 1_555 1_555
C2 C10 1_555 1_555
C5 C9 1_555 1_555
C6 C7 1_555 1_555
N4A C16A 1_555 1_555
C2A C10A 1_555 1_555
C7A C6A 1_555 1_555
N3A C14A 1_555 1_555
N3A C17A 1_555 1_555

#END
