# generated using pymatgen
data_H156Pd6C133(N5O6)9
_symmetry_space_group_name_H-M   'P 1'
_cell_length_a   25.66930000
_cell_length_b   25.78170000
_cell_length_c   31.99540000
_cell_angle_alpha   97.70210000
_cell_angle_beta   96.53340000
_cell_angle_gamma   101.11700000
_symmetry_Int_Tables_number   1
_chemical_formula_structural   H156Pd6C133(N5O6)9
_chemical_formula_sum   'H624 Pd24 C532 N180 O216'
_cell_volume   20376.35990692
_cell_formula_units_Z   4
loop_
 _symmetry_equiv_pos_site_id
 _symmetry_equiv_pos_as_xyz
  1  'x, y, z'
loop_
 _atom_site_type_symbol
 _atom_site_label
 _atom_site_symmetry_multiplicity
 _atom_site_fract_x
 _atom_site_fract_y
 _atom_site_fract_z
 _atom_site_occupancy
  H  H1  1  0.542900  0.619700  0.821700  1
  H  H2  1  0.457100  0.380300  0.178300  1
  H  H3  1  0.499500  0.540000  0.849800  1
  H  H4  1  0.500500  0.460000  0.150200  1
  H  H5  1  0.648500  0.538600  0.909400  1
  H  H6  1  0.351500  0.461400  0.090600  1
  H  H7  1  0.680000  0.614200  0.880000  1
  H  H8  1  0.320000  0.385800  0.120000  1
  H  H9  1  0.717200  0.408200  0.004600  1
  H  H10  1  0.282800  0.591800  0.995400  1
  H  H11  1  0.663100  0.450800  0.967100  1
  H  H12  1  0.336900  0.549200  0.032900  1
  H  H13  1  0.540400  0.326100  0.965200  1
  H  H14  1  0.459600  0.673900  0.034800  1
  H  H15  1  0.598500  0.285600  0.003600  1
  H  H16  1  0.401500  0.714400  0.996400  1
  H  H17  1  0.339200  0.273400  0.880800  1
  H  H18  1  0.660800  0.726600  0.119200  1
  H  H19  1  0.427000  0.314900  0.905100  1
  H  H20  1  0.573000  0.685100  0.094900  1
  H  H21  1  0.398300  0.438200  0.849600  1
  H  H22  1  0.601700  0.561800  0.150400  1
  H  H23  1  0.311200  0.386600  0.820500  1
  H  H24  1  0.688800  0.613400  0.179500  1
  H  H25  1  0.478600  0.422300  0.544700  1
  H  H26  1  0.521400  0.577700  0.455300  1
  H  H27  1  0.547000  0.461800  0.598300  1
  H  H28  1  0.453000  0.538200  0.401700  1
  H  H29  1  0.638600  0.363800  0.550200  1
  H  H30  1  0.361400  0.636200  0.449800  1
  H  H31  1  0.566000  0.332500  0.494500  1
  H  H32  1  0.434000  0.667500  0.505500  1
  H  H33  1  0.825600  0.323900  0.618600  1
  H  H34  1  0.174400  0.676100  0.381400  1
  H  H35  1  0.750100  0.357200  0.605800  1
  H  H36  1  0.249900  0.642800  0.394200  1
  H  H37  1  0.815700  0.473800  0.706200  1
  H  H38  1  0.184300  0.526200  0.293800  1
  H  H39  1  0.888600  0.439500  0.714000  1
  H  H40  1  0.111400  0.560500  0.286000  1
  H  H41  1  0.726800  0.615200  0.798900  1
  H  H42  1  0.273200  0.384800  0.201100  1
  H  H43  1  0.741000  0.546800  0.748700  1
  H  H44  1  0.259000  0.453200  0.251300  1
  H  H45  1  0.597300  0.552700  0.682500  1
  H  H46  1  0.402700  0.447300  0.317500  1
  H  H47  1  0.590000  0.621500  0.735800  1
  H  H48  1  0.410000  0.378500  0.264200  1
  H  H49  1  0.623400  0.032400  0.672400  1
  H  H50  1  0.376600  0.967600  0.327600  1
  H  H51  1  0.680800  0.108800  0.706200  1
  H  H52  1  0.319200  0.891200  0.293800  1
  H  H53  1  0.613100  0.097300  0.811600  1
  H  H54  1  0.386900  0.902700  0.188400  1
  H  H55  1  0.556700  0.013900  0.774800  1
  H  H56  1  0.443300  0.986100  0.225200  1
  H  H57  1  0.907600  0.349700  0.769600  1
  H  H58  1  0.092400  0.650300  0.230400  1
  H  H59  1  0.840900  0.313400  0.807100  1
  H  H60  1  0.159100  0.686600  0.192900  1
  H  H61  1  0.780300  0.203900  0.705900  1
  H  H62  1  0.219700  0.796100  0.294100  1
  H  H63  1  0.843100  0.248800  0.669100  1
  H  H64  1  0.156900  0.751200  0.330900  1
  H  H65  1  0.663100  0.211900  0.969500  1
  H  H66  1  0.336900  0.788100  0.030500  1
  H  H67  1  0.662400  0.179900  0.899500  1
  H  H68  1  0.337600  0.820100  0.100500  1
  H  H69  1  0.783700  0.300500  0.896400  1
  H  H70  1  0.216300  0.699500  0.103600  1
  H  H71  1  0.781300  0.329100  0.969000  1
  H  H72  1  0.218700  0.670900  0.031000  1
  H  H73  1  0.476600  0.233600  0.499100  1
  H  H74  1  0.523400  0.766400  0.500900  1
  H  H75  1  0.456100  0.179700  0.550300  1
  H  H76  1  0.543900  0.820300  0.449700  1
  H  H77  1  0.366500  0.285300  0.592000  1
  H  H78  1  0.633500  0.714700  0.408000  1
  H  H79  1  0.389000  0.333400  0.539100  1
  H  H80  1  0.611000  0.666600  0.460900  1
  H  H81  1  0.443500  0.997400  0.715900  1
  H  H82  1  0.556500  0.002600  0.284100  1
  H  H83  1  0.411600  0.070800  0.710500  1
  H  H84  1  0.588400  0.929200  0.289500  1
  H  H85  1  0.483600  0.089700  0.605800  1
  H  H86  1  0.516400  0.910300  0.394200  1
  H  H87  1  0.523900  0.022600  0.620400  1
  H  H88  1  0.476100  0.977400  0.379600  1
  H  H89  1  0.270500  0.303100  0.733900  1
  H  H90  1  0.729500  0.696900  0.266100  1
  H  H91  1  0.316700  0.272900  0.680900  1
  H  H92  1  0.683300  0.727100  0.319100  1
  H  H93  1  0.356400  0.164500  0.750100  1
  H  H94  1  0.643600  0.835500  0.249900  1
  H  H95  1  0.303900  0.190400  0.798000  1
  H  H96  1  0.696100  0.809600  0.202000  1
  H  H97  1  0.270600  0.312100  0.922900  1
  H  H98  1  0.729400  0.687900  0.077100  1
  H  H99  1  0.234600  0.253500  0.910300  1
  H  H100  1  0.765400  0.746500  0.089700  1
  H  H101  1  0.212300  0.299400  0.936000  1
  H  H102  1  0.787700  0.700600  0.064000  1
  H  H103  1  0.244700  0.381300  0.892500  1
  H  H104  1  0.755300  0.618700  0.107500  1
  H  H105  1  0.181300  0.369700  0.888500  1
  H  H106  1  0.818700  0.630300  0.111500  1
  H  H107  1  0.209600  0.372900  0.847200  1
  H  H108  1  0.790400  0.627100  0.152800  1
  H  H109  1  0.145200  0.244200  0.873200  1
  H  H110  1  0.854800  0.755800  0.126800  1
  H  H111  1  0.126200  0.295600  0.861500  1
  H  H112  1  0.873800  0.704400  0.138500  1
  H  H113  1  0.123200  0.275700  0.802400  1
  H  H114  1  0.876800  0.724300  0.197600  1
  H  H115  1  0.106600  0.220400  0.818000  1
  H  H116  1  0.893400  0.779600  0.182000  1
  H  H117  1  0.204100  0.168200  0.769100  1
  H  H118  1  0.795900  0.831800  0.230900  1
  H  H119  1  0.143600  0.150900  0.776300  1
  H  H120  1  0.856400  0.849100  0.223700  1
  H  H121  1  0.189900  0.164900  0.815700  1
  H  H122  1  0.810100  0.835100  0.184300  1
  H  H123  1  0.160600  0.280900  0.754100  1
  H  H124  1  0.839400  0.719100  0.245900  1
  H  H125  1  0.116500  0.227000  0.744200  1
  H  H126  1  0.883500  0.773000  0.255800  1
  H  H127  1  0.173900  0.228200  0.730300  1
  H  H128  1  0.826100  0.771800  0.269700  1
  H  H129  1  0.415000  0.840400  0.646700  1
  H  H130  1  0.585000  0.159600  0.353300  1
  H  H131  1  0.415100  0.898200  0.634900  1
  H  H132  1  0.584900  0.101800  0.365100  1
  H  H133  1  0.428600  0.891000  0.683100  1
  H  H134  1  0.571400  0.109000  0.316900  1
  H  H135  1  0.497500  0.923200  0.598700  1
  H  H136  1  0.502500  0.076800  0.401300  1
  H  H137  1  0.446300  0.875700  0.588800  1
  H  H138  1  0.553700  0.124300  0.411200  1
  H  H139  1  0.504400  0.863100  0.590300  1
  H  H140  1  0.495600  0.136900  0.409700  1
  H  H141  1  0.488200  0.832000  0.690200  1
  H  H142  1  0.511800  0.168000  0.309800  1
  H  H143  1  0.494200  0.808500  0.643300  1
  H  H144  1  0.505800  0.191500  0.356700  1
  H  H145  1  0.573400  0.844800  0.650300  1
  H  H146  1  0.426600  0.155200  0.349700  1
  H  H147  1  0.563600  0.817500  0.690900  1
  H  H148  1  0.436400  0.182500  0.309100  1
  H  H149  1  0.606600  0.868100  0.756300  1
  H  H150  1  0.393400  0.131900  0.243700  1
  H  H151  1  0.545400  0.872000  0.751000  1
  H  H152  1  0.454600  0.128000  0.249000  1
  H  H153  1  0.590700  0.924400  0.766500  1
  H  H154  1  0.409300  0.075600  0.233500  1
  H  H155  1  0.639800  0.925400  0.666667  1
  H  H156  1  0.360200  0.074600  0.333333  1
  H  H157  1  0.658700  0.884600  0.694900  1
  H  H158  1  0.341300  0.115400  0.305100  1
  H  H159  1  0.660300  0.944300  0.715900  1
  H  H160  1  0.339700  0.055700  0.284100  1
  H  H161  1  0.386000  0.224200  0.440100  1
  H  H162  1  0.614000  0.775800  0.559900  1
  H  H163  1  0.418300  0.233100  0.401400  1
  H  H164  1  0.581700  0.766900  0.598600  1
  H  H165  1  0.354800  0.222500  0.394100  1
  H  H166  1  0.645200  0.777500  0.605900  1
  H  H167  1  0.330300  0.330000  0.417400  1
  H  H168  1  0.669700  0.670000  0.582600  1
  H  H169  1  0.343700  0.313800  0.462800  1
  H  H170  1  0.656300  0.686200  0.537200  1
  H  H171  1  0.316300  0.269100  0.423300  1
  H  H172  1  0.683700  0.730900  0.576700  1
  H  H173  1  0.365400  0.317200  0.365700  1
  H  H174  1  0.634600  0.682800  0.634300  1
  H  H175  1  0.420800  0.298200  0.367600  1
  H  H176  1  0.579200  0.701800  0.632400  1
  H  H177  1  0.404800  0.397800  0.406000  1
  H  H178  1  0.595200  0.602200  0.594000  1
  H  H179  1  0.439300  0.388900  0.368800  1
  H  H180  1  0.560700  0.611100  0.631200  1
  H  H181  1  0.549900  0.382700  0.445500  1
  H  H182  1  0.450100  0.617300  0.554500  1
  H  H183  1  0.542300  0.416800  0.408400  1
  H  H184  1  0.457700  0.583200  0.591600  1
  H  H185  1  0.526600  0.353400  0.398400  1
  H  H186  1  0.473400  0.646600  0.601600  1
  H  H187  1  0.474000  0.464500  0.427000  1
  H  H188  1  0.526000  0.535500  0.573000  1
  H  H189  1  0.529400  0.458500  0.451100  1
  H  H190  1  0.470600  0.541500  0.548900  1
  H  H191  1  0.477100  0.448900  0.473300  1
  H  H192  1  0.522900  0.551100  0.526700  1
  H  H193  1  0.711100  0.202300  0.033900  1
  H  H194  1  0.288900  0.797700  0.966100  1
  H  H195  1  0.739800  0.189300  0.076500  1
  H  H196  1  0.260200  0.810700  0.923500  1
  H  H197  1  0.768500  0.188200  0.035300  1
  H  H198  1  0.231500  0.811800  0.964700  1
  H  H199  1  0.847400  0.272000  0.075600  1
  H  H200  1  0.152600  0.728000  0.924400  1
  H  H201  1  0.828200  0.313200  0.048000  1
  H  H202  1  0.171800  0.686800  0.952000  1
  H  H203  1  0.822300  0.252600  0.027200  1
  H  H204  1  0.177700  0.747400  0.972800  1
  H  H205  1  0.759200  0.242800  0.122400  1
  H  H206  1  0.240800  0.757200  0.877600  1
  H  H207  1  0.805300  0.293900  0.125900  1
  H  H208  1  0.194700  0.706100  0.874100  1
  H  H209  1  0.762300  0.331300  0.146900  1
  H  H210  1  0.237700  0.668700  0.853100  1
  H  H211  1  0.714400  0.281500  0.137900  1
  H  H212  1  0.285600  0.718500  0.862100  1
  H  H213  1  0.641800  0.285000  0.106600  1
  H  H214  1  0.358200  0.715000  0.893400  1
  H  H215  1  0.630900  0.334600  0.085200  1
  H  H216  1  0.369100  0.665400  0.914800  1
  H  H217  1  0.651800  0.342500  0.134600  1
  H  H218  1  0.348200  0.657500  0.865400  1
  H  H219  1  0.712700  0.410100  0.088000  1
  H  H220  1  0.287300  0.589900  0.912000  1
  H  H221  1  0.769400  0.396600  0.100900  1
  H  H222  1  0.230600  0.603400  0.899100  1
  H  H223  1  0.731900  0.405900  0.136000  1
  H  H224  1  0.268100  0.594100  0.864000  1
  H  H225  1  0.762900  0.744300  0.820300  1
  H  H226  1  0.237100  0.255700  0.179700  1
  H  H227  1  0.765900  0.775800  0.781100  1
  H  H228  1  0.234100  0.224200  0.218900  1
  H  H229  1  0.752900  0.712400  0.773200  1
  H  H230  1  0.247100  0.287600  0.226800  1
  H  H231  1  0.672300  0.776800  0.737000  1
  H  H232  1  0.327700  0.223200  0.263000  1
  H  H233  1  0.630400  0.723700  0.739200  1
  H  H234  1  0.369600  0.276300  0.260800  1
  H  H235  1  0.687600  0.720300  0.726200  1
  H  H236  1  0.312400  0.279700  0.273800  1
  H  H237  1  0.705100  0.824700  0.811100  1
  H  H238  1  0.294900  0.175300  0.188900  1
  H  H239  1  0.643000  0.799900  0.798000  1
  H  H240  1  0.357000  0.200100  0.202000  1
  H  H241  1  0.654500  0.820300  0.863700  1
  H  H242  1  0.345500  0.179700  0.136300  1
  H  H243  1  0.707900  0.799000  0.869300  1
  H  H244  1  0.292100  0.201000  0.130700  1
  H  H245  1  0.641700  0.710200  0.918800  1
  H  H246  1  0.358300  0.289800  0.081200  1
  H  H247  1  0.679500  0.767800  0.925000  1
  H  H248  1  0.320500  0.232200  0.075000  1
  H  H249  1  0.697800  0.717600  0.901700  1
  H  H250  1  0.302200  0.282400  0.098300  1
  H  H251  1  0.569800  0.716700  0.882300  1
  H  H252  1  0.430200  0.283300  0.117700  1
  H  H253  1  0.567600  0.739100  0.838600  1
  H  H254  1  0.432400  0.260900  0.161400  1
  H  H255  1  0.583900  0.779300  0.882200  1
  H  H256  1  0.416100  0.220700  0.117800  1
  H  H257  1  0.981600  0.301300  0.752100  1
  H  H258  1  0.018400  0.698700  0.247900  1
  H  H259  1  0.022600  0.352100  0.744300  1
  H  H260  1  0.977400  0.647900  0.255700  1
  H  H261  1  0.038900  0.295700  0.740700  1
  H  H262  1  0.961100  0.704300  0.259300  1
  H  H263  1  0.004700  0.231900  0.672200  1
  H  H264  1  0.995300  0.768100  0.327800  1
  H  H265  1  0.947300  0.238800  0.653000  1
  H  H266  1  0.052700  0.761200  0.347000  1
  H  H267  1  0.957800  0.228200  0.700500  1
  H  H268  1  0.042200  0.771800  0.299500  1
  H  H269  1  0.069700  0.339800  0.681100  1
  H  H270  1  0.930300  0.660200  0.318900  1
  H  H271  1  0.039600  0.294600  0.642700  1
  H  H272  1  0.960400  0.705400  0.357300  1
  H  H273  1  0.026500  0.348900  0.613400  1
  H  H274  1  0.973500  0.651100  0.386600  1
  H  H275  1  0.049500  0.392400  0.653400  1
  H  H276  1  0.950500  0.607600  0.346600  1
  H  H277  1  0.952500  0.448000  0.643200  1
  H  H278  1  0.047500  0.552000  0.356800  1
  H  H279  1  0.012500  0.451000  0.634700  1
  H  H280  1  0.987500  0.549000  0.365300  1
  H  H281  1  0.996800  0.442400  0.680100  1
  H  H282  1  0.003200  0.557600  0.319900  1
  H  H283  1  0.921800  0.390600  0.589900  1
  H  H284  1  0.078200  0.609400  0.410100  1
  H  H285  1  0.928500  0.330800  0.589600  1
  H  H286  1  0.071500  0.669200  0.410400  1
  H  H287  1  0.973500  0.373000  0.575100  1
  H  H288  1  0.026500  0.627000  0.424900  1
  H  H289  1  0.362200  0.922000  0.924400  1
  H  H290  1  0.637800  0.078000  0.075600  1
  H  H291  1  0.349400  0.862000  0.860400  1
  H  H292  1  0.650600  0.138000  0.139600  1
  H  H293  1  0.307000  0.981700  0.799500  1
  H  H294  1  0.693000  0.018300  0.200500  1
  H  H295  1  0.327200  0.037000  0.865400  1
  H  H296  1  0.672800  0.963000  0.134600  1
  H  H297  1  0.282900  0.005000  0.635600  1
  H  H298  1  0.717100  0.995000  0.364400  1
  H  H299  1  0.306700  0.972100  0.697400  1
  H  H300  1  0.693300  0.027900  0.302600  1
  H  H301  1  0.292400  0.825600  0.629100  1
  H  H302  1  0.707600  0.174400  0.370900  1
  H  H303  1  0.275000  0.863500  0.569800  1
  H  H304  1  0.725000  0.136500  0.430200  1
  H  H305  1  0.315300  0.639300  0.672600  1
  H  H306  1  0.684700  0.360700  0.327400  1
  H  H307  1  0.314500  0.733600  0.669300  1
  H  H308  1  0.685500  0.266400  0.330700  1
  H  H309  1  0.355100  0.744900  0.800300  1
  H  H310  1  0.644900  0.255100  0.199700  1
  H  H311  1  0.349600  0.655100  0.788900  1
  H  H312  1  0.650400  0.344900  0.211100  1
  H  H313  1  0.165200  0.867400  0.525900  1
  H  H314  1  0.834800  0.132600  0.474100  1
  H  H315  1  0.080500  0.835400  0.546700  1
  H  H316  1  0.919500  0.164600  0.453300  1
  H  H317  1  0.097200  0.975800  0.621100  1
  H  H318  1  0.902800  0.024200  0.378900  1
  H  H319  1  0.175700  0.007400  0.596800  1
  H  H320  1  0.824300  0.992600  0.403200  1
  H  H321  1  0.971600  0.042900  0.729900  1
  H  H322  1  0.028400  0.957100  0.270100  1
  H  H323  1  0.001900  0.993600  0.678600  1
  H  H324  1  0.998100  0.006400  0.321400  1
  H  H325  1  0.881800  0.871200  0.682500  1
  H  H326  1  0.118200  0.128800  0.317500  1
  H  H327  1  0.844800  0.927800  0.726100  1
  H  H328  1  0.155200  0.072200  0.273900  1
  H  H329  1  0.826800  0.669800  0.592400  1
  H  H330  1  0.173200  0.330200  0.407600  1
  H  H331  1  0.867700  0.754300  0.621400  1
  H  H332  1  0.132300  0.245700  0.378600  1
  H  H333  1  0.978300  0.739700  0.540300  1
  H  H334  1  0.021700  0.260300  0.459700  1
  H  H335  1  0.936800  0.651800  0.524000  1
  H  H336  1  0.063200  0.348200  0.476000  1
  H  H337  1  0.250500  0.060800  0.931200  1
  H  H338  1  0.749500  0.939200  0.068800  1
  H  H339  1  0.160800  0.026000  0.917800  1
  H  H340  1  0.839200  0.974000  0.082200  1
  H  H341  1  0.186400  0.905200  0.978300  1
  H  H342  1  0.813600  0.094800  0.021700  1
  H  H343  1  0.278900  0.942600  0.987000  1
  H  H344  1  0.721100  0.057400  0.013000  1
  H  H345  1  0.868000  0.946700  0.834800  1
  H  H346  1  0.132000  0.053300  0.165200  1
  H  H347  1  0.920800  0.904400  0.874500  1
  H  H348  1  0.079200  0.095600  0.125500  1
  H  H349  1  0.045300  0.030500  0.876900  1
  H  H350  1  0.954700  0.969500  0.123100  1
  H  H351  1  0.990100  0.060400  0.828400  1
  H  H352  1  0.009900  0.939600  0.171600  1
  H  H353  1  0.051000  0.713900  0.986100  1
  H  H354  1  0.949000  0.286100  0.013900  1
  H  H355  1  0.086400  0.802400  0.979100  1
  H  H356  1  0.913600  0.197600  0.020900  1
  H  H357  1  0.938300  0.805100  0.916200  1
  H  H358  1  0.061700  0.194900  0.083800  1
  H  H359  1  0.914700  0.714700  0.922900  1
  H  H360  1  0.085300  0.285300  0.077100  1
  H  H361  1  0.962600  0.559900  0.565000  1
  H  H362  1  0.037400  0.440100  0.435000  1
  H  H363  1  0.019800  0.564200  0.623700  1
  H  H364  1  0.980200  0.435800  0.376300  1
  H  H365  1  0.903300  0.577700  0.695300  1
  H  H366  1  0.096700  0.422300  0.304700  1
  H  H367  1  0.844400  0.572500  0.635400  1
  H  H368  1  0.155600  0.427500  0.364600  1
  H  H369  1  0.254000  0.556600  0.786400  1
  H  H370  1  0.746000  0.443400  0.213600  1
  H  H371  1  0.165800  0.562400  0.793000  1
  H  H372  1  0.834200  0.437600  0.207000  1
  H  H373  1  0.134700  0.568300  0.665700  1
  H  H374  1  0.865300  0.431700  0.334300  1
  H  H375  1  0.234300  0.579200  0.665400  1
  H  H376  1  0.765700  0.420800  0.334600  1
  H  H377  1  0.908800  0.624000  0.864800  1
  H  H378  1  0.091200  0.376000  0.135200  1
  H  H379  1  0.937900  0.620100  0.799100  1
  H  H380  1  0.062100  0.379900  0.200900  1
  H  H381  1  0.079700  0.594400  0.854300  1
  H  H382  1  0.920300  0.405600  0.145700  1
  H  H383  1  0.049600  0.611100  0.921400  1
  H  H384  1  0.950400  0.388900  0.078600  1
  H  H385  1  0.434300  0.124900  0.932400  1
  H  H386  1  0.565700  0.875100  0.067600  1
  H  H387  1  0.419200  0.072000  0.898100  1
  H  H388  1  0.580800  0.928000  0.101900  1
  H  H389  1  0.479400  0.093900  0.920000  1
  H  H390  1  0.520600  0.906100  0.080000  1
  H  H391  1  0.457000  0.989600  0.967600  1
  H  H392  1  0.543000  0.010400  0.032400  1
  H  H393  1  0.500200  0.031000  0.950400  1
  H  H394  1  0.499800  0.969000  0.049600  1
  H  H395  1  0.449300  0.996800  0.919100  1
  H  H396  1  0.550700  0.003200  0.080900  1
  H  H397  1  0.461100  0.062200  0.019600  1
  H  H398  1  0.538900  0.937800  0.980400  1
  H  H399  1  0.481000  0.115000  0.001100  1
  H  H400  1  0.519000  0.885000  0.998900  1
  H  H401  1  0.413600  0.143400  0.009800  1
  H  H402  1  0.586400  0.856600  0.990200  1
  H  H403  1  0.428600  0.119100  0.051200  1
  H  H404  1  0.571400  0.880900  0.948800  1
  H  H405  1  0.287200  0.094800  0.005200  1
  H  H406  1  0.712800  0.905200  0.994800  1
  H  H407  1  0.333600  0.140600  0.996600  1
  H  H408  1  0.666400  0.859400  0.003400  1
  H  H409  1  0.325000  0.133900  0.044000  1
  H  H410  1  0.675000  0.866100  0.956000  1
  H  H411  1  0.329600  0.013400  0.039400  1
  H  H412  1  0.670400  0.986600  0.960600  1
  H  H413  1  0.328900  0.067500  0.069100  1
  H  H414  1  0.671100  0.932500  0.930900  1
  H  H415  1  0.383400  0.047700  0.067000  1
  H  H416  1  0.616600  0.952300  0.933000  1
  H  H417  1  0.967000  0.512600  0.918900  1
  H  H418  1  0.033000  0.487400  0.081100  1
  H  H419  1  0.955600  0.485000  0.959200  1
  H  H420  1  0.044400  0.515000  0.040800  1
  H  H421  1  0.999300  0.538800  0.964300  1
  H  H422  1  0.000700  0.461200  0.035700  1
  H  H423  1  0.873600  0.487700  0.919400  1
  H  H424  1  0.126400  0.512300  0.080600  1
  H  H425  1  0.890200  0.537200  0.895700  1
  H  H426  1  0.109800  0.462800  0.104300  1
  H  H427  1  0.848100  0.538700  0.928100  1
  H  H428  1  0.151900  0.461300  0.071900  1
  H  H429  1  0.877400  0.516900  0.996700  1
  H  H430  1  0.122600  0.483100  0.003300  1
  H  H431  1  0.938200  0.537100  0.017000  1
  H  H432  1  0.061800  0.462900  0.983000  1
  H  H433  1  0.901900  0.586400  0.050500  1
  H  H434  1  0.098100  0.413600  0.949500  1
  H  H435  1  0.858500  0.587300  0.011900  1
  H  H436  1  0.141500  0.412700  0.988100  1
  H  H437  1  0.957500  0.671300  0.076700  1
  H  H438  1  0.042500  0.328700  0.923300  1
  H  H439  1  0.990900  0.697600  0.043300  1
  H  H440  1  0.009100  0.302400  0.956700  1
  H  H441  1  0.993500  0.638700  0.051200  1
  H  H442  1  0.006500  0.361300  0.948800  1
  H  H443  1  0.866800  0.676100  0.992000  1
  H  H444  1  0.133200  0.323900  0.008000  1
  H  H445  1  0.914400  0.717800  0.021700  1
  H  H446  1  0.085600  0.282200  0.978300  1
  H  H447  1  0.872300  0.679200  0.042200  1
  H  H448  1  0.127700  0.320800  0.957800  1
  H  H449  1  0.478400  0.585800  0.741900  1
  H  H450  1  0.521600  0.414200  0.258100  1
  H  H451  1  0.440400  0.571700  0.776300  1
  H  H452  1  0.559600  0.428300  0.223700  1
  H  H453  1  0.442800  0.626100  0.758000  1
  H  H454  1  0.557200  0.373900  0.242000  1
  H  H455  1  0.452100  0.583900  0.675700  1
  H  H456  1  0.547900  0.416100  0.324300  1
  H  H457  1  0.420300  0.628600  0.690000  1
  H  H458  1  0.579700  0.371400  0.310000  1
  H  H459  1  0.391600  0.578300  0.655500  1
  H  H460  1  0.608400  0.421700  0.344500  1
  H  H461  1  0.427400  0.505700  0.680800  1
  H  H462  1  0.572600  0.494300  0.319200  1
  H  H463  1  0.435700  0.502700  0.729900  1
  H  H464  1  0.564300  0.497300  0.270100  1
  H  H465  1  0.377900  0.441900  0.721000  1
  H  H466  1  0.622100  0.558100  0.279000  1
  H  H467  1  0.369000  0.445400  0.671700  1
  H  H468  1  0.631000  0.554600  0.328300  1
  H  H469  1  0.318000  0.424700  0.741600  1
  H  H470  1  0.682000  0.575300  0.258400  1
  H  H471  1  0.261300  0.439800  0.732300  1
  H  H472  1  0.738700  0.560200  0.267700  1
  H  H473  1  0.307900  0.479300  0.764800  1
  H  H474  1  0.692100  0.520700  0.235200  1
  H  H475  1  0.290100  0.424000  0.652900  1
  H  H476  1  0.709900  0.576000  0.347100  1
  H  H477  1  0.290500  0.483000  0.644000  1
  H  H478  1  0.709500  0.517000  0.356000  1
  H  H479  1  0.245600  0.454000  0.668200  1
  H  H480  1  0.754400  0.546000  0.331800  1
  H  H481  1  0.821800  0.456300  0.578700  1
  H  H482  1  0.178200  0.543700  0.421300  1
  H  H483  1  0.767700  0.431700  0.547200  1
  H  H484  1  0.232300  0.568300  0.452800  1
  H  H485  1  0.775200  0.488500  0.575800  1
  H  H486  1  0.224800  0.511500  0.424200  1
  H  H487  1  0.883900  0.465400  0.536100  1
  H  H488  1  0.116100  0.534600  0.463900  1
  H  H489  1  0.872200  0.478000  0.489300  1
  H  H490  1  0.127800  0.522000  0.510700  1
  H  H491  1  0.839600  0.425300  0.502200  1
  H  H492  1  0.160400  0.574700  0.497800  1
  H  H493  1  0.760400  0.453300  0.476100  1
  H  H494  1  0.239600  0.546700  0.523900  1
  H  H495  1  0.738000  0.488700  0.511000  1
  H  H496  1  0.262000  0.511300  0.489000  1
  H  H497  1  0.730900  0.524600  0.460300  1
  H  H498  1  0.269100  0.475400  0.539700  1
  H  H499  1  0.784900  0.513500  0.445700  1
  H  H500  1  0.215100  0.486500  0.554300  1
  H  H501  1  0.734800  0.615400  0.475700  1
  H  H502  1  0.265200  0.384600  0.524300  1
  H  H503  1  0.774000  0.643500  0.517900  1
  H  H504  1  0.226000  0.356500  0.482100  1
  H  H505  1  0.732600  0.589300  0.517700  1
  H  H506  1  0.267400  0.410700  0.482300  1
  H  H507  1  0.798000  0.612200  0.435600  1
  H  H508  1  0.202000  0.387800  0.564400  1
  H  H509  1  0.845600  0.582700  0.445500  1
  H  H510  1  0.154400  0.417300  0.554500  1
  H  H511  1  0.846400  0.639400  0.472100  1
  H  H512  1  0.153600  0.360600  0.527900  1
  H  H513  1  0.903800  0.112500  0.875500  1
  H  H514  1  0.096200  0.887500  0.124500  1
  H  H515  1  0.874000  0.154300  0.856400  1
  H  H516  1  0.126000  0.845700  0.143600  1
  H  H517  1  0.919200  0.133500  0.833200  1
  H  H518  1  0.080800  0.866500  0.166800  1
  H  H519  1  0.809800  0.011900  0.839900  1
  H  H520  1  0.190200  0.988100  0.160100  1
  H  H521  1  0.791600  0.063700  0.860500  1
  H  H522  1  0.208400  0.936300  0.139500  1
  H  H523  1  0.846700  0.050800  0.879200  1
  H  H524  1  0.153300  0.949200  0.120800  1
  H  H525  1  0.774800  0.085100  0.801300  1
  H  H526  1  0.225200  0.914900  0.198700  1
  H  H527  1  0.814900  0.141100  0.812500  1
  H  H528  1  0.185100  0.858900  0.187500  1
  H  H529  1  0.836300  0.138900  0.756100  1
  H  H530  1  0.163700  0.861100  0.243900  1
  H  H531  1  0.777800  0.103300  0.744500  1
  H  H532  1  0.222200  0.896700  0.255500  1
  H  H533  1  0.857300  0.055700  0.677700  1
  H  H534  1  0.142700  0.944300  0.322300  1
  H  H535  1  0.897600  0.099600  0.711900  1
  H  H536  1  0.102400  0.900400  0.288100  1
  H  H537  1  0.842500  0.111600  0.692100  1
  H  H538  1  0.157500  0.888400  0.307900  1
  H  H539  1  0.787700  0.991200  0.734200  1
  H  H540  1  0.212300  0.008800  0.265800  1
  H  H541  1  0.797500  0.003500  0.688200  1
  H  H542  1  0.202500  0.996500  0.311800  1
  H  H543  1  0.757500  0.031300  0.712900  1
  H  H544  1  0.242500  0.968700  0.287100  1
  H  H545  1  0.162800  0.024000  0.486100  1
  H  H546  1  0.837200  0.976000  0.513900  1
  H  H547  1  0.217300  0.065500  0.486800  1
  H  H548  1  0.782700  0.934500  0.513200  1
  H  H549  1  0.204000  0.042500  0.528800  1
  H  H550  1  0.796000  0.957500  0.471200  1
  H  H551  1  0.169600  0.922500  0.471600  1
  H  H552  1  0.830400  0.077500  0.528400  1
  H  H553  1  0.203900  0.933300  0.434300  1
  H  H554  1  0.796100  0.066700  0.565700  1
  H  H555  1  0.159700  0.966900  0.443600  1
  H  H556  1  0.840300  0.033100  0.556400  1
  H  H557  1  0.271700  0.998600  0.439500  1
  H  H558  1  0.728300  0.001400  0.560500  1
  H  H559  1  0.277400  0.052000  0.471500  1
  H  H560  1  0.722600  0.948000  0.528500  1
  H  H561  1  0.345800  0.043900  0.492800  1
  H  H562  1  0.654200  0.956100  0.507200  1
  H  H563  1  0.336800  0.987000  0.464900  1
  H  H564  1  0.663200  0.013000  0.535100  1
  H  H565  1  0.381300  0.003400  0.579100  1
  H  H566  1  0.618700  0.996600  0.420900  1
  H  H567  1  0.345600  0.046200  0.572700  1
  H  H568  1  0.654400  0.953800  0.427300  1
  H  H569  1  0.393300  0.042900  0.545800  1
  H  H570  1  0.606700  0.957100  0.454200  1
  H  H571  1  0.335000  0.914400  0.494500  1
  H  H572  1  0.665000  0.085600  0.505500  1
  H  H573  1  0.345300  0.918300  0.544700  1
  H  H574  1  0.654700  0.081700  0.455300  1
  H  H575  1  0.390000  0.947900  0.520600  1
  H  H576  1  0.610000  0.052100  0.479400  1
  H  H577  1  0.678500  0.289400  0.676400  1
  H  H578  1  0.321500  0.710600  0.323600  1
  H  H579  1  0.738600  0.351700  0.714200  1
  H  H580  1  0.261400  0.648300  0.285800  1
  H  H581  1  0.740100  0.373800  0.787100  1
  H  H582  1  0.259900  0.626200  0.212900  1
  H  H583  1  0.588300  0.194200  0.675100  1
  H  H584  1  0.411700  0.805800  0.324900  1
  H  H585  1  0.531600  0.157500  0.709300  1
  H  H586  1  0.468400  0.842500  0.290700  1
  H  H587  1  0.533000  0.174500  0.782100  1
  H  H588  1  0.467000  0.825500  0.217900  1
  H  H589  1  0.432400  0.374400  0.745200  1
  H  H590  1  0.567600  0.625600  0.254800  1
  H  H591  1  0.409900  0.294800  0.762100  1
  H  H592  1  0.590100  0.705200  0.237900  1
  H  H593  1  0.459600  0.262200  0.810100  1
  H  H594  1  0.540400  0.737800  0.189900  1
  H  H595  1  0.535000  0.463700  0.738500  1
  H  H596  1  0.465000  0.536300  0.261500  1
  H  H597  1  0.611700  0.498600  0.776300  1
  H  H598  1  0.388300  0.501400  0.223700  1
  H  H599  1  0.667400  0.456800  0.811500  1
  H  H600  1  0.332600  0.543200  0.188500  1
  H  H601  1  0.614600  0.253400  0.854900  1
  H  H602  1  0.385400  0.746600  0.145100  1
  H  H603  1  0.686500  0.318200  0.858800  1
  H  H604  1  0.313500  0.681800  0.141200  1
  H  H605  1  0.639500  0.377300  0.881200  1
  H  H606  1  0.360500  0.622700  0.118800  1
  H  H607  1  0.567400  0.308900  0.881200  1
  H  H608  1  0.432600  0.691100  0.118800  1
  H  H609  1  0.999200  0.855300  0.754300  1
  H  H610  1  0.000800  0.144700  0.245700  1
  H  H611  1  0.942700  0.772400  0.732700  1
  H  H612  1  0.057300  0.227600  0.267300  1
  H  H613  1  0.959700  0.706800  0.681500  1
  H  H614  1  0.040300  0.293200  0.318500  1
  H  H615  1  0.089100  0.921200  0.742600  1
  H  H616  1  0.910900  0.078800  0.257400  1
  H  H617  1  0.162500  0.929400  0.706600  1
  H  H618  1  0.837500  0.070600  0.293400  1
  H  H619  1  0.179000  0.858600  0.659600  1
  H  H620  1  0.821000  0.141400  0.340400  1
  H  H621  1  0.127600  0.747700  0.615400  1
  H  H622  1  0.872400  0.252300  0.384600  1
  H  H623  1  0.038300  0.690700  0.619000  1
  H  H624  1  0.961700  0.309300  0.381000  1
  Pd  Pd625  1  0.247690  0.279330  0.820890  1
  Pd  Pd626  1  0.752310  0.720670  0.179110  1
  Pd  Pd627  1  0.534490  0.950190  0.686180  1
  Pd  Pd628  1  0.465510  0.049810  0.313820  1
  Pd  Pd629  1  0.454510  0.334870  0.469570  1
  Pd  Pd630  1  0.545490  0.665130  0.530430  1
  Pd  Pd631  1  0.715710  0.303390  0.035870  1
  Pd  Pd632  1  0.284290  0.696610  0.964130  1
  Pd  Pd633  1  0.650490  0.682160  0.818440  1
  Pd  Pd634  1  0.349510  0.317840  0.181560  1
  Pd  Pd635  1  0.927300  0.341150  0.678370  1
  Pd  Pd636  1  0.072700  0.658850  0.321630  1
  Pd  Pd637  1  0.952240  0.630340  0.956840  1
  Pd  Pd638  1  0.047760  0.369660  0.043160  1
  Pd  Pd639  1  0.251700  0.962720  0.541860  1
  Pd  Pd640  1  0.748300  0.037280  0.458140  1
  Pd  Pd641  1  0.328640  0.561700  0.719200  1
  Pd  Pd642  1  0.671360  0.438300  0.280800  1
  Pd  Pd643  1  0.847790  0.572110  0.541910  1
  Pd  Pd644  1  0.152210  0.427890  0.458090  1
  Pd  Pd645  1  0.352240  0.030660  0.958620  1
  Pd  Pd646  1  0.647760  0.969340  0.041380  1
  Pd  Pd647  1  0.879220  0.035730  0.779800  1
  Pd  Pd648  1  0.120780  0.964270  0.220200  1
  C  C649  1  0.563900  0.602800  0.839200  1
  C  C650  1  0.436100  0.397200  0.160800  1
  C  C651  1  0.536600  0.554100  0.855900  1
  C  C652  1  0.463400  0.445900  0.144100  1
  C  C653  1  0.571400  0.532000  0.881200  1
  C  C654  1  0.428600  0.468000  0.118800  1
  C  C655  1  0.625500  0.553200  0.891600  1
  C  C656  1  0.374500  0.446800  0.108400  1
  C  C657  1  0.643200  0.598700  0.873300  1
  C  C658  1  0.356800  0.401300  0.126700  1
  C  C659  1  0.547800  0.481300  0.894800  1
  C  C660  1  0.452200  0.518700  0.105200  1
  C  C661  1  0.560200  0.414800  0.932900  1
  C  C662  1  0.439800  0.585200  0.067100  1
  C  C663  1  0.480200  0.412900  0.894600  1
  C  C664  1  0.519800  0.587100  0.105400  1
  C  C665  1  0.680700  0.391800  0.996600  1
  C  C666  1  0.319300  0.608200  0.003400  1
  C  C667  1  0.649300  0.417000  0.973900  1
  C  C668  1  0.350700  0.583000  0.026100  1
  C  C669  1  0.595600  0.391900  0.960600  1
  C  C670  1  0.404400  0.608100  0.039400  1
  C  C671  1  0.576700  0.343000  0.972900  1
  C  C672  1  0.423300  0.657000  0.027100  1
  C  C673  1  0.611200  0.319400  0.996200  1
  C  C674  1  0.388800  0.680600  0.003800  1
  C  C675  1  0.352800  0.306700  0.873000  1
  C  C676  1  0.647200  0.693300  0.127000  1
  C  C677  1  0.404800  0.331700  0.888400  1
  C  C678  1  0.595200  0.668300  0.111600  1
  C  C679  1  0.423900  0.382000  0.879000  1
  C  C680  1  0.576100  0.618000  0.121000  1
  C  C681  1  0.388100  0.403100  0.855200  1
  C  C682  1  0.611900  0.596900  0.144800  1
  C  C683  1  0.334900  0.372600  0.838300  1
  C  C684  1  0.665100  0.627400  0.161700  1
  C  C685  1  0.511400  0.411000  0.546300  1
  C  C686  1  0.488600  0.589000  0.453700  1
  C  C687  1  0.551400  0.434000  0.577700  1
  C  C688  1  0.448600  0.566000  0.422300  1
  C  C689  1  0.599300  0.416700  0.579800  1
  C  C690  1  0.400700  0.583300  0.420200  1
  C  C691  1  0.606800  0.377000  0.549600  1
  C  C692  1  0.393200  0.623000  0.450400  1
  C  C693  1  0.562100  0.357700  0.517400  1
  C  C694  1  0.437900  0.642300  0.482600  1
  C  C695  1  0.642200  0.437700  0.616700  1
  C  C696  1  0.357800  0.562300  0.383300  1
  C  C697  1  0.726300  0.440400  0.650400  1
  C  C698  1  0.273700  0.559600  0.349600  1
  C  C699  1  0.675300  0.499100  0.677300  1
  C  C700  1  0.324700  0.500900  0.322700  1
  C  C701  1  0.823100  0.355700  0.635700  1
  C  C702  1  0.176900  0.644300  0.364300  1
  C  C703  1  0.777800  0.373800  0.628100  1
  C  C704  1  0.222200  0.626200  0.371900  1
  C  C705  1  0.775200  0.420800  0.656800  1
  C  C706  1  0.224800  0.579200  0.343200  1
  C  C707  1  0.817400  0.443000  0.687500  1
  C  C708  1  0.182600  0.557000  0.312500  1
  C  C709  1  0.860500  0.423000  0.692100  1
  C  C710  1  0.139500  0.577000  0.307900  1
  C  C711  1  0.700900  0.602200  0.774600  1
  C  C712  1  0.299100  0.397800  0.225400  1
  C  C713  1  0.710200  0.561300  0.745400  1
  C  C714  1  0.289800  0.438700  0.254600  1
  C  C715  1  0.669000  0.543200  0.710000  1
  C  C716  1  0.331000  0.456800  0.290000  1
  C  C717  1  0.624400  0.565100  0.706000  1
  C  C718  1  0.375600  0.434900  0.294000  1
  C  C719  1  0.620400  0.606300  0.737900  1
  C  C720  1  0.379600  0.393700  0.262100  1
  C  C721  1  0.622100  0.044100  0.701300  1
  C  C722  1  0.377900  0.955900  0.298700  1
  C  C723  1  0.656100  0.090400  0.721500  1
  C  C724  1  0.343900  0.909600  0.278500  1
  C  C725  1  0.655400  0.111300  0.763300  1
  C  C726  1  0.344600  0.888700  0.236700  1
  C  C727  1  0.617100  0.084000  0.783600  1
  C  C728  1  0.382900  0.916000  0.216400  1
  C  C729  1  0.582500  0.033300  0.760800  1
  C  C730  1  0.417500  0.966700  0.239200  1
  C  C731  1  0.689200  0.157900  0.785300  1
  C  C732  1  0.310800  0.842100  0.214700  1
  C  C733  1  0.760300  0.226600  0.785500  1
  C  C734  1  0.239700  0.773400  0.214500  1
  C  C735  1  0.725300  0.217700  0.844900  1
  C  C736  1  0.274700  0.782300  0.155100  1
  C  C737  1  0.879900  0.321200  0.755700  1
  C  C738  1  0.120100  0.678800  0.244300  1
  C  C739  1  0.840600  0.298400  0.778600  1
  C  C740  1  0.159400  0.701600  0.221400  1
  C  C741  1  0.802800  0.255900  0.760800  1
  C  C742  1  0.197200  0.744100  0.239200  1
  C  C743  1  0.804600  0.235300  0.719500  1
  C  C744  1  0.195400  0.764700  0.280500  1
  C  C745  1  0.843000  0.261800  0.697900  1
  C  C746  1  0.157000  0.738200  0.302100  1
  C  C747  1  0.688800  0.230100  0.954900  1
  C  C748  1  0.311200  0.769900  0.045100  1
  C  C749  1  0.687900  0.210500  0.913000  1
  C  C750  1  0.312100  0.789500  0.087000  1
  C  C751  1  0.725300  0.236700  0.890600  1
  C  C752  1  0.274700  0.763300  0.109400  1
  C  C753  1  0.758800  0.280700  0.910800  1
  C  C754  1  0.241200  0.719300  0.089200  1
  C  C755  1  0.757100  0.298000  0.954700  1
  C  C756  1  0.242900  0.702000  0.045300  1
  C  C757  1  0.453200  0.243200  0.517900  1
  C  C758  1  0.546800  0.756800  0.482100  1
  C  C759  1  0.443300  0.211300  0.549000  1
  C  C760  1  0.556700  0.788700  0.451000  1
  C  C761  1  0.413100  0.230400  0.577700  1
  C  C762  1  0.586900  0.769600  0.422300  1
  C  C763  1  0.389800  0.274900  0.573400  1
  C  C764  1  0.610200  0.725100  0.426600  1
  C  C765  1  0.402300  0.302100  0.541100  1
  C  C766  1  0.597700  0.697900  0.458900  1
  C  C767  1  0.403100  0.200500  0.615400  1
  C  C768  1  0.596900  0.799500  0.384600  1
  C  C769  1  0.416300  0.135300  0.651000  1
  C  C770  1  0.583700  0.864700  0.349000  1
  C  C771  1  0.369700  0.191300  0.676000  1
  C  C772  1  0.630300  0.808700  0.324000  1
  C  C773  1  0.453600  0.017800  0.694800  1
  C  C774  1  0.546400  0.982200  0.305200  1
  C  C775  1  0.432800  0.059100  0.690500  1
  C  C776  1  0.567200  0.940900  0.309500  1
  C  C777  1  0.442000  0.086400  0.656000  1
  C  C778  1  0.558000  0.913600  0.344000  1
  C  C779  1  0.476300  0.072200  0.629100  1
  C  C780  1  0.523700  0.927800  0.370900  1
  C  C781  1  0.499000  0.031800  0.638000  1
  C  C782  1  0.501000  0.968200  0.362000  1
  C  C783  1  0.287500  0.274400  0.737000  1
  C  C784  1  0.712500  0.725600  0.263000  1
  C  C785  1  0.314700  0.256300  0.705200  1
  C  C786  1  0.685300  0.743700  0.294800  1
  C  C787  1  0.339000  0.213600  0.709400  1
  C  C788  1  0.661000  0.786400  0.290600  1
  C  C789  1  0.337500  0.191500  0.745600  1
  C  C790  1  0.662500  0.808500  0.254400  1
  C  C791  1  0.308200  0.209000  0.774900  1
  C  C792  1  0.691800  0.791000  0.225100  1
  C  C793  1  0.234300  0.291400  0.914200  1
  C  C794  1  0.765700  0.708600  0.085800  1
  C  C795  1  0.211600  0.361900  0.875000  1
  C  C796  1  0.788400  0.638100  0.125000  1
  C  C797  1  0.151000  0.272100  0.855100  1
  C  C798  1  0.849000  0.727900  0.144900  1
  C  C799  1  0.137100  0.249900  0.818000  1
  C  C800  1  0.862900  0.750100  0.182000  1
  C  C801  1  0.178100  0.173700  0.788100  1
  C  C802  1  0.821900  0.826300  0.211900  1
  C  C803  1  0.154500  0.242300  0.751900  1
  C  C804  1  0.845500  0.757700  0.248100  1
  C  C805  1  0.432200  0.878000  0.653900  1
  C  C806  1  0.567800  0.122000  0.346100  1
  C  C807  1  0.483200  0.886800  0.602700  1
  C  C808  1  0.516800  0.113200  0.397300  1
  C  C809  1  0.505600  0.840100  0.665500  1
  C  C810  1  0.494400  0.159900  0.334500  1
  C  C811  1  0.556700  0.847100  0.676400  1
  C  C812  1  0.443300  0.152900  0.323600  1
  C  C813  1  0.581400  0.889900  0.748100  1
  C  C814  1  0.418600  0.110100  0.251900  1
  C  C815  1  0.640800  0.914500  0.694500  1
  C  C816  1  0.359200  0.085500  0.305500  1
  C  C817  1  0.387000  0.239300  0.414000  1
  C  C818  1  0.613000  0.760700  0.586000  1
  C  C819  1  0.341800  0.302900  0.432300  1
  C  C820  1  0.658200  0.697100  0.567700  1
  C  C821  1  0.399600  0.319300  0.383700  1
  C  C822  1  0.600400  0.680700  0.616300  1
  C  C823  1  0.429200  0.376200  0.394900  1
  C  C824  1  0.570800  0.623800  0.605100  1
  C  C825  1  0.527600  0.384600  0.419400  1
  C  C826  1  0.472400  0.615400  0.580600  1
  C  C827  1  0.491000  0.444700  0.446400  1
  C  C828  1  0.509000  0.555300  0.553600  1
  C  C829  1  0.745300  0.205800  0.051400  1
  C  C830  1  0.254700  0.794200  0.948600  1
  C  C831  1  0.820800  0.276400  0.053000  1
  C  C832  1  0.179200  0.723600  0.947000  1
  C  C833  1  0.768900  0.276900  0.112000  1
  C  C834  1  0.231100  0.723100  0.888000  1
  C  C835  1  0.740100  0.304200  0.124100  1
  C  C836  1  0.259900  0.695800  0.875900  1
  C  C837  1  0.653700  0.323200  0.106800  1
  C  C838  1  0.346300  0.676800  0.893200  1
  C  C839  1  0.732600  0.391600  0.106500  1
  C  C840  1  0.267400  0.608400  0.893500  1
  C  C841  1  0.747900  0.744100  0.791000  1
  C  C842  1  0.252100  0.255900  0.209000  1
  C  C843  1  0.668200  0.740900  0.744000  1
  C  C844  1  0.331800  0.259100  0.256000  1
  C  C845  1  0.676600  0.793900  0.812400  1
  C  C846  1  0.323400  0.206100  0.187600  1
  C  C847  1  0.671500  0.791100  0.853500  1
  C  C848  1  0.328500  0.208900  0.146500  1
  C  C849  1  0.667300  0.733800  0.906100  1
  C  C850  1  0.332700  0.266200  0.093900  1
  C  C851  1  0.586200  0.744500  0.867500  1
  C  C852  1  0.413800  0.255500  0.132500  1
  C  C853  1  0.009500  0.313800  0.735700  1
  C  C854  1  0.990500  0.686200  0.264300  1
  C  C855  1  0.973500  0.245700  0.678500  1
  C  C856  1  0.026500  0.754300  0.321500  1
  C  C857  1  0.035100  0.324800  0.663000  1
  C  C858  1  0.964900  0.675200  0.337000  1
  C  C859  1  0.021000  0.360600  0.642700  1
  C  C860  1  0.979000  0.639400  0.357300  1
  C  C861  1  0.984600  0.434300  0.649600  1
  C  C862  1  0.015400  0.565700  0.350400  1
  C  C863  1  0.947300  0.368000  0.594600  1
  C  C864  1  0.052700  0.632000  0.405400  1
  C  C865  1  0.351600  0.933800  0.898900  1
  C  C866  1  0.648400  0.066200  0.101100  1
  C  C867  1  0.344600  0.897300  0.860600  1
  C  C868  1  0.655400  0.102700  0.139400  1
  C  C869  1  0.329300  0.917500  0.820900  1
  C  C870  1  0.670700  0.082500  0.179100  1
  C  C871  1  0.320000  0.968800  0.823900  1
  C  C872  1  0.680000  0.031200  0.176100  1
  C  C873  1  0.330100  0.001000  0.863600  1
  C  C874  1  0.669900  0.999000  0.136400  1
  C  C875  1  0.321200  0.886400  0.781700  1
  C  C876  1  0.678800  0.113600  0.218300  1
  C  C877  1  0.309600  0.876200  0.713800  1
  C  C878  1  0.690400  0.123800  0.286200  1
  C  C879  1  0.327100  0.807900  0.741500  1
  C  C880  1  0.672900  0.192100  0.258500  1
  C  C881  1  0.285200  0.968800  0.634300  1
  C  C882  1  0.714800  0.031200  0.365700  1
  C  C883  1  0.297900  0.949200  0.671000  1
  C  C884  1  0.702100  0.050800  0.329000  1
  C  C885  1  0.297600  0.897800  0.669000  1
  C  C886  1  0.702400  0.102200  0.331000  1
  C  C887  1  0.290300  0.861800  0.630700  1
  C  C888  1  0.709700  0.138200  0.369300  1
  C  C889  1  0.279900  0.885600  0.596500  1
  C  C890  1  0.720100  0.114400  0.403500  1
  C  C891  1  0.325200  0.663300  0.698300  1
  C  C892  1  0.674800  0.336700  0.301700  1
  C  C893  1  0.321100  0.719800  0.694700  1
  C  C894  1  0.678900  0.280200  0.305300  1
  C  C895  1  0.329200  0.748700  0.737400  1
  C  C896  1  0.670800  0.251300  0.262600  1
  C  C897  1  0.345000  0.725000  0.772800  1
  C  C898  1  0.655000  0.275000  0.227200  1
  C  C899  1  0.344900  0.672100  0.765000  1
  C  C900  1  0.655100  0.327900  0.235000  1
  C  C901  1  0.150000  0.890300  0.544000  1
  C  C902  1  0.850000  0.109700  0.456000  1
  C  C903  1  0.099500  0.870600  0.557100  1
  C  C904  1  0.900500  0.129400  0.442900  1
  C  C905  1  0.080600  0.901400  0.583200  1
  C  C906  1  0.919400  0.098600  0.416800  1
  C  C907  1  0.110000  0.954100  0.600300  1
  C  C908  1  0.890000  0.045900  0.399700  1
  C  C909  1  0.156500  0.972300  0.586300  1
  C  C910  1  0.843500  0.027700  0.413700  1
  C  C911  1  0.029500  0.881100  0.600900  1
  C  C912  1  0.970500  0.118900  0.399100  1
  C  C913  1  0.968200  0.890500  0.644600  1
  C  C914  1  0.031800  0.109500  0.355400  1
  C  C915  1  0.960100  0.812700  0.599600  1
  C  C916  1  0.039900  0.187300  0.400400  1
  C  C917  1  0.952300  0.007600  0.720200  1
  C  C918  1  0.047700  0.992400  0.279800  1
  C  C919  1  0.971800  0.977900  0.690300  1
  C  C920  1  0.028200  0.022100  0.309700  1
  C  C921  1  0.947600  0.924100  0.676300  1
  C  C922  1  0.052400  0.075900  0.323700  1
  C  C923  1  0.900400  0.906800  0.691400  1
  C  C924  1  0.099600  0.093200  0.308600  1
  C  C925  1  0.879300  0.940000  0.719200  1
  C  C926  1  0.120700  0.060000  0.280800  1
  C  C927  1  0.859800  0.684100  0.583900  1
  C  C928  1  0.140200  0.315900  0.416100  1
  C  C929  1  0.882500  0.734700  0.600600  1
  C  C930  1  0.117500  0.265300  0.399400  1
  C  C931  1  0.930900  0.757800  0.585100  1
  C  C932  1  0.069100  0.242200  0.414900  1
  C  C933  1  0.949000  0.725900  0.553600  1
  C  C934  1  0.051000  0.274100  0.446400  1
  C  C935  1  0.922800  0.674600  0.543100  1
  C  C936  1  0.077200  0.325400  0.456900  1
  C  C937  1  0.237400  0.027600  0.939400  1
  C  C938  1  0.762600  0.972400  0.060600  1
  C  C939  1  0.184100  0.008200  0.932300  1
  C  C940  1  0.815900  0.991800  0.067700  1
  C  C941  1  0.163900  0.959500  0.947400  1
  C  C942  1  0.836100  0.040500  0.052600  1
  C  C943  1  0.198500  0.936700  0.967300  1
  C  C944  1  0.801500  0.063300  0.032700  1
  C  C945  1  0.254700  0.959400  0.972400  1
  C  C946  1  0.745300  0.040600  0.027600  1
  C  C947  1  0.106600  0.933900  0.934600  1
  C  C948  1  0.893400  0.066100  0.065400  1
  C  C949  1  0.027600  0.939200  0.906100  1
  C  C950  1  0.972400  0.060800  0.093900  1
  C  C951  1  0.039900  0.866300  0.936900  1
  C  C952  1  0.960100  0.133700  0.063100  1
  C  C953  1  0.904800  0.962100  0.841400  1
  C  C954  1  0.095200  0.037900  0.158600  1
  C  C955  1  0.935400  0.937200  0.866500  1
  C  C956  1  0.064600  0.062800  0.133500  1
  C  C957  1  0.990300  0.962700  0.880100  1
  C  C958  1  0.009700  0.037300  0.119900  1
  C  C959  1  0.010100  0.011100  0.867100  1
  C  C960  1  0.989900  0.988900  0.132900  1
  C  C961  1  0.975300  0.029300  0.838900  1
  C  C962  1  0.024700  0.970700  0.161100  1
  C  C963  1  0.029400  0.733900  0.972200  1
  C  C964  1  0.970600  0.266100  0.027800  1
  C  C965  1  0.050700  0.786200  0.967700  1
  C  C966  1  0.949300  0.213800  0.032300  1
  C  C967  1  0.019100  0.813200  0.946900  1
  C  C968  1  0.980900  0.186800  0.053100  1
  C  C969  1  0.962400  0.787400  0.929800  1
  C  C970  1  0.037600  0.212600  0.070200  1
  C  C971  1  0.948700  0.734600  0.935700  1
  C  C972  1  0.051300  0.265400  0.064300  1
  C  C973  1  0.950600  0.563700  0.591700  1
  C  C974  1  0.049400  0.436300  0.408300  1
  C  C975  1  0.984300  0.566900  0.626300  1
  C  C976  1  0.015700  0.433100  0.373700  1
  C  C977  1  0.969200  0.574600  0.667900  1
  C  C978  1  0.030800  0.425400  0.332100  1
  C  C979  1  0.915800  0.574900  0.668800  1
  C  C980  1  0.084200  0.425100  0.331200  1
  C  C981  1  0.880400  0.571300  0.633300  1
  C  C982  1  0.119600  0.428700  0.366700  1
  C  C983  1  0.007700  0.578100  0.706300  1
  C  C984  1  0.992300  0.421900  0.293700  1
  C  C985  1  0.089700  0.575500  0.736100  1
  C  C986  1  0.910300  0.424500  0.263900  1
  C  C987  1  0.026700  0.595800  0.778100  1
  C  C988  1  0.973300  0.404200  0.221900  1
  C  C989  1  0.230800  0.559400  0.762300  1
  C  C990  1  0.769200  0.440600  0.237700  1
  C  C991  1  0.178500  0.563900  0.766600  1
  C  C992  1  0.821500  0.436100  0.233400  1
  C  C993  1  0.147300  0.570100  0.733400  1
  C  C994  1  0.852700  0.429900  0.266600  1
  C  C995  1  0.159700  0.569400  0.689800  1
  C  C996  1  0.840300  0.430600  0.310200  1
  C  C997  1  0.218400  0.570600  0.689300  1
  C  C998  1  0.781600  0.429400  0.310700  1
  C  C999  1  0.944100  0.619800  0.862600  1
  C  C1000  1  0.055900  0.380200  0.137400  1
  C  C1001  1  0.960400  0.615900  0.823200  1
  C  C1002  1  0.039600  0.384100  0.176800  1
  C  C1003  1  0.011700  0.605300  0.819700  1
  C  C1004  1  0.988300  0.394700  0.180300  1
  C  C1005  1  0.045600  0.602000  0.856100  1
  C  C1006  1  0.954400  0.398000  0.143900  1
  C  C1007  1  0.026600  0.610600  0.896200  1
  C  C1008  1  0.973400  0.389400  0.103800  1
  C  C1009  1  0.442100  0.089900  0.924300  1
  C  C1010  1  0.557900  0.910100  0.075700  1
  C  C1011  1  0.462300  0.015100  0.948000  1
  C  C1012  1  0.537700  0.984900  0.052000  1
  C  C1013  1  0.449400  0.087000  0.001700  1
  C  C1014  1  0.550600  0.913000  0.998300  1
  C  C1015  1  0.414900  0.109800  0.020700  1
  C  C1016  1  0.585100  0.890200  0.979300  1
  C  C1017  1  0.323400  0.115000  0.015400  1
  C  C1018  1  0.676600  0.885000  0.984600  1
  C  C1019  1  0.349600  0.049400  0.050700  1
  C  C1020  1  0.650400  0.950600  0.949300  1
  C  C1021  1  0.964900  0.519000  0.949100  1
  C  C1022  1  0.035100  0.481000  0.050900  1
  C  C1023  1  0.880300  0.526400  0.922100  1
  C  C1024  1  0.119700  0.473600  0.077900  1
  C  C1025  1  0.908600  0.546500  0.999500  1
  C  C1026  1  0.091400  0.453500  0.000500  1
  C  C1027  1  0.896900  0.589200  0.020200  1
  C  C1028  1  0.103100  0.410800  0.979800  1
  C  C1029  1  0.970500  0.664400  0.049600  1
  C  C1030  1  0.029500  0.335600  0.950400  1
  C  C1031  1  0.891900  0.682200  0.018200  1
  C  C1032  1  0.108100  0.317800  0.981800  1
  C  C1033  1  0.444200  0.588600  0.751200  1
  C  C1034  1  0.555800  0.411400  0.248800  1
  C  C1035  1  0.417400  0.590600  0.681300  1
  C  C1036  1  0.582600  0.409400  0.318700  1
  C  C1037  1  0.409700  0.506900  0.706400  1
  C  C1038  1  0.590300  0.493100  0.293600  1
  C  C1039  1  0.370700  0.465400  0.700300  1
  C  C1040  1  0.629300  0.534600  0.299700  1
  C  C1041  1  0.299700  0.453900  0.738500  1
  C  C1042  1  0.700300  0.546100  0.261500  1
  C  C1043  1  0.283000  0.458400  0.664000  1
  C  C1044  1  0.717000  0.541600  0.336000  1
  C  C1045  1  0.793300  0.464500  0.559800  1
  C  C1046  1  0.206700  0.535500  0.440200  1
  C  C1047  1  0.856300  0.462700  0.512100  1
  C  C1048  1  0.143700  0.537300  0.487900  1
  C  C1049  1  0.768000  0.488100  0.494700  1
  C  C1050  1  0.232000  0.511900  0.505300  1
  C  C1051  1  0.768200  0.524500  0.470600  1
  C  C1052  1  0.231800  0.475500  0.529400  1
  C  C1053  1  0.756000  0.609400  0.501000  1
  C  C1054  1  0.244000  0.390600  0.499000  1
  C  C1055  1  0.823600  0.605600  0.457900  1
  C  C1056  1  0.176400  0.394400  0.542100  1
  C  C1057  1  0.890000  0.123700  0.849400  1
  C  C1058  1  0.110000  0.876300  0.150600  1
  C  C1059  1  0.822100  0.049000  0.853400  1
  C  C1060  1  0.177900  0.951000  0.146600  1
  C  C1061  1  0.811000  0.104000  0.798900  1
  C  C1062  1  0.189000  0.896000  0.201100  1
  C  C1063  1  0.813900  0.104400  0.758700  1
  C  C1064  1  0.186100  0.895600  0.241300  1
  C  C1065  1  0.860100  0.084100  0.701400  1
  C  C1066  1  0.139900  0.915900  0.298600  1
  C  C1067  1  0.790700  0.018600  0.716000  1
  C  C1068  1  0.209300  0.981400  0.284000  1
  C  C1069  1  0.200500  0.034200  0.498000  1
  C  C1070  1  0.799500  0.965800  0.502000  1
  C  C1071  1  0.186600  0.949800  0.456400  1
  C  C1072  1  0.813400  0.050200  0.543600  1
  C  C1073  1  0.276100  0.013500  0.469800  1
  C  C1074  1  0.723900  0.986500  0.530200  1
  C  C1075  1  0.322400  0.008100  0.486900  1
  C  C1076  1  0.677600  0.991900  0.513100  1
  C  C1077  1  0.365300  0.022300  0.558500  1
  C  C1078  1  0.634700  0.977700  0.441500  1
  C  C1079  1  0.351700  0.937400  0.521000  1
  C  C1080  1  0.648300  0.062600  0.479000  1
  C  C1081  1  0.677700  0.294600  0.706000  1
  C  C1082  1  0.322300  0.705400  0.294000  1
  C  C1083  1  0.712300  0.332400  0.727700  1
  C  C1084  1  0.287700  0.667600  0.272300  1
  C  C1085  1  0.712900  0.346400  0.770900  1
  C  C1086  1  0.287100  0.653600  0.229100  1
  C  C1087  1  0.669300  0.317100  0.791600  1
  C  C1088  1  0.330700  0.682900  0.208400  1
  C  C1089  1  0.633500  0.272400  0.767000  1
  C  C1090  1  0.366500  0.727600  0.233000  1
  C  C1091  1  0.634200  0.255800  0.722200  1
  C  C1092  1  0.365800  0.744200  0.277800  1
  C  C1093  1  0.591000  0.208000  0.704200  1
  C  C1094  1  0.409000  0.792000  0.295800  1
  C  C1095  1  0.558500  0.185600  0.724900  1
  C  C1096  1  0.441500  0.814400  0.275100  1
  C  C1097  1  0.556500  0.196100  0.767900  1
  C  C1098  1  0.443500  0.803900  0.232100  1
  C  C1099  1  0.595700  0.245300  0.789300  1
  C  C1100  1  0.404300  0.754700  0.210700  1
  C  C1101  1  0.457000  0.359900  0.761700  1
  C  C1102  1  0.543000  0.640100  0.238300  1
  C  C1103  1  0.444100  0.315600  0.773600  1
  C  C1104  1  0.555900  0.684400  0.226400  1
  C  C1105  1  0.475100  0.294600  0.801800  1
  C  C1106  1  0.524900  0.705400  0.198200  1
  C  C1107  1  0.531700  0.319800  0.820000  1
  C  C1108  1  0.468300  0.680200  0.180000  1
  C  C1109  1  0.550600  0.369400  0.806500  1
  C  C1110  1  0.449400  0.630600  0.193500  1
  C  C1111  1  0.519500  0.391400  0.776900  1
  C  C1112  1  0.480500  0.608600  0.223100  1
  C  C1113  1  0.550400  0.447300  0.759900  1
  C  C1114  1  0.449600  0.552700  0.240100  1
  C  C1115  1  0.596600  0.463500  0.779700  1
  C  C1116  1  0.403400  0.536500  0.220300  1
  C  C1117  1  0.630300  0.442300  0.805200  1
  C  C1118  1  0.369700  0.557700  0.194800  1
  C  C1119  1  0.603800  0.394000  0.822600  1
  C  C1120  1  0.396200  0.606000  0.177400  1
  C  C1121  1  0.607500  0.277600  0.834400  1
  C  C1122  1  0.392500  0.722400  0.165600  1
  C  C1123  1  0.656400  0.320800  0.837500  1
  C  C1124  1  0.343600  0.679200  0.162500  1
  C  C1125  1  0.624600  0.357500  0.852200  1
  C  C1126  1  0.375400  0.642500  0.147800  1
  C  C1127  1  0.577000  0.314100  0.852800  1
  C  C1128  1  0.423000  0.685900  0.147200  1
  C  C1129  1  0.007100  0.830700  0.732800  1
  C  C1130  1  0.992900  0.169300  0.267200  1
  C  C1131  1  0.973800  0.780400  0.719800  1
  C  C1132  1  0.026200  0.219600  0.280200  1
  C  C1133  1  0.983500  0.740300  0.688600  1
  C  C1134  1  0.016500  0.259700  0.311400  1
  C  C1135  1  0.028700  0.751500  0.668900  1
  C  C1136  1  0.971300  0.248500  0.331100  1
  C  C1137  1  0.060800  0.805400  0.680800  1
  C  C1138  1  0.939200  0.194600  0.319200  1
  C  C1139  1  0.053800  0.844000  0.712500  1
  C  C1140  1  0.946200  0.156000  0.287500  1
  C  C1141  1  0.093000  0.892800  0.722400  1
  C  C1142  1  0.907000  0.107200  0.277600  1
  C  C1143  1  0.137200  0.896800  0.701100  1
  C  C1144  1  0.862800  0.103200  0.298900  1
  C  C1145  1  0.146700  0.854900  0.671300  1
  C  C1146  1  0.853300  0.145100  0.328700  1
  C  C1147  1  0.107500  0.808600  0.660000  1
  C  C1148  1  0.892500  0.191400  0.340000  1
  C  C1149  1  0.102200  0.757100  0.632400  1
  C  C1150  1  0.897800  0.242900  0.367600  1
  C  C1151  1  0.053100  0.724500  0.635500  1
  C  C1152  1  0.946900  0.275500  0.364500  1
  C  C1153  1  0.093700  0.040500  0.016000  1
  C  C1154  1  0.906300  0.959500  0.984000  1
  C  C1155  1  0.069500  0.991500  0.025500  1
  C  C1156  1  0.930500  0.008500  0.974500  1
  C  C1157  1  0.015100  0.984500  0.010200  1
  C  C1158  1  0.984900  0.015500  0.989800  1
  C  C1159  1  0.992700  0.934100  0.020300  1
  C  C1160  1  0.007300  0.065900  0.979700  1
  C  C1161  1  0.937000  0.929900  0.006500  1
  C  C1162  1  0.063000  0.070100  0.993500  1
  C  C1163  1  0.079700  0.946100  0.045100  1
  C  C1164  1  0.920300  0.053900  0.954900  1
  C  C1165  1  0.031700  0.909700  0.040600  1
  C  C1166  1  0.968300  0.090300  0.959400  1
  C  C1167  1  0.544600  0.587800  0.980000  1
  C  C1168  1  0.455400  0.412200  0.020000  1
  C  C1169  1  0.494700  0.555100  0.968800  1
  C  C1170  1  0.505300  0.444900  0.031200  1
  C  C1171  1  0.486800  0.509400  0.988400  1
  C  C1172  1  0.513200  0.490600  0.011600  1
  C  C1173  1  0.432100  0.486100  0.972900  1
  C  C1174  1  0.567900  0.513900  0.027100  1
  C  C1175  1  0.424600  0.439900  0.992700  1
  C  C1176  1  0.575400  0.560100  0.007300  1
  C  C1177  1  0.443800  0.559700  0.945400  1
  C  C1178  1  0.556200  0.440300  0.054600  1
  C  C1179  1  0.407600  0.512200  0.943200  1
  C  C1180  1  0.592400  0.487800  0.056800  1
  N  N1181  1  0.615400  0.622300  0.848100  1
  N  N1182  1  0.384600  0.377700  0.151900  1
  N  N1183  1  0.508500  0.390000  0.920900  1
  N  N1184  1  0.491500  0.610000  0.079100  1
  N  N1185  1  0.495100  0.458400  0.881100  1
  N  N1186  1  0.504900  0.541600  0.118900  1
  N  N1187  1  0.581200  0.462600  0.921600  1
  N  N1188  1  0.418800  0.537400  0.078400  1
  N  N1189  1  0.662800  0.344000  0.008500  1
  N  N1190  1  0.337200  0.656000  0.991500  1
  N  N1191  1  0.321000  0.326900  0.848000  1
  N  N1192  1  0.679000  0.673100  0.152000  1
  N  N1193  1  0.518700  0.371100  0.516700  1
  N  N1194  1  0.481300  0.628900  0.483300  1
  N  N1195  1  0.721200  0.481000  0.680000  1
  N  N1196  1  0.278800  0.519000  0.320000  1
  N  N1197  1  0.633700  0.477500  0.644500  1
  N  N1198  1  0.366300  0.522500  0.355500  1
  N  N1199  1  0.687800  0.420100  0.617900  1
  N  N1200  1  0.312200  0.579900  0.382100  1
  N  N1201  1  0.865500  0.379000  0.665800  1
  N  N1202  1  0.134500  0.621000  0.334200  1
  N  N1203  1  0.658600  0.624300  0.771000  1
  N  N1204  1  0.341400  0.375700  0.229000  1
  N  N1205  1  0.587000  0.014800  0.721300  1
  N  N1206  1  0.413000  0.985200  0.278700  1
  N  N1207  1  0.763200  0.247700  0.825000  1
  N  N1208  1  0.236800  0.752300  0.175000  1
  N  N1209  1  0.689200  0.174100  0.826400  1
  N  N1210  1  0.310800  0.825900  0.173600  1
  N  N1211  1  0.726200  0.184600  0.763300  1
  N  N1212  1  0.273800  0.815400  0.236700  1
  N  N1213  1  0.878900  0.304100  0.716400  1
  N  N1214  1  0.121100  0.695900  0.283600  1
  N  N1215  1  0.722100  0.271400  0.976000  1
  N  N1216  1  0.277900  0.728600  0.024000  1
  N  N1217  1  0.432500  0.287300  0.511800  1
  N  N1218  1  0.567500  0.712700  0.488200  1
  N  N1219  1  0.388600  0.150500  0.680400  1
  N  N1220  1  0.611400  0.849500  0.319600  1
  N  N1221  1  0.375500  0.220800  0.642400  1
  N  N1222  1  0.624500  0.779200  0.357600  1
  N  N1223  1  0.424500  0.156700  0.617500  1
  N  N1224  1  0.575500  0.843300  0.382500  1
  N  N1225  1  0.489800  0.002800  0.669700  1
  N  N1226  1  0.510200  0.997200  0.330300  1
  N  N1227  1  0.284700  0.251500  0.773200  1
  N  N1228  1  0.715300  0.748500  0.226800  1
  N  N1229  1  0.210100  0.306600  0.870500  1
  N  N1230  1  0.789900  0.693400  0.129500  1
  N  N1231  1  0.173500  0.228300  0.793100  1
  N  N1232  1  0.826500  0.771700  0.206900  1
  N  N1233  1  0.485200  0.884400  0.649700  1
  N  N1234  1  0.514800  0.115600  0.350300  1
  N  N1235  1  0.583700  0.897700  0.704200  1
  N  N1236  1  0.416300  0.102300  0.295800  1
  N  N1237  1  0.389600  0.297300  0.423500  1
  N  N1238  1  0.610400  0.702700  0.576500  1
  N  N1239  1  0.479000  0.385900  0.427200  1
  N  N1240  1  0.521000  0.614100  0.572800  1
  N  N1241  1  0.771000  0.264200  0.064800  1
  N  N1242  1  0.229000  0.735800  0.935200  1
  N  N1243  1  0.707700  0.333900  0.098300  1
  N  N1244  1  0.292300  0.666100  0.901700  1
  N  N1245  1  0.689500  0.743800  0.788600  1
  N  N1246  1  0.310500  0.256200  0.211400  1
  N  N1247  1  0.642400  0.742400  0.866300  1
  N  N1248  1  0.357600  0.257600  0.133700  1
  N  N1249  1  0.989300  0.303200  0.693300  1
  N  N1250  1  0.010700  0.696800  0.306700  1
  N  N1251  1  0.973900  0.381800  0.637300  1
  N  N1252  1  0.026100  0.618200  0.362700  1
  N  N1253  1  0.344500  0.981400  0.901100  1
  N  N1254  1  0.655500  0.018600  0.098900  1
  N  N1255  1  0.316200  0.825800  0.704300  1
  N  N1256  1  0.683800  0.174200  0.295700  1
  N  N1257  1  0.329700  0.835500  0.782600  1
  N  N1258  1  0.670300  0.164500  0.217400  1
  N  N1259  1  0.312500  0.909600  0.749200  1
  N  N1260  1  0.687500  0.090400  0.250800  1
  N  N1261  1  0.275800  0.935300  0.595400  1
  N  N1262  1  0.724200  0.064700  0.404600  1
  N  N1263  1  0.339300  0.643200  0.728900  1
  N  N1264  1  0.660700  0.356800  0.271100  1
  N  N1265  1  0.175900  0.941200  0.557300  1
  N  N1266  1  0.824100  0.058800  0.442700  1
  N  N1267  1  0.939200  0.839700  0.629900  1
  N  N1268  1  0.060800  0.160300  0.370100  1
  N  N1269  1  0.005000  0.830000  0.584200  1
  N  N1270  1  0.995000  0.170000  0.415800  1
  N  N1271  1  0.014900  0.912300  0.630000  1
  N  N1272  1  0.985100  0.087700  0.370000  1
  N  N1273  1  0.908100  0.991300  0.737400  1
  N  N1274  1  0.091900  0.008700  0.262600  1
  N  N1275  1  0.878100  0.653600  0.558000  1
  N  N1276  1  0.121900  0.346400  0.442000  1
  N  N1277  1  0.272900  0.002400  0.957600  1
  N  N1278  1  0.727100  0.997600  0.042400  1
  N  N1279  1  0.003500  0.890800  0.914500  1
  N  N1280  1  0.996500  0.109200  0.085500  1
  N  N1281  1  0.092500  0.885400  0.946900  1
  N  N1282  1  0.907500  0.114600  0.053100  1
  N  N1283  1  0.074800  0.960800  0.913800  1
  N  N1284  1  0.925200  0.039200  0.086200  1
  N  N1285  1  0.923600  0.008500  0.824700  1
  N  N1286  1  0.076400  0.991500  0.175300  1
  N  N1287  1  0.978100  0.711800  0.956600  1
  N  N1288  1  0.021900  0.288200  0.043400  1
  N  N1289  1  0.897800  0.565700  0.593600  1
  N  N1290  1  0.102200  0.434300  0.406400  1
  N  N1291  1  0.077000  0.588800  0.776900  1
  N  N1292  1  0.923000  0.411200  0.223100  1
  N  N1293  1  0.990900  0.590300  0.743500  1
  N  N1294  1  0.009100  0.409700  0.256500  1
  N  N1295  1  0.056900  0.570000  0.699800  1
  N  N1296  1  0.943100  0.430000  0.300200  1
  N  N1297  1  0.249200  0.558900  0.724100  1
  N  N1298  1  0.750800  0.441100  0.275900  1
  N  N1299  1  0.976800  0.617900  0.898700  1
  N  N1300  1  0.023200  0.382100  0.101300  1
  N  N1301  1  0.432200  0.057700  0.958400  1
  N  N1302  1  0.567800  0.942300  0.041600  1
  N  N1303  1  0.360100  0.078600  0.015900  1
  N  N1304  1  0.639900  0.921400  0.984100  1
  N  N1305  1  0.923700  0.550000  0.956700  1
  N  N1306  1  0.076300  0.450000  0.043300  1
  N  N1307  1  0.925100  0.642900  0.016000  1
  N  N1308  1  0.074900  0.357100  0.984000  1
  N  N1309  1  0.399000  0.561000  0.715900  1
  N  N1310  1  0.601000  0.439000  0.284100  1
  N  N1311  1  0.317300  0.479800  0.704800  1
  N  N1312  1  0.682700  0.520200  0.295200  1
  N  N1313  1  0.816700  0.491000  0.525000  1
  N  N1314  1  0.183300  0.509000  0.475000  1
  N  N1315  1  0.795200  0.579500  0.488700  1
  N  N1316  1  0.204800  0.420500  0.511300  1
  N  N1317  1  0.849600  0.079900  0.824100  1
  N  N1318  1  0.150400  0.920100  0.175900  1
  N  N1319  1  0.834500  0.062800  0.734900  1
  N  N1320  1  0.165500  0.937200  0.265100  1
  N  N1321  1  0.226800  0.990000  0.486300  1
  N  N1322  1  0.773200  0.010000  0.513700  1
  N  N1323  1  0.329200  0.984200  0.525700  1
  N  N1324  1  0.670800  0.015800  0.474300  1
  N  N1325  1  0.470300  0.292200  0.268100  1
  N  N1326  1  0.529700  0.707800  0.731900  1
  N  N1327  1  0.357800  0.537600  0.834200  1
  N  N1328  1  0.642200  0.462400  0.165800  1
  N  N1329  1  0.017000  0.454000  0.527700  1
  N  N1330  1  0.983000  0.546000  0.472300  1
  N  N1331  1  0.620000  0.526900  0.481600  1
  N  N1332  1  0.380000  0.473100  0.518400  1
  N  N1333  1  0.184700  0.370600  0.744500  1
  N  N1334  1  0.815300  0.629400  0.255500  1
  N  N1335  1  0.828800  0.191400  0.946200  1
  N  N1336  1  0.171200  0.808600  0.053800  1
  N  N1337  1  0.198500  0.346500  0.113600  1
  N  N1338  1  0.801500  0.653500  0.886400  1
  N  N1339  1  0.894000  0.369000  0.948700  1
  N  N1340  1  0.106000  0.631000  0.051300  1
  N  N1341  1  0.289300  0.431100  0.400800  1
  N  N1342  1  0.710700  0.568900  0.599200  1
  N  N1343  1  0.496300  0.782000  0.105900  1
  N  N1344  1  0.503700  0.218000  0.894100  1
  N  N1345  1  0.283100  0.053100  0.747300  1
  N  N1346  1  0.716900  0.946900  0.252700  1
  N  N1347  1  0.500000  0.272000  0.287000  1
  N  N1348  1  0.500000  0.728000  0.713000  1
  N  N1349  1  0.402000  0.570000  0.846000  1
  N  N1350  1  0.598000  0.430000  0.154000  1
  N  N1351  1  0.621400  0.570000  0.432100  1
  N  N1352  1  0.378600  0.430000  0.567900  1
  N  N1353  1  0.784200  0.145000  0.944300  1
  N  N1354  1  0.215800  0.855000  0.055700  1
  N  N1355  1  0.154000  0.228000  0.263100  1
  N  N1356  1  0.846000  0.772000  0.736900  1
  N  N1357  1  0.208000  0.318900  0.321000  1
  N  N1358  1  0.792000  0.681100  0.679000  1
  N  N1359  1  0.781000  0.848000  0.088000  1
  N  N1360  1  0.219000  0.152000  0.912000  1
  O  O1361  1  0.179600  0.730200  0.768300  1
  O  O1362  1  0.820400  0.269800  0.231700  1
  O  O1363  1  0.145800  0.767000  0.801600  1
  O  O1364  1  0.854200  0.233000  0.198400  1
  O  O1365  1  0.097000  0.765000  0.842000  1
  O  O1366  1  0.903000  0.235000  0.158000  1
  O  O1367  1  0.026000  0.764000  0.838000  1
  O  O1368  1  0.974000  0.236000  0.162000  1
  O  O1369  1  0.511000  0.276000  0.698200  1
  O  O1370  1  0.489000  0.724000  0.301800  1
  O  O1371  1  0.494000  0.328000  0.668000  1
  O  O1372  1  0.506000  0.672000  0.332000  1
  O  O1373  1  0.459800  0.313400  0.300200  1
  O  O1374  1  0.540200  0.686600  0.699800  1
  O  O1375  1  0.461400  0.309100  0.236100  1
  O  O1376  1  0.538600  0.690900  0.763900  1
  O  O1377  1  0.488000  0.253400  0.267300  1
  O  O1378  1  0.512000  0.746600  0.732700  1
  O  O1379  1  0.323600  0.501700  0.838300  1
  O  O1380  1  0.676400  0.498300  0.161700  1
  O  O1381  1  0.348200  0.573600  0.816700  1
  O  O1382  1  0.651800  0.426400  0.183300  1
  O  O1383  1  0.400000  0.527900  0.830900  1
  O  O1384  1  0.600000  0.472100  0.169100  1
  O  O1385  1  0.052600  0.432500  0.523700  1
  O  O1386  1  0.947400  0.567500  0.476300  1
  O  O1387  1  0.021000  0.488500  0.556300  1
  O  O1388  1  0.979000  0.511500  0.443700  1
  O  O1389  1  0.984000  0.451000  0.498000  1
  O  O1390  1  0.016000  0.549000  0.502000  1
  O  O1391  1  0.615000  0.523000  0.444000  1
  O  O1392  1  0.385000  0.477000  0.556000  1
  O  O1393  1  0.601700  0.561400  0.498500  1
  O  O1394  1  0.398300  0.438600  0.501500  1
  O  O1395  1  0.623100  0.490400  0.499600  1
  O  O1396  1  0.376900  0.509600  0.500400  1
  O  O1397  1  0.553000  0.587000  0.362000  1
  O  O1398  1  0.447000  0.413000  0.638000  1
  O  O1399  1  0.687000  0.658000  0.389000  1
  O  O1400  1  0.313000  0.342000  0.611000  1
  O  O1401  1  0.664000  0.422000  0.427500  1
  O  O1402  1  0.336000  0.578000  0.572500  1
  O  O1403  1  0.153000  0.398000  0.750400  1
  O  O1404  1  0.847000  0.602000  0.249600  1
  O  O1405  1  0.189300  0.350800  0.710200  1
  O  O1406  1  0.810700  0.649200  0.289800  1
  O  O1407  1  0.219400  0.371900  0.772200  1
  O  O1408  1  0.780600  0.628100  0.227800  1
  O  O1409  1  0.682000  0.046000  0.873300  1
  O  O1410  1  0.318000  0.954000  0.126700  1
  O  O1411  1  0.816000  0.160800  0.968800  1
  O  O1412  1  0.184000  0.839200  0.031200  1
  O  O1413  1  0.855000  0.233900  0.960400  1
  O  O1414  1  0.145000  0.766100  0.039600  1
  O  O1415  1  0.816900  0.180700  0.908600  1
  O  O1416  1  0.183100  0.819300  0.091400  1
  O  O1417  1  0.899900  0.275000  0.882000  1
  O  O1418  1  0.100100  0.725000  0.118000  1
  O  O1419  1  0.233100  0.330700  0.097600  1
  O  O1420  1  0.766900  0.669300  0.902400  1
  O  O1421  1  0.164600  0.356800  0.090400  1
  O  O1422  1  0.835400  0.643200  0.909600  1
  O  O1423  1  0.181300  0.321200  0.139600  1
  O  O1424  1  0.818700  0.678800  0.860400  1
  O  O1425  1  0.901800  0.366300  0.912700  1
  O  O1426  1  0.098200  0.633700  0.087300  1
  O  O1427  1  0.865300  0.396000  0.960500  1
  O  O1428  1  0.134700  0.604000  0.039500  1
  O  O1429  1  0.927100  0.367000  0.977600  1
  O  O1430  1  0.072900  0.633000  0.022400  1
  O  O1431  1  0.882000  0.397000  0.013600  1
  O  O1432  1  0.118000  0.603000  0.986400  1
  O  O1433  1  0.301000  0.401100  0.374300  1
  O  O1434  1  0.699000  0.598900  0.625700  1
  O  O1435  1  0.243300  0.427000  0.396700  1
  O  O1436  1  0.756700  0.573000  0.603300  1
  O  O1437  1  0.318400  0.460700  0.428500  1
  O  O1438  1  0.681600  0.539300  0.571500  1
  O  O1439  1  0.454000  0.789000  0.091000  1
  O  O1440  1  0.546000  0.211000  0.909000  1
  O  O1441  1  0.516000  0.811000  0.138200  1
  O  O1442  1  0.484000  0.189000  0.861800  1
  O  O1443  1  0.527100  0.769700  0.083400  1
  O  O1444  1  0.472900  0.230300  0.916600  1
  O  O1445  1  0.215100  0.224800  0.346900  1
  O  O1446  1  0.784900  0.775200  0.653100  1
  O  O1447  1  0.253000  0.058000  0.771500  1
  O  O1448  1  0.747000  0.942000  0.228500  1
  O  O1449  1  0.273000  0.066000  0.713400  1
  O  O1450  1  0.727000  0.934000  0.286600  1
  O  O1451  1  0.329500  0.059000  0.758700  1
  O  O1452  1  0.670500  0.941000  0.241300  1
  O  O1453  1  0.198000  0.039000  0.834000  1
  O  O1454  1  0.802000  0.961000  0.166000  1
  O  O1455  1  0.702000  0.846000  0.114900  1
  O  O1456  1  0.298000  0.154000  0.885100  1
  O  O1457  1  0.381400  0.922800  0.009100  1
  O  O1458  1  0.618600  0.077200  0.990900  1
  O  O1459  1  0.020100  0.554100  0.242200  1
  O  O1460  1  0.979900  0.445900  0.757800  1
  O  O1461  1  0.152200  0.370400  0.244400  1
  O  O1462  1  0.847800  0.629600  0.755600  1
  O  O1463  1  0.083900  0.057700  0.768100  1
  O  O1464  1  0.916100  0.942300  0.231900  1
  O  O1465  1  0.392400  0.811200  0.957500  1
  O  O1466  1  0.607600  0.188800  0.042500  1
  O  O1467  1  0.714800  0.319300  0.520000  1
  O  O1468  1  0.285200  0.680700  0.480000  1
  O  O1469  1  0.927100  0.630000  0.145800  1
  O  O1470  1  0.072900  0.370000  0.854200  1
  O  O1471  1  0.131600  0.050000  0.822500  1
  O  O1472  1  0.868400  0.950000  0.177500  1
  O  O1473  1  0.877400  0.803400  0.838300  1
  O  O1474  1  0.122600  0.196600  0.161700  1
  O  O1475  1  0.258000  0.147100  0.301900  1
  O  O1476  1  0.742000  0.852900  0.698100  1
  O  O1477  1  0.736400  0.552800  0.993800  1
  O  O1478  1  0.263600  0.447200  0.006200  1
  O  O1479  1  0.427500  0.130400  0.148200  1
  O  O1480  1  0.572500  0.869600  0.851800  1
  O  O1481  1  0.609900  0.907600  0.203800  1
  O  O1482  1  0.390100  0.092400  0.796200  1
  O  O1483  1  0.843700  0.399400  0.870900  1
  O  O1484  1  0.156300  0.600600  0.129100  1
  O  O1485  1  0.524200  0.251200  0.433000  1
  O  O1486  1  0.475800  0.748800  0.567000  1
  O  O1487  1  0.741400  0.492000  0.918100  1
  O  O1488  1  0.258600  0.508000  0.081900  1
  O  O1489  1  0.155000  0.355000  0.636700  1
  O  O1490  1  0.845000  0.645000  0.363300  1
  O  O1491  1  0.859400  0.163300  0.618700  1
  O  O1492  1  0.140600  0.836700  0.381300  1
  O  O1493  1  0.689600  0.832800  0.513800  1
  O  O1494  1  0.310400  0.167200  0.486200  1
  O  O1495  1  0.882700  0.399000  0.405400  1
  O  O1496  1  0.117300  0.601000  0.594600  1
  O  O1497  1  0.249200  0.088300  0.370300  1
  O  O1498  1  0.750800  0.911700  0.629700  1
  O  O1499  1  0.527000  0.311000  0.649000  1
  O  O1500  1  0.473000  0.689000  0.351000  1
  O  O1501  1  0.464000  0.282000  0.304000  1
  O  O1502  1  0.536000  0.718000  0.696000  1
  O  O1503  1  0.533000  0.254000  0.306000  1
  O  O1504  1  0.467000  0.746000  0.694000  1
  O  O1505  1  0.491000  0.256000  0.250000  1
  O  O1506  1  0.509000  0.744000  0.750000  1
  O  O1507  1  0.466100  0.652600  0.870100  1
  O  O1508  1  0.533900  0.347400  0.129900  1
  O  O1509  1  0.393000  0.549700  0.876200  1
  O  O1510  1  0.607000  0.450300  0.123800  1
  O  O1511  1  0.431000  0.613000  0.853400  1
  O  O1512  1  0.569000  0.387000  0.146600  1
  O  O1513  1  0.365000  0.568000  0.819000  1
  O  O1514  1  0.635000  0.432000  0.181000  1
  O  O1515  1  0.099800  0.491700  0.594300  1
  O  O1516  1  0.900200  0.508300  0.405700  1
  O  O1517  1  0.614000  0.597000  0.389000  1
  O  O1518  1  0.386000  0.403000  0.611000  1
  O  O1519  1  0.639500  0.493000  0.418600  1
  O  O1520  1  0.360500  0.507000  0.581400  1
  O  O1521  1  0.618800  0.576200  0.469200  1
  O  O1522  1  0.381200  0.423800  0.530800  1
  O  O1523  1  0.654600  0.601300  0.420100  1
  O  O1524  1  0.345400  0.398700  0.579900  1
  O  O1525  1  0.581800  0.553000  0.407300  1
  O  O1526  1  0.418200  0.447000  0.592700  1
  O  O1527  1  0.509000  0.510000  0.352400  1
  O  O1528  1  0.491000  0.490000  0.647600  1
  O  O1529  1  0.808000  0.179000  0.972100  1
  O  O1530  1  0.192000  0.821000  0.027900  1
  O  O1531  1  0.748000  0.114000  0.950700  1
  O  O1532  1  0.252000  0.886000  0.049300  1
  O  O1533  1  0.788700  0.149000  0.908300  1
  O  O1534  1  0.211300  0.851000  0.091700  1
  O  O1535  1  0.896600  0.245800  0.925200  1
  O  O1536  1  0.103400  0.754200  0.074800  1
  O  O1537  1  0.717800  0.075000  0.919800  1
  O  O1538  1  0.282200  0.925000  0.080200  1
  O  O1539  1  0.732000  0.951000  0.779000  1
  O  O1540  1  0.268000  0.049000  0.221000  1
  O  O1541  1  0.241000  0.467000  0.149000  1
  O  O1542  1  0.759000  0.533000  0.851000  1
  O  O1543  1  0.232700  0.332200  0.129800  1
  O  O1544  1  0.767300  0.667800  0.870200  1
  O  O1545  1  0.920900  0.384300  0.997500  1
  O  O1546  1  0.079100  0.615700  0.002500  1
  O  O1547  1  0.140000  0.187000  0.241000  1
  O  O1548  1  0.860000  0.813000  0.759000  1
  O  O1549  1  0.176000  0.231000  0.298000  1
  O  O1550  1  0.824000  0.769000  0.702000  1
  O  O1551  1  0.149000  0.268000  0.250000  1
  O  O1552  1  0.851000  0.732000  0.750000  1
  O  O1553  1  0.182600  0.343000  0.302000  1
  O  O1554  1  0.817400  0.657000  0.698000  1
  O  O1555  1  0.253000  0.338000  0.334900  1
  O  O1556  1  0.747000  0.662000  0.665100  1
  O  O1557  1  0.682600  0.868300  0.093000  1
  O  O1558  1  0.317400  0.131700  0.907000  1
  O  O1559  1  0.285800  0.077500  0.785900  1
  O  O1560  1  0.714200  0.922500  0.214100  1
  O  O1561  1  0.718800  0.818500  0.126800  1
  O  O1562  1  0.281200  0.181500  0.873200  1
  O  O1563  1  0.755000  0.912000  0.169000  1
  O  O1564  1  0.245000  0.088000  0.831000  1
  O  O1565  1  0.764000  0.892000  0.763600  1
  O  O1566  1  0.236000  0.108000  0.236400  1
  O  O1567  1  0.394400  0.021600  0.402400  1
  O  O1568  1  0.605600  0.978400  0.597600  1
  O  O1569  1  0.400600  0.115700  0.447900  1
  O  O1570  1  0.599400  0.884300  0.552100  1
  O  O1571  1  0.383000  0.243000  0.991000  1
  O  O1572  1  0.617000  0.757000  0.009000  1
  O  O1573  1  0.475000  0.679000  0.912000  1
  O  O1574  1  0.525000  0.321000  0.088000  1
  O  O1575  1  0.091600  0.020000  0.409100  1
  O  O1576  1  0.908400  0.980000  0.590900  1
