# generated using pymatgen
data_H312Pd12C266N76O123
_symmetry_space_group_name_H-M   'P 1'
_cell_length_a   25.81600000
_cell_length_b   26.02600000
_cell_length_c   31.71000000
_cell_angle_alpha   97.02800000
_cell_angle_beta   96.86900000
_cell_angle_gamma   102.15700000
_symmetry_Int_Tables_number   1
_chemical_formula_structural   H312Pd12C266N76O123
_chemical_formula_sum   'H624 Pd24 C532 N152 O246'
_cell_volume   20437.92812910
_cell_formula_units_Z   2
loop_
 _symmetry_equiv_pos_site_id
 _symmetry_equiv_pos_as_xyz
  1  'x, y, z'
loop_
 _atom_site_type_symbol
 _atom_site_label
 _atom_site_symmetry_multiplicity
 _atom_site_fract_x
 _atom_site_fract_y
 _atom_site_fract_z
 _atom_site_occupancy
  H  H1  1  0.545200  0.613300  0.816800  1
  H  H2  1  0.454800  0.386700  0.183200  1
  H  H3  1  0.504300  0.544200  0.849600  1
  H  H4  1  0.495700  0.455800  0.150400  1
  H  H5  1  0.646400  0.541500  0.913600  1
  H  H6  1  0.353600  0.458500  0.086400  1
  H  H7  1  0.683900  0.615700  0.884100  1
  H  H8  1  0.316100  0.384300  0.115900  1
  H  H9  1  0.719500  0.407000  0.003300  1
  H  H10  1  0.280500  0.593000  0.996700  1
  H  H11  1  0.666400  0.448400  0.962000  1
  H  H12  1  0.333600  0.551600  0.038000  1
  H  H13  1  0.538900  0.330200  0.968000  1
  H  H14  1  0.461100  0.669800  0.032000  1
  H  H15  1  0.596200  0.289500  0.006600  1
  H  H16  1  0.403800  0.710500  0.993400  1
  H  H17  1  0.342700  0.275000  0.885900  1
  H  H18  1  0.657300  0.725000  0.114100  1
  H  H19  1  0.428000  0.317900  0.906700  1
  H  H20  1  0.572000  0.682100  0.093300  1
  H  H21  1  0.402600  0.436600  0.845900  1
  H  H22  1  0.597400  0.563400  0.154100  1
  H  H23  1  0.317300  0.389200  0.821600  1
  H  H24  1  0.682700  0.610800  0.178400  1
  H  H25  1  0.486500  0.419000  0.551100  1
  H  H26  1  0.513500  0.581000  0.448900  1
  H  H27  1  0.557100  0.459100  0.604700  1
  H  H28  1  0.442900  0.540900  0.395300  1
  H  H29  1  0.644100  0.363000  0.554000  1
  H  H30  1  0.355900  0.637000  0.446000  1
  H  H31  1  0.572200  0.326000  0.502900  1
  H  H32  1  0.427800  0.674000  0.497100  1
  H  H33  1  0.831400  0.328200  0.620500  1
  H  H34  1  0.168600  0.671800  0.379500  1
  H  H35  1  0.762100  0.368800  0.604400  1
  H  H36  1  0.237900  0.631200  0.395600  1
  H  H37  1  0.824800  0.475300  0.710000  1
  H  H38  1  0.175200  0.524700  0.290000  1
  H  H39  1  0.896700  0.437600  0.717800  1
  H  H40  1  0.103300  0.562400  0.282200  1
  H  H41  1  0.734300  0.614300  0.803000  1
  H  H42  1  0.265700  0.385700  0.197000  1
  H  H43  1  0.746400  0.546000  0.755900  1
  H  H44  1  0.253600  0.454000  0.244100  1
  H  H45  1  0.613000  0.556900  0.682000  1
  H  H46  1  0.387000  0.443100  0.318000  1
  H  H47  1  0.603800  0.625700  0.732400  1
  H  H48  1  0.396200  0.374300  0.267600  1
  H  H49  1  0.623500  0.028900  0.673400  1
  H  H50  1  0.376500  0.971100  0.326600  1
  H  H51  1  0.681300  0.109100  0.707000  1
  H  H52  1  0.318700  0.890900  0.293000  1
  H  H53  1  0.615300  0.089800  0.813100  1
  H  H54  1  0.384700  0.910200  0.186900  1
  H  H55  1  0.560100  0.008900  0.775900  1
  H  H56  1  0.439900  0.991100  0.224100  1
  H  H57  1  0.902400  0.353400  0.772400  1
  H  H58  1  0.097600  0.646600  0.227600  1
  H  H59  1  0.841500  0.308600  0.812400  1
  H  H60  1  0.158500  0.691400  0.187600  1
  H  H61  1  0.785000  0.198400  0.710200  1
  H  H62  1  0.215000  0.801600  0.289800  1
  H  H63  1  0.848900  0.242100  0.672600  1
  H  H64  1  0.151100  0.757900  0.327400  1
  H  H65  1  0.658600  0.208800  0.970300  1
  H  H66  1  0.341400  0.791200  0.029700  1
  H  H67  1  0.662900  0.175700  0.903000  1
  H  H68  1  0.337100  0.824300  0.097000  1
  H  H69  1  0.786600  0.294000  0.901600  1
  H  H70  1  0.213400  0.706000  0.098400  1
  H  H71  1  0.781200  0.327700  0.970300  1
  H  H72  1  0.218800  0.672300  0.029700  1
  H  H73  1  0.477400  0.232700  0.498500  1
  H  H74  1  0.522600  0.767300  0.501500  1
  H  H75  1  0.460000  0.179500  0.551200  1
  H  H76  1  0.540000  0.820500  0.448800  1
  H  H77  1  0.375000  0.285200  0.597100  1
  H  H78  1  0.625000  0.714800  0.402900  1
  H  H79  1  0.396400  0.333600  0.542800  1
  H  H80  1  0.603600  0.666400  0.457200  1
  H  H81  1  0.449800  0.996300  0.721200  1
  H  H82  1  0.550200  0.003700  0.278800  1
  H  H83  1  0.403300  0.064900  0.708500  1
  H  H84  1  0.596700  0.935100  0.291500  1
  H  H85  1  0.480500  0.088300  0.608700  1
  H  H86  1  0.519500  0.911700  0.391300  1
  H  H87  1  0.523800  0.023100  0.621000  1
  H  H88  1  0.476200  0.976900  0.379000  1
  H  H89  1  0.270300  0.296000  0.734700  1
  H  H90  1  0.729700  0.704000  0.265300  1
  H  H91  1  0.314500  0.266300  0.680200  1
  H  H92  1  0.685500  0.733700  0.319800  1
  H  H93  1  0.356800  0.164400  0.755000  1
  H  H94  1  0.643200  0.835600  0.245000  1
  H  H95  1  0.309500  0.193400  0.803400  1
  H  H96  1  0.690500  0.806600  0.196600  1
  H  H97  1  0.274300  0.317900  0.917000  1
  H  H98  1  0.725700  0.682100  0.083000  1
  H  H99  1  0.238800  0.259000  0.909000  1
  H  H100  1  0.761200  0.741000  0.091000  1
  H  H101  1  0.217300  0.305900  0.932200  1
  H  H102  1  0.782700  0.694100  0.067800  1
  H  H103  1  0.251400  0.376600  0.892400  1
  H  H104  1  0.748600  0.623400  0.107600  1
  H  H105  1  0.188200  0.366400  0.887900  1
  H  H106  1  0.811800  0.633600  0.112100  1
  H  H107  1  0.216700  0.369400  0.846500  1
  H  H108  1  0.783300  0.630600  0.153500  1
  H  H109  1  0.152000  0.252500  0.882700  1
  H  H110  1  0.848000  0.747500  0.117300  1
  H  H111  1  0.135600  0.299300  0.861400  1
  H  H112  1  0.864400  0.700700  0.138600  1
  H  H113  1  0.116500  0.258300  0.807100  1
  H  H114  1  0.883500  0.741700  0.192900  1
  H  H115  1  0.120600  0.209300  0.830800  1
  H  H116  1  0.879400  0.790700  0.169200  1
  H  H117  1  0.201000  0.164500  0.778900  1
  H  H118  1  0.799000  0.835500  0.221100  1
  H  H119  1  0.140400  0.154200  0.786500  1
  H  H120  1  0.859600  0.845800  0.213500  1
  H  H121  1  0.187000  0.169900  0.826300  1
  H  H122  1  0.813000  0.830100  0.173700  1
  H  H123  1  0.159100  0.270600  0.751800  1
  H  H124  1  0.840900  0.729400  0.248200  1
  H  H125  1  0.117800  0.215200  0.748200  1
  H  H126  1  0.882200  0.784800  0.251800  1
  H  H127  1  0.174600  0.217300  0.733500  1
  H  H128  1  0.825400  0.782700  0.266500  1
  H  H129  1  0.409800  0.842200  0.648800  1
  H  H130  1  0.590200  0.157800  0.351200  1
  H  H131  1  0.408200  0.899700  0.637800  1
  H  H132  1  0.591800  0.100300  0.362200  1
  H  H133  1  0.425900  0.891900  0.685800  1
  H  H134  1  0.574100  0.108100  0.314200  1
  H  H135  1  0.496300  0.923400  0.599800  1
  H  H136  1  0.503700  0.076600  0.400200  1
  H  H137  1  0.446900  0.873800  0.589200  1
  H  H138  1  0.553100  0.126200  0.410800  1
  H  H139  1  0.506000  0.865000  0.595700  1
  H  H140  1  0.494000  0.135000  0.404300  1
  H  H141  1  0.480000  0.830700  0.685600  1
  H  H142  1  0.520000  0.169300  0.314400  1
  H  H143  1  0.487600  0.812200  0.637600  1
  H  H144  1  0.512400  0.187800  0.362400  1
  H  H145  1  0.559700  0.849500  0.645200  1
  H  H146  1  0.440300  0.150500  0.354800  1
  H  H147  1  0.551200  0.820100  0.684900  1
  H  H148  1  0.448800  0.179900  0.315100  1
  H  H149  1  0.606900  0.868300  0.746900  1
  H  H150  1  0.393100  0.131700  0.253100  1
  H  H151  1  0.546200  0.871600  0.746000  1
  H  H152  1  0.453800  0.128400  0.254000  1
  H  H153  1  0.592500  0.923800  0.760000  1
  H  H154  1  0.407500  0.076200  0.240000  1
  H  H155  1  0.638500  0.926700  0.668100  1
  H  H156  1  0.361500  0.073300  0.331900  1
  H  H157  1  0.652900  0.885200  0.697600  1
  H  H158  1  0.347100  0.114800  0.302400  1
  H  H159  1  0.653900  0.943900  0.718500  1
  H  H160  1  0.346100  0.056100  0.281500  1
  H  H161  1  0.396300  0.226500  0.438100  1
  H  H162  1  0.603700  0.773500  0.561900  1
  H  H163  1  0.429100  0.241100  0.400300  1
  H  H164  1  0.570900  0.758900  0.599700  1
  H  H165  1  0.365600  0.228900  0.392300  1
  H  H166  1  0.634400  0.771100  0.607700  1
  H  H167  1  0.336200  0.334800  0.429200  1
  H  H168  1  0.663800  0.665200  0.570800  1
  H  H169  1  0.358100  0.318600  0.473400  1
  H  H170  1  0.641900  0.681400  0.526600  1
  H  H171  1  0.325700  0.274100  0.435300  1
  H  H172  1  0.674300  0.725900  0.564700  1
  H  H173  1  0.421400  0.312500  0.367600  1
  H  H174  1  0.578600  0.687500  0.632400  1
  H  H175  1  0.370500  0.335800  0.375300  1
  H  H176  1  0.629500  0.664200  0.624700  1
  H  H177  1  0.410200  0.398300  0.409800  1
  H  H178  1  0.589800  0.601700  0.590200  1
  H  H179  1  0.446900  0.387700  0.375300  1
  H  H180  1  0.553100  0.612300  0.624700  1
  H  H181  1  0.552800  0.389900  0.458800  1
  H  H182  1  0.447200  0.610100  0.541200  1
  H  H183  1  0.548700  0.424900  0.421500  1
  H  H184  1  0.451300  0.575100  0.578500  1
  H  H185  1  0.534900  0.362000  0.410400  1
  H  H186  1  0.465100  0.638000  0.589600  1
  H  H187  1  0.471100  0.465300  0.437300  1
  H  H188  1  0.528900  0.534700  0.562700  1
  H  H189  1  0.526300  0.462700  0.463700  1
  H  H190  1  0.473700  0.537300  0.536300  1
  H  H191  1  0.472300  0.445500  0.482600  1
  H  H192  1  0.527700  0.554500  0.517400  1
  H  H193  1  0.706200  0.197000  0.039000  1
  H  H194  1  0.293800  0.803000  0.961000  1
  H  H195  1  0.736200  0.190900  0.084000  1
  H  H196  1  0.263800  0.809100  0.916000  1
  H  H197  1  0.764700  0.186400  0.042600  1
  H  H198  1  0.235300  0.813600  0.957400  1
  H  H199  1  0.843000  0.269500  0.079500  1
  H  H200  1  0.157000  0.730500  0.920500  1
  H  H201  1  0.827000  0.311500  0.051300  1
  H  H202  1  0.173000  0.688500  0.948700  1
  H  H203  1  0.821100  0.251900  0.029900  1
  H  H204  1  0.178900  0.748100  0.970100  1
  H  H205  1  0.737900  0.239200  0.121000  1
  H  H206  1  0.262100  0.760800  0.879000  1
  H  H207  1  0.793800  0.280000  0.129800  1
  H  H208  1  0.206200  0.720000  0.870200  1
  H  H209  1  0.761900  0.338700  0.146900  1
  H  H210  1  0.238100  0.661300  0.853100  1
  H  H211  1  0.708300  0.296000  0.146100  1
  H  H212  1  0.291700  0.704000  0.853900  1
  H  H213  1  0.638200  0.287500  0.104400  1
  H  H214  1  0.361800  0.712500  0.895600  1
  H  H215  1  0.631500  0.336900  0.081400  1
  H  H216  1  0.368500  0.663100  0.918600  1
  H  H217  1  0.648700  0.344700  0.131900  1
  H  H218  1  0.351300  0.655300  0.868100  1
  H  H219  1  0.706900  0.410000  0.086400  1
  H  H220  1  0.293100  0.590000  0.913600  1
  H  H221  1  0.765600  0.403100  0.100800  1
  H  H222  1  0.234400  0.596900  0.899200  1
  H  H223  1  0.726700  0.408500  0.135400  1
  H  H224  1  0.273300  0.591500  0.864600  1
  H  H225  1  0.761200  0.735600  0.828700  1
  H  H226  1  0.238800  0.264400  0.171300  1
  H  H227  1  0.774000  0.765000  0.789000  1
  H  H228  1  0.226000  0.235000  0.211000  1
  H  H229  1  0.753700  0.702300  0.782200  1
  H  H230  1  0.246300  0.297700  0.217800  1
  H  H231  1  0.684100  0.777800  0.742500  1
  H  H232  1  0.315900  0.222200  0.257500  1
  H  H233  1  0.641500  0.723500  0.740000  1
  H  H234  1  0.358500  0.276500  0.260000  1
  H  H235  1  0.700500  0.723000  0.731300  1
  H  H236  1  0.299500  0.277000  0.268700  1
  H  H237  1  0.729500  0.817200  0.828200  1
  H  H238  1  0.270500  0.182800  0.171800  1
  H  H239  1  0.672100  0.815600  0.803600  1
  H  H240  1  0.327900  0.184400  0.196400  1
  H  H241  1  0.648500  0.814300  0.856000  1
  H  H242  1  0.351500  0.185700  0.144000  1
  H  H243  1  0.702800  0.805200  0.878100  1
  H  H244  1  0.297200  0.194800  0.121900  1
  H  H245  1  0.645000  0.710100  0.918600  1
  H  H246  1  0.355000  0.289900  0.081400  1
  H  H247  1  0.682100  0.768000  0.924000  1
  H  H248  1  0.317900  0.232000  0.076000  1
  H  H249  1  0.700900  0.718800  0.901400  1
  H  H250  1  0.299100  0.281200  0.098600  1
  H  H251  1  0.577800  0.707800  0.881600  1
  H  H252  1  0.422200  0.292200  0.118400  1
  H  H253  1  0.572300  0.729200  0.837000  1
  H  H254  1  0.427700  0.270800  0.163000  1
  H  H255  1  0.585500  0.769600  0.880500  1
  H  H256  1  0.414500  0.230400  0.119500  1
  H  H257  1  0.984800  0.295300  0.757000  1
  H  H258  1  0.015200  0.704700  0.243000  1
  H  H259  1  0.027400  0.345400  0.749300  1
  H  H260  1  0.972600  0.654600  0.250700  1
  H  H261  1  0.040100  0.288200  0.743000  1
  H  H262  1  0.959900  0.711800  0.257000  1
  H  H263  1  0.984800  0.220600  0.676000  1
  H  H264  1  0.015200  0.779400  0.324000  1
  H  H265  1  0.932200  0.238700  0.659300  1
  H  H266  1  0.067800  0.761300  0.340700  1
  H  H267  1  0.943200  0.229000  0.707600  1
  H  H268  1  0.056800  0.771000  0.292400  1
  H  H269  1  0.066300  0.312000  0.673500  1
  H  H270  1  0.933700  0.688000  0.326500  1
  H  H271  1  0.017600  0.294500  0.634900  1
  H  H272  1  0.982400  0.705500  0.365100  1
  H  H273  1  0.057700  0.379200  0.641800  1
  H  H274  1  0.942300  0.620800  0.358200  1
  H  H275  1  0.044200  0.387500  0.689200  1
  H  H276  1  0.955800  0.612500  0.310800  1
  H  H277  1  0.960900  0.450000  0.651300  1
  H  H278  1  0.039100  0.550000  0.348700  1
  H  H279  1  0.020500  0.453800  0.642100  1
  H  H280  1  0.979500  0.546200  0.357900  1
  H  H281  1  0.005900  0.445400  0.688300  1
  H  H282  1  0.994100  0.554600  0.311700  1
  H  H283  1  0.927600  0.382700  0.593700  1
  H  H284  1  0.072400  0.617300  0.406300  1
  H  H285  1  0.934200  0.323900  0.595800  1
  H  H286  1  0.065800  0.676100  0.404200  1
  H  H287  1  0.979200  0.365500  0.580000  1
  H  H288  1  0.020800  0.634500  0.420000  1
  H  H289  1  0.361700  0.924700  0.927800  1
  H  H290  1  0.638300  0.075300  0.072200  1
  H  H291  1  0.347300  0.869300  0.862700  1
  H  H292  1  0.652700  0.130700  0.137300  1
  H  H293  1  0.313500  0.990700  0.806500  1
  H  H294  1  0.686500  0.009300  0.193500  1
  H  H295  1  0.323600  0.037800  0.871800  1
  H  H296  1  0.676400  0.962200  0.128200  1
  H  H297  1  0.285900  0.016100  0.637300  1
  H  H298  1  0.714100  0.983900  0.362700  1
  H  H299  1  0.301800  0.982300  0.699400  1
  H  H300  1  0.698200  0.017700  0.300600  1
  H  H301  1  0.289600  0.838800  0.630700  1
  H  H302  1  0.710400  0.161200  0.369300  1
  H  H303  1  0.270900  0.874200  0.569900  1
  H  H304  1  0.729100  0.125800  0.430100  1
  H  H305  1  0.308000  0.654400  0.665600  1
  H  H306  1  0.692000  0.345600  0.334400  1
  H  H307  1  0.301000  0.743000  0.672700  1
  H  H308  1  0.699000  0.257000  0.327300  1
  H  H309  1  0.345900  0.751800  0.799400  1
  H  H310  1  0.654100  0.248200  0.200600  1
  H  H311  1  0.347900  0.664700  0.787100  1
  H  H312  1  0.652100  0.335300  0.212900  1
  H  H313  1  0.162800  0.877700  0.527400  1
  H  H314  1  0.837200  0.122300  0.472600  1
  H  H315  1  0.081700  0.841400  0.547300  1
  H  H316  1  0.918300  0.158600  0.452700  1
  H  H317  1  0.096200  0.982700  0.626300  1
  H  H318  1  0.903800  0.017300  0.373700  1
  H  H319  1  0.179500  0.012100  0.600000  1
  H  H320  1  0.820500  0.987900  0.400000  1
  H  H321  1  0.972900  0.042000  0.739500  1
  H  H322  1  0.027100  0.958000  0.260500  1
  H  H323  1  0.009800  0.990100  0.693500  1
  H  H324  1  0.990200  0.009900  0.306500  1
  H  H325  1  0.884500  0.871200  0.690000  1
  H  H326  1  0.115500  0.128800  0.310000  1
  H  H327  1  0.853100  0.920500  0.741500  1
  H  H328  1  0.146900  0.079500  0.258500  1
  H  H329  1  0.829600  0.671900  0.600400  1
  H  H330  1  0.170400  0.328100  0.399600  1
  H  H331  1  0.870800  0.761200  0.628700  1
  H  H332  1  0.129200  0.238800  0.371300  1
  H  H333  1  0.981000  0.742400  0.551300  1
  H  H334  1  0.019000  0.257600  0.448700  1
  H  H335  1  0.927700  0.657600  0.523300  1
  H  H336  1  0.072300  0.342400  0.476700  1
  H  H337  1  0.253600  0.062100  0.938200  1
  H  H338  1  0.746400  0.937900  0.061800  1
  H  H339  1  0.160500  0.025800  0.927400  1
  H  H340  1  0.839500  0.974200  0.072600  1
  H  H341  1  0.193300  0.899300  0.979500  1
  H  H342  1  0.806700  0.100700  0.020500  1
  H  H343  1  0.283000  0.940400  0.989400  1
  H  H344  1  0.717000  0.059600  0.010600  1
  H  H345  1  0.870800  0.941000  0.837500  1
  H  H346  1  0.129200  0.059000  0.162500  1
  H  H347  1  0.923700  0.903200  0.880200  1
  H  H348  1  0.076300  0.096800  0.119800  1
  H  H349  1  0.044800  0.024600  0.883600  1
  H  H350  1  0.955200  0.975400  0.116400  1
  H  H351  1  0.990600  0.060400  0.837900  1
  H  H352  1  0.009400  0.939600  0.162100  1
  H  H353  1  0.054300  0.707800  0.985200  1
  H  H354  1  0.945700  0.292200  0.014800  1
  H  H355  1  0.091300  0.796500  0.975300  1
  H  H356  1  0.908700  0.203500  0.024700  1
  H  H357  1  0.939900  0.799200  0.919800  1
  H  H358  1  0.060100  0.200800  0.080200  1
  H  H359  1  0.912900  0.713100  0.931900  1
  H  H360  1  0.087100  0.286900  0.068100  1
  H  H361  1  0.945100  0.558600  0.561300  1
  H  H362  1  0.054900  0.441400  0.438700  1
  H  H363  1  0.005900  0.552000  0.620100  1
  H  H364  1  0.994100  0.448000  0.379900  1
  H  H365  1  0.892400  0.571600  0.693600  1
  H  H366  1  0.107600  0.428400  0.306400  1
  H  H367  1  0.837900  0.575100  0.634800  1
  H  H368  1  0.162100  0.424900  0.365200  1
  H  H369  1  0.248400  0.557300  0.781300  1
  H  H370  1  0.751600  0.442700  0.218700  1
  H  H371  1  0.162200  0.558900  0.791600  1
  H  H372  1  0.837800  0.441100  0.208400  1
  H  H373  1  0.128700  0.571500  0.663600  1
  H  H374  1  0.871300  0.428500  0.336400  1
  H  H375  1  0.213200  0.561300  0.658400  1
  H  H376  1  0.786800  0.438700  0.341600  1
  H  H377  1  0.907700  0.616500  0.865400  1
  H  H378  1  0.092300  0.383500  0.134600  1
  H  H379  1  0.930100  0.606200  0.799900  1
  H  H380  1  0.069900  0.393800  0.200100  1
  H  H381  1  0.072000  0.585300  0.850900  1
  H  H382  1  0.928000  0.414700  0.149100  1
  H  H383  1  0.047600  0.605500  0.921100  1
  H  H384  1  0.952400  0.394500  0.078900  1
  H  H385  1  0.437100  0.131100  0.941300  1
  H  H386  1  0.562900  0.868900  0.058700  1
  H  H387  1  0.422300  0.082300  0.903500  1
  H  H388  1  0.577700  0.917700  0.096500  1
  H  H389  1  0.482400  0.103700  0.926300  1
  H  H390  1  0.517600  0.896300  0.073700  1
  H  H391  1  0.459900  0.993200  0.971400  1
  H  H392  1  0.540100  0.006800  0.028600  1
  H  H393  1  0.502900  0.035200  0.954200  1
  H  H394  1  0.497100  0.964800  0.045800  1
  H  H395  1  0.451700  0.001200  0.922600  1
  H  H396  1  0.548300  0.998800  0.077400  1
  H  H397  1  0.468800  0.059000  0.021500  1
  H  H398  1  0.531200  0.941000  0.978500  1
  H  H399  1  0.489700  0.112800  0.004200  1
  H  H400  1  0.510300  0.887200  0.995800  1
  H  H401  1  0.425000  0.144000  0.018700  1
  H  H402  1  0.575000  0.856000  0.981300  1
  H  H403  1  0.437300  0.114200  0.057800  1
  H  H404  1  0.562700  0.885800  0.942200  1
  H  H405  1  0.291800  0.093400  0.010100  1
  H  H406  1  0.708200  0.906600  0.989900  1
  H  H407  1  0.336800  0.140700  0.001200  1
  H  H408  1  0.663200  0.859300  0.998800  1
  H  H409  1  0.328700  0.133600  0.049000  1
  H  H410  1  0.671300  0.866400  0.951000  1
  H  H411  1  0.339000  0.013300  0.043300  1
  H  H412  1  0.661000  0.986700  0.956700  1
  H  H413  1  0.339200  0.064700  0.075800  1
  H  H414  1  0.660800  0.935300  0.924200  1
  H  H415  1  0.393700  0.047600  0.070100  1
  H  H416  1  0.606300  0.952400  0.929900  1
  H  H417  1  0.960100  0.508400  0.915700  1
  H  H418  1  0.039900  0.491600  0.084300  1
  H  H419  1  0.949600  0.478300  0.955400  1
  H  H420  1  0.050400  0.521700  0.044600  1
  H  H421  1  0.996600  0.529800  0.960900  1
  H  H422  1  0.003400  0.470200  0.039100  1
  H  H423  1  0.864500  0.487700  0.925400  1
  H  H424  1  0.135500  0.512300  0.074600  1
  H  H425  1  0.876800  0.538200  0.901800  1
  H  H426  1  0.123200  0.461800  0.098200  1
  H  H427  1  0.844500  0.539200  0.941200  1
  H  H428  1  0.155500  0.460800  0.058800  1
  H  H429  1  0.880100  0.510000  0.998300  1
  H  H430  1  0.119900  0.490000  0.001700  1
  H  H431  1  0.941200  0.532600  0.017800  1
  H  H432  1  0.058800  0.467400  0.982200  1
  H  H433  1  0.902400  0.581400  0.052700  1
  H  H434  1  0.097600  0.418600  0.947300  1
  H  H435  1  0.860200  0.582600  0.012700  1
  H  H436  1  0.139800  0.417400  0.987300  1
  H  H437  1  0.959200  0.666100  0.077500  1
  H  H438  1  0.040800  0.333900  0.922500  1
  H  H439  1  0.993400  0.693100  0.044500  1
  H  H440  1  0.006600  0.306900  0.955500  1
  H  H441  1  0.997400  0.635600  0.054000  1
  H  H442  1  0.002600  0.364400  0.946000  1
  H  H443  1  0.870500  0.667700  0.991700  1
  H  H444  1  0.129500  0.332300  0.008300  1
  H  H445  1  0.917700  0.710200  0.021700  1
  H  H446  1  0.082300  0.289800  0.978300  1
  H  H447  1  0.876100  0.670500  0.042300  1
  H  H448  1  0.123900  0.329500  0.957700  1
  H  H449  1  0.469200  0.600100  0.743800  1
  H  H450  1  0.530800  0.399900  0.256200  1
  H  H451  1  0.421400  0.572800  0.766500  1
  H  H452  1  0.578600  0.427200  0.233500  1
  H  H453  1  0.429000  0.633400  0.760600  1
  H  H454  1  0.571000  0.366600  0.239400  1
  H  H455  1  0.449300  0.622400  0.672100  1
  H  H456  1  0.550700  0.377600  0.327900  1
  H  H457  1  0.419000  0.659500  0.698300  1
  H  H458  1  0.581000  0.340500  0.301700  1
  H  H459  1  0.388800  0.621700  0.655600  1
  H  H460  1  0.611200  0.378300  0.344400  1
  H  H461  1  0.389100  0.533500  0.652200  1
  H  H462  1  0.610900  0.466500  0.347800  1
  H  H463  1  0.439300  0.532300  0.685700  1
  H  H464  1  0.560700  0.467700  0.314300  1
  H  H465  1  0.388900  0.486300  0.724700  1
  H  H466  1  0.611100  0.513700  0.275300  1
  H  H467  1  0.373000  0.458000  0.676300  1
  H  H468  1  0.627000  0.542000  0.323700  1
  H  H469  1  0.309600  0.433300  0.732200  1
  H  H470  1  0.690400  0.566700  0.267800  1
  H  H471  1  0.253900  0.447800  0.718800  1
  H  H472  1  0.746100  0.552200  0.281200  1
  H  H473  1  0.296400  0.485000  0.756200  1
  H  H474  1  0.703600  0.515000  0.243800  1
  H  H475  1  0.293800  0.438700  0.645000  1
  H  H476  1  0.706200  0.561300  0.355000  1
  H  H477  1  0.296700  0.497600  0.635600  1
  H  H478  1  0.703300  0.502400  0.364400  1
  H  H479  1  0.247900  0.467800  0.656000  1
  H  H480  1  0.752100  0.532200  0.344000  1
  H  H481  1  0.817800  0.468200  0.576200  1
  H  H482  1  0.182200  0.531800  0.423800  1
  H  H483  1  0.761200  0.440400  0.548800  1
  H  H484  1  0.238800  0.559600  0.451200  1
  H  H485  1  0.768900  0.495900  0.578400  1
  H  H486  1  0.231100  0.504100  0.421600  1
  H  H487  1  0.867300  0.473900  0.523400  1
  H  H488  1  0.132700  0.526100  0.476600  1
  H  H489  1  0.849300  0.492400  0.479300  1
  H  H490  1  0.150700  0.507600  0.520700  1
  H  H491  1  0.817700  0.438200  0.491000  1
  H  H492  1  0.182300  0.561800  0.509000  1
  H  H493  1  0.748300  0.469400  0.473100  1
  H  H494  1  0.251700  0.530600  0.526900  1
  H  H495  1  0.726700  0.504800  0.507900  1
  H  H496  1  0.273300  0.495200  0.492100  1
  H  H497  1  0.727200  0.544000  0.454000  1
  H  H498  1  0.272800  0.456000  0.546000  1
  H  H499  1  0.784300  0.535200  0.446000  1
  H  H500  1  0.215700  0.464800  0.554000  1
  H  H501  1  0.729000  0.633500  0.483900  1
  H  H502  1  0.271000  0.366500  0.516100  1
  H  H503  1  0.771500  0.659200  0.525400  1
  H  H504  1  0.228500  0.340800  0.474600  1
  H  H505  1  0.729000  0.605500  0.525600  1
  H  H506  1  0.271000  0.394500  0.474400  1
  H  H507  1  0.789900  0.631400  0.440800  1
  H  H508  1  0.210100  0.368600  0.559200  1
  H  H509  1  0.838800  0.604500  0.450600  1
  H  H510  1  0.161200  0.395500  0.549400  1
  H  H511  1  0.837300  0.658800  0.478600  1
  H  H512  1  0.162700  0.341200  0.521400  1
  H  H513  1  0.908700  0.107500  0.883800  1
  H  H514  1  0.091300  0.892500  0.116200  1
  H  H515  1  0.882400  0.151600  0.865500  1
  H  H516  1  0.117600  0.848400  0.134500  1
  H  H517  1  0.924600  0.128400  0.841200  1
  H  H518  1  0.075400  0.871600  0.158800  1
  H  H519  1  0.812400  0.009800  0.847800  1
  H  H520  1  0.187600  0.990200  0.152200  1
  H  H521  1  0.794000  0.060300  0.868400  1
  H  H522  1  0.206000  0.939700  0.131600  1
  H  H523  1  0.849200  0.048700  0.887600  1
  H  H524  1  0.150800  0.951300  0.112400  1
  H  H525  1  0.778300  0.083100  0.816100  1
  H  H526  1  0.221700  0.916900  0.183900  1
  H  H527  1  0.820600  0.137600  0.821300  1
  H  H528  1  0.179400  0.862400  0.178700  1
  H  H529  1  0.822500  0.132400  0.759400  1
  H  H530  1  0.177500  0.867600  0.240600  1
  H  H531  1  0.770300  0.086800  0.754500  1
  H  H532  1  0.229700  0.913200  0.245500  1
  H  H533  1  0.863600  0.054600  0.685400  1
  H  H534  1  0.136400  0.945400  0.314600  1
  H  H535  1  0.902900  0.096300  0.722200  1
  H  H536  1  0.097100  0.903700  0.277800  1
  H  H537  1  0.850900  0.110600  0.699400  1
  H  H538  1  0.149100  0.889400  0.300600  1
  H  H539  1  0.786700  0.988400  0.733900  1
  H  H540  1  0.213300  0.011600  0.266100  1
  H  H541  1  0.803600  0.006500  0.690600  1
  H  H542  1  0.196400  0.993500  0.309400  1
  H  H543  1  0.760600  0.030900  0.712800  1
  H  H544  1  0.239400  0.969100  0.287200  1
  H  H545  1  0.149700  0.029700  0.489900  1
  H  H546  1  0.850300  0.970300  0.510100  1
  H  H547  1  0.202300  0.075100  0.493200  1
  H  H548  1  0.797700  0.924900  0.506800  1
  H  H549  1  0.188700  0.048600  0.534100  1
  H  H550  1  0.811300  0.951400  0.465900  1
  H  H551  1  0.163400  0.931200  0.473200  1
  H  H552  1  0.836600  0.068800  0.526800  1
  H  H553  1  0.202100  0.944700  0.438900  1
  H  H554  1  0.797900  0.055300  0.561100  1
  H  H555  1  0.154700  0.974000  0.443300  1
  H  H556  1  0.845300  0.026000  0.556700  1
  H  H557  1  0.253500  0.010100  0.441100  1
  H  H558  1  0.746500  0.989900  0.558900  1
  H  H559  1  0.261200  0.063200  0.473400  1
  H  H560  1  0.738800  0.936800  0.526600  1
  H  H561  1  0.334700  0.057400  0.491700  1
  H  H562  1  0.665300  0.942600  0.508300  1
  H  H563  1  0.324100  0.000500  0.464200  1
  H  H564  1  0.675900  0.999500  0.535800  1
  H  H565  1  0.373500  0.016300  0.581700  1
  H  H566  1  0.626500  0.983700  0.418300  1
  H  H567  1  0.339000  0.059400  0.576500  1
  H  H568  1  0.661000  0.940600  0.423500  1
  H  H569  1  0.386500  0.057500  0.549500  1
  H  H570  1  0.613500  0.942500  0.450500  1
  H  H571  1  0.329200  0.934000  0.489800  1
  H  H572  1  0.670800  0.066000  0.510200  1
  H  H573  1  0.345300  0.934200  0.539600  1
  H  H574  1  0.654700  0.065800  0.460400  1
  H  H575  1  0.383900  0.970900  0.514600  1
  H  H576  1  0.616100  0.029100  0.485400  1
  H  H577  1  0.596900  0.386000  0.845200  1
  H  H578  1  0.403100  0.614000  0.154800  1
  H  H579  1  0.646200  0.466800  0.829600  1
  H  H580  1  0.353800  0.533200  0.170400  1
  H  H581  1  0.613200  0.498300  0.770200  1
  H  H582  1  0.386800  0.501700  0.229800  1
  H  H583  1  0.509700  0.308500  0.824300  1
  H  H584  1  0.490300  0.691500  0.175700  1
  H  H585  1  0.430700  0.276900  0.776700  1
  H  H586  1  0.569300  0.723100  0.223300  1
  H  H587  1  0.414600  0.315100  0.717700  1
  H  H588  1  0.585400  0.684900  0.282300  1
  H  H589  1  0.445300  0.414300  0.675200  1
  H  H590  1  0.554700  0.585700  0.324800  1
  H  H591  1  0.527400  0.486400  0.696100  1
  H  H592  1  0.472600  0.513600  0.303900  1
  H  H593  1  0.614200  0.223500  0.720400  1
  H  H594  1  0.385800  0.776500  0.279600  1
  H  H595  1  0.533400  0.158100  0.707800  1
  H  H596  1  0.466600  0.841900  0.292200  1
  H  H597  1  0.487200  0.145000  0.762200  1
  H  H598  1  0.512800  0.855000  0.237800  1
  H  H599  1  0.679100  0.298800  0.778500  1
  H  H600  1  0.320900  0.701200  0.221500  1
  H  H601  1  0.690800  0.341000  0.847700  1
  H  H602  1  0.309200  0.659000  0.152300  1
  H  H603  1  0.642800  0.311700  0.897200  1
  H  H604  1  0.357200  0.688300  0.102800  1
  H  H605  1  0.540100  0.234400  0.909300  1
  H  H606  1  0.459900  0.765600  0.090700  1
  H  H607  1  0.470000  0.178600  0.853100  1
  H  H608  1  0.530000  0.821400  0.146900  1
  H  H609  1  0.554200  0.364400  0.686100  1
  H  H610  1  0.445800  0.635600  0.313900  1
  H  H611  1  0.508400  0.301100  0.626800  1
  H  H612  1  0.491600  0.698900  0.373200  1
  H  H613  1  0.551300  0.242500  0.597500  1
  H  H614  1  0.448700  0.757500  0.402500  1
  H  H615  1  0.648000  0.400400  0.738700  1
  H  H616  1  0.352000  0.599600  0.261300  1
  H  H617  1  0.734500  0.392700  0.752900  1
  H  H618  1  0.265500  0.607300  0.247100  1
  H  H619  1  0.764400  0.326100  0.718200  1
  H  H620  1  0.235600  0.673900  0.281800  1
  H  H621  1  0.736800  0.239800  0.641700  1
  H  H622  1  0.263200  0.760200  0.358300  1
  H  H623  1  0.654700  0.206200  0.589600  1
  H  H624  1  0.345300  0.793800  0.410400  1
  Pd  Pd625  1  0.250600  0.278470  0.821590  1
  Pd  Pd626  1  0.749400  0.721530  0.178410  1
  Pd  Pd627  1  0.532550  0.950040  0.686220  1
  Pd  Pd628  1  0.467450  0.049960  0.313780  1
  Pd  Pd629  1  0.462380  0.337470  0.474440  1
  Pd  Pd630  1  0.537620  0.662530  0.525560  1
  Pd  Pd631  1  0.714030  0.302650  0.037070  1
  Pd  Pd632  1  0.285970  0.697350  0.962930  1
  Pd  Pd633  1  0.655260  0.680780  0.819070  1
  Pd  Pd634  1  0.344740  0.319220  0.180930  1
  Pd  Pd635  1  0.930480  0.340430  0.683090  1
  Pd  Pd636  1  0.069520  0.659570  0.316910  1
  Pd  Pd637  1  0.953270  0.625670  0.957320  1
  Pd  Pd638  1  0.046730  0.374330  0.042680  1
  Pd  Pd639  1  0.247230  0.974350  0.544130  1
  Pd  Pd640  1  0.752770  0.025650  0.455870  1
  Pd  Pd641  1  0.319450  0.572020  0.714160  1
  Pd  Pd642  1  0.680550  0.427980  0.285840  1
  Pd  Pd643  1  0.839420  0.580840  0.542060  1
  Pd  Pd644  1  0.160580  0.419160  0.457940  1
  Pd  Pd645  1  0.354580  0.031840  0.962800  1
  Pd  Pd646  1  0.645420  0.968160  0.037200  1
  Pd  Pd647  1  0.881240  0.031860  0.787510  1
  Pd  Pd648  1  0.118760  0.968140  0.212490  1
  C  C649  1  0.565700  0.599400  0.837100  1
  C  C650  1  0.434300  0.400600  0.162900  1
  C  C651  1  0.541800  0.556800  0.855300  1
  C  C652  1  0.458200  0.443200  0.144700  1
  C  C653  1  0.571700  0.532800  0.881500  1
  C  C654  1  0.428300  0.467200  0.118500  1
  C  C655  1  0.625200  0.555600  0.893800  1
  C  C656  1  0.374800  0.444400  0.106200  1
  C  C657  1  0.647200  0.599900  0.876200  1
  C  C658  1  0.352800  0.400100  0.123800  1
  C  C659  1  0.550400  0.483600  0.898200  1
  C  C660  1  0.449600  0.516400  0.101800  1
  C  C661  1  0.560700  0.418700  0.934000  1
  C  C662  1  0.439300  0.581300  0.066000  1
  C  C663  1  0.480200  0.413700  0.896700  1
  C  C664  1  0.519800  0.586300  0.103300  1
  C  C665  1  0.682900  0.390900  0.995200  1
  C  C666  1  0.317100  0.609100  0.004800  1
  C  C667  1  0.651900  0.416600  0.971700  1
  C  C668  1  0.348100  0.583400  0.028300  1
  C  C669  1  0.596000  0.392400  0.962700  1
  C  C670  1  0.404000  0.607600  0.037300  1
  C  C671  1  0.575700  0.346100  0.974800  1
  C  C672  1  0.424300  0.653900  0.025200  1
  C  C673  1  0.610700  0.322000  0.997700  1
  C  C674  1  0.389300  0.678000  0.002300  1
  C  C675  1  0.355400  0.307200  0.875900  1
  C  C676  1  0.644600  0.692800  0.124100  1
  C  C677  1  0.405500  0.333900  0.889800  1
  C  C678  1  0.594500  0.666100  0.110200  1
  C  C679  1  0.426700  0.385200  0.880300  1
  C  C680  1  0.573300  0.614800  0.119700  1
  C  C681  1  0.391500  0.403000  0.854100  1
  C  C682  1  0.608500  0.597000  0.145900  1
  C  C683  1  0.340600  0.374300  0.839000  1
  C  C684  1  0.659400  0.625700  0.161000  1
  C  C685  1  0.519200  0.408500  0.551300  1
  C  C686  1  0.480800  0.591500  0.448700  1
  C  C687  1  0.561300  0.431700  0.584000  1
  C  C688  1  0.438700  0.568300  0.416000  1
  C  C689  1  0.608100  0.416100  0.587100  1
  C  C690  1  0.391900  0.583900  0.412900  1
  C  C691  1  0.612400  0.375200  0.554100  1
  C  C692  1  0.387600  0.624800  0.445900  1
  C  C693  1  0.569700  0.354400  0.523300  1
  C  C694  1  0.430300  0.645600  0.476700  1
  C  C695  1  0.650200  0.440900  0.620000  1
  C  C696  1  0.349800  0.559100  0.380000  1
  C  C697  1  0.737400  0.446200  0.654700  1
  C  C698  1  0.262600  0.553800  0.345300  1
  C  C699  1  0.685700  0.501200  0.680400  1
  C  C700  1  0.314300  0.498800  0.319600  1
  C  C701  1  0.830800  0.359800  0.638100  1
  C  C702  1  0.169200  0.640200  0.361900  1
  C  C703  1  0.787600  0.382000  0.629200  1
  C  C704  1  0.212400  0.618000  0.370800  1
  C  C705  1  0.783000  0.424500  0.658400  1
  C  C706  1  0.217000  0.575500  0.341600  1
  C  C707  1  0.825400  0.445100  0.690700  1
  C  C708  1  0.174600  0.554900  0.309300  1
  C  C709  1  0.868300  0.422400  0.695400  1
  C  C710  1  0.131700  0.577600  0.304600  1
  C  C711  1  0.709000  0.601500  0.778000  1
  C  C712  1  0.291000  0.398500  0.222000  1
  C  C713  1  0.717200  0.561700  0.750100  1
  C  C714  1  0.282800  0.438300  0.249900  1
  C  C715  1  0.681800  0.545200  0.713100  1
  C  C716  1  0.318200  0.454800  0.286900  1
  C  C717  1  0.638500  0.568600  0.707000  1
  C  C718  1  0.361500  0.431400  0.293000  1
  C  C719  1  0.632500  0.609100  0.737200  1
  C  C720  1  0.367500  0.390900  0.262800  1
  C  C721  1  0.621300  0.041600  0.702000  1
  C  C722  1  0.378700  0.958400  0.298000  1
  C  C723  1  0.657000  0.089300  0.722200  1
  C  C724  1  0.343000  0.910700  0.277800  1
  C  C725  1  0.655300  0.106000  0.763900  1
  C  C726  1  0.344700  0.894000  0.236100  1
  C  C727  1  0.618400  0.077900  0.784500  1
  C  C728  1  0.381600  0.922100  0.215500  1
  C  C729  1  0.584300  0.029900  0.761500  1
  C  C730  1  0.415700  0.970100  0.238500  1
  C  C731  1  0.693700  0.154300  0.787900  1
  C  C732  1  0.306300  0.845700  0.212100  1
  C  C733  1  0.764900  0.222700  0.788100  1
  C  C734  1  0.235100  0.777300  0.211900  1
  C  C735  1  0.725800  0.212800  0.847800  1
  C  C736  1  0.274200  0.787200  0.152200  1
  C  C737  1  0.878600  0.321200  0.759800  1
  C  C738  1  0.121400  0.678800  0.240200  1
  C  C739  1  0.841700  0.294900  0.783600  1
  C  C740  1  0.158300  0.705100  0.216400  1
  C  C741  1  0.806500  0.249900  0.764800  1
  C  C742  1  0.193500  0.750100  0.235200  1
  C  C743  1  0.809100  0.230100  0.723600  1
  C  C744  1  0.190900  0.769900  0.276400  1
  C  C745  1  0.847000  0.256200  0.701000  1
  C  C746  1  0.153000  0.743800  0.299000  1
  C  C747  1  0.685700  0.226000  0.956100  1
  C  C748  1  0.314300  0.774000  0.043900  1
  C  C749  1  0.687700  0.207100  0.916100  1
  C  C750  1  0.312300  0.792900  0.083900  1
  C  C751  1  0.724300  0.231300  0.892900  1
  C  C752  1  0.275700  0.768700  0.107100  1
  C  C753  1  0.759600  0.276100  0.915500  1
  C  C754  1  0.240400  0.723900  0.084500  1
  C  C755  1  0.757500  0.295900  0.956700  1
  C  C756  1  0.242500  0.704100  0.043300  1
  C  C757  1  0.456100  0.242600  0.518800  1
  C  C758  1  0.543900  0.757400  0.481200  1
  C  C759  1  0.446500  0.210300  0.550400  1
  C  C760  1  0.553500  0.789700  0.449600  1
  C  C761  1  0.415200  0.226400  0.581400  1
  C  C762  1  0.584800  0.773600  0.418600  1
  C  C763  1  0.396100  0.273600  0.577300  1
  C  C764  1  0.603900  0.726400  0.422700  1
  C  C765  1  0.408600  0.302300  0.544400  1
  C  C766  1  0.591400  0.697700  0.455600  1
  C  C767  1  0.405000  0.199000  0.617000  1
  C  C768  1  0.595000  0.801000  0.383000  1
  C  C769  1  0.416700  0.132500  0.655100  1
  C  C770  1  0.583300  0.867500  0.344900  1
  C  C771  1  0.370500  0.189800  0.678800  1
  C  C772  1  0.629500  0.810200  0.321200  1
  C  C773  1  0.455200  0.014700  0.697800  1
  C  C774  1  0.544800  0.985300  0.302200  1
  C  C775  1  0.428600  0.057400  0.691100  1
  C  C776  1  0.571400  0.942600  0.308900  1
  C  C777  1  0.440700  0.086900  0.658700  1
  C  C778  1  0.559300  0.913100  0.341300  1
  C  C779  1  0.474200  0.070700  0.632400  1
  C  C780  1  0.525800  0.929300  0.367600  1
  C  C781  1  0.498800  0.030800  0.638700  1
  C  C782  1  0.501200  0.969200  0.361300  1
  C  C783  1  0.288100  0.268500  0.738700  1
  C  C784  1  0.711900  0.731500  0.261300  1
  C  C785  1  0.314400  0.251200  0.705700  1
  C  C786  1  0.685600  0.748800  0.294300  1
  C  C787  1  0.341000  0.209500  0.712200  1
  C  C788  1  0.659000  0.790500  0.287800  1
  C  C789  1  0.338700  0.191100  0.749200  1
  C  C790  1  0.661300  0.808900  0.250800  1
  C  C791  1  0.311600  0.209200  0.778400  1
  C  C792  1  0.688400  0.790800  0.221600  1
  C  C793  1  0.238000  0.296200  0.910200  1
  C  C794  1  0.762000  0.703800  0.089800  1
  C  C795  1  0.217900  0.358100  0.874600  1
  C  C796  1  0.782100  0.641900  0.125400  1
  C  C797  1  0.158600  0.273800  0.859600  1
  C  C798  1  0.841400  0.726200  0.140400  1
  C  C799  1  0.141600  0.242400  0.824000  1
  C  C800  1  0.858400  0.757600  0.176000  1
  C  C801  1  0.176300  0.175300  0.797100  1
  C  C802  1  0.823700  0.824700  0.202900  1
  C  C803  1  0.155400  0.233200  0.754100  1
  C  C804  1  0.844600  0.766800  0.245900  1
  C  C805  1  0.427000  0.879700  0.655800  1
  C  C806  1  0.573000  0.120300  0.344200  1
  C  C807  1  0.482700  0.887500  0.605100  1
  C  C808  1  0.517300  0.112500  0.394900  1
  C  C809  1  0.498100  0.841700  0.661600  1
  C  C810  1  0.501900  0.158300  0.338400  1
  C  C811  1  0.544400  0.850800  0.672000  1
  C  C812  1  0.455600  0.149200  0.328000  1
  C  C813  1  0.581300  0.889900  0.741100  1
  C  C814  1  0.418700  0.110100  0.258900  1
  C  C815  1  0.636000  0.914900  0.695800  1
  C  C816  1  0.364000  0.085100  0.304200  1
  C  C817  1  0.397500  0.244600  0.413100  1
  C  C818  1  0.602500  0.755400  0.586900  1
  C  C819  1  0.351100  0.308300  0.442400  1
  C  C820  1  0.648900  0.691700  0.557600  1
  C  C821  1  0.405600  0.332500  0.388900  1
  C  C822  1  0.594400  0.667500  0.611100  1
  C  C823  1  0.434100  0.375500  0.401100  1
  C  C824  1  0.565900  0.624500  0.598900  1
  C  C825  1  0.533100  0.391900  0.431200  1
  C  C826  1  0.466900  0.608100  0.568800  1
  C  C827  1  0.488500  0.445700  0.456500  1
  C  C828  1  0.511500  0.554300  0.543500  1
  C  C829  1  0.740700  0.204100  0.057100  1
  C  C830  1  0.259300  0.795900  0.942900  1
  C  C831  1  0.818300  0.274700  0.055700  1
  C  C832  1  0.181700  0.725300  0.944300  1
  C  C833  1  0.757600  0.272400  0.113400  1
  C  C834  1  0.242400  0.727600  0.886600  1
  C  C835  1  0.734200  0.311000  0.128100  1
  C  C836  1  0.265800  0.689000  0.871900  1
  C  C837  1  0.651900  0.325200  0.104600  1
  C  C838  1  0.348100  0.674800  0.895400  1
  C  C839  1  0.728700  0.394400  0.106000  1
  C  C840  1  0.271300  0.605600  0.894000  1
  C  C841  1  0.750700  0.735500  0.798300  1
  C  C842  1  0.249300  0.264500  0.201700  1
  C  C843  1  0.679000  0.741400  0.748000  1
  C  C844  1  0.321000  0.258600  0.252000  1
  C  C845  1  0.692700  0.795600  0.820600  1
  C  C846  1  0.307300  0.204400  0.179400  1
  C  C847  1  0.673200  0.790400  0.854500  1
  C  C848  1  0.326800  0.209600  0.145500  1
  C  C849  1  0.670200  0.733900  0.905500  1
  C  C850  1  0.329800  0.266100  0.094500  1
  C  C851  1  0.591200  0.736600  0.866200  1
  C  C852  1  0.408800  0.263400  0.133800  1
  C  C853  1  0.012100  0.307800  0.739700  1
  C  C854  1  0.987900  0.692200  0.260300  1
  C  C855  1  0.959700  0.241700  0.683700  1
  C  C856  1  0.040300  0.758300  0.316300  1
  C  C857  1  0.030500  0.316500  0.663100  1
  C  C858  1  0.969500  0.683500  0.336900  1
  C  C859  1  0.031600  0.366700  0.660500  1
  C  C860  1  0.968400  0.633300  0.339500  1
  C  C861  1  0.993100  0.437000  0.657700  1
  C  C862  1  0.006900  0.563000  0.342300  1
  C  C863  1  0.953000  0.361000  0.599600  1
  C  C864  1  0.047000  0.639000  0.400400  1
  C  C865  1  0.350400  0.937100  0.902400  1
  C  C866  1  0.649600  0.062900  0.097600  1
  C  C867  1  0.342900  0.904400  0.863500  1
  C  C868  1  0.657100  0.095600  0.136500  1
  C  C869  1  0.329100  0.922500  0.826600  1
  C  C870  1  0.670900  0.077500  0.173400  1
  C  C871  1  0.322400  0.975500  0.831000  1
  C  C872  1  0.677600  0.024500  0.169000  1
  C  C873  1  0.328800  0.002900  0.869300  1
  C  C874  1  0.671200  0.997100  0.130700  1
  C  C875  1  0.321400  0.890700  0.782600  1
  C  C876  1  0.678600  0.109300  0.217400  1
  C  C877  1  0.309600  0.886200  0.712700  1
  C  C878  1  0.690400  0.113800  0.287300  1
  C  C879  1  0.320200  0.813100  0.742500  1
  C  C880  1  0.679800  0.186900  0.257500  1
  C  C881  1  0.286200  0.979900  0.635700  1
  C  C882  1  0.713800  0.020100  0.364300  1
  C  C883  1  0.297500  0.960300  0.672800  1
  C  C884  1  0.702500  0.039700  0.327200  1
  C  C885  1  0.302600  0.907800  0.671800  1
  C  C886  1  0.697400  0.092200  0.328200  1
  C  C887  1  0.290000  0.875100  0.632500  1
  C  C888  1  0.710000  0.124900  0.367500  1
  C  C889  1  0.278000  0.896600  0.596600  1
  C  C890  1  0.722000  0.103400  0.403400  1
  C  C891  1  0.313400  0.674000  0.693300  1
  C  C892  1  0.686600  0.326000  0.306700  1
  C  C893  1  0.311000  0.728000  0.697100  1
  C  C894  1  0.689000  0.272000  0.302900  1
  C  C895  1  0.323900  0.758800  0.738100  1
  C  C896  1  0.676100  0.241200  0.261900  1
  C  C897  1  0.336900  0.733300  0.771200  1
  C  C898  1  0.663100  0.266700  0.228800  1
  C  C899  1  0.336900  0.680600  0.763500  1
  C  C900  1  0.663100  0.319400  0.236500  1
  C  C901  1  0.148100  0.899000  0.546600  1
  C  C902  1  0.851900  0.101000  0.453400  1
  C  C903  1  0.100100  0.876100  0.559700  1
  C  C904  1  0.899900  0.123900  0.440300  1
  C  C905  1  0.079300  0.904200  0.591000  1
  C  C906  1  0.920700  0.095800  0.409000  1
  C  C907  1  0.108700  0.960100  0.606500  1
  C  C908  1  0.891300  0.039900  0.393500  1
  C  C909  1  0.158400  0.977900  0.589000  1
  C  C910  1  0.841600  0.022100  0.411000  1
  C  C911  1  0.030800  0.882700  0.607900  1
  C  C912  1  0.969200  0.117300  0.392100  1
  C  C913  1  0.970500  0.893500  0.650900  1
  C  C914  1  0.029500  0.106500  0.349100  1
  C  C915  1  0.961300  0.816700  0.606800  1
  C  C916  1  0.038700  0.183300  0.393200  1
  C  C917  1  0.954500  0.006600  0.729100  1
  C  C918  1  0.045500  0.993400  0.270900  1
  C  C919  1  0.975900  0.975900  0.700700  1
  C  C920  1  0.024100  0.024100  0.299300  1
  C  C921  1  0.949100  0.924400  0.682000  1
  C  C922  1  0.050900  0.075600  0.318000  1
  C  C923  1  0.903500  0.906500  0.699600  1
  C  C924  1  0.096500  0.093500  0.300400  1
  C  C925  1  0.883500  0.936000  0.729800  1
  C  C926  1  0.116500  0.064000  0.270200  1
  C  C927  1  0.860200  0.688200  0.589600  1
  C  C928  1  0.139800  0.311800  0.410400  1
  C  C929  1  0.884000  0.740900  0.607700  1
  C  C930  1  0.116000  0.259100  0.392300  1
  C  C931  1  0.932200  0.759600  0.589000  1
  C  C932  1  0.067800  0.240400  0.411000  1
  C  C933  1  0.948400  0.730100  0.561300  1
  C  C934  1  0.051600  0.269900  0.438700  1
  C  C935  1  0.917100  0.678600  0.545500  1
  C  C936  1  0.082900  0.321400  0.454500  1
  C  C937  1  0.240500  0.028700  0.946200  1
  C  C938  1  0.759500  0.971300  0.053800  1
  C  C939  1  0.184800  0.007400  0.939600  1
  C  C940  1  0.815200  0.992600  0.060400  1
  C  C941  1  0.167300  0.957200  0.952300  1
  C  C942  1  0.832700  0.042800  0.047700  1
  C  C943  1  0.204400  0.932600  0.970700  1
  C  C944  1  0.795600  0.067400  0.029300  1
  C  C945  1  0.258100  0.957200  0.976100  1
  C  C946  1  0.741900  0.042800  0.023900  1
  C  C947  1  0.110000  0.931400  0.940600  1
  C  C948  1  0.890000  0.068600  0.059400  1
  C  C949  1  0.030000  0.935200  0.910600  1
  C  C950  1  0.970000  0.064800  0.089400  1
  C  C951  1  0.044200  0.862200  0.939000  1
  C  C952  1  0.955800  0.137800  0.061000  1
  C  C953  1  0.906900  0.958500  0.846200  1
  C  C954  1  0.093100  0.041500  0.153800  1
  C  C955  1  0.938600  0.935600  0.871500  1
  C  C956  1  0.061400  0.064400  0.128500  1
  C  C957  1  0.992600  0.959100  0.884800  1
  C  C958  1  0.007400  0.040900  0.115200  1
  C  C959  1  0.009400  0.005600  0.873500  1
  C  C960  1  0.990600  0.994400  0.126500  1
  C  C961  1  0.976100  0.027900  0.846700  1
  C  C962  1  0.023900  0.972100  0.153300  1
  C  C963  1  0.032300  0.726800  0.970900  1
  C  C964  1  0.967700  0.273200  0.029100  1
  C  C965  1  0.054900  0.780700  0.965600  1
  C  C966  1  0.945100  0.219300  0.034400  1
  C  C967  1  0.022300  0.807900  0.946400  1
  C  C968  1  0.977700  0.192100  0.053600  1
  C  C969  1  0.964400  0.781500  0.932600  1
  C  C970  1  0.035600  0.218500  0.067400  1
  C  C971  1  0.949300  0.730300  0.939600  1
  C  C972  1  0.050700  0.269700  0.060400  1
  C  C973  1  0.935000  0.561600  0.588900  1
  C  C974  1  0.065000  0.438400  0.411100  1
  C  C975  1  0.972500  0.559000  0.624200  1
  C  C976  1  0.027500  0.441000  0.375800  1
  C  C977  1  0.958900  0.567100  0.665400  1
  C  C978  1  0.041100  0.432900  0.334600  1
  C  C979  1  0.905300  0.570300  0.667000  1
  C  C980  1  0.094700  0.429700  0.333000  1
  C  C981  1  0.872900  0.571500  0.631900  1
  C  C982  1  0.127100  0.428500  0.368100  1
  C  C983  1  0.999600  0.574100  0.705700  1
  C  C984  1  0.000400  0.425900  0.294300  1
  C  C985  1  0.080000  0.569500  0.734000  1
  C  C986  1  0.920000  0.430500  0.266000  1
  C  C987  1  0.021800  0.584200  0.776200  1
  C  C988  1  0.978200  0.415800  0.223800  1
  C  C989  1  0.223700  0.560200  0.758000  1
  C  C990  1  0.776300  0.439800  0.242000  1
  C  C991  1  0.172900  0.561700  0.764500  1
  C  C992  1  0.827100  0.438300  0.235500  1
  C  C993  1  0.138100  0.567500  0.730700  1
  C  C994  1  0.861900  0.432500  0.269300  1
  C  C995  1  0.152500  0.568200  0.687600  1
  C  C996  1  0.847500  0.431800  0.312400  1
  C  C997  1  0.202300  0.563900  0.685700  1
  C  C998  1  0.797700  0.436100  0.314300  1
  C  C999  1  0.942300  0.611800  0.862800  1
  C  C1000  1  0.057700  0.388200  0.137200  1
  C  C1001  1  0.954400  0.604300  0.823900  1
  C  C1002  1  0.045600  0.395700  0.176100  1
  C  C1003  1  0.006100  0.593100  0.818800  1
  C  C1004  1  0.993900  0.406900  0.181200  1
  C  C1005  1  0.038400  0.593000  0.853300  1
  C  C1006  1  0.961600  0.407000  0.146700  1
  C  C1007  1  0.023400  0.604500  0.896200  1
  C  C1008  1  0.976600  0.395500  0.103800  1
  C  C1009  1  0.445200  0.097600  0.930600  1
  C  C1010  1  0.554800  0.902400  0.069400  1
  C  C1011  1  0.465100  0.019000  0.951800  1
  C  C1012  1  0.534900  0.981000  0.048200  1
  C  C1013  1  0.457600  0.085500  0.005300  1
  C  C1014  1  0.542400  0.914500  0.994700  1
  C  C1015  1  0.423300  0.108700  0.027100  1
  C  C1016  1  0.576700  0.891300  0.972900  1
  C  C1017  1  0.327600  0.115000  0.020400  1
  C  C1018  1  0.672400  0.885000  0.979600  1
  C  C1019  1  0.358900  0.049000  0.055500  1
  C  C1020  1  0.641100  0.951000  0.944500  1
  C  C1021  1  0.960600  0.512800  0.946600  1
  C  C1022  1  0.039400  0.487200  0.053400  1
  C  C1023  1  0.873100  0.526200  0.929300  1
  C  C1024  1  0.126900  0.473800  0.070700  1
  C  C1025  1  0.910500  0.540600  0.000700  1
  C  C1026  1  0.089500  0.459400  0.999300  1
  C  C1027  1  0.898100  0.583900  0.022000  1
  C  C1028  1  0.101900  0.416100  0.978000  1
  C  C1029  1  0.973600  0.659700  0.050900  1
  C  C1030  1  0.026400  0.340300  0.949100  1
  C  C1031  1  0.895700  0.674400  0.018100  1
  C  C1032  1  0.104300  0.325600  0.981900  1
  C  C1033  1  0.432200  0.598600  0.747800  1
  C  C1034  1  0.567800  0.401400  0.252200  1
  C  C1035  1  0.415200  0.625200  0.680900  1
  C  C1036  1  0.584800  0.374800  0.319100  1
  C  C1037  1  0.401500  0.534100  0.682800  1
  C  C1038  1  0.598500  0.465900  0.317200  1
  C  C1039  1  0.372300  0.489800  0.696100  1
  C  C1040  1  0.627700  0.510200  0.303900  1
  C  C1041  1  0.291800  0.462200  0.728800  1
  C  C1042  1  0.708200  0.537800  0.271200  1
  C  C1043  1  0.286000  0.472600  0.655100  1
  C  C1044  1  0.714000  0.527400  0.344900  1
  C  C1045  1  0.785900  0.474200  0.559900  1
  C  C1046  1  0.214100  0.525800  0.440100  1
  C  C1047  1  0.836900  0.474400  0.502500  1
  C  C1048  1  0.163100  0.525600  0.497500  1
  C  C1049  1  0.757300  0.503300  0.492700  1
  C  C1050  1  0.242700  0.496700  0.507300  1
  C  C1051  1  0.762800  0.543200  0.468300  1
  C  C1052  1  0.237200  0.456800  0.531700  1
  C  C1053  1  0.751400  0.626000  0.508100  1
  C  C1054  1  0.248600  0.374000  0.491900  1
  C  C1055  1  0.815700  0.625000  0.463300  1
  C  C1056  1  0.184300  0.375000  0.536700  1
  C  C1057  1  0.895600  0.120000  0.857900  1
  C  C1058  1  0.104400  0.880000  0.142100  1
  C  C1059  1  0.824500  0.046500  0.861400  1
  C  C1060  1  0.175500  0.953500  0.138600  1
  C  C1061  1  0.813400  0.099800  0.809300  1
  C  C1062  1  0.186600  0.900200  0.190700  1
  C  C1063  1  0.808600  0.096700  0.765900  1
  C  C1064  1  0.191400  0.903300  0.234100  1
  C  C1065  1  0.865700  0.082300  0.709500  1
  C  C1066  1  0.134300  0.917700  0.290500  1
  C  C1067  1  0.793100  0.018100  0.717900  1
  C  C1068  1  0.206900  0.981900  0.282100  1
  C  C1069  1  0.186800  0.042200  0.503200  1
  C  C1070  1  0.813200  0.957800  0.496800  1
  C  C1071  1  0.181300  0.959200  0.458900  1
  C  C1072  1  0.818700  0.040800  0.541100  1
  C  C1073  1  0.260900  0.025300  0.471700  1
  C  C1074  1  0.739100  0.974700  0.528300  1
  C  C1075  1  0.311500  0.021500  0.486900  1
  C  C1076  1  0.688500  0.978500  0.513100  1
  C  C1077  1  0.358100  0.036200  0.561600  1
  C  C1078  1  0.641900  0.963800  0.438400  1
  C  C1079  1  0.346800  0.955900  0.516800  1
  C  C1080  1  0.653200  0.044100  0.483200  1
  C  C1081  1  0.584000  0.401000  0.821700  1
  C  C1082  1  0.416000  0.599000  0.178300  1
  C  C1083  1  0.613600  0.448600  0.812700  1
  C  C1084  1  0.386400  0.551400  0.187300  1
  C  C1085  1  0.591700  0.467400  0.777000  1
  C  C1086  1  0.408300  0.532600  0.223000  1
  C  C1087  1  0.545800  0.449000  0.751100  1
  C  C1088  1  0.454200  0.551000  0.248900  1
  C  C1089  1  0.517900  0.399500  0.762200  1
  C  C1090  1  0.482100  0.600500  0.237800  1
  C  C1091  1  0.533500  0.374400  0.795400  1
  C  C1092  1  0.466500  0.625600  0.204600  1
  C  C1093  1  0.500700  0.326600  0.801600  1
  C  C1094  1  0.499300  0.673400  0.198400  1
  C  C1095  1  0.455100  0.307700  0.772900  1
  C  C1096  1  0.544900  0.692300  0.227100  1
  C  C1097  1  0.444000  0.333200  0.738300  1
  C  C1098  1  0.556000  0.666800  0.261700  1
  C  C1099  1  0.470300  0.380700  0.730500  1
  C  C1100  1  0.529700  0.619300  0.269500  1
  C  C1101  1  0.471400  0.417600  0.699400  1
  C  C1102  1  0.528600  0.582400  0.300600  1
  C  C1103  1  0.516800  0.458000  0.711100  1
  C  C1104  1  0.483200  0.542000  0.288900  1
  C  C1105  1  0.593500  0.217000  0.742500  1
  C  C1106  1  0.406500  0.783000  0.257500  1
  C  C1107  1  0.546400  0.178500  0.735000  1
  C  C1108  1  0.453600  0.821500  0.265000  1
  C  C1109  1  0.519200  0.171400  0.769400  1
  C  C1110  1  0.480800  0.828600  0.230600  1
  C  C1111  1  0.527500  0.192600  0.809400  1
  C  C1112  1  0.472500  0.807400  0.190600  1
  C  C1113  1  0.578700  0.231400  0.815400  1
  C  C1114  1  0.421300  0.768600  0.184600  1
  C  C1115  1  0.610100  0.246800  0.785000  1
  C  C1116  1  0.389900  0.753200  0.215000  1
  C  C1117  1  0.655200  0.287800  0.797500  1
  C  C1118  1  0.344800  0.712200  0.202500  1
  C  C1119  1  0.662400  0.311000  0.838900  1
  C  C1120  1  0.337600  0.689000  0.161100  1
  C  C1121  1  0.632100  0.294500  0.868700  1
  C  C1122  1  0.367900  0.705500  0.131300  1
  C  C1123  1  0.587400  0.254900  0.860100  1
  C  C1124  1  0.412600  0.745100  0.139900  1
  C  C1125  1  0.542400  0.229000  0.879800  1
  C  C1126  1  0.457600  0.771000  0.120200  1
  C  C1127  1  0.504500  0.196000  0.849300  1
  C  C1128  1  0.495500  0.804000  0.150700  1
  C  C1129  1  0.571700  0.340800  0.671900  1
  C  C1130  1  0.428300  0.659200  0.328100  1
  C  C1131  1  0.544400  0.303000  0.637600  1
  C  C1132  1  0.455600  0.697000  0.362400  1
  C  C1133  1  0.572500  0.268000  0.619900  1
  C  C1134  1  0.427500  0.732000  0.380100  1
  C  C1135  1  0.620800  0.262500  0.627200  1
  C  C1136  1  0.379200  0.737500  0.372800  1
  C  C1137  1  0.647300  0.304600  0.663700  1
  C  C1138  1  0.352700  0.695400  0.336300  1
  C  C1139  1  0.627800  0.343200  0.685700  1
  C  C1140  1  0.372200  0.656800  0.314300  1
  C  C1141  1  0.660700  0.375100  0.721400  1
  C  C1142  1  0.339300  0.624900  0.278600  1
  C  C1143  1  0.711100  0.368900  0.730600  1
  C  C1144  1  0.288900  0.631100  0.269400  1
  C  C1145  1  0.729500  0.329600  0.708900  1
  C  C1146  1  0.270500  0.670400  0.291100  1
  C  C1147  1  0.700300  0.295500  0.674700  1
  C  C1148  1  0.299700  0.704500  0.325300  1
  C  C1149  1  0.705500  0.252600  0.642500  1
  C  C1150  1  0.294500  0.747400  0.357500  1
  C  C1151  1  0.659900  0.233000  0.613400  1
  C  C1152  1  0.340100  0.767000  0.386600  1
  C  C1153  1  0.899600  0.957100  0.981200  1
  C  C1154  1  0.100400  0.042900  0.018800  1
  C  C1155  1  0.948600  0.949900  0.999300  1
  C  C1156  1  0.051400  0.050100  0.000700  1
  C  C1157  1  0.002700  0.976800  0.007700  1
  C  C1158  1  0.997300  0.023200  0.992300  1
  C  C1159  1  0.053100  0.971200  0.023900  1
  C  C1160  1  0.946900  0.028800  0.976100  1
  C  C1161  1  0.105000  0.998900  0.038800  1
  C  C1162  1  0.895000  0.001100  0.961200  1
  C  C1163  1  0.965400  0.908200  0.019400  1
  C  C1164  1  0.034600  0.091800  0.980600  1
  C  C1165  1  0.020600  0.921500  0.030700  1
  C  C1166  1  0.979400  0.078500  0.969300  1
  C  C1167  1  0.406300  0.507500  0.951500  1
  C  C1168  1  0.593700  0.492500  0.048500  1
  C  C1169  1  0.460400  0.530900  0.965000  1
  C  C1170  1  0.539600  0.469100  0.035000  1
  C  C1171  1  0.505600  0.522400  0.990100  1
  C  C1172  1  0.494400  0.477600  0.009900  1
  C  C1173  1  0.558700  0.546100  0.007600  1
  C  C1174  1  0.441300  0.453900  0.992400  1
  C  C1175  1  0.605400  0.537000  0.027900  1
  C  C1176  1  0.394600  0.463000  0.972100  1
  C  C1177  1  0.495300  0.578000  0.957200  1
  C  C1178  1  0.504700  0.422000  0.042800  1
  C  C1179  1  0.546200  0.583700  0.980300  1
  C  C1180  1  0.453800  0.416300  0.019700  1
  N  N1181  1  0.617500  0.620600  0.848200  1
  N  N1182  1  0.382500  0.379400  0.151800  1
  N  N1183  1  0.511100  0.391300  0.921900  1
  N  N1184  1  0.488900  0.608700  0.078100  1
  N  N1185  1  0.497400  0.459100  0.883500  1
  N  N1186  1  0.502600  0.540900  0.116500  1
  N  N1187  1  0.583000  0.464600  0.923600  1
  N  N1188  1  0.417000  0.535400  0.076400  1
  N  N1189  1  0.663500  0.341700  0.008100  1
  N  N1190  1  0.336500  0.658300  0.991900  1
  N  N1191  1  0.322800  0.324500  0.848600  1
  N  N1192  1  0.677200  0.675500  0.151400  1
  N  N1193  1  0.524600  0.371300  0.519800  1
  N  N1194  1  0.475400  0.628700  0.480200  1
  N  N1195  1  0.734300  0.487000  0.684400  1
  N  N1196  1  0.265700  0.513000  0.315600  1
  N  N1197  1  0.643500  0.479600  0.651200  1
  N  N1198  1  0.356500  0.520400  0.348800  1
  N  N1199  1  0.698100  0.424200  0.622500  1
  N  N1200  1  0.301900  0.575800  0.377500  1
  N  N1201  1  0.871400  0.379300  0.668900  1
  N  N1202  1  0.128600  0.620700  0.331100  1
  N  N1203  1  0.666800  0.624300  0.772500  1
  N  N1204  1  0.333200  0.375700  0.227500  1
  N  N1205  1  0.585400  0.014100  0.721200  1
  N  N1206  1  0.414600  0.985900  0.278800  1
  N  N1207  1  0.765900  0.240900  0.828700  1
  N  N1208  1  0.234100  0.759100  0.171300  1
  N  N1209  1  0.690300  0.169600  0.829300  1
  N  N1210  1  0.309700  0.830400  0.170700  1
  N  N1211  1  0.729700  0.178700  0.765100  1
  N  N1212  1  0.270300  0.821300  0.234900  1
  N  N1213  1  0.880200  0.301000  0.719900  1
  N  N1214  1  0.119800  0.699000  0.280100  1
  N  N1215  1  0.721700  0.269700  0.977400  1
  N  N1216  1  0.278300  0.730300  0.022600  1
  N  N1217  1  0.437500  0.286900  0.514900  1
  N  N1218  1  0.562500  0.713100  0.485100  1
  N  N1219  1  0.389200  0.148100  0.684800  1
  N  N1220  1  0.610800  0.851900  0.315200  1
  N  N1221  1  0.377900  0.219000  0.645000  1
  N  N1222  1  0.622100  0.781000  0.355000  1
  N  N1223  1  0.425200  0.157100  0.619900  1
  N  N1224  1  0.574800  0.842900  0.380100  1
  N  N1225  1  0.487400  0.001800  0.670500  1
  N  N1226  1  0.512600  0.998200  0.329500  1
  N  N1227  1  0.286500  0.249800  0.773500  1
  N  N1228  1  0.713500  0.750200  0.226500  1
  N  N1229  1  0.214300  0.304800  0.870200  1
  N  N1230  1  0.785700  0.695200  0.129800  1
  N  N1231  1  0.177200  0.228000  0.796500  1
  N  N1232  1  0.822800  0.772000  0.203500  1
  N  N1233  1  0.481000  0.887600  0.648500  1
  N  N1234  1  0.519000  0.112400  0.351500  1
  N  N1235  1  0.578800  0.898200  0.700900  1
  N  N1236  1  0.421200  0.101800  0.299100  1
  N  N1237  1  0.399500  0.304300  0.426900  1
  N  N1238  1  0.600500  0.695700  0.573100  1
  N  N1239  1  0.482100  0.390500  0.435300  1
  N  N1240  1  0.517900  0.609500  0.564700  1
  N  N1241  1  0.763400  0.261100  0.065500  1
  N  N1242  1  0.236600  0.738900  0.934500  1
  N  N1243  1  0.708200  0.334900  0.098700  1
  N  N1244  1  0.291800  0.665100  0.901300  1
  N  N1245  1  0.694200  0.741100  0.790400  1
  N  N1246  1  0.305800  0.258900  0.209600  1
  N  N1247  1  0.645200  0.741000  0.865400  1
  N  N1248  1  0.354800  0.259000  0.134600  1
  N  N1249  1  0.989400  0.300000  0.696900  1
  N  N1250  1  0.010600  0.700000  0.303100  1
  N  N1251  1  0.980600  0.377400  0.644200  1
  N  N1252  1  0.019400  0.622600  0.355800  1
  N  N1253  1  0.342300  0.983800  0.904500  1
  N  N1254  1  0.657700  0.016200  0.095500  1
  N  N1255  1  0.313000  0.834000  0.705800  1
  N  N1256  1  0.687000  0.166000  0.294200  1
  N  N1257  1  0.325500  0.840500  0.781400  1
  N  N1258  1  0.674500  0.159500  0.218600  1
  N  N1259  1  0.314100  0.914500  0.747800  1
  N  N1260  1  0.685900  0.085500  0.252200  1
  N  N1261  1  0.275500  0.949200  0.596700  1
  N  N1262  1  0.724500  0.050800  0.403300  1
  N  N1263  1  0.322500  0.650000  0.725400  1
  N  N1264  1  0.677500  0.350000  0.274600  1
  N  N1265  1  0.174800  0.949900  0.559900  1
  N  N1266  1  0.825200  0.050100  0.440100  1
  N  N1267  1  0.941800  0.841200  0.636500  1
  N  N1268  1  0.058200  0.158800  0.363500  1
  N  N1269  1  0.005900  0.832500  0.590500  1
  N  N1270  1  0.994100  0.167500  0.409500  1
  N  N1271  1  0.016900  0.915500  0.638400  1
  N  N1272  1  0.983100  0.084500  0.361600  1
  N  N1273  1  0.908100  0.987300  0.742500  1
  N  N1274  1  0.091900  0.012700  0.257500  1
  N  N1275  1  0.875800  0.660100  0.560200  1
  N  N1276  1  0.124200  0.339900  0.439800  1
  N  N1277  1  0.275800  0.002700  0.963500  1
  N  N1278  1  0.724200  0.997300  0.036500  1
  N  N1279  1  0.007300  0.885500  0.919600  1
  N  N1280  1  0.992700  0.114500  0.080400  1
  N  N1281  1  0.093900  0.882100  0.951000  1
  N  N1282  1  0.906100  0.117900  0.049000  1
  N  N1283  1  0.078700  0.957900  0.920700  1
  N  N1284  1  0.921300  0.042100  0.079300  1
  N  N1285  1  0.924800  0.005000  0.833200  1
  N  N1286  1  0.075200  0.995000  0.166800  1
  N  N1287  1  0.981900  0.703400  0.956300  1
  N  N1288  1  0.018100  0.296600  0.043700  1
  N  N1289  1  0.886400  0.568000  0.592700  1
  N  N1290  1  0.113600  0.432000  0.407300  1
  N  N1291  1  0.070000  0.577000  0.774200  1
  N  N1292  1  0.930000  0.423000  0.225800  1
  N  N1293  1  0.984400  0.581300  0.741000  1
  N  N1294  1  0.015600  0.418700  0.259000  1
  N  N1295  1  0.047400  0.566000  0.697400  1
  N  N1296  1  0.952600  0.434000  0.302600  1
  N  N1297  1  0.239500  0.562700  0.720000  1
  N  N1298  1  0.760500  0.437300  0.280000  1
  N  N1299  1  0.975100  0.613400  0.899100  1
  N  N1300  1  0.024900  0.386600  0.100900  1
  N  N1301  1  0.435600  0.060300  0.962600  1
  N  N1302  1  0.564400  0.939700  0.037400  1
  N  N1303  1  0.366000  0.080900  0.021600  1
  N  N1304  1  0.634000  0.919100  0.978400  1
  N  N1305  1  0.923000  0.546600  0.958600  1
  N  N1306  1  0.077000  0.453400  0.041400  1
  N  N1307  1  0.929900  0.636200  0.016200  1
  N  N1308  1  0.070100  0.363800  0.983800  1
  N  N1309  1  0.397600  0.582900  0.706000  1
  N  N1310  1  0.602400  0.417100  0.294000  1
  N  N1311  1  0.315300  0.493000  0.697600  1
  N  N1312  1  0.684700  0.507000  0.302400  1
  N  N1313  1  0.801300  0.502600  0.523100  1
  N  N1314  1  0.198700  0.497400  0.476900  1
  N  N1315  1  0.788000  0.596100  0.492700  1
  N  N1316  1  0.212000  0.403900  0.507300  1
  N  N1317  1  0.851800  0.078000  0.832100  1
  N  N1318  1  0.148200  0.922000  0.167900  1
  N  N1319  1  0.834900  0.059800  0.742000  1
  N  N1320  1  0.165100  0.940200  0.258000  1
  N  N1321  1  0.217100  0.001400  0.491200  1
  N  N1322  1  0.782900  0.998600  0.508800  1
  N  N1323  1  0.319900  0.998300  0.526300  1
  N  N1324  1  0.680100  0.001700  0.473700  1
  N  N1325  1  0.540200  0.702200  0.726700  1
  N  N1326  1  0.459800  0.297800  0.273300  1
  N  N1327  1  0.448000  0.900900  0.780900  1
  N  N1328  1  0.552000  0.099100  0.219100  1
  N  N1329  1  0.388900  0.447900  0.570800  1
  N  N1330  1  0.611100  0.552100  0.429200  1
  N  N1331  1  0.361700  0.541200  0.830300  1
  N  N1332  1  0.638300  0.458800  0.169700  1
  O  O1333  1  0.547200  0.678300  0.694900  1
  O  O1334  1  0.452800  0.321700  0.305100  1
  O  O1335  1  0.518700  0.738400  0.725900  1
  O  O1336  1  0.481300  0.261600  0.274100  1
  O  O1337  1  0.549700  0.687500  0.761100  1
  O  O1338  1  0.450300  0.312500  0.238900  1
  O  O1339  1  0.446000  0.856100  0.762700  1
  O  O1340  1  0.554000  0.143900  0.237300  1
  O  O1341  1  0.461000  0.938000  0.761800  1
  O  O1342  1  0.539000  0.062000  0.238200  1
  O  O1343  1  0.451800  0.913600  0.819600  1
  O  O1344  1  0.548200  0.086400  0.180400  1
  O  O1345  1  0.393300  0.429600  0.533600  1
  O  O1346  1  0.606700  0.570400  0.466400  1
  O  O1347  1  0.430600  0.465400  0.597000  1
  O  O1348  1  0.569400  0.534600  0.403000  1
  O  O1349  1  0.359200  0.417000  0.588800  1
  O  O1350  1  0.640800  0.583000  0.411200  1
  O  O1351  1  0.341400  0.571100  0.810700  1
  O  O1352  1  0.658600  0.428900  0.189300  1
  O  O1353  1  0.329800  0.503100  0.838600  1
  O  O1354  1  0.670200  0.496900  0.161400  1
  O  O1355  1  0.406000  0.554900  0.850700  1
  O  O1356  1  0.594000  0.445100  0.149300  1
  O  O1357  1  0.220600  0.367000  0.767300  1
  O  O1358  1  0.779400  0.633000  0.232700  1
  O  O1359  1  0.320800  0.138100  0.909900  1
  O  O1360  1  0.679200  0.861900  0.090100  1
  O  O1361  1  0.804800  0.656600  0.881400  1
  O  O1362  1  0.195200  0.343400  0.118600  1
  O  O1363  1  0.290300  0.178800  0.878200  1
  O  O1364  1  0.709700  0.821200  0.121800  1
  O  O1365  1  0.569100  0.866200  0.852700  1
  O  O1366  1  0.430900  0.133800  0.147300  1
  O  O1367  1  0.470200  0.650000  0.870400  1
  O  O1368  1  0.529800  0.350000  0.129600  1
  O  O1369  1  0.914300  0.387200  0.004000  1
  O  O1370  1  0.085700  0.612800  0.996000  1
  O  O1371  1  0.381300  0.090200  0.797400  1
  O  O1372  1  0.618700  0.909800  0.202600  1
  O  O1373  1  0.811700  0.173800  0.963700  1
  O  O1374  1  0.188300  0.826200  0.036300  1
  O  O1375  1  0.303800  0.393600  0.376300  1
  O  O1376  1  0.696200  0.606400  0.623700  1
  O  O1377  1  0.251800  0.424800  0.390000  1
  O  O1378  1  0.748200  0.575200  0.610000  1
  O  O1379  1  0.593200  0.115200  0.955700  1
  O  O1380  1  0.406800  0.884800  0.044300  1
  O  O1381  1  0.796400  0.149800  0.630600  1
  O  O1382  1  0.203600  0.850200  0.369400  1
  O  O1383  1  0.773600  0.916200  0.784000  1
  O  O1384  1  0.226400  0.083800  0.216000  1
  O  O1385  1  0.290700  0.582600  0.605900  1
  O  O1386  1  0.709300  0.417400  0.394100  1
  O  O1387  1  0.798800  0.157300  0.902800  1
  O  O1388  1  0.201200  0.842700  0.097200  1
  O  O1389  1  0.279300  0.062600  0.759800  1
  O  O1390  1  0.720700  0.937400  0.240200  1
  O  O1391  1  0.726100  0.119100  0.593800  1
  O  O1392  1  0.273900  0.880900  0.406200  1
  O  O1393  1  0.850000  0.630400  0.765800  1
  O  O1394  1  0.150000  0.369600  0.234200  1
  O  O1395  1  0.318400  0.613500  0.564200  1
  O  O1396  1  0.681600  0.386500  0.435800  1
  O  O1397  1  0.454900  0.029300  0.818800  1
  O  O1398  1  0.545100  0.970700  0.181200  1
  O  O1399  1  0.240500  0.636500  0.589600  1
  O  O1400  1  0.759500  0.363500  0.410400  1
  O  O1401  1  0.997100  0.147900  0.782300  1
  O  O1402  1  0.002900  0.852100  0.217700  1
  O  O1403  1  0.075500  0.366000  0.852700  1
  O  O1404  1  0.924500  0.634000  0.147300  1
  O  O1405  1  0.498300  0.783400  0.791200  1
  O  O1406  1  0.501700  0.216600  0.208800  1
  O  O1407  1  0.852300  0.243600  0.591200  1
  O  O1408  1  0.147700  0.756400  0.408800  1
  O  O1409  1  0.882800  0.241200  0.945700  1
  O  O1410  1  0.117200  0.758800  0.054300  1
  O  O1411  1  0.567600  0.055600  0.874500  1
  O  O1412  1  0.432400  0.944400  0.125500  1
  O  O1413  1  0.723500  0.325200  0.519100  1
  O  O1414  1  0.276500  0.674800  0.480900  1
  O  O1415  1  0.603000  0.984100  0.597000  1
  O  O1416  1  0.397000  0.015900  0.403000  1
  O  O1417  1  0.903500  0.961200  0.597300  1
  O  O1418  1  0.096500  0.038800  0.402700  1
  O  O1419  1  0.587000  0.202000  0.043400  1
  O  O1420  1  0.413000  0.798000  0.956600  1
  O  O1421  1  0.239300  0.843900  0.485200  1
  O  O1422  1  0.760700  0.156100  0.514800  1
  O  O1423  1  0.585900  0.885100  0.547200  1
  O  O1424  1  0.414100  0.114900  0.452800  1
  O  O1425  1  0.824700  0.532200  0.800100  1
  O  O1426  1  0.175300  0.467800  0.199900  1
  O  O1427  1  0.221700  0.479300  0.835200  1
  O  O1428  1  0.778300  0.520700  0.164800  1
  O  O1429  1  0.787300  0.664400  0.686800  1
  O  O1430  1  0.212700  0.335600  0.313200  1
  O  O1431  1  0.034000  0.475000  0.551700  1
  O  O1432  1  0.966000  0.525000  0.448300  1
  O  O1433  1  0.720000  0.658000  0.974000  1
  O  O1434  1  0.280000  0.342000  0.026000  1
  O  O1435  1  0.119400  0.478200  0.592700  1
  O  O1436  1  0.880600  0.521800  0.407300  1
  O  O1437  1  0.250200  0.149800  0.605800  1
  O  O1438  1  0.749800  0.850200  0.394200  1
  O  O1439  1  0.460000  0.724000  0.810000  1
  O  O1440  1  0.540000  0.276000  0.190000  1
  O  O1441  1  0.633200  0.076900  0.603400  1
  O  O1442  1  0.366800  0.923100  0.396600  1
  O  O1443  1  0.292000  0.333900  0.622300  1
  O  O1444  1  0.708000  0.666100  0.377700  1
  O  O1445  1  0.746500  0.909800  0.632300  1
  O  O1446  1  0.253500  0.090200  0.367700  1
  O  O1447  1  0.755500  0.120200  0.942400  1
  O  O1448  1  0.244500  0.879800  0.057600  1
  O  O1449  1  0.520200  0.112500  0.532100  1
  O  O1450  1  0.479800  0.887500  0.467900  1
  O  O1451  1  0.253000  0.248000  0.553700  1
  O  O1452  1  0.747000  0.752000  0.446300  1
  O  O1453  1  0.490000  0.912000  0.889500  1
  O  O1454  1  0.510000  0.088000  0.110500  1
  O  O1455  1  0.741800  0.552200  0.993000  1
  O  O1456  1  0.258200  0.447800  0.007000  1
  O  O1457  1  0.489000  0.739000  0.943000  1
  O  O1458  1  0.511000  0.261000  0.057000  1
  O  O1459  1  0.856600  0.432300  0.070200  1
  O  O1460  1  0.143400  0.567700  0.929800  1
  O  O1461  1  0.625300  0.492900  0.505300  1
  O  O1462  1  0.374700  0.507100  0.494700  1
  O  O1463  1  0.206000  0.088000  0.684600  1
  O  O1464  1  0.794000  0.912000  0.315400  1
  O  O1465  1  0.208500  0.328700  0.666900  1
  O  O1466  1  0.791500  0.671300  0.333100  1
  O  O1467  1  0.759000  0.866000  0.725400  1
  O  O1468  1  0.241000  0.134000  0.274600  1
  O  O1469  1  0.118500  0.590100  0.594800  1
  O  O1470  1  0.881500  0.409900  0.405200  1
  O  O1471  1  0.279300  0.737100  0.594600  1
  O  O1472  1  0.720700  0.262900  0.405400  1
  O  O1473  1  0.305400  0.192300  0.487300  1
  O  O1474  1  0.694600  0.807700  0.512700  1
  O  O1475  1  0.612700  0.060500  0.980200  1
  O  O1476  1  0.387300  0.939500  0.019800  1
  O  O1477  1  0.965000  0.935000  0.537000  1
  O  O1478  1  0.035000  0.065000  0.463000  1
  O  O1479  1  0.012000  0.773000  0.456500  1
  O  O1480  1  0.988000  0.227000  0.543500  1
  O  O1481  1  0.844000  0.799000  0.881300  1
  O  O1482  1  0.156000  0.201000  0.118700  1
  O  O1483  1  0.997000  0.429000  0.504000  1
  O  O1484  1  0.003000  0.571000  0.496000  1
  O  O1485  1  0.892000  0.456000  0.815600  1
  O  O1486  1  0.108000  0.544000  0.184400  1
  O  O1487  1  0.985500  0.447500  0.764200  1
  O  O1488  1  0.014500  0.552500  0.235800  1
  O  O1489  1  0.901000  0.852000  0.525000  1
  O  O1490  1  0.099000  0.148000  0.475000  1
  O  O1491  1  0.815500  0.390300  0.861200  1
  O  O1492  1  0.184500  0.609700  0.138800  1
  O  O1493  1  0.684000  0.055000  0.877600  1
  O  O1494  1  0.316000  0.945000  0.122400  1
  O  O1495  1  0.019000  0.700000  0.762000  1
  O  O1496  1  0.981000  0.300000  0.238000  1
  O  O1497  1  0.210000  0.752000  0.781000  1
  O  O1498  1  0.790000  0.248000  0.219000  1
  O  O1499  1  0.024000  0.215000  0.905000  1
  O  O1500  1  0.976000  0.785000  0.095000  1
  O  O1501  1  0.887600  0.368200  0.921300  1
  O  O1502  1  0.112400  0.631800  0.078700  1
  O  O1503  1  0.055000  0.453000  0.765000  1
  O  O1504  1  0.945000  0.547000  0.235000  1
  O  O1505  1  0.087000  0.190000  0.928000  1
  O  O1506  1  0.913000  0.810000  0.072000  1
  O  O1507  1  0.113000  0.061000  0.700300  1
  O  O1508  1  0.887000  0.939000  0.299700  1
  O  O1509  1  0.800000  0.771000  0.675000  1
  O  O1510  1  0.200000  0.229000  0.325000  1
  O  O1511  1  0.023000  0.848000  0.438000  1
  O  O1512  1  0.977000  0.152000  0.562000  1
  O  O1513  1  0.045000  0.750000  0.842000  1
  O  O1514  1  0.955000  0.250000  0.158000  1
  O  O1515  1  0.544200  0.256900  0.438900  1
  O  O1516  1  0.455800  0.743100  0.561100  1
  O  O1517  1  0.604400  0.242000  0.418100  1
  O  O1518  1  0.395600  0.758000  0.581900  1
  O  O1519  1  0.788000  0.868000  0.932700  1
  O  O1520  1  0.212000  0.132000  0.067300  1
  O  O1521  1  0.708000  0.929000  0.843000  1
  O  O1522  1  0.292000  0.071000  0.157000  1
  O  O1523  1  0.803000  0.886000  0.881300  1
  O  O1524  1  0.197000  0.114000  0.118700  1
  O  O1525  1  0.081000  0.698000  0.739000  1
  O  O1526  1  0.919000  0.302000  0.261000  1
  O  O1527  1  0.007000  0.714000  0.700000  1
  O  O1528  1  0.993000  0.286000  0.300000  1
  O  O1529  1  0.820000  0.754000  0.503000  1
  O  O1530  1  0.180000  0.246000  0.497000  1
  O  O1531  1  0.742100  0.112200  0.646800  1
  O  O1532  1  0.257900  0.887800  0.353200  1
  O  O1533  1  0.616500  0.105500  0.997600  1
  O  O1534  1  0.383500  0.894500  0.002400  1
  O  O1535  1  0.349200  0.168600  0.874300  1
  O  O1536  1  0.650800  0.831400  0.125700  1
  O  O1537  1  0.056000  0.424200  0.526700  1
  O  O1538  1  0.944000  0.575800  0.473300  1
  O  O1539  1  0.851900  0.925400  0.602800  1
  O  O1540  1  0.148100  0.074600  0.397200  1
  O  O1541  1  0.892500  0.264000  0.901000  1
  O  O1542  1  0.107500  0.736000  0.099000  1
  O  O1543  1  0.772000  0.675900  0.881000  1
  O  O1544  1  0.228000  0.324100  0.119000  1
  O  O1545  1  0.269800  0.101000  0.608700  1
  O  O1546  1  0.730200  0.899000  0.391300  1
  O  O1547  1  0.825200  0.413000  0.023100  1
  O  O1548  1  0.174800  0.587000  0.976900  1
  O  O1549  1  0.443000  0.726300  0.835100  1
  O  O1550  1  0.557000  0.273700  0.164900  1
  O  O1551  1  0.836700  0.642100  0.909700  1
  O  O1552  1  0.163300  0.357900  0.090300  1
  O  O1553  1  0.176000  0.373000  0.740000  1
  O  O1554  1  0.824000  0.627000  0.260000  1
  O  O1555  1  0.862400  0.394900  0.969200  1
  O  O1556  1  0.137600  0.605100  0.030800  1
  O  O1557  1  0.310500  0.440900  0.412300  1
  O  O1558  1  0.689500  0.559100  0.587700  1
  O  O1559  1  0.739000  0.526000  0.946000  1
  O  O1560  1  0.261000  0.474000  0.054000  1
  O  O1561  1  0.724000  0.073000  0.921000  1
  O  O1562  1  0.276000  0.927000  0.079000  1
  O  O1563  1  0.506000  0.710000  0.952000  1
  O  O1564  1  0.494000  0.290000  0.048000  1
  O  O1565  1  0.163000  0.703000  0.766100  1
  O  O1566  1  0.837000  0.297000  0.233900  1
  O  O1567  1  0.022000  0.460000  0.803000  1
  O  O1568  1  0.978000  0.540000  0.197000  1
  O  O1569  1  0.968000  0.904000  0.510000  1
  O  O1570  1  0.032000  0.096000  0.490000  1
  O  O1571  1  0.769000  0.928000  0.906600  1
  O  O1572  1  0.231000  0.072000  0.093400  1
  O  O1573  1  0.587300  0.282600  0.399000  1
  O  O1574  1  0.412700  0.717400  0.601000  1
  O  O1575  1  0.666000  0.965000  0.832300  1
  O  O1576  1  0.334000  0.035000  0.167700  1
  O  O1577  1  0.029000  0.731000  0.672000  1
  O  O1578  1  0.971000  0.269000  0.328000  1
