
#######################################################################
#
#                 Cambridge Crystallographic Data Centre
#                                CCDC 
#
#######################################################################
#
# If this CIF has been generated from an entry in the Cambridge 
# Structural Database, then it will include bibliographic, chemical, 
# crystal, experimental, refinement or atomic coordinate data resulting 
# from the CCDC's data processing and validation procedures.
#
#######################################################################

data_OCUKED
_chemical_formula_moiety         
'2(C108 H144 N36 Pd6 12+),4(C12 H8),24(N1 O3 1-),55(H2 O1)'
_chemical_name_systematic        
"tetrakis(\m~3~-2,4,6-tris(4-Pyridyl)-1,3,5-triazine)-hexakis(N,N,N',N'-tetramethylethylenediamine)-hexa-palladium bis(acenaphthylene) clathrate tetrakis(\m~3~-2,4,6-tris(4-pyridyl)-1,3,5-triazine)-hexakis(N,N,N',N'-tetramethylethylenediamine)-hexa-palladium acenaphthylene clathrate tetracosanitrate acenaphthylene solvate hydrate"
_symmetry_cell_setting           triclinic
_symmetry_space_group_name_H-M   'P -1'
_symmetry_Int_Tables_number      2
_space_group_name_Hall           '-P 1'
loop_
_symmetry_equiv_pos_site_id
_symmetry_equiv_pos_as_xyz
1 x,y,z
2 -x,-y,-z
_cell_length_a                   27.3274(5)
_cell_length_b                   27.5977(5)
_cell_length_c                   32.1815(7)
_cell_angle_alpha                100.8240(10)
_cell_angle_beta                 91.9530(10)
_cell_angle_gamma                107.3730(10)
_cell_volume                     22645.7
_exptl_crystal_colour            yellow
_exptl_crystal_description       plate
_cell_formula_units_Z            2
loop_
_atom_site_label
_atom_site_type_symbol
_atom_site_fract_x
_atom_site_fract_y
_atom_site_fract_z
Pd7 Pd 1.25475(3) 0.71863(3) 0.17812(2)
Pd8 Pd 0.60625(3) 0.62678(3) 0.36103(3)
Pd9 Pd 1.05325(3) 0.65423(3) 0.53861(2)
Pd10 Pd 1.00801(2) 1.02587(2) 0.35789(2)
Pd11 Pd 0.85197(2) 0.31758(3) 0.17980(2)
Pd12 Pd 0.81117(3) 0.68717(3) 0.00202(2)
N37 N 0.8501(3) 0.3757(3) 0.2283(2)
C109 C 0.8884(3) 0.3980(3) 0.2596(3)
H145 H 0.9178 0.3863 0.2587
C110 C 0.8874(3) 0.4358(3) 0.2920(3)
H146 H 0.9154 0.4503 0.3135
C111 C 0.8450(3) 0.4538(3) 0.2941(3)
C112 C 0.8041(4) 0.4307(4) 0.2622(3)
H147 H 0.7739 0.4410 0.2630
C113 C 0.8089(3) 0.3923(4) 0.2293(3)
H148 H 0.7820 0.3773 0.2069
N38 N 0.7959(3) 0.5050(3) 0.3305(2)
N39 N 0.8793(3) 0.5142(3) 0.3608(2)
N40 N 0.8296(3) 0.5634(3) 0.3972(2)
C114 C 0.8395(3) 0.4936(3) 0.3306(3)
C115 C 0.8721(3) 0.5485(4) 0.3933(3)
C116 C 0.7934(3) 0.5407(4) 0.3647(3)
N41 N 0.6618(3) 0.5926(3) 0.3650(2)
C117 C 0.6639(3) 0.5524(3) 0.3354(3)
H149 H 0.6356 0.5358 0.3143
C118 C 0.7052(3) 0.5347(3) 0.3344(3)
H150 H 0.7061 0.5069 0.3123
C119 C 0.7467(3) 0.5575(3) 0.3661(3)
C120 C 0.7440(4) 0.5970(4) 0.3969(3)
H151 H 0.7713 0.6133 0.4188
C121 C 0.7012(4) 0.6133(4) 0.3960(3)
H152 H 0.6992 0.6404 0.4183
N42 N 0.9922(3) 0.6173(3) 0.4931(2)
C122 C 0.9977(3) 0.5831(3) 0.4582(3)
H153 H 1.0292 0.5751 0.4566
C123 C 0.9607(4) 0.5608(4) 0.4266(3)
H154 H 0.9659 0.5374 0.4027
C124 C 0.9138(4) 0.5720(4) 0.4287(3)
C125 C 0.9087(4) 0.6070(4) 0.4638(3)
H155 H 0.8778 0.6160 0.4664
C126 C 0.9488(4) 0.6283(4) 0.4945(3)
H156 H 0.9452 0.6526 0.5184
N43 N 0.6549(3) 0.6712(3) 0.3263(2)
C127 C 0.6560(4) 0.6550(4) 0.2845(3)
H157 H 0.6301 0.6246 0.2699
C128 C 0.6926(4) 0.6806(4) 0.2624(3)
H158 H 0.6923 0.6676 0.2329
C129 C 0.7308(3) 0.7257(3) 0.2823(3)
C130 C 0.7283(3) 0.7433(3) 0.3249(3)
H159 H 0.7526 0.7747 0.3400
C131 C 0.6898(4) 0.7145(4) 0.3458(3)
H160 H 0.6888 0.7266 0.3753
N44 N 0.8060(3) 0.7980(3) 0.2814(2)
N45 N 0.7712(3) 0.7346(3) 0.2179(2)
N46 N 0.8448(3) 0.8066(3) 0.2169(2)
C132 C 0.7709(4) 0.7535(4) 0.2600(3)
C133 C 0.8090(4) 0.7623(4) 0.1988(3)
C134 C 0.8413(4) 0.8215(4) 0.2587(3)
N47 N 0.8099(3) 0.7117(3) 0.0658(2)
C135 C 0.7746(4) 0.6844(4) 0.0870(3)
H161 H 0.7498 0.6535 0.0718
C136 C 0.7727(4) 0.6988(4) 0.1297(3)
H162 H 0.7471 0.6785 0.1442
C137 C 0.8103(4) 0.7454(4) 0.1519(3)
C138 C 0.8484(4) 0.7707(4) 0.1306(3)
H163 H 0.8757 0.7997 0.1455
C139 C 0.8473(4) 0.7543(4) 0.0871(3)
H164 H 0.8732 0.7731 0.0721
N48 N 0.9511(3) 0.9642(3) 0.3243(2)
C140 C 0.9529(4) 0.9471(3) 0.2819(3)
H165 H 0.9785 0.9665 0.2670
C141 C 0.9169(4) 0.9009(4) 0.2607(3)
H166 H 0.9182 0.8891 0.2312
C142 C 0.8797(4) 0.8722(4) 0.2812(3)
C143 C 0.8787(3) 0.8900(4) 0.3245(3)
H167 H 0.8538 0.8708 0.3400
C144 C 0.9149(3) 0.9364(4) 0.3444(3)
H168 H 0.9138 0.9488 0.3738
N49 N 0.8888(3) 0.3750(3) 0.1494(2)
C145 C 0.8613(4) 0.3941(4) 0.1253(3)
H169 H 0.8253 0.3774 0.1192
C146 C 0.8848(3) 0.4382(4) 0.1090(3)
H170 H 0.8650 0.4511 0.0917
C147 C 0.9366(3) 0.4624(3) 0.1182(3)
C148 C 0.9646(3) 0.4414(3) 0.1431(3)
H171 H 1.0006 0.4576 0.1502
C149 C 0.9401(3) 0.3978(4) 0.1572(3)
H172 H 0.9597 0.3830 0.1730
N50 N 1.0109(3) 0.5365(3) 0.1183(2)
N51 N 1.0024(3) 0.6035(3) 0.0849(2)
N52 N 0.9304(3) 0.5293(3) 0.0837(2)
C150 C 0.9602(4) 0.5113(3) 0.1050(3)
C151 C 0.9530(4) 0.5768(4) 0.0735(3)
C152 C 1.0302(3) 0.5811(3) 0.1063(3)
N53 N 0.8578(3) 0.6475(3) 0.0186(2)
C153 C 0.8392(4) 0.6002(4) 0.0259(3)
H173 H 0.8034 0.5825 0.0187
C154 C 0.8681(4) 0.5757(4) 0.0430(3)
H174 H 0.8525 0.5424 0.0490
C155 C 0.9208(4) 0.5993(4) 0.0517(3)
C156 C 0.9408(4) 0.6481(4) 0.0434(3)
H175 H 0.9766 0.6661 0.0495
C157 C 0.9090(4) 0.6705(4) 0.0261(3)
H176 H 0.9235 0.7035 0.0193
N54 N 1.1846(3) 0.6719(3) 0.1500(2)
C158 C 1.1552(4) 0.6889(4) 0.1260(3)
H177 H 1.1693 0.7218 0.1189
C159 C 1.1045(4) 0.6600(4) 0.1110(3)
H178 H 1.0840 0.6736 0.0949
C160 C 1.0844(3) 0.6111(3) 0.1200(3)
C161 C 1.1156(3) 0.5938(4) 0.1434(3)
H179 H 1.1029 0.5601 0.1494
C162 C 1.1645(3) 0.6236(3) 0.1582(3)
H180 H 1.1851 0.6104 0.1747
N55 N 1.0449(3) 0.9727(3) 0.3639(2)
C163 C 1.0343(3) 0.9452(3) 0.3947(3)
H181 H 1.0130 0.9540 0.4157
C164 C 1.0530(3) 0.9053(3) 0.3968(2)
H182 H 1.0457 0.8870 0.4192
C165 C 1.0835(3) 0.8913(3) 0.3649(3)
C166 C 1.0949(3) 0.9204(3) 0.3345(3)
H183 H 1.1166 0.9128 0.3134
C167 C 1.0753(3) 0.9604(3) 0.3344(3)
H184 H 1.0833 0.9800 0.3128
N56 N 1.0950(3) 0.8238(3) 0.3991(2)
N57 N 1.1271(3) 0.8322(3) 0.3322(2)
N58 N 1.1363(3) 0.7654(3) 0.3659(2)
C168 C 1.1030(3) 0.8470(3) 0.3656(3)
C169 C 1.1125(3) 0.7833(3) 0.3964(3)
C170 C 1.1427(3) 0.7908(3) 0.3339(3)
N59 N 1.0802(3) 0.7018(3) 0.4973(2)
C171 C 1.0639(4) 0.7437(4) 0.4970(3)
H185 H 1.0448 0.7543 0.5190
C172 C 1.0748(4) 0.7709(4) 0.4651(3)
H186 H 1.0632 0.8001 0.4651
C173 C 1.1028(3) 0.7557(4) 0.4327(3)
C174 C 1.1195(3) 0.7139(4) 0.4333(3)
H187 H 1.1386 0.7029 0.4114
C175 C 1.1081(3) 0.6874(4) 0.4671(3)
H188 H 1.1205 0.6589 0.4682
N60 N 1.2186(3) 0.7411(3) 0.2293(2)
C176 C 1.2144(4) 0.7176(3) 0.2633(3)
H189 H 1.2282 0.6898 0.2630
C177 C 1.1908(4) 0.7335(4) 0.2976(3)
H190 H 1.1892 0.7177 0.3215
C178 C 1.1692(3) 0.7729(3) 0.2969(3)
C179 C 1.1730(4) 0.7958(4) 0.2626(3)
H191 H 1.1579 0.8225 0.2617
C180 C 1.1984(4) 0.7801(3) 0.2297(3)
H192 H 1.2021 0.7971 0.2064
N61 N 1.2926(3) 0.6988(3) 0.1264(3)
N62 N 1.3256(3) 0.7662(3) 0.2053(3)
N63 N 0.5596(3) 0.5827(3) 0.3981(3)
N64 N 0.5499(3) 0.6621(3) 0.3571(4)
N65 N 1.0262(3) 0.6043(3) 0.5790(2)
N66 N 1.1135(3) 0.6916(3) 0.5850(2)
N67 N 1.0646(3) 1.0877(3) 0.3941(2)
N68 N 0.9702(3) 1.0788(3) 0.3510(3)
N69 N 0.8531(3) 0.2583(3) 0.1307(3)
N70 N 0.8149(3) 0.2599(3) 0.2104(3)
N71 N 0.8125(3) 0.6621(3) -0.0618(2)
N72 N 0.7641(3) 0.7282(3) -0.0145(2)
C181 C 1.3451(6) 0.7303(6) 0.1376(5)
H193 H 1.3667 0.7073 0.1305
H194 H 1.3529 0.7553 0.1185
C182 C 1.3610(6) 0.7566(7) 0.1760(6)
H195 H 1.3847 0.7908 0.1737
H196 H 1.3819 0.7387 0.1891
C183 C 1.2899(5) 0.6447(5) 0.1192(5)
H197 H 1.3121 0.6377 0.0970
H198 H 1.2543 0.6230 0.1101
H199 H 1.3016 0.6369 0.1455
C184 C 1.2710(5) 0.7111(5) 0.0874(4)
H200 H 1.2681 0.7462 0.0943
H201 H 1.2369 0.6861 0.0777
H202 H 1.2940 0.7091 0.0649
C185 C 1.3392(7) 0.7589(7) 0.2472(6)
H203 H 1.3697 0.7874 0.2607
H204 H 1.3466 0.7258 0.2444
H205 H 1.3104 0.7583 0.2646
C186 C 1.3292(6) 0.8225(6) 0.2078(5)
H206 H 1.3562 0.8447 0.2300
H207 H 1.2961 0.8275 0.2146
H208 H 1.3375 0.8319 0.1804
C187 C 0.5114(6) 0.5942(6) 0.3969(5)
H209 H 0.4862 0.5651 0.3770
H210 H 0.4991 0.5941 0.4255
C188 C 0.5097(7) 0.6368(7) 0.3865(6)
H211 H 0.5133 0.6629 0.4131
H212 H 0.4749 0.6301 0.3723
C189 C 0.5471(7) 0.5285(7) 0.3797(6)
H213 H 0.5780 0.5177 0.3819
H214 H 0.5343 0.5222 0.3498
H215 H 0.5205 0.5086 0.3950
C190 C 0.5814(6) 0.5963(6) 0.4431(5)
H216 H 0.5601 0.5719 0.4588
H217 H 0.5818 0.6317 0.4557
H218 H 0.6166 0.5943 0.4446
C191 C 0.5293(7) 0.6548(7) 0.3158(6)
H219 H 0.4972 0.6637 0.3159
H220 H 0.5222 0.6184 0.3016
H221 H 0.5539 0.6771 0.3005
C192 C 0.5682(5) 0.7170(5) 0.3743(4)
H222 H 0.5895 0.7346 0.3543
H223 H 0.5889 0.7237 0.4014
H224 H 0.5388 0.7302 0.3788
C193 C 1.0712(4) 0.6128(4) 0.6103(3)
H225 H 1.0590 0.5992 0.6357
H226 H 1.0943 0.5938 0.5975
C194 C 1.0997(4) 0.6684(4) 0.6230(3)
H227 H 1.1316 0.6732 0.6410
H228 H 1.0784 0.6865 0.6399
C195 C 0.9827(3) 0.6149(4) 0.6005(3)
H229 H 0.9545 0.6110 0.5792
H230 H 0.9939 0.6505 0.6174
H231 H 0.9708 0.5904 0.6192
C196 C 1.0088(4) 0.5488(4) 0.5566(3)
H232 H 1.0034 0.5266 0.5776
H233 H 1.0352 0.5419 0.5386
H234 H 0.9765 0.5413 0.5390
C197 C 1.1226(4) 0.7482(4) 0.5957(4)
H235 H 1.0901 0.7550 0.6017
H236 H 1.1360 0.7635 0.5717
H237 H 1.1476 0.7636 0.6208
C198 C 1.1616(4) 0.6804(4) 0.5693(3)
H238 H 1.1743 0.7006 0.5477
H239 H 1.1533 0.6433 0.5569
H240 H 1.1882 0.6900 0.5932
C199 C 1.0534(4) 1.1353(4) 0.3854(4)
H241 H 1.0710 1.1655 0.4085
H242 H 1.0667 1.1428 0.3584
C200 C 0.9978(4) 1.1269(5) 0.3829(4)
H243 H 0.9904 1.1570 0.3747
H244 H 0.9853 1.1238 0.4111
C201 C 1.0631(4) 1.0846(4) 0.4405(3)
H245 H 1.0890 1.1152 0.4578
H246 H 1.0706 1.0532 0.4447
H247 H 1.0288 1.0835 0.4492
C202 C 1.1187(4) 1.0908(4) 0.3821(3)
H248 H 1.1415 1.1266 0.3915
H249 H 1.1178 1.0803 0.3512
H250 H 1.1316 1.0676 0.3958
C203 C 0.9157(4) 1.0643(4) 0.3610(3)
H251 H 0.9014 1.0922 0.3581
H252 H 0.9141 1.0587 0.3902
H253 H 0.8957 1.0323 0.3412
C204 C 0.9703(5) 1.0875(5) 0.3067(4)
H254 H 0.9464 1.0571 0.2877
H255 H 1.0051 1.0931 0.2977
H256 H 0.9596 1.1181 0.3056
C205 C 0.8210(5) 0.2104(5) 0.1409(4)
H257 H 0.7847 0.2045 0.1305
H258 H 0.8318 0.1811 0.1259
C206 C 0.8245(5) 0.2117(5) 0.1861(4)
H259 H 0.8591 0.2112 0.1957
H260 H 0.7987 0.1805 0.1920
C207 C 0.8339(5) 0.2644(5) 0.0884(4)
H261 H 0.8485 0.2455 0.0658
H262 H 0.8445 0.3012 0.0872
H263 H 0.7963 0.2503 0.0845
C208 C 0.7596(5) 0.2530(5) 0.2075(4)
H264 H 0.7405 0.2168 0.2075
H265 H 0.7494 0.2619 0.1811
H266 H 0.7518 0.2757 0.2319
C209 C 0.8347(4) 0.2670(4) 0.2554(3)
H267 H 0.8213 0.2919 0.2734
H268 H 0.8725 0.2802 0.2581
H269 H 0.8236 0.2337 0.2643
C210 C 0.9048(5) 0.2558(5) 0.1267(4)
H270 H 0.9192 0.2518 0.1538
H271 H 0.9264 0.2878 0.1193
H272 H 0.9041 0.2260 0.1044
C211 C 0.7839(7) 0.6873(7) -0.0845(6)
H273 H 0.8088 0.7119 -0.0983
H274 H 0.7606 0.6604 -0.1074
C212 C 0.7535(5) 0.7151(5) -0.0608(4)
H275 H 0.7168 0.6942 -0.0677
H276 H 0.7582 0.7478 -0.0708
C213 C 0.7897(6) 0.6061(6) -0.0748(5)
H277 H 0.7529 0.5965 -0.0708
H278 H 0.8067 0.5890 -0.0576
H279 H 0.7940 0.5951 -0.1049
C214 C 0.8638(5) 0.6729(5) -0.0761(4)
H280 H 0.8797 0.6475 -0.0692
H281 H 0.8850 0.7079 -0.0617
H282 H 0.8615 0.6706 -0.1069
C215 C 0.7137(5) 0.7130(5) 0.0038(4)
H283 H 0.6964 0.7392 0.0025
H284 H 0.7195 0.7107 0.0335
H285 H 0.6920 0.6793 -0.0126
C216 C 0.7857(4) 0.7846(4) -0.0005(3)
H286 H 0.8229 0.7951 -0.0025
H287 H 0.7789 0.7948 0.0291
H288 H 0.7696 0.8016 -0.0186
C217 C 0.3432(4) 0.2755(4) 0.2908(3)
H289 H 0.3090 0.2767 0.2927
C218 C 0.3636(8) 0.2734(6) 0.2513(5)
H290 H 0.3432 0.2743 0.2272
C219 C 0.4145(8) 0.2701(8) 0.2466(7)
H291 H 0.4268 0.2678 0.2193
C220 C 0.4456(6) 0.2702(8) 0.2811(6)
C221 C 0.4225(7) 0.2716(8) 0.3212(4)
C222 C 0.3736(7) 0.2757(8) 0.3285(4)
C223 C 0.3542(8) 0.2753(9) 0.3682(7)
H292 H 0.3208 0.2769 0.3737
C224 C 0.3894(11) 0.2723(13) 0.3978(8)
H293 H 0.3783 0.2704 0.4253
C225 C 0.4408(11) 0.2718(14) 0.3927(8)
H294 H 0.4621 0.2724 0.4170
C226 C 0.4611(7) 0.2703(11) 0.3535(7)
C227 C 0.5070(7) 0.2657(8) 0.3312(7)
H295 H 0.5381 0.2642 0.3442
C228 C 0.4966(7) 0.2640(10) 0.2880(7)
H296 H 0.5189 0.2596 0.2666
C229 C 0.3201(8) 0.1439(10) 0.2251(9)
H297 H 0.3190 0.1783 0.2341
C230 C 0.3100(8) 0.1173(11) 0.1816(10)
H298 H 0.3010 0.1364 0.1625
C231 C 0.3111(7) 0.0676(10) 0.1625(8)
H299 H 0.3016 0.0542 0.1329
C232 C 0.3262(10) 0.0394(10) 0.1877(8)
C233 C 0.3322(11) 0.0630(10) 0.2339(8)
C234 C 0.3323(8) 0.1139(9) 0.2548(7)
C235 C 0.3469(11) 0.1325(11) 0.2976(8)
H300 H 0.3478 0.1663 0.3116
C236 C 0.3593(8) 0.0999(10) 0.3178(7)
H301 H 0.3713 0.1120 0.3471
C237 C 0.3560(12) 0.0466(12) 0.2986(10)
H302 H 0.3617 0.0255 0.3172
C238 C 0.3454(13) 0.0237(11) 0.2555(9)
C239 C 0.3465(12) -0.0230(10) 0.2211(10)
H303 H 0.3582 -0.0511 0.2247
C240 C 0.3264(11) -0.0150(10) 0.1833(9)
H304 H 0.3144 -0.0410 0.1581
C241 C 0.5856(12) 0.1674(13) 0.2167(8)
H305 H 0.6046 0.1488 0.2287
C242 C 0.6099(13) 0.2179(14) 0.2088(9)
H306 H 0.6460 0.2317 0.2167
C243 C 0.5869(11) 0.2498(11) 0.1908(8)
H307 H 0.6066 0.2829 0.1864
C244 C 0.5345(10) 0.2304(11) 0.1798(9)
C245 C 0.5069(10) 0.1784(10) 0.1880(9)
C246 C 0.5294(11) 0.1454(12) 0.2055(9)
C247 C 0.4974(14) 0.0980(13) 0.2107(12)
H308 H 0.5106 0.0763 0.2245
C248 C 0.4472(15) 0.0830(14) 0.1960(13)
H309 H 0.4262 0.0496 0.1984
C249 C 0.4235(13) 0.1146(11) 0.1767(10)
H310 H 0.3877 0.1012 0.1676
C250 C 0.4510(11) 0.1643(11) 0.1709(10)
C251 C 0.4459(9) 0.2114(10) 0.1552(8)
H311 H 0.4153 0.2150 0.1431
C252 C 0.4945(10) 0.2481(10) 0.1618(8)
H312 H 0.5012 0.2815 0.1552
C253 C 0.9657(10) 0.5485(9) 0.2316(7)
H313 H 0.9811 0.5319 0.2490
C254 C 0.9129(10) 0.5291(9) 0.2149(7)
H314 H 0.8945 0.4968 0.2216
C255 C 0.8830(12) 0.5493(11) 0.1901(8)
H315 H 0.8475 0.5316 0.1818
C256 C 0.9075(10) 0.5959(11) 0.1785(9)
C257 C 0.9626(8) 0.6176(9) 0.1945(7)
C258 C 0.9941(10) 0.5978(10) 0.2187(9)
C259 C 1.0447(10) 0.6259(12) 0.2324(9)
H316 H 1.0663 0.6135 0.2485
C260 C 1.0610(10) 0.6719(11) 0.2213(9)
H317 H 1.0950 0.6932 0.2320
C261 C 1.0325(12) 0.6922(13) 0.1949(11)
H318 H 1.0495 0.7245 0.1877
C262 C 0.9807(11) 0.6674(11) 0.1790(9)
C263 C 0.9358(11) 0.6757(11) 0.1544(9)
H319 H 0.9369 0.7042 0.1414
C264 C 0.8927(10) 0.6323(11) 0.1549(9)
H320 H 0.8591 0.6269 0.1422
N73 N 0.1064(9) 0.4525(9) 0.1862(7)
O10 O 0.0962(8) 0.4993(8) 0.2087(7)
O11 O 0.1588(11) 0.4538(11) 0.1770(11)
O12 O 0.0644(11) 0.4042(11) 0.1725(12)
O13 O 0.0137(17) 0.3506(18) 0.0822(15)
O14 O 0.1826(18) 0.5060(17) 0.1129(15)
N75 N 0.0429(5) 0.9967(6) 0.5237(4)
O18 O 0.0332(7) 0.9560(6) 0.4942(5)
O19 O 0.0286(7) 1.0324(6) 0.5180(6)
O20 O 0.0629(4) 0.9963(4) 0.5555(3)
N77 N 0.1902(10) 0.8352(10) 0.1282(9)
O25 O 0.2250(10) 0.8142(10) 0.1288(10)
O26 O 0.1898(11) 0.8604(11) 0.0999(10)
O27 O 0.1473(9) 0.8134(9) 0.1396(8)
O28 O 0.3099(14) 0.8632(13) 0.1040(11)
N78 N 0.7982(6) 0.4129(6) 0.3947(5)
O29 O 0.7532(5) 0.4033(6) 0.3998(5)
O30 O 0.8120(6) 0.3917(6) 0.3625(5)
O31 O 0.8281(6) 0.4449(7) 0.4241(5)
O32 O 0.7323(9) 0.3154(9) 0.3084(8)
N79 N 0.8810(15) 0.4782(11) 0.5319(8)
O33 O 0.8794(11) 0.5064(8) 0.5059(7)
O34 O 0.8697(12) 0.4880(11) 0.5688(8)
O35 O 0.8896(10) 0.4359(9) 0.5192(8)
N80 N 0.3261(8) 0.6297(8) 0.7399(6)
O36 O 0.3260(14) 0.5843(9) 0.7359(10)
O37 O 0.3155(11) 0.6466(10) 0.7749(7)
O38 O 0.319(2) 0.6481(18) 0.7090(10)
N83 N 0.2951(13) 0.8871(9) 0.9122(7)
O46 O 0.2905(7) 0.8600(7) 0.9401(6)
O47 O 0.2900(8) 0.9304(7) 0.9222(6)
O48 O 0.3001(8) 0.8655(7) 0.8754(6)
N84 N 0.7984(11) 0.8783(11) 0.4014(11)
O49 O 0.8339(15) 0.9196(12) 0.4171(16)
O50 O 0.8083(10) 0.8410(10) 0.4103(9)
O51 O 0.7566(13) 0.8829(15) 0.3917(15)
O53 O 0.8830(13) 0.8874(12) 0.4404(10)
N85 N 0.0294(5) 0.6901(5) 0.7481(4)
O54 O 0.0228(4) 0.6648(4) 0.7748(3)
O55 O 0.0276(4) 0.6683(4) 0.7098(3)
O56 O 0.0376(8) 0.7372(6) 0.7609(6)
N86 N 0.0865(6) 0.0721(6) 0.2604(5)
O57 O 0.0936(7) 0.1177(6) 0.2786(5)
O58 O 0.0756(6) 0.0659(6) 0.2193(5)
O59 O 0.0668(6) 0.0320(6) 0.2708(5)
N87 N 0.2820(7) 0.6380(8) 0.8700(6)
O60 O 0.3202(6) 0.6461(6) 0.8956(5)
O61 O 0.2647(6) 0.6742(8) 0.8688(7)
O62 O 0.2555(8) 0.5905(8) 0.8561(7)
N89 N 0.7993(7) 0.3654(7) 0.6165(6)
O67 O 0.8272(5) 0.3779(5) 0.5891(4)
O68 O 0.7743(6) 0.3214(6) 0.6178(5)
O69 O 0.8106(10) 0.3990(8) 0.6511(6)
O73 O 0.1468(12) 0.2047(12) 0.1511(10)
O75 O 0.2329(10) 0.2080(10) 0.1494(8)
O76 O 0.322(2) 0.266(2) 0.1423(17)
O77 O 0.3006(15) 0.3398(15) 0.1704(12)
N91 N 0.2454(7) 0.8565(7) 0.4017(6)
O78 O 0.2698(8) 0.8301(7) 0.3814(6)
O79 O 0.2463(6) 0.8962(6) 0.3920(5)
O80 O 0.2260(7) 0.8427(7) 0.4331(5)
N92 N 0.8021(9) 0.6110(13) 0.5640(8)
O81 O 0.8427(7) 0.6015(8) 0.5541(6)
O82 O 0.7819(11) 0.6219(14) 0.5325(9)
O83 O 0.7699(5) 0.5985(5) 0.5888(4)
N95 N 0.9524(9) 0.7339(17) 0.5702(9)
O92 O 0.9277(9) 0.7377(11) 0.6020(10)
O93 O 0.9983(7) 0.7386(8) 0.5796(6)
O94 O 0.9414(14) 0.7458(17) 0.5365(11)
O95 O 0.9893(11) 0.8475(12) 0.4704(9)
Pd1 Pd 0.56734(3) 0.35890(4) 0.06035(3)
Pd2 Pd 0.67222(2) 0.39676(3) 0.46324(2)
Pd3 Pd 0.21330(2) 0.39582(3) 0.31024(2)
Pd4 Pd 0.62024(4) -0.03993(5) 0.19129(5)
Pd5 Pd 0.16636(4) -0.04667(3) 0.05679(3)
Pd6 Pd 0.27490(3) 0.00662(3) 0.46549(3)
N1 N 0.2426(4) -0.0177(4) 0.0551(3)
C1 C 0.2650(5) 0.0281(6) 0.0442(3)
H1 H 0.2423 0.0424 0.0314
C2 C 0.3151(5) 0.0562(6) 0.0488(4)
H2 H 0.3274 0.0898 0.0426
C3 C 0.3465(5) 0.0309(6) 0.0635(4)
C4 C 0.3283(5) -0.0201(5) 0.0728(4)
H3 H 0.3501 -0.0381 0.0817
C5 C 0.2751(5) -0.0397(5) 0.0673(4)
H4 H 0.2605 -0.0733 0.0730
N2 N 0.4220(4) 0.1056(5) 0.0618(3)
N3 N 0.4333(4) 0.0313(5) 0.0894(3)
N4 N 0.5053(4) 0.1058(5) 0.0882(3)
C6 C 0.4060(6) 0.0569(8) 0.0722(4)
C7 C 0.4745(6) 0.1277(7) 0.0711(4)
C8 C 0.4822(6) 0.0584(7) 0.0968(4)
N5 N 0.5788(4) -0.0110(6) 0.1537(4)
C9 C 0.5977(6) 0.0372(6) 0.1418(5)
H5 H 0.6335 0.0552 0.1476
C10 C 0.5687(6) 0.0586(6) 0.1230(4)
H6 H 0.5839 0.0913 0.1158
C11 C 0.5156(6) 0.0339(6) 0.1132(4)
C12 C 0.4966(6) -0.0118(8) 0.1232(4)
H7 H 0.4607 -0.0293 0.1169
C13 C 0.5266(6) -0.0355(5) 0.1425(4)
H8 H 0.5112 -0.0691 0.1481
N6 N 0.5377(4) 0.2822(4) 0.0576(3)
C14 C 0.5672(5) 0.2566(6) 0.0691(4)
H9 H 0.6032 0.2743 0.0743
C15 C 0.5504(5) 0.2052(7) 0.0745(4)
H10 H 0.5726 0.1875 0.0833
C16 C 0.4952(6) 0.1820(6) 0.0650(4)
C17 C 0.4652(6) 0.2076(6) 0.0504(4)
H11 H 0.4293 0.1910 0.0428
C18 C 0.4880(5) 0.2588(6) 0.0467(4)
H12 H 0.4676 0.2771 0.0362
N7 N 0.2083(3) 0.3198(3) 0.3032(2)
C19 C 0.2118(4) 0.2976(4) 0.3369(3)
H13 H 0.2147 0.3177 0.3648
C20 C 0.2112(4) 0.2466(4) 0.3319(3)
H14 H 0.2127 0.2316 0.3560
C21 C 0.2085(4) 0.2183(4) 0.2924(3)
C22 C 0.2048(4) 0.2402(4) 0.2577(3)
H15 H 0.2019 0.2206 0.2296
C23 C 0.2054(4) 0.2912(4) 0.2648(3)
H16 H 0.2037 0.3065 0.2410
N8 N 0.2188(3) 0.1464(3) 0.3205(2)
N9 N 0.2011(4) 0.1360(4) 0.2451(3)
N10 N 0.2107(3) 0.0655(3) 0.2737(3)
C24 C 0.2107(4) 0.1653(4) 0.2866(3)
C25 C 0.2193(4) 0.0965(4) 0.3123(3)
C26 C 0.2022(4) 0.0871(4) 0.2409(3)
N11 N 0.2489(3) 0.0331(3) 0.4167(3)
C27 C 0.2549(4) 0.0860(4) 0.4215(3)
H17 H 0.2663 0.1079 0.4487
C28 C 0.2450(3) 0.1070(4) 0.3890(3)
H18 H 0.2477 0.1427 0.3936
C29 C 0.2308(3) 0.0759(4) 0.3486(3)
C30 C 0.2243(3) 0.0218(4) 0.3429(3)
H19 H 0.2139 -0.0007 0.3158
C31 C 0.2338(4) 0.0033(4) 0.3787(3)
H20 H 0.2291 -0.0328 0.3755
N12 N 0.1785(4) -0.0048(3) 0.1173(3)
C32 C 0.1749(5) 0.0447(4) 0.1239(3)
H21 H 0.1660 0.0580 0.1006
C33 C 0.1838(5) 0.0737(4) 0.1628(4)
H22 H 0.1828 0.1083 0.1666
C34 C 0.1944(5) 0.0555(4) 0.1973(3)
C35 C 0.1951(5) 0.0037(4) 0.1905(4)
H23 H 0.2009 -0.0112 0.2138
C36 C 0.1872(5) -0.0251(4) 0.1492(3)
H24 H 0.1882 -0.0599 0.1441
N13 N 0.6383(3) 0.3197(3) 0.4413(2)
C37 C 0.5947(3) 0.2955(4) 0.4576(3)
H25 H 0.5834 0.3144 0.4810
C38 C 0.5665(4) 0.2453(4) 0.4417(3)
H26 H 0.5365 0.2290 0.4541
C39 C 0.5832(4) 0.2182(4) 0.4064(3)
C40 C 0.6277(4) 0.2422(4) 0.3900(3)
H27 H 0.6398 0.2239 0.3667
C41 C 0.6547(3) 0.2934(4) 0.4080(3)
H28 H 0.6854 0.3102 0.3966
N14 N 0.5097(3) 0.1429(3) 0.4056(3)
N15 N 0.5708(3) 0.1371(3) 0.3560(3)
N16 N 0.4955(4) 0.0640(3) 0.3559(3)
C42 C 0.5518(4) 0.1627(4) 0.3877(4)
C43 C 0.4815(4) 0.0923(4) 0.3881(4)
C44 C 0.5413(5) 0.0881(4) 0.3411(4)
N17 N 0.3451(3) 0.0299(4) 0.4431(3)
C45 C 0.3748(4) 0.0784(4) 0.4569(4)
H29 H 0.3641 0.0998 0.4791
C46 C 0.4196(4) 0.0989(4) 0.4408(4)
H30 H 0.4410 0.1328 0.4537
C47 C 0.4351(4) 0.0711(4) 0.4057(4)
C48 C 0.4048(5) 0.0207(5) 0.3920(4)
H31 H 0.4147 -0.0007 0.3692
C49 C 0.3597(5) -0.0006(5) 0.4104(4)
H32 H 0.3394 -0.0358 0.4003
N18 N 0.5967(5) 0.0008(5) 0.2423(4)
C50 C 0.5531(7) -0.0201(5) 0.2557(5)
H33 H 0.5343 -0.0549 0.2424
C51 C 0.5312(5) 0.0056(4) 0.2895(4)
H34 H 0.5000 -0.0105 0.3004
C52 C 0.5618(6) 0.0584(4) 0.3049(4)
C53 C 0.6066(5) 0.0788(5) 0.2896(4)
H35 H 0.6269 0.1136 0.3009
C54 C 0.6224(5) 0.0502(5) 0.2590(4)
H36 H 0.6539 0.0656 0.2482
N19 N 0.2906(3) 0.4088(3) 0.3074(2)
C55 C 0.3226(3) 0.4128(4) 0.3412(3)
H37 H 0.3109 0.4160 0.3687
C56 C 0.3728(3) 0.4122(4) 0.3362(3)
H38 H 0.3953 0.4149 0.3603
C57 C 0.3894(3) 0.4077(4) 0.2970(3)
C58 C 0.3569(3) 0.4048(4) 0.2624(3)
H39 H 0.3681 0.4025 0.2347
C59 C 0.3081(4) 0.4054(4) 0.2692(3)
H40 H 0.2854 0.4033 0.2455
N20 N 0.4733(3) 0.4067(3) 0.3246(2)
N21 N 0.4532(3) 0.3957(4) 0.2504(3)
N22 N 0.5352(3) 0.3947(4) 0.2764(3)
C60 C 0.4417(3) 0.4021(4) 0.2897(3)
C61 C 0.5010(3) 0.3910(4) 0.2441(3)
C62 C 0.5192(3) 0.4009(4) 0.3153(3)
N23 N 0.6249(3) 0.4056(3) 0.4165(2)
C63 C 0.6394(3) 0.4056(4) 0.3775(3)
H41 H 0.6736 0.4063 0.3725
C64 C 0.6066(3) 0.4048(4) 0.3451(3)
H42 H 0.6179 0.4048 0.3176
C65 C 0.5569(3) 0.4039(4) 0.3514(3)
C66 C 0.5417(4) 0.4043(4) 0.3929(3)
H43 H 0.5079 0.4041 0.3990
C67 C 0.5765(3) 0.4047(4) 0.4236(3)
H44 H 0.5664 0.4045 0.4515
N24 N 0.5445(3) 0.3691(4) 0.1190(3)
C68 C 0.4986(4) 0.3709(6) 0.1266(3)
H45 H 0.4742 0.3654 0.1031
C69 C 0.4832(4) 0.3806(5) 0.1673(4)
H46 H 0.4505 0.3852 0.1711
C70 C 0.5150(4) 0.3835(5) 0.2009(3)
C71 C 0.5645(4) 0.3780(5) 0.1950(4)
H47 H 0.5876 0.3791 0.2182
C72 C 0.5775(4) 0.3708(5) 0.1530(4)
H48 H 0.6103 0.3669 0.1477
N25 N 0.5903(6) 0.3488(7) -0.0004(4)
N26 N 0.5957(4) 0.4380(5) 0.0645(4)
N27 N 0.7056(3) 0.4763(3) 0.4867(3)
N28 N 0.7191(3) 0.3868(3) 0.5098(2)
N29 N 0.2179(3) 0.4731(3) 0.3169(2)
N30 N 0.1352(3) 0.3834(3) 0.3107(3)
N31 N 0.6485(6) -0.0743(7) 0.1313(5)
N32 N 0.6629(9) -0.0682(9) 0.2302(8)
N33 N 0.1549(6) -0.0867(6) -0.0067(5)
N34 N 0.0879(4) -0.0775(4) 0.0588(4)
N35 N 0.3009(4) -0.0208(4) 0.5151(3)
N36 N 0.2043(3) -0.0112(4) 0.4906(3)
C73 C 0.6194(10) 0.3942(10) -0.0073(8)
H49 H 0.6559 0.3980 0.0002
H50 H 0.6152 0.3939 -0.0380
C74 C 0.6093(9) 0.4338(9) 0.0134(7)
H51 H 0.5796 0.4376 -0.0028
H52 H 0.6391 0.4645 0.0126
C75 C 0.6212(11) 0.3171(11) -0.0029(9)
H53 H 0.6114 0.2940 0.0172
H54 H 0.6573 0.3385 0.0043
H55 H 0.6168 0.2964 -0.0318
C76 C 0.5460(8) 0.3260(8) -0.0309(7)
H56 H 0.5568 0.3137 -0.0586
H57 H 0.5288 0.3520 -0.0334
H58 H 0.5220 0.2967 -0.0215
C77 C 0.6465(9) 0.4583(9) 0.0934(8)
H59 H 0.6649 0.4938 0.0907
H60 H 0.6679 0.4359 0.0850
H61 H 0.6392 0.4582 0.1230
C78 C 0.5579(8) 0.4666(8) 0.0713(7)
H62 H 0.5498 0.4700 0.1010
H63 H 0.5263 0.4475 0.0525
H64 H 0.5723 0.5011 0.0650
C79 C 0.7359(5) 0.4786(5) 0.5282(4)
H65 H 0.7644 0.5118 0.5347
H66 H 0.7129 0.4793 0.5512
C80 C 0.7566(5) 0.4384(5) 0.5289(5)
H67 H 0.7675 0.4389 0.5587
H68 H 0.7875 0.4439 0.5130
C81 C 0.7383(6) 0.4985(6) 0.4579(5)
H69 H 0.7176 0.5025 0.4341
H70 H 0.7587 0.4758 0.4472
H71 H 0.7615 0.5326 0.4723
C82 C 0.6684(5) 0.5024(5) 0.4954(4)
H72 H 0.6858 0.5387 0.5092
H73 H 0.6447 0.4856 0.5144
H74 H 0.6490 0.5010 0.4688
C83 C 0.7516(4) 0.3559(4) 0.4928(4)
H75 H 0.7714 0.3716 0.4713
H76 H 0.7299 0.3206 0.4799
H77 H 0.7753 0.3547 0.5159
C84 C 0.6900(4) 0.3655(4) 0.5435(3)
H78 H 0.6662 0.3309 0.5314
H79 H 0.6705 0.3884 0.5557
H80 H 0.7140 0.3631 0.5657
C85 C 0.1633(4) 0.4735(4) 0.3087(4)
H81 H 0.1606 0.5081 0.3215
H82 H 0.1538 0.4668 0.2777
C86 C 0.1279(4) 0.4336(4) 0.3272(3)
H83 H 0.1347 0.4424 0.3586
H84 H 0.0918 0.4319 0.3198
C87 C 0.2392(4) 0.5002(4) 0.3603(3)
H85 H 0.2742 0.4985 0.3653
H86 H 0.2174 0.4836 0.3805
H87 H 0.2402 0.5366 0.3643
C88 C 0.2502(4) 0.4999(4) 0.2868(3)
H88 H 0.2500 0.5360 0.2915
H89 H 0.2362 0.4822 0.2576
H90 H 0.2855 0.4993 0.2916
C89 C 0.1097(4) 0.3444(4) 0.3370(4)
H91 H 0.1213 0.3591 0.3671
H92 H 0.1190 0.3126 0.3282
H93 H 0.0722 0.3363 0.3326
C90 C 0.1113(5) 0.3591(5) 0.2634(4)
H94 H 0.0765 0.3616 0.2601
H95 H 0.1099 0.3226 0.2565
H96 H 0.1328 0.3780 0.2442
C91 C 0.6730(12) -0.1056(13) 0.1517(10)
H97 H 0.6505 -0.1418 0.1415
H98 H 0.7053 -0.1032 0.1379
C92 C 0.6874(13) -0.1020(13) 0.1965(9)
H99 H 0.7253 -0.0874 0.2018
H100 H 0.6777 -0.1377 0.2019
C93 C 0.5993(7) -0.1188(8) 0.1069(7)
H101 H 0.5744 -0.1032 0.0970
H102 H 0.5834 -0.1413 0.1262
H103 H 0.6095 -0.1393 0.0825
C94 C 0.6748(7) -0.0426(7) 0.1098(6)
H104 H 0.7032 -0.0162 0.1285
H105 H 0.6525 -0.0258 0.0977
H106 H 0.6888 -0.0616 0.0869
C95 C 0.6304(10) -0.0973(10) 0.2561(9)
H107 H 0.5974 -0.1176 0.2397
H108 H 0.6244 -0.0736 0.2808
H109 H 0.6468 -0.1208 0.2658
C96 C 0.7078(9) -0.0203(9) 0.2560(8)
H110 H 0.6966 -0.0074 0.2834
H111 H 0.7163 0.0073 0.2398
H112 H 0.7382 -0.0310 0.2609
C97 C 0.1079(8) -0.1218(9) -0.0111(8)
H113 H 0.1113 -0.1534 -0.0026
H114 H 0.0949 -0.1315 -0.0415
C98 C 0.0707(7) -0.1060(7) 0.0125(5)
H115 H 0.0410 -0.1373 0.0123
H116 H 0.0582 -0.0832 -0.0025
C99 C 0.1603(8) -0.0519(8) -0.0392(7)
H117 H 0.1419 -0.0725 -0.0665
H118 H 0.1969 -0.0370 -0.0429
H119 H 0.1458 -0.0239 -0.0291
C100 C 0.1945(8) -0.1149(9) -0.0144(8)
H120 H 0.1773 -0.1524 -0.0200
H121 H 0.2194 -0.1048 0.0108
H122 H 0.2126 -0.1056 -0.0390
C101 C 0.0635(7) -0.0392(7) 0.0697(6)
H123 H 0.0262 -0.0547 0.0622
H124 H 0.0768 -0.0114 0.0542
H125 H 0.0703 -0.0248 0.1004
C102 C 0.0785(8) -0.1138(7) 0.0917(6)
H126 H 0.0942 -0.0934 0.1199
H127 H 0.0941 -0.1414 0.0831
H128 H 0.0414 -0.1292 0.0927
C103 C 0.2504(5) -0.0477(6) 0.5329(5)
H129 H 0.2362 -0.0839 0.5166
H130 H 0.2582 -0.0491 0.5628
C104 C 0.2124(6) -0.0221(6) 0.5310(5)
H131 H 0.1795 -0.0442 0.5384
H132 H 0.2232 0.0108 0.5524
C105 C 0.3268(6) -0.0594(6) 0.4988(5)
H133 H 0.3592 -0.0421 0.4880
H134 H 0.3044 -0.0859 0.4757
H135 H 0.3341 -0.0758 0.5217
C106 C 0.3341(6) 0.0210(6) 0.5455(5)
H136 H 0.3411 0.0088 0.5710
H137 H 0.3177 0.0482 0.5529
H138 H 0.3666 0.0352 0.5335
C107 C 0.1665(6) -0.0550(6) 0.4634(5)
H139 H 0.1838 -0.0787 0.4486
H140 H 0.1488 -0.0427 0.4426
H141 H 0.1414 -0.0733 0.4807
C108 C 0.1821(6) 0.0303(6) 0.4961(5)
H142 H 0.1515 0.0214 0.5115
H143 H 0.1724 0.0359 0.4682
H144 H 0.2074 0.0621 0.5123
loop_
_geom_bond_atom_site_label_1
_geom_bond_atom_site_label_2
_geom_bond_site_symmetry_1
_geom_bond_site_symmetry_2
Pd1 N6 1_555 1_555
Pd2 N13 1_555 1_555
Pd3 N7 1_555 1_555
Pd4 N5 1_555 1_555
Pd5 N1 1_555 1_555
Pd6 N11 1_555 1_555
N1 C1 1_555 1_555
C1 H1 1_555 1_555
C2 C1 1_555 1_555
H2 C2 1_555 1_555
C3 C2 1_555 1_555
C4 C3 1_555 1_555
H3 C4 1_555 1_555
C5 N1 1_555 1_555
H4 C5 1_555 1_555
N2 C6 1_555 1_555
N3 C6 1_555 1_555
N4 C7 1_555 1_555
C6 C3 1_555 1_555
C7 N2 1_555 1_555
C8 N3 1_555 1_555
N5 C9 1_555 1_555
C9 H5 1_555 1_555
C10 C9 1_555 1_555
H6 C10 1_555 1_555
C11 C8 1_555 1_555
C12 C11 1_555 1_555
H7 C12 1_555 1_555
C13 N5 1_555 1_555
H8 C13 1_555 1_555
N6 C14 1_555 1_555
C14 H9 1_555 1_555
C15 C14 1_555 1_555
H10 C15 1_555 1_555
C16 C7 1_555 1_555
C17 C16 1_555 1_555
H11 C17 1_555 1_555
C18 N6 1_555 1_555
H12 C18 1_555 1_555
N7 C19 1_555 1_555
C19 H13 1_555 1_555
C20 C19 1_555 1_555
H14 C20 1_555 1_555
C21 C20 1_555 1_555
C22 C21 1_555 1_555
H15 C22 1_555 1_555
C23 N7 1_555 1_555
H16 C23 1_555 1_555
N8 C24 1_555 1_555
N9 C24 1_555 1_555
N10 C25 1_555 1_555
C24 C21 1_555 1_555
C25 N8 1_555 1_555
C26 N9 1_555 1_555
N11 C27 1_555 1_555
C27 H17 1_555 1_555
C28 C27 1_555 1_555
H18 C28 1_555 1_555
C29 C25 1_555 1_555
C30 C29 1_555 1_555
H19 C30 1_555 1_555
C31 N11 1_555 1_555
H20 C31 1_555 1_555
N12 Pd5 1_555 1_555
C32 N12 1_555 1_555
H21 C32 1_555 1_555
C33 C32 1_555 1_555
H22 C33 1_555 1_555
C34 C26 1_555 1_555
C35 C34 1_555 1_555
H23 C35 1_555 1_555
C36 N12 1_555 1_555
H24 C36 1_555 1_555
N13 C37 1_555 1_555
C37 H25 1_555 1_555
C38 C37 1_555 1_555
H26 C38 1_555 1_555
C39 C38 1_555 1_555
C40 C39 1_555 1_555
H27 C40 1_555 1_555
C41 N13 1_555 1_555
H28 C41 1_555 1_555
N14 C42 1_555 1_555
N15 C42 1_555 1_555
N16 C43 1_555 1_555
C42 C39 1_555 1_555
C43 N14 1_555 1_555
C44 N15 1_555 1_555
N17 Pd6 1_555 1_555
C45 N17 1_555 1_555
H29 C45 1_555 1_555
C46 C45 1_555 1_555
H30 C46 1_555 1_555
C47 C43 1_555 1_555
C48 C47 1_555 1_555
H31 C48 1_555 1_555
C49 N17 1_555 1_555
H32 C49 1_555 1_555
N18 Pd4 1_555 1_555
C50 N18 1_555 1_555
H33 C50 1_555 1_555
C51 C50 1_555 1_555
H34 C51 1_555 1_555
C52 C44 1_555 1_555
C53 C52 1_555 1_555
H35 C53 1_555 1_555
C54 N18 1_555 1_555
H36 C54 1_555 1_555
N19 Pd3 1_555 1_555
C55 N19 1_555 1_555
H37 C55 1_555 1_555
C56 C55 1_555 1_555
H38 C56 1_555 1_555
C57 C56 1_555 1_555
C58 C57 1_555 1_555
H39 C58 1_555 1_555
C59 N19 1_555 1_555
H40 C59 1_555 1_555
N20 C60 1_555 1_555
N21 C60 1_555 1_555
N22 C61 1_555 1_555
C60 C57 1_555 1_555
C61 N21 1_555 1_555
C62 N20 1_555 1_555
N23 Pd2 1_555 1_555
C63 N23 1_555 1_555
H41 C63 1_555 1_555
C64 C63 1_555 1_555
H42 C64 1_555 1_555
C65 C62 1_555 1_555
C66 C65 1_555 1_555
H43 C66 1_555 1_555
C67 N23 1_555 1_555
H44 C67 1_555 1_555
N24 Pd1 1_555 1_555
C68 N24 1_555 1_555
H45 C68 1_555 1_555
C69 C68 1_555 1_555
H46 C69 1_555 1_555
C70 C61 1_555 1_555
C71 C70 1_555 1_555
H47 C71 1_555 1_555
C72 N24 1_555 1_555
H48 C72 1_555 1_555
N25 Pd1 1_555 1_555
N26 Pd1 1_555 1_555
N27 Pd2 1_555 1_555
N28 Pd2 1_555 1_555
N29 Pd3 1_555 1_555
N30 Pd3 1_555 1_555
N31 Pd4 1_555 1_555
N32 Pd4 1_555 1_555
N33 Pd5 1_555 1_555
N34 Pd5 1_555 1_555
N35 Pd6 1_555 1_555
N36 Pd6 1_555 1_555
C73 N25 1_555 1_555
H49 C73 1_555 1_555
H50 C73 1_555 1_555
C74 N26 1_555 1_555
H51 C74 1_555 1_555
H52 C74 1_555 1_555
C75 N25 1_555 1_555
H53 C75 1_555 1_555
H54 C75 1_555 1_555
H55 C75 1_555 1_555
C76 N25 1_555 1_555
H56 C76 1_555 1_555
H57 C76 1_555 1_555
H58 C76 1_555 1_555
C77 N26 1_555 1_555
H59 C77 1_555 1_555
H60 C77 1_555 1_555
H61 C77 1_555 1_555
C78 N26 1_555 1_555
H62 C78 1_555 1_555
H63 C78 1_555 1_555
H64 C78 1_555 1_555
C79 N27 1_555 1_555
H65 C79 1_555 1_555
H66 C79 1_555 1_555
C80 N28 1_555 1_555
H67 C80 1_555 1_555
H68 C80 1_555 1_555
C81 N27 1_555 1_555
H69 C81 1_555 1_555
H70 C81 1_555 1_555
H71 C81 1_555 1_555
C82 N27 1_555 1_555
H72 C82 1_555 1_555
H73 C82 1_555 1_555
H74 C82 1_555 1_555
C83 N28 1_555 1_555
H75 C83 1_555 1_555
H76 C83 1_555 1_555
H77 C83 1_555 1_555
C84 N28 1_555 1_555
H78 C84 1_555 1_555
H79 C84 1_555 1_555
H80 C84 1_555 1_555
C85 N29 1_555 1_555
H81 C85 1_555 1_555
H82 C85 1_555 1_555
C86 N30 1_555 1_555
H83 C86 1_555 1_555
H84 C86 1_555 1_555
C87 N29 1_555 1_555
H85 C87 1_555 1_555
H86 C87 1_555 1_555
H87 C87 1_555 1_555
C88 N29 1_555 1_555
H88 C88 1_555 1_555
H89 C88 1_555 1_555
H90 C88 1_555 1_555
C89 N30 1_555 1_555
H91 C89 1_555 1_555
H92 C89 1_555 1_555
H93 C89 1_555 1_555
C90 N30 1_555 1_555
H94 C90 1_555 1_555
H95 C90 1_555 1_555
H96 C90 1_555 1_555
C91 N31 1_555 1_555
H97 C91 1_555 1_555
H98 C91 1_555 1_555
C92 N32 1_555 1_555
H99 C92 1_555 1_555
H100 C92 1_555 1_555
C93 N31 1_555 1_555
H101 C93 1_555 1_555
H102 C93 1_555 1_555
H103 C93 1_555 1_555
C94 N31 1_555 1_555
H104 C94 1_555 1_555
H105 C94 1_555 1_555
H106 C94 1_555 1_555
C95 N32 1_555 1_555
H107 C95 1_555 1_555
H108 C95 1_555 1_555
H109 C95 1_555 1_555
C96 N32 1_555 1_555
H110 C96 1_555 1_555
H111 C96 1_555 1_555
H112 C96 1_555 1_555
C97 N33 1_555 1_555
H113 C97 1_555 1_555
H114 C97 1_555 1_555
C98 N34 1_555 1_555
H115 C98 1_555 1_555
H116 C98 1_555 1_555
C99 N33 1_555 1_555
H117 C99 1_555 1_555
H118 C99 1_555 1_555
H119 C99 1_555 1_555
C100 N33 1_555 1_555
H120 C100 1_555 1_555
H121 C100 1_555 1_555
H122 C100 1_555 1_555
C101 N34 1_555 1_555
H123 C101 1_555 1_555
H124 C101 1_555 1_555
H125 C101 1_555 1_555
C102 N34 1_555 1_555
H126 C102 1_555 1_555
H127 C102 1_555 1_555
H128 C102 1_555 1_555
C103 N35 1_555 1_555
H129 C103 1_555 1_555
H130 C103 1_555 1_555
C104 N36 1_555 1_555
H131 C104 1_555 1_555
H132 C104 1_555 1_555
C105 N35 1_555 1_555
H133 C105 1_555 1_555
H134 C105 1_555 1_555
H135 C105 1_555 1_555
C106 N35 1_555 1_555
H136 C106 1_555 1_555
H137 C106 1_555 1_555
H138 C106 1_555 1_555
C107 N36 1_555 1_555
H139 C107 1_555 1_555
H140 C107 1_555 1_555
H141 C107 1_555 1_555
C108 N36 1_555 1_555
H142 C108 1_555 1_555
H143 C108 1_555 1_555
H144 C108 1_555 1_555
Pd7 N54 1_555 1_555
Pd8 N41 1_555 1_555
Pd9 N42 1_555 1_555
Pd10 N48 1_555 1_555
Pd11 N37 1_555 1_555
Pd12 N47 1_555 1_555
N37 C109 1_555 1_555
C109 H145 1_555 1_555
C110 C109 1_555 1_555
H146 C110 1_555 1_555
C111 C110 1_555 1_555
C112 C111 1_555 1_555
H147 C112 1_555 1_555
C113 N37 1_555 1_555
H148 C113 1_555 1_555
N38 C114 1_555 1_555
N39 C114 1_555 1_555
N40 C115 1_555 1_555
C114 C111 1_555 1_555
C115 N39 1_555 1_555
C116 N38 1_555 1_555
N41 C117 1_555 1_555
C117 H149 1_555 1_555
C118 C117 1_555 1_555
H150 C118 1_555 1_555
C119 C116 1_555 1_555
C120 C119 1_555 1_555
H151 C120 1_555 1_555
C121 N41 1_555 1_555
H152 C121 1_555 1_555
N42 C122 1_555 1_555
C122 H153 1_555 1_555
C123 C122 1_555 1_555
H154 C123 1_555 1_555
C124 C115 1_555 1_555
C125 C124 1_555 1_555
H155 C125 1_555 1_555
C126 N42 1_555 1_555
H156 C126 1_555 1_555
N43 Pd8 1_555 1_555
C127 N43 1_555 1_555
H157 C127 1_555 1_555
C128 C127 1_555 1_555
H158 C128 1_555 1_555
C129 C128 1_555 1_555
C130 C129 1_555 1_555
H159 C130 1_555 1_555
C131 N43 1_555 1_555
H160 C131 1_555 1_555
N44 C132 1_555 1_555
N45 C132 1_555 1_555
N46 C133 1_555 1_555
C132 C129 1_555 1_555
C133 N45 1_555 1_555
C134 N44 1_555 1_555
N47 C135 1_555 1_555
C135 H161 1_555 1_555
C136 C135 1_555 1_555
H162 C136 1_555 1_555
C137 C133 1_555 1_555
C138 C137 1_555 1_555
H163 C138 1_555 1_555
C139 N47 1_555 1_555
H164 C139 1_555 1_555
N48 C140 1_555 1_555
C140 H165 1_555 1_555
C141 C140 1_555 1_555
H166 C141 1_555 1_555
C142 C134 1_555 1_555
C143 C142 1_555 1_555
H167 C143 1_555 1_555
C144 N48 1_555 1_555
H168 C144 1_555 1_555
N49 Pd11 1_555 1_555
C145 N49 1_555 1_555
H169 C145 1_555 1_555
C146 C145 1_555 1_555
H170 C146 1_555 1_555
C147 C146 1_555 1_555
C148 C147 1_555 1_555
H171 C148 1_555 1_555
C149 N49 1_555 1_555
H172 C149 1_555 1_555
N50 C150 1_555 1_555
N51 C151 1_555 1_555
N52 C150 1_555 1_555
C150 C147 1_555 1_555
C151 N52 1_555 1_555
C152 N50 1_555 1_555
N53 Pd12 1_555 1_555
C153 N53 1_555 1_555
H173 C153 1_555 1_555
C154 C153 1_555 1_555
H174 C154 1_555 1_555
C155 C151 1_555 1_555
C156 C155 1_555 1_555
H175 C156 1_555 1_555
C157 N53 1_555 1_555
H176 C157 1_555 1_555
N54 C158 1_555 1_555
C158 H177 1_555 1_555
C159 C158 1_555 1_555
H178 C159 1_555 1_555
C160 C152 1_555 1_555
C161 C160 1_555 1_555
H179 C161 1_555 1_555
C162 N54 1_555 1_555
H180 C162 1_555 1_555
N55 Pd10 1_555 1_555
C163 N55 1_555 1_555
H181 C163 1_555 1_555
C164 C163 1_555 1_555
H182 C164 1_555 1_555
C165 C164 1_555 1_555
C166 C165 1_555 1_555
H183 C166 1_555 1_555
C167 N55 1_555 1_555
H184 C167 1_555 1_555
N56 C168 1_555 1_555
N57 C168 1_555 1_555
N58 C169 1_555 1_555
C168 C165 1_555 1_555
C169 N56 1_555 1_555
C170 N57 1_555 1_555
N59 Pd9 1_555 1_555
C171 N59 1_555 1_555
H185 C171 1_555 1_555
C172 C171 1_555 1_555
H186 C172 1_555 1_555
C173 C169 1_555 1_555
C174 C173 1_555 1_555
H187 C174 1_555 1_555
C175 N59 1_555 1_555
H188 C175 1_555 1_555
N60 Pd7 1_555 1_555
C176 N60 1_555 1_555
H189 C176 1_555 1_555
C177 C176 1_555 1_555
H190 C177 1_555 1_555
C178 C170 1_555 1_555
C179 C178 1_555 1_555
H191 C179 1_555 1_555
C180 N60 1_555 1_555
H192 C180 1_555 1_555
N61 Pd7 1_555 1_555
N62 Pd7 1_555 1_555
N63 Pd8 1_555 1_555
N64 Pd8 1_555 1_555
N65 Pd9 1_555 1_555
N66 Pd9 1_555 1_555
N67 Pd10 1_555 1_555
N68 Pd10 1_555 1_555
N69 Pd11 1_555 1_555
N70 Pd11 1_555 1_555
N71 Pd12 1_555 1_555
N72 Pd12 1_555 1_555
C181 N61 1_555 1_555
H193 C181 1_555 1_555
H194 C181 1_555 1_555
C182 N62 1_555 1_555
H195 C182 1_555 1_555
H196 C182 1_555 1_555
C183 N61 1_555 1_555
H197 C183 1_555 1_555
H198 C183 1_555 1_555
H199 C183 1_555 1_555
C184 N61 1_555 1_555
H200 C184 1_555 1_555
H201 C184 1_555 1_555
H202 C184 1_555 1_555
C185 N62 1_555 1_555
H203 C185 1_555 1_555
H204 C185 1_555 1_555
H205 C185 1_555 1_555
C186 N62 1_555 1_555
H206 C186 1_555 1_555
H207 C186 1_555 1_555
H208 C186 1_555 1_555
C187 N63 1_555 1_555
H209 C187 1_555 1_555
H210 C187 1_555 1_555
C188 N64 1_555 1_555
H211 C188 1_555 1_555
H212 C188 1_555 1_555
C189 N63 1_555 1_555
H213 C189 1_555 1_555
H214 C189 1_555 1_555
H215 C189 1_555 1_555
C190 N63 1_555 1_555
H216 C190 1_555 1_555
H217 C190 1_555 1_555
H218 C190 1_555 1_555
C191 N64 1_555 1_555
H219 C191 1_555 1_555
H220 C191 1_555 1_555
H221 C191 1_555 1_555
C192 N64 1_555 1_555
H222 C192 1_555 1_555
H223 C192 1_555 1_555
H224 C192 1_555 1_555
C193 N65 1_555 1_555
H225 C193 1_555 1_555
H226 C193 1_555 1_555
C194 N66 1_555 1_555
H227 C194 1_555 1_555
H228 C194 1_555 1_555
C195 N65 1_555 1_555
H229 C195 1_555 1_555
H230 C195 1_555 1_555
H231 C195 1_555 1_555
C196 N65 1_555 1_555
H232 C196 1_555 1_555
H233 C196 1_555 1_555
H234 C196 1_555 1_555
C197 N66 1_555 1_555
H235 C197 1_555 1_555
H236 C197 1_555 1_555
H237 C197 1_555 1_555
C198 N66 1_555 1_555
H238 C198 1_555 1_555
H239 C198 1_555 1_555
H240 C198 1_555 1_555
C199 N67 1_555 1_555
H241 C199 1_555 1_555
H242 C199 1_555 1_555
C200 N68 1_555 1_555
H243 C200 1_555 1_555
H244 C200 1_555 1_555
C201 N67 1_555 1_555
H245 C201 1_555 1_555
H246 C201 1_555 1_555
H247 C201 1_555 1_555
C202 N67 1_555 1_555
H248 C202 1_555 1_555
H249 C202 1_555 1_555
H250 C202 1_555 1_555
C203 N68 1_555 1_555
H251 C203 1_555 1_555
H252 C203 1_555 1_555
H253 C203 1_555 1_555
C204 N68 1_555 1_555
H254 C204 1_555 1_555
H255 C204 1_555 1_555
H256 C204 1_555 1_555
C205 N69 1_555 1_555
H257 C205 1_555 1_555
H258 C205 1_555 1_555
C206 N70 1_555 1_555
H259 C206 1_555 1_555
H260 C206 1_555 1_555
C207 N69 1_555 1_555
H261 C207 1_555 1_555
H262 C207 1_555 1_555
H263 C207 1_555 1_555
C208 N70 1_555 1_555
H264 C208 1_555 1_555
H265 C208 1_555 1_555
H266 C208 1_555 1_555
C209 N70 1_555 1_555
H267 C209 1_555 1_555
H268 C209 1_555 1_555
H269 C209 1_555 1_555
C210 N69 1_555 1_555
H270 C210 1_555 1_555
H271 C210 1_555 1_555
H272 C210 1_555 1_555
C211 N71 1_555 1_555
H273 C211 1_555 1_555
H274 C211 1_555 1_555
C212 N72 1_555 1_555
H275 C212 1_555 1_555
H276 C212 1_555 1_555
C213 N71 1_555 1_555
H277 C213 1_555 1_555
H278 C213 1_555 1_555
H279 C213 1_555 1_555
C214 N71 1_555 1_555
H280 C214 1_555 1_555
H281 C214 1_555 1_555
H282 C214 1_555 1_555
C215 N72 1_555 1_555
H283 C215 1_555 1_555
H284 C215 1_555 1_555
H285 C215 1_555 1_555
C216 N72 1_555 1_555
H286 C216 1_555 1_555
H287 C216 1_555 1_555
H288 C216 1_555 1_555
C217 H289 1_555 1_555
C218 C217 1_555 1_555
H290 C218 1_555 1_555
C219 C218 1_555 1_555
H291 C219 1_555 1_555
C220 C219 1_555 1_555
C221 C220 1_555 1_555
C222 C217 1_555 1_555
C223 C222 1_555 1_555
H292 C223 1_555 1_555
C224 C223 1_555 1_555
H293 C224 1_555 1_555
C225 C224 1_555 1_555
H294 C225 1_555 1_555
C226 C221 1_555 1_555
C227 C226 1_555 1_555
H295 C227 1_555 1_555
C228 C220 1_555 1_555
H296 C228 1_555 1_555
C229 H297 1_555 1_555
C230 C229 1_555 1_555
H298 C230 1_555 1_555
C231 C230 1_555 1_555
H299 C231 1_555 1_555
C232 C231 1_555 1_555
C233 C232 1_555 1_555
C234 C229 1_555 1_555
C235 C234 1_555 1_555
H300 C235 1_555 1_555
C236 C235 1_555 1_555
H301 C236 1_555 1_555
C237 C236 1_555 1_555
H302 C237 1_555 1_555
C238 C233 1_555 1_555
C239 C238 1_555 1_555
H303 C239 1_555 1_555
C240 C232 1_555 1_555
H304 C240 1_555 1_555
C241 H305 1_555 1_555
C242 C241 1_555 1_555
H306 C242 1_555 1_555
C243 C242 1_555 1_555
H307 C243 1_555 1_555
C244 C243 1_555 1_555
C245 C244 1_555 1_555
C246 C241 1_555 1_555
C247 C246 1_555 1_555
H308 C247 1_555 1_555
C248 C247 1_555 1_555
H309 C248 1_555 1_555
C249 C248 1_555 1_555
H310 C249 1_555 1_555
C250 C245 1_555 1_555
C251 C250 1_555 1_555
H311 C251 1_555 1_555
C252 C244 1_555 1_555
H312 C252 1_555 1_555
C253 H313 1_555 1_555
C254 C253 1_555 1_555
H314 C254 1_555 1_555
C255 C254 1_555 1_555
H315 C255 1_555 1_555
C256 C255 1_555 1_555
C257 C256 1_555 1_555
C258 C253 1_555 1_555
C259 C258 1_555 1_555
H316 C259 1_555 1_555
C260 C259 1_555 1_555
H317 C260 1_555 1_555
C261 C260 1_555 1_555
H318 C261 1_555 1_555
C262 C257 1_555 1_555
C263 C262 1_555 1_555
H319 C263 1_555 1_555
C264 C256 1_555 1_555
H320 C264 1_555 1_555
N73 O10 1_555 1_555
O11 N73 1_555 1_555
O12 N73 1_555 1_555
N75 O18 1_555 1_555
O19 N75 1_555 1_555
O20 N75 1_555 1_555
N77 O25 1_555 1_555
O26 N77 1_555 1_555
O27 N77 1_555 1_555
N78 O29 1_555 1_555
O30 N78 1_555 1_555
O31 N78 1_555 1_555
N79 O33 1_555 1_555
O34 N79 1_555 1_555
O35 N79 1_555 1_555
N80 O36 1_555 1_555
O37 N80 1_555 1_555
O38 N80 1_555 1_555
N83 O46 1_555 1_555
O47 N83 1_555 1_555
O48 N83 1_555 1_555
N84 O49 1_555 1_555
O50 N84 1_555 1_555
O51 N84 1_555 1_555
N85 O54 1_555 1_555
O55 N85 1_555 1_555
O56 N85 1_555 1_555
N86 O57 1_555 1_555
O58 N86 1_555 1_555
O59 N86 1_555 1_555
N87 O60 1_555 1_555
O61 N87 1_555 1_555
O62 N87 1_555 1_555
N89 O67 1_555 1_555
O68 N89 1_555 1_555
O69 N89 1_555 1_555
N91 O78 1_555 1_555
O79 N91 1_555 1_555
O80 N91 1_555 1_555
N92 O81 1_555 1_555
O82 N92 1_555 1_555
O83 N92 1_555 1_555
N95 O92 1_555 1_555
O93 N95 1_555 1_555
O94 N95 1_555 1_555
C4 C5 1_555 1_555
N4 C8 1_555 1_555
C10 C11 1_555 1_555
C12 C13 1_555 1_555
C15 C16 1_555 1_555
C17 C18 1_555 1_555
C22 C23 1_555 1_555
N10 C26 1_555 1_555
C28 C29 1_555 1_555
C30 C31 1_555 1_555
C33 C34 1_555 1_555
C35 C36 1_555 1_555
C40 C41 1_555 1_555
N16 C44 1_555 1_555
C46 C47 1_555 1_555
C48 C49 1_555 1_555
C51 C52 1_555 1_555
C53 C54 1_555 1_555
C58 C59 1_555 1_555
N22 C62 1_555 1_555
C64 C65 1_555 1_555
C66 C67 1_555 1_555
C69 C70 1_555 1_555
C71 C72 1_555 1_555
C73 C74 1_555 1_555
C79 C80 1_555 1_555
C85 C86 1_555 1_555
C91 C92 1_555 1_555
C97 C98 1_555 1_555
C103 C104 1_555 1_555
C112 C113 1_555 1_555
N40 C116 1_555 1_555
C118 C119 1_555 1_555
C120 C121 1_555 1_555
C123 C124 1_555 1_555
C125 C126 1_555 1_555
C130 C131 1_555 1_555
N46 C134 1_555 1_555
C136 C137 1_555 1_555
C138 C139 1_555 1_555
C141 C142 1_555 1_555
C143 C144 1_555 1_555
C148 C149 1_555 1_555
N51 C152 1_555 1_555
C154 C155 1_555 1_555
C156 C157 1_555 1_555
C159 C160 1_555 1_555
C161 C162 1_555 1_555
C166 C167 1_555 1_555
N58 C170 1_555 1_555
C172 C173 1_555 1_555
C174 C175 1_555 1_555
C177 C178 1_555 1_555
C179 C180 1_555 1_555
C181 C182 1_555 1_555
C187 C188 1_555 1_555
C193 C194 1_555 1_555
C199 C200 1_555 1_555
C205 C206 1_555 1_555
C211 C212 1_555 1_555
C221 C222 1_555 1_555
C225 C226 1_555 1_555
C227 C228 1_555 1_555
C233 C234 1_555 1_555
C237 C238 1_555 1_555
C239 C240 1_555 1_555
C245 C246 1_555 1_555
C249 C250 1_555 1_555
C251 C252 1_555 1_555
C257 C258 1_555 1_555
C261 C262 1_555 1_555
C263 C264 1_555 1_555

#END
