# generated using pymatgen
data_H320Pd12C278N95O96
_symmetry_space_group_name_H-M   'P 1'
_cell_length_a   27.32740000
_cell_length_b   27.59770000
_cell_length_c   32.18150000
_cell_angle_alpha   100.82400000
_cell_angle_beta   91.95300000
_cell_angle_gamma   107.37300000
_symmetry_Int_Tables_number   1
_chemical_formula_structural   H320Pd12C278N95O96
_chemical_formula_sum   'H640 Pd24 C556 N190 O192'
_cell_volume   22645.67639349
_cell_formula_units_Z   2
loop_
 _symmetry_equiv_pos_site_id
 _symmetry_equiv_pos_as_xyz
  1  'x, y, z'
loop_
 _atom_site_type_symbol
 _atom_site_label
 _atom_site_symmetry_multiplicity
 _atom_site_fract_x
 _atom_site_fract_y
 _atom_site_fract_z
 _atom_site_occupancy
  H  H1  1  0.917800  0.386300  0.258700  1
  H  H2  1  0.082200  0.613700  0.741300  1
  H  H3  1  0.915400  0.450300  0.313500  1
  H  H4  1  0.084600  0.549700  0.686500  1
  H  H5  1  0.773900  0.441000  0.263000  1
  H  H6  1  0.226100  0.559000  0.737000  1
  H  H7  1  0.782000  0.377300  0.206900  1
  H  H8  1  0.218000  0.622700  0.793100  1
  H  H9  1  0.635600  0.535800  0.314300  1
  H  H10  1  0.364400  0.464200  0.685700  1
  H  H11  1  0.706100  0.506900  0.312300  1
  H  H12  1  0.293900  0.493100  0.687700  1
  H  H13  1  0.771300  0.613300  0.418800  1
  H  H14  1  0.228700  0.386700  0.581200  1
  H  H15  1  0.699200  0.640400  0.418300  1
  H  H16  1  0.300800  0.359600  0.581700  1
  H  H17  1  0.029200  0.575100  0.456600  1
  H  H18  1  0.970800  0.424900  0.543400  1
  H  H19  1  0.965900  0.537400  0.402700  1
  H  H20  1  0.034100  0.462600  0.597300  1
  H  H21  1  0.877800  0.616000  0.466400  1
  H  H22  1  0.122200  0.384000  0.533600  1
  H  H23  1  0.945200  0.652600  0.518400  1
  H  H24  1  0.054800  0.347400  0.481600  1
  H  H25  1  0.630100  0.624600  0.269900  1
  H  H26  1  0.369900  0.375400  0.730100  1
  H  H27  1  0.692300  0.667600  0.232900  1
  H  H28  1  0.307700  0.332400  0.767100  1
  H  H29  1  0.752600  0.774700  0.340000  1
  H  H30  1  0.247400  0.225300  0.660000  1
  H  H31  1  0.688800  0.726600  0.375300  1
  H  H32  1  0.311200  0.273400  0.624700  1
  H  H33  1  0.749800  0.653500  0.071800  1
  H  H34  1  0.250200  0.346500  0.928200  1
  H  H35  1  0.747100  0.678500  0.144200  1
  H  H36  1  0.252900  0.321500  0.855800  1
  H  H37  1  0.875700  0.799700  0.145500  1
  H  H38  1  0.124300  0.200300  0.854500  1
  H  H39  1  0.873200  0.773100  0.072100  1
  H  H40  1  0.126800  0.226900  0.927900  1
  H  H41  1  0.978500  0.966500  0.267000  1
  H  H42  1  0.021500  0.033500  0.733000  1
  H  H43  1  0.918200  0.889100  0.231200  1
  H  H44  1  0.081800  0.110900  0.768800  1
  H  H45  1  0.853800  0.870800  0.340000  1
  H  H46  1  0.146200  0.129200  0.660000  1
  H  H47  1  0.913800  0.948800  0.373800  1
  H  H48  1  0.086200  0.051200  0.626200  1
  H  H49  1  0.825300  0.377400  0.119200  1
  H  H50  1  0.174700  0.622600  0.880800  1
  H  H51  1  0.865000  0.451100  0.091700  1
  H  H52  1  0.135000  0.548900  0.908300  1
  H  H53  1  0.000600  0.457600  0.150200  1
  H  H54  1  0.999400  0.542400  0.849800  1
  H  H55  1  0.959700  0.383000  0.173000  1
  H  H56  1  0.040300  0.617000  0.827000  1
  H  H57  1  0.803400  0.582500  0.018700  1
  H  H58  1  0.196600  0.417500  0.981300  1
  H  H59  1  0.852500  0.542400  0.049000  1
  H  H60  1  0.147500  0.457600  0.951000  1
  H  H61  1  0.976600  0.666100  0.049500  1
  H  H62  1  0.023400  0.333900  0.950500  1
  H  H63  1  0.923500  0.703500  0.019300  1
  H  H64  1  0.076500  0.296500  0.980700  1
  H  H65  1  0.169300  0.721800  0.118900  1
  H  H66  1  0.830700  0.278200  0.881100  1
  H  H67  1  0.084000  0.673600  0.094900  1
  H  H68  1  0.916000  0.326400  0.905100  1
  H  H69  1  0.102900  0.560100  0.149400  1
  H  H70  1  0.897100  0.439900  0.850600  1
  H  H71  1  0.185100  0.610400  0.174700  1
  H  H72  1  0.814900  0.389600  0.825300  1
  H  H73  1  0.013000  0.954000  0.415700  1
  H  H74  1  0.987000  0.046000  0.584300  1
  H  H75  1  0.045700  0.887000  0.419200  1
  H  H76  1  0.954300  0.113000  0.580800  1
  H  H77  1  0.116600  0.912800  0.313400  1
  H  H78  1  0.883400  0.087200  0.686600  1
  H  H79  1  0.083300  0.980000  0.312800  1
  H  H80  1  0.916700  0.020000  0.687200  1
  H  H81  1  0.044800  0.754300  0.519000  1
  H  H82  1  0.955200  0.245700  0.481000  1
  H  H83  1  0.063200  0.800100  0.465100  1
  H  H84  1  0.936800  0.199900  0.534900  1
  H  H85  1  0.138600  0.702900  0.411400  1
  H  H86  1  0.861400  0.297100  0.588600  1
  H  H87  1  0.120500  0.658900  0.468200  1
  H  H88  1  0.879500  0.341100  0.531800  1
  H  H89  1  0.228200  0.689800  0.263000  1
  H  H90  1  0.771800  0.310200  0.737000  1
  H  H91  1  0.189200  0.717700  0.321500  1
  H  H92  1  0.810800  0.282300  0.678500  1
  H  H93  1  0.157900  0.822500  0.261700  1
  H  H94  1  0.842100  0.177500  0.738300  1
  H  H95  1  0.202100  0.797100  0.206400  1
  H  H96  1  0.797900  0.202900  0.793600  1
  H  H97  1  0.366700  0.707300  0.130500  1
  H  H98  1  0.633300  0.292700  0.869500  1
  H  H99  1  0.352900  0.755300  0.118500  1
  H  H100  1  0.647100  0.244700  0.881500  1
  H  H101  1  0.384700  0.790800  0.173700  1
  H  H102  1  0.615300  0.209200  0.826300  1
  H  H103  1  0.381900  0.738700  0.189100  1
  H  H104  1  0.618100  0.261300  0.810900  1
  H  H105  1  0.312100  0.637700  0.097000  1
  H  H106  1  0.687900  0.362300  0.903000  1
  H  H107  1  0.254300  0.623000  0.110100  1
  H  H108  1  0.745700  0.377000  0.889900  1
  H  H109  1  0.301600  0.636900  0.145500  1
  H  H110  1  0.698400  0.363100  0.854500  1
  H  H111  1  0.268100  0.746200  0.094300  1
  H  H112  1  0.731900  0.253800  0.905700  1
  H  H113  1  0.236900  0.686100  0.077700  1
  H  H114  1  0.763100  0.313900  0.922300  1
  H  H115  1  0.294000  0.709100  0.064900  1
  H  H116  1  0.706000  0.290900  0.935100  1
  H  H117  1  0.369700  0.787400  0.260700  1
  H  H118  1  0.630300  0.212600  0.739300  1
  H  H119  1  0.346600  0.725800  0.244400  1
  H  H120  1  0.653400  0.274200  0.755600  1
  H  H121  1  0.310400  0.758300  0.264600  1
  H  H122  1  0.689600  0.241700  0.735400  1
  H  H123  1  0.356200  0.844700  0.230000  1
  H  H124  1  0.643800  0.155300  0.770000  1
  H  H125  1  0.296100  0.827500  0.214600  1
  H  H126  1  0.703900  0.172500  0.785400  1
  H  H127  1  0.337500  0.831900  0.180400  1
  H  H128  1  0.662500  0.168100  0.819600  1
  H  H129  1  0.486200  0.565100  0.377000  1
  H  H130  1  0.513800  0.434900  0.623000  1
  H  H131  1  0.499100  0.594100  0.425500  1
  H  H132  1  0.500900  0.405900  0.574500  1
  H  H133  1  0.513300  0.662900  0.413100  1
  H  H134  1  0.486700  0.337100  0.586900  1
  H  H135  1  0.474900  0.630100  0.372300  1
  H  H136  1  0.525100  0.369900  0.627700  1
  H  H137  1  0.578000  0.517700  0.381900  1
  H  H138  1  0.422000  0.482300  0.618100  1
  H  H139  1  0.534300  0.522200  0.349800  1
  H  H140  1  0.465700  0.477800  0.650200  1
  H  H141  1  0.520500  0.508600  0.395000  1
  H  H142  1  0.479500  0.491400  0.605000  1
  H  H143  1  0.560100  0.571900  0.458800  1
  H  H144  1  0.439900  0.428100  0.541200  1
  H  H145  1  0.581800  0.631700  0.455700  1
  H  H146  1  0.418200  0.368300  0.544300  1
  H  H147  1  0.616600  0.594300  0.444600  1
  H  H148  1  0.383400  0.405700  0.555400  1
  H  H149  1  0.497200  0.663700  0.315900  1
  H  H150  1  0.502800  0.336300  0.684100  1
  H  H151  1  0.522200  0.618400  0.301600  1
  H  H152  1  0.477800  0.381600  0.698400  1
  H  H153  1  0.553900  0.677100  0.300500  1
  H  H154  1  0.446100  0.322900  0.699500  1
  H  H155  1  0.589500  0.734600  0.354300  1
  H  H156  1  0.410500  0.265400  0.645700  1
  H  H157  1  0.588900  0.723700  0.401400  1
  H  H158  1  0.411100  0.276300  0.598600  1
  H  H159  1  0.538800  0.730200  0.378800  1
  H  H160  1  0.461200  0.269800  0.621200  1
  H  H161  1  0.059000  0.599200  0.635700  1
  H  H162  1  0.941000  0.400800  0.364300  1
  H  H163  1  0.094300  0.593800  0.597500  1
  H  H164  1  0.905700  0.406200  0.402500  1
  H  H165  1  0.131600  0.673200  0.641000  1
  H  H166  1  0.868400  0.326800  0.359000  1
  H  H167  1  0.078400  0.686500  0.639900  1
  H  H168  1  0.921600  0.313500  0.360100  1
  H  H169  1  0.954500  0.611000  0.579200  1
  H  H170  1  0.045500  0.389000  0.420800  1
  H  H171  1  0.993900  0.650500  0.617400  1
  H  H172  1  0.006100  0.349500  0.382600  1
  H  H173  1  0.970800  0.590400  0.619200  1
  H  H174  1  0.029200  0.409600  0.380800  1
  H  H175  1  0.003400  0.526600  0.577600  1
  H  H176  1  0.996600  0.473400  0.422400  1
  H  H177  1  0.035200  0.541900  0.538600  1
  H  H178  1  0.964800  0.458100  0.461400  1
  H  H179  1  0.976500  0.541300  0.539000  1
  H  H180  1  0.023500  0.458700  0.461000  1
  H  H181  1  0.090100  0.755000  0.601700  1
  H  H182  1  0.909900  0.245000  0.398300  1
  H  H183  1  0.136000  0.763500  0.571700  1
  H  H184  1  0.864000  0.236500  0.428300  1
  H  H185  1  0.147600  0.763600  0.620800  1
  H  H186  1  0.852400  0.236400  0.379200  1
  H  H187  1  0.174300  0.700600  0.547700  1
  H  H188  1  0.825700  0.299400  0.452300  1
  H  H189  1  0.153300  0.643300  0.556900  1
  H  H190  1  0.846700  0.356700  0.443100  1
  H  H191  1  0.188200  0.690000  0.593200  1
  H  H192  1  0.811800  0.310000  0.406800  1
  H  H193  1  0.071000  0.165500  0.408500  1
  H  H194  1  0.929000  0.834500  0.591500  1
  H  H195  1  0.066700  0.142800  0.358400  1
  H  H196  1  0.933300  0.857200  0.641600  1
  H  H197  1  0.990400  0.157000  0.374700  1
  H  H198  1  0.009600  0.843000  0.625300  1
  H  H199  1  0.985300  0.123800  0.411100  1
  H  H200  1  0.014700  0.876200  0.588900  1
  H  H201  1  0.089000  0.115200  0.457800  1
  H  H202  1  0.911000  0.884800  0.542200  1
  H  H203  1  0.070600  0.053200  0.444700  1
  H  H204  1  0.929400  0.946800  0.555300  1
  H  H205  1  0.028800  0.083500  0.449200  1
  H  H206  1  0.971200  0.916500  0.550800  1
  H  H207  1  0.141500  0.126600  0.391500  1
  H  H208  1  0.858500  0.873400  0.608500  1
  H  H209  1  0.117800  0.080300  0.351200  1
  H  H210  1  0.882200  0.919700  0.648800  1
  H  H211  1  0.131600  0.067600  0.395800  1
  H  H212  1  0.868400  0.932400  0.604200  1
  H  H213  1  0.901400  0.092200  0.358100  1
  H  H214  1  0.098600  0.907800  0.641900  1
  H  H215  1  0.914100  0.058700  0.390200  1
  H  H216  1  0.085900  0.941300  0.609800  1
  H  H217  1  0.895700  0.032300  0.341200  1
  H  H218  1  0.104300  0.967700  0.658800  1
  H  H219  1  0.946400  0.057100  0.287700  1
  H  H220  1  0.053600  0.942900  0.712300  1
  H  H221  1  0.005100  0.093100  0.297700  1
  H  H222  1  0.994900  0.906900  0.702300  1
  H  H223  1  0.959600  0.118100  0.305600  1
  H  H224  1  0.040400  0.881900  0.694400  1
  H  H225  1  0.784700  0.204500  0.130500  1
  H  H226  1  0.215300  0.795500  0.869500  1
  H  H227  1  0.831800  0.181100  0.125900  1
  H  H228  1  0.168200  0.818900  0.874100  1
  H  H229  1  0.859100  0.211200  0.195700  1
  H  H230  1  0.140900  0.788800  0.804300  1
  H  H231  1  0.798700  0.180500  0.192000  1
  H  H232  1  0.201300  0.819500  0.808000  1
  H  H233  1  0.848500  0.245500  0.065800  1
  H  H234  1  0.151500  0.754500  0.934200  1
  H  H235  1  0.844500  0.301200  0.087200  1
  H  H236  1  0.155500  0.698800  0.912800  1
  H  H237  1  0.796300  0.250300  0.084500  1
  H  H238  1  0.203700  0.749700  0.915500  1
  H  H239  1  0.740500  0.216800  0.207500  1
  H  H240  1  0.259500  0.783200  0.792500  1
  H  H241  1  0.749400  0.261900  0.181100  1
  H  H242  1  0.250600  0.738100  0.818900  1
  H  H243  1  0.751800  0.275700  0.231900  1
  H  H244  1  0.248200  0.724300  0.768100  1
  H  H245  1  0.821300  0.291900  0.273400  1
  H  H246  1  0.178700  0.708100  0.726600  1
  H  H247  1  0.872500  0.280200  0.258100  1
  H  H248  1  0.127500  0.719800  0.741900  1
  H  H249  1  0.823600  0.233700  0.264300  1
  H  H250  1  0.176400  0.766300  0.735700  1
  H  H251  1  0.919200  0.251800  0.153800  1
  H  H252  1  0.080800  0.748200  0.846200  1
  H  H253  1  0.926400  0.287800  0.119300  1
  H  H254  1  0.073600  0.712200  0.880700  1
  H  H255  1  0.904100  0.226000  0.104400  1
  H  H256  1  0.095900  0.774000  0.895600  1
  H  H257  1  0.808800  0.711900  0.901700  1
  H  H258  1  0.191200  0.288100  0.098300  1
  H  H259  1  0.760600  0.660400  0.892600  1
  H  H260  1  0.239400  0.339600  0.107400  1
  H  H261  1  0.716800  0.694200  0.932300  1
  H  H262  1  0.283200  0.305800  0.067700  1
  H  H263  1  0.758200  0.747800  0.929200  1
  H  H264  1  0.241800  0.252200  0.070800  1
  H  H265  1  0.752900  0.596500  0.929200  1
  H  H266  1  0.247100  0.403500  0.070800  1
  H  H267  1  0.806700  0.589000  0.942400  1
  H  H268  1  0.193300  0.411000  0.057600  1
  H  H269  1  0.794000  0.595100  0.895100  1
  H  H270  1  0.206000  0.404900  0.104900  1
  H  H271  1  0.879700  0.647500  0.930800  1
  H  H272  1  0.120300  0.352500  0.069200  1
  H  H273  1  0.885000  0.707900  0.938300  1
  H  H274  1  0.115000  0.292100  0.061700  1
  H  H275  1  0.861500  0.670600  0.893100  1
  H  H276  1  0.138500  0.329400  0.106900  1
  H  H277  1  0.696400  0.739200  0.002500  1
  H  H278  1  0.303600  0.260800  0.997500  1
  H  H279  1  0.719500  0.710700  0.033500  1
  H  H280  1  0.280500  0.289300  0.966500  1
  H  H281  1  0.692000  0.679300  0.987400  1
  H  H282  1  0.308000  0.320700  0.012600  1
  H  H283  1  0.822900  0.795100  0.997500  1
  H  H284  1  0.177100  0.204900  0.002500  1
  H  H285  1  0.778900  0.794800  0.029100  1
  H  H286  1  0.221100  0.205200  0.970900  1
  H  H287  1  0.769600  0.801600  0.981400  1
  H  H288  1  0.230400  0.198400  0.018600  1
  H  H289  1  0.309000  0.276700  0.292700  1
  H  H290  1  0.691000  0.723300  0.707300  1
  H  H291  1  0.343200  0.274300  0.227200  1
  H  H292  1  0.656800  0.725700  0.772800  1
  H  H293  1  0.426800  0.267800  0.219300  1
  H  H294  1  0.573200  0.732200  0.780700  1
  H  H295  1  0.320800  0.276900  0.373700  1
  H  H296  1  0.679200  0.723100  0.626300  1
  H  H297  1  0.378300  0.270400  0.425300  1
  H  H298  1  0.621700  0.729600  0.574700  1
  H  H299  1  0.462100  0.272400  0.417000  1
  H  H300  1  0.537900  0.727600  0.583000  1
  H  H301  1  0.538100  0.264200  0.344200  1
  H  H302  1  0.461900  0.735800  0.655800  1
  H  H303  1  0.518900  0.259600  0.266600  1
  H  H304  1  0.481100  0.740400  0.733400  1
  H  H305  1  0.319000  0.178300  0.234100  1
  H  H306  1  0.681000  0.821700  0.765900  1
  H  H307  1  0.301000  0.136400  0.162500  1
  H  H308  1  0.699000  0.863600  0.837500  1
  H  H309  1  0.301600  0.054200  0.132900  1
  H  H310  1  0.698400  0.945800  0.867100  1
  H  H311  1  0.347800  0.166300  0.311600  1
  H  H312  1  0.652200  0.833700  0.688400  1
  H  H313  1  0.371300  0.112000  0.347100  1
  H  H314  1  0.628700  0.888000  0.652900  1
  H  H315  1  0.361700  0.025500  0.317200  1
  H  H316  1  0.638300  0.974500  0.682800  1
  H  H317  1  0.358200  0.948900  0.224700  1
  H  H318  1  0.641800  0.051100  0.775300  1
  H  H319  1  0.314400  0.959000  0.158100  1
  H  H320  1  0.685600  0.041000  0.841900  1
  H  H321  1  0.604600  0.148800  0.228700  1
  H  H322  1  0.395400  0.851200  0.771300  1
  H  H323  1  0.646000  0.231700  0.216700  1
  H  H324  1  0.354000  0.768300  0.783300  1
  H  H325  1  0.606600  0.282900  0.186400  1
  H  H326  1  0.393400  0.717100  0.813600  1
  H  H327  1  0.510600  0.076300  0.224500  1
  H  H328  1  0.489400  0.923700  0.775500  1
  H  H329  1  0.426200  0.049600  0.198400  1
  H  H330  1  0.573800  0.950400  0.801600  1
  H  H331  1  0.387700  0.101200  0.167600  1
  H  H332  1  0.612300  0.898800  0.832400  1
  H  H333  1  0.415300  0.215000  0.143100  1
  H  H334  1  0.584700  0.785000  0.856900  1
  H  H335  1  0.501200  0.281500  0.155200  1
  H  H336  1  0.498800  0.718500  0.844800  1
  H  H337  1  0.981100  0.531900  0.249000  1
  H  H338  1  0.018900  0.468100  0.751000  1
  H  H339  1  0.894500  0.496800  0.221600  1
  H  H340  1  0.105500  0.503200  0.778400  1
  H  H341  1  0.847500  0.531600  0.181800  1
  H  H342  1  0.152500  0.468400  0.818200  1
  H  H343  1  0.066300  0.613500  0.248500  1
  H  H344  1  0.933700  0.386500  0.751500  1
  H  H345  1  0.095000  0.693200  0.232000  1
  H  H346  1  0.905000  0.306800  0.768000  1
  H  H347  1  0.049500  0.724500  0.187700  1
  H  H348  1  0.950500  0.275500  0.812300  1
  H  H349  1  0.936900  0.704200  0.141400  1
  H  H350  1  0.063100  0.295800  0.858600  1
  H  H351  1  0.859100  0.626900  0.142200  1
  H  H352  1  0.140900  0.373100  0.857800  1
  H  H353  1  0.242300  0.042400  0.031400  1
  H  H354  1  0.757700  0.957600  0.968600  1
  H  H355  1  0.327400  0.089800  0.042600  1
  H  H356  1  0.672600  0.910200  0.957400  1
  H  H357  1  0.350100  0.961900  0.081700  1
  H  H358  1  0.649900  0.038100  0.918300  1
  H  H359  1  0.260500  0.926700  0.073000  1
  H  H360  1  0.739500  0.073300  0.927000  1
  H  H361  1  0.633500  0.055200  0.147600  1
  H  H362  1  0.366500  0.944800  0.852400  1
  H  H363  1  0.583900  0.091300  0.115800  1
  H  H364  1  0.416100  0.908700  0.884200  1
  H  H365  1  0.460700  0.970700  0.116900  1
  H  H366  1  0.539300  0.029300  0.883100  1
  H  H367  1  0.511200  0.930900  0.148100  1
  H  H368  1  0.488800  0.069100  0.851900  1
  H  H369  1  0.603200  0.274300  0.074300  1
  H  H370  1  0.396800  0.725700  0.925700  1
  H  H371  1  0.572600  0.187500  0.083300  1
  H  H372  1  0.427400  0.812500  0.916700  1
  H  H373  1  0.429300  0.191000  0.042800  1
  H  H374  1  0.570700  0.809000  0.957200  1
  H  H375  1  0.467600  0.277100  0.036200  1
  H  H376  1  0.532400  0.722900  0.963800  1
  H  H377  1  0.214700  0.317700  0.364800  1
  H  H378  1  0.785300  0.682300  0.635200  1
  H  H379  1  0.212700  0.231600  0.356000  1
  H  H380  1  0.787300  0.768400  0.644000  1
  H  H381  1  0.201900  0.220600  0.229600  1
  H  H382  1  0.798100  0.779400  0.770400  1
  H  H383  1  0.203700  0.306500  0.241000  1
  H  H384  1  0.796300  0.693500  0.759000  1
  H  H385  1  0.266300  0.107900  0.448700  1
  H  H386  1  0.733700  0.892100  0.551300  1
  H  H387  1  0.247700  0.142700  0.393600  1
  H  H388  1  0.752300  0.857300  0.606400  1
  H  H389  1  0.213900  0.999300  0.315800  1
  H  H390  1  0.786100  0.000700  0.684200  1
  H  H391  1  0.229100  0.967200  0.375500  1
  H  H392  1  0.770900  0.032800  0.624500  1
  H  H393  1  0.166000  0.058000  0.100600  1
  H  H394  1  0.834000  0.942000  0.899400  1
  H  H395  1  0.182800  0.108300  0.166600  1
  H  H396  1  0.817200  0.891700  0.833400  1
  H  H397  1  0.200900  0.988800  0.213800  1
  H  H398  1  0.799100  0.011200  0.786200  1
  H  H399  1  0.188200  0.940100  0.144100  1
  H  H400  1  0.811800  0.059900  0.855900  1
  H  H401  1  0.583400  0.314400  0.481000  1
  H  H402  1  0.416600  0.685600  0.519000  1
  H  H403  1  0.536500  0.229000  0.454100  1
  H  H404  1  0.463500  0.771000  0.545900  1
  H  H405  1  0.639800  0.223900  0.366700  1
  H  H406  1  0.360200  0.776100  0.633300  1
  H  H407  1  0.685400  0.310200  0.396600  1
  H  H408  1  0.314600  0.689800  0.603400  1
  H  H409  1  0.364100  0.099800  0.479100  1
  H  H410  1  0.635900  0.900200  0.520900  1
  H  H411  1  0.441000  0.132800  0.453700  1
  H  H412  1  0.559000  0.867200  0.546300  1
  H  H413  1  0.414700  0.999300  0.369200  1
  H  H414  1  0.585300  0.000700  0.630800  1
  H  H415  1  0.339400  0.964200  0.400300  1
  H  H416  1  0.660600  0.035800  0.599700  1
  H  H417  1  0.534300  0.945100  0.242400  1
  H  H418  1  0.465700  0.054900  0.757600  1
  H  H419  1  0.500000  0.989500  0.300400  1
  H  H420  1  0.500000  0.010500  0.699600  1
  H  H421  1  0.626900  0.113600  0.300900  1
  H  H422  1  0.373100  0.886400  0.699100  1
  H  H423  1  0.653900  0.065600  0.248200  1
  H  H424  1  0.346100  0.934400  0.751800  1
  H  H425  1  0.310900  0.416000  0.368700  1
  H  H426  1  0.689100  0.584000  0.631300  1
  H  H427  1  0.395300  0.414900  0.360300  1
  H  H428  1  0.604700  0.585100  0.639700  1
  H  H429  1  0.368100  0.402500  0.234700  1
  H  H430  1  0.631900  0.597500  0.765300  1
  H  H431  1  0.285400  0.403300  0.245500  1
  H  H432  1  0.714600  0.596700  0.754500  1
  H  H433  1  0.673600  0.406300  0.372500  1
  H  H434  1  0.326400  0.593700  0.627500  1
  H  H435  1  0.617900  0.404800  0.317600  1
  H  H436  1  0.382100  0.595200  0.682400  1
  H  H437  1  0.507900  0.404100  0.399000  1
  H  H438  1  0.492100  0.595900  0.601000  1
  H  H439  1  0.566400  0.404500  0.451500  1
  H  H440  1  0.433600  0.595500  0.548500  1
  H  H441  1  0.474200  0.365400  0.103100  1
  H  H442  1  0.525800  0.634600  0.896900  1
  H  H443  1  0.450500  0.385200  0.171100  1
  H  H444  1  0.549500  0.614800  0.828900  1
  H  H445  1  0.587600  0.379100  0.218200  1
  H  H446  1  0.412400  0.620900  0.781800  1
  H  H447  1  0.610300  0.366900  0.147700  1
  H  H448  1  0.389700  0.633100  0.852300  1
  H  H449  1  0.655900  0.398000  0.000200  1
  H  H450  1  0.344100  0.602000  0.999800  1
  H  H451  1  0.615200  0.393900  0.962000  1
  H  H452  1  0.384800  0.606100  0.038000  1
  H  H453  1  0.579600  0.437600  0.997200  1
  H  H454  1  0.420400  0.562400  0.002800  1
  H  H455  1  0.639100  0.464500  0.012600  1
  H  H456  1  0.360900  0.535500  0.987400  1
  H  H457  1  0.611400  0.294000  0.017200  1
  H  H458  1  0.388600  0.706000  0.982800  1
  H  H459  1  0.657300  0.338500  0.004300  1
  H  H460  1  0.342700  0.661500  0.995700  1
  H  H461  1  0.616800  0.296400  0.968200  1
  H  H462  1  0.383200  0.703600  0.031800  1
  H  H463  1  0.556800  0.313700  0.941400  1
  H  H464  1  0.443200  0.686300  0.058600  1
  H  H465  1  0.528800  0.352000  0.966600  1
  H  H466  1  0.471200  0.648000  0.033400  1
  H  H467  1  0.522000  0.296700  0.978500  1
  H  H468  1  0.478000  0.703300  0.021500  1
  H  H469  1  0.664900  0.493800  0.090700  1
  H  H470  1  0.335100  0.506200  0.909300  1
  H  H471  1  0.667900  0.435900  0.085000  1
  H  H472  1  0.332100  0.564100  0.915000  1
  H  H473  1  0.639200  0.458200  0.123000  1
  H  H474  1  0.360800  0.541800  0.877000  1
  H  H475  1  0.549800  0.470000  0.101000  1
  H  H476  1  0.450200  0.530000  0.899000  1
  H  H477  1  0.526300  0.447500  0.052500  1
  H  H478  1  0.473700  0.552500  0.947500  1
  H  H479  1  0.572300  0.501100  0.065000  1
  H  H480  1  0.427700  0.498900  0.935000  1
  H  H481  1  0.764400  0.511800  0.534700  1
  H  H482  1  0.235600  0.488200  0.465300  1
  H  H483  1  0.712900  0.479300  0.551200  1
  H  H484  1  0.287100  0.520700  0.448800  1
  H  H485  1  0.767500  0.438900  0.558700  1
  H  H486  1  0.232500  0.561100  0.441300  1
  H  H487  1  0.787500  0.443900  0.513000  1
  H  H488  1  0.212500  0.556100  0.487000  1
  H  H489  1  0.717600  0.502500  0.434100  1
  H  H490  1  0.282400  0.497500  0.565900  1
  H  H491  1  0.758700  0.475800  0.447200  1
  H  H492  1  0.241300  0.524200  0.552800  1
  H  H493  1  0.761500  0.532600  0.472300  1
  H  H494  1  0.238500  0.467400  0.527700  1
  H  H495  1  0.685800  0.538700  0.509200  1
  H  H496  1  0.314200  0.461300  0.490800  1
  H  H497  1  0.644700  0.485600  0.514400  1
  H  H498  1  0.355300  0.514400  0.485600  1
  H  H499  1  0.649000  0.501000  0.468800  1
  H  H500  1  0.351000  0.499000  0.531200  1
  H  H501  1  0.771400  0.371600  0.471300  1
  H  H502  1  0.228600  0.628400  0.528700  1
  H  H503  1  0.729900  0.320600  0.479900  1
  H  H504  1  0.270100  0.679400  0.520100  1
  H  H505  1  0.775300  0.354700  0.515900  1
  H  H506  1  0.224700  0.645300  0.484100  1
  H  H507  1  0.666200  0.330900  0.531400  1
  H  H508  1  0.333800  0.669100  0.468600  1
  H  H509  1  0.670500  0.388400  0.555700  1
  H  H510  1  0.329500  0.611600  0.444300  1
  H  H511  1  0.714000  0.363100  0.565700  1
  H  H512  1  0.286000  0.636900  0.434300  1
  H  H513  1  0.160600  0.508100  0.321500  1
  H  H514  1  0.839400  0.491900  0.678500  1
  H  H515  1  0.153800  0.466800  0.277700  1
  H  H516  1  0.846200  0.533200  0.722300  1
  H  H517  1  0.134700  0.442400  0.358600  1
  H  H518  1  0.865300  0.557600  0.641400  1
  H  H519  1  0.091800  0.431900  0.319800  1
  H  H520  1  0.908200  0.568100  0.680200  1
  H  H521  1  0.274200  0.498500  0.365300  1
  H  H522  1  0.725800  0.501500  0.634700  1
  H  H523  1  0.217400  0.483600  0.380500  1
  H  H524  1  0.782600  0.516400  0.619500  1
  H  H525  1  0.240200  0.536600  0.364300  1
  H  H526  1  0.759800  0.463400  0.635700  1
  H  H527  1  0.250000  0.536000  0.291500  1
  H  H528  1  0.750000  0.464000  0.708500  1
  H  H529  1  0.236200  0.482200  0.257600  1
  H  H530  1  0.763800  0.517800  0.742400  1
  H  H531  1  0.285500  0.499300  0.291600  1
  H  H532  1  0.714500  0.500700  0.708400  1
  H  H533  1  0.121300  0.359100  0.367100  1
  H  H534  1  0.878700  0.640900  0.632900  1
  H  H535  1  0.119000  0.312600  0.328200  1
  H  H536  1  0.881000  0.687400  0.671800  1
  H  H537  1  0.072200  0.336300  0.332600  1
  H  H538  1  0.927800  0.663700  0.667400  1
  H  H539  1  0.076500  0.361600  0.260100  1
  H  H540  1  0.923500  0.638400  0.739900  1
  H  H541  1  0.109900  0.322600  0.256500  1
  H  H542  1  0.890100  0.677400  0.743500  1
  H  H543  1  0.132800  0.378000  0.244200  1
  H  H544  1  0.867200  0.622000  0.755800  1
  H  H545  1  0.650500  0.858200  0.141500  1
  H  H546  1  0.349500  0.141800  0.858500  1
  H  H547  1  0.705300  0.896800  0.137900  1
  H  H548  1  0.294700  0.103200  0.862100  1
  H  H549  1  0.725300  0.912600  0.201800  1
  H  H550  1  0.274700  0.087400  0.798200  1
  H  H551  1  0.677700  0.862300  0.201900  1
  H  H552  1  0.322300  0.137700  0.798100  1
  H  H553  1  0.574400  0.896800  0.097000  1
  H  H554  1  0.425600  0.103200  0.903000  1
  H  H555  1  0.583400  0.858700  0.126200  1
  H  H556  1  0.416600  0.141300  0.873800  1
  H  H557  1  0.609500  0.860700  0.082500  1
  H  H558  1  0.390500  0.139300  0.917500  1
  H  H559  1  0.703200  0.983800  0.128500  1
  H  H560  1  0.296800  0.016200  0.871500  1
  H  H561  1  0.652500  0.974200  0.097700  1
  H  H562  1  0.347500  0.025800  0.902300  1
  H  H563  1  0.688800  0.938400  0.086900  1
  H  H564  1  0.311200  0.061600  0.913100  1
  H  H565  1  0.597400  0.882400  0.239700  1
  H  H566  1  0.402600  0.117600  0.760300  1
  H  H567  1  0.624400  0.926400  0.280800  1
  H  H568  1  0.375600  0.073600  0.719200  1
  H  H569  1  0.646800  0.879200  0.265800  1
  H  H570  1  0.353200  0.120800  0.734200  1
  H  H571  1  0.696600  0.992600  0.283400  1
  H  H572  1  0.303400  0.007400  0.716600  1
  H  H573  1  0.716300  0.007300  0.239800  1
  H  H574  1  0.283700  0.992700  0.760200  1
  H  H575  1  0.738200  0.969000  0.260900  1
  H  H576  1  0.261800  0.031000  0.739100  1
  H  H577  1  0.111300  0.846600  0.997400  1
  H  H578  1  0.888700  0.153400  0.002600  1
  H  H579  1  0.094900  0.868500  0.958500  1
  H  H580  1  0.905100  0.131500  0.041500  1
  H  H581  1  0.041000  0.862700  0.012300  1
  H  H582  1  0.959000  0.137300  0.987700  1
  H  H583  1  0.058200  0.916800  0.997500  1
  H  H584  1  0.941800  0.083200  0.002500  1
  H  H585  1  0.141900  0.927500  0.933500  1
  H  H586  1  0.858100  0.072500  0.066500  1
  H  H587  1  0.196900  0.963000  0.957100  1
  H  H588  1  0.803100  0.037000  0.042900  1
  H  H589  1  0.145800  0.976100  0.970900  1
  H  H590  1  0.854200  0.023900  0.029100  1
  H  H591  1  0.177300  0.847600  0.980000  1
  H  H592  1  0.822700  0.152400  0.020000  1
  H  H593  1  0.219400  0.895200  0.010800  1
  H  H594  1  0.780600  0.104800  0.989200  1
  H  H595  1  0.212600  0.894400  0.961000  1
  H  H596  1  0.787400  0.105600  0.039000  1
  H  H597  1  0.026200  0.945300  0.062200  1
  H  H598  1  0.973800  0.054700  0.937800  1
  H  H599  1  0.076800  0.988600  0.054200  1
  H  H600  1  0.923200  0.011400  0.945800  1
  H  H601  1  0.070300  0.975200  0.100400  1
  H  H602  1  0.929700  0.024800  0.899600  1
  H  H603  1  0.094200  0.906600  0.119900  1
  H  H604  1  0.905800  0.093400  0.880100  1
  H  H605  1  0.094100  0.858600  0.083100  1
  H  H606  1  0.905900  0.141400  0.916900  1
  H  H607  1  0.041400  0.870800  0.092700  1
  H  H608  1  0.958600  0.129200  0.907300  1
  H  H609  1  0.236200  0.916100  0.516600  1
  H  H610  1  0.763800  0.083900  0.483400  1
  H  H611  1  0.258200  0.950900  0.562800  1
  H  H612  1  0.741800  0.049100  0.437200  1
  H  H613  1  0.179500  0.955800  0.538400  1
  H  H614  1  0.820500  0.044200  0.461600  1
  H  H615  1  0.223200  0.010800  0.552400  1
  H  H616  1  0.776800  0.989200  0.447600  1
  H  H617  1  0.359200  0.957900  0.488000  1
  H  H618  1  0.640800  0.042100  0.512000  1
  H  H619  1  0.304400  0.914100  0.475700  1
  H  H620  1  0.695600  0.085900  0.524300  1
  H  H621  1  0.334100  0.924200  0.521700  1
  H  H622  1  0.665900  0.075800  0.478300  1
  H  H623  1  0.341100  0.008800  0.571000  1
  H  H624  1  0.658900  0.991200  0.429000  1
  H  H625  1  0.317700  0.048200  0.552900  1
  H  H626  1  0.682300  0.951800  0.447100  1
  H  H627  1  0.366600  0.035200  0.533500  1
  H  H628  1  0.633400  0.964800  0.466500  1
  H  H629  1  0.183800  0.921300  0.448600  1
  H  H630  1  0.816200  0.078700  0.551400  1
  H  H631  1  0.148800  0.957300  0.442600  1
  H  H632  1  0.851200  0.042700  0.557400  1
  H  H633  1  0.141400  0.926700  0.480700  1
  H  H634  1  0.858600  0.073300  0.519300  1
  H  H635  1  0.151500  0.021400  0.511500  1
  H  H636  1  0.848500  0.978600  0.488500  1
  H  H637  1  0.172400  0.035900  0.468200  1
  H  H638  1  0.827600  0.964100  0.531800  1
  H  H639  1  0.207400  0.062100  0.512300  1
  H  H640  1  0.792600  0.937900  0.487700  1
  Pd  Pd641  1  0.254750  0.718630  0.178120  1
  Pd  Pd642  1  0.745250  0.281370  0.821880  1
  Pd  Pd643  1  0.606250  0.626780  0.361030  1
  Pd  Pd644  1  0.393750  0.373220  0.638970  1
  Pd  Pd645  1  0.053250  0.654230  0.538610  1
  Pd  Pd646  1  0.946750  0.345770  0.461390  1
  Pd  Pd647  1  0.008010  0.025870  0.357890  1
  Pd  Pd648  1  0.991990  0.974130  0.642110  1
  Pd  Pd649  1  0.851970  0.317580  0.179800  1
  Pd  Pd650  1  0.148030  0.682420  0.820200  1
  Pd  Pd651  1  0.811170  0.687170  0.002020  1
  Pd  Pd652  1  0.188830  0.312830  0.997980  1
  Pd  Pd653  1  0.567340  0.358900  0.060350  1
  Pd  Pd654  1  0.432660  0.641100  0.939650  1
  Pd  Pd655  1  0.672220  0.396760  0.463240  1
  Pd  Pd656  1  0.327780  0.603240  0.536760  1
  Pd  Pd657  1  0.213300  0.395820  0.310240  1
  Pd  Pd658  1  0.786700  0.604180  0.689760  1
  Pd  Pd659  1  0.620240  0.960070  0.191290  1
  Pd  Pd660  1  0.379760  0.039930  0.808710  1
  Pd  Pd661  1  0.166360  0.953330  0.056790  1
  Pd  Pd662  1  0.833640  0.046670  0.943210  1
  Pd  Pd663  1  0.274900  0.006620  0.465490  1
  Pd  Pd664  1  0.725100  0.993380  0.534510  1
  C  C665  1  0.888400  0.398000  0.259600  1
  C  C666  1  0.111600  0.602000  0.740400  1
  C  C667  1  0.887400  0.435800  0.292000  1
  C  C668  1  0.112600  0.564200  0.708000  1
  C  C669  1  0.845000  0.453800  0.294100  1
  C  C670  1  0.155000  0.546200  0.705900  1
  C  C671  1  0.804100  0.430700  0.262200  1
  C  C672  1  0.195900  0.569300  0.737800  1
  C  C673  1  0.808900  0.392300  0.229300  1
  C  C674  1  0.191100  0.607700  0.770700  1
  C  C675  1  0.839500  0.493600  0.330600  1
  C  C676  1  0.160500  0.506400  0.669400  1
  C  C677  1  0.872100  0.548500  0.393300  1
  C  C678  1  0.127900  0.451500  0.606700  1
  C  C679  1  0.793400  0.540700  0.364700  1
  C  C680  1  0.206600  0.459300  0.635300  1
  C  C681  1  0.663900  0.552400  0.335400  1
  C  C682  1  0.336100  0.447600  0.664600  1
  C  C683  1  0.705200  0.534700  0.334400  1
  C  C684  1  0.294800  0.465300  0.665600  1
  C  C685  1  0.746700  0.557500  0.366100  1
  C  C686  1  0.253300  0.442500  0.633900  1
  C  C687  1  0.744000  0.597000  0.396900  1
  C  C688  1  0.256000  0.403000  0.603100  1
  C  C689  1  0.701200  0.613300  0.396000  1
  C  C690  1  0.298800  0.386700  0.604000  1
  C  C691  1  0.997700  0.583100  0.458200  1
  C  C692  1  0.002300  0.416900  0.541800  1
  C  C693  1  0.960700  0.560800  0.426600  1
  C  C694  1  0.039300  0.439200  0.573400  1
  C  C695  1  0.913800  0.572000  0.428700  1
  C  C696  1  0.086200  0.428000  0.571300  1
  C  C697  1  0.908700  0.607000  0.463800  1
  C  C698  1  0.091300  0.393000  0.536200  1
  C  C699  1  0.948800  0.628300  0.494500  1
  C  C700  1  0.051200  0.371700  0.505500  1
  C  C701  1  0.656000  0.655000  0.284500  1
  C  C702  1  0.344000  0.345000  0.715500  1
  C  C703  1  0.692600  0.680600  0.262400  1
  C  C704  1  0.307400  0.319400  0.737600  1
  C  C705  1  0.730800  0.725700  0.282300  1
  C  C706  1  0.269200  0.274300  0.717700  1
  C  C707  1  0.728300  0.743300  0.324900  1
  C  C708  1  0.271700  0.256700  0.675100  1
  C  C709  1  0.689800  0.714500  0.345800  1
  C  C710  1  0.310200  0.285500  0.654200  1
  C  C711  1  0.770900  0.753500  0.260000  1
  C  C712  1  0.229100  0.246500  0.740000  1
  C  C713  1  0.809000  0.762300  0.198800  1
  C  C714  1  0.191000  0.237700  0.801200  1
  C  C715  1  0.841300  0.821500  0.258700  1
  C  C716  1  0.158700  0.178500  0.741300  1
  C  C717  1  0.774600  0.684400  0.087000  1
  C  C718  1  0.225400  0.315600  0.913000  1
  C  C719  1  0.772700  0.698800  0.129700  1
  C  C720  1  0.227300  0.301200  0.870300  1
  C  C721  1  0.810300  0.745400  0.151900  1
  C  C722  1  0.189700  0.254600  0.848100  1
  C  C723  1  0.848400  0.770700  0.130600  1
  C  C724  1  0.151600  0.229300  0.869400  1
  C  C725  1  0.847300  0.754300  0.087100  1
  C  C726  1  0.152700  0.245700  0.912900  1
  C  C727  1  0.952900  0.947100  0.281900  1
  C  C728  1  0.047100  0.052900  0.718100  1
  C  C729  1  0.916900  0.900900  0.260700  1
  C  C730  1  0.083100  0.099100  0.739300  1
  C  C731  1  0.879700  0.872200  0.281200  1
  C  C732  1  0.120300  0.127800  0.718800  1
  C  C733  1  0.878700  0.890000  0.324500  1
  C  C734  1  0.121300  0.110000  0.675500  1
  C  C735  1  0.914900  0.936400  0.344400  1
  C  C736  1  0.085100  0.063600  0.655600  1
  C  C737  1  0.861300  0.394100  0.125300  1
  C  C738  1  0.138700  0.605900  0.874700  1
  C  C739  1  0.884800  0.438200  0.109000  1
  C  C740  1  0.115200  0.561800  0.891000  1
  C  C741  1  0.936600  0.462400  0.118200  1
  C  C742  1  0.063400  0.537600  0.881800  1
  C  C743  1  0.964600  0.441400  0.143100  1
  C  C744  1  0.035400  0.558600  0.856900  1
  C  C745  1  0.940100  0.397800  0.157200  1
  C  C746  1  0.059900  0.602200  0.842800  1
  C  C747  1  0.960200  0.511300  0.105000  1
  C  C748  1  0.039800  0.488700  0.895000  1
  C  C749  1  0.953000  0.576800  0.073500  1
  C  C750  1  0.047000  0.423200  0.926500  1
  C  C751  1  0.030200  0.581100  0.106300  1
  C  C752  1  0.969800  0.418900  0.893700  1
  C  C753  1  0.839200  0.600200  0.025900  1
  C  C754  1  0.160800  0.399800  0.974100  1
  C  C755  1  0.868100  0.575700  0.043000  1
  C  C756  1  0.131900  0.424300  0.957000  1
  C  C757  1  0.920800  0.599300  0.051700  1
  C  C758  1  0.079200  0.400700  0.948300  1
  C  C759  1  0.940800  0.648100  0.043400  1
  C  C760  1  0.059200  0.351900  0.956600  1
  C  C761  1  0.909000  0.670500  0.026100  1
  C  C762  1  0.091000  0.329500  0.973900  1
  C  C763  1  0.155200  0.688900  0.126000  1
  C  C764  1  0.844800  0.311100  0.874000  1
  C  C765  1  0.104500  0.660000  0.111000  1
  C  C766  1  0.895500  0.340000  0.889000  1
  C  C767  1  0.084400  0.611100  0.120000  1
  C  C768  1  0.915600  0.388900  0.880000  1
  C  C769  1  0.115600  0.593800  0.143400  1
  C  C770  1  0.884400  0.406200  0.856600  1
  C  C771  1  0.164500  0.623600  0.158200  1
  C  C772  1  0.835500  0.376400  0.841800  1
  C  C773  1  0.034300  0.945200  0.394700  1
  C  C774  1  0.965700  0.054800  0.605300  1
  C  C775  1  0.053000  0.905300  0.396800  1
  C  C776  1  0.947000  0.094700  0.603200  1
  C  C777  1  0.083500  0.891300  0.364900  1
  C  C778  1  0.916500  0.108700  0.635100  1
  C  C779  1  0.094900  0.920400  0.334500  1
  C  C780  1  0.905100  0.079600  0.665500  1
  C  C781  1  0.075300  0.960400  0.334400  1
  C  C782  1  0.924700  0.039600  0.665600  1
  C  C783  1  0.103000  0.847000  0.365600  1
  C  C784  1  0.897000  0.153000  0.634400  1
  C  C785  1  0.112500  0.783300  0.396400  1
  C  C786  1  0.887500  0.216700  0.603600  1
  C  C787  1  0.142700  0.790800  0.333900  1
  C  C788  1  0.857300  0.209200  0.666100  1
  C  C789  1  0.063900  0.743700  0.497000  1
  C  C790  1  0.936100  0.256300  0.503000  1
  C  C791  1  0.074800  0.770900  0.465100  1
  C  C792  1  0.925200  0.229100  0.534900  1
  C  C793  1  0.102800  0.755700  0.432700  1
  C  C794  1  0.897200  0.244300  0.567300  1
  C  C795  1  0.119500  0.713900  0.433300  1
  C  C796  1  0.880500  0.286100  0.566700  1
  C  C797  1  0.108100  0.687400  0.467100  1
  C  C798  1  0.891900  0.312600  0.532900  1
  C  C799  1  0.214400  0.717600  0.263300  1
  C  C800  1  0.785600  0.282400  0.736700  1
  C  C801  1  0.190800  0.733500  0.297600  1
  C  C802  1  0.809200  0.266500  0.702400  1
  C  C803  1  0.169200  0.772900  0.296900  1
  C  C804  1  0.830800  0.227100  0.703100  1
  C  C805  1  0.173000  0.795800  0.262600  1
  C  C806  1  0.827000  0.204200  0.737400  1
  C  C807  1  0.198400  0.780100  0.229700  1
  C  C808  1  0.801600  0.219900  0.770300  1
  C  C809  1  0.345100  0.730300  0.137600  1
  C  C810  1  0.654900  0.269700  0.862400  1
  C  C811  1  0.361000  0.756600  0.176000  1
  C  C812  1  0.639000  0.243400  0.824000  1
  C  C813  1  0.289900  0.644700  0.119200  1
  C  C814  1  0.710100  0.355300  0.880800  1
  C  C815  1  0.271000  0.711100  0.087400  1
  C  C816  1  0.729000  0.288900  0.912600  1
  C  C817  1  0.339200  0.758900  0.247200  1
  C  C818  1  0.660800  0.241100  0.752800  1
  C  C819  1  0.329200  0.822500  0.207800  1
  C  C820  1  0.670800  0.177500  0.792200  1
  C  C821  1  0.511400  0.594200  0.396900  1
  C  C822  1  0.488600  0.405800  0.603100  1
  C  C823  1  0.509700  0.636800  0.386500  1
  C  C824  1  0.490300  0.363200  0.613500  1
  C  C825  1  0.547100  0.528500  0.379700  1
  C  C826  1  0.452900  0.471500  0.620300  1
  C  C827  1  0.581400  0.596300  0.443100  1
  C  C828  1  0.418600  0.403700  0.556900  1
  C  C829  1  0.529300  0.654800  0.315800  1
  C  C830  1  0.470700  0.345200  0.684200  1
  C  C831  1  0.568200  0.717000  0.374300  1
  C  C832  1  0.431800  0.283000  0.625700  1
  C  C833  1  0.071200  0.612800  0.610300  1
  C  C834  1  0.928800  0.387200  0.389700  1
  C  C835  1  0.099700  0.668400  0.623000  1
  C  C836  1  0.900300  0.331600  0.377000  1
  C  C837  1  0.982700  0.614900  0.600500  1
  C  C838  1  0.017300  0.385100  0.399500  1
  C  C839  1  0.008800  0.548800  0.556600  1
  C  C840  1  0.991200  0.451200  0.443400  1
  C  C841  1  0.122600  0.748200  0.595700  1
  C  C842  1  0.877400  0.251800  0.404300  1
  C  C843  1  0.161600  0.680400  0.569300  1
  C  C844  1  0.838400  0.319600  0.430700  1
  C  C845  1  0.053400  0.135300  0.385400  1
  C  C846  1  0.946600  0.864700  0.614600  1
  C  C847  1  0.997800  0.126900  0.382900  1
  C  C848  1  0.002200  0.873100  0.617100  1
  C  C849  1  0.063100  0.084600  0.440500  1
  C  C850  1  0.936900  0.915400  0.559500  1
  C  C851  1  0.118700  0.090800  0.382100  1
  C  C852  1  0.881300  0.909200  0.617900  1
  C  C853  1  0.915700  0.064300  0.361000  1
  C  C854  1  0.084300  0.935700  0.639000  1
  C  C855  1  0.970300  0.087500  0.306700  1
  C  C856  1  0.029700  0.912500  0.693300  1
  C  C857  1  0.821000  0.210400  0.140900  1
  C  C858  1  0.179000  0.789600  0.859100  1
  C  C859  1  0.824500  0.211700  0.186100  1
  C  C860  1  0.175500  0.788300  0.813900  1
  C  C861  1  0.833900  0.264400  0.088400  1
  C  C862  1  0.166100  0.735600  0.911600  1
  C  C863  1  0.759600  0.253000  0.207500  1
  C  C864  1  0.240400  0.747000  0.792500  1
  C  C865  1  0.834700  0.267000  0.255400  1
  C  C866  1  0.165300  0.733000  0.744600  1
  C  C867  1  0.904800  0.255800  0.126700  1
  C  C868  1  0.095200  0.744200  0.873300  1
  C  C869  1  0.783900  0.687300  0.915500  1
  C  C870  1  0.216100  0.312700  0.084500  1
  C  C871  1  0.753500  0.715100  0.939200  1
  C  C872  1  0.246500  0.284900  0.060800  1
  C  C873  1  0.789700  0.606100  0.925200  1
  C  C874  1  0.210300  0.393900  0.074800  1
  C  C875  1  0.863800  0.672900  0.923900  1
  C  C876  1  0.136200  0.327100  0.076100  1
  C  C877  1  0.713700  0.713000  0.003800  1
  C  C878  1  0.286300  0.287000  0.996200  1
  C  C879  1  0.785700  0.784600  0.999500  1
  C  C880  1  0.214300  0.215400  0.000500  1
  C  C881  1  0.343200  0.275500  0.290800  1
  C  C882  1  0.656800  0.724500  0.709200  1
  C  C883  1  0.363600  0.273400  0.251300  1
  C  C884  1  0.636400  0.726600  0.748700  1
  C  C885  1  0.414500  0.270100  0.246600  1
  C  C886  1  0.585500  0.729900  0.753400  1
  C  C887  1  0.445600  0.270200  0.281100  1
  C  C888  1  0.554400  0.729800  0.718900  1
  C  C889  1  0.422500  0.271600  0.321200  1
  C  C890  1  0.577500  0.728400  0.678800  1
  C  C891  1  0.373600  0.275700  0.328500  1
  C  C892  1  0.626400  0.724300  0.671500  1
  C  C893  1  0.354200  0.275300  0.368200  1
  C  C894  1  0.645800  0.724700  0.631800  1
  C  C895  1  0.389400  0.272300  0.397800  1
  C  C896  1  0.610600  0.727700  0.602200  1
  C  C897  1  0.440800  0.271800  0.392700  1
  C  C898  1  0.559200  0.728200  0.607300  1
  C  C899  1  0.461100  0.270300  0.353500  1
  C  C900  1  0.538900  0.729700  0.646500  1
  C  C901  1  0.507000  0.265700  0.331200  1
  C  C902  1  0.493000  0.734300  0.668800  1
  C  C903  1  0.496600  0.264000  0.288000  1
  C  C904  1  0.503400  0.736000  0.712000  1
  C  C905  1  0.320100  0.143900  0.225100  1
  C  C906  1  0.679900  0.856100  0.774900  1
  C  C907  1  0.310000  0.117300  0.181600  1
  C  C908  1  0.690000  0.882700  0.818400  1
  C  C909  1  0.311100  0.067600  0.162500  1
  C  C910  1  0.688900  0.932400  0.837500  1
  C  C911  1  0.326200  0.039400  0.187700  1
  C  C912  1  0.673800  0.960600  0.812300  1
  C  C913  1  0.332200  0.063000  0.233900  1
  C  C914  1  0.667800  0.937000  0.766100  1
  C  C915  1  0.332300  0.113900  0.254800  1
  C  C916  1  0.667700  0.886100  0.745200  1
  C  C917  1  0.346900  0.132500  0.297600  1
  C  C918  1  0.653100  0.867500  0.702400  1
  C  C919  1  0.359300  0.099900  0.317800  1
  C  C920  1  0.640700  0.900100  0.682200  1
  C  C921  1  0.356000  0.046600  0.298600  1
  C  C922  1  0.644000  0.953400  0.701400  1
  C  C923  1  0.345400  0.023700  0.255500  1
  C  C924  1  0.654600  0.976300  0.744500  1
  C  C925  1  0.346500  0.977000  0.221100  1
  C  C926  1  0.653500  0.023000  0.778900  1
  C  C927  1  0.326400  0.985000  0.183300  1
  C  C928  1  0.673600  0.015000  0.816700  1
  C  C929  1  0.585600  0.167400  0.216700  1
  C  C930  1  0.414400  0.832600  0.783300  1
  C  C931  1  0.609900  0.217900  0.208800  1
  C  C932  1  0.390100  0.782100  0.791200  1
  C  C933  1  0.586900  0.249800  0.190800  1
  C  C934  1  0.413100  0.750200  0.809200  1
  C  C935  1  0.534500  0.230400  0.179800  1
  C  C936  1  0.465500  0.769600  0.820200  1
  C  C937  1  0.506900  0.178400  0.188000  1
  C  C938  1  0.493100  0.821600  0.812000  1
  C  C939  1  0.529400  0.145400  0.205500  1
  C  C940  1  0.470600  0.854600  0.794500  1
  C  C941  1  0.497400  0.098000  0.210700  1
  C  C942  1  0.502600  0.902000  0.789300  1
  C  C943  1  0.447200  0.083000  0.196000  1
  C  C944  1  0.552800  0.917000  0.804000  1
  C  C945  1  0.423500  0.114600  0.176700  1
  C  C946  1  0.576500  0.885400  0.823300  1
  C  C947  1  0.451000  0.164300  0.170900  1
  C  C948  1  0.549000  0.835700  0.829100  1
  C  C949  1  0.445900  0.211400  0.155200  1
  C  C950  1  0.554100  0.788600  0.844800  1
  C  C951  1  0.494500  0.248100  0.161800  1
  C  C952  1  0.505500  0.751900  0.838200  1
  C  C953  1  0.965700  0.548500  0.231600  1
  C  C954  1  0.034300  0.451500  0.768400  1
  C  C955  1  0.912900  0.529100  0.214900  1
  C  C956  1  0.087100  0.470900  0.785100  1
  C  C957  1  0.883000  0.549300  0.190100  1
  C  C958  1  0.117000  0.450700  0.809900  1
  C  C959  1  0.907500  0.595900  0.178500  1
  C  C960  1  0.092500  0.404100  0.821500  1
  C  C961  1  0.962600  0.617600  0.194500  1
  C  C962  1  0.037400  0.382400  0.805500  1
  C  C963  1  0.994100  0.597800  0.218700  1
  C  C964  1  0.005900  0.402200  0.781300  1
  C  C965  1  0.044700  0.625900  0.232400  1
  C  C966  1  0.955300  0.374100  0.767600  1
  C  C967  1  0.061000  0.671900  0.221300  1
  C  C968  1  0.939000  0.328100  0.778700  1
  C  C969  1  0.032500  0.692200  0.194900  1
  C  C970  1  0.967500  0.307800  0.805100  1
  C  C971  1  0.980700  0.667400  0.179000  1
  C  C972  1  0.019300  0.332600  0.821000  1
  C  C973  1  0.935800  0.675700  0.154400  1
  C  C974  1  0.064200  0.324300  0.845600  1
  C  C975  1  0.892700  0.632300  0.154900  1
  C  C976  1  0.107300  0.367700  0.845100  1
  C  C977  1  0.265000  0.028100  0.044200  1
  C  C978  1  0.735000  0.971900  0.955800  1
  C  C979  1  0.315100  0.056200  0.048800  1
  C  C980  1  0.684900  0.943800  0.951200  1
  C  C981  1  0.346500  0.030900  0.063500  1
  C  C982  1  0.653500  0.969100  0.936500  1
  C  C983  1  0.328300  0.979900  0.072800  1
  C  C984  1  0.671700  0.020100  0.927200  1
  C  C985  1  0.275100  0.960300  0.067300  1
  C  C986  1  0.724900  0.039700  0.932700  1
  C  C987  1  0.406000  0.056900  0.072200  1
  C  C988  1  0.594000  0.943100  0.927800  1
  C  C989  1  0.474500  0.127700  0.071100  1
  C  C990  1  0.525500  0.872300  0.928900  1
  C  C991  1  0.482200  0.058400  0.096800  1
  C  C992  1  0.517800  0.941600  0.903200  1
  C  C993  1  0.597700  0.037200  0.141800  1
  C  C994  1  0.402300  0.962800  0.858200  1
  C  C995  1  0.568700  0.058600  0.123000  1
  C  C996  1  0.431300  0.941400  0.877000  1
  C  C997  1  0.515600  0.033900  0.113200  1
  C  C998  1  0.484400  0.966100  0.886800  1
  C  C999  1  0.496600  0.988200  0.123200  1
  C  C1000  1  0.503400  0.011800  0.876800  1
  C  C1001  1  0.526600  0.964500  0.142500  1
  C  C1002  1  0.473400  0.035500  0.857500  1
  C  C1003  1  0.567200  0.256600  0.069100  1
  C  C1004  1  0.432800  0.743400  0.930900  1
  C  C1005  1  0.550400  0.205200  0.074500  1
  C  C1006  1  0.449600  0.794800  0.925500  1
  C  C1007  1  0.495200  0.182000  0.065000  1
  C  C1008  1  0.504800  0.818000  0.935000  1
  C  C1009  1  0.465200  0.207600  0.050400  1
  C  C1010  1  0.534800  0.792400  0.949600  1
  C  C1011  1  0.488000  0.258800  0.046700  1
  C  C1012  1  0.512000  0.741200  0.953300  1
  C  C1013  1  0.211800  0.297600  0.336900  1
  C  C1014  1  0.788200  0.702400  0.663100  1
  C  C1015  1  0.211200  0.246600  0.331900  1
  C  C1016  1  0.788800  0.753400  0.668100  1
  C  C1017  1  0.208500  0.218300  0.292400  1
  C  C1018  1  0.791500  0.781700  0.707600  1
  C  C1019  1  0.204800  0.240200  0.257700  1
  C  C1020  1  0.795200  0.759800  0.742300  1
  C  C1021  1  0.205400  0.291200  0.264800  1
  C  C1022  1  0.794600  0.708800  0.735200  1
  C  C1023  1  0.210700  0.165300  0.286600  1
  C  C1024  1  0.789300  0.834700  0.713400  1
  C  C1025  1  0.219300  0.096500  0.312300  1
  C  C1026  1  0.780700  0.903500  0.687700  1
  C  C1027  1  0.202200  0.087100  0.240900  1
  C  C1028  1  0.797800  0.912900  0.759100  1
  C  C1029  1  0.254900  0.086000  0.421500  1
  C  C1030  1  0.745100  0.914000  0.578500  1
  C  C1031  1  0.245000  0.107000  0.389000  1
  C  C1032  1  0.755000  0.893000  0.611000  1
  C  C1033  1  0.230800  0.075900  0.348600  1
  C  C1034  1  0.769200  0.924100  0.651400  1
  C  C1035  1  0.224300  0.021800  0.342900  1
  C  C1036  1  0.775700  0.978200  0.657100  1
  C  C1037  1  0.233800  0.003300  0.378700  1
  C  C1038  1  0.766200  0.996700  0.621300  1
  C  C1039  1  0.174900  0.044700  0.123900  1
  C  C1040  1  0.825100  0.955300  0.876100  1
  C  C1041  1  0.183800  0.073700  0.162800  1
  C  C1042  1  0.816200  0.926300  0.837200  1
  C  C1043  1  0.194400  0.055500  0.197300  1
  C  C1044  1  0.805600  0.944500  0.802700  1
  C  C1045  1  0.195100  0.003700  0.190500  1
  C  C1046  1  0.804900  0.996300  0.809500  1
  C  C1047  1  0.187200  0.974900  0.149200  1
  C  C1048  1  0.812800  0.025100  0.850800  1
  C  C1049  1  0.594700  0.295500  0.457600  1
  C  C1050  1  0.405300  0.704500  0.542400  1
  C  C1051  1  0.566500  0.245300  0.441700  1
  C  C1052  1  0.433500  0.754700  0.558300  1
  C  C1053  1  0.583200  0.218200  0.406400  1
  C  C1054  1  0.416800  0.781800  0.593600  1
  C  C1055  1  0.627700  0.242200  0.390000  1
  C  C1056  1  0.372300  0.757800  0.610000  1
  C  C1057  1  0.654700  0.293400  0.408000  1
  C  C1058  1  0.345300  0.706600  0.592000  1
  C  C1059  1  0.551800  0.162700  0.387700  1
  C  C1060  1  0.448200  0.837300  0.612300  1
  C  C1061  1  0.481500  0.092300  0.388100  1
  C  C1062  1  0.518500  0.907700  0.611900  1
  C  C1063  1  0.541300  0.088100  0.341100  1
  C  C1064  1  0.458700  0.911900  0.658900  1
  C  C1065  1  0.374800  0.078400  0.456900  1
  C  C1066  1  0.625200  0.921600  0.543100  1
  C  C1067  1  0.419600  0.098900  0.440800  1
  C  C1068  1  0.580400  0.901100  0.559200  1
  C  C1069  1  0.435100  0.071100  0.405700  1
  C  C1070  1  0.564900  0.928900  0.594300  1
  C  C1071  1  0.404800  0.020700  0.392000  1
  C  C1072  1  0.595200  0.979300  0.608000  1
  C  C1073  1  0.359700  0.999400  0.410400  1
  C  C1074  1  0.640300  0.000600  0.589600  1
  C  C1075  1  0.553100  0.979900  0.255700  1
  C  C1076  1  0.446900  0.020100  0.744300  1
  C  C1077  1  0.531200  0.005600  0.289500  1
  C  C1078  1  0.468800  0.994400  0.710500  1
  C  C1079  1  0.561800  0.058400  0.304900  1
  C  C1080  1  0.438200  0.941600  0.695100  1
  C  C1081  1  0.606600  0.078800  0.289600  1
  C  C1082  1  0.393400  0.921200  0.710400  1
  C  C1083  1  0.622400  0.050200  0.259000  1
  C  C1084  1  0.377600  0.949800  0.741000  1
  C  C1085  1  0.322600  0.412800  0.341200  1
  C  C1086  1  0.677400  0.587200  0.658800  1
  C  C1087  1  0.372800  0.412200  0.336200  1
  C  C1088  1  0.627200  0.587800  0.663800  1
  C  C1089  1  0.389400  0.407700  0.297000  1
  C  C1090  1  0.610600  0.592300  0.703000  1
  C  C1091  1  0.356900  0.404800  0.262400  1
  C  C1092  1  0.643100  0.595200  0.737600  1
  C  C1093  1  0.308100  0.405400  0.269200  1
  C  C1094  1  0.691900  0.594600  0.730800  1
  C  C1095  1  0.441700  0.402100  0.289700  1
  C  C1096  1  0.558300  0.597900  0.710300  1
  C  C1097  1  0.501000  0.391000  0.244100  1
  C  C1098  1  0.499000  0.609000  0.755900  1
  C  C1099  1  0.519200  0.400900  0.315300  1
  C  C1100  1  0.480800  0.599100  0.684700  1
  C  C1101  1  0.639400  0.405600  0.377500  1
  C  C1102  1  0.360600  0.594400  0.622500  1
  C  C1103  1  0.606600  0.404800  0.345100  1
  C  C1104  1  0.393400  0.595200  0.654900  1
  C  C1105  1  0.556900  0.403900  0.351400  1
  C  C1106  1  0.443100  0.596100  0.648600  1
  C  C1107  1  0.541700  0.404300  0.392900  1
  C  C1108  1  0.458300  0.595700  0.607100  1
  C  C1109  1  0.576500  0.404700  0.423600  1
  C  C1110  1  0.423500  0.595300  0.576400  1
  C  C1111  1  0.498600  0.370900  0.126600  1
  C  C1112  1  0.501400  0.629100  0.873400  1
  C  C1113  1  0.483200  0.380600  0.167300  1
  C  C1114  1  0.516800  0.619400  0.832700  1
  C  C1115  1  0.515000  0.383500  0.200900  1
  C  C1116  1  0.485000  0.616500  0.799100  1
  C  C1117  1  0.564500  0.378000  0.195000  1
  C  C1118  1  0.435500  0.622000  0.805000  1
  C  C1119  1  0.577500  0.370800  0.153000  1
  C  C1120  1  0.422500  0.629200  0.847000  1
  C  C1121  1  0.619400  0.394200  0.992700  1
  C  C1122  1  0.380600  0.605800  0.007300  1
  C  C1123  1  0.609300  0.433800  0.013400  1
  C  C1124  1  0.390700  0.566200  0.986600  1
  C  C1125  1  0.621200  0.317100  0.997100  1
  C  C1126  1  0.378800  0.682900  0.002900  1
  C  C1127  1  0.546000  0.326000  0.969100  1
  C  C1128  1  0.454000  0.674000  0.030900  1
  C  C1129  1  0.646500  0.458300  0.093400  1
  C  C1130  1  0.353500  0.541700  0.906600  1
  C  C1131  1  0.557900  0.466600  0.071300  1
  C  C1132  1  0.442100  0.533400  0.928700  1
  C  C1133  1  0.735900  0.478600  0.528200  1
  C  C1134  1  0.264100  0.521400  0.471800  1
  C  C1135  1  0.756600  0.438400  0.528900  1
  C  C1136  1  0.243400  0.561600  0.471100  1
  C  C1137  1  0.738300  0.498500  0.457900  1
  C  C1138  1  0.261700  0.501500  0.542100  1
  C  C1139  1  0.668400  0.502400  0.495400  1
  C  C1140  1  0.331600  0.497600  0.504600  1
  C  C1141  1  0.751600  0.355900  0.492800  1
  C  C1142  1  0.248400  0.644100  0.507200  1
  C  C1143  1  0.690000  0.365500  0.543500  1
  C  C1144  1  0.310000  0.634500  0.456500  1
  C  C1145  1  0.163300  0.473500  0.308700  1
  C  C1146  1  0.836700  0.526500  0.691300  1
  C  C1147  1  0.127900  0.433600  0.327200  1
  C  C1148  1  0.872100  0.566400  0.672800  1
  C  C1149  1  0.239200  0.500200  0.360300  1
  C  C1150  1  0.760800  0.499800  0.639700  1
  C  C1151  1  0.250200  0.499900  0.286800  1
  C  C1152  1  0.749800  0.500100  0.713200  1
  C  C1153  1  0.109700  0.344400  0.337000  1
  C  C1154  1  0.890300  0.655600  0.663000  1
  C  C1155  1  0.111300  0.359100  0.263400  1
  C  C1156  1  0.888700  0.640900  0.736600  1
  C  C1157  1  0.673000  0.894400  0.151700  1
  C  C1158  1  0.327000  0.105600  0.848300  1
  C  C1159  1  0.687400  0.898000  0.196500  1
  C  C1160  1  0.312600  0.102000  0.803500  1
  C  C1161  1  0.599300  0.881200  0.106900  1
  C  C1162  1  0.400700  0.118800  0.893100  1
  C  C1163  1  0.674800  0.957400  0.109800  1
  C  C1164  1  0.325200  0.042600  0.890200  1
  C  C1165  1  0.630400  0.902700  0.256100  1
  C  C1166  1  0.369600  0.097300  0.743900  1
  C  C1167  1  0.707800  0.979700  0.256000  1
  C  C1168  1  0.292200  0.020300  0.744000  1
  C  C1169  1  0.107900  0.878200  0.988900  1
  C  C1170  1  0.892100  0.121800  0.011100  1
  C  C1171  1  0.070700  0.894000  0.012500  1
  C  C1172  1  0.929300  0.106000  0.987500  1
  C  C1173  1  0.160300  0.948100  0.960800  1
  C  C1174  1  0.839700  0.051900  0.039200  1
  C  C1175  1  0.194500  0.885100  0.985600  1
  C  C1176  1  0.805500  0.114900  0.014400  1
  C  C1177  1  0.063500  0.960800  0.069700  1
  C  C1178  1  0.936500  0.039200  0.930300  1
  C  C1179  1  0.078500  0.886200  0.091700  1
  C  C1180  1  0.921500  0.113800  0.908300  1
  C  C1181  1  0.250400  0.952300  0.532900  1
  C  C1182  1  0.749600  0.047700  0.467100  1
  C  C1183  1  0.212400  0.977900  0.531000  1
  C  C1184  1  0.787600  0.022100  0.469000  1
  C  C1185  1  0.326800  0.940600  0.498800  1
  C  C1186  1  0.673200  0.059400  0.501200  1
  C  C1187  1  0.334100  0.021000  0.545500  1
  C  C1188  1  0.665900  0.979000  0.454500  1
  C  C1189  1  0.166500  0.945000  0.463400  1
  C  C1190  1  0.833500  0.055000  0.536600  1
  C  C1191  1  0.182100  0.030300  0.496100  1
  C  C1192  1  0.817900  0.969700  0.503900  1
  C  C1193  1  0.074500  0.563400  0.008900  1
  C  C1194  1  0.925500  0.436600  0.991100  1
  C  C1195  1  0.066600  0.516700  0.026100  1
  C  C1196  1  0.933400  0.483300  0.973900  1
  C  C1197  1  0.013000  0.487600  0.011000  1
  C  C1198  1  0.987000  0.512400  0.989000  1
  C  C1199  1  0.002800  0.440500  0.028200  1
  C  C1200  1  0.997200  0.559500  0.971800  1
  C  C1201  1  0.951300  0.411300  0.013100  1
  C  C1202  1  0.048700  0.588700  0.986900  1
  C  C1203  1  0.088300  0.487000  0.051000  1
  C  C1204  1  0.911700  0.513000  0.949000  1
  C  C1205  1  0.050800  0.442000  0.051700  1
  C  C1206  1  0.949200  0.558000  0.948300  1
  C  C1207  1  0.561300  0.078000  0.997000  1
  C  C1208  1  0.438700  0.922000  0.003000  1
  C  C1209  1  0.504600  0.065400  0.984500  1
  C  C1210  1  0.495400  0.934600  0.015500  1
  C  C1211  1  0.487300  0.011900  0.992800  1
  C  C1212  1  0.512700  0.988100  0.007200  1
  C  C1213  1  0.429700  0.993400  0.979700  1
  C  C1214  1  0.570300  0.006600  0.020300  1
  C  C1215  1  0.413100  0.943200  0.989600  1
  C  C1216  1  0.586900  0.056800  0.010400  1
  C  C1217  1  0.459600  0.077000  0.970700  1
  C  C1218  1  0.540400  0.923000  0.029300  1
  C  C1219  1  0.417100  0.036400  0.968300  1
  C  C1220  1  0.582900  0.963600  0.031700  1
  N  N1221  1  0.850100  0.375700  0.228300  1
  N  N1222  1  0.149900  0.624300  0.771700  1
  N  N1223  1  0.795900  0.505000  0.330500  1
  N  N1224  1  0.204100  0.495000  0.669500  1
  N  N1225  1  0.879300  0.514200  0.360800  1
  N  N1226  1  0.120700  0.485800  0.639200  1
  N  N1227  1  0.829600  0.563400  0.397200  1
  N  N1228  1  0.170400  0.436600  0.602800  1
  N  N1229  1  0.661800  0.592600  0.365000  1
  N  N1230  1  0.338200  0.407400  0.635000  1
  N  N1231  1  0.992200  0.617300  0.493100  1
  N  N1232  1  0.007800  0.382700  0.506900  1
  N  N1233  1  0.654900  0.671200  0.326300  1
  N  N1234  1  0.345100  0.328800  0.673700  1
  N  N1235  1  0.806000  0.798000  0.281400  1
  N  N1236  1  0.194000  0.202000  0.718600  1
  N  N1237  1  0.771200  0.734600  0.217900  1
  N  N1238  1  0.228800  0.265400  0.782100  1
  N  N1239  1  0.844800  0.806600  0.216900  1
  N  N1240  1  0.155200  0.193400  0.783100  1
  N  N1241  1  0.809900  0.711700  0.065800  1
  N  N1242  1  0.190100  0.288300  0.934200  1
  N  N1243  1  0.951100  0.964200  0.324300  1
  N  N1244  1  0.048900  0.035800  0.675700  1
  N  N1245  1  0.888800  0.375000  0.149400  1
  N  N1246  1  0.111200  0.625000  0.850600  1
  N  N1247  1  0.010900  0.536500  0.118300  1
  N  N1248  1  0.989100  0.463500  0.881700  1
  N  N1249  1  0.002400  0.603500  0.084900  1
  N  N1250  1  0.997600  0.396500  0.915100  1
  N  N1251  1  0.930400  0.529300  0.083700  1
  N  N1252  1  0.069600  0.470700  0.916300  1
  N  N1253  1  0.857800  0.647500  0.018600  1
  N  N1254  1  0.142200  0.352500  0.981400  1
  N  N1255  1  0.184600  0.671900  0.150000  1
  N  N1256  1  0.815400  0.328100  0.850000  1
  N  N1257  1  0.044900  0.972700  0.363900  1
  N  N1258  1  0.955100  0.027300  0.636100  1
  N  N1259  1  0.095000  0.823800  0.399100  1
  N  N1260  1  0.905000  0.176200  0.600900  1
  N  N1261  1  0.127100  0.832200  0.332200  1
  N  N1262  1  0.872900  0.167800  0.667800  1
  N  N1263  1  0.136300  0.765400  0.365900  1
  N  N1264  1  0.863700  0.234600  0.634100  1
  N  N1265  1  0.080200  0.701800  0.497300  1
  N  N1266  1  0.919800  0.298200  0.502700  1
  N  N1267  1  0.218600  0.741100  0.229300  1
  N  N1268  1  0.781400  0.258900  0.770700  1
  N  N1269  1  0.292600  0.698800  0.126400  1
  N  N1270  1  0.707400  0.301200  0.873600  1
  N  N1271  1  0.325600  0.766200  0.205300  1
  N  N1272  1  0.674400  0.233800  0.794700  1
  N  N1273  1  0.559600  0.582700  0.398100  1
  N  N1274  1  0.440400  0.417300  0.601900  1
  N  N1275  1  0.549900  0.662100  0.357100  1
  N  N1276  1  0.450100  0.337900  0.642900  1
  N  N1277  1  0.026200  0.604300  0.579000  1
  N  N1278  1  0.973800  0.395700  0.421000  1
  N  N1279  1  0.113500  0.691600  0.585000  1
  N  N1280  1  0.886500  0.308400  0.415000  1
  N  N1281  1  0.064600  0.087700  0.394100  1
  N  N1282  1  0.935400  0.912300  0.605900  1
  N  N1283  1  0.970200  0.078800  0.351000  1
  N  N1284  1  0.029800  0.921200  0.649000  1
  N  N1285  1  0.853100  0.258300  0.130700  1
  N  N1286  1  0.146900  0.741700  0.869300  1
  N  N1287  1  0.814900  0.259900  0.210400  1
  N  N1288  1  0.185100  0.740100  0.789600  1
  N  N1289  1  0.812500  0.662100  0.938200  1
  N  N1290  1  0.187500  0.337900  0.061800  1
  N  N1291  1  0.764100  0.728200  0.985500  1
  N  N1292  1  0.235900  0.271800  0.014500  1
  N  N1293  1  0.106400  0.452500  0.186200  1
  N  N1294  1  0.893600  0.547500  0.813800  1
  N  N1295  1  0.042900  0.996700  0.523700  1
  N  N1296  1  0.957100  0.003300  0.476300  1
  N  N1297  1  0.190200  0.835200  0.128200  1
  N  N1298  1  0.809800  0.164800  0.871800  1
  N  N1299  1  0.798200  0.412900  0.394700  1
  N  N1300  1  0.201800  0.587100  0.605300  1
  N  N1301  1  0.881000  0.478200  0.531900  1
  N  N1302  1  0.119000  0.521800  0.468100  1
  N  N1303  1  0.326100  0.629700  0.739900  1
  N  N1304  1  0.673900  0.370300  0.260100  1
  N  N1305  1  0.295100  0.887100  0.912200  1
  N  N1306  1  0.704900  0.112900  0.087800  1
  N  N1307  1  0.798400  0.878300  0.401400  1
  N  N1308  1  0.201600  0.121700  0.598600  1
  N  N1309  1  0.029400  0.690100  0.748100  1
  N  N1310  1  0.970600  0.309900  0.251900  1
  N  N1311  1  0.086500  0.072100  0.260400  1
  N  N1312  1  0.913500  0.927900  0.739600  1
  N  N1313  1  0.282000  0.638000  0.870000  1
  N  N1314  1  0.718000  0.362000  0.130000  1
  N  N1315  1  0.799300  0.365400  0.616500  1
  N  N1316  1  0.200700  0.634600  0.383500  1
  N  N1317  1  0.245400  0.856500  0.401700  1
  N  N1318  1  0.754600  0.143500  0.598300  1
  N  N1319  1  0.802100  0.611000  0.564000  1
  N  N1320  1  0.197900  0.389000  0.436000  1
  N  N1321  1  0.952400  0.733900  0.570200  1
  N  N1322  1  0.047600  0.266100  0.429800  1
  N  N1323  1  0.242600  0.982300  0.055100  1
  N  N1324  1  0.757400  0.017700  0.944900  1
  N  N1325  1  0.422000  0.105600  0.061800  1
  N  N1326  1  0.578000  0.894400  0.938200  1
  N  N1327  1  0.433300  0.031300  0.089400  1
  N  N1328  1  0.566700  0.968700  0.910600  1
  N  N1329  1  0.505300  0.105800  0.088200  1
  N  N1330  1  0.494700  0.894200  0.911800  1
  N  N1331  1  0.578800  0.989000  0.153700  1
  N  N1332  1  0.421200  0.011000  0.846300  1
  N  N1333  1  0.537700  0.282200  0.057600  1
  N  N1334  1  0.462300  0.717800  0.942400  1
  N  N1335  1  0.208300  0.319800  0.303200  1
  N  N1336  1  0.791700  0.680200  0.696800  1
  N  N1337  1  0.218800  0.146400  0.320500  1
  N  N1338  1  0.781200  0.853600  0.679500  1
  N  N1339  1  0.201100  0.136000  0.245100  1
  N  N1340  1  0.798900  0.864000  0.754900  1
  N  N1341  1  0.210700  0.065500  0.273700  1
  N  N1342  1  0.789300  0.934500  0.726300  1
  N  N1343  1  0.248900  0.033100  0.416700  1
  N  N1344  1  0.751100  0.966900  0.583300  1
  N  N1345  1  0.178500  0.995200  0.117300  1
  N  N1346  1  0.821500  0.004800  0.882700  1
  N  N1347  1  0.638300  0.319700  0.441300  1
  N  N1348  1  0.361700  0.680300  0.558700  1
  N  N1349  1  0.509700  0.142900  0.405600  1
  N  N1350  1  0.490300  0.857100  0.594400  1
  N  N1351  1  0.570800  0.137100  0.356000  1
  N  N1352  1  0.429200  0.862900  0.644000  1
  N  N1353  1  0.495500  0.064000  0.355900  1
  N  N1354  1  0.504500  0.936000  0.644100  1
  N  N1355  1  0.345100  0.029900  0.443100  1
  N  N1356  1  0.654900  0.970100  0.556900  1
  N  N1357  1  0.596700  0.000800  0.242300  1
  N  N1358  1  0.403300  0.999200  0.757700  1
  N  N1359  1  0.290600  0.408800  0.307400  1
  N  N1360  1  0.709400  0.591200  0.692600  1
  N  N1361  1  0.473300  0.406700  0.324600  1
  N  N1362  1  0.526700  0.593300  0.675400  1
  N  N1363  1  0.453200  0.395700  0.250400  1
  N  N1364  1  0.546800  0.604300  0.749600  1
  N  N1365  1  0.535200  0.394700  0.276400  1
  N  N1366  1  0.464800  0.605300  0.723600  1
  N  N1367  1  0.624900  0.405600  0.416500  1
  N  N1368  1  0.375100  0.594400  0.583500  1
  N  N1369  1  0.544500  0.369100  0.119000  1
  N  N1370  1  0.455500  0.630900  0.881000  1
  N  N1371  1  0.590300  0.348800  0.999600  1
  N  N1372  1  0.409700  0.651200  0.000400  1
  N  N1373  1  0.595700  0.438000  0.064500  1
  N  N1374  1  0.404300  0.562000  0.935500  1
  N  N1375  1  0.705600  0.476300  0.486700  1
  N  N1376  1  0.294400  0.523700  0.513300  1
  N  N1377  1  0.719100  0.386800  0.509800  1
  N  N1378  1  0.280900  0.613200  0.490200  1
  N  N1379  1  0.217900  0.473100  0.316900  1
  N  N1380  1  0.782100  0.526900  0.683100  1
  N  N1381  1  0.135200  0.383400  0.310700  1
  N  N1382  1  0.864800  0.616600  0.689300  1
  N  N1383  1  0.648500  0.925700  0.131300  1
  N  N1384  1  0.351500  0.074300  0.868700  1
  N  N1385  1  0.662900  0.931800  0.230200  1
  N  N1386  1  0.337100  0.068200  0.769800  1
  N  N1387  1  0.154900  0.913300  0.993300  1
  N  N1388  1  0.845100  0.086700  0.006700  1
  N  N1389  1  0.087900  0.922500  0.058800  1
  N  N1390  1  0.912100  0.077500  0.941200  1
  N  N1391  1  0.300900  0.979200  0.515100  1
  N  N1392  1  0.699100  0.020800  0.484900  1
  N  N1393  1  0.204300  0.988800  0.490600  1
  N  N1394  1  0.795700  0.011200  0.509400  1
  N  N1395  1  0.096600  0.446300  0.102600  1
  N  N1396  1  0.903400  0.553700  0.897400  1
  N  N1397  1  0.239600  0.860200  0.134700  1
  N  N1398  1  0.760400  0.139800  0.865300  1
  N  N1399  1  0.765500  0.372100  0.355700  1
  N  N1400  1  0.234500  0.627900  0.644300  1
  N  N1401  1  0.880600  0.460700  0.491700  1
  N  N1402  1  0.119400  0.539300  0.508300  1
  N  N1403  1  0.302500  0.677400  0.857000  1
  N  N1404  1  0.697500  0.322600  0.143000  1
  N  N1405  1  0.301000  0.286300  0.166800  1
  N  N1406  1  0.699000  0.713700  0.833200  1
  N  N1407  1  0.805000  0.642600  0.505300  1
  N  N1408  1  0.195000  0.357400  0.494700  1
  N  N1409  1  0.973300  0.742400  0.612100  1
  N  N1410  1  0.026700  0.257600  0.387900  1
  O  O1411  1  0.096200  0.499300  0.208700  1
  O  O1412  1  0.903800  0.500700  0.791300  1
  O  O1413  1  0.158800  0.453800  0.177000  1
  O  O1414  1  0.841200  0.546200  0.823000  1
  O  O1415  1  0.064400  0.404200  0.172500  1
  O  O1416  1  0.935600  0.595800  0.827500  1
  O  O1417  1  0.013700  0.350600  0.082200  1
  O  O1418  1  0.986300  0.649400  0.917800  1
  O  O1419  1  0.182600  0.506000  0.112900  1
  O  O1420  1  0.817400  0.494000  0.887100  1
  O  O1421  1  0.033200  0.956000  0.494200  1
  O  O1422  1  0.966800  0.044000  0.505800  1
  O  O1423  1  0.028600  0.032400  0.518000  1
  O  O1424  1  0.971400  0.967600  0.482000  1
  O  O1425  1  0.062900  0.996300  0.555500  1
  O  O1426  1  0.937100  0.003700  0.444500  1
  O  O1427  1  0.225000  0.814200  0.128800  1
  O  O1428  1  0.775000  0.185800  0.871200  1
  O  O1429  1  0.189800  0.860400  0.099900  1
  O  O1430  1  0.810200  0.139600  0.900100  1
  O  O1431  1  0.147300  0.813400  0.139600  1
  O  O1432  1  0.852700  0.186600  0.860400  1
  O  O1433  1  0.309900  0.863200  0.104000  1
  O  O1434  1  0.690100  0.136800  0.896000  1
  O  O1435  1  0.753200  0.403300  0.399800  1
  O  O1436  1  0.246800  0.596700  0.600200  1
  O  O1437  1  0.812000  0.391700  0.362500  1
  O  O1438  1  0.188000  0.608300  0.637500  1
  O  O1439  1  0.828100  0.444900  0.424100  1
  O  O1440  1  0.171900  0.555100  0.575900  1
  O  O1441  1  0.732300  0.315400  0.308400  1
  O  O1442  1  0.267700  0.684600  0.691600  1
  O  O1443  1  0.879400  0.506400  0.505900  1
  O  O1444  1  0.120600  0.493600  0.494100  1
  O  O1445  1  0.869700  0.488000  0.568800  1
  O  O1446  1  0.130300  0.512000  0.431200  1
  O  O1447  1  0.889600  0.435900  0.519200  1
  O  O1448  1  0.110400  0.564100  0.480800  1
  O  O1449  1  0.326000  0.584300  0.735900  1
  O  O1450  1  0.674000  0.415700  0.264100  1
  O  O1451  1  0.315500  0.646600  0.774900  1
  O  O1452  1  0.684500  0.353400  0.225100  1
  O  O1453  1  0.319000  0.648100  0.709000  1
  O  O1454  1  0.681000  0.351900  0.291000  1
  O  O1455  1  0.290500  0.860000  0.940100  1
  O  O1456  1  0.709500  0.140000  0.059900  1
  O  O1457  1  0.290000  0.930400  0.922200  1
  O  O1458  1  0.710000  0.069600  0.077800  1
  O  O1459  1  0.300100  0.865500  0.875400  1
  O  O1460  1  0.699900  0.134500  0.124600  1
  O  O1461  1  0.833900  0.919600  0.417100  1
  O  O1462  1  0.166100  0.080400  0.582900  1
  O  O1463  1  0.808300  0.841000  0.410300  1
  O  O1464  1  0.191700  0.159000  0.589700  1
  O  O1465  1  0.756600  0.882900  0.391700  1
  O  O1466  1  0.243400  0.117100  0.608300  1
  O  O1467  1  0.883000  0.887400  0.440400  1
  O  O1468  1  0.117000  0.112600  0.559600  1
  O  O1469  1  0.022800  0.664800  0.774800  1
  O  O1470  1  0.977200  0.335200  0.225200  1
  O  O1471  1  0.027600  0.668300  0.709800  1
  O  O1472  1  0.972400  0.331700  0.290200  1
  O  O1473  1  0.037600  0.737200  0.760900  1
  O  O1474  1  0.962400  0.262800  0.239100  1
  O  O1475  1  0.093600  0.117700  0.278600  1
  O  O1476  1  0.906400  0.882300  0.721400  1
  O  O1477  1  0.075600  0.065900  0.219300  1
  O  O1478  1  0.924400  0.934100  0.780700  1
  O  O1479  1  0.066800  0.032000  0.270800  1
  O  O1480  1  0.933200  0.968000  0.729200  1
  O  O1481  1  0.320200  0.646100  0.895600  1
  O  O1482  1  0.679800  0.353900  0.104400  1
  O  O1483  1  0.264700  0.674200  0.868800  1
  O  O1484  1  0.735300  0.325800  0.131200  1
  O  O1485  1  0.255500  0.590500  0.856100  1
  O  O1486  1  0.744500  0.409500  0.143900  1
  O  O1487  1  0.827200  0.377900  0.589100  1
  O  O1488  1  0.172800  0.622100  0.410900  1
  O  O1489  1  0.774300  0.321400  0.617800  1
  O  O1490  1  0.225700  0.678600  0.382200  1
  O  O1491  1  0.810600  0.399000  0.651100  1
  O  O1492  1  0.189400  0.601000  0.348900  1
  O  O1493  1  0.146800  0.204700  0.151100  1
  O  O1494  1  0.853200  0.795300  0.848900  1
  O  O1495  1  0.232900  0.208000  0.149400  1
  O  O1496  1  0.767100  0.792000  0.850600  1
  O  O1497  1  0.322000  0.266000  0.142300  1
  O  O1498  1  0.678000  0.734000  0.857700  1
  O  O1499  1  0.300600  0.339800  0.170400  1
  O  O1500  1  0.699400  0.660200  0.829600  1
  O  O1501  1  0.269800  0.830100  0.381400  1
  O  O1502  1  0.730200  0.169900  0.618600  1
  O  O1503  1  0.246300  0.896200  0.392000  1
  O  O1504  1  0.753700  0.103800  0.608000  1
  O  O1505  1  0.226000  0.842700  0.433100  1
  O  O1506  1  0.774000  0.157300  0.566900  1
  O  O1507  1  0.842700  0.601500  0.554100  1
  O  O1508  1  0.157300  0.398500  0.445900  1
  O  O1509  1  0.781900  0.621900  0.532500  1
  O  O1510  1  0.218100  0.378100  0.467500  1
  O  O1511  1  0.769900  0.598500  0.588800  1
  O  O1512  1  0.230100  0.401500  0.411200  1
  O  O1513  1  0.927700  0.737700  0.602000  1
  O  O1514  1  0.072300  0.262300  0.398000  1
  O  O1515  1  0.998300  0.738600  0.579600  1
  O  O1516  1  0.001700  0.261400  0.420400  1
  O  O1517  1  0.941400  0.745800  0.536500  1
  O  O1518  1  0.058600  0.254200  0.463500  1
  O  O1519  1  0.989300  0.847500  0.470400  1
  O  O1520  1  0.010700  0.152500  0.529600  1
  O  O1521  1  0.525200  0.259200  0.306400  1
  O  O1522  1  0.474800  0.740800  0.693600  1
  O  O1523  1  0.372500  0.193400  0.399500  1
  O  O1524  1  0.627500  0.806600  0.600500  1
  O  O1525  1  0.348300  0.206200  0.328700  1
  O  O1526  1  0.651700  0.793800  0.671300  1
  O  O1527  1  0.347200  0.103600  0.153200  1
  O  O1528  1  0.652800  0.896400  0.846800  1
  O  O1529  1  0.362800  0.157700  0.352100  1
  O  O1530  1  0.637200  0.842300  0.647900  1
  O  O1531  1  0.340100  0.166800  0.277900  1
  O  O1532  1  0.659900  0.833200  0.722100  1
  O  O1533  1  0.663000  0.299000  0.312000  1
  O  O1534  1  0.337000  0.701000  0.688000  1
  O  O1535  1  0.450600  0.134200  0.182300  1
  O  O1536  1  0.549400  0.865800  0.817700  1
  O  O1537  1  0.473500  0.085200  0.209900  1
  O  O1538  1  0.526500  0.914800  0.790100  1
  O  O1539  1  0.121000  0.436000  0.140000  1
  O  O1540  1  0.879000  0.564000  0.860000  1
  O  O1541  1  0.129300  0.479600  0.077900  1
  O  O1542  1  0.870700  0.520400  0.922100  1
  O  O1543  1  0.053100  0.405000  0.077700  1
  O  O1544  1  0.946900  0.595000  0.922300  1
  O  O1545  1  0.238600  0.815800  0.137500  1
  O  O1546  1  0.761400  0.184200  0.862500  1
  O  O1547  1  0.205100  0.862000  0.109400  1
  O  O1548  1  0.794900  0.138000  0.890600  1
  O  O1549  1  0.270100  0.900200  0.156400  1
  O  O1550  1  0.729900  0.099800  0.843600  1
  O  O1551  1  0.114600  0.802900  0.157900  1
  O  O1552  1  0.885400  0.197100  0.842100  1
  O  O1553  1  0.751200  0.375600  0.392500  1
  O  O1554  1  0.248800  0.624400  0.607500  1
  O  O1555  1  0.747000  0.395600  0.333100  1
  O  O1556  1  0.253000  0.604400  0.666900  1
  O  O1557  1  0.770700  0.332100  0.334400  1
  O  O1558  1  0.229300  0.667900  0.665600  1
  O  O1559  1  0.885100  0.500600  0.519400  1
  O  O1560  1  0.114900  0.499400  0.480600  1
  O  O1561  1  0.891500  0.425300  0.503200  1
  O  O1562  1  0.108500  0.574700  0.496800  1
  O  O1563  1  0.861300  0.456100  0.456000  1
  O  O1564  1  0.138700  0.543900  0.544000  1
  O  O1565  1  0.891500  0.479300  0.603100  1
  O  O1566  1  0.108500  0.520700  0.396900  1
  O  O1567  1  0.924600  0.873700  0.433700  1
  O  O1568  1  0.075400  0.126300  0.566300  1
  O  O1569  1  0.319700  0.665800  0.888800  1
  O  O1570  1  0.680300  0.334200  0.111200  1
  O  O1571  1  0.259100  0.682200  0.860300  1
  O  O1572  1  0.740900  0.317800  0.139700  1
  O  O1573  1  0.332700  0.704000  0.835700  1
  O  O1574  1  0.667300  0.296000  0.164300  1
  O  O1575  1  0.230300  0.542100  0.849600  1
  O  O1576  1  0.769700  0.457900  0.150400  1
  O  O1577  1  0.281200  0.239000  0.153500  1
  O  O1578  1  0.718800  0.761000  0.846500  1
  O  O1579  1  0.270400  0.307000  0.183300  1
  O  O1580  1  0.729600  0.693000  0.816700  1
  O  O1581  1  0.339000  0.315500  0.153700  1
  O  O1582  1  0.661000  0.684500  0.846300  1
  O  O1583  1  0.351700  0.369000  0.147000  1
  O  O1584  1  0.648300  0.631000  0.853000  1
  O  O1585  1  0.831100  0.626700  0.528900  1
  O  O1586  1  0.168900  0.373300  0.471100  1
  O  O1587  1  0.827200  0.675700  0.484400  1
  O  O1588  1  0.172800  0.324300  0.515600  1
  O  O1589  1  0.762000  0.645000  0.517000  1
  O  O1590  1  0.238000  0.355000  0.483000  1
  O  O1591  1  0.848700  0.569500  0.563000  1
  O  O1592  1  0.151300  0.430500  0.437000  1
  O  O1593  1  0.937300  0.756800  0.624600  1
  O  O1594  1  0.062700  0.243200  0.375400  1
  O  O1595  1  0.976600  0.729200  0.574100  1
  O  O1596  1  0.023400  0.270800  0.425900  1
  O  O1597  1  0.006000  0.746300  0.642300  1
  O  O1598  1  0.994000  0.253700  0.357700  1
  O  O1599  1  0.886000  0.740400  0.529500  1
  O  O1600  1  0.114000  0.259600  0.470500  1
  O  O1601  1  0.045800  0.860300  0.523900  1
  O  O1602  1  0.954200  0.139700  0.476100  1
