
#######################################################################
#
#                 Cambridge Crystallographic Data Centre
#                                CCDC 
#
#######################################################################
#
# If this CIF has been generated from an entry in the Cambridge 
# Structural Database, then it will include bibliographic, chemical, 
# crystal, experimental, refinement or atomic coordinate data resulting 
# from the CCDC's data processing and validation procedures.
#
#######################################################################

data_OCUKED01
_chemical_formula_moiety         
'2(C108 H144 N36 Pd6 12+),4(C12 H8),24(N1 O3 1-),55(H2 O1)'
_chemical_name_systematic        
"tetrakis(\m~3~-2,4,6-tris(4-Pyridyl)-1,3,5-triazine)-hexakis(N,N,N',N'-tetramethylethylenediamine)-hexa-palladium bis(acenaphthylene) clathrate tetrakis(\m~3~-2,4,6-tris(4-pyridyl)-1,3,5-triazine)-hexakis(N,N,N',N'-tetramethylethylenediamine)-hexa-palladium acenaphthylene clathrate tetracosanitrate acenaphthylene solvate hydrate"
_symmetry_cell_setting           triclinic
_symmetry_space_group_name_H-M   'P -1'
_symmetry_Int_Tables_number      2
_space_group_name_Hall           '-P 1'
loop_
_symmetry_equiv_pos_site_id
_symmetry_equiv_pos_as_xyz
1 x,y,z
2 -x,-y,-z
_cell_length_a                   25.816(19)
_cell_length_b                   26.026(19)
_cell_length_c                   31.71(2)
_cell_angle_alpha                97.028(11)
_cell_angle_beta                 96.869(11)
_cell_angle_gamma                102.157(11)
_cell_volume                     20437.9
_exptl_crystal_colour            yellow
_exptl_crystal_description       plate
_cell_formula_units_Z            2
loop_
_atom_site_label
_atom_site_type_symbol
_atom_site_fract_x
_atom_site_fract_y
_atom_site_fract_z
Pd1 Pd 0.25060(5) 0.27847(5) 0.82159(4)
Pd2 Pd 0.53255(5) -0.04996(5) 0.68622(5)
Pd3 Pd 0.46238(7) 0.33747(6) 0.47444(5)
Pd4 Pd 0.71403(5) 0.30265(5) 1.03707(4)
Pd5 Pd 0.65526(5) 0.68078(4) 0.81907(4)
Pd6 Pd 0.93048(6) 0.34043(5) 0.68309(5)
N1 N 0.6175(5) 0.6206(4) 0.8482(4)
N2 N 0.5111(5) 0.3913(4) 0.9219(4)
N3 N 0.4974(5) 0.4591(4) 0.8835(4)
N4 N 0.5830(5) 0.4646(4) 0.9236(4)
N5 N 0.6635(5) 0.3417(5) 1.0081(4)
N6 N 0.3228(5) 0.3245(5) 0.8486(4)
N7 N 0.5246(7) 0.3713(6) 0.5198(5)
N8 N 0.7343(6) 0.4870(6) 0.6844(4)
N9 N 0.6435(6) 0.4796(5) 0.6512(5)
N10 N 0.6981(8) 0.4242(6) 0.6225(5)
N11 N 0.8714(5) 0.3793(5) 0.6689(5)
N12 N 0.6668(6) 0.6243(5) 0.7725(4)
N13 N 0.5854(5) 0.0141(5) 0.7212(4)
N14 N 0.7659(5) 0.2409(5) 0.8287(4)
N15 N 0.6903(5) 0.1696(5) 0.8293(4)
N16 N 0.7297(5) 0.1787(5) 0.7651(4)
N17 N 0.8802(5) 0.3010(5) 0.7199(4)
N18 N 0.7217(5) 0.2697(5) 0.9774(3)
N19 N 0.4375(7) 0.2869(6) 0.5149(4)
N20 N 0.3892(6) 0.1481(5) 0.6848(4)
N21 N 0.3779(6) 0.2190(6) 0.6450(4)
N22 N 0.4252(5) 0.1571(6) 0.6199(4)
N23 N 0.4874(5) 0.0018(5) 0.6705(4)
N24 N 0.2865(5) 0.2498(5) 0.7735(4)
C1 C 0.5657(6) 0.5994(6) 0.8371(5)
H1 H 0.5452 0.6133 0.8168
C2 C 0.5418(7) 0.5568(6) 0.8553(5)
H2 H 0.5043 0.5442 0.8496
C3 C 0.5717(6) 0.5328(5) 0.8815(4)
C4 C 0.6252(6) 0.5556(6) 0.8938(5)
H3 H 0.6464 0.5415 0.9136
C5 C 0.6472(7) 0.5999(6) 0.8762(5)
H4 H 0.6839 0.6157 0.8841
C6 C 0.5504(6) 0.4836(6) 0.8982(5)
C7 C 0.5607(7) 0.4187(7) 0.9340(5)
C8 C 0.4802(6) 0.4137(6) 0.8967(5)
C9 C 0.6829(7) 0.3909(7) 0.9952(5)
H5 H 0.7195 0.4070 1.0033
C10 C 0.6519(6) 0.4166(6) 0.9717(5)
H6 H 0.6664 0.4484 0.9620
C11 C 0.5960(6) 0.3924(6) 0.9627(4)
C12 C 0.5757(7) 0.3461(6) 0.9748(5)
H7 H 0.5389 0.3302 0.9680
C13 C 0.6107(7) 0.3220(6) 0.9977(5)
H8 H 0.5962 0.2895 1.0066
C14 C 0.3554(7) 0.3072(7) 0.8759(5)
H9 H 0.3427 0.2750 0.8859
C15 C 0.4055(7) 0.3339(6) 0.8898(5)
H10 H 0.4280 0.3179 0.9067
C16 C 0.4267(6) 0.3852(6) 0.8803(5)
C17 C 0.3915(7) 0.4030(7) 0.8541(5)
H11 H 0.4026 0.4366 0.8459
C18 C 0.3406(7) 0.3743(7) 0.8390(5)
H12 H 0.3173 0.3892 0.8216
C19 C 0.5192(8) 0.4085(8) 0.5513(6)
H13 H 0.4865 0.4190 0.5511
C20 C 0.5613(8) 0.4317(8) 0.5840(6)
H14 H 0.5571 0.4591 0.6047
C21 C 0.6081(7) 0.4161(7) 0.5871(6)
C22 C 0.6124(8) 0.3752(8) 0.5541(6)
H15 H 0.6441 0.3630 0.5540
C23 C 0.5697(9) 0.3544(9) 0.5233(7)
H16 H 0.5722 0.3260 0.5029
C24 C 0.6502(9) 0.4409(8) 0.6200(6)
C25 C 0.7374(8) 0.4462(8) 0.6547(6)
C26 C 0.6857(9) 0.5012(8) 0.6804(6)
C27 C 0.8308(8) 0.3598(8) 0.6381(7)
H17 H 0.8314 0.3282 0.6205
C28 C 0.7876(7) 0.3820(7) 0.6292(6)
H18 H 0.7621 0.3688 0.6044
C29 C 0.7830(7) 0.4245(7) 0.6584(6)
C30 C 0.8254(7) 0.4451(7) 0.6907(6)
H19 H 0.8248 0.4753 0.7100
C31 C 0.8683(7) 0.4224(7) 0.6954(6)
H20 H 0.8967 0.4376 0.7178
C32 C 0.7090(8) 0.6015(7) 0.7780(6)
H21 H 0.7343 0.6143 0.8030
C33 C 0.7172(8) 0.5617(7) 0.7501(6)
H22 H 0.7464 0.5460 0.7559
C34 C 0.6818(7) 0.5452(7) 0.7131(5)
C35 C 0.6385(7) 0.5686(7) 0.7070(6)
H23 H 0.6130 0.5569 0.6820
C36 C 0.6325(7) 0.6091(7) 0.7372(6)
H24 H 0.6038 0.6257 0.7324
C37 C 0.6213(7) 0.0416(7) 0.7020(5)
H25 H 0.6235 0.0289 0.6734
C38 C 0.6570(6) 0.0893(6) 0.7222(5)
H26 H 0.6813 0.1091 0.7070
C39 C 0.6553(6) 0.1060(6) 0.7639(5)
C40 C 0.6184(6) 0.0779(6) 0.7845(5)
H27 H 0.6153 0.0898 0.8131
C41 C 0.5843(6) 0.0299(6) 0.7615(5)
H28 H 0.5601 0.0089 0.7759
C42 C 0.6937(7) 0.1543(6) 0.7879(5)
C43 C 0.7649(6) 0.2227(6) 0.7881(5)
C44 C 0.7258(6) 0.2128(6) 0.8478(5)
C45 C 0.8786(7) 0.3212(7) 0.7598(6)
H29 H 0.9024 0.3534 0.7724
C46 C 0.8417(6) 0.2949(6) 0.7836(5)
H30 H 0.8415 0.3086 0.8124
C47 C 0.8065(5) 0.2499(5) 0.7648(4)
C48 C 0.8091(7) 0.2301(7) 0.7236(5)
H31 H 0.7850 0.1984 0.7102
C49 C 0.8470(7) 0.2562(7) 0.7010(6)
H32 H 0.8489 0.2421 0.6726
C50 C 0.6857(6) 0.2260(6) 0.9561(5)
H33 H 0.6586 0.2088 0.9703
C51 C 0.6877(6) 0.2071(6) 0.9161(5)
H34 H 0.6629 0.1757 0.9030
C52 C 0.7243(6) 0.2313(6) 0.8929(5)
C53 C 0.7596(7) 0.2761(6) 0.9155(5)
H35 H 0.7866 0.2940 0.9016
C54 C 0.7575(6) 0.2959(6) 0.9567(5)
H36 H 0.7812 0.3277 0.9703
C55 C 0.4561(8) 0.2426(8) 0.5188(6)
H37 H 0.4774 0.2327 0.4985
C56 C 0.4465(8) 0.2103(8) 0.5504(6)
H38 H 0.4600 0.1795 0.5512
C57 C 0.4152(7) 0.2264(7) 0.5814(5)
C58 C 0.3961(7) 0.2736(7) 0.5773(6)
H39 H 0.3750 0.2852 0.5971
C59 C 0.4086(8) 0.3023(8) 0.5444(6)
H40 H 0.3964 0.3336 0.5428
C60 C 0.4050(7) 0.1990(8) 0.6170(6)
C61 C 0.4167(7) 0.1325(7) 0.6551(6)
C62 C 0.3705(7) 0.1898(8) 0.6788(6)
C63 C 0.4552(7) 0.0147(6) 0.6978(5)
H41 H 0.4498 -0.0037 0.7212
C64 C 0.4286(7) 0.0574(7) 0.6911(5)
H42 H 0.4033 0.0649 0.7085
C65 C 0.4407(6) 0.0869(6) 0.6587(5)
C66 C 0.4742(7) 0.0707(7) 0.6324(6)
H43 H 0.4805 0.0883 0.6087
C67 C 0.4988(7) 0.0308(7) 0.6387(6)
H44 H 0.5238 0.0231 0.6210
C68 C 0.2881(7) 0.2685(7) 0.7387(6)
H45 H 0.2703 0.2960 0.7347
C69 C 0.3144(7) 0.2512(7) 0.7057(6)
H46 H 0.3145 0.2663 0.6802
C70 C 0.3410(7) 0.2095(7) 0.7122(5)
C71 C 0.3387(7) 0.1911(7) 0.7492(5)
H47 H 0.3568 0.1644 0.7550
C72 C 0.3116(7) 0.2092(7) 0.7784(5)
H48 H 0.3095 0.1934 0.8034
N25 N 0.2143(6) 0.3048(6) 0.8702(5)
N26 N 0.1772(6) 0.2280(6) 0.7965(5)
N27 N 0.4810(7) -0.1124(7) 0.6485(5)
N28 N 0.5788(7) -0.1018(6) 0.7009(5)
N29 N 0.3995(7) 0.3043(7) 0.4269(5)
N30 N 0.4821(7) 0.3905(7) 0.4353(5)
N31 N 0.7634(6) 0.2611(6) 1.0655(5)
N32 N 0.7082(6) 0.3349(6) 1.0987(4)
N33 N 0.6942(6) 0.7411(6) 0.7904(5)
N34 N 0.6452(5) 0.7410(5) 0.8654(4)
N35 N 0.9894(7) 0.3000(7) 0.6969(6)
N36 N 0.9806(8) 0.3774(8) 0.6442(6)
C73 C 0.2380(11) 0.2962(11) 0.9102(8)
H49 H 0.2743 0.3179 0.9170
H50 H 0.2388 0.2590 0.9090
H51 H 0.2173 0.3059 0.9322
C74 C 0.2179(9) 0.3581(9) 0.8746(7)
H52 H 0.2514 0.3766 0.8924
H53 H 0.1882 0.3664 0.8879
H54 H 0.2167 0.3694 0.8465
C75 C 0.1586(10) 0.2738(10) 0.8596(8)
H55 H 0.1520 0.2525 0.8827
H56 H 0.1356 0.2993 0.8614
C76 C 0.1416(16) 0.2424(17) 0.8240(13)
H57 H 0.1165 0.2583 0.8071
H58 H 0.1206 0.2093 0.8308
C77 C 0.1763(10) 0.1753(10) 0.7971(8)
H59 H 0.2010 0.1645 0.7789
H60 H 0.1404 0.1542 0.7865
H61 H 0.1870 0.1699 0.8263
C78 C 0.1554(10) 0.2332(10) 0.7541(8)
H62 H 0.1591 0.2706 0.7518
H63 H 0.1178 0.2152 0.7482
H64 H 0.1746 0.2173 0.7335
C79 C 0.4270(9) -0.1203(9) 0.6558(7)
H65 H 0.4098 -0.1578 0.6488
H66 H 0.4082 -0.1003 0.6378
H67 H 0.4259 -0.1081 0.6858
C80 C 0.4827(11) -0.1125(11) 0.6051(9)
H68 H 0.4963 -0.0766 0.5998
H69 H 0.4469 -0.1262 0.5892
H70 H 0.5060 -0.1350 0.5957
C81 C 0.4981(15) -0.1583(15) 0.6616(12)
H71 H 0.4800 -0.1693 0.6856
H72 H 0.4876 -0.1878 0.6376
C82 C 0.5444(16) -0.1492(15) 0.6720(12)
H73 H 0.5597 -0.1505 0.6452
H74 H 0.5512 -0.1799 0.6849
C83 C 0.5813(9) -0.1101(9) 0.7411(7)
H75 H 0.6069 -0.1317 0.7469
H76 H 0.5462 -0.1284 0.7460
H77 H 0.5925 -0.0762 0.7600
C84 C 0.6360(11) -0.0851(11) 0.6958(9)
H78 H 0.6385 -0.0733 0.6681
H79 H 0.6529 -0.1148 0.6976
H80 H 0.6539 -0.0561 0.7185
C85 C 0.3975(12) 0.2446(12) 0.4131(9)
H81 H 0.3963 0.2265 0.4381
H82 H 0.4291 0.2411 0.4003
H83 H 0.3656 0.2289 0.3923
C86 C 0.3511(10) 0.3083(10) 0.4424(8)
H84 H 0.3362 0.3348 0.4292
H85 H 0.3581 0.3186 0.4734
H86 H 0.3257 0.2741 0.4353
C87 C 0.4056(11) 0.3325(11) 0.3889(8)
H87 H 0.4214 0.3125 0.3676
H88 H 0.3705 0.3358 0.3753
C88 C 0.4341(14) 0.3755(14) 0.4011(11)
H89 H 0.4102 0.3983 0.4098
H90 H 0.4469 0.3877 0.3753
C89 C 0.5331(18) 0.3919(19) 0.4312(14)
H91 H 0.5528 0.3899 0.4588
H92 H 0.5487 0.4249 0.4215
H93 H 0.5349 0.3620 0.4104
C90 C 0.4885(9) 0.4457(8) 0.4565(7)
H94 H 0.4711 0.4653 0.4373
H95 H 0.5263 0.4627 0.4637
H96 H 0.4723 0.4455 0.4826
C91 C 0.7407(9) 0.2041(9) 1.0571(7)
H97 H 0.7062 0.1970 1.0390
H98 H 0.7362 0.1909 1.0840
H99 H 0.7647 0.1864 1.0426
C92 C 0.8183(9) 0.2747(9) 1.0557(7)
H100 H 0.8430 0.2695 1.0795
H101 H 0.8270 0.3115 1.0513
H102 H 0.8211 0.2519 1.0299
C93 C 0.7576(13) 0.2724(13) 1.1134(9)
H103 H 0.7379 0.2392 1.1210
H104 H 0.7938 0.2800 1.1298
C94 C 0.7342(12) 0.3110(12) 1.1281(9)
H105 H 0.7619 0.3387 1.1469
H106 H 0.7083 0.2960 1.1461
C95 C 0.6519(10) 0.3252(10) 1.1046(8)
H107 H 0.6382 0.2875 1.1044
H108 H 0.6315 0.3369 1.0814
H109 H 0.6487 0.3447 1.1319
C96 C 0.7287(10) 0.3944(10) 1.1060(8)
H110 H 0.7069 0.4100 1.0864
H111 H 0.7656 0.4031 1.1008
H112 H 0.7267 0.4085 1.1354
C97 C 0.7507(12) 0.7355(13) 0.7983(10)
H113 H 0.7612 0.7356 0.8287
H114 H 0.7740 0.7650 0.7890
H115 H 0.7537 0.7023 0.7822
C98 C 0.6790(9) 0.7414(9) 0.7480(7)
H116 H 0.6841 0.7778 0.7425
H117 H 0.6415 0.7235 0.7400
H118 H 0.7005 0.7230 0.7313
C99 C 0.6927(16) 0.7956(16) 0.8206(12)
H119 H 0.7295 0.8172 0.8282
H120 H 0.6721 0.8156 0.8036
C100 C 0.6732(9) 0.7904(8) 0.8545(7)
H121 H 0.6485 0.8143 0.8560
H122 H 0.7028 0.8052 0.8781
C101 C 0.6702(9) 0.7339(9) 0.9055(6)
H123 H 0.6450 0.7101 0.9186
H124 H 0.6821 0.7680 0.9240
H125 H 0.7009 0.7188 0.9014
C102 C 0.5912(8) 0.7366(8) 0.8662(6)
H126 H 0.5778 0.7078 0.8816
H127 H 0.5723 0.7292 0.8370
H128 H 0.5855 0.7696 0.8805
C103 C 1.0121(9) 0.3078(9) 0.7397(7)
H129 H 0.9848 0.2953 0.7570
H130 H 1.0274 0.3454 0.7493
H131 H 1.0401 0.2882 0.7430
C104 C 0.9597(13) 0.2417(13) 0.6837(10)
H132 H 0.9848 0.2206 0.6760
H133 H 0.9322 0.2387 0.6593
H134 H 0.9432 0.2290 0.7076
C105 C 1.0305(13) 0.3165(13) 0.6631(10)
H135 H 1.0663 0.3120 0.6735
H136 H 1.0176 0.2945 0.6349
C106 C 1.0316(14) 0.3667(15) 0.6605(11)
H137 H 1.0577 0.3792 0.6418
H138 H 1.0442 0.3875 0.6892
C107 C 0.9931(10) 0.4370(10) 0.6577(8)
H139 H 0.9609 0.4500 0.6513
H140 H 1.0205 0.4538 0.6421
H141 H 1.0059 0.4454 0.6883
C108 C 0.9530(13) 0.3610(13) 0.5996(10)
H142 H 0.9276 0.3827 0.5937
H143 H 0.9342 0.3239 0.5958
H144 H 0.9792 0.3655 0.5800
Pd7 Pd -0.04673(5) -0.37433(5) 0.95732(4)
Pd8 Pd 0.24723(6) -0.02565(6) 0.54413(5)
Pd9 Pd 0.31945(6) -0.42798(6) 0.71416(5)
Pd10 Pd -0.16058(7) -0.41916(6) 0.54206(5)
Pd11 Pd 0.35458(5) 0.03184(4) 0.96280(4)
Pd12 Pd -0.11876(6) 0.03186(6) 0.78751(6)
N37 N 0.3423(5) -0.0162(4) 0.9045(4)
N38 N 0.3130(6) -0.1660(6) 0.7058(4)
N39 N 0.3255(6) -0.1595(6) 0.7814(5)
N40 N 0.3141(6) -0.0855(5) 0.7478(4)
N41 N 0.2755(6) -0.0508(6) 0.5967(5)
N42 N 0.3225(6) -0.3500(6) 0.7254(4)
N43 N 0.1748(6) -0.0501(5) 0.5599(5)
N44 N -0.0582(6) -0.1588(6) 0.6365(5)
N45 N 0.0059(6) -0.1675(6) 0.5905(5)
N46 N 0.0169(6) -0.0845(6) 0.6384(5)
N47 N -0.0919(6) -0.0127(6) 0.7425(5)
N48 N -0.1242(6) -0.3399(6) 0.5602(5)
N49 N 0.2758(5) 0.0027(4) 0.9635(4)
N50 N 0.0073(6) -0.1145(6) 0.9196(5)
N51 N 0.0939(5) -0.1179(5) 0.9510(5)
N52 N 0.0787(5) -0.0421(5) 0.9207(5)
N53 N -0.0752(6) 0.0050(6) 0.8332(6)
N54 N -0.0181(4) -0.2966(5) 0.9563(4)
N55 N -0.1136(6) -0.4320(5) 0.5927(4)
N56 N 0.0700(6) -0.4230(6) 0.7742(5)
N57 N -0.0156(6) -0.4187(7) 0.7410(5)
N58 N 0.0474(7) -0.4340(6) 0.6974(5)
N59 N 0.2395(6) -0.4373(6) 0.7200(5)
N60 N -0.0249(5) -0.3866(5) 0.8991(4)
C109 C 0.3504(6) -0.0629(7) 0.9024(5)
H145 H 0.3617 -0.0753 0.9278
C110 C 0.3429(7) -0.0956(7) 0.8635(5)
H146 H 0.3473 -0.1307 0.8627
C111 C 0.3291(7) -0.0775(7) 0.8266(6)
C112 C 0.3224(7) -0.0245(7) 0.8310(6)
H147 H 0.3135 -0.0093 0.8065
C113 C 0.3288(6) 0.0029(7) 0.8693(5)
H148 H 0.3236 0.0378 0.8718
C114 C 0.3214(7) -0.1093(7) 0.7826(6)
C115 C 0.3096(7) -0.1138(7) 0.7127(6)
C116 C 0.3202(7) -0.1869(7) 0.7425(7)
C117 C 0.2862(7) -0.0201(7) 0.6357(6)
H149 H 0.2859 0.0161 0.6373
C118 C 0.2975(7) -0.0397(7) 0.6728(6)
H150 H 0.3018 -0.0177 0.6994
C119 C 0.3026(7) -0.0922(7) 0.6718(6)
C120 C 0.2900(7) -0.1249(7) 0.6325(5)
H151 H 0.2896 -0.1612 0.6307
C121 C 0.2780(7) -0.1034(8) 0.5966(6)
H152 H 0.2709 -0.1258 0.5699
C122 C 0.3134(9) -0.3260(9) 0.6933(8)
H153 H 0.3080 -0.3456 0.6656
C123 C 0.3110(9) -0.2720(9) 0.6971(7)
H154 H 0.3010 -0.2570 0.6727
C124 C 0.3239(7) -0.2412(7) 0.7381(6)
C125 C 0.3369(7) -0.2667(7) 0.7712(6)
H155 H 0.3459 -0.2482 0.7994
C126 C 0.3369(7) -0.3194(7) 0.7635(6)
H156 H 0.3479 -0.3353 0.7871
C127 C 0.1481(8) -0.1010(8) 0.5466(6)
H157 H 0.1628 -0.1223 0.5274
C128 C 0.1001(8) -0.1239(8) 0.5597(6)
H158 H 0.0817 -0.1586 0.5473
C129 C 0.0793(9) -0.0958(9) 0.5910(7)
C130 C 0.1087(8) -0.0399(8) 0.6065(7)
H159 H 0.0962 -0.0173 0.6263
C131 C 0.1584(8) -0.0221(9) 0.5890(7)
H160 H 0.1795 0.0121 0.6000
C132 C 0.0308(8) -0.1173(8) 0.6079(6)
C133 C -0.0295(8) -0.1065(8) 0.6509(6)
C134 C -0.0387(8) -0.1833(8) 0.6068(6)
C135 C -0.0455(9) 0.0066(9) 0.7291(6)
H161 H -0.0271 0.0420 0.7395
C136 C -0.0241(9) -0.0241(8) 0.7007(6)
H162 H 0.0098 -0.0099 0.6935
C137 C -0.0509(8) -0.0756(8) 0.6820(6)
C138 C -0.0965(8) -0.0935(8) 0.6996(6)
H163 H -0.1155 -0.1288 0.6900
C139 C -0.1165(8) -0.0640(8) 0.7298(6)
H164 H -0.1469 -0.0795 0.7415
C140 C -0.1398(9) -0.3118(8) 0.5896(7)
H165 H -0.1704 -0.3281 0.6004
C141 C -0.1160(8) -0.2591(8) 0.6077(6)
H166 H -0.1292 -0.2388 0.6287
C142 C -0.0678(7) -0.2404(7) 0.5890(6)
C143 C -0.0516(9) -0.2699(8) 0.5613(6)
H167 H -0.0190 -0.2576 0.5513
C144 C -0.0829(8) -0.3214(8) 0.5455(6)
H168 H -0.0723 -0.3424 0.5233
C145 C 0.2405(7) 0.0287(7) 0.9462(5)
H169 H 0.2536 0.0621 0.9382
C146 C 0.1848(8) 0.0074(8) 0.9396(6)
H170 H 0.1605 0.0258 0.9274
C147 C 0.1673(6) -0.0428(6) 0.9523(5)
C148 C 0.2044(6) -0.0674(6) 0.9707(5)
H171 H 0.1933 -0.1007 0.9795
C149 C 0.2581(7) -0.0428(7) 0.9761(5)
H172 H 0.2830 -0.0596 0.9894
C150 C 0.1100(7) -0.0686(7) 0.9406(5)
C151 C 0.0300(9) -0.0648(8) 0.9106(6)
C152 C 0.0442(8) -0.1378(7) 0.9390(5)
C153 C -0.0931(9) -0.0415(8) 0.8462(6)
H173 H -0.1292 -0.0590 0.8375
C154 C -0.0614(8) -0.0644(8) 0.8715(6)
H174 H -0.0763 -0.0968 0.8802
C155 C -0.0074(7) -0.0409(7) 0.8848(5)
C156 C 0.0094(8) 0.0056(7) 0.8735(6)
H175 H 0.0448 0.0246 0.8836
C157 C -0.0239(8) 0.0279(8) 0.8467(6)
H176 H -0.0094 0.0604 0.8379
C158 C 0.0323(7) -0.2732(7) 0.9709(5)
H177 H 0.0543 -0.2922 0.9852
C159 C 0.0549(8) -0.2193(7) 0.9656(5)
H178 H 0.0913 -0.2035 0.9753
C160 C 0.0223(7) -0.1921(7) 0.9464(5)
C161 C -0.0356(9) -0.2185(9) 0.9326(7)
H179 H -0.0601 -0.2008 0.9198
C162 C -0.0507(9) -0.2697(8) 0.9396(6)
H180 H -0.0871 -0.2869 0.9319
C163 C -0.0650(9) -0.4384(8) 0.5889(7)
H181 H -0.0549 -0.4414 0.5613
C164 C -0.0275(9) -0.4410(8) 0.6242(7)
H182 H 0.0059 -0.4480 0.6201
C165 C -0.0411(8) -0.4329(8) 0.6654(6)
C166 C -0.0947(7) -0.4297(7) 0.6670(6)
H183 H -0.1076 -0.4284 0.6936
C167 C -0.1271(7) -0.4285(7) 0.6319(6)
H184 H -0.1621 -0.4249 0.6348
C168 C -0.0004(9) -0.4259(8) 0.7057(7)
C169 C 0.0800(8) -0.4305(7) 0.7340(7)
C170 C 0.0218(9) -0.4158(8) 0.7762(7)
C171 C 0.2237(8) -0.4398(7) 0.7580(6)
H185 H 0.2484 -0.4427 0.7813
C172 C 0.1729(8) -0.4383(7) 0.7645(6)
H186 H 0.1622 -0.4411 0.7916
C173 C 0.1381(8) -0.4325(8) 0.7307(7)
C174 C 0.1525(9) -0.4318(8) 0.6876(7)
H187 H 0.1287 -0.4285 0.6636
C175 C 0.2023(11) -0.4361(9) 0.6857(8)
H188 H 0.2132 -0.4387 0.6584
C176 C -0.0577(7) -0.3882(6) 0.8628(6)
H189 H -0.0923 -0.3835 0.8654
C177 C -0.0456(8) -0.3957(7) 0.8239(6)
H190 H -0.0699 -0.3938 0.7999
C178 C 0.0061(7) -0.4069(7) 0.8188(6)
C179 C 0.0384(8) -0.4070(8) 0.8533(6)
H191 H 0.0720 -0.4147 0.8509
C180 C 0.0234(8) -0.3955(7) 0.8962(6)
H192 H 0.0476 -0.3945 0.9211
N61 N 0.4356(5) 0.0603(5) 0.9626(4)
N62 N 0.3660(6) 0.0809(6) 1.0216(5)
C181 C 0.4452(9) 0.0976(8) 0.9306(6)
H193 H 0.4371 0.1311 0.9413
H194 H 0.4223 0.0823 0.9035
H195 H 0.4824 0.1037 0.9263
C182 C 0.4651(9) 0.0190(8) 0.9518(7)
H196 H 0.4599 -0.0068 0.9714
H197 H 0.5029 0.0352 0.9542
H198 H 0.4517 0.0012 0.9226
C183 C 0.4576(8) 0.0855(9) 1.0053(6)
H199 H 0.4688 0.0590 1.0215
H200 H 0.4897 0.1128 1.0042
C184 C 0.4233(7) 0.1087(9) 1.0271(7)
H201 H 0.4250 0.1440 1.0187
H202 H 0.4373 0.1142 1.0578
C185 C 0.3276(8) 0.1150(9) 1.0204(8)
H203 H 0.2918 0.0934 1.0101
H204 H 0.3368 0.1407 1.0012
H205 H 0.3287 0.1336 1.0490
C186 C 0.3589(10) 0.0490(9) 1.0555(7)
H206 H 0.3390 0.0133 1.0433
H207 H 0.3392 0.0647 1.0758
H208 H 0.3937 0.0476 1.0701
N63 N -0.0770(6) -0.4534(6) 0.9586(5)
N64 N -0.0701(6) -0.3638(6) 1.0162(5)
C187 C -0.0394(9) -0.4872(9) 0.9466(7)
H209 H -0.0399 -0.4916 0.9157
H210 H -0.0504 -0.5217 0.9554
H211 H -0.0034 -0.4702 0.9609
C188 C -0.1269(8) -0.4738(10) 0.9293(7)
H212 H -0.1355 -0.5123 0.9254
H213 H -0.1232 -0.4618 0.9018
H214 H -0.1555 -0.4608 0.9412
C189 C -0.0895(11) -0.4594(9) 1.0007(7)
H215 H -0.1199 -0.4900 0.9983
H216 H -0.0588 -0.4674 1.0178
C190 C -0.1019(8) -0.4161(7) 1.0220(6)
H217 H -0.0976 -0.4186 1.0527
H218 H -0.1398 -0.4174 1.0127
C191 C -0.0264(9) -0.3403(10) 1.0509(8)
H219 H -0.0408 -0.3339 1.0775
H220 H -0.0066 -0.3069 1.0445
H221 H -0.0026 -0.3644 1.0540
C192 C -0.1043(10) -0.3256(9) 1.0181(9)
H222 H -0.1295 -0.3323 0.9917
H223 H -0.0823 -0.2898 1.0217
H224 H -0.1239 -0.3295 1.0423
N65 N 0.3976(6) -0.4171(5) 0.7060(5)
N66 N 0.3153(5) -0.5070(5) 0.6976(5)
C193 C 0.4322(9) -0.4014(9) 0.7478(6)
H225 H 0.4692 -0.3999 0.7438
H226 H 0.4214 -0.4272 0.7665
H227 H 0.4290 -0.3666 0.7606
C194 C 0.4152(11) -0.3748(9) 0.6809(7)
H228 H 0.4493 -0.3776 0.6721
H229 H 0.4190 -0.3405 0.6983
H230 H 0.3888 -0.3783 0.6556
C195 C 0.4015(10) -0.4659(8) 0.6828(8)
H231 H 0.3891 -0.4665 0.6522
H232 H 0.4393 -0.4677 0.6857
C196 C 0.3723(7) -0.5102(8) 0.6961(7)
H233 H 0.3889 -0.5137 0.7247
H234 H 0.3730 -0.5420 0.6763
C197 C 0.2918(9) -0.5378(9) 0.7288(7)
H235 H 0.3096 -0.5667 0.7322
H236 H 0.2539 -0.5522 0.7188
H237 H 0.2964 -0.5150 0.7562
C198 C 0.2860(9) -0.5274(10) 0.6551(6)
H238 H 0.2938 -0.5613 0.6450
H239 H 0.2967 -0.5024 0.6356
H240 H 0.2479 -0.5322 0.6560
N67 N -0.1987(8) -0.4974(7) 0.5231(6)
N68 N -0.2120(7) -0.4039(6) 0.4927(6)
C199 C -0.2141(10) -0.5258(10) 0.5599(7)
H241 H -0.1822 -0.5318 0.5762
H242 H -0.2388 -0.5596 0.5488
H243 H -0.2311 -0.5041 0.5784
C200 C -0.1631(10) -0.5256(12) 0.5025(8)
H244 H -0.1327 -0.5261 0.5234
H245 H -0.1507 -0.5076 0.4793
H246 H -0.1823 -0.5618 0.4910
C201 C -0.2427(10) -0.4967(11) 0.4927(9)
H247 H -0.2517 -0.5306 0.4731
H248 H -0.2733 -0.4952 0.5079
C202 C -0.2372(11) -0.4568(8) 0.4683(7)
H249 H -0.2728 -0.4560 0.4540
H250 H -0.2157 -0.4648 0.4460
C203 C -0.2486(10) -0.3740(10) 0.5081(8)
H251 H -0.2710 -0.3665 0.4839
H252 H -0.2285 -0.3408 0.5254
H253 H -0.2710 -0.3945 0.5256
C204 C -0.1843(10) -0.3750(10) 0.4633(8)
H254 H -0.2101 -0.3686 0.4408
H255 H -0.1612 -0.3955 0.4506
H256 H -0.1627 -0.3412 0.4786
N69 N -0.1482(6) 0.0780(6) 0.8321(4)
N70 N -0.1651(7) 0.0598(7) 0.7420(5)
C205 C -0.1044(8) 0.1200(8) 0.8579(7)
H257 H -0.0913 0.1075 0.8838
H258 H -0.1176 0.1516 0.8655
H259 H -0.0754 0.1284 0.8412
C206 C -0.1755(8) 0.0465(8) 0.8614(6)
H260 H -0.1876 0.0098 0.8478
H261 H -0.2060 0.0603 0.8684
H262 H -0.1508 0.0487 0.8876
C207 C -0.1866(10) 0.0998(11) 0.8093(7)
H263 H -0.2217 0.0831 0.8161
H264 H -0.1794 0.1376 0.8213
C208 C -0.1914(10) 0.0967(10) 0.7659(6)
H265 H -0.1775 0.1324 0.7594
H266 H -0.2297 0.0868 0.7545
C209 C -0.1343(10) 0.0823(10) 0.7095(8)
H267 H -0.1364 0.0546 0.6854
H268 H -0.0971 0.0963 0.7222
H269 H -0.1491 0.1106 0.6994
C210 C -0.2069(10) 0.0181(9) 0.7179(8)
H270 H -0.2133 -0.0116 0.7339
H271 H -0.1964 0.0065 0.6906
H272 H -0.2394 0.0309 0.7128
N71 N 0.2171(7) 0.0014(8) 0.4912(6)
N72 N 0.3199(6) -0.0017(7) 0.5263(5)
C211 C 0.1868(11) 0.0422(10) 0.5032(9)
H273 H 0.1497 0.0297 0.4899
H274 H 0.2023 0.0751 0.4932
H275 H 0.1887 0.0486 0.5341
C212 C 0.1813(9) -0.0408(9) 0.4589(7)
H276 H 0.1634 -0.0688 0.4732
H277 H 0.2021 -0.0553 0.4389
H278 H 0.1547 -0.0260 0.4433
C213 C 0.2609(9) 0.0253(16) 0.4717(11)
H279 H 0.2535 0.0101 0.4411
H280 H 0.2612 0.0632 0.4734
C214 C 0.3115(9) 0.0215(11) 0.4869(7)
H281 H 0.3347 0.0574 0.4917
H282 H 0.3241 0.0005 0.4642
C215 C 0.3581(10) 0.0362(9) 0.5616(7)
H283 H 0.3735 0.0163 0.5817
H284 H 0.3390 0.0594 0.5765
H285 H 0.3865 0.0575 0.5495
C216 C 0.3468(12) -0.0441(10) 0.5168(9)
H286 H 0.3292 -0.0660 0.4898
H287 H 0.3453 -0.0658 0.5396
H288 H 0.3839 -0.0291 0.5146
C217 C 0.5840(10) 0.4010(11) 0.8217(7)
H289 H 0.5969 0.3860 0.8452
C218 C 0.6136(9) 0.4486(10) 0.8127(8)
H290 H 0.6462 0.4668 0.8296
C219 C 0.5917(10) 0.4674(10) 0.7770(9)
H291 H 0.6132 0.4983 0.7702
C220 C 0.5458(12) 0.4490(10) 0.7511(9)
C221 C 0.5179(9) 0.3995(10) 0.7622(9)
C222 C 0.5335(10) 0.3744(10) 0.7954(9)
C223 C 0.5007(13) 0.3266(11) 0.8016(11)
H292 H 0.5097 0.3085 0.8243
C224 C 0.4551(14) 0.3077(13) 0.7729(12)
H293 H 0.4307 0.2769 0.7767
C225 C 0.4440(12) 0.3332(13) 0.7383(12)
H294 H 0.4146 0.3151 0.7177
C226 C 0.4703(11) 0.3807(13) 0.7305(9)
C227 C 0.4714(12) 0.4176(13) 0.6994(9)
H295 H 0.4453 0.4143 0.6752
C228 C 0.5168(13) 0.4580(12) 0.7111(9)
H296 H 0.5274 0.4864 0.6961
C229 C 0.5935(13) 0.2170(12) 0.7425(9)
H297 H 0.6142 0.2235 0.7204
C230 C 0.5464(14) 0.1785(12) 0.7350(11)
H298 H 0.5334 0.1581 0.7078
C231 C 0.5192(13) 0.1714(12) 0.7694(11)
H299 H 0.4872 0.1450 0.7622
C232 C 0.5275(13) 0.1926(14) 0.8094(11)
C233 C 0.5787(11) 0.2314(11) 0.8154(9)
C234 C 0.6101(11) 0.2468(11) 0.7850(9)
C235 C 0.6552(11) 0.2878(12) 0.7975(12)
H300 H 0.6791 0.2988 0.7785
C236 C 0.6624(12) 0.3110(13) 0.8389(12)
H301 H 0.6908 0.3410 0.8477
C237 C 0.6321(12) 0.2945(13) 0.8687(11)
H302 H 0.6428 0.3117 0.8972
C238 C 0.5874(12) 0.2549(13) 0.8601(9)
C239 C 0.5424(15) 0.2290(15) 0.8798(11)
H303 H 0.5401 0.2344 0.9093
C240 C 0.5045(14) 0.1960(16) 0.8493(13)
H304 H 0.4700 0.1786 0.8531
C241 C 0.5717(10) 0.3408(11) 0.6719(9)
H305 H 0.5542 0.3644 0.6861
C242 C 0.5444(11) 0.3030(12) 0.6376(9)
H306 H 0.5084 0.3011 0.6268
C243 C 0.5725(11) 0.2680(11) 0.6199(8)
H307 H 0.5513 0.2425 0.5975
C244 C 0.6208(12) 0.2625(12) 0.6272(9)
C245 C 0.6473(9) 0.3046(11) 0.6637(8)
C246 C 0.6278(10) 0.3432(10) 0.6857(8)
C247 C 0.6607(11) 0.3751(10) 0.7214(8)
H308 H 0.6480 0.4004 0.7387
C248 C 0.7111(11) 0.3689(11) 0.7306(8)
H309 H 0.7345 0.3927 0.7529
C249 C 0.7295(11) 0.3296(11) 0.7089(9)
H310 H 0.7644 0.3261 0.7182
C250 C 0.7003(11) 0.2955(12) 0.6747(9)
C251 C 0.7055(12) 0.2526(12) 0.6425(10)
H311 H 0.7368 0.2398 0.6417
C252 C 0.6599(13) 0.2330(13) 0.6134(10)
H312 H 0.6547 0.2062 0.5896
N73 N 0.5402(6) 0.7022(6) 0.7267(5)
O1 O 0.5472(9) 0.6783(8) 0.6949(5)
O2 O 0.5187(11) 0.7384(9) 0.7259(7)
O3 O 0.5497(6) 0.6875(6) 0.7611(4)
N74 N 0.448(2) 0.9009(11) 0.7809(10)
O4 O 0.4460(13) 0.8561(11) 0.7627(9)
O5 O 0.4610(11) 0.9380(10) 0.7618(8)
O6 O 0.4518(19) 0.9136(16) 0.8196(10)
N75 N 0.3889(14) 0.4479(15) 0.5708(9)
O7 O 0.3933(10) 0.4296(10) 0.5336(7)
O8 O 0.4306(12) 0.4654(12) 0.5970(9)
O9 O 0.3592(16) 0.417(2) 0.5888(13)
N76 N 0.3617(10) 0.5412(10) 0.8303(9)
O10 O 0.3414(6) 0.5711(6) 0.8107(4)
O11 O 0.3298(11) 0.5031(10) 0.8386(9)
O12 O 0.4060(11) 0.5549(13) 0.8507(10)
O13 O 0.2206(9) 0.3670(9) 0.7673(7)
O14 O 0.3208(10) 0.1381(10) 0.9099(8)
O15 O 0.8048(19) 0.6566(18) 0.8814(15)
O16 O 0.2903(10) 0.1788(10) 0.8782(7)
O17 O 0.5691(12) 0.8662(12) 0.8527(9)
O18 O 0.4702(9) 0.6500(9) 0.8704(7)
O19 O 0.9143(11) 0.3872(10) 1.0040(8)
O20 O 0.3813(9) 0.0902(9) 0.7974(7)
O21 O 0.8117(10) 1.1738(10) 0.9637(8)
O23 O 0.3038(11) 0.3936(11) 0.3763(9)
O24 O 0.2518(10) 0.4248(9) 0.3900(7)
O25 O 0.5932(10) 0.1152(10) 0.9557(8)
O26 O 0.7964(12) 0.1498(12) 0.6306(9)
O29 O 0.7736(11) 0.9162(11) 0.7840(9)
O30 O 0.2907(10) 0.5826(10) 0.6059(8)
O31 O 0.7988(9) 1.1573(9) 0.9028(8)
O32 O 0.2793(12) 0.0626(12) 0.7598(9)
O33 O 0.7261(12) 0.1191(12) 0.5938(10)
O34 O 0.8500(12) 0.6304(12) 0.7658(9)
O35 O 0.3184(15) 0.6135(16) 0.5642(12)
O37 O 0.4549(14) 0.0293(14) 0.8188(11)
O38 O 0.2405(17) 0.6365(17) 0.5896(13)
O39 O -0.0029(13) 1.1479(14) 0.7823(10)
O40 O 0.0755(12) 0.3660(13) 0.8527(10)
O41 O 0.4983(14) 0.7834(15) 0.7912(11)
O42 O 0.8523(12) 0.2436(12) 0.5912(9)
O43 O 0.8828(17) 1.2412(18) 0.9457(15)
O44 O 0.5676(14) 0.0556(14) 0.8745(10)
O45 O 0.7235(12) 0.3252(12) 0.5191(9)
O46 O 0.6030(11) -0.0159(11) 0.5970(9)
O47 O -0.0965(16) 0.9612(15) 0.5973(11)
O49 O 0.587(2) 0.202(2) 1.0434(16)
O50 O 0.2393(10) 0.8439(10) 0.4852(8)
O51 O 0.5859(17) -0.1149(17) 0.5472(13)
O52 O 0.8247(12) 0.5322(12) 0.8001(9)
O53 O 0.2217(13) 0.4793(14) 0.8352(10)
O54 O 0.7873(14) 0.6644(15) 0.6868(11)
O55 O 0.034(2) 0.475(2) 0.5517(17)
O56 O 0.720(2) 0.658(2) 0.9740(16)
O57 O 0.1194(15) 0.4782(16) 0.5927(12)
O62 O 0.2502(17) 0.1498(18) 0.6058(13)
O64 O 0.460(3) 0.724(3) 0.810(2)
O65 O 0.6332(17) 0.0769(18) 0.6034(13)
O66 O 0.2920(12) 0.3339(12) 0.6223(10)
O68 O 0.7465(16) 0.9098(17) 0.6323(13)
O71 O 0.7555(17) 1.1202(19) 0.9424(13)
O72 O 0.5202(16) 0.1125(17) 0.5321(13)
O73 O 0.253(2) 0.248(2) 0.5537(16)
O74 O 0.490(2) 0.912(2) 0.8895(16)
O75 O -0.2582(15) 0.5522(16) 0.9930(13)
O78 O 0.489(3) 0.739(3) 0.943(2)
O79 O 0.8566(17) 0.4323(17) 1.0702(14)
O82 O 0.6253(16) 0.4929(16) 0.5053(12)
O83 O 0.206(2) 0.088(2) 0.6846(19)
O84 O 0.2085(18) 0.3287(18) 0.6669(14)
O85 O 0.759(2) 0.866(2) 0.7254(16)
O86 O 0.1185(19) 0.5901(19) 0.5948(15)
O87 O 0.2793(14) 0.7371(15) 0.5946(11)
O88 O 0.3054(17) 0.1923(17) 0.4873(13)
O89 O 0.6127(12) 0.0605(13) 0.9802(9)
O90 O -0.035(3) 0.935(3) 0.537(3)
O91 O 0.012(2) 0.773(2) 0.4565(16)
O92 O 0.844(2) 0.799(2) 0.8813(18)
O93 O -0.003(2) 0.429(2) 0.5040(17)
O94 O 0.892(2) 0.456(2) 0.8156(17)
O95 O 0.9855(11) 0.4475(11) 0.7642(9)
O96 O -0.099(3) 0.852(3) 0.525(2)
O97 O 0.8155(19) 0.3903(19) 0.8612(15)
O99 O 0.684(2) 1.055(2) 0.8776(16)
O100 O 0.019(3) 0.700(3) 0.762(2)
O101 O 0.210(3) 0.752(3) 0.781(2)
O103 O 0.024(3) 0.215(3) 0.905(2)
O105 O 0.8876(18) 0.3682(18) 0.9213(14)
O106 O 1.055(2) 0.453(2) 0.7650(16)
O107 O 0.087(2) 0.190(2) 0.9280(16)
O108 O 0.113(2) 0.061(2) 0.7003(17)
O109 O 0.800(4) 0.771(4) 0.675(3)
O110 O 0.023(3) 0.848(4) 0.438(3)
O111 O 0.045(4) 0.750(4) 0.842(3)
O112 O 0.5442(10) 0.2569(10) 0.4389(8)
O113 O 0.6044(19) 0.242(2) 0.4181(15)
O115 O 0.788(2) 0.868(2) 0.9327(17)
O116 O 0.708(3) 0.929(3) 0.843(2)
O119 O 0.803(2) 0.886(2) 0.8813(19)
O120 O 0.081(4) 0.698(4) 0.739(3)
O121 O 0.007(4) 0.714(4) 0.700(3)
O123 O -0.180(4) 0.754(4) 0.503(3)
loop_
_geom_bond_atom_site_label_1
_geom_bond_atom_site_label_2
_geom_bond_site_symmetry_1
_geom_bond_site_symmetry_2
Pd1 N6 1_555 1_555
Pd2 N13 1_555 1_555
Pd3 N7 1_555 1_555
Pd4 N5 1_555 1_555
Pd5 N1 1_555 1_555
Pd6 N11 1_555 1_555
N1 C1 1_555 1_555
N2 C7 1_555 1_555
N3 C6 1_555 1_555
N4 C6 1_555 1_555
N5 C9 1_555 1_555
N6 C14 1_555 1_555
N7 C19 1_555 1_555
N8 C25 1_555 1_555
N9 C24 1_555 1_555
N10 C24 1_555 1_555
N11 C27 1_555 1_555
N12 Pd5 1_555 1_555
N13 C37 1_555 1_555
N14 C43 1_555 1_555
N15 C42 1_555 1_555
N16 C42 1_555 1_555
N17 Pd6 1_555 1_555
N18 Pd4 1_555 1_555
N19 Pd3 1_555 1_555
N20 C61 1_555 1_555
N21 C60 1_555 1_555
N22 C60 1_555 1_555
N23 Pd2 1_555 1_555
N24 Pd1 1_555 1_555
C1 H1 1_555 1_555
C2 C1 1_555 1_555
H2 C2 1_555 1_555
C3 C2 1_555 1_555
C4 C3 1_555 1_555
H3 C4 1_555 1_555
C5 N1 1_555 1_555
H4 C5 1_555 1_555
C6 C3 1_555 1_555
C7 N4 1_555 1_555
C8 N2 1_555 1_555
C9 H5 1_555 1_555
C10 C9 1_555 1_555
H6 C10 1_555 1_555
C11 C7 1_555 1_555
C12 C11 1_555 1_555
H7 C12 1_555 1_555
C13 N5 1_555 1_555
H8 C13 1_555 1_555
C14 H9 1_555 1_555
C15 C14 1_555 1_555
H10 C15 1_555 1_555
C16 C8 1_555 1_555
C17 C16 1_555 1_555
H11 C17 1_555 1_555
C18 N6 1_555 1_555
H12 C18 1_555 1_555
C19 H13 1_555 1_555
C20 C19 1_555 1_555
H14 C20 1_555 1_555
C21 C20 1_555 1_555
C22 C21 1_555 1_555
H15 C22 1_555 1_555
C23 N7 1_555 1_555
H16 C23 1_555 1_555
C24 C21 1_555 1_555
C25 N10 1_555 1_555
C26 N8 1_555 1_555
C27 H17 1_555 1_555
C28 C27 1_555 1_555
H18 C28 1_555 1_555
C29 C25 1_555 1_555
C30 C29 1_555 1_555
H19 C30 1_555 1_555
C31 N11 1_555 1_555
H20 C31 1_555 1_555
C32 N12 1_555 1_555
H21 C32 1_555 1_555
C33 C32 1_555 1_555
H22 C33 1_555 1_555
C34 C26 1_555 1_555
C35 C34 1_555 1_555
H23 C35 1_555 1_555
C36 N12 1_555 1_555
H24 C36 1_555 1_555
C37 H25 1_555 1_555
C38 C37 1_555 1_555
H26 C38 1_555 1_555
C39 C38 1_555 1_555
C40 C39 1_555 1_555
H27 C40 1_555 1_555
C41 N13 1_555 1_555
H28 C41 1_555 1_555
C42 C39 1_555 1_555
C43 N16 1_555 1_555
C44 N14 1_555 1_555
C45 N17 1_555 1_555
H29 C45 1_555 1_555
C46 C45 1_555 1_555
H30 C46 1_555 1_555
C47 C43 1_555 1_555
C48 C47 1_555 1_555
H31 C48 1_555 1_555
C49 N17 1_555 1_555
H32 C49 1_555 1_555
C50 N18 1_555 1_555
H33 C50 1_555 1_555
C51 C50 1_555 1_555
H34 C51 1_555 1_555
C52 C44 1_555 1_555
C53 C52 1_555 1_555
H35 C53 1_555 1_555
C54 N18 1_555 1_555
H36 C54 1_555 1_555
C55 N19 1_555 1_555
H37 C55 1_555 1_555
C56 C55 1_555 1_555
H38 C56 1_555 1_555
C57 C56 1_555 1_555
C58 C57 1_555 1_555
H39 C58 1_555 1_555
C59 N19 1_555 1_555
H40 C59 1_555 1_555
C60 C57 1_555 1_555
C61 N22 1_555 1_555
C62 N20 1_555 1_555
C63 N23 1_555 1_555
H41 C63 1_555 1_555
C64 C63 1_555 1_555
H42 C64 1_555 1_555
C65 C61 1_555 1_555
C66 C65 1_555 1_555
H43 C66 1_555 1_555
C67 N23 1_555 1_555
H44 C67 1_555 1_555
C68 N24 1_555 1_555
H45 C68 1_555 1_555
C69 C68 1_555 1_555
H46 C69 1_555 1_555
C70 C62 1_555 1_555
C71 C70 1_555 1_555
H47 C71 1_555 1_555
C72 N24 1_555 1_555
H48 C72 1_555 1_555
N25 Pd1 1_555 1_555
N26 Pd1 1_555 1_555
N27 Pd2 1_555 1_555
N28 Pd2 1_555 1_555
N29 Pd3 1_555 1_555
N30 Pd3 1_555 1_555
N31 Pd4 1_555 1_555
N32 Pd4 1_555 1_555
N33 Pd5 1_555 1_555
N34 Pd5 1_555 1_555
N35 Pd6 1_555 1_555
N36 Pd6 1_555 1_555
C73 N25 1_555 1_555
H49 C73 1_555 1_555
H50 C73 1_555 1_555
H51 C73 1_555 1_555
C74 N25 1_555 1_555
H52 C74 1_555 1_555
H53 C74 1_555 1_555
H54 C74 1_555 1_555
C75 N25 1_555 1_555
H55 C75 1_555 1_555
H56 C75 1_555 1_555
C76 N26 1_555 1_555
H57 C76 1_555 1_555
H58 C76 1_555 1_555
C77 N26 1_555 1_555
H59 C77 1_555 1_555
H60 C77 1_555 1_555
H61 C77 1_555 1_555
C78 N26 1_555 1_555
H62 C78 1_555 1_555
H63 C78 1_555 1_555
H64 C78 1_555 1_555
C79 N27 1_555 1_555
H65 C79 1_555 1_555
H66 C79 1_555 1_555
H67 C79 1_555 1_555
C80 N27 1_555 1_555
H68 C80 1_555 1_555
H69 C80 1_555 1_555
H70 C80 1_555 1_555
C81 N27 1_555 1_555
H71 C81 1_555 1_555
H72 C81 1_555 1_555
C82 N28 1_555 1_555
H73 C82 1_555 1_555
H74 C82 1_555 1_555
C83 N28 1_555 1_555
H75 C83 1_555 1_555
H76 C83 1_555 1_555
H77 C83 1_555 1_555
C84 N28 1_555 1_555
H78 C84 1_555 1_555
H79 C84 1_555 1_555
H80 C84 1_555 1_555
C85 N29 1_555 1_555
H81 C85 1_555 1_555
H82 C85 1_555 1_555
H83 C85 1_555 1_555
C86 N29 1_555 1_555
H84 C86 1_555 1_555
H85 C86 1_555 1_555
H86 C86 1_555 1_555
C87 N29 1_555 1_555
H87 C87 1_555 1_555
H88 C87 1_555 1_555
C88 N30 1_555 1_555
H89 C88 1_555 1_555
H90 C88 1_555 1_555
C89 N30 1_555 1_555
H91 C89 1_555 1_555
H92 C89 1_555 1_555
H93 C89 1_555 1_555
C90 N30 1_555 1_555
H94 C90 1_555 1_555
H95 C90 1_555 1_555
H96 C90 1_555 1_555
C91 N31 1_555 1_555
H97 C91 1_555 1_555
H98 C91 1_555 1_555
H99 C91 1_555 1_555
C92 N31 1_555 1_555
H100 C92 1_555 1_555
H101 C92 1_555 1_555
H102 C92 1_555 1_555
C93 N31 1_555 1_555
H103 C93 1_555 1_555
H104 C93 1_555 1_555
C94 N32 1_555 1_555
H105 C94 1_555 1_555
H106 C94 1_555 1_555
C95 N32 1_555 1_555
H107 C95 1_555 1_555
H108 C95 1_555 1_555
H109 C95 1_555 1_555
C96 N32 1_555 1_555
H110 C96 1_555 1_555
H111 C96 1_555 1_555
H112 C96 1_555 1_555
C97 N33 1_555 1_555
H113 C97 1_555 1_555
H114 C97 1_555 1_555
H115 C97 1_555 1_555
C98 N33 1_555 1_555
H116 C98 1_555 1_555
H117 C98 1_555 1_555
H118 C98 1_555 1_555
C99 N33 1_555 1_555
H119 C99 1_555 1_555
H120 C99 1_555 1_555
C100 N34 1_555 1_555
H121 C100 1_555 1_555
H122 C100 1_555 1_555
C101 N34 1_555 1_555
H123 C101 1_555 1_555
H124 C101 1_555 1_555
H125 C101 1_555 1_555
C102 N34 1_555 1_555
H126 C102 1_555 1_555
H127 C102 1_555 1_555
H128 C102 1_555 1_555
C103 N35 1_555 1_555
H129 C103 1_555 1_555
H130 C103 1_555 1_555
H131 C103 1_555 1_555
C104 N35 1_555 1_555
H132 C104 1_555 1_555
H133 C104 1_555 1_555
H134 C104 1_555 1_555
C105 N35 1_555 1_555
H135 C105 1_555 1_555
H136 C105 1_555 1_555
C106 N36 1_555 1_555
H137 C106 1_555 1_555
H138 C106 1_555 1_555
C107 N36 1_555 1_555
H139 C107 1_555 1_555
H140 C107 1_555 1_555
H141 C107 1_555 1_555
C108 N36 1_555 1_555
H142 C108 1_555 1_555
H143 C108 1_555 1_555
H144 C108 1_555 1_555
Pd7 N54 1_555 1_555
Pd8 N41 1_555 1_555
Pd9 N42 1_555 1_555
Pd10 N48 1_555 1_555
Pd11 N37 1_555 1_555
Pd12 N47 1_555 1_555
N37 C109 1_555 1_555
N38 C115 1_555 1_555
N39 C114 1_555 1_555
N40 C114 1_555 1_555
N41 C117 1_555 1_555
N42 C122 1_555 1_555
N43 Pd8 1_555 1_555
N44 C133 1_555 1_555
N45 C132 1_555 1_555
N46 C132 1_555 1_555
N47 C135 1_555 1_555
N48 C140 1_555 1_555
N49 Pd11 1_555 1_555
N50 C151 1_555 1_555
N51 C150 1_555 1_555
N52 C150 1_555 1_555
N53 Pd12 1_555 1_555
N54 C158 1_555 1_555
N55 Pd10 1_555 1_555
N56 C169 1_555 1_555
N57 C168 1_555 1_555
N58 C168 1_555 1_555
N59 Pd9 1_555 1_555
N60 Pd7 1_555 1_555
C109 H145 1_555 1_555
C110 C109 1_555 1_555
H146 C110 1_555 1_555
C111 C110 1_555 1_555
C112 C111 1_555 1_555
H147 C112 1_555 1_555
C113 N37 1_555 1_555
H148 C113 1_555 1_555
C114 C111 1_555 1_555
C115 N40 1_555 1_555
C116 N38 1_555 1_555
C117 H149 1_555 1_555
C118 C117 1_555 1_555
H150 C118 1_555 1_555
C119 C115 1_555 1_555
C120 C119 1_555 1_555
H151 C120 1_555 1_555
C121 N41 1_555 1_555
H152 C121 1_555 1_555
C122 H153 1_555 1_555
C123 C122 1_555 1_555
H154 C123 1_555 1_555
C124 C116 1_555 1_555
C125 C124 1_555 1_555
H155 C125 1_555 1_555
C126 N42 1_555 1_555
H156 C126 1_555 1_555
C127 N43 1_555 1_555
H157 C127 1_555 1_555
C128 C127 1_555 1_555
H158 C128 1_555 1_555
C129 C128 1_555 1_555
C130 C129 1_555 1_555
H159 C130 1_555 1_555
C131 N43 1_555 1_555
H160 C131 1_555 1_555
C132 C129 1_555 1_555
C133 N46 1_555 1_555
C134 N44 1_555 1_555
C135 H161 1_555 1_555
C136 C135 1_555 1_555
H162 C136 1_555 1_555
C137 C133 1_555 1_555
C138 C137 1_555 1_555
H163 C138 1_555 1_555
C139 N47 1_555 1_555
H164 C139 1_555 1_555
C140 H165 1_555 1_555
C141 C140 1_555 1_555
H166 C141 1_555 1_555
C142 C134 1_555 1_555
C143 C142 1_555 1_555
H167 C143 1_555 1_555
C144 N48 1_555 1_555
H168 C144 1_555 1_555
C145 N49 1_555 1_555
H169 C145 1_555 1_555
C146 C145 1_555 1_555
H170 C146 1_555 1_555
C147 C146 1_555 1_555
C148 C147 1_555 1_555
H171 C148 1_555 1_555
C149 N49 1_555 1_555
H172 C149 1_555 1_555
C150 C147 1_555 1_555
C151 N52 1_555 1_555
C152 N50 1_555 1_555
C153 N53 1_555 1_555
H173 C153 1_555 1_555
C154 C153 1_555 1_555
H174 C154 1_555 1_555
C155 C151 1_555 1_555
C156 C155 1_555 1_555
H175 C156 1_555 1_555
C157 N53 1_555 1_555
H176 C157 1_555 1_555
C158 H177 1_555 1_555
C159 C158 1_555 1_555
H178 C159 1_555 1_555
C160 C152 1_555 1_555
C161 C160 1_555 1_555
H179 C161 1_555 1_555
C162 N54 1_555 1_555
H180 C162 1_555 1_555
C163 N55 1_555 1_555
H181 C163 1_555 1_555
C164 C163 1_555 1_555
H182 C164 1_555 1_555
C165 C164 1_555 1_555
C166 C165 1_555 1_555
H183 C166 1_555 1_555
C167 N55 1_555 1_555
H184 C167 1_555 1_555
C168 C165 1_555 1_555
C169 N58 1_555 1_555
C170 N56 1_555 1_555
C171 N59 1_555 1_555
H185 C171 1_555 1_555
C172 C171 1_555 1_555
H186 C172 1_555 1_555
C173 C169 1_555 1_555
C174 C173 1_555 1_555
H187 C174 1_555 1_555
C175 N59 1_555 1_555
H188 C175 1_555 1_555
C176 N60 1_555 1_555
H189 C176 1_555 1_555
C177 C176 1_555 1_555
H190 C177 1_555 1_555
C178 C170 1_555 1_555
C179 C178 1_555 1_555
H191 C179 1_555 1_555
C180 N60 1_555 1_555
H192 C180 1_555 1_555
N61 Pd11 1_555 1_555
N62 Pd11 1_555 1_555
C181 N61 1_555 1_555
H193 C181 1_555 1_555
H194 C181 1_555 1_555
H195 C181 1_555 1_555
C182 N61 1_555 1_555
H196 C182 1_555 1_555
H197 C182 1_555 1_555
H198 C182 1_555 1_555
C183 N61 1_555 1_555
H199 C183 1_555 1_555
H200 C183 1_555 1_555
C184 N62 1_555 1_555
H201 C184 1_555 1_555
H202 C184 1_555 1_555
C185 N62 1_555 1_555
H203 C185 1_555 1_555
H204 C185 1_555 1_555
H205 C185 1_555 1_555
C186 N62 1_555 1_555
H206 C186 1_555 1_555
H207 C186 1_555 1_555
H208 C186 1_555 1_555
N63 Pd7 1_555 1_555
N64 Pd7 1_555 1_555
C187 N63 1_555 1_555
H209 C187 1_555 1_555
H210 C187 1_555 1_555
H211 C187 1_555 1_555
C188 N63 1_555 1_555
H212 C188 1_555 1_555
H213 C188 1_555 1_555
H214 C188 1_555 1_555
C189 N63 1_555 1_555
H215 C189 1_555 1_555
H216 C189 1_555 1_555
C190 N64 1_555 1_555
H217 C190 1_555 1_555
H218 C190 1_555 1_555
C191 N64 1_555 1_555
H219 C191 1_555 1_555
H220 C191 1_555 1_555
H221 C191 1_555 1_555
C192 N64 1_555 1_555
H222 C192 1_555 1_555
H223 C192 1_555 1_555
H224 C192 1_555 1_555
N65 Pd9 1_555 1_555
N66 Pd9 1_555 1_555
C193 N65 1_555 1_555
H225 C193 1_555 1_555
H226 C193 1_555 1_555
H227 C193 1_555 1_555
C194 N65 1_555 1_555
H228 C194 1_555 1_555
H229 C194 1_555 1_555
H230 C194 1_555 1_555
C195 N65 1_555 1_555
H231 C195 1_555 1_555
H232 C195 1_555 1_555
C196 N66 1_555 1_555
H233 C196 1_555 1_555
H234 C196 1_555 1_555
C197 N66 1_555 1_555
H235 C197 1_555 1_555
H236 C197 1_555 1_555
H237 C197 1_555 1_555
C198 N66 1_555 1_555
H238 C198 1_555 1_555
H239 C198 1_555 1_555
H240 C198 1_555 1_555
N67 Pd10 1_555 1_555
N68 Pd10 1_555 1_555
C199 N67 1_555 1_555
H241 C199 1_555 1_555
H242 C199 1_555 1_555
H243 C199 1_555 1_555
C200 N67 1_555 1_555
H244 C200 1_555 1_555
H245 C200 1_555 1_555
H246 C200 1_555 1_555
C201 N67 1_555 1_555
H247 C201 1_555 1_555
H248 C201 1_555 1_555
C202 N68 1_555 1_555
H249 C202 1_555 1_555
H250 C202 1_555 1_555
C203 N68 1_555 1_555
H251 C203 1_555 1_555
H252 C203 1_555 1_555
H253 C203 1_555 1_555
C204 N68 1_555 1_555
H254 C204 1_555 1_555
H255 C204 1_555 1_555
H256 C204 1_555 1_555
N69 Pd12 1_555 1_555
N70 Pd12 1_555 1_555
C205 N69 1_555 1_555
H257 C205 1_555 1_555
H258 C205 1_555 1_555
H259 C205 1_555 1_555
C206 N69 1_555 1_555
H260 C206 1_555 1_555
H261 C206 1_555 1_555
H262 C206 1_555 1_555
C207 N69 1_555 1_555
H263 C207 1_555 1_555
H264 C207 1_555 1_555
C208 N70 1_555 1_555
H265 C208 1_555 1_555
H266 C208 1_555 1_555
C209 N70 1_555 1_555
H267 C209 1_555 1_555
H268 C209 1_555 1_555
H269 C209 1_555 1_555
C210 N70 1_555 1_555
H270 C210 1_555 1_555
H271 C210 1_555 1_555
H272 C210 1_555 1_555
N71 Pd8 1_555 1_555
N72 Pd8 1_555 1_555
C211 N71 1_555 1_555
H273 C211 1_555 1_555
H274 C211 1_555 1_555
H275 C211 1_555 1_555
C212 N71 1_555 1_555
H276 C212 1_555 1_555
H277 C212 1_555 1_555
H278 C212 1_555 1_555
C213 N71 1_555 1_555
H279 C213 1_555 1_555
H280 C213 1_555 1_555
C214 N72 1_555 1_555
H281 C214 1_555 1_555
H282 C214 1_555 1_555
C215 N72 1_555 1_555
H283 C215 1_555 1_555
H284 C215 1_555 1_555
H285 C215 1_555 1_555
C216 N72 1_555 1_555
H286 C216 1_555 1_555
H287 C216 1_555 1_555
H288 C216 1_555 1_555
C217 H289 1_555 1_555
C218 C217 1_555 1_555
H290 C218 1_555 1_555
C219 C218 1_555 1_555
H291 C219 1_555 1_555
C220 C219 1_555 1_555
C221 C220 1_555 1_555
C222 C217 1_555 1_555
C223 C222 1_555 1_555
H292 C223 1_555 1_555
C224 C223 1_555 1_555
H293 C224 1_555 1_555
C225 C224 1_555 1_555
H294 C225 1_555 1_555
C226 C221 1_555 1_555
C227 C226 1_555 1_555
H295 C227 1_555 1_555
C228 C220 1_555 1_555
H296 C228 1_555 1_555
C229 H297 1_555 1_555
C230 C229 1_555 1_555
H298 C230 1_555 1_555
C231 C230 1_555 1_555
H299 C231 1_555 1_555
C232 C231 1_555 1_555
C233 C232 1_555 1_555
C234 C229 1_555 1_555
C235 C234 1_555 1_555
H300 C235 1_555 1_555
C236 C235 1_555 1_555
H301 C236 1_555 1_555
C237 C236 1_555 1_555
H302 C237 1_555 1_555
C238 C233 1_555 1_555
C239 C238 1_555 1_555
H303 C239 1_555 1_555
C240 C232 1_555 1_555
H304 C240 1_555 1_555
C241 H305 1_555 1_555
C242 C241 1_555 1_555
H306 C242 1_555 1_555
C243 C242 1_555 1_555
H307 C243 1_555 1_555
C244 C243 1_555 1_555
C245 C244 1_555 1_555
C246 C241 1_555 1_555
C247 C246 1_555 1_555
H308 C247 1_555 1_555
C248 C247 1_555 1_555
H309 C248 1_555 1_555
C249 C248 1_555 1_555
H310 C249 1_555 1_555
C250 C245 1_555 1_555
C251 C250 1_555 1_555
H311 C251 1_555 1_555
C252 C244 1_555 1_555
H312 C252 1_555 1_555
N73 O1 1_555 1_555
O2 N73 1_555 1_555
O3 N73 1_555 1_555
N74 O4 1_555 1_555
O5 N74 1_555 1_555
O6 N74 1_555 1_555
N75 O7 1_555 1_555
O8 N75 1_555 1_555
O9 N75 1_555 1_555
N76 O10 1_555 1_555
O11 N76 1_555 1_555
O12 N76 1_555 1_555
N3 C8 1_555 1_555
N9 C26 1_555 1_555
N15 C44 1_555 1_555
N21 C62 1_555 1_555
C4 C5 1_555 1_555
C10 C11 1_555 1_555
C12 C13 1_555 1_555
C15 C16 1_555 1_555
C17 C18 1_555 1_555
C22 C23 1_555 1_555
C28 C29 1_555 1_555
C30 C31 1_555 1_555
C33 C34 1_555 1_555
C35 C36 1_555 1_555
C40 C41 1_555 1_555
C46 C47 1_555 1_555
C48 C49 1_555 1_555
C51 C52 1_555 1_555
C53 C54 1_555 1_555
C58 C59 1_555 1_555
C64 C65 1_555 1_555
C66 C67 1_555 1_555
C69 C70 1_555 1_555
C71 C72 1_555 1_555
C75 C76 1_555 1_555
C81 C82 1_555 1_555
C87 C88 1_555 1_555
C93 C94 1_555 1_555
C99 C100 1_555 1_555
C105 C106 1_555 1_555
N39 C116 1_555 1_555
N45 C134 1_555 1_555
N51 C152 1_555 1_555
N57 C170 1_555 1_555
C112 C113 1_555 1_555
C118 C119 1_555 1_555
C120 C121 1_555 1_555
C123 C124 1_555 1_555
C125 C126 1_555 1_555
C130 C131 1_555 1_555
C136 C137 1_555 1_555
C138 C139 1_555 1_555
C141 C142 1_555 1_555
C143 C144 1_555 1_555
C148 C149 1_555 1_555
C154 C155 1_555 1_555
C156 C157 1_555 1_555
C159 C160 1_555 1_555
C161 C162 1_555 1_555
C166 C167 1_555 1_555
C172 C173 1_555 1_555
C174 C175 1_555 1_555
C177 C178 1_555 1_555
C179 C180 1_555 1_555
C183 C184 1_555 1_555
C189 C190 1_555 1_555
C195 C196 1_555 1_555
C201 C202 1_555 1_555
C207 C208 1_555 1_555
C213 C214 1_555 1_555
C221 C222 1_555 1_555
C225 C226 1_555 1_555
C227 C228 1_555 1_555
C233 C234 1_555 1_555
C237 C238 1_555 1_555
C239 C240 1_555 1_555
C245 C246 1_555 1_555
C249 C250 1_555 1_555
C251 C252 1_555 1_555

#END
