
#######################################################################
#
#                 Cambridge Crystallographic Data Centre
#                                CCDC 
#
#######################################################################
#
# If this CIF has been generated from an entry in the Cambridge 
# Structural Database, then it will include bibliographic, chemical, 
# crystal, experimental, refinement or atomic coordinate data resulting 
# from the CCDC's data processing and validation procedures.
#
#######################################################################

data_OCUKIH
_chemical_formula_moiety         
'2(C108 H144 N36 Pd6 12+),C24 H16,2(C12 H8),24(N1 O3 1-),55(H2 O1)'
_chemical_name_systematic        
"tetrakis(\m~3~-2,4,6-tris(4-Pyridyl)-1,3,5-triazine)-hexakis(N,N,N',N'-tetramethylethylenediamine)-hexa-palladium syn-6b,6c,12b,12c-tetrahydrocyclobuta(1,2-a:3,4-a')diacenaphthylene clathrate tetrakis(\m~3~-2,4,6-tris(4-pyridyl)-1,3,5-triazine)-hexakis(N,N,N',N'-tetramethylethylenediamine)-hexa-palladium acenaphthylene clathrate tetracosanitrate acenaphthylene solvate hydrate"
_symmetry_cell_setting           triclinic
_symmetry_space_group_name_H-M   'P -1'
_symmetry_Int_Tables_number      2
_space_group_name_Hall           '-P 1'
loop_
_symmetry_equiv_pos_site_id
_symmetry_equiv_pos_as_xyz
1 x,y,z
2 -x,-y,-z
_cell_length_a                   25.6693(6)
_cell_length_b                   25.7817(9)
_cell_length_c                   31.9954(11)
_cell_angle_alpha                97.7021(12)
_cell_angle_beta                 96.5334(9)
_cell_angle_gamma                101.117(3)
_cell_volume                     20376.4
_cell_formula_units_Z            2
_exptl_crystal_preparation       'irradiated product'
loop_
_atom_site_label
_atom_site_type_symbol
_atom_site_fract_x
_atom_site_fract_y
_atom_site_fract_z
Pd1 Pd 0.24769(4) 0.27933(5) 0.82089(4)
Pd2 Pd 0.53449(5) -0.04981(5) 0.68618(4)
Pd3 Pd 0.45451(6) 0.33487(5) 0.46957(4)
Pd4 Pd 0.71571(5) 0.30339(5) 1.03587(4)
Pd5 Pd 0.65049(5) 0.68216(4) 0.81844(4)
Pd6 Pd 0.92730(5) 0.34115(5) 0.67837(5)
N1 N 0.6154(4) 0.6223(4) 0.8481(4)
N2 N 0.5085(4) 0.3900(4) 0.9209(4)
N3 N 0.4951(4) 0.4584(4) 0.8811(4)
N4 N 0.5812(4) 0.4626(4) 0.9216(4)
N5 N 0.6628(5) 0.3440(5) 1.0085(4)
N6 N 0.3210(4) 0.3269(4) 0.8480(4)
N7 N 0.5187(6) 0.3711(6) 0.5167(4)
N8 N 0.7212(5) 0.4810(6) 0.6800(4)
N9 N 0.6337(6) 0.4775(6) 0.6445(4)
N10 N 0.6878(6) 0.4201(5) 0.6179(4)
N11 N 0.8655(5) 0.3790(5) 0.6658(4)
N12 N 0.6586(5) 0.6243(4) 0.7710(4)
N13 N 0.5870(4) 0.0148(4) 0.7213(4)
N14 N 0.7632(5) 0.2477(4) 0.8250(4)
N15 N 0.6892(4) 0.1741(4) 0.8264(4)
N16 N 0.7262(5) 0.1846(4) 0.7633(4)
N17 N 0.8789(5) 0.3041(4) 0.7164(4)
N18 N 0.7221(4) 0.2714(4) 0.9760(4)
N19 N 0.4325(6) 0.2873(5) 0.5118(4)
N20 N 0.3886(5) 0.1505(4) 0.6804(4)
N21 N 0.3755(6) 0.2208(5) 0.6424(4)
N22 N 0.4245(5) 0.1567(5) 0.6175(4)
N23 N 0.4898(4) 0.0028(4) 0.6697(4)
N24 N 0.2847(4) 0.2515(4) 0.7732(4)
C1 C 0.5639(6) 0.6028(6) 0.8392(5)
H1 H 0.5429 0.6197 0.8217
C2 C 0.5366(6) 0.5541(5) 0.8559(4)
H2 H 0.4995 0.5400 0.8498
C3 C 0.5714(5) 0.5320(5) 0.8812(4)
C4 C 0.6255(6) 0.5532(6) 0.8916(5)
H3 H 0.6485 0.5386 0.9094
C5 C 0.6432(6) 0.5987(6) 0.8733(5)
H4 H 0.6800 0.6142 0.8800
C6 C 0.5478(6) 0.4813(5) 0.8948(5)
C7 C 0.5602(5) 0.4148(5) 0.9329(4)
C8 C 0.4802(5) 0.4129(6) 0.8946(4)
C9 C 0.6807(6) 0.3918(6) 0.9966(5)
H5 H 0.7172 0.4082 1.0046
C10 C 0.6493(6) 0.4170(6) 0.9739(5)
H6 H 0.6631 0.4508 0.9671
C11 C 0.5956(6) 0.3919(6) 0.9606(5)
C12 C 0.5767(6) 0.3430(6) 0.9729(5)
H7 H 0.5404 0.3261 0.9652
C13 C 0.6112(6) 0.3194(6) 0.9962(5)
H8 H 0.5985 0.2856 1.0036
C14 C 0.3528(6) 0.3067(6) 0.8730(5)
H9 H 0.3392 0.2734 0.8808
C15 C 0.4048(6) 0.3317(6) 0.8884(5)
H10 H 0.4270 0.3149 0.9051
C16 C 0.4239(6) 0.3820(6) 0.8790(5)
C17 C 0.3881(6) 0.4031(6) 0.8552(5)
H11 H 0.3983 0.4382 0.8496
C18 C 0.3349(6) 0.3726(6) 0.8383(5)
H12 H 0.3112 0.3866 0.8205
C19 C 0.5114(8) 0.4110(8) 0.5463(6)
H13 H 0.4786 0.4223 0.5447
C20 C 0.5514(8) 0.4340(8) 0.5777(6)
H14 H 0.5470 0.4618 0.5983
C21 C 0.5993(7) 0.4167(7) 0.5798(6)
C22 C 0.6068(8) 0.3770(8) 0.5496(6)
H15 H 0.6386 0.3638 0.5502
C23 C 0.5621(9) 0.3577(8) 0.5174(7)
H16 H 0.5660 0.3325 0.4945
C24 C 0.6422(7) 0.4377(7) 0.6167(6)
C25 C 0.7263(7) 0.4404(7) 0.6504(6)
C26 C 0.6753(7) 0.4991(6) 0.6773(6)
C27 C 0.8231(7) 0.3557(7) 0.6357(6)
H17 H 0.8256 0.3239 0.6186
C28 C 0.7778(7) 0.3738(7) 0.6281(6)
H18 H 0.7501 0.3572 0.6058
C29 C 0.7752(6) 0.4208(6) 0.6568(5)
C30 C 0.8174(6) 0.4430(6) 0.6875(5)
H19 H 0.8157 0.4738 0.7062
C31 C 0.8605(7) 0.4230(7) 0.6921(5)
H20 H 0.8886 0.4395 0.7140
C32 C 0.7009(6) 0.6022(6) 0.7746(5)
H21 H 0.7268 0.6152 0.7989
C33 C 0.7102(7) 0.5613(6) 0.7454(5)
H22 H 0.7410 0.5468 0.7487
C34 C 0.6690(6) 0.5432(6) 0.7100(5)
C35 C 0.6244(6) 0.5651(6) 0.7060(5)
H23 H 0.5973 0.5527 0.6825
C36 C 0.6204(6) 0.6063(6) 0.7379(5)
H24 H 0.5900 0.6215 0.7358
C37 C 0.6221(6) 0.0441(6) 0.7013(5)
H25 H 0.6234 0.0324 0.6724
C38 C 0.6561(6) 0.0904(6) 0.7215(5)
H26 H 0.6808 0.1088 0.7062
C39 C 0.6554(5) 0.1113(5) 0.7633(4)
C40 C 0.6171(6) 0.0840(6) 0.7836(5)
H27 H 0.6131 0.0973 0.8116
C41 C 0.5825(6) 0.0333(6) 0.7608(5)
H28 H 0.5567 0.0139 0.7748
C42 C 0.6892(6) 0.1579(6) 0.7853(5)
C43 C 0.7603(6) 0.2266(6) 0.7855(5)
C44 C 0.7253(6) 0.2177(6) 0.8449(5)
C45 C 0.8799(6) 0.3212(6) 0.7557(5)
H29 H 0.9076 0.3497 0.7696
C46 C 0.8406(6) 0.2984(6) 0.7786(6)
H30 H 0.8409 0.3134 0.8071
C47 C 0.8028(5) 0.2559(5) 0.7608(5)
C48 C 0.8046(6) 0.2353(6) 0.7195(5)
H31 H 0.7803 0.2039 0.7059
C49 C 0.8430(6) 0.2618(6) 0.6979(6)
H32 H 0.8431 0.2488 0.6691
C50 C 0.6888(6) 0.2301(6) 0.9549(5)
H33 H 0.6631 0.2119 0.9695
C51 C 0.6879(6) 0.2105(6) 0.9130(5)
H34 H 0.6624 0.1799 0.8995
C52 C 0.7253(5) 0.2367(5) 0.8906(4)
C53 C 0.7588(6) 0.2807(6) 0.9108(5)
H35 H 0.7837 0.3005 0.8964
C54 C 0.7571(7) 0.2980(7) 0.9547(5)
H36 H 0.7813 0.3291 0.9690
C55 C 0.4532(7) 0.2432(8) 0.5179(6)
H37 H 0.4766 0.2336 0.4991
C56 C 0.4433(6) 0.2113(7) 0.5490(5)
H38 H 0.4561 0.1797 0.5503
C57 C 0.4131(7) 0.2304(7) 0.5777(5)
C58 C 0.3898(7) 0.2749(7) 0.5734(6)
H39 H 0.3665 0.2853 0.5920
C59 C 0.4023(7) 0.3021(7) 0.5411(6)
H40 H 0.3890 0.3334 0.5391
C60 C 0.4031(7) 0.2005(8) 0.6154(6)
C61 C 0.4163(6) 0.1353(6) 0.6510(6)
C62 C 0.3697(6) 0.1913(7) 0.6760(5)
C63 C 0.4536(6) 0.0178(6) 0.6948(5)
H41 H 0.4435 -0.0026 0.7159
C64 C 0.4328(6) 0.0591(6) 0.6905(5)
H42 H 0.4116 0.0708 0.7105
C65 C 0.4420(6) 0.0864(6) 0.6560(5)
C66 C 0.4763(6) 0.0722(6) 0.6291(5)
H43 H 0.4836 0.0897 0.6058
C67 C 0.4990(7) 0.0318(6) 0.6380(5)
H44 H 0.5239 0.0226 0.6204
C68 C 0.2875(6) 0.2744(6) 0.7370(5)
H45 H 0.2705 0.3031 0.7339
C69 C 0.3147(6) 0.2563(6) 0.7052(5)
H46 H 0.3167 0.2729 0.6809
C70 C 0.3390(6) 0.2136(6) 0.7094(5)
C71 C 0.3375(6) 0.1915(6) 0.7456(5)
H47 H 0.3564 0.1645 0.7501
C72 C 0.3082(6) 0.2090(7) 0.7749(5)
H48 H 0.3039 0.1904 0.7980
N25 N 0.2101(6) 0.3066(6) 0.8705(5)
N26 N 0.1735(6) 0.2283(6) 0.7931(5)
N27 N 0.4852(6) -0.1156(6) 0.6497(5)
N28 N 0.5837(7) -0.1023(6) 0.7042(5)
N29 N 0.3896(7) 0.2973(7) 0.4235(5)
N30 N 0.4790(8) 0.3859(7) 0.4272(6)
N31 N 0.7710(7) 0.2642(6) 1.0648(5)
N32 N 0.7077(7) 0.3339(6) 1.0983(5)
N33 N 0.6895(5) 0.7438(5) 0.7886(4)
N34 N 0.6424(5) 0.7424(5) 0.8663(4)
N35 N 0.9893(6) 0.3032(6) 0.6933(5)
N36 N 0.9739(7) 0.3818(7) 0.6373(6)
C73 C 0.2343(10) 0.2914(10) 0.9142(8)
H49 H 0.2706 0.3121 0.9229
H50 H 0.2346 0.2535 0.9103
H51 H 0.2123 0.2994 0.9360
C74 C 0.2116(9) 0.3619(9) 0.8750(7)
H52 H 0.2447 0.3813 0.8925
H53 H 0.1813 0.3697 0.8885
H54 H 0.2096 0.3729 0.8472
C75 C 0.1510(10) 0.2721(10) 0.8551(9)
H55 H 0.1452 0.2442 0.8732
H56 H 0.1262 0.2956 0.8615
C76 C 0.1371(15) 0.2499(16) 0.8180(13)
H57 H 0.1232 0.2757 0.8024
H58 H 0.1066 0.2204 0.8180
C77 C 0.1781(9) 0.1737(9) 0.7881(8)
H59 H 0.2041 0.1682 0.7691
H60 H 0.1436 0.1509 0.7763
H61 H 0.1899 0.1649 0.8157
C78 C 0.1545(9) 0.2423(9) 0.7519(8)
H62 H 0.1606 0.2809 0.7541
H63 H 0.1165 0.2270 0.7442
H64 H 0.1739 0.2282 0.7303
C79 C 0.4322(8) -0.1220(8) 0.6539(7)
H65 H 0.4150 -0.1596 0.6467
H66 H 0.4151 -0.1018 0.6349
H67 H 0.4286 -0.1090 0.6831
C80 C 0.4832(10) -0.1132(10) 0.6027(8)
H68 H 0.4975 -0.0768 0.5987
H69 H 0.4463 -0.1243 0.5888
H70 H 0.5044 -0.1369 0.5903
C81 C 0.5056(11) -0.1599(10) 0.6655(8)
H71 H 0.4882 -0.1680 0.6902
H72 H 0.4942 -0.1915 0.6433
C82 C 0.5567(13) -0.1529(12) 0.6764(10)
H73 H 0.5734 -0.1552 0.6503
H74 H 0.5636 -0.1825 0.6909
C83 C 0.5814(8) -0.1101(8) 0.7481(7)
H75 H 0.6066 -0.1319 0.7563
H76 H 0.5454 -0.1280 0.7510
H77 H 0.5907 -0.0756 0.7665
C84 C 0.6408(9) -0.0855(10) 0.6945(8)
H78 H 0.6398 -0.0746 0.6666
H79 H 0.6587 -0.1154 0.6949
H80 H 0.6603 -0.0557 0.7159
C85 C 0.3870(9) 0.2393(9) 0.4140(7)
H81 H 0.3860 0.2242 0.4401
H82 H 0.4183 0.2331 0.4014
H83 H 0.3548 0.2225 0.3941
C86 C 0.3418(9) 0.3029(9) 0.4323(7)
H84 H 0.3303 0.3300 0.4174
H85 H 0.3437 0.3138 0.4628
H86 H 0.3163 0.2691 0.4233
C87 C 0.3996(10) 0.3193(10) 0.3837(8)
H87 H 0.3654 0.3172 0.3657
H88 H 0.4208 0.2982 0.3676
C88 C 0.4292(12) 0.3762(12) 0.3949(10)
H89 H 0.4048 0.3978 0.4060
H90 H 0.4393 0.3889 0.3688
C89 C 0.5276(12) 0.3846(12) 0.4194(10)
H91 H 0.5499 0.3827 0.4455
H92 H 0.5423 0.4168 0.4084
H93 H 0.5266 0.3534 0.3984
C90 C 0.4910(11) 0.4447(11) 0.4464(9)
H94 H 0.4740 0.4645 0.4270
H95 H 0.5294 0.4585 0.4511
H96 H 0.4771 0.4489 0.4733
C91 C 0.7453(10) 0.2058(10) 1.0514(9)
H97 H 0.7111 0.2023 1.0339
H98 H 0.7398 0.1893 1.0765
H99 H 0.7685 0.1882 1.0353
C92 C 0.8208(10) 0.2764(10) 1.0530(8)
H100 H 0.8474 0.2720 1.0756
H101 H 0.8282 0.3132 1.0480
H102 H 0.8223 0.2526 1.0272
C93 C 0.7689(11) 0.2769(11) 1.1120(9)
H103 H 0.7592 0.2428 1.1224
H104 H 0.8053 0.2939 1.1259
C94 C 0.7401(13) 0.3042(13) 1.1241(10)
H105 H 0.7623 0.3313 1.1469
H106 H 0.7144 0.2815 1.1379
C95 C 0.6537(8) 0.3232(8) 1.1068(7)
H107 H 0.6418 0.2850 1.1066
H108 H 0.6309 0.3346 1.0852
H109 H 0.6518 0.3425 1.1346
C96 C 0.7326(8) 0.3916(8) 1.1065(7)
H110 H 0.7127 0.4101 1.0880
H111 H 0.7694 0.3966 1.1009
H112 H 0.7319 0.4059 1.1360
C97 C 0.7479(9) 0.7441(9) 0.7910(8)
H113 H 0.7629 0.7443 0.8203
H114 H 0.7659 0.7758 0.7811
H115 H 0.7529 0.7124 0.7732
C98 C 0.6682(8) 0.7409(8) 0.7440(6)
H116 H 0.6723 0.7768 0.7370
H117 H 0.6304 0.7237 0.7392
H118 H 0.6876 0.7203 0.7262
C99 C 0.6766(11) 0.7939(10) 0.8124(9)
H119 H 0.7051 0.8247 0.8111
H120 H 0.6430 0.7999 0.7980
C100 C 0.6715(9) 0.7911(8) 0.8535(7)
H121 H 0.6545 0.8203 0.8637
H122 H 0.7079 0.7990 0.8693
C101 C 0.6673(9) 0.7338(9) 0.9061(7)
H123 H 0.6417 0.7102 0.9188
H124 H 0.6795 0.7678 0.9250
H125 H 0.6978 0.7176 0.9017
C102 C 0.5862(8) 0.7445(8) 0.8675(7)
H126 H 0.5698 0.7167 0.8823
H127 H 0.5676 0.7391 0.8386
H128 H 0.5839 0.7793 0.8822
C103 C 1.0095(9) 0.3138(9) 0.7357(7)
H129 H 0.9816 0.3013 0.7521
H130 H 1.0226 0.3521 0.7443
H131 H 1.0389 0.2957 0.7407
C104 C 0.9735(10) 0.2457(10) 0.6785(8)
H132 H 1.0047 0.2319 0.6722
H133 H 0.9473 0.2388 0.6530
H134 H 0.9578 0.2282 0.7005
C105 C 1.0351(14) 0.3248(14) 0.6630(12)
H135 H 1.0697 0.3398 0.6811
H136 H 1.0396 0.2946 0.6427
C106 C 1.0210(12) 0.3606(12) 0.6427(10)
H137 H 1.0265 0.3489 0.6134
H138 H 1.0495 0.3924 0.6534
C107 C 0.9846(8) 0.4343(8) 0.6496(7)
H139 H 0.9525 0.4480 0.6432
H140 H 1.0125 0.4510 0.6347
H141 H 0.9968 0.4424 0.6801
C108 C 0.9473(11) 0.3680(11) 0.5946(9)
H142 H 0.9218 0.3906 0.5899
H143 H 0.9285 0.3308 0.5896
H144 H 0.9735 0.3730 0.5751
Pd7 Pd -0.04776(4) -0.36966(5) 0.95684(4)
Pd8 Pd 0.25170(6) -0.03728(7) 0.54186(4)
Pd9 Pd 0.32864(6) -0.43830(6) 0.71920(5)
Pd10 Pd -0.15221(6) -0.42789(6) 0.54191(4)
Pd11 Pd 0.35224(5) 0.03066(5) 0.95862(4)
Pd12 Pd -0.12078(6) 0.03573(6) 0.77980(7)
N37 N 0.3445(5) -0.0186(6) 0.9011(4)
N38 N 0.3162(8) -0.1742(8) 0.7043(4)
N39 N 0.3297(8) -0.1645(8) 0.7826(5)
N40 N 0.3125(7) -0.0904(6) 0.7492(5)
N41 N 0.2758(6) -0.0647(7) 0.5954(5)
N42 N 0.3393(9) -0.3568(6) 0.7289(5)
N43 N 0.1759(6) -0.0588(6) 0.5573(5)
N44 N -0.0608(6) -0.1603(6) 0.6299(6)
N45 N 0.0050(6) -0.1700(6) 0.5842(5)
N46 N 0.0149(5) -0.0877(6) 0.6300(5)
N47 N -0.0919(5) -0.0087(5) 0.7374(5)
N48 N -0.1219(5) -0.3464(5) 0.5580(4)
N49 N 0.2729(6) 0.0024(5) 0.9576(5)
N50 N 0.0035(6) -0.1092(6) 0.9145(5)
N51 N 0.0925(5) -0.1146(6) 0.9469(5)
N52 N 0.0748(6) -0.0392(6) 0.9138(6)
N53 N -0.0764(5) 0.0085(5) 0.8247(6)
N54 N -0.0219(5) -0.2882(5) 0.9566(4)
N55 N -0.1022(6) -0.4343(5) 0.5936(4)
N56 N 0.0770(7) -0.4112(7) 0.7769(5)
N57 N -0.0091(5) -0.4097(5) 0.7435(4)
N58 N 0.0569(6) -0.4300(7) 0.6998(4)
N59 N 0.2492(7) -0.4411(7) 0.7241(6)
N60 N -0.0232(5) -0.3821(5) 0.8987(4)
C109 C 0.3516(6) -0.0662(7) 0.8989(6)
H145 H 0.3622 -0.0780 0.9244
C110 C 0.3446(7) -0.1027(8) 0.8606(6)
H146 H 0.3494 -0.1380 0.8604
C111 C 0.3293(7) -0.0825(7) 0.8209(6)
C112 C 0.3200(8) -0.0312(9) 0.8239(7)
H147 H 0.3070 -0.0183 0.7995
C113 C 0.3301(7) 0.0010(8) 0.8636(7)
H148 H 0.3272 0.0370 0.8654
C114 C 0.3212(8) -0.1136(9) 0.7817(7)
C115 C 0.3096(9) -0.1238(11) 0.7138(9)
C116 C 0.3271(9) -0.1921(9) 0.7415(8)
C117 C 0.2852(7) -0.0312(8) 0.6343(6)
H149 H 0.2829 0.0050 0.6356
C118 C 0.2979(7) -0.0508(7) 0.6710(6)
H150 H 0.3067 -0.0279 0.6974
C119 C 0.2976(7) -0.1022(8) 0.6690(6)
C120 C 0.2903(7) -0.1382(8) 0.6307(7)
H151 H 0.2924 -0.1744 0.6291
C121 C 0.2799(8) -0.1144(9) 0.5965(7)
H152 H 0.2750 -0.1365 0.5698
C122 C 0.3252(9) -0.3367(10) 0.6983(8)
H153 H 0.3153 -0.3607 0.6726
C123 C 0.3211(9) -0.2802(9) 0.6947(8)
H154 H 0.3145 -0.2664 0.6693
C124 C 0.3292(9) -0.2513(9) 0.7374(8)
C125 C 0.3450(7) -0.2750(8) 0.7728(7)
H155 H 0.3551 -0.2551 0.8003
C126 C 0.3449(8) -0.3279(9) 0.7650(8)
H156 H 0.3496 -0.3449 0.7889
C127 C 0.1500(9) -0.1097(9) 0.5440(7)
H157 H 0.1652 -0.1326 0.5259
C128 C 0.0995(8) -0.1294(8) 0.5571(6)
H158 H 0.0805 -0.1646 0.5467
C129 C 0.0806(8) -0.0986(8) 0.5832(6)
C130 C 0.1100(8) -0.0459(8) 0.6003(6)
H159 H 0.0972 -0.0242 0.6211
C131 C 0.1565(8) -0.0277(8) 0.5863(7)
H160 H 0.1757 0.0074 0.5968
C132 C 0.0295(8) -0.1189(8) 0.6009(7)
C133 C -0.0318(8) -0.1095(8) 0.6446(6)
C134 C -0.0399(9) -0.1873(9) 0.5996(7)
C135 C -0.0477(8) 0.0076(7) 0.7202(6)
H161 H -0.0284 0.0429 0.7299
C136 C -0.0282(8) -0.0221(8) 0.6903(6)
H162 H 0.0019 -0.0064 0.6786
C137 C -0.0524(7) -0.0759(7) 0.6763(6)
C138 C -0.0996(8) -0.0932(8) 0.6914(6)
H163 H -0.1182 -0.1288 0.6825
C139 C -0.1207(8) -0.0600(8) 0.7192(6)
H164 H -0.1552 -0.0722 0.7261
C140 C -0.1402(8) -0.3159(8) 0.5839(6)
H165 H -0.1732 -0.3302 0.5924
C141 C -0.1175(7) -0.2653(7) 0.6006(6)
H166 H -0.1323 -0.2457 0.6214
C142 C -0.0691(7) -0.2422(7) 0.5851(6)
C143 C -0.0510(8) -0.2741(8) 0.5536(6)
H167 H -0.0217 -0.2603 0.5403
C144 C -0.0772(8) -0.3254(8) 0.5431(6)
H168 H -0.0632 -0.3482 0.5240
C145 C 0.2374(8) 0.0276(8) 0.9394(6)
H169 H 0.2505 0.0608 0.9312
C146 C 0.1841(8) 0.0082(8) 0.9323(6)
H170 H 0.1608 0.0260 0.9178
C147 C 0.1639(8) -0.0405(8) 0.9474(6)
C148 C 0.1985(7) -0.0633(7) 0.9673(6)
H171 H 0.1864 -0.0948 0.9783
C149 C 0.2547(7) -0.0406(7) 0.9724(6)
H172 H 0.2789 -0.0574 0.9870
C150 C 0.1066(8) -0.0661(8) 0.9346(6)
C151 C 0.0276(9) -0.0608(9) 0.9061(6)
C152 C 0.0399(9) -0.1337(8) 0.9369(6)
C153 C -0.0952(9) -0.0379(9) 0.8414(7)
H173 H -0.1320 -0.0533 0.8348
C154 C -0.0646(7) -0.0628(7) 0.8665(6)
H174 H -0.0792 -0.0956 0.8745
C155 C -0.0097(7) -0.0373(7) 0.8801(6)
C156 C 0.0101(8) 0.0111(7) 0.8671(6)
H175 H 0.0453 0.0305 0.8769
C157 C -0.0247(8) 0.0293(8) 0.8389(6)
H176 H -0.0099 0.0604 0.8284
C158 C 0.0294(6) -0.2661(6) 0.9722(5)
H177 H 0.0510 -0.2861 0.9861
C159 C 0.0507(7) -0.2138(7) 0.9677(5)
H178 H 0.0864 -0.1976 0.9791
C160 C 0.0191(7) -0.1868(7) 0.9469(6)
C161 C -0.0376(8) -0.2126(8) 0.9298(6)
H179 H -0.0617 -0.1949 0.9162
C162 C -0.0513(8) -0.2654(7) 0.9357(6)
H180 H -0.0853 -0.2853 0.9229
C163 C -0.0494(7) -0.4363(6) 0.5917(6)
H181 H -0.0374 -0.4401 0.5650
C164 C -0.0157(7) -0.4331(6) 0.6263(6)
H182 H 0.0198 -0.4358 0.6237
C165 C -0.0308(6) -0.4254(6) 0.6679(5)
C166 C -0.0842(6) -0.4251(6) 0.6688(5)
H183 H -0.0967 -0.4223 0.6953
C167 C -0.1196(7) -0.4287(6) 0.6333(5)
H184 H -0.1556 -0.4275 0.6354
C168 C 0.0077(7) -0.4219(6) 0.7063(5)
C169 C 0.0897(8) -0.4245(7) 0.7361(7)
C170 C 0.0267(7) -0.4042(6) 0.7781(6)
C171 C 0.2308(8) -0.4406(7) 0.7623(7)
H185 H 0.2540 -0.4434 0.7864
C172 C 0.1785(8) -0.4361(7) 0.7666(7)
H186 H 0.1658 -0.4376 0.7930
C173 C 0.1473(8) -0.4299(8) 0.7334(7)
C174 C 0.1597(10) -0.4306(9) 0.6898(8)
H187 H 0.1347 -0.4317 0.6657
C175 C 0.2184(11) -0.4294(10) 0.6893(9)
H188 H 0.2343 -0.4208 0.6654
C176 C -0.0559(7) -0.3802(6) 0.8626(6)
H189 H -0.0912 -0.3760 0.8648
C177 C -0.0396(7) -0.3841(7) 0.8232(6)
H190 H -0.0621 -0.3799 0.7991
C178 C 0.0117(6) -0.3947(6) 0.8197(5)
C179 C 0.0456(7) -0.3980(7) 0.8561(6)
H191 H 0.0797 -0.4056 0.8543
C180 C 0.0266(7) -0.3894(7) 0.8962(6)
H192 H 0.0496 -0.3889 0.9214
N61 N 0.4322(6) 0.0577(6) 0.9584(5)
N62 N 0.3601(6) 0.0786(6) 1.0159(5)
C181 C 0.4421(11) 0.0899(9) 0.9243(7)
H193 H 0.4343 0.1249 0.9324
H194 H 0.4192 0.0720 0.8981
H195 H 0.4794 0.0939 0.9200
C182 C 0.4623(8) 0.0151(7) 0.9480(7)
H196 H 0.4570 -0.0104 0.9676
H197 H 0.5002 0.0310 0.9504
H198 H 0.4493 -0.0032 0.9191
C183 C 0.4494(9) 0.0870(10) 1.0017(7)
H199 H 0.4611 0.0622 1.0196
H200 H 0.4810 0.1150 1.0011
C184 C 0.4149(8) 0.1098(8) 1.0207(8)
H201 H 0.4136 0.1434 1.0098
H202 H 0.4286 0.1191 1.0512
C185 C 0.3234(8) 0.1150(9) 1.0154(8)
H203 H 0.2872 0.0948 1.0052
H204 H 0.3336 0.1406 0.9966
H205 H 0.3250 0.1339 1.0440
C186 C 0.3496(9) 0.0494(8) 1.0507(7)
H206 H 0.3296 0.0134 1.0394
H207 H 0.3289 0.0675 1.0691
H208 H 0.3834 0.0477 1.0670
N63 N -0.0763(6) -0.4500(5) 0.9567(4)
N64 N -0.0749(6) -0.3571(5) 1.0160(5)
C187 C -0.0351(7) -0.4810(8) 0.9491(6)
H209 H -0.0330 -0.4874 0.9189
H210 H -0.0444 -0.5150 0.9592
H211 H -0.0007 -0.4612 0.9643
C188 C -0.1197(8) -0.4736(10) 0.9221(7)
H212 H -0.1264 -0.5123 0.9194
H213 H -0.1098 -0.4628 0.8957
H214 H -0.1519 -0.4613 0.9281
C189 C -0.0914(10) -0.4535(8) 0.9995(6)
H215 H -0.1226 -0.4831 0.9967
H216 H -0.0618 -0.4629 1.0170
C190 C -0.1031(8) -0.4108(7) 1.0202(7)
H217 H -0.0981 -0.4136 1.0505
H218 H -0.1415 -0.4127 1.0119
C191 C -0.0295(7) -0.3356(8) 1.0496(6)
H219 H -0.0425 -0.3287 1.0767
H220 H -0.0091 -0.3024 1.0433
H221 H -0.0065 -0.3613 1.0512
C192 C -0.1081(8) -0.3178(8) 1.0182(8)
H222 H -0.1332 -0.3239 0.9920
H223 H -0.0856 -0.2822 1.0217
H224 H -0.1277 -0.3208 1.0422
N65 N 0.3990(6) -0.4390(5) 0.7159(5)
N66 N 0.3173(6) -0.5202(6) 0.7048(5)
C193 C 0.4442(12) -0.4114(12) 0.7512(8)
H225 H 0.4784 -0.4142 0.7419
H226 H 0.4404 -0.4283 0.7763
H227 H 0.4428 -0.3739 0.7580
C194 C 0.4174(11) -0.4094(10) 0.6813(7)
H228 H 0.4521 -0.4161 0.6757
H229 H 0.4203 -0.3714 0.6900
H230 H 0.3916 -0.4217 0.6555
C195 C 0.4097(10) -0.4931(9) 0.7064(12)
H231 H 0.4274 -0.4943 0.6808
H232 H 0.4357 -0.4973 0.7299
C196 C 0.3707(8) -0.5346(8) 0.7003(8)
H233 H 0.3779 -0.5581 0.7210
H234 H 0.3690 -0.5546 0.6717
C197 C 0.2997(9) -0.5461(10) 0.7385(7)
H235 H 0.3180 -0.5753 0.7416
H236 H 0.2613 -0.5602 0.7323
H237 H 0.3079 -0.5207 0.7648
C198 C 0.2830(9) -0.5416(10) 0.6640(6)
H238 H 0.2901 -0.5760 0.6529
H239 H 0.2905 -0.5170 0.6440
H240 H 0.2456 -0.5460 0.6682
N67 N -0.1833(6) -0.5090(5) 0.5250(5)
N68 N -0.2048(7) -0.4205(6) 0.4887(5)
C199 C -0.2067(8) -0.5355(8) 0.5598(6)
H241 H -0.1782 -0.5437 0.5787
H242 H -0.2323 -0.5683 0.5472
H243 H -0.2248 -0.5115 0.5758
C200 C -0.1437(7) -0.5373(8) 0.5121(6)
H244 H -0.1161 -0.5346 0.5361
H245 H -0.1278 -0.5220 0.4893
H246 H -0.1604 -0.5747 0.5022
C201 C -0.2320(9) -0.5119(9) 0.4947(8)
H247 H -0.2396 -0.5467 0.4761
H248 H -0.2620 -0.5113 0.5110
C202 C -0.2318(9) -0.4755(8) 0.4706(7)
H249 H -0.2691 -0.4754 0.4603
H250 H -0.2151 -0.4865 0.4457
C203 C -0.2440(9) -0.3906(8) 0.5010(8)
H251 H -0.2652 -0.3846 0.4757
H252 H -0.2260 -0.3565 0.5179
H253 H -0.2674 -0.4107 0.5177
C204 C -0.1764(9) -0.3944(8) 0.4579(7)
H254 H -0.2020 -0.3878 0.4356
H255 H -0.1544 -0.4173 0.4455
H256 H -0.1536 -0.3606 0.4721
N69 N -0.1504(8) 0.0799(8) 0.8241(5)
N70 N -0.1655(7) 0.0628(7) 0.7349(5)
C205 C -0.1100(9) 0.1237(9) 0.8494(8)
H257 H -0.0962 0.1125 0.8755
H258 H -0.1260 0.1543 0.8564
H259 H -0.0808 0.1335 0.8332
C206 C -0.1779(9) 0.0490(9) 0.8534(7)
H260 H -0.1902 0.0119 0.8399
H261 H -0.2084 0.0637 0.8605
H262 H -0.1533 0.0508 0.8792
C207 C -0.1890(11) 0.1040(12) 0.7989(7)
H263 H -0.2252 0.0851 0.8013
H264 H -0.1851 0.1411 0.8125
C208 C -0.1861(10) 0.1044(9) 0.7587(7)
H265 H -0.1637 0.1389 0.7561
H266 H -0.2222 0.1033 0.7445
C209 C -0.1399(10) 0.0841(10) 0.7014(8)
H267 H -0.1427 0.0557 0.6777
H268 H -0.1024 0.0996 0.7119
H269 H -0.1575 0.1116 0.6921
C210 C -0.2093(10) 0.0186(9) 0.7160(8)
H270 H -0.2123 -0.0088 0.7342
H271 H -0.2025 0.0035 0.6882
H272 H -0.2425 0.0313 0.7129
N71 N 0.2268(6) -0.0100(7) 0.4863(5)
N72 N 0.3292(6) -0.0158(7) 0.5257(5)
C211 C 0.2005(8) 0.0342(8) 0.4980(7)
H273 H 0.1628 0.0240 0.4861
H274 H 0.2173 0.0655 0.4868
H275 H 0.2040 0.0425 0.5288
C212 C 0.1866(9) -0.0502(8) 0.4564(7)
H276 H 0.1696 -0.0775 0.4716
H277 H 0.2039 -0.0667 0.4343
H278 H 0.1597 -0.0331 0.4436
C213 C 0.2761(8) 0.0135(11) 0.4698(8)
H279 H 0.2717 -0.0014 0.4395
H280 H 0.2774 0.0520 0.4715
C214 C 0.3224(9) 0.0081(11) 0.4869(8)
H281 H 0.3458 0.0439 0.4928
H282 H 0.3368 -0.0130 0.4649
C215 C 0.3653(11) 0.0223(10) 0.5585(7)
H283 H 0.3813 0.0034 0.5791
H284 H 0.3456 0.0462 0.5727
H285 H 0.3933 0.0429 0.5458
C216 C 0.3517(10) -0.0626(8) 0.5210(8)
H286 H 0.3350 -0.0856 0.4945
H287 H 0.3453 -0.0817 0.5447
H288 H 0.3900 -0.0521 0.5206
C217 C 0.6777(12) 0.2946(12) 0.7060(10)
H289 H 0.6785 0.2894 0.6764
C218 C 0.7123(10) 0.3324(10) 0.7277(8)
H290 H 0.7386 0.3517 0.7142
C219 C 0.7129(10) 0.3464(10) 0.7709(8)
H291 H 0.7401 0.3738 0.7871
C220 C 0.6693(10) 0.3171(10) 0.7916(7)
C221 C 0.6335(9) 0.2724(9) 0.7670(8)
C222 C 0.6342(11) 0.2558(11) 0.7222(9)
C223 C 0.5910(12) 0.2080(13) 0.7042(11)
H292 H 0.5883 0.1942 0.6751
C224 C 0.5585(11) 0.1856(11) 0.7249(9)
H293 H 0.5316 0.1575 0.7093
C225 C 0.5565(10) 0.1961(10) 0.7679(8)
H294 H 0.5330 0.1745 0.7821
C226 C 0.5957(10) 0.2453(10) 0.7893(8)
C227 C 0.4570(15) 0.3599(13) 0.7617(11)
H295 H 0.4324 0.3744 0.7452
C228 C 0.4441(12) 0.3156(12) 0.7736(9)
H296 H 0.4099 0.2948 0.7621
C229 C 0.4751(9) 0.2946(11) 0.8018(8)
H297 H 0.4596 0.2622 0.8101
C230 C 0.5317(9) 0.3198(9) 0.8200(7)
C231 C 0.5506(8) 0.3694(8) 0.8065(7)
C232 C 0.5195(12) 0.3914(11) 0.7769(9)
C233 C 0.5504(12) 0.4473(12) 0.7599(10)
H298 H 0.5350 0.4637 0.7385
C234 C 0.5966(12) 0.4635(12) 0.7797(9)
H299 H 0.6117 0.4986 0.7763
C235 C 0.6303(13) 0.4423(12) 0.8052(10)
H300 H 0.6674 0.4568 0.8115
C236 C 0.6038(9) 0.3940(9) 0.8226(8)
C237 C 0.6075(10) 0.2776(10) 0.8344(8)
H301 H 0.6146 0.2534 0.8549
C238 C 0.6564(9) 0.3208(8) 0.8375(7)
H302 H 0.6865 0.3182 0.8588
C239 C 0.6246(8) 0.3575(8) 0.8522(7)
H303 H 0.6395 0.3773 0.8812
C240 C 0.5770(6) 0.3141(7) 0.8528(5)
H304 H 0.5674 0.3089 0.8812
C241 C 0.0071(6) -0.1693(7) 0.7328(5)
H305 H -0.0008 -0.1447 0.7543
C242 C -0.0262(7) -0.2196(9) 0.7198(8)
H306 H -0.0573 -0.2276 0.7327
C243 C -0.0165(10) -0.2597(8) 0.6886(9)
H307 H -0.0403 -0.2932 0.6815
C244 C 0.0287(13) -0.2485(9) 0.6689(12)
C245 C 0.0608(9) -0.1946(8) 0.6808(7)
C246 C 0.0538(9) -0.1560(8) 0.7125(9)
C247 C 0.0930(12) -0.1072(9) 0.7224(12)
H308 H 0.0891 -0.0788 0.7426
C248 C 0.1372(11) -0.1032(11) 0.7011(11)
H309 H 0.1625 -0.0706 0.7066
C249 C 0.1467(11) -0.1451(15) 0.6713(14)
H310 H 0.1790 -0.1414 0.6596
C250 C 0.1075(12) -0.1914(12) 0.6600(11)
C251 C 0.1022(16) -0.2429(15) 0.6324(14)
H311 H 0.1276 -0.2523 0.6154
C252 C 0.0531(17) -0.2755(13) 0.6355(13)
H312 H 0.0383 -0.3093 0.6190
O1 O 0.1796(16) -0.2698(16) 0.7683(13)
O2 O 0.1458(19) -0.2330(18) 0.8016(15)
O3 O 0.097(3) -0.235(3) 0.842(2)
O4 O 0.026(3) -0.236(3) 0.838(3)
O5 O 0.511(2) 0.276(2) 0.6982(19)
O6 O 0.494(3) 0.328(3) 0.668(2)
N73 N 0.4703(8) 0.2922(8) 0.2681(6)
O8 O 0.4598(9) 0.3134(11) 0.3002(6)
O9 O 0.4614(8) 0.3091(8) 0.2361(6)
O10 O 0.488(2) 0.2534(16) 0.2673(11)
N75 N 0.3578(10) 0.5376(10) 0.8342(9)
O14 O 0.3236(9) 0.5017(9) 0.8383(8)
O15 O 0.3482(9) 0.5736(8) 0.8167(7)
O16 O 0.4000(10) 0.5279(12) 0.8309(10)
N77 N 0.0170(14) 0.4540(16) 0.5277(12)
O21 O 0.0526(12) 0.4325(11) 0.5237(9)
O22 O 0.021(2) 0.4885(19) 0.5563(15)
O23 O -0.016(3) 0.451(3) 0.498(2)
N78 N 0.620(3) 0.5269(18) 0.4816(12)
O25 O 0.615(3) 0.523(2) 0.4440(12)
O26 O 0.6017(15) 0.5614(14) 0.4985(13)
O27 O 0.6231(13) 0.4904(12) 0.4996(11)
O28 O 0.553(3) 0.587(3) 0.362(2)
O29 O 0.687(2) 0.658(2) 0.3890(17)
O35 O 0.664(2) 0.422(2) 0.4275(17)
N80 N 0.1847(14) 0.3706(17) 0.7445(10)
O37 O 0.153(2) 0.398(3) 0.7504(17)
O38 O 0.1893(17) 0.3508(18) 0.7102(10)
O39 O 0.2194(11) 0.3719(11) 0.7722(9)
O44 O 0.682(2) 0.046(2) 0.8733(19)
N82 N 0.8288(18) 0.1914(15) 0.9462(11)
O45 O 0.816(2) 0.1608(17) 0.9688(12)
O46 O 0.855(3) 0.2339(17) 0.9604(18)
O47 O 0.8169(19) 0.1807(18) 0.9086(11)
O48 O 0.8999(14) 0.2750(14) 0.8820(11)
N83 N 0.1985(13) 0.3465(13) 0.1136(10)
O51 O 0.2331(15) 0.3307(17) 0.0976(14)
O52 O 0.1646(15) 0.3568(17) 0.0904(13)
O53 O 0.1813(17) 0.3212(17) 0.1396(12)
N84 N 0.894(2) 0.369(3) 0.9487(13)
O56 O 0.9018(17) 0.3663(17) 0.9127(13)
O57 O 0.8653(16) 0.3960(17) 0.9605(15)
O58 O 0.9271(18) 0.367(2) 0.9776(15)
O60 O 0.882(2) 0.397(2) 1.0136(19)
N85 N 0.2893(9) 0.4311(11) 0.4008(9)
O61 O 0.3010(11) 0.4011(12) 0.3743(9)
O62 O 0.2433(9) 0.4270(9) 0.3967(7)
O63 O 0.3184(12) 0.4607(14) 0.4285(10)
N86 N 0.4963(19) 0.782(3) 0.1059(16)
O64 O 0.454(2) 0.789(4) 0.091(3)
O65 O 0.516(3) 0.811(3) 0.1382(16)
O66 O 0.5271(15) 0.7697(15) 0.0834(12)
O72 O 0.2151(19) 0.2248(19) 0.3469(16)
N89 N 0.2831(15) 0.0531(14) 0.7473(13)
O73 O 0.253(2) 0.058(3) 0.7715(19)
O74 O 0.273(2) 0.066(3) 0.7134(14)
O75 O 0.3295(16) 0.059(3) 0.7587(19)
O76 O 0.198(3) 0.039(3) 0.834(2)
O79 O 0.702(2) 0.846(2) 0.1149(18)
O83 O 0.3814(9) 0.9228(9) 0.0091(8)
O84 O 0.0201(10) 0.5541(10) 0.2422(9)
O85 O 0.1522(11) 0.3704(11) 0.2444(9)
O87 O 0.0839(13) 0.0577(13) 0.7681(11)
O88 O 0.3924(15) 0.8112(15) 0.9575(12)
O89 O 0.7148(17) 0.3193(17) 0.5200(13)
O90 O 0.9271(12) 0.6300(12) 0.1458(10)
O92 O 0.1316(16) 0.0500(14) 0.8225(12)
O93 O 0.8774(15) 0.8034(15) 0.8383(12)
O94 O 0.2580(13) 0.1471(14) 0.3019(12)
O95 O 0.7364(15) 0.5528(16) 0.9938(13)
O96 O 0.4275(13) 0.1304(13) 0.1482(10)
O99 O 0.6099(11) 0.9076(10) 0.2038(9)
O101 O 0.8437(12) 0.3994(12) 0.8709(10)
O102 O 0.5242(13) 0.2512(11) 0.4330(10)
O103 O 0.7414(18) 0.4920(18) 0.9181(15)
O104 O 0.155(2) 0.355(2) 0.6367(16)
O105 O 0.8594(17) 0.1633(17) 0.6187(15)
O106 O 0.6896(16) 0.8328(16) 0.5138(13)
O107 O 0.8827(15) 0.3990(15) 0.4054(11)
O108 O 0.2492(19) 0.0883(18) 0.3703(15)
O7? O 0.527(3) 0.311(3) 0.649(2)
C253? C 0.0937(15) 0.0405(14) 1.0160(12)
C254? C 0.0695(11) -0.0085(14) 1.0255(8)
C255? C 0.0151(9) -0.0155(9) 1.0102(7)
C256? C -0.0073(14) -0.0659(11) 1.0203(10)
C257? C -0.0630(14) -0.0701(16) 1.0065(13)
C258? C 0.0797(16) -0.0539(19) 1.0451(16)
C259? C 0.0317(19) -0.0903(14) 1.0406(14)
C260? C 0.5446(12) 0.5878(12) 0.9800(10)
C261? C 0.4947(12) 0.5551(11) 0.9688(10)
C262? C 0.4868(9) 0.5094(9) 0.9884(8)
C263? C 0.4321(10) 0.4861(11) 0.9729(9)
C264? C 0.4246(14) 0.4399(13) 0.9927(12)
C265? C 0.4438(17) 0.5597(18) 0.9454(19)
C266? C 0.4076(14) 0.5122(17) 0.9432(14)
N74? N 0.500(3) 0.272(3) 0.287(2)
O11? O 0.464(3) 0.282(3) 0.304(2)
O12? O 0.533(4) 0.254(5) 0.306(4)
O13? O 0.491(6) 0.256(5) 0.250(2)
O17? O 0.4661(16) 0.6526(18) 0.8701(16)
N76? N 0.402(2) 0.570(2) 0.8460(13)
O18? O 0.3930(16) 0.5497(16) 0.8762(14)
O19? O 0.431(2) 0.613(2) 0.8534(18)
O20? O 0.365(4) 0.568(4) 0.819(3)
O24? O 0.0998(14) 0.4917(14) 0.5943(11)
O30? O 0.614(3) 0.597(3) 0.389(2)
O31? O 0.6395(16) 0.4930(17) 0.4186(14)
N79? N 0.6214(17) 0.570(2) 0.4321(12)
O32? O 0.6188(14) 0.5762(14) 0.4692(12)
O33? O 0.6546(18) 0.6013(19) 0.4201(15)
O34? O 0.5818(18) 0.553(2) 0.4073(14)
O36? O 0.509(2) 0.510(2) 0.3524(16)
N81? N 0.7842(19) 0.1450(18) 0.9443(13)
O40? O 0.808(3) 0.179(3) 0.9721(15)
O41? O 0.748(2) 0.114(2) 0.9507(17)
O42? O 0.7887(19) 0.149(2) 0.9083(13)
O43? O 0.8966(19) 0.2458(19) 0.9252(16)
O49? O 0.7178(17) 0.0750(16) 0.9198(14)
O50? O 0.732(3) 0.951(3) 0.779(2)
O54? O 0.241(3) 0.467(3) 0.149(2)
O55? O 0.2327(13) 0.3322(12) 0.1298(11)
O59? O 0.9209(15) 0.3843(14) 0.9975(11)
N87? N 0.154(2) 0.228(2) 0.2631(17)
O67? O 0.140(4) 0.187(3) 0.241(2)
O68? O 0.176(2) 0.231(2) 0.2980(17)
O69? O 0.149(4) 0.268(3) 0.250(3)
N88? N 0.208(2) 0.3189(15) 0.3210(17)
O70? O 0.1826(18) 0.343(2) 0.3020(18)
O71? O 0.253(2) 0.338(2) 0.3349(16)
N90? N 0.781(4) 0.848(3) 0.088(3)
O77? O 0.6826(12) 0.8683(12) 0.0930(10)
O78? O 0.2858(18) 0.0775(18) 0.7859(15)
O80? O 0.7188(11) 0.8185(12) 0.1268(9)
O81? O 0.755(3) 0.912(3) 0.169(2)
O82? O 0.764(2) 0.892(2) 0.7636(18)
O86? O 0.3944(10) 0.0216(10) 0.4024(8)
O91? O 0.4006(16) 0.1157(15) 0.4479(13)
O97? O 0.383(3) 0.243(3) 0.991(2)
O98? O 0.475(3) 0.679(3) 0.912(3)
O100? O 0.0916(18) 0.0200(18) 0.4091(14)
loop_
_geom_bond_atom_site_label_1
_geom_bond_atom_site_label_2
_geom_bond_site_symmetry_1
_geom_bond_site_symmetry_2
Pd1 N6 1_555 1_555
Pd2 N13 1_555 1_555
Pd3 N7 1_555 1_555
Pd4 N5 1_555 1_555
Pd5 N1 1_555 1_555
Pd6 N11 1_555 1_555
N1 C1 1_555 1_555
N2 C7 1_555 1_555
N3 C6 1_555 1_555
N4 C6 1_555 1_555
N5 C9 1_555 1_555
N6 C14 1_555 1_555
N7 C19 1_555 1_555
N8 C25 1_555 1_555
N9 C24 1_555 1_555
N10 C24 1_555 1_555
N11 C27 1_555 1_555
N12 Pd5 1_555 1_555
N13 C37 1_555 1_555
N14 C43 1_555 1_555
N15 C42 1_555 1_555
N16 C42 1_555 1_555
N17 Pd6 1_555 1_555
N18 Pd4 1_555 1_555
N19 Pd3 1_555 1_555
N20 C61 1_555 1_555
N21 C60 1_555 1_555
N22 C60 1_555 1_555
N23 Pd2 1_555 1_555
N24 Pd1 1_555 1_555
C1 H1 1_555 1_555
C2 C1 1_555 1_555
H2 C2 1_555 1_555
C3 C2 1_555 1_555
C4 C3 1_555 1_555
H3 C4 1_555 1_555
C5 N1 1_555 1_555
H4 C5 1_555 1_555
C6 C3 1_555 1_555
C7 N4 1_555 1_555
C8 N2 1_555 1_555
C9 H5 1_555 1_555
C10 C9 1_555 1_555
H6 C10 1_555 1_555
C11 C7 1_555 1_555
C12 C11 1_555 1_555
H7 C12 1_555 1_555
C13 N5 1_555 1_555
H8 C13 1_555 1_555
C14 H9 1_555 1_555
C15 C14 1_555 1_555
H10 C15 1_555 1_555
C16 C8 1_555 1_555
C17 C16 1_555 1_555
H11 C17 1_555 1_555
C18 N6 1_555 1_555
H12 C18 1_555 1_555
C19 H13 1_555 1_555
C20 C19 1_555 1_555
H14 C20 1_555 1_555
C21 C20 1_555 1_555
C22 C21 1_555 1_555
H15 C22 1_555 1_555
C23 N7 1_555 1_555
H16 C23 1_555 1_555
C24 C21 1_555 1_555
C25 N10 1_555 1_555
C26 N8 1_555 1_555
C27 H17 1_555 1_555
C28 C27 1_555 1_555
H18 C28 1_555 1_555
C29 C25 1_555 1_555
C30 C29 1_555 1_555
H19 C30 1_555 1_555
C31 N11 1_555 1_555
H20 C31 1_555 1_555
C32 N12 1_555 1_555
H21 C32 1_555 1_555
C33 C32 1_555 1_555
H22 C33 1_555 1_555
C34 C26 1_555 1_555
C35 C34 1_555 1_555
H23 C35 1_555 1_555
C36 N12 1_555 1_555
H24 C36 1_555 1_555
C37 H25 1_555 1_555
C38 C37 1_555 1_555
H26 C38 1_555 1_555
C39 C38 1_555 1_555
C40 C39 1_555 1_555
H27 C40 1_555 1_555
C41 N13 1_555 1_555
H28 C41 1_555 1_555
C42 C39 1_555 1_555
C43 N16 1_555 1_555
C44 N14 1_555 1_555
C45 N17 1_555 1_555
H29 C45 1_555 1_555
C46 C45 1_555 1_555
H30 C46 1_555 1_555
C47 C43 1_555 1_555
C48 C47 1_555 1_555
H31 C48 1_555 1_555
C49 N17 1_555 1_555
H32 C49 1_555 1_555
C50 N18 1_555 1_555
H33 C50 1_555 1_555
C51 C50 1_555 1_555
H34 C51 1_555 1_555
C52 C44 1_555 1_555
C53 C52 1_555 1_555
H35 C53 1_555 1_555
C54 N18 1_555 1_555
H36 C54 1_555 1_555
C55 N19 1_555 1_555
H37 C55 1_555 1_555
C56 C55 1_555 1_555
H38 C56 1_555 1_555
C57 C56 1_555 1_555
C58 C57 1_555 1_555
H39 C58 1_555 1_555
C59 N19 1_555 1_555
H40 C59 1_555 1_555
C60 C57 1_555 1_555
C61 N22 1_555 1_555
C62 N20 1_555 1_555
C63 N23 1_555 1_555
H41 C63 1_555 1_555
C64 C63 1_555 1_555
H42 C64 1_555 1_555
C65 C61 1_555 1_555
C66 C65 1_555 1_555
H43 C66 1_555 1_555
C67 N23 1_555 1_555
H44 C67 1_555 1_555
C68 N24 1_555 1_555
H45 C68 1_555 1_555
C69 C68 1_555 1_555
H46 C69 1_555 1_555
C70 C62 1_555 1_555
C71 C70 1_555 1_555
H47 C71 1_555 1_555
C72 N24 1_555 1_555
H48 C72 1_555 1_555
N25 Pd1 1_555 1_555
N26 Pd1 1_555 1_555
N27 Pd2 1_555 1_555
N28 Pd2 1_555 1_555
N29 Pd3 1_555 1_555
N30 Pd3 1_555 1_555
N31 Pd4 1_555 1_555
N32 Pd4 1_555 1_555
N33 Pd5 1_555 1_555
N34 Pd5 1_555 1_555
N35 Pd6 1_555 1_555
N36 Pd6 1_555 1_555
C73 N25 1_555 1_555
H49 C73 1_555 1_555
H50 C73 1_555 1_555
H51 C73 1_555 1_555
C74 N25 1_555 1_555
H52 C74 1_555 1_555
H53 C74 1_555 1_555
H54 C74 1_555 1_555
C75 N25 1_555 1_555
H55 C75 1_555 1_555
H56 C75 1_555 1_555
C76 N26 1_555 1_555
H57 C76 1_555 1_555
H58 C76 1_555 1_555
C77 N26 1_555 1_555
H59 C77 1_555 1_555
H60 C77 1_555 1_555
H61 C77 1_555 1_555
C78 N26 1_555 1_555
H62 C78 1_555 1_555
H63 C78 1_555 1_555
H64 C78 1_555 1_555
C79 N27 1_555 1_555
H65 C79 1_555 1_555
H66 C79 1_555 1_555
H67 C79 1_555 1_555
C80 N27 1_555 1_555
H68 C80 1_555 1_555
H69 C80 1_555 1_555
H70 C80 1_555 1_555
C81 N27 1_555 1_555
H71 C81 1_555 1_555
H72 C81 1_555 1_555
C82 N28 1_555 1_555
H73 C82 1_555 1_555
H74 C82 1_555 1_555
C83 N28 1_555 1_555
H75 C83 1_555 1_555
H76 C83 1_555 1_555
H77 C83 1_555 1_555
C84 N28 1_555 1_555
H78 C84 1_555 1_555
H79 C84 1_555 1_555
H80 C84 1_555 1_555
C85 N29 1_555 1_555
H81 C85 1_555 1_555
H82 C85 1_555 1_555
H83 C85 1_555 1_555
C86 N29 1_555 1_555
H84 C86 1_555 1_555
H85 C86 1_555 1_555
H86 C86 1_555 1_555
C87 N29 1_555 1_555
H87 C87 1_555 1_555
H88 C87 1_555 1_555
C88 N30 1_555 1_555
H89 C88 1_555 1_555
H90 C88 1_555 1_555
C89 N30 1_555 1_555
H91 C89 1_555 1_555
H92 C89 1_555 1_555
H93 C89 1_555 1_555
C90 N30 1_555 1_555
H94 C90 1_555 1_555
H95 C90 1_555 1_555
H96 C90 1_555 1_555
C91 N31 1_555 1_555
H97 C91 1_555 1_555
H98 C91 1_555 1_555
H99 C91 1_555 1_555
C92 N31 1_555 1_555
H100 C92 1_555 1_555
H101 C92 1_555 1_555
H102 C92 1_555 1_555
C93 N31 1_555 1_555
H103 C93 1_555 1_555
H104 C93 1_555 1_555
C94 N32 1_555 1_555
H105 C94 1_555 1_555
H106 C94 1_555 1_555
C95 N32 1_555 1_555
H107 C95 1_555 1_555
H108 C95 1_555 1_555
H109 C95 1_555 1_555
C96 N32 1_555 1_555
H110 C96 1_555 1_555
H111 C96 1_555 1_555
H112 C96 1_555 1_555
C97 N33 1_555 1_555
H113 C97 1_555 1_555
H114 C97 1_555 1_555
H115 C97 1_555 1_555
C98 N33 1_555 1_555
H116 C98 1_555 1_555
H117 C98 1_555 1_555
H118 C98 1_555 1_555
C99 N33 1_555 1_555
H119 C99 1_555 1_555
H120 C99 1_555 1_555
C100 N34 1_555 1_555
H121 C100 1_555 1_555
H122 C100 1_555 1_555
C101 N34 1_555 1_555
H123 C101 1_555 1_555
H124 C101 1_555 1_555
H125 C101 1_555 1_555
C102 N34 1_555 1_555
H126 C102 1_555 1_555
H127 C102 1_555 1_555
H128 C102 1_555 1_555
C103 N35 1_555 1_555
H129 C103 1_555 1_555
H130 C103 1_555 1_555
H131 C103 1_555 1_555
C104 N35 1_555 1_555
H132 C104 1_555 1_555
H133 C104 1_555 1_555
H134 C104 1_555 1_555
C105 N35 1_555 1_555
H135 C105 1_555 1_555
H136 C105 1_555 1_555
C106 N36 1_555 1_555
H137 C106 1_555 1_555
H138 C106 1_555 1_555
C107 N36 1_555 1_555
H139 C107 1_555 1_555
H140 C107 1_555 1_555
H141 C107 1_555 1_555
C108 N36 1_555 1_555
H142 C108 1_555 1_555
H143 C108 1_555 1_555
H144 C108 1_555 1_555
Pd7 N54 1_555 1_555
Pd8 N41 1_555 1_555
Pd9 N42 1_555 1_555
Pd10 N48 1_555 1_555
Pd11 N37 1_555 1_555
Pd12 N47 1_555 1_555
N37 C109 1_555 1_555
N38 C115 1_555 1_555
N39 C114 1_555 1_555
N40 C114 1_555 1_555
N41 C117 1_555 1_555
N42 C122 1_555 1_555
N43 Pd8 1_555 1_555
N44 C133 1_555 1_555
N45 C132 1_555 1_555
N46 C132 1_555 1_555
N47 C135 1_555 1_555
N48 C140 1_555 1_555
N49 Pd11 1_555 1_555
N50 C151 1_555 1_555
N51 C150 1_555 1_555
N52 C150 1_555 1_555
N53 Pd12 1_555 1_555
N54 C158 1_555 1_555
N55 Pd10 1_555 1_555
N56 C169 1_555 1_555
N57 C168 1_555 1_555
N58 C168 1_555 1_555
N59 Pd9 1_555 1_555
N60 Pd7 1_555 1_555
C109 H145 1_555 1_555
C110 C109 1_555 1_555
H146 C110 1_555 1_555
C111 C110 1_555 1_555
C112 C111 1_555 1_555
H147 C112 1_555 1_555
C113 N37 1_555 1_555
H148 C113 1_555 1_555
C114 C111 1_555 1_555
C115 N40 1_555 1_555
C116 N38 1_555 1_555
C117 H149 1_555 1_555
C118 C117 1_555 1_555
H150 C118 1_555 1_555
C119 C115 1_555 1_555
C120 C119 1_555 1_555
H151 C120 1_555 1_555
C121 N41 1_555 1_555
H152 C121 1_555 1_555
C122 H153 1_555 1_555
C123 C122 1_555 1_555
H154 C123 1_555 1_555
C124 C116 1_555 1_555
C125 C124 1_555 1_555
H155 C125 1_555 1_555
C126 N42 1_555 1_555
H156 C126 1_555 1_555
C127 N43 1_555 1_555
H157 C127 1_555 1_555
C128 C127 1_555 1_555
H158 C128 1_555 1_555
C129 C128 1_555 1_555
C130 C129 1_555 1_555
H159 C130 1_555 1_555
C131 N43 1_555 1_555
H160 C131 1_555 1_555
C132 C129 1_555 1_555
C133 N46 1_555 1_555
C134 N44 1_555 1_555
C135 H161 1_555 1_555
C136 C135 1_555 1_555
H162 C136 1_555 1_555
C137 C133 1_555 1_555
C138 C137 1_555 1_555
H163 C138 1_555 1_555
C139 N47 1_555 1_555
H164 C139 1_555 1_555
C140 H165 1_555 1_555
C141 C140 1_555 1_555
H166 C141 1_555 1_555
C142 C134 1_555 1_555
C143 C142 1_555 1_555
H167 C143 1_555 1_555
C144 N48 1_555 1_555
H168 C144 1_555 1_555
C145 N49 1_555 1_555
H169 C145 1_555 1_555
C146 C145 1_555 1_555
H170 C146 1_555 1_555
C147 C146 1_555 1_555
C148 C147 1_555 1_555
H171 C148 1_555 1_555
C149 N49 1_555 1_555
H172 C149 1_555 1_555
C150 C147 1_555 1_555
C151 N52 1_555 1_555
C152 N50 1_555 1_555
C153 N53 1_555 1_555
H173 C153 1_555 1_555
C154 C153 1_555 1_555
H174 C154 1_555 1_555
C155 C151 1_555 1_555
C156 C155 1_555 1_555
H175 C156 1_555 1_555
C157 N53 1_555 1_555
H176 C157 1_555 1_555
C158 H177 1_555 1_555
C159 C158 1_555 1_555
H178 C159 1_555 1_555
C160 C152 1_555 1_555
C161 C160 1_555 1_555
H179 C161 1_555 1_555
C162 N54 1_555 1_555
H180 C162 1_555 1_555
C163 N55 1_555 1_555
H181 C163 1_555 1_555
C164 C163 1_555 1_555
H182 C164 1_555 1_555
C165 C164 1_555 1_555
C166 C165 1_555 1_555
H183 C166 1_555 1_555
C167 N55 1_555 1_555
H184 C167 1_555 1_555
C168 C165 1_555 1_555
C169 N58 1_555 1_555
C170 N56 1_555 1_555
C171 N59 1_555 1_555
H185 C171 1_555 1_555
C172 C171 1_555 1_555
H186 C172 1_555 1_555
C173 C169 1_555 1_555
C174 C173 1_555 1_555
H187 C174 1_555 1_555
C175 N59 1_555 1_555
H188 C175 1_555 1_555
C176 N60 1_555 1_555
H189 C176 1_555 1_555
C177 C176 1_555 1_555
H190 C177 1_555 1_555
C178 C170 1_555 1_555
C179 C178 1_555 1_555
H191 C179 1_555 1_555
C180 N60 1_555 1_555
H192 C180 1_555 1_555
N61 Pd11 1_555 1_555
N62 Pd11 1_555 1_555
C181 N61 1_555 1_555
H193 C181 1_555 1_555
H194 C181 1_555 1_555
H195 C181 1_555 1_555
C182 N61 1_555 1_555
H196 C182 1_555 1_555
H197 C182 1_555 1_555
H198 C182 1_555 1_555
C183 N61 1_555 1_555
H199 C183 1_555 1_555
H200 C183 1_555 1_555
C184 N62 1_555 1_555
H201 C184 1_555 1_555
H202 C184 1_555 1_555
C185 N62 1_555 1_555
H203 C185 1_555 1_555
H204 C185 1_555 1_555
H205 C185 1_555 1_555
C186 N62 1_555 1_555
H206 C186 1_555 1_555
H207 C186 1_555 1_555
H208 C186 1_555 1_555
N63 Pd7 1_555 1_555
N64 Pd7 1_555 1_555
C187 N63 1_555 1_555
H209 C187 1_555 1_555
H210 C187 1_555 1_555
H211 C187 1_555 1_555
C188 N63 1_555 1_555
H212 C188 1_555 1_555
H213 C188 1_555 1_555
H214 C188 1_555 1_555
C189 N63 1_555 1_555
H215 C189 1_555 1_555
H216 C189 1_555 1_555
C190 N64 1_555 1_555
H217 C190 1_555 1_555
H218 C190 1_555 1_555
C191 N64 1_555 1_555
H219 C191 1_555 1_555
H220 C191 1_555 1_555
H221 C191 1_555 1_555
C192 N64 1_555 1_555
H222 C192 1_555 1_555
H223 C192 1_555 1_555
H224 C192 1_555 1_555
N65 Pd9 1_555 1_555
N66 Pd9 1_555 1_555
C193 N65 1_555 1_555
H225 C193 1_555 1_555
H226 C193 1_555 1_555
H227 C193 1_555 1_555
C194 N65 1_555 1_555
H228 C194 1_555 1_555
H229 C194 1_555 1_555
H230 C194 1_555 1_555
C195 N65 1_555 1_555
H231 C195 1_555 1_555
H232 C195 1_555 1_555
C196 N66 1_555 1_555
H233 C196 1_555 1_555
H234 C196 1_555 1_555
C197 N66 1_555 1_555
H235 C197 1_555 1_555
H236 C197 1_555 1_555
H237 C197 1_555 1_555
C198 N66 1_555 1_555
H238 C198 1_555 1_555
H239 C198 1_555 1_555
H240 C198 1_555 1_555
N67 Pd10 1_555 1_555
N68 Pd10 1_555 1_555
C199 N67 1_555 1_555
H241 C199 1_555 1_555
H242 C199 1_555 1_555
H243 C199 1_555 1_555
C200 N67 1_555 1_555
H244 C200 1_555 1_555
H245 C200 1_555 1_555
H246 C200 1_555 1_555
C201 N67 1_555 1_555
H247 C201 1_555 1_555
H248 C201 1_555 1_555
C202 N68 1_555 1_555
H249 C202 1_555 1_555
H250 C202 1_555 1_555
C203 N68 1_555 1_555
H251 C203 1_555 1_555
H252 C203 1_555 1_555
H253 C203 1_555 1_555
C204 N68 1_555 1_555
H254 C204 1_555 1_555
H255 C204 1_555 1_555
H256 C204 1_555 1_555
N69 Pd12 1_555 1_555
N70 Pd12 1_555 1_555
C205 N69 1_555 1_555
H257 C205 1_555 1_555
H258 C205 1_555 1_555
H259 C205 1_555 1_555
C206 N69 1_555 1_555
H260 C206 1_555 1_555
H261 C206 1_555 1_555
H262 C206 1_555 1_555
C207 N69 1_555 1_555
H263 C207 1_555 1_555
H264 C207 1_555 1_555
C208 N70 1_555 1_555
H265 C208 1_555 1_555
H266 C208 1_555 1_555
C209 N70 1_555 1_555
H267 C209 1_555 1_555
H268 C209 1_555 1_555
H269 C209 1_555 1_555
C210 N70 1_555 1_555
H270 C210 1_555 1_555
H271 C210 1_555 1_555
H272 C210 1_555 1_555
N71 Pd8 1_555 1_555
N72 Pd8 1_555 1_555
C211 N71 1_555 1_555
H273 C211 1_555 1_555
H274 C211 1_555 1_555
H275 C211 1_555 1_555
C212 N71 1_555 1_555
H276 C212 1_555 1_555
H277 C212 1_555 1_555
H278 C212 1_555 1_555
C213 N71 1_555 1_555
H279 C213 1_555 1_555
H280 C213 1_555 1_555
C214 N72 1_555 1_555
H281 C214 1_555 1_555
H282 C214 1_555 1_555
C215 N72 1_555 1_555
H283 C215 1_555 1_555
H284 C215 1_555 1_555
H285 C215 1_555 1_555
C216 N72 1_555 1_555
H286 C216 1_555 1_555
H287 C216 1_555 1_555
H288 C216 1_555 1_555
C217 H289 1_555 1_555
C218 C217 1_555 1_555
H290 C218 1_555 1_555
C219 C218 1_555 1_555
H291 C219 1_555 1_555
C220 C219 1_555 1_555
C221 C220 1_555 1_555
C222 C217 1_555 1_555
C223 C222 1_555 1_555
H292 C223 1_555 1_555
C224 C223 1_555 1_555
H293 C224 1_555 1_555
C225 C224 1_555 1_555
H294 C225 1_555 1_555
C226 C221 1_555 1_555
C227 H295 1_555 1_555
C228 C227 1_555 1_555
H296 C228 1_555 1_555
C229 C228 1_555 1_555
H297 C229 1_555 1_555
C230 C229 1_555 1_555
C231 C230 1_555 1_555
C232 C227 1_555 1_555
C233 C232 1_555 1_555
H298 C233 1_555 1_555
C234 C233 1_555 1_555
H299 C234 1_555 1_555
C235 C234 1_555 1_555
H300 C235 1_555 1_555
C236 C231 1_555 1_555
C237 C226 1_555 1_555
H301 C237 1_555 1_555
C238 C220 1_555 1_555
H302 C238 1_555 1_555
C239 C236 1_555 1_555
H303 C239 1_555 1_555
C240 C230 1_555 1_555
H304 C240 1_555 1_555
C241 H305 1_555 1_555
C242 C241 1_555 1_555
H306 C242 1_555 1_555
C243 C242 1_555 1_555
H307 C243 1_555 1_555
C244 C243 1_555 1_555
C245 C244 1_555 1_555
C246 C241 1_555 1_555
C247 C246 1_555 1_555
H308 C247 1_555 1_555
C248 C247 1_555 1_555
H309 C248 1_555 1_555
C249 C248 1_555 1_555
H310 C249 1_555 1_555
C250 C245 1_555 1_555
C251 C250 1_555 1_555
H311 C251 1_555 1_555
C252 C244 1_555 1_555
H312 C252 1_555 1_555
N73 O8 1_555 1_555
O9 N73 1_555 1_555
O10 N73 1_555 1_555
N75 O14 1_555 1_555
O15 N75 1_555 1_555
O16 N75 1_555 1_555
N77 O21 1_555 1_555
O22 N77 1_555 1_555
O23 N77 1_555 1_555
N78 O25 1_555 1_555
O26 N78 1_555 1_555
O27 N78 1_555 1_555
N80 O37 1_555 1_555
O38 N80 1_555 1_555
O39 N80 1_555 1_555
N82 O45 1_555 1_555
O46 N82 1_555 1_555
O47 N82 1_555 1_555
N83 O51 1_555 1_555
O52 N83 1_555 1_555
O53 N83 1_555 1_555
N84 O56 1_555 1_555
O57 N84 1_555 1_555
O58 N84 1_555 1_555
N85 O61 1_555 1_555
O62 N85 1_555 1_555
O63 N85 1_555 1_555
N86 O64 1_555 1_555
O65 N86 1_555 1_555
O66 N86 1_555 1_555
N89 O73 1_555 1_555
O74 N89 1_555 1_555
O75 N89 1_555 1_555
N3 C8 1_555 1_555
N9 C26 1_555 1_555
N15 C44 1_555 1_555
N21 C62 1_555 1_555
C4 C5 1_555 1_555
C10 C11 1_555 1_555
C12 C13 1_555 1_555
C15 C16 1_555 1_555
C17 C18 1_555 1_555
C22 C23 1_555 1_555
C28 C29 1_555 1_555
C30 C31 1_555 1_555
C33 C34 1_555 1_555
C35 C36 1_555 1_555
C40 C41 1_555 1_555
C46 C47 1_555 1_555
C48 C49 1_555 1_555
C51 C52 1_555 1_555
C53 C54 1_555 1_555
C58 C59 1_555 1_555
C64 C65 1_555 1_555
C66 C67 1_555 1_555
C69 C70 1_555 1_555
C71 C72 1_555 1_555
C75 C76 1_555 1_555
C81 C82 1_555 1_555
C87 C88 1_555 1_555
C93 C94 1_555 1_555
C99 C100 1_555 1_555
C105 C106 1_555 1_555
N39 C116 1_555 1_555
N45 C134 1_555 1_555
N51 C152 1_555 1_555
N57 C170 1_555 1_555
C112 C113 1_555 1_555
C118 C119 1_555 1_555
C120 C121 1_555 1_555
C123 C124 1_555 1_555
C125 C126 1_555 1_555
C130 C131 1_555 1_555
C136 C137 1_555 1_555
C138 C139 1_555 1_555
C141 C142 1_555 1_555
C143 C144 1_555 1_555
C148 C149 1_555 1_555
C154 C155 1_555 1_555
C156 C157 1_555 1_555
C159 C160 1_555 1_555
C161 C162 1_555 1_555
C166 C167 1_555 1_555
C172 C173 1_555 1_555
C174 C175 1_555 1_555
C177 C178 1_555 1_555
C179 C180 1_555 1_555
C183 C184 1_555 1_555
C189 C190 1_555 1_555
C195 C196 1_555 1_555
C201 C202 1_555 1_555
C207 C208 1_555 1_555
C213 C214 1_555 1_555
C221 C222 1_555 1_555
C225 C226 1_555 1_555
C231 C232 1_555 1_555
C235 C236 1_555 1_555
C237 C238 1_555 1_555
C237 C240 1_555 1_555
C238 C239 1_555 1_555
C239 C240 1_555 1_555
C245 C246 1_555 1_555
C249 C250 1_555 1_555
C251 C252 1_555 1_555

#END
