
#######################################################################
#
#                 Cambridge Crystallographic Data Centre
#                                CCDC 
#
#######################################################################
#
# If this CIF has been generated from an entry in the Cambridge 
# Structural Database, then it will include bibliographic, chemical, 
# crystal, experimental, refinement or atomic coordinate data resulting 
# from the CCDC's data processing and validation procedures.
#
#######################################################################

data_ODUKON
_chemical_formula_moiety         'C76 H80 Si4 Zr2,5(C6 H6)'
_chemical_name_systematic        
'4^3^,4^3^,8^3^,8^3^-tetrakis(\h^5^-Cyclopentadienyl)-4^2^,4^4^,8^2^,8^4^-tetrakis(trimethylsilyl)-4^3^,8^3^-dizircona-2,6(1,3)-dibenzena-1,3,5,7(1,4)-tetrabenzena-4,8(1,5)-dicyclopentadienacyclo-octaphane benzene solvate'
_symmetry_cell_setting           monoclinic
_symmetry_space_group_name_H-M   'C 2/c'
_symmetry_Int_Tables_number      15
_space_group_name_Hall           '-C 2yn'
loop_
_symmetry_equiv_pos_site_id
_symmetry_equiv_pos_as_xyz
1 x,y,z
2 -x,y,1/2-z
3 1/2+x,1/2+y,z
4 1/2-x,1/2+y,1/2-z
5 -x,-y,-z
6 x,-y,1/2+z
7 1/2-x,1/2-y,-z
8 1/2+x,1/2-y,1/2+z
_cell_length_a                   14.8362(1)
_cell_length_b                   27.4645(7)
_cell_length_c                   22.5575(3)
_cell_angle_alpha                90
_cell_angle_beta                 101.107(2)
_cell_angle_gamma                90
_cell_volume                     9019.31
_exptl_crystal_colour            yellow
_exptl_crystal_description       prism
_cell_formula_units_Z            4
loop_
_atom_site_label
_atom_site_type_symbol
_atom_site_fract_x
_atom_site_fract_y
_atom_site_fract_z
Zr1 Zr 0.1153(1) 0.81931(6) 0.09958(7)
Si1 Si -0.0274(3) 0.7872(2) -0.0492(2)
Si2 Si 0.2066(4) 0.7352(2) 0.2272(2)
C1 C 0.274(1) 0.7985(5) 0.0810(7)
C2 C 0.288(1) 0.8347(5) 0.1248(7)
C3 C 0.249(1) 0.8765(6) 0.0989(8)
C4 C 0.213(1) 0.8667(6) 0.0399(8)
C5 C 0.228(1) 0.8182(6) 0.0284(7)
C6 C 0.004(1) 0.8309(6) 0.1699(7)
C7 C -0.0487(9) 0.8305(5) 0.1153(7)
C8 C -0.026(1) 0.8728(6) 0.0868(7)
C9 C 0.041(1) 0.8980(6) 0.1232(8)
C10 C 0.060(1) 0.8708(6) 0.1772(7)
C11 C 0.0400(8) 0.7709(5) 0.0263(6)
C12 C 0.0472(9) 0.7262(5) 0.0500(6)
C13 C 0.1032(9) 0.7132(5) 0.1099(6)
C14 C 0.142(1) 0.7486(5) 0.1490(7)
C15 C -0.0044(9) 0.6836(5) 0.0164(5)
C16 C 0.0358(9) 0.6480(5) -0.0148(6)
C17 C -0.014(1) 0.6129(5) -0.0476(6)
C18 C -0.1109(9) 0.6111(5) -0.0528(6)
C19 C -0.1493(9) 0.6461(5) -0.0201(6)
C20 C -0.0988(9) 0.6815(5) 0.0133(5)
C21 C -0.1677(9) 0.5748(5) -0.0907(6)
C22 C -0.1426(8) 0.5263(5) -0.0940(6)
C23 C -0.1979(9) 0.4924(5) -0.1270(6)
C24 C -0.285(1) 0.5063(5) -0.1595(6)
C25 C -0.3102(9) 0.5545(5) -0.1568(6)
C26 C -0.254(1) 0.5887(5) -0.1240(6)
C27 C -0.1742(9) 0.4403(5) -0.1255(6)
C28 C -0.0849(9) 0.4239(5) -0.1341(6)
C29 C -0.0632(9) 0.3757(5) -0.1307(6)
C30 C 0.1277(9) 0.6599(5) 0.1208(5)
C31 C 0.2137(9) 0.6441(5) 0.1143(6)
C32 C -0.2365(9) 0.4035(5) -0.1186(6)
C33 C 0.019(1) 0.8433(6) -0.0778(7)
C34 C -0.026(1) 0.7417(6) -0.1099(7)
C35 C -0.151(1) 0.8009(5) -0.0461(7)
C36 C 0.218(1) 0.7907(6) 0.2740(7)
C37 C 0.328(1) 0.7148(8) 0.226(1)
C38 C 0.148(2) 0.6900(8) 0.269(1)
H1 H 0.2920 0.7646 0.0871
H2 H 0.3204 0.8299 0.1673
H3 H 0.2462 0.9080 0.1192
H4 H 0.1807 0.8899 0.0104
H5 H 0.2106 0.7996 -0.0106
H6 H 0.0024 0.8044 0.1995
H7 H -0.0938 0.8053 0.0979
H8 H -0.0555 0.8823 0.0458
H9 H 0.0687 0.9280 0.1122
H10 H 0.1040 0.8800 0.2137
H11 H 0.1030 0.6492 -0.0125
H12 H 0.0169 0.5874 -0.0675
H13 H -0.2166 0.6449 -0.0204
H14 H -0.1279 0.7065 0.0354
H15 H -0.0822 0.5153 -0.0713
H16 H -0.3257 0.4817 -0.1846
H17 H -0.3713 0.5643 -0.1799
H18 H -0.2730 0.6233 -0.1241
H19 H -0.0384 0.4482 -0.1429
H20 H -0.0007 0.3657 -0.1341
H21 H 0.2594 0.6688 0.1077
H22 H -0.3006 0.4133 -0.1173
H23 H 0.0792 0.8399 -0.0850
H24 H -0.0198 0.8551 -0.1148
H25 H 0.0205 0.8706 -0.0489
H26 H -0.0491 0.7098 -0.0994
H27 H -0.0647 0.7508 -0.1476
H28 H 0.0344 0.7358 -0.1176
H29 H -0.1571 0.8287 -0.0203
H30 H -0.1863 0.8104 -0.0863
H31 H -0.1829 0.7744 -0.0329
H32 H 0.2535 0.7848 0.3140
H33 H 0.2509 0.8162 0.2565
H34 H 0.1603 0.8037 0.2780
H35 H 0.3630 0.7097 0.2656
H36 H 0.3306 0.6871 0.2020
H37 H 0.3613 0.7412 0.2083
H38 H 0.0861 0.7008 0.2743
H39 H 0.1363 0.6583 0.2489
H40 H 0.1802 0.6826 0.3097
C29D C 0.0632(9) 0.6243(5) 0.1307(6)
C28D C 0.0849(9) 0.5761(5) 0.1341(6)
C27D C 0.1742(9) 0.5597(5) 0.1255(6)
C23D C 0.1979(9) 0.5076(5) 0.1270(6)
C22D C 0.1426(8) 0.4737(5) 0.0940(6)
C21D C 0.1677(9) 0.4252(5) 0.0907(6)
C18D C 0.1109(9) 0.3889(5) 0.0528(6)
C17D C 0.014(1) 0.3871(5) 0.0476(6)
C16D C -0.0358(9) 0.3520(5) 0.0148(6)
C15D C 0.0044(9) 0.3164(5) -0.0164(5)
C12D C -0.0472(9) 0.2738(5) -0.0500(6)
C11D C -0.0400(8) 0.2291(5) -0.0263(6)
Zr1D Zr -0.1153(1) 0.18069(6) -0.09958(7)
C1D C -0.274(1) 0.2015(5) -0.0810(7)
C2D C -0.288(1) 0.1653(5) -0.1248(7)
C3D C -0.249(1) 0.1235(6) -0.0989(8)
H2D H -0.3204 0.1701 -0.1673
C4D C -0.213(1) 0.1333(6) -0.0399(8)
C5D C -0.228(1) 0.1818(6) -0.0284(7)
H1D H -0.2920 0.2354 -0.0871
H4D H -0.1807 0.1101 -0.0104
H5D H -0.2106 0.2004 0.0106
C6D C -0.004(1) 0.1691(6) -0.1699(7)
C7D C 0.0487(9) 0.1695(5) -0.1153(7)
C8D C 0.026(1) 0.1272(6) -0.0868(7)
H7D H 0.0938 0.1947 -0.0979
C9D C -0.041(1) 0.1020(6) -0.1232(8)
C10D C -0.060(1) 0.1292(6) -0.1772(7)
H6D H -0.0024 0.1956 -0.1995
H9D H -0.0687 0.0720 -0.1122
H10D H -0.1040 0.1200 -0.2137
C14D C -0.142(1) 0.2514(5) -0.1490(7)
Si2D Si -0.2066(4) 0.2648(2) -0.2272(2)
C36D C -0.218(1) 0.2093(6) -0.2740(7)
H32D H -0.2535 0.2152 -0.3140
H33D H -0.2509 0.1838 -0.2565
H34D H -0.1603 0.1963 -0.2780
C37D C -0.328(1) 0.2852(8) -0.226(1)
H35D H -0.3630 0.2903 -0.2656
H36D H -0.3306 0.3129 -0.2020
H37D H -0.3613 0.2588 -0.2083
C38D C -0.148(2) 0.3100(8) -0.269(1)
H38D H -0.0861 0.2992 -0.2743
H39D H -0.1363 0.3417 -0.2489
H40D H -0.1802 0.3174 -0.3097
C13D C -0.1032(9) 0.2868(5) -0.1099(6)
C30D C -0.1277(9) 0.3401(5) -0.1208(5)
C31D C -0.2137(9) 0.3559(5) -0.1143(6)
H21D H -0.2594 0.3312 -0.1077
H8D H 0.0555 0.1177 -0.0458
H3D H -0.2462 0.0920 -0.1192
Si1D Si 0.0274(3) 0.2128(2) 0.0492(2)
C33D C -0.019(1) 0.1567(6) 0.0778(7)
H23D H -0.0792 0.1601 0.0850
H24D H 0.0198 0.1449 0.1148
H25D H -0.0205 0.1294 0.0489
C34D C 0.026(1) 0.2583(6) 0.1099(7)
H26D H 0.0491 0.2902 0.0994
H27D H 0.0647 0.2492 0.1476
H28D H -0.0344 0.2642 0.1176
C35D C 0.151(1) 0.1991(5) 0.0461(7)
H29D H 0.1571 0.1713 0.0203
H30D H 0.1863 0.1896 0.0863
H31D H 0.1829 0.2256 0.0329
C20D C 0.0988(9) 0.3185(5) -0.0133(5)
C19D C 0.1493(9) 0.3539(5) 0.0201(6)
H13D H 0.2166 0.3551 0.0204
H14D H 0.1279 0.2935 -0.0354
H11D H -0.1030 0.3508 0.0125
H12D H -0.0169 0.4126 0.0675
C26D C 0.254(1) 0.4113(5) 0.1240(6)
C25D C 0.3102(9) 0.4455(5) 0.1568(6)
C24D C 0.285(1) 0.4937(5) 0.1595(6)
H16D H 0.3257 0.5183 0.1846
H17D H 0.3713 0.4357 0.1799
H18D H 0.2730 0.3767 0.1241
H15D H 0.0822 0.4847 0.0713
C32D C 0.2365(9) 0.5965(5) 0.1186(6)
H22D H 0.3006 0.5867 0.1173
H19D H 0.0384 0.5518 0.1429
H20D H 0.0007 0.6343 0.1341
C39 C 0.349(1) 0.998(1) 0.095(1)
C40 C 0.361(1) 0.9834(6) 0.155(2)
C41 C 0.341(1) 1.015(1) 0.1987(8)
C42 C 0.309(1) 1.062(1) 0.182(1)
C43 C 0.297(1) 1.0770(6) 0.122(2)
C44 C 0.317(1) 1.045(1) 0.0784(8)
C45 C 0.097(2) 1.0056(9) -0.008(1)
C46 C 0.026(2) 0.9809(8) -0.052(1)
C47 C 0.077(2) 1.026(1) 0.047(1)
C47D C -0.077(2) 0.974(1) -0.047(1)
C45D C -0.097(2) 0.9944(9) 0.008(1)
C46D C -0.026(2) 1.0191(8) 0.052(1)
C48 C 0.5000 0.938(1) 0.2500
C49 C 0.438(2) 0.903(1) 0.284(1)
C50 C 0.5000 0.844(2) 0.2500
C51 C 0.451(2) 0.865(1) 0.280(1)
C51A C 0.549(2) 0.865(1) 0.220(1)
C49A C 0.562(2) 0.903(1) 0.216(1)
C52 C 0.0000 1.098(1) 0.2500
C53 C 0.068(2) 1.077(1) 0.216(1)
C54 C 0.056(2) 1.023(1) 0.216(1)
C55 C 0.0000 1.002(1) 0.2500
C54A C -0.056(2) 1.023(1) 0.284(1)
C53A C -0.068(2) 1.077(1) 0.284(1)
loop_
_geom_bond_atom_site_label_1
_geom_bond_atom_site_label_2
_geom_bond_site_symmetry_1
_geom_bond_site_symmetry_2
Zr1 C1 1_555 1_555
Si1 C11 1_555 1_555
Si2 C14 1_555 1_555
C1 C2 1_555 1_555
C2 Zr1 1_555 1_555
C3 Zr1 1_555 1_555
C4 Zr1 1_555 1_555
C5 Zr1 1_555 1_555
C6 Zr1 1_555 1_555
C7 Zr1 1_555 1_555
C8 Zr1 1_555 1_555
C9 Zr1 1_555 1_555
C10 Zr1 1_555 1_555
C11 Zr1 1_555 1_555
C12 C11 1_555 1_555
C13 C12 1_555 1_555
C14 Zr1 1_555 1_555
C15 C12 1_555 1_555
C16 C15 1_555 1_555
C17 C16 1_555 1_555
C18 C17 1_555 1_555
C19 C18 1_555 1_555
C20 C15 1_555 1_555
C21 C18 1_555 1_555
C22 C21 1_555 1_555
C23 C22 1_555 1_555
C24 C23 1_555 1_555
C25 C24 1_555 1_555
C26 C21 1_555 1_555
C27 C23 1_555 1_555
C28 C27 1_555 1_555
C29 C28 1_555 1_555
C30 C13 1_555 1_555
C31 C30 1_555 1_555
C32 C27 1_555 1_555
C33 Si1 1_555 1_555
C34 Si1 1_555 1_555
C35 Si1 1_555 1_555
C36 Si2 1_555 1_555
C37 Si2 1_555 1_555
C38 Si2 1_555 1_555
C39 C40 1_555 1_555
C40 C41 1_555 1_555
C41 C42 1_555 1_555
C42 C43 1_555 1_555
C43 C44 1_555 1_555
C44 C39 1_555 1_555
C45 C46 1_555 1_555
C46 C47D 1_555 1_555
C47 C45 1_555 1_555
C48 C49 1_555 1_555
C49 C51 1_555 1_555
C50 C51 1_555 1_555
C52 C53 1_555 1_555
C53 C54 1_555 1_555
C54 C55 1_555 1_555
C55 C54A 1_555 1_555
H1 C1 1_555 1_555
H2 C2 1_555 1_555
H3 C3 1_555 1_555
H4 C4 1_555 1_555
H5 C5 1_555 1_555
H6 C6 1_555 1_555
H7 C7 1_555 1_555
H8 C8 1_555 1_555
H9 C9 1_555 1_555
H10 C10 1_555 1_555
H11 C16 1_555 1_555
H12 C17 1_555 1_555
H13 C19 1_555 1_555
H14 C20 1_555 1_555
H15 C22 1_555 1_555
H16 C24 1_555 1_555
H17 C25 1_555 1_555
H18 C26 1_555 1_555
H19 C28 1_555 1_555
H20 C29 1_555 1_555
H21 C31 1_555 1_555
H22 C32 1_555 1_555
H23 C33 1_555 1_555
H24 C33 1_555 1_555
H25 C33 1_555 1_555
H26 C34 1_555 1_555
H27 C34 1_555 1_555
H28 C34 1_555 1_555
H29 C35 1_555 1_555
H30 C35 1_555 1_555
H31 C35 1_555 1_555
H32 C36 1_555 1_555
H33 C36 1_555 1_555
H34 C36 1_555 1_555
H35 C37 1_555 1_555
H36 C37 1_555 1_555
H37 C37 1_555 1_555
H38 C38 1_555 1_555
H39 C38 1_555 1_555
H40 C38 1_555 1_555
C29D C30 1_555 1_555
C28D C29D 1_555 1_555
C27D C28D 1_555 1_555
C23D C27D 1_555 1_555
C22D C23D 1_555 1_555
C21D C22D 1_555 1_555
C18D C21D 1_555 1_555
C17D C18D 1_555 1_555
C16D C17D 1_555 1_555
C15D C16D 1_555 1_555
C12D C15D 1_555 1_555
C11D C12D 1_555 1_555
Zr1D C11D 1_555 1_555
C1D Zr1D 1_555 1_555
C2D Zr1D 1_555 1_555
C3D Zr1D 1_555 1_555
H2D C2D 1_555 1_555
C4D Zr1D 1_555 1_555
C5D Zr1D 1_555 1_555
H1D C1D 1_555 1_555
H4D C4D 1_555 1_555
H5D C5D 1_555 1_555
C6D Zr1D 1_555 1_555
C7D Zr1D 1_555 1_555
C8D Zr1D 1_555 1_555
H7D C7D 1_555 1_555
C9D Zr1D 1_555 1_555
C10D Zr1D 1_555 1_555
H6D C6D 1_555 1_555
H9D C9D 1_555 1_555
H10D C10D 1_555 1_555
C14D Zr1D 1_555 1_555
Si2D C14D 1_555 1_555
C36D Si2D 1_555 1_555
H32D C36D 1_555 1_555
H33D C36D 1_555 1_555
H34D C36D 1_555 1_555
C37D Si2D 1_555 1_555
H35D C37D 1_555 1_555
H36D C37D 1_555 1_555
H37D C37D 1_555 1_555
C38D Si2D 1_555 1_555
H38D C38D 1_555 1_555
H39D C38D 1_555 1_555
H40D C38D 1_555 1_555
C13D C12D 1_555 1_555
C30D C29 1_555 1_555
C31D C32 1_555 1_555
H21D C31D 1_555 1_555
H8D C8D 1_555 1_555
H3D C3D 1_555 1_555
Si1D C11D 1_555 1_555
C33D Si1D 1_555 1_555
H23D C33D 1_555 1_555
H24D C33D 1_555 1_555
H25D C33D 1_555 1_555
C34D Si1D 1_555 1_555
H26D C34D 1_555 1_555
H27D C34D 1_555 1_555
H28D C34D 1_555 1_555
C35D Si1D 1_555 1_555
H29D C35D 1_555 1_555
H30D C35D 1_555 1_555
H31D C35D 1_555 1_555
C20D C15D 1_555 1_555
C19D C18D 1_555 1_555
H13D C19D 1_555 1_555
H14D C20D 1_555 1_555
H11D C16D 1_555 1_555
H12D C17D 1_555 1_555
C26D C21D 1_555 1_555
C25D C26D 1_555 1_555
C24D C23D 1_555 1_555
H16D C24D 1_555 1_555
H17D C25D 1_555 1_555
H18D C26D 1_555 1_555
H15D C22D 1_555 1_555
C32D C31 1_555 1_555
H22D C32D 1_555 1_555
H19D C28D 1_555 1_555
H20D C29D 1_555 1_555
C47D C45D 1_555 1_555
C45D C46D 1_555 1_555
C46D C47 1_555 1_555
C51A C50 1_555 1_555
C49A C48 1_555 1_555
C54A C53A 1_555 1_555
C53A C52 1_555 1_555
C1 C5 1_555 1_555
C2 C3 1_555 1_555
C3 C4 1_555 1_555
C4 C5 1_555 1_555
C6 C7 1_555 1_555
C6 C10 1_555 1_555
C7 C8 1_555 1_555
C8 C9 1_555 1_555
C9 C10 1_555 1_555
C13 C14 1_555 1_555
C19 C20 1_555 1_555
C25 C26 1_555 1_555
C27D C32D 1_555 1_555
C1D C2D 1_555 1_555
C1D C5D 1_555 1_555
C2D C3D 1_555 1_555
C3D C4D 1_555 1_555
C4D C5D 1_555 1_555
C6D C7D 1_555 1_555
C6D C10D 1_555 1_555
C7D C8D 1_555 1_555
C8D C9D 1_555 1_555
C9D C10D 1_555 1_555
C14D C13D 1_555 1_555
C13D C30D 1_555 1_555
C30D C31D 1_555 1_555
C20D C19D 1_555 1_555
C25D C24D 1_555 1_555
C51A C49A 1_555 1_555

#END
