# generated using pymatgen
data_H288Pd6C252N52O209
_symmetry_space_group_name_H-M   'P 1'
_cell_length_a   26.28300000
_cell_length_b   26.28300000
_cell_length_c   32.15000000
_cell_angle_alpha   90.00000000
_cell_angle_beta   90.00000000
_cell_angle_gamma   90.00000000
_symmetry_Int_Tables_number   1
_chemical_formula_structural   H288Pd6C252N52O209
_chemical_formula_sum   'H1152 Pd24 C1008 N208 O836'
_cell_volume   22209.09426135
_cell_formula_units_Z   4
loop_
 _symmetry_equiv_pos_site_id
 _symmetry_equiv_pos_as_xyz
  1  'x, y, z'
loop_
 _atom_site_type_symbol
 _atom_site_label
 _atom_site_symmetry_multiplicity
 _atom_site_fract_x
 _atom_site_fract_y
 _atom_site_fract_z
 _atom_site_occupancy
  H  H1  1  0.935200  0.147200  0.583300  1
  H  H2  1  0.602800  0.185200  0.833300  1
  H  H3  1  0.435200  0.647200  0.083300  1
  H  H4  1  0.102800  0.685200  0.333300  1
  H  H5  1  0.397200  0.314800  0.833300  1
  H  H6  1  0.564800  0.852800  0.083300  1
  H  H7  1  0.897200  0.814800  0.333300  1
  H  H8  1  0.064800  0.352800  0.583300  1
  H  H9  1  0.064800  0.852800  0.416700  1
  H  H10  1  0.397200  0.814800  0.166700  1
  H  H11  1  0.564800  0.352800  0.916700  1
  H  H12  1  0.897200  0.314800  0.666700  1
  H  H13  1  0.602800  0.685200  0.166700  1
  H  H14  1  0.435200  0.147200  0.916700  1
  H  H15  1  0.102800  0.185200  0.666700  1
  H  H16  1  0.935200  0.647200  0.416700  1
  H  H17  1  0.965300  0.226200  0.560700  1
  H  H18  1  0.523800  0.215300  0.810700  1
  H  H19  1  0.465300  0.726200  0.060700  1
  H  H20  1  0.023800  0.715300  0.310700  1
  H  H21  1  0.476200  0.284700  0.810700  1
  H  H22  1  0.534700  0.773800  0.060700  1
  H  H23  1  0.976200  0.784700  0.310700  1
  H  H24  1  0.034700  0.273800  0.560700  1
  H  H25  1  0.034700  0.773800  0.439300  1
  H  H26  1  0.476200  0.784700  0.189300  1
  H  H27  1  0.534700  0.273800  0.939300  1
  H  H28  1  0.976200  0.284700  0.689300  1
  H  H29  1  0.523800  0.715300  0.189300  1
  H  H30  1  0.465300  0.226200  0.939300  1
  H  H31  1  0.023800  0.215300  0.689300  1
  H  H32  1  0.965300  0.726200  0.439300  1
  H  H33  1  0.958500  0.177400  0.531300  1
  H  H34  1  0.572600  0.208500  0.781300  1
  H  H35  1  0.458500  0.677400  0.031300  1
  H  H36  1  0.072600  0.708500  0.281300  1
  H  H37  1  0.427400  0.291500  0.781300  1
  H  H38  1  0.541500  0.822600  0.031300  1
  H  H39  1  0.927400  0.791500  0.281300  1
  H  H40  1  0.041500  0.322600  0.531300  1
  H  H41  1  0.041500  0.822600  0.468700  1
  H  H42  1  0.427400  0.791500  0.218700  1
  H  H43  1  0.541500  0.322600  0.968700  1
  H  H44  1  0.927400  0.291500  0.718700  1
  H  H45  1  0.572600  0.708500  0.218700  1
  H  H46  1  0.458500  0.177400  0.968700  1
  H  H47  1  0.072600  0.208500  0.718700  1
  H  H48  1  0.958500  0.677400  0.468700  1
  H  H49  1  0.039400  0.213200  0.518700  1
  H  H50  1  0.536800  0.289400  0.768700  1
  H  H51  1  0.539400  0.713200  0.018700  1
  H  H52  1  0.036800  0.789400  0.268700  1
  H  H53  1  0.463200  0.210600  0.768700  1
  H  H54  1  0.460600  0.786800  0.018700  1
  H  H55  1  0.963200  0.710600  0.268700  1
  H  H56  1  0.960600  0.286800  0.518700  1
  H  H57  1  0.960600  0.786800  0.481300  1
  H  H58  1  0.463200  0.710600  0.231300  1
  H  H59  1  0.460600  0.286800  0.981300  1
  H  H60  1  0.963200  0.210600  0.731300  1
  H  H61  1  0.536800  0.789400  0.231300  1
  H  H62  1  0.539400  0.213200  0.981300  1
  H  H63  1  0.036800  0.289400  0.731300  1
  H  H64  1  0.039400  0.713200  0.481300  1
  H  H65  1  0.053100  0.210600  0.567100  1
  H  H66  1  0.539400  0.303100  0.817100  1
  H  H67  1  0.553100  0.710600  0.067100  1
  H  H68  1  0.039400  0.803100  0.317100  1
  H  H69  1  0.460600  0.196900  0.817100  1
  H  H70  1  0.446900  0.789400  0.067100  1
  H  H71  1  0.960600  0.696900  0.317100  1
  H  H72  1  0.946900  0.289400  0.567100  1
  H  H73  1  0.946900  0.789400  0.432900  1
  H  H74  1  0.460600  0.696900  0.182900  1
  H  H75  1  0.446900  0.289400  0.932900  1
  H  H76  1  0.960600  0.196900  0.682900  1
  H  H77  1  0.539400  0.803100  0.182900  1
  H  H78  1  0.553100  0.210600  0.932900  1
  H  H79  1  0.039400  0.303100  0.682900  1
  H  H80  1  0.053100  0.710600  0.432900  1
  H  H81  1  0.094300  0.145300  0.533500  1
  H  H82  1  0.604700  0.344300  0.783500  1
  H  H83  1  0.594300  0.645300  0.033500  1
  H  H84  1  0.104700  0.844300  0.283500  1
  H  H85  1  0.395300  0.155700  0.783500  1
  H  H86  1  0.405700  0.854700  0.033500  1
  H  H87  1  0.895300  0.655700  0.283500  1
  H  H88  1  0.905700  0.354700  0.533500  1
  H  H89  1  0.905700  0.854700  0.466500  1
  H  H90  1  0.395300  0.655700  0.216500  1
  H  H91  1  0.405700  0.354700  0.966500  1
  H  H92  1  0.895300  0.155700  0.716500  1
  H  H93  1  0.604700  0.844300  0.216500  1
  H  H94  1  0.594300  0.145300  0.966500  1
  H  H95  1  0.104700  0.344300  0.716500  1
  H  H96  1  0.094300  0.645300  0.466500  1
  H  H97  1  0.041900  0.125800  0.513500  1
  H  H98  1  0.624200  0.291900  0.763500  1
  H  H99  1  0.541900  0.625800  0.013500  1
  H  H100  1  0.124200  0.791900  0.263500  1
  H  H101  1  0.375800  0.208100  0.763500  1
  H  H102  1  0.458100  0.874200  0.013500  1
  H  H103  1  0.875800  0.708100  0.263500  1
  H  H104  1  0.958100  0.374200  0.513500  1
  H  H105  1  0.958100  0.874200  0.486500  1
  H  H106  1  0.375800  0.708100  0.236500  1
  H  H107  1  0.458100  0.374200  0.986500  1
  H  H108  1  0.875800  0.208100  0.736500  1
  H  H109  1  0.624200  0.791900  0.236500  1
  H  H110  1  0.541900  0.125800  0.986500  1
  H  H111  1  0.124200  0.291900  0.736500  1
  H  H112  1  0.041900  0.625800  0.486500  1
  H  H113  1  0.060300  0.073300  0.570700  1
  H  H114  1  0.676700  0.310300  0.820700  1
  H  H115  1  0.560300  0.573300  0.070700  1
  H  H116  1  0.176700  0.810300  0.320700  1
  H  H117  1  0.323300  0.189700  0.820700  1
  H  H118  1  0.439700  0.926700  0.070700  1
  H  H119  1  0.823300  0.689700  0.320700  1
  H  H120  1  0.939700  0.426700  0.570700  1
  H  H121  1  0.939700  0.926700  0.429300  1
  H  H122  1  0.323300  0.689700  0.179300  1
  H  H123  1  0.439700  0.426700  0.929300  1
  H  H124  1  0.823300  0.189700  0.679300  1
  H  H125  1  0.676700  0.810300  0.179300  1
  H  H126  1  0.560300  0.073300  0.929300  1
  H  H127  1  0.176700  0.310300  0.679300  1
  H  H128  1  0.060300  0.573300  0.429300  1
  H  H129  1  0.067900  0.121600  0.600400  1
  H  H130  1  0.628400  0.317900  0.850400  1
  H  H131  1  0.567900  0.621600  0.100400  1
  H  H132  1  0.128400  0.817900  0.350400  1
  H  H133  1  0.371600  0.182100  0.850400  1
  H  H134  1  0.432100  0.878400  0.100400  1
  H  H135  1  0.871600  0.682100  0.350400  1
  H  H136  1  0.932100  0.378400  0.600400  1
  H  H137  1  0.932100  0.878400  0.399600  1
  H  H138  1  0.371600  0.682100  0.149600  1
  H  H139  1  0.432100  0.378400  0.899600  1
  H  H140  1  0.871600  0.182100  0.649600  1
  H  H141  1  0.628400  0.817900  0.149600  1
  H  H142  1  0.567900  0.121600  0.899600  1
  H  H143  1  0.128400  0.317900  0.649600  1
  H  H144  1  0.067900  0.621600  0.399600  1
  H  H145  1  0.973000  0.086700  0.567200  1
  H  H146  1  0.663300  0.223000  0.817200  1
  H  H147  1  0.473000  0.586700  0.067200  1
  H  H148  1  0.163300  0.723000  0.317200  1
  H  H149  1  0.336700  0.277000  0.817200  1
  H  H150  1  0.527000  0.913300  0.067200  1
  H  H151  1  0.836700  0.777000  0.317200  1
  H  H152  1  0.027000  0.413300  0.567200  1
  H  H153  1  0.027000  0.913300  0.432800  1
  H  H154  1  0.336700  0.777000  0.182800  1
  H  H155  1  0.527000  0.413300  0.932800  1
  H  H156  1  0.836700  0.277000  0.682800  1
  H  H157  1  0.663300  0.723000  0.182800  1
  H  H158  1  0.473000  0.086700  0.932800  1
  H  H159  1  0.163300  0.223000  0.682800  1
  H  H160  1  0.973000  0.586700  0.432800  1
  H  H161  1  0.988400  0.087600  0.615400  1
  H  H162  1  0.662400  0.238400  0.865400  1
  H  H163  1  0.488400  0.587600  0.115400  1
  H  H164  1  0.162400  0.738400  0.365400  1
  H  H165  1  0.337600  0.261600  0.865400  1
  H  H166  1  0.511600  0.912400  0.115400  1
  H  H167  1  0.837600  0.761600  0.365400  1
  H  H168  1  0.011600  0.412400  0.615400  1
  H  H169  1  0.011600  0.912400  0.384600  1
  H  H170  1  0.337600  0.761600  0.134600  1
  H  H171  1  0.511600  0.412400  0.884600  1
  H  H172  1  0.837600  0.261600  0.634600  1
  H  H173  1  0.662400  0.738400  0.134600  1
  H  H174  1  0.488400  0.087600  0.884600  1
  H  H175  1  0.162400  0.238400  0.634600  1
  H  H176  1  0.988400  0.587600  0.384600  1
  H  H177  1  0.890100  0.393400  0.567800  1.0
  H  H178  1  0.356600  0.140100  0.817800  1.0
  H  H179  1  0.390100  0.893400  0.067800  1.0
  H  H180  1  0.856600  0.640100  0.317800  1.0
  H  H181  1  0.643400  0.359900  0.817800  1.0
  H  H182  1  0.609900  0.606600  0.067800  1.0
  H  H183  1  0.143400  0.859900  0.317800  1.0
  H  H184  1  0.109900  0.106600  0.567800  1.0
  H  H185  1  0.109900  0.606600  0.432200  1.0
  H  H186  1  0.643400  0.859900  0.182200  1.0
  H  H187  1  0.609900  0.106600  0.932200  1.0
  H  H188  1  0.143400  0.359900  0.682200  1.0
  H  H189  1  0.356600  0.640100  0.182200  1.0
  H  H190  1  0.390100  0.393400  0.932200  1.0
  H  H191  1  0.856600  0.140100  0.682200  1.0
  H  H192  1  0.890100  0.893400  0.432200  1.0
  H  H193  1  0.848500  0.345000  0.617000  1.0
  H  H194  1  0.405000  0.098500  0.867000  1.0
  H  H195  1  0.348500  0.845000  0.117000  1.0
  H  H196  1  0.905000  0.598500  0.367000  1.0
  H  H197  1  0.595000  0.401500  0.867000  1.0
  H  H198  1  0.651500  0.655000  0.117000  1.0
  H  H199  1  0.095000  0.901500  0.367000  1.0
  H  H200  1  0.151500  0.155000  0.617000  1.0
  H  H201  1  0.151500  0.655000  0.383000  1.0
  H  H202  1  0.595000  0.901500  0.133000  1.0
  H  H203  1  0.651500  0.155000  0.883000  1.0
  H  H204  1  0.095000  0.401500  0.633000  1.0
  H  H205  1  0.405000  0.598500  0.133000  1.0
  H  H206  1  0.348500  0.345000  0.883000  1.0
  H  H207  1  0.905000  0.098500  0.633000  1.0
  H  H208  1  0.848500  0.845000  0.383000  1.0
  H  H209  1  0.892200  0.332000  0.677700  1.0
  H  H210  1  0.418000  0.142200  0.927700  1.0
  H  H211  1  0.392200  0.832000  0.177700  1.0
  H  H212  1  0.918000  0.642200  0.427700  1.0
  H  H213  1  0.582000  0.357800  0.927700  1.0
  H  H214  1  0.607800  0.668000  0.177700  1.0
  H  H215  1  0.082000  0.857800  0.427700  1.0
  H  H216  1  0.107800  0.168000  0.677700  1.0
  H  H217  1  0.107800  0.668000  0.322300  1.0
  H  H218  1  0.582000  0.857800  0.072300  1.0
  H  H219  1  0.607800  0.168000  0.822300  1.0
  H  H220  1  0.082000  0.357800  0.572300  1.0
  H  H221  1  0.418000  0.642200  0.072300  1.0
  H  H222  1  0.392200  0.332000  0.822300  1.0
  H  H223  1  0.918000  0.142200  0.572300  1.0
  H  H224  1  0.892200  0.832000  0.322300  1.0
  H  H225  1  0.964100  0.425400  0.540400  1.0
  H  H226  1  0.324600  0.214100  0.790400  1.0
  H  H227  1  0.464100  0.925400  0.040400  1.0
  H  H228  1  0.824600  0.714100  0.290400  1.0
  H  H229  1  0.675400  0.285900  0.790400  1.0
  H  H230  1  0.535900  0.574600  0.040400  1.0
  H  H231  1  0.175400  0.785900  0.290400  1.0
  H  H232  1  0.035900  0.074600  0.540400  1.0
  H  H233  1  0.035900  0.574600  0.459600  1.0
  H  H234  1  0.675400  0.785900  0.209600  1.0
  H  H235  1  0.535900  0.074600  0.959600  1.0
  H  H236  1  0.175400  0.285900  0.709600  1.0
  H  H237  1  0.324600  0.714100  0.209600  1.0
  H  H238  1  0.464100  0.425400  0.959600  1.0
  H  H239  1  0.824600  0.214100  0.709600  1.0
  H  H240  1  0.964100  0.925400  0.459600  1.0
  H  H241  1  0.053700  0.434600  0.544700  1.0
  H  H242  1  0.315400  0.303700  0.794700  1.0
  H  H243  1  0.553700  0.934600  0.044700  1.0
  H  H244  1  0.815400  0.803700  0.294700  1.0
  H  H245  1  0.684600  0.196300  0.794700  1.0
  H  H246  1  0.446300  0.565400  0.044700  1.0
  H  H247  1  0.184600  0.696300  0.294700  1.0
  H  H248  1  0.946300  0.065400  0.544700  1.0
  H  H249  1  0.946300  0.565400  0.455300  1.0
  H  H250  1  0.684600  0.696300  0.205300  1.0
  H  H251  1  0.446300  0.065400  0.955300  1.0
  H  H252  1  0.184600  0.196300  0.705300  1.0
  H  H253  1  0.315400  0.803700  0.205300  1.0
  H  H254  1  0.553700  0.434600  0.955300  1.0
  H  H255  1  0.815400  0.303700  0.705300  1.0
  H  H256  1  0.053700  0.934600  0.455300  1.0
  H  H257  1  0.857400  0.348700  0.654200  1.0
  H  H258  1  0.401300  0.107400  0.904200  1.0
  H  H259  1  0.357400  0.848700  0.154200  1.0
  H  H260  1  0.901300  0.607400  0.404200  1.0
  H  H261  1  0.598700  0.392600  0.904200  1.0
  H  H262  1  0.642600  0.651300  0.154200  1.0
  H  H263  1  0.098700  0.892600  0.404200  1.0
  H  H264  1  0.142600  0.151300  0.654200  1.0
  H  H265  1  0.142600  0.651300  0.345800  1.0
  H  H266  1  0.598700  0.892600  0.095800  1.0
  H  H267  1  0.642600  0.151300  0.845800  1.0
  H  H268  1  0.098700  0.392600  0.595800  1.0
  H  H269  1  0.401300  0.607400  0.095800  1.0
  H  H270  1  0.357400  0.348700  0.845800  1.0
  H  H271  1  0.901300  0.107400  0.595800  1.0
  H  H272  1  0.857400  0.848700  0.345800  1.0
  H  H273  1  0.903100  0.391300  0.610600  1.0
  H  H274  1  0.358700  0.153100  0.860600  1.0
  H  H275  1  0.403100  0.891300  0.110600  1.0
  H  H276  1  0.858700  0.653100  0.360600  1.0
  H  H277  1  0.641300  0.346900  0.860600  1.0
  H  H278  1  0.596900  0.608700  0.110600  1.0
  H  H279  1  0.141300  0.846900  0.360600  1.0
  H  H280  1  0.096900  0.108700  0.610600  1.0
  H  H281  1  0.096900  0.608700  0.389400  1.0
  H  H282  1  0.641300  0.846900  0.139400  1.0
  H  H283  1  0.596900  0.108700  0.889400  1.0
  H  H284  1  0.141300  0.346900  0.639400  1.0
  H  H285  1  0.358700  0.653100  0.139400  1.0
  H  H286  1  0.403100  0.391300  0.889400  1.0
  H  H287  1  0.858700  0.153100  0.639400  1.0
  H  H288  1  0.903100  0.891300  0.389400  1.0
  H  H289  1  0.944200  0.430800  0.557600  1.0
  H  H290  1  0.319200  0.194200  0.807600  1.0
  H  H291  1  0.444200  0.930800  0.057600  1.0
  H  H292  1  0.819200  0.694200  0.307600  1.0
  H  H293  1  0.680800  0.305800  0.807600  1.0
  H  H294  1  0.555800  0.569200  0.057600  1.0
  H  H295  1  0.180800  0.805800  0.307600  1.0
  H  H296  1  0.055800  0.069200  0.557600  1.0
  H  H297  1  0.055800  0.569200  0.442400  1.0
  H  H298  1  0.680800  0.805800  0.192400  1.0
  H  H299  1  0.555800  0.069200  0.942400  1.0
  H  H300  1  0.180800  0.305800  0.692400  1.0
  H  H301  1  0.319200  0.694200  0.192400  1.0
  H  H302  1  0.444200  0.430800  0.942400  1.0
  H  H303  1  0.819200  0.194200  0.692400  1.0
  H  H304  1  0.944200  0.930800  0.442400  1.0
  H  H305  1  0.002500  0.388200  0.512000  1.0
  H  H306  1  0.361800  0.252500  0.762000  1.0
  H  H307  1  0.502500  0.888200  0.012000  1.0
  H  H308  1  0.861800  0.752500  0.262000  1.0
  H  H309  1  0.638200  0.247500  0.762000  1.0
  H  H310  1  0.497500  0.611800  0.012000  1.0
  H  H311  1  0.138200  0.747500  0.262000  1.0
  H  H312  1  0.997500  0.111800  0.512000  1.0
  H  H313  1  0.997500  0.611800  0.488000  1.0
  H  H314  1  0.638200  0.747500  0.238000  1.0
  H  H315  1  0.497500  0.111800  0.988000  1.0
  H  H316  1  0.138200  0.247500  0.738000  1.0
  H  H317  1  0.361800  0.752500  0.238000  1.0
  H  H318  1  0.502500  0.388200  0.988000  1.0
  H  H319  1  0.861800  0.252500  0.738000  1.0
  H  H320  1  0.002500  0.888200  0.488000  1.0
  H  H321  1  0.038200  0.309200  0.520500  1.0
  H  H322  1  0.440800  0.288200  0.770500  1.0
  H  H323  1  0.538200  0.809200  0.020500  1.0
  H  H324  1  0.940800  0.788200  0.270500  1.0
  H  H325  1  0.559200  0.211800  0.770500  1.0
  H  H326  1  0.461800  0.690800  0.020500  1.0
  H  H327  1  0.059200  0.711800  0.270500  1.0
  H  H328  1  0.961800  0.190800  0.520500  1.0
  H  H329  1  0.961800  0.690800  0.479500  1.0
  H  H330  1  0.559200  0.711800  0.229500  1.0
  H  H331  1  0.461800  0.190800  0.979500  1.0
  H  H332  1  0.059200  0.211800  0.729500  1.0
  H  H333  1  0.440800  0.788200  0.229500  1.0
  H  H334  1  0.538200  0.309200  0.979500  1.0
  H  H335  1  0.940800  0.288200  0.729500  1.0
  H  H336  1  0.038200  0.809200  0.479500  1.0
  H  H337  1  0.968800  0.274300  0.485800  1.0
  H  H338  1  0.475700  0.218800  0.735800  1.0
  H  H339  1  0.468800  0.774300  0.985800  1.0
  H  H340  1  0.975700  0.718800  0.235800  1.0
  H  H341  1  0.524300  0.281200  0.735800  1.0
  H  H342  1  0.531200  0.725700  0.985800  1.0
  H  H343  1  0.024300  0.781200  0.235800  1.0
  H  H344  1  0.031200  0.225700  0.485800  1.0
  H  H345  1  0.031200  0.725700  0.514200  1.0
  H  H346  1  0.524300  0.781200  0.264200  1.0
  H  H347  1  0.531200  0.225700  0.014200  1.0
  H  H348  1  0.024300  0.281200  0.764200  1.0
  H  H349  1  0.475700  0.718800  0.264200  1.0
  H  H350  1  0.468800  0.274300  0.014200  1.0
  H  H351  1  0.975700  0.218800  0.764200  1.0
  H  H352  1  0.968800  0.774300  0.514200  1.0
  H  H353  1  0.016600  0.313300  0.482700  1.0
  H  H354  1  0.436700  0.266600  0.732700  1.0
  H  H355  1  0.516600  0.813300  0.982700  1.0
  H  H356  1  0.936700  0.766600  0.232700  1.0
  H  H357  1  0.563300  0.233400  0.732700  1.0
  H  H358  1  0.483400  0.686700  0.982700  1.0
  H  H359  1  0.063300  0.733400  0.232700  1.0
  H  H360  1  0.983400  0.186700  0.482700  1.0
  H  H361  1  0.983400  0.686700  0.517300  1.0
  H  H362  1  0.563300  0.733400  0.267300  1.0
  H  H363  1  0.483400  0.186700  0.017300  1.0
  H  H364  1  0.063300  0.233400  0.767300  1.0
  H  H365  1  0.436700  0.766600  0.267300  1.0
  H  H366  1  0.516600  0.313300  0.017300  1.0
  H  H367  1  0.936700  0.266600  0.767300  1.0
  H  H368  1  0.016600  0.813300  0.517300  1.0
  H  H369  1  0.967500  0.352400  0.544400  1.0
  H  H370  1  0.397600  0.217500  0.794400  1.0
  H  H371  1  0.467500  0.852400  0.044400  1.0
  H  H372  1  0.897600  0.717500  0.294400  1.0
  H  H373  1  0.602400  0.282500  0.794400  1.0
  H  H374  1  0.532500  0.647600  0.044400  1.0
  H  H375  1  0.102400  0.782500  0.294400  1.0
  H  H376  1  0.032500  0.147600  0.544400  1.0
  H  H377  1  0.032500  0.647600  0.455600  1.0
  H  H378  1  0.602400  0.782500  0.205600  1.0
  H  H379  1  0.532500  0.147600  0.955600  1.0
  H  H380  1  0.102400  0.282500  0.705600  1.0
  H  H381  1  0.397600  0.717500  0.205600  1.0
  H  H382  1  0.467500  0.352400  0.955600  1.0
  H  H383  1  0.897600  0.217500  0.705600  1.0
  H  H384  1  0.967500  0.852400  0.455600  1.0
  H  H385  1  0.005600  0.390800  0.597700  1.0
  H  H386  1  0.359200  0.255600  0.847700  1.0
  H  H387  1  0.505600  0.890800  0.097700  1.0
  H  H388  1  0.859200  0.755600  0.347700  1.0
  H  H389  1  0.640800  0.244400  0.847700  1.0
  H  H390  1  0.494400  0.609200  0.097700  1.0
  H  H391  1  0.140800  0.744400  0.347700  1.0
  H  H392  1  0.994400  0.109200  0.597700  1.0
  H  H393  1  0.994400  0.609200  0.402300  1.0
  H  H394  1  0.640800  0.744400  0.152300  1.0
  H  H395  1  0.494400  0.109200  0.902300  1.0
  H  H396  1  0.140800  0.244400  0.652300  1.0
  H  H397  1  0.359200  0.755600  0.152300  1.0
  H  H398  1  0.505600  0.390800  0.902300  1.0
  H  H399  1  0.859200  0.255600  0.652300  1.0
  H  H400  1  0.005600  0.890800  0.402300  1.0
  H  H401  1  0.989200  0.336500  0.597400  1.0
  H  H402  1  0.413500  0.239200  0.847400  1.0
  H  H403  1  0.489200  0.836500  0.097400  1.0
  H  H404  1  0.913500  0.739200  0.347400  1.0
  H  H405  1  0.586500  0.260800  0.847400  1.0
  H  H406  1  0.510800  0.663500  0.097400  1.0
  H  H407  1  0.086500  0.760800  0.347400  1.0
  H  H408  1  0.010800  0.163500  0.597400  1.0
  H  H409  1  0.010800  0.663500  0.402600  1.0
  H  H410  1  0.586500  0.760800  0.152600  1.0
  H  H411  1  0.510800  0.163500  0.902600  1.0
  H  H412  1  0.086500  0.260800  0.652600  1.0
  H  H413  1  0.413500  0.739200  0.152600  1.0
  H  H414  1  0.489200  0.336500  0.902600  1.0
  H  H415  1  0.913500  0.239200  0.652600  1.0
  H  H416  1  0.989200  0.836500  0.402600  1.0
  H  H417  1  0.867300  0.334100  0.671800  1.0
  H  H418  1  0.415900  0.117300  0.921800  1.0
  H  H419  1  0.367300  0.834100  0.171800  1.0
  H  H420  1  0.915900  0.617300  0.421800  1.0
  H  H421  1  0.584100  0.382700  0.921800  1.0
  H  H422  1  0.632700  0.665900  0.171800  1.0
  H  H423  1  0.084100  0.882700  0.421800  1.0
  H  H424  1  0.132700  0.165900  0.671800  1.0
  H  H425  1  0.132700  0.665900  0.328200  1.0
  H  H426  1  0.584100  0.882700  0.078200  1.0
  H  H427  1  0.632700  0.165900  0.828200  1.0
  H  H428  1  0.084100  0.382700  0.578200  1.0
  H  H429  1  0.415900  0.617300  0.078200  1.0
  H  H430  1  0.367300  0.334100  0.828200  1.0
  H  H431  1  0.915900  0.117300  0.578200  1.0
  H  H432  1  0.867300  0.834100  0.328200  1.0
  H  H433  1  0.845900  0.292800  0.639500  1.0
  H  H434  1  0.457200  0.095900  0.889500  1.0
  H  H435  1  0.345900  0.792800  0.139500  1.0
  H  H436  1  0.957200  0.595900  0.389500  1.0
  H  H437  1  0.542800  0.404100  0.889500  1.0
  H  H438  1  0.654100  0.707200  0.139500  1.0
  H  H439  1  0.042800  0.904100  0.389500  1.0
  H  H440  1  0.154100  0.207200  0.639500  1.0
  H  H441  1  0.154100  0.707200  0.360500  1.0
  H  H442  1  0.542800  0.904100  0.110500  1.0
  H  H443  1  0.654100  0.207200  0.860500  1.0
  H  H444  1  0.042800  0.404100  0.610500  1.0
  H  H445  1  0.457200  0.595900  0.110500  1.0
  H  H446  1  0.345900  0.292800  0.860500  1.0
  H  H447  1  0.957200  0.095900  0.610500  1.0
  H  H448  1  0.845900  0.792800  0.360500  1.0
  H  H449  1  0.039000  0.446500  0.544300  1.0
  H  H450  1  0.303500  0.289000  0.794300  1.0
  H  H451  1  0.539000  0.946500  0.044300  1.0
  H  H452  1  0.803500  0.789000  0.294300  1.0
  H  H453  1  0.696500  0.211000  0.794300  1.0
  H  H454  1  0.461000  0.553500  0.044300  1.0
  H  H455  1  0.196500  0.711000  0.294300  1.0
  H  H456  1  0.961000  0.053500  0.544300  1.0
  H  H457  1  0.961000  0.553500  0.455700  1.0
  H  H458  1  0.696500  0.711000  0.205700  1.0
  H  H459  1  0.461000  0.053500  0.955700  1.0
  H  H460  1  0.196500  0.211000  0.705700  1.0
  H  H461  1  0.303500  0.789000  0.205700  1.0
  H  H462  1  0.539000  0.446500  0.955700  1.0
  H  H463  1  0.803500  0.289000  0.705700  1.0
  H  H464  1  0.039000  0.946500  0.455700  1.0
  H  H465  1  0.985700  0.421800  0.557300  1.0
  H  H466  1  0.328200  0.235700  0.807300  1.0
  H  H467  1  0.485700  0.921800  0.057300  1.0
  H  H468  1  0.828200  0.735700  0.307300  1.0
  H  H469  1  0.671800  0.264300  0.807300  1.0
  H  H470  1  0.514300  0.578200  0.057300  1.0
  H  H471  1  0.171800  0.764300  0.307300  1.0
  H  H472  1  0.014300  0.078200  0.557300  1.0
  H  H473  1  0.014300  0.578200  0.442700  1.0
  H  H474  1  0.671800  0.764300  0.192700  1.0
  H  H475  1  0.514300  0.078200  0.942700  1.0
  H  H476  1  0.171800  0.264300  0.692700  1.0
  H  H477  1  0.328200  0.735700  0.192700  1.0
  H  H478  1  0.485700  0.421800  0.942700  1.0
  H  H479  1  0.828200  0.235700  0.692700  1.0
  H  H480  1  0.985700  0.921800  0.442700  1.0
  H  H481  1  0.999900  0.401700  0.487200  1.0
  H  H482  1  0.348300  0.249900  0.737200  1.0
  H  H483  1  0.499900  0.901700  0.987200  1.0
  H  H484  1  0.848300  0.749900  0.237200  1.0
  H  H485  1  0.651700  0.250100  0.737200  1.0
  H  H486  1  0.500100  0.598300  0.987200  1.0
  H  H487  1  0.151700  0.750100  0.237200  1.0
  H  H488  1  0.000100  0.098300  0.487200  1.0
  H  H489  1  0.000100  0.598300  0.512800  1.0
  H  H490  1  0.651700  0.750100  0.262800  1.0
  H  H491  1  0.500100  0.098300  0.012800  1.0
  H  H492  1  0.151700  0.250100  0.762800  1.0
  H  H493  1  0.348300  0.749900  0.262800  1.0
  H  H494  1  0.499900  0.401700  0.012800  1.0
  H  H495  1  0.848300  0.249900  0.762800  1.0
  H  H496  1  0.999900  0.901700  0.512800  1.0
  H  H497  1  0.055400  0.379900  0.497500  1.0
  H  H498  1  0.370100  0.305400  0.747500  1.0
  H  H499  1  0.555400  0.879900  0.997500  1.0
  H  H500  1  0.870100  0.805400  0.247500  1.0
  H  H501  1  0.629900  0.194600  0.747500  1.0
  H  H502  1  0.444600  0.620100  0.997500  1.0
  H  H503  1  0.129900  0.694600  0.247500  1.0
  H  H504  1  0.944600  0.120100  0.497500  1.0
  H  H505  1  0.944600  0.620100  0.502500  1.0
  H  H506  1  0.629900  0.694600  0.252500  1.0
  H  H507  1  0.444600  0.120100  0.002500  1.0
  H  H508  1  0.129900  0.194600  0.752500  1.0
  H  H509  1  0.370100  0.805400  0.252500  1.0
  H  H510  1  0.555400  0.379900  0.002500  1.0
  H  H511  1  0.870100  0.305400  0.752500  1.0
  H  H512  1  0.055400  0.879900  0.502500  1.0
  H  H513  1  0.000400  0.312600  0.488700  1.0
  H  H514  1  0.437400  0.250400  0.738700  1.0
  H  H515  1  0.500400  0.812600  0.988700  1.0
  H  H516  1  0.937400  0.750400  0.238700  1.0
  H  H517  1  0.562600  0.249600  0.738700  1.0
  H  H518  1  0.499600  0.687400  0.988700  1.0
  H  H519  1  0.062600  0.749600  0.238700  1.0
  H  H520  1  0.999600  0.187400  0.488700  1.0
  H  H521  1  0.999600  0.687400  0.511300  1.0
  H  H522  1  0.562600  0.749600  0.261300  1.0
  H  H523  1  0.499600  0.187400  0.011300  1.0
  H  H524  1  0.062600  0.249600  0.761300  1.0
  H  H525  1  0.437400  0.750400  0.261300  1.0
  H  H526  1  0.500400  0.312600  0.011300  1.0
  H  H527  1  0.937400  0.250400  0.761300  1.0
  H  H528  1  0.000400  0.812600  0.511300  1.0
  H  H529  1  0.962000  0.335600  0.522400  1.0
  H  H530  1  0.414400  0.212000  0.772400  1.0
  H  H531  1  0.462000  0.835600  0.022400  1.0
  H  H532  1  0.914400  0.712000  0.272400  1.0
  H  H533  1  0.585600  0.288000  0.772400  1.0
  H  H534  1  0.538000  0.664400  0.022400  1.0
  H  H535  1  0.085600  0.788000  0.272400  1.0
  H  H536  1  0.038000  0.164400  0.522400  1.0
  H  H537  1  0.038000  0.664400  0.477600  1.0
  H  H538  1  0.585600  0.788000  0.227600  1.0
  H  H539  1  0.538000  0.164400  0.977600  1.0
  H  H540  1  0.085600  0.288000  0.727600  1.0
  H  H541  1  0.414400  0.712000  0.227600  1.0
  H  H542  1  0.462000  0.335600  0.977600  1.0
  H  H543  1  0.914400  0.212000  0.727600  1.0
  H  H544  1  0.962000  0.835600  0.477600  1.0
  H  H545  1  0.980800  0.258000  0.696100  1.0
  H  H546  1  0.492000  0.230800  0.946100  1.0
  H  H547  1  0.480800  0.758000  0.196100  1.0
  H  H548  1  0.992000  0.730800  0.446100  1.0
  H  H549  1  0.508000  0.269200  0.946100  1.0
  H  H550  1  0.519200  0.742000  0.196100  1.0
  H  H551  1  0.008000  0.769200  0.446100  1.0
  H  H552  1  0.019200  0.242000  0.696100  1.0
  H  H553  1  0.019200  0.742000  0.303900  1.0
  H  H554  1  0.508000  0.769200  0.053900  1.0
  H  H555  1  0.519200  0.242000  0.803900  1.0
  H  H556  1  0.008000  0.269200  0.553900  1.0
  H  H557  1  0.492000  0.730800  0.053900  1.0
  H  H558  1  0.480800  0.258000  0.803900  1.0
  H  H559  1  0.992000  0.230800  0.553900  1.0
  H  H560  1  0.980800  0.758000  0.303900  1.0
  H  H561  1  0.955200  0.311100  0.709200  1.0
  H  H562  1  0.438900  0.205200  0.959200  1.0
  H  H563  1  0.455200  0.811100  0.209200  1.0
  H  H564  1  0.938900  0.705200  0.459200  1.0
  H  H565  1  0.561100  0.294800  0.959200  1.0
  H  H566  1  0.544800  0.688900  0.209200  1.0
  H  H567  1  0.061100  0.794800  0.459200  1.0
  H  H568  1  0.044800  0.188900  0.709200  1.0
  H  H569  1  0.044800  0.688900  0.290800  1.0
  H  H570  1  0.561100  0.794800  0.040800  1.0
  H  H571  1  0.544800  0.188900  0.790800  1.0
  H  H572  1  0.061100  0.294800  0.540800  1.0
  H  H573  1  0.438900  0.705200  0.040800  1.0
  H  H574  1  0.455200  0.311100  0.790800  1.0
  H  H575  1  0.938900  0.205200  0.540800  1.0
  H  H576  1  0.955200  0.811100  0.290800  1.0
  H  H577  1  0.711900  0.347500  0.635800  1.0
  H  H578  1  0.402500  0.961900  0.885800  1.0
  H  H579  1  0.211900  0.847500  0.135800  1.0
  H  H580  1  0.902500  0.461900  0.385800  1.0
  H  H581  1  0.597500  0.538100  0.885800  1.0
  H  H582  1  0.788100  0.652500  0.135800  1.0
  H  H583  1  0.097500  0.038100  0.385800  1.0
  H  H584  1  0.288100  0.152500  0.635800  1.0
  H  H585  1  0.288100  0.652500  0.364200  1.0
  H  H586  1  0.597500  0.038100  0.114200  1.0
  H  H587  1  0.788100  0.152500  0.864200  1.0
  H  H588  1  0.097500  0.538100  0.614200  1.0
  H  H589  1  0.402500  0.461900  0.114200  1.0
  H  H590  1  0.211900  0.347500  0.864200  1.0
  H  H591  1  0.902500  0.961900  0.614200  1.0
  H  H592  1  0.711900  0.847500  0.364200  1.0
  H  H593  1  0.746800  0.275400  0.606700  1.0
  H  H594  1  0.474600  0.996800  0.856700  1.0
  H  H595  1  0.246800  0.775400  0.106700  1.0
  H  H596  1  0.974600  0.496800  0.356700  1.0
  H  H597  1  0.525400  0.503200  0.856700  1.0
  H  H598  1  0.753200  0.724600  0.106700  1.0
  H  H599  1  0.025400  0.003200  0.356700  1.0
  H  H600  1  0.253200  0.224600  0.606700  1.0
  H  H601  1  0.253200  0.724600  0.393300  1.0
  H  H602  1  0.525400  0.003200  0.143300  1.0
  H  H603  1  0.753200  0.224600  0.893300  1.0
  H  H604  1  0.025400  0.503200  0.643300  1.0
  H  H605  1  0.474600  0.496800  0.143300  1.0
  H  H606  1  0.246800  0.275400  0.893300  1.0
  H  H607  1  0.974600  0.996800  0.643300  1.0
  H  H608  1  0.746800  0.775400  0.393300  1.0
  H  H609  1  0.810200  0.363300  0.516900  1.0
  H  H610  1  0.386700  0.060200  0.766900  1.0
  H  H611  1  0.310200  0.863300  0.016900  1.0
  H  H612  1  0.886700  0.560200  0.266900  1.0
  H  H613  1  0.613300  0.439800  0.766900  1.0
  H  H614  1  0.689800  0.636700  0.016900  1.0
  H  H615  1  0.113300  0.939800  0.266900  1.0
  H  H616  1  0.189800  0.136700  0.516900  1.0
  H  H617  1  0.189800  0.636700  0.483100  1.0
  H  H618  1  0.613300  0.939800  0.233100  1.0
  H  H619  1  0.689800  0.136700  0.983100  1.0
  H  H620  1  0.113300  0.439800  0.733100  1.0
  H  H621  1  0.386700  0.560200  0.233100  1.0
  H  H622  1  0.310200  0.363300  0.983100  1.0
  H  H623  1  0.886700  0.060200  0.733100  1.0
  H  H624  1  0.810200  0.863300  0.483100  1.0
  H  H625  1  0.775800  0.434200  0.549800  1.0
  H  H626  1  0.315800  0.025800  0.799800  1.0
  H  H627  1  0.275800  0.934200  0.049800  1.0
  H  H628  1  0.815800  0.525800  0.299800  1.0
  H  H629  1  0.684200  0.474200  0.799800  1.0
  H  H630  1  0.724200  0.565800  0.049800  1.0
  H  H631  1  0.184200  0.974200  0.299800  1.0
  H  H632  1  0.224200  0.065800  0.549800  1.0
  H  H633  1  0.224200  0.565800  0.450200  1.0
  H  H634  1  0.684200  0.974200  0.200200  1.0
  H  H635  1  0.724200  0.065800  0.950200  1.0
  H  H636  1  0.184200  0.474200  0.700200  1.0
  H  H637  1  0.315800  0.525800  0.200200  1.0
  H  H638  1  0.275800  0.434200  0.950200  1.0
  H  H639  1  0.815800  0.025800  0.700200  1.0
  H  H640  1  0.775800  0.934200  0.450200  1.0
  H  H641  1  0.917500  0.296800  0.862300  1.0
  H  H642  1  0.453200  0.167500  0.112300  1.0
  H  H643  1  0.417500  0.796800  0.362300  1.0
  H  H644  1  0.953200  0.667500  0.612300  1.0
  H  H645  1  0.546800  0.332500  0.112300  1.0
  H  H646  1  0.582500  0.703200  0.362300  1.0
  H  H647  1  0.046800  0.832500  0.612300  1.0
  H  H648  1  0.082500  0.203200  0.862300  1.0
  H  H649  1  0.082500  0.703200  0.137700  1.0
  H  H650  1  0.546800  0.832500  0.887700  1.0
  H  H651  1  0.582500  0.203200  0.637700  1.0
  H  H652  1  0.046800  0.332500  0.387700  1.0
  H  H653  1  0.453200  0.667500  0.887700  1.0
  H  H654  1  0.417500  0.296800  0.637700  1.0
  H  H655  1  0.953200  0.167500  0.387700  1.0
  H  H656  1  0.917500  0.796800  0.137700  1.0
  H  H657  1  0.908400  0.349800  0.805500  1.0
  H  H658  1  0.400200  0.158400  0.055500  1.0
  H  H659  1  0.408400  0.849800  0.305500  1.0
  H  H660  1  0.900200  0.658400  0.555500  1.0
  H  H661  1  0.599800  0.341600  0.055500  1.0
  H  H662  1  0.591600  0.650200  0.305500  1.0
  H  H663  1  0.099800  0.841600  0.555500  1.0
  H  H664  1  0.091600  0.150200  0.805500  1.0
  H  H665  1  0.091600  0.650200  0.194500  1.0
  H  H666  1  0.599800  0.841600  0.944500  1.0
  H  H667  1  0.591600  0.150200  0.694500  1.0
  H  H668  1  0.099800  0.341600  0.444500  1.0
  H  H669  1  0.400200  0.658400  0.944500  1.0
  H  H670  1  0.408400  0.349800  0.694500  1.0
  H  H671  1  0.900200  0.158400  0.444500  1.0
  H  H672  1  0.908400  0.849800  0.194500  1.0
  H  H673  1  0.060300  0.369900  0.804100  1.0
  H  H674  1  0.380100  0.310300  0.054100  1.0
  H  H675  1  0.560300  0.869900  0.304100  1.0
  H  H676  1  0.880100  0.810300  0.554100  1.0
  H  H677  1  0.619900  0.189700  0.054100  1.0
  H  H678  1  0.439700  0.630100  0.304100  1.0
  H  H679  1  0.119900  0.689700  0.554100  1.0
  H  H680  1  0.939700  0.130100  0.804100  1.0
  H  H681  1  0.939700  0.630100  0.195900  1.0
  H  H682  1  0.619900  0.689700  0.945900  1.0
  H  H683  1  0.439700  0.130100  0.695900  1.0
  H  H684  1  0.119900  0.189700  0.445900  1.0
  H  H685  1  0.380100  0.810300  0.945900  1.0
  H  H686  1  0.560300  0.369900  0.695900  1.0
  H  H687  1  0.880100  0.310300  0.445900  1.0
  H  H688  1  0.060300  0.869900  0.195900  1.0
  H  H689  1  0.066400  0.316600  0.861600  1.0
  H  H690  1  0.433400  0.316400  0.111600  1.0
  H  H691  1  0.566400  0.816600  0.361600  1.0
  H  H692  1  0.933400  0.816400  0.611600  1.0
  H  H693  1  0.566600  0.183600  0.111600  1.0
  H  H694  1  0.433600  0.683400  0.361600  1.0
  H  H695  1  0.066600  0.683600  0.611600  1.0
  H  H696  1  0.933600  0.183400  0.861600  1.0
  H  H697  1  0.933600  0.683400  0.138400  1.0
  H  H698  1  0.566600  0.683600  0.888400  1.0
  H  H699  1  0.433600  0.183400  0.638400  1.0
  H  H700  1  0.066600  0.183600  0.388400  1.0
  H  H701  1  0.433400  0.816400  0.888400  1.0
  H  H702  1  0.566400  0.316600  0.638400  1.0
  H  H703  1  0.933400  0.316400  0.388400  1.0
  H  H704  1  0.066400  0.816600  0.138400  1.0
  H  H705  1  0.839100  0.403200  0.735500  1.0
  H  H706  1  0.346800  0.089100  0.985500  1.0
  H  H707  1  0.339100  0.903200  0.235500  1.0
  H  H708  1  0.846800  0.589100  0.485500  1.0
  H  H709  1  0.653200  0.410900  0.985500  1.0
  H  H710  1  0.660900  0.596800  0.235500  1.0
  H  H711  1  0.153200  0.910900  0.485500  1.0
  H  H712  1  0.160900  0.096800  0.735500  1.0
  H  H713  1  0.160900  0.596800  0.264500  1.0
  H  H714  1  0.653200  0.910900  0.014500  1.0
  H  H715  1  0.660900  0.096800  0.764500  1.0
  H  H716  1  0.153200  0.410900  0.514500  1.0
  H  H717  1  0.346800  0.589100  0.014500  1.0
  H  H718  1  0.339100  0.403200  0.764500  1.0
  H  H719  1  0.846800  0.089100  0.514500  1.0
  H  H720  1  0.839100  0.903200  0.264500  1.0
  H  H721  1  0.760800  0.417100  0.704300  1.0
  H  H722  1  0.332900  0.010800  0.954300  1.0
  H  H723  1  0.260800  0.917100  0.204300  1.0
  H  H724  1  0.832900  0.510800  0.454300  1.0
  H  H725  1  0.667100  0.489200  0.954300  1.0
  H  H726  1  0.739200  0.582900  0.204300  1.0
  H  H727  1  0.167100  0.989200  0.454300  1.0
  H  H728  1  0.239200  0.082900  0.704300  1.0
  H  H729  1  0.239200  0.582900  0.295700  1.0
  H  H730  1  0.667100  0.989200  0.045700  1.0
  H  H731  1  0.739200  0.082900  0.795700  1.0
  H  H732  1  0.167100  0.489200  0.545700  1.0
  H  H733  1  0.332900  0.510800  0.045700  1.0
  H  H734  1  0.260800  0.417100  0.795700  1.0
  H  H735  1  0.832900  0.010800  0.545700  1.0
  H  H736  1  0.760800  0.917100  0.295700  1.0
  H  H737  1  0.823200  0.498500  0.615000  1.0
  H  H738  1  0.251500  0.073200  0.865000  1.0
  H  H739  1  0.323200  0.998500  0.115000  1.0
  H  H740  1  0.751500  0.573200  0.365000  1.0
  H  H741  1  0.748500  0.426800  0.865000  1.0
  H  H742  1  0.676800  0.501500  0.115000  1.0
  H  H743  1  0.248500  0.926800  0.365000  1.0
  H  H744  1  0.176800  0.001500  0.615000  1.0
  H  H745  1  0.176800  0.501500  0.385000  1.0
  H  H746  1  0.748500  0.926800  0.135000  1.0
  H  H747  1  0.676800  0.001500  0.885000  1.0
  H  H748  1  0.248500  0.426800  0.635000  1.0
  H  H749  1  0.251500  0.573200  0.135000  1.0
  H  H750  1  0.323200  0.498500  0.885000  1.0
  H  H751  1  0.751500  0.073200  0.635000  1.0
  H  H752  1  0.823200  0.998500  0.385000  1.0
  H  H753  1  0.903600  0.486800  0.643900  1.0
  H  H754  1  0.263200  0.153600  0.893900  1.0
  H  H755  1  0.403600  0.986800  0.143900  1.0
  H  H756  1  0.763200  0.653600  0.393900  1.0
  H  H757  1  0.736800  0.346400  0.893900  1.0
  H  H758  1  0.596400  0.513200  0.143900  1.0
  H  H759  1  0.236800  0.846400  0.393900  1.0
  H  H760  1  0.096400  0.013200  0.643900  1.0
  H  H761  1  0.096400  0.513200  0.356100  1.0
  H  H762  1  0.736800  0.846400  0.106100  1.0
  H  H763  1  0.596400  0.013200  0.856100  1.0
  H  H764  1  0.236800  0.346400  0.606100  1.0
  H  H765  1  0.263200  0.653600  0.106100  1.0
  H  H766  1  0.403600  0.486800  0.856100  1.0
  H  H767  1  0.763200  0.153600  0.606100  1.0
  H  H768  1  0.903600  0.986800  0.356100  1.0
  H  H769  1  0.002900  0.204800  0.025100  1.0
  H  H770  1  0.545200  0.252900  0.275100  1.0
  H  H771  1  0.502900  0.704800  0.525100  1.0
  H  H772  1  0.045200  0.752900  0.775100  1.0
  H  H773  1  0.454800  0.247100  0.275100  1.0
  H  H774  1  0.497100  0.795200  0.525100  1.0
  H  H775  1  0.954800  0.747100  0.775100  1.0
  H  H776  1  0.997100  0.295200  0.025100  1.0
  H  H777  1  0.997100  0.795200  0.974900  1.0
  H  H778  1  0.454800  0.747100  0.724900  1.0
  H  H779  1  0.497100  0.295200  0.474900  1.0
  H  H780  1  0.954800  0.247100  0.224900  1.0
  H  H781  1  0.545200  0.752900  0.724900  1.0
  H  H782  1  0.502900  0.204800  0.474900  1.0
  H  H783  1  0.045200  0.252900  0.224900  1.0
  H  H784  1  0.002900  0.704800  0.974900  1.0
  H  H785  1  0.952500  0.223400  0.001400  1.0
  H  H786  1  0.526600  0.202500  0.251400  1.0
  H  H787  1  0.452500  0.723400  0.501400  1.0
  H  H788  1  0.026600  0.702500  0.751400  1.0
  H  H789  1  0.473400  0.297500  0.251400  1.0
  H  H790  1  0.547500  0.776600  0.501400  1.0
  H  H791  1  0.973400  0.797500  0.751400  1.0
  H  H792  1  0.047500  0.276600  0.001400  1.0
  H  H793  1  0.047500  0.776600  0.998600  1.0
  H  H794  1  0.473400  0.797500  0.748600  1.0
  H  H795  1  0.547500  0.276600  0.498600  1.0
  H  H796  1  0.973400  0.297500  0.248600  1.0
  H  H797  1  0.526600  0.702500  0.748600  1.0
  H  H798  1  0.452500  0.223400  0.498600  1.0
  H  H799  1  0.026600  0.202500  0.248600  1.0
  H  H800  1  0.952500  0.723400  0.998600  1.0
  H  H801  1  0.980900  0.127300  0.977800  1.0
  H  H802  1  0.622700  0.230900  0.227800  1.0
  H  H803  1  0.480900  0.627300  0.477800  1.0
  H  H804  1  0.122700  0.730900  0.727800  1.0
  H  H805  1  0.377300  0.269100  0.227800  1.0
  H  H806  1  0.519100  0.872700  0.477800  1.0
  H  H807  1  0.877300  0.769100  0.727800  1.0
  H  H808  1  0.019100  0.372700  0.977800  1.0
  H  H809  1  0.019100  0.872700  0.022200  1.0
  H  H810  1  0.377300  0.769100  0.772200  1.0
  H  H811  1  0.519100  0.372700  0.522200  1.0
  H  H812  1  0.877300  0.269100  0.272200  1.0
  H  H813  1  0.622700  0.730900  0.772200  1.0
  H  H814  1  0.480900  0.127300  0.522200  1.0
  H  H815  1  0.122700  0.230900  0.272200  1.0
  H  H816  1  0.980900  0.627300  0.022200  1.0
  H  H817  1  0.940300  0.160600  0.952600  1.0
  H  H818  1  0.589400  0.190300  0.202600  1.0
  H  H819  1  0.440300  0.660600  0.452600  1.0
  H  H820  1  0.089400  0.690300  0.702600  1.0
  H  H821  1  0.410600  0.309700  0.202600  1.0
  H  H822  1  0.559700  0.839400  0.452600  1.0
  H  H823  1  0.910600  0.809700  0.702600  1.0
  H  H824  1  0.059700  0.339400  0.952600  1.0
  H  H825  1  0.059700  0.839400  0.047400  1.0
  H  H826  1  0.410600  0.809700  0.797400  1.0
  H  H827  1  0.559700  0.339400  0.547400  1.0
  H  H828  1  0.910600  0.309700  0.297400  1.0
  H  H829  1  0.589400  0.690300  0.797400  1.0
  H  H830  1  0.440300  0.160600  0.547400  1.0
  H  H831  1  0.089400  0.190300  0.297400  1.0
  H  H832  1  0.940300  0.660600  0.047400  1.0
  H  H833  1  0.986600  0.134200  0.928600  1.0
  H  H834  1  0.615800  0.236600  0.178600  1.0
  H  H835  1  0.486600  0.634200  0.428600  1.0
  H  H836  1  0.115800  0.736600  0.678600  1.0
  H  H837  1  0.384200  0.263400  0.178600  1.0
  H  H838  1  0.513400  0.865800  0.428600  1.0
  H  H839  1  0.884200  0.763400  0.678600  1.0
  H  H840  1  0.013400  0.365800  0.928600  1.0
  H  H841  1  0.013400  0.865800  0.071400  1.0
  H  H842  1  0.384200  0.763400  0.821400  1.0
  H  H843  1  0.513400  0.365800  0.571400  1.0
  H  H844  1  0.884200  0.263400  0.321400  1.0
  H  H845  1  0.615800  0.736600  0.821400  1.0
  H  H846  1  0.486600  0.134200  0.571400  1.0
  H  H847  1  0.115800  0.236600  0.321400  1.0
  H  H848  1  0.986600  0.634200  0.071400  1.0
  H  H849  1  0.065600  0.156000  0.986900  1.0
  H  H850  1  0.594000  0.315600  0.236900  1.0
  H  H851  1  0.565600  0.656000  0.486900  1.0
  H  H852  1  0.094000  0.815600  0.736900  1.0
  H  H853  1  0.406000  0.184400  0.236900  1.0
  H  H854  1  0.434400  0.844000  0.486900  1.0
  H  H855  1  0.906000  0.684400  0.736900  1.0
  H  H856  1  0.934400  0.344000  0.986900  1.0
  H  H857  1  0.934400  0.844000  0.013100  1.0
  H  H858  1  0.406000  0.684400  0.763100  1.0
  H  H859  1  0.434400  0.344000  0.513100  1.0
  H  H860  1  0.906000  0.184400  0.263100  1.0
  H  H861  1  0.594000  0.815600  0.763100  1.0
  H  H862  1  0.565600  0.156000  0.513100  1.0
  H  H863  1  0.094000  0.315600  0.263100  1.0
  H  H864  1  0.065600  0.656000  0.013100  1.0
  H  H865  1  0.072500  0.165000  0.938000  1.0
  H  H866  1  0.585000  0.322500  0.188000  1.0
  H  H867  1  0.572500  0.665000  0.438000  1.0
  H  H868  1  0.085000  0.822500  0.688000  1.0
  H  H869  1  0.415000  0.177500  0.188000  1.0
  H  H870  1  0.427500  0.835000  0.438000  1.0
  H  H871  1  0.915000  0.677500  0.688000  1.0
  H  H872  1  0.927500  0.335000  0.938000  1.0
  H  H873  1  0.927500  0.835000  0.062000  1.0
  H  H874  1  0.415000  0.677500  0.812000  1.0
  H  H875  1  0.427500  0.335000  0.562000  1.0
  H  H876  1  0.915000  0.177500  0.312000  1.0
  H  H877  1  0.585000  0.822500  0.812000  1.0
  H  H878  1  0.572500  0.165000  0.562000  1.0
  H  H879  1  0.085000  0.322500  0.312000  1.0
  H  H880  1  0.072500  0.665000  0.062000  1.0
  H  H881  1  0.083700  0.210300  0.969900  1.0
  H  H882  1  0.539700  0.333700  0.219900  1.0
  H  H883  1  0.583700  0.710300  0.469900  1.0
  H  H884  1  0.039700  0.833700  0.719900  1.0
  H  H885  1  0.460300  0.166300  0.219900  1.0
  H  H886  1  0.416300  0.789700  0.469900  1.0
  H  H887  1  0.960300  0.666300  0.719900  1.0
  H  H888  1  0.916300  0.289700  0.969900  1.0
  H  H889  1  0.916300  0.789700  0.030100  1.0
  H  H890  1  0.460300  0.666300  0.780100  1.0
  H  H891  1  0.416300  0.289700  0.530100  1.0
  H  H892  1  0.960300  0.166300  0.280100  1.0
  H  H893  1  0.539700  0.833700  0.780100  1.0
  H  H894  1  0.583700  0.210300  0.530100  1.0
  H  H895  1  0.039700  0.333700  0.280100  1.0
  H  H896  1  0.083700  0.710300  0.030100  1.0
  H  H897  1  0.583000  0.422100  0.595400  1.0
  H  H898  1  0.327900  0.833000  0.845400  1.0
  H  H899  1  0.083000  0.922100  0.095400  1.0
  H  H900  1  0.827900  0.333000  0.345400  1.0
  H  H901  1  0.672100  0.667000  0.845400  1.0
  H  H902  1  0.917000  0.577900  0.095400  1.0
  H  H903  1  0.172100  0.167000  0.345400  1.0
  H  H904  1  0.417000  0.077900  0.595400  1.0
  H  H905  1  0.417000  0.577900  0.404600  1.0
  H  H906  1  0.672100  0.167000  0.154600  1.0
  H  H907  1  0.917000  0.077900  0.904600  1.0
  H  H908  1  0.172100  0.667000  0.654600  1.0
  H  H909  1  0.327900  0.333000  0.154600  1.0
  H  H910  1  0.083000  0.422100  0.904600  1.0
  H  H911  1  0.827900  0.833000  0.654600  1.0
  H  H912  1  0.583000  0.922100  0.404600  1.0
  H  H913  1  0.610000  0.421500  0.640000  1.0
  H  H914  1  0.328500  0.860000  0.890000  1.0
  H  H915  1  0.110000  0.921500  0.140000  1.0
  H  H916  1  0.828500  0.360000  0.390000  1.0
  H  H917  1  0.671500  0.640000  0.890000  1.0
  H  H918  1  0.890000  0.578500  0.140000  1.0
  H  H919  1  0.171500  0.140000  0.390000  1.0
  H  H920  1  0.390000  0.078500  0.640000  1.0
  H  H921  1  0.390000  0.578500  0.360000  1.0
  H  H922  1  0.671500  0.140000  0.110000  1.0
  H  H923  1  0.890000  0.078500  0.860000  1.0
  H  H924  1  0.171500  0.640000  0.610000  1.0
  H  H925  1  0.328500  0.360000  0.110000  1.0
  H  H926  1  0.110000  0.421500  0.860000  1.0
  H  H927  1  0.828500  0.860000  0.610000  1.0
  H  H928  1  0.610000  0.921500  0.360000  1.0
  H  H929  1  0.632500  0.387800  0.602800  1.0
  H  H930  1  0.362200  0.882500  0.852800  1.0
  H  H931  1  0.132500  0.887800  0.102800  1.0
  H  H932  1  0.862200  0.382500  0.352800  1.0
  H  H933  1  0.637800  0.617500  0.852800  1.0
  H  H934  1  0.867500  0.612200  0.102800  1.0
  H  H935  1  0.137800  0.117500  0.352800  1.0
  H  H936  1  0.367500  0.112200  0.602800  1.0
  H  H937  1  0.367500  0.612200  0.397200  1.0
  H  H938  1  0.637800  0.117500  0.147200  1.0
  H  H939  1  0.867500  0.112200  0.897200  1.0
  H  H940  1  0.137800  0.617500  0.647200  1.0
  H  H941  1  0.362200  0.382500  0.147200  1.0
  H  H942  1  0.132500  0.387800  0.897200  1.0
  H  H943  1  0.862200  0.882500  0.647200  1.0
  H  H944  1  0.632500  0.887800  0.397200  1.0
  H  H945  1  0.620100  0.460600  0.537500  1.0
  H  H946  1  0.289400  0.870100  0.787500  1.0
  H  H947  1  0.120100  0.960600  0.037500  1.0
  H  H948  1  0.789400  0.370100  0.287500  1.0
  H  H949  1  0.710600  0.629900  0.787500  1.0
  H  H950  1  0.879900  0.539400  0.037500  1.0
  H  H951  1  0.210600  0.129900  0.287500  1.0
  H  H952  1  0.379900  0.039400  0.537500  1.0
  H  H953  1  0.379900  0.539400  0.462500  1.0
  H  H954  1  0.710600  0.129900  0.212500  1.0
  H  H955  1  0.879900  0.039400  0.962500  1.0
  H  H956  1  0.210600  0.629900  0.712500  1.0
  H  H957  1  0.289400  0.370100  0.212500  1.0
  H  H958  1  0.120100  0.460600  0.962500  1.0
  H  H959  1  0.789400  0.870100  0.712500  1.0
  H  H960  1  0.620100  0.960600  0.462500  1.0
  H  H961  1  0.671200  0.428200  0.542900  1.0
  H  H962  1  0.321800  0.921200  0.792900  1.0
  H  H963  1  0.171200  0.928200  0.042900  1.0
  H  H964  1  0.821800  0.421200  0.292900  1.0
  H  H965  1  0.678200  0.578800  0.792900  1.0
  H  H966  1  0.828800  0.571800  0.042900  1.0
  H  H967  1  0.178200  0.078800  0.292900  1.0
  H  H968  1  0.328800  0.071800  0.542900  1.0
  H  H969  1  0.328800  0.571800  0.457100  1.0
  H  H970  1  0.678200  0.078800  0.207100  1.0
  H  H971  1  0.828800  0.071800  0.957100  1.0
  H  H972  1  0.178200  0.578800  0.707100  1.0
  H  H973  1  0.321800  0.421200  0.207100  1.0
  H  H974  1  0.171200  0.428200  0.957100  1.0
  H  H975  1  0.821800  0.921200  0.707100  1.0
  H  H976  1  0.671200  0.928200  0.457100  1.0
  H  H977  1  0.673800  0.489000  0.540900  1.0
  H  H978  1  0.261000  0.923800  0.790900  1.0
  H  H979  1  0.173800  0.989000  0.040900  1.0
  H  H980  1  0.761000  0.423800  0.290900  1.0
  H  H981  1  0.739000  0.576200  0.790900  1.0
  H  H982  1  0.826200  0.511000  0.040900  1.0
  H  H983  1  0.239000  0.076200  0.290900  1.0
  H  H984  1  0.326200  0.011000  0.540900  1.0
  H  H985  1  0.326200  0.511000  0.459100  1.0
  H  H986  1  0.739000  0.076200  0.209100  1.0
  H  H987  1  0.826200  0.011000  0.959100  1.0
  H  H988  1  0.239000  0.576200  0.709100  1.0
  H  H989  1  0.261000  0.423800  0.209100  1.0
  H  H990  1  0.173800  0.489000  0.959100  1.0
  H  H991  1  0.761000  0.923800  0.709100  1.0
  H  H992  1  0.673800  0.989000  0.459100  1.0
  H  H993  1  0.632900  0.536200  0.586300  1.0
  H  H994  1  0.213800  0.882900  0.836300  1.0
  H  H995  1  0.132900  0.036200  0.086300  1.0
  H  H996  1  0.713800  0.382900  0.336300  1.0
  H  H997  1  0.786200  0.617100  0.836300  1.0
  H  H998  1  0.867100  0.463800  0.086300  1.0
  H  H999  1  0.286200  0.117100  0.336300  1.0
  H  H1000  1  0.367100  0.963800  0.586300  1.0
  H  H1001  1  0.367100  0.463800  0.413700  1.0
  H  H1002  1  0.786200  0.117100  0.163700  1.0
  H  H1003  1  0.867100  0.963800  0.913700  1.0
  H  H1004  1  0.286200  0.617100  0.663700  1.0
  H  H1005  1  0.213800  0.382900  0.163700  1.0
  H  H1006  1  0.132900  0.536200  0.913700  1.0
  H  H1007  1  0.713800  0.882900  0.663700  1.0
  H  H1008  1  0.632900  0.036200  0.413700  1.0
  H  H1009  1  0.587100  0.506800  0.608400  1.0
  H  H1010  1  0.243200  0.837100  0.858400  1.0
  H  H1011  1  0.087100  0.006800  0.108400  1.0
  H  H1012  1  0.743200  0.337100  0.358400  1.0
  H  H1013  1  0.756800  0.662900  0.858400  1.0
  H  H1014  1  0.912900  0.493200  0.108400  1.0
  H  H1015  1  0.256800  0.162900  0.358400  1.0
  H  H1016  1  0.412900  0.993200  0.608400  1.0
  H  H1017  1  0.412900  0.493200  0.391600  1.0
  H  H1018  1  0.756800  0.162900  0.141600  1.0
  H  H1019  1  0.912900  0.993200  0.891600  1.0
  H  H1020  1  0.256800  0.662900  0.641600  1.0
  H  H1021  1  0.243200  0.337100  0.141600  1.0
  H  H1022  1  0.087100  0.506800  0.891600  1.0
  H  H1023  1  0.743200  0.837100  0.641600  1.0
  H  H1024  1  0.587100  0.006800  0.391600  1.0
  H  H1025  1  0.617000  0.514300  0.666300  1.0
  H  H1026  1  0.235700  0.867000  0.916300  1.0
  H  H1027  1  0.117000  0.014300  0.166300  1.0
  H  H1028  1  0.735700  0.367000  0.416300  1.0
  H  H1029  1  0.764300  0.633000  0.916300  1.0
  H  H1030  1  0.883000  0.485700  0.166300  1.0
  H  H1031  1  0.264300  0.133000  0.416300  1.0
  H  H1032  1  0.383000  0.985700  0.666300  1.0
  H  H1033  1  0.383000  0.485700  0.333700  1.0
  H  H1034  1  0.764300  0.133000  0.083700  1.0
  H  H1035  1  0.883000  0.985700  0.833700  1.0
  H  H1036  1  0.264300  0.633000  0.583700  1.0
  H  H1037  1  0.235700  0.367000  0.083700  1.0
  H  H1038  1  0.117000  0.514300  0.833700  1.0
  H  H1039  1  0.735700  0.867000  0.583700  1.0
  H  H1040  1  0.617000  0.014300  0.333700  1.0
  H  H1041  1  0.630900  0.566800  0.644500  1.0
  H  H1042  1  0.183200  0.880900  0.894500  1.0
  H  H1043  1  0.130900  0.066800  0.144500  1.0
  H  H1044  1  0.683200  0.380900  0.394500  1.0
  H  H1045  1  0.816800  0.619100  0.894500  1.0
  H  H1046  1  0.869100  0.433200  0.144500  1.0
  H  H1047  1  0.316800  0.119100  0.394500  1.0
  H  H1048  1  0.369100  0.933200  0.644500  1.0
  H  H1049  1  0.369100  0.433200  0.355500  1.0
  H  H1050  1  0.816800  0.119100  0.105500  1.0
  H  H1051  1  0.869100  0.933200  0.855500  1.0
  H  H1052  1  0.316800  0.619100  0.605500  1.0
  H  H1053  1  0.183200  0.380900  0.105500  1.0
  H  H1054  1  0.130900  0.566800  0.855500  1.0
  H  H1055  1  0.683200  0.880900  0.605500  1.0
  H  H1056  1  0.630900  0.066800  0.355500  1.0
  H  H1057  1  0.709400  0.598200  0.660700  1.0
  H  H1058  1  0.151800  0.959400  0.910700  1.0
  H  H1059  1  0.209400  0.098200  0.160700  1.0
  H  H1060  1  0.651800  0.459400  0.410700  1.0
  H  H1061  1  0.848200  0.540600  0.910700  1.0
  H  H1062  1  0.790600  0.401800  0.160700  1.0
  H  H1063  1  0.348200  0.040600  0.410700  1.0
  H  H1064  1  0.290600  0.901800  0.660700  1.0
  H  H1065  1  0.290600  0.401800  0.339300  1.0
  H  H1066  1  0.848200  0.040600  0.089300  1.0
  H  H1067  1  0.790600  0.901800  0.839300  1.0
  H  H1068  1  0.348200  0.540600  0.589300  1.0
  H  H1069  1  0.151800  0.459400  0.089300  1.0
  H  H1070  1  0.209400  0.598200  0.839300  1.0
  H  H1071  1  0.651800  0.959400  0.589300  1.0
  H  H1072  1  0.709400  0.098200  0.339300  1.0
  H  H1073  1  0.717500  0.573600  0.615600  1.0
  H  H1074  1  0.176400  0.967500  0.865600  1.0
  H  H1075  1  0.217500  0.073600  0.115600  1.0
  H  H1076  1  0.676400  0.467500  0.365600  1.0
  H  H1077  1  0.823600  0.532500  0.865600  1.0
  H  H1078  1  0.782500  0.426400  0.115600  1.0
  H  H1079  1  0.323600  0.032500  0.365600  1.0
  H  H1080  1  0.282500  0.926400  0.615600  1.0
  H  H1081  1  0.282500  0.426400  0.384400  1.0
  H  H1082  1  0.823600  0.032500  0.134400  1.0
  H  H1083  1  0.782500  0.926400  0.884400  1.0
  H  H1084  1  0.323600  0.532500  0.634400  1.0
  H  H1085  1  0.176400  0.467500  0.134400  1.0
  H  H1086  1  0.217500  0.573600  0.884400  1.0
  H  H1087  1  0.676400  0.967500  0.634400  1.0
  H  H1088  1  0.717500  0.073600  0.384400  1.0
  H  H1089  1  0.757700  0.562700  0.651900  1.0
  H  H1090  1  0.187300  0.007700  0.901900  1.0
  H  H1091  1  0.257700  0.062700  0.151900  1.0
  H  H1092  1  0.687300  0.507700  0.401900  1.0
  H  H1093  1  0.812700  0.492300  0.901900  1.0
  H  H1094  1  0.742300  0.437300  0.151900  1.0
  H  H1095  1  0.312700  0.992300  0.401900  1.0
  H  H1096  1  0.242300  0.937300  0.651900  1.0
  H  H1097  1  0.242300  0.437300  0.348100  1.0
  H  H1098  1  0.812700  0.992300  0.098100  1.0
  H  H1099  1  0.742300  0.937300  0.848100  1.0
  H  H1100  1  0.312700  0.492300  0.598100  1.0
  H  H1101  1  0.187300  0.507700  0.098100  1.0
  H  H1102  1  0.257700  0.562700  0.848100  1.0
  H  H1103  1  0.687300  0.007700  0.598100  1.0
  H  H1104  1  0.757700  0.062700  0.348100  1.0
  H  H1105  1  0.680300  0.549300  0.716200  1.0
  H  H1106  1  0.200700  0.930300  0.966200  1.0
  H  H1107  1  0.180300  0.049300  0.216200  1.0
  H  H1108  1  0.700700  0.430300  0.466200  1.0
  H  H1109  1  0.799300  0.569700  0.966200  1.0
  H  H1110  1  0.819700  0.450700  0.216200  1.0
  H  H1111  1  0.299300  0.069700  0.466200  1.0
  H  H1112  1  0.319700  0.950700  0.716200  1.0
  H  H1113  1  0.319700  0.450700  0.283800  1.0
  H  H1114  1  0.799300  0.069700  0.033800  1.0
  H  H1115  1  0.819700  0.950700  0.783800  1.0
  H  H1116  1  0.299300  0.569700  0.533800  1.0
  H  H1117  1  0.200700  0.430300  0.033800  1.0
  H  H1118  1  0.180300  0.549300  0.783800  1.0
  H  H1119  1  0.700700  0.930300  0.533800  1.0
  H  H1120  1  0.680300  0.049300  0.283800  1.0
  H  H1121  1  0.726800  0.510300  0.712800  1.0
  H  H1122  1  0.239700  0.976800  0.962800  1.0
  H  H1123  1  0.226800  0.010300  0.212800  1.0
  H  H1124  1  0.739700  0.476800  0.462800  1.0
  H  H1125  1  0.760300  0.523200  0.962800  1.0
  H  H1126  1  0.773200  0.489700  0.212800  1.0
  H  H1127  1  0.260300  0.023200  0.462800  1.0
  H  H1128  1  0.273200  0.989700  0.712800  1.0
  H  H1129  1  0.273200  0.489700  0.287200  1.0
  H  H1130  1  0.760300  0.023200  0.037200  1.0
  H  H1131  1  0.773200  0.989700  0.787200  1.0
  H  H1132  1  0.260300  0.523200  0.537200  1.0
  H  H1133  1  0.239700  0.476800  0.037200  1.0
  H  H1134  1  0.226800  0.510300  0.787200  1.0
  H  H1135  1  0.739700  0.976800  0.537200  1.0
  H  H1136  1  0.726800  0.010300  0.287200  1.0
  H  H1137  1  0.669600  0.489800  0.710600  1.0
  H  H1138  1  0.260200  0.919600  0.960600  1.0
  H  H1139  1  0.169600  0.989800  0.210600  1.0
  H  H1140  1  0.760200  0.419600  0.460600  1.0
  H  H1141  1  0.739800  0.580400  0.960600  1.0
  H  H1142  1  0.830400  0.510200  0.210600  1.0
  H  H1143  1  0.239800  0.080400  0.460600  1.0
  H  H1144  1  0.330400  0.010200  0.710600  1.0
  H  H1145  1  0.330400  0.510200  0.289400  1.0
  H  H1146  1  0.739800  0.080400  0.039400  1.0
  H  H1147  1  0.830400  0.010200  0.789400  1.0
  H  H1148  1  0.239800  0.580400  0.539400  1.0
  H  H1149  1  0.260200  0.419600  0.039400  1.0
  H  H1150  1  0.169600  0.489800  0.789400  1.0
  H  H1151  1  0.760200  0.919600  0.539400  1.0
  H  H1152  1  0.669600  0.989800  0.289400  1.0
  Pd  Pd1153  1  0.000000  0.250000  0.914000  1.0
  Pd  Pd1154  1  0.500000  0.250000  0.164000  1.0
  Pd  Pd1155  1  0.500000  0.750000  0.414000  1.0
  Pd  Pd1156  1  0.000000  0.750000  0.664000  1.0
  Pd  Pd1157  1  0.000000  0.750000  0.086000  1.0
  Pd  Pd1158  1  0.500000  0.750000  0.836000  1.0
  Pd  Pd1159  1  0.500000  0.250000  0.586000  1.0
  Pd  Pd1160  1  0.000000  0.250000  0.336000  1.0
  Pd  Pd1161  1  0.717131  0.460396  0.626620  1.0
  Pd  Pd1162  1  0.289604  0.967131  0.876620  1.0
  Pd  Pd1163  1  0.217131  0.960396  0.126620  1.0
  Pd  Pd1164  1  0.789604  0.467131  0.376620  1.0
  Pd  Pd1165  1  0.710396  0.532869  0.876620  1.0
  Pd  Pd1166  1  0.782869  0.539604  0.126620  1.0
  Pd  Pd1167  1  0.210396  0.032869  0.376620  1.0
  Pd  Pd1168  1  0.282869  0.039604  0.626620  1.0
  Pd  Pd1169  1  0.282869  0.539604  0.373380  1.0
  Pd  Pd1170  1  0.710396  0.032869  0.123380  1.0
  Pd  Pd1171  1  0.782869  0.039604  0.873380  1.0
  Pd  Pd1172  1  0.210396  0.532869  0.623380  1.0
  Pd  Pd1173  1  0.289604  0.467131  0.123380  1.0
  Pd  Pd1174  1  0.217131  0.460396  0.873380  1.0
  Pd  Pd1175  1  0.789604  0.967131  0.623380  1.0
  Pd  Pd1176  1  0.717131  0.960396  0.373380  1.0
  C  C1177  1  0.970000  0.158000  0.592800  1
  C  C1178  1  0.592000  0.220000  0.842800  1
  C  C1179  1  0.470000  0.658000  0.092800  1
  C  C1180  1  0.092000  0.720000  0.342800  1
  C  C1181  1  0.408000  0.280000  0.842800  1
  C  C1182  1  0.530000  0.842000  0.092800  1
  C  C1183  1  0.908000  0.780000  0.342800  1
  C  C1184  1  0.030000  0.342000  0.592800  1
  C  C1185  1  0.030000  0.842000  0.407200  1
  C  C1186  1  0.408000  0.780000  0.157200  1
  C  C1187  1  0.530000  0.342000  0.907200  1
  C  C1188  1  0.908000  0.280000  0.657200  1
  C  C1189  1  0.592000  0.720000  0.157200  1
  C  C1190  1  0.470000  0.158000  0.907200  1
  C  C1191  1  0.092000  0.220000  0.657200  1
  C  C1192  1  0.970000  0.658000  0.407200  1
  C  C1193  1  0.978000  0.191000  0.555000  1
  C  C1194  1  0.559000  0.228000  0.805000  1
  C  C1195  1  0.478000  0.691000  0.055000  1
  C  C1196  1  0.059000  0.728000  0.305000  1
  C  C1197  1  0.441000  0.272000  0.805000  1
  C  C1198  1  0.522000  0.809000  0.055000  1
  C  C1199  1  0.941000  0.772000  0.305000  1
  C  C1200  1  0.022000  0.309000  0.555000  1
  C  C1201  1  0.022000  0.809000  0.445000  1
  C  C1202  1  0.441000  0.772000  0.195000  1
  C  C1203  1  0.522000  0.309000  0.945000  1
  C  C1204  1  0.941000  0.272000  0.695000  1
  C  C1205  1  0.559000  0.728000  0.195000  1
  C  C1206  1  0.478000  0.191000  0.945000  1
  C  C1207  1  0.059000  0.228000  0.695000  1
  C  C1208  1  0.978000  0.691000  0.445000  1
  C  C1209  1  0.035000  0.193000  0.544000  1
  C  C1210  1  0.557000  0.285000  0.794000  1
  C  C1211  1  0.535000  0.693000  0.044000  1
  C  C1212  1  0.057000  0.785000  0.294000  1
  C  C1213  1  0.443000  0.215000  0.794000  1
  C  C1214  1  0.465000  0.807000  0.044000  1
  C  C1215  1  0.943000  0.715000  0.294000  1
  C  C1216  1  0.965000  0.307000  0.544000  1
  C  C1217  1  0.965000  0.807000  0.456000  1
  C  C1218  1  0.443000  0.715000  0.206000  1
  C  C1219  1  0.465000  0.307000  0.956000  1
  C  C1220  1  0.943000  0.215000  0.706000  1
  C  C1221  1  0.557000  0.785000  0.206000  1
  C  C1222  1  0.535000  0.193000  0.956000  1
  C  C1223  1  0.057000  0.285000  0.706000  1
  C  C1224  1  0.035000  0.693000  0.456000  1
  C  C1225  1  0.057000  0.142000  0.538000  1
  C  C1226  1  0.608000  0.307000  0.788000  1
  C  C1227  1  0.557000  0.642000  0.038000  1
  C  C1228  1  0.108000  0.807000  0.288000  1
  C  C1229  1  0.392000  0.193000  0.788000  1
  C  C1230  1  0.443000  0.858000  0.038000  1
  C  C1231  1  0.892000  0.693000  0.288000  1
  C  C1232  1  0.943000  0.358000  0.538000  1
  C  C1233  1  0.943000  0.858000  0.462000  1
  C  C1234  1  0.392000  0.693000  0.212000  1
  C  C1235  1  0.443000  0.358000  0.962000  1
  C  C1236  1  0.892000  0.193000  0.712000  1
  C  C1237  1  0.608000  0.807000  0.212000  1
  C  C1238  1  0.557000  0.142000  0.962000  1
  C  C1239  1  0.108000  0.307000  0.712000  1
  C  C1240  1  0.057000  0.642000  0.462000  1
  C  C1241  1  0.048000  0.108000  0.577000  1
  C  C1242  1  0.642000  0.298000  0.827000  1
  C  C1243  1  0.548000  0.608000  0.077000  1
  C  C1244  1  0.142000  0.798000  0.327000  1
  C  C1245  1  0.358000  0.202000  0.827000  1
  C  C1246  1  0.452000  0.892000  0.077000  1
  C  C1247  1  0.858000  0.702000  0.327000  1
  C  C1248  1  0.952000  0.392000  0.577000  1
  C  C1249  1  0.952000  0.892000  0.423000  1
  C  C1250  1  0.358000  0.702000  0.173000  1
  C  C1251  1  0.452000  0.392000  0.923000  1
  C  C1252  1  0.858000  0.202000  0.673000  1
  C  C1253  1  0.642000  0.798000  0.173000  1
  C  C1254  1  0.548000  0.108000  0.923000  1
  C  C1255  1  0.142000  0.298000  0.673000  1
  C  C1256  1  0.048000  0.608000  0.423000  1
  C  C1257  1  0.992000  0.106000  0.589000  1
  C  C1258  1  0.644000  0.242000  0.839000  1
  C  C1259  1  0.492000  0.606000  0.089000  1
  C  C1260  1  0.144000  0.742000  0.339000  1
  C  C1261  1  0.356000  0.258000  0.839000  1
  C  C1262  1  0.508000  0.894000  0.089000  1
  C  C1263  1  0.856000  0.758000  0.339000  1
  C  C1264  1  0.008000  0.394000  0.589000  1
  C  C1265  1  0.008000  0.894000  0.411000  1
  C  C1266  1  0.356000  0.758000  0.161000  1
  C  C1267  1  0.508000  0.394000  0.911000  1
  C  C1268  1  0.856000  0.258000  0.661000  1
  C  C1269  1  0.644000  0.742000  0.161000  1
  C  C1270  1  0.492000  0.106000  0.911000  1
  C  C1271  1  0.144000  0.242000  0.661000  1
  C  C1272  1  0.992000  0.606000  0.411000  1
  C  C1273  1  0.908500  0.376600  0.589300  1.0
  C  C1274  1  0.373400  0.158500  0.839300  1.0
  C  C1275  1  0.408500  0.876600  0.089300  1.0
  C  C1276  1  0.873400  0.658500  0.339300  1.0
  C  C1277  1  0.626600  0.341500  0.839300  1.0
  C  C1278  1  0.591500  0.623400  0.089300  1.0
  C  C1279  1  0.126600  0.841500  0.339300  1.0
  C  C1280  1  0.091500  0.123400  0.589300  1.0
  C  C1281  1  0.091500  0.623400  0.410700  1.0
  C  C1282  1  0.626600  0.841500  0.160700  1.0
  C  C1283  1  0.591500  0.123400  0.910700  1.0
  C  C1284  1  0.126600  0.341500  0.660700  1.0
  C  C1285  1  0.373400  0.658500  0.160700  1.0
  C  C1286  1  0.408500  0.376600  0.910700  1.0
  C  C1287  1  0.873400  0.158500  0.660700  1.0
  C  C1288  1  0.908500  0.876600  0.410700  1.0
  C  C1289  1  0.884600  0.346700  0.618800  1.0
  C  C1290  1  0.403300  0.134600  0.868800  1.0
  C  C1291  1  0.384600  0.846700  0.118800  1.0
  C  C1292  1  0.903300  0.634600  0.368800  1.0
  C  C1293  1  0.596700  0.365400  0.868800  1.0
  C  C1294  1  0.615400  0.653300  0.118800  1.0
  C  C1295  1  0.096700  0.865400  0.368800  1.0
  C  C1296  1  0.115400  0.153300  0.618800  1.0
  C  C1297  1  0.115400  0.653300  0.381200  1.0
  C  C1298  1  0.596700  0.865400  0.131200  1.0
  C  C1299  1  0.615400  0.153300  0.881200  1.0
  C  C1300  1  0.096700  0.365400  0.631200  1.0
  C  C1301  1  0.403300  0.634600  0.131200  1.0
  C  C1302  1  0.384600  0.346700  0.881200  1.0
  C  C1303  1  0.903300  0.134600  0.631200  1.0
  C  C1304  1  0.884600  0.846700  0.381200  1.0
  C  C1305  1  0.906400  0.318800  0.650900  1.0
  C  C1306  1  0.431200  0.156400  0.900900  1.0
  C  C1307  1  0.406400  0.818800  0.150900  1.0
  C  C1308  1  0.931200  0.656400  0.400900  1.0
  C  C1309  1  0.568800  0.343600  0.900900  1.0
  C  C1310  1  0.593600  0.681200  0.150900  1.0
  C  C1311  1  0.068800  0.843600  0.400900  1.0
  C  C1312  1  0.093600  0.181200  0.650900  1.0
  C  C1313  1  0.093600  0.681200  0.349100  1.0
  C  C1314  1  0.568800  0.843600  0.099100  1.0
  C  C1315  1  0.593600  0.181200  0.849100  1.0
  C  C1316  1  0.068800  0.343600  0.599100  1.0
  C  C1317  1  0.431200  0.656400  0.099100  1.0
  C  C1318  1  0.406400  0.318800  0.849100  1.0
  C  C1319  1  0.931200  0.156400  0.599100  1.0
  C  C1320  1  0.906400  0.818800  0.349100  1.0
  C  C1321  1  0.962400  0.323300  0.653200  1.0
  C  C1322  1  0.426700  0.212400  0.903200  1.0
  C  C1323  1  0.462400  0.823300  0.153200  1.0
  C  C1324  1  0.926700  0.712400  0.403200  1.0
  C  C1325  1  0.573300  0.287600  0.903200  1.0
  C  C1326  1  0.537600  0.676700  0.153200  1.0
  C  C1327  1  0.073300  0.787600  0.403200  1.0
  C  C1328  1  0.037600  0.176700  0.653200  1.0
  C  C1329  1  0.037600  0.676700  0.346800  1.0
  C  C1330  1  0.573300  0.787600  0.096800  1.0
  C  C1331  1  0.537600  0.176700  0.846800  1.0
  C  C1332  1  0.073300  0.287600  0.596800  1.0
  C  C1333  1  0.426700  0.712400  0.096800  1.0
  C  C1334  1  0.462400  0.323300  0.846800  1.0
  C  C1335  1  0.926700  0.212400  0.596800  1.0
  C  C1336  1  0.962400  0.823300  0.346800  1.0
  C  C1337  1  0.987100  0.350000  0.621500  1.0
  C  C1338  1  0.400000  0.237100  0.871500  1.0
  C  C1339  1  0.487100  0.850000  0.121500  1.0
  C  C1340  1  0.900000  0.737100  0.371500  1.0
  C  C1341  1  0.600000  0.262900  0.871500  1.0
  C  C1342  1  0.512900  0.650000  0.121500  1.0
  C  C1343  1  0.100000  0.762900  0.371500  1.0
  C  C1344  1  0.012900  0.150000  0.621500  1.0
  C  C1345  1  0.012900  0.650000  0.378500  1.0
  C  C1346  1  0.600000  0.762900  0.128500  1.0
  C  C1347  1  0.512900  0.150000  0.878500  1.0
  C  C1348  1  0.100000  0.262900  0.628500  1.0
  C  C1349  1  0.400000  0.737100  0.128500  1.0
  C  C1350  1  0.487100  0.350000  0.878500  1.0
  C  C1351  1  0.900000  0.237100  0.628500  1.0
  C  C1352  1  0.987100  0.850000  0.378500  1.0
  C  C1353  1  0.960700  0.380300  0.593000  1.0
  C  C1354  1  0.369700  0.210700  0.843000  1.0
  C  C1355  1  0.460700  0.880300  0.093000  1.0
  C  C1356  1  0.869700  0.710700  0.343000  1.0
  C  C1357  1  0.630300  0.289300  0.843000  1.0
  C  C1358  1  0.539300  0.619700  0.093000  1.0
  C  C1359  1  0.130300  0.789300  0.343000  1.0
  C  C1360  1  0.039300  0.119700  0.593000  1.0
  C  C1361  1  0.039300  0.619700  0.407000  1.0
  C  C1362  1  0.630300  0.789300  0.157000  1.0
  C  C1363  1  0.539300  0.119700  0.907000  1.0
  C  C1364  1  0.130300  0.289300  0.657000  1.0
  C  C1365  1  0.369700  0.710700  0.157000  1.0
  C  C1366  1  0.460700  0.380300  0.907000  1.0
  C  C1367  1  0.869700  0.210700  0.657000  1.0
  C  C1368  1  0.960700  0.880300  0.407000  1.0
  C  C1369  1  0.983000  0.409600  0.561800  1.0
  C  C1370  1  0.340400  0.233000  0.811800  1.0
  C  C1371  1  0.483000  0.909600  0.061800  1.0
  C  C1372  1  0.840400  0.733000  0.311800  1.0
  C  C1373  1  0.659600  0.267000  0.811800  1.0
  C  C1374  1  0.517000  0.590400  0.061800  1.0
  C  C1375  1  0.159600  0.767000  0.311800  1.0
  C  C1376  1  0.017000  0.090400  0.561800  1.0
  C  C1377  1  0.017000  0.590400  0.438200  1.0
  C  C1378  1  0.659600  0.767000  0.188200  1.0
  C  C1379  1  0.517000  0.090400  0.938200  1.0
  C  C1380  1  0.159600  0.267000  0.688200  1.0
  C  C1381  1  0.340400  0.733000  0.188200  1.0
  C  C1382  1  0.483000  0.409600  0.938200  1.0
  C  C1383  1  0.840400  0.233000  0.688200  1.0
  C  C1384  1  0.983000  0.909600  0.438200  1.0
  C  C1385  1  0.036000  0.414000  0.564200  1.0
  C  C1386  1  0.336000  0.286000  0.814200  1.0
  C  C1387  1  0.536000  0.914000  0.064200  1.0
  C  C1388  1  0.836000  0.786000  0.314200  1.0
  C  C1389  1  0.664000  0.214000  0.814200  1.0
  C  C1390  1  0.464000  0.586000  0.064200  1.0
  C  C1391  1  0.164000  0.714000  0.314200  1.0
  C  C1392  1  0.964000  0.086000  0.564200  1.0
  C  C1393  1  0.964000  0.586000  0.435800  1.0
  C  C1394  1  0.664000  0.714000  0.185800  1.0
  C  C1395  1  0.464000  0.086000  0.935800  1.0
  C  C1396  1  0.164000  0.214000  0.685800  1.0
  C  C1397  1  0.336000  0.786000  0.185800  1.0
  C  C1398  1  0.536000  0.414000  0.935800  1.0
  C  C1399  1  0.836000  0.286000  0.685800  1.0
  C  C1400  1  0.036000  0.914000  0.435800  1.0
  C  C1401  1  0.861400  0.312700  0.655200  1.0
  C  C1402  1  0.437300  0.111400  0.905200  1.0
  C  C1403  1  0.361400  0.812700  0.155200  1.0
  C  C1404  1  0.937300  0.611400  0.405200  1.0
  C  C1405  1  0.562700  0.388600  0.905200  1.0
  C  C1406  1  0.638600  0.687300  0.155200  1.0
  C  C1407  1  0.062700  0.888600  0.405200  1.0
  C  C1408  1  0.138600  0.187300  0.655200  1.0
  C  C1409  1  0.138600  0.687300  0.344800  1.0
  C  C1410  1  0.562700  0.888600  0.094800  1.0
  C  C1411  1  0.638600  0.187300  0.844800  1.0
  C  C1412  1  0.062700  0.388600  0.594800  1.0
  C  C1413  1  0.437300  0.611400  0.094800  1.0
  C  C1414  1  0.361400  0.312700  0.844800  1.0
  C  C1415  1  0.937300  0.111400  0.594800  1.0
  C  C1416  1  0.861400  0.812700  0.344800  1.0
  C  C1417  1  0.892300  0.289500  0.626100  1.0
  C  C1418  1  0.460500  0.142300  0.876100  1.0
  C  C1419  1  0.392300  0.789500  0.126100  1.0
  C  C1420  1  0.960500  0.642300  0.376100  1.0
  C  C1421  1  0.539500  0.357700  0.876100  1.0
  C  C1422  1  0.607700  0.710500  0.126100  1.0
  C  C1423  1  0.039500  0.857700  0.376100  1.0
  C  C1424  1  0.107700  0.210500  0.626100  1.0
  C  C1425  1  0.107700  0.710500  0.373900  1.0
  C  C1426  1  0.539500  0.857700  0.123900  1.0
  C  C1427  1  0.607700  0.210500  0.873900  1.0
  C  C1428  1  0.039500  0.357700  0.623900  1.0
  C  C1429  1  0.460500  0.642300  0.123900  1.0
  C  C1430  1  0.392300  0.289500  0.873900  1.0
  C  C1431  1  0.960500  0.142300  0.623900  1.0
  C  C1432  1  0.892300  0.789500  0.373900  1.0
  C  C1433  1  0.918300  0.318100  0.596300  1.0
  C  C1434  1  0.431900  0.168300  0.846300  1.0
  C  C1435  1  0.418300  0.818100  0.096300  1.0
  C  C1436  1  0.931900  0.668300  0.346300  1.0
  C  C1437  1  0.568100  0.331700  0.846300  1.0
  C  C1438  1  0.581700  0.681900  0.096300  1.0
  C  C1439  1  0.068100  0.831700  0.346300  1.0
  C  C1440  1  0.081700  0.181900  0.596300  1.0
  C  C1441  1  0.081700  0.681900  0.403700  1.0
  C  C1442  1  0.568100  0.831700  0.153700  1.0
  C  C1443  1  0.581700  0.181900  0.903700  1.0
  C  C1444  1  0.068100  0.331700  0.653700  1.0
  C  C1445  1  0.431900  0.668300  0.153700  1.0
  C  C1446  1  0.418300  0.318100  0.903700  1.0
  C  C1447  1  0.931900  0.168300  0.653700  1.0
  C  C1448  1  0.918300  0.818100  0.403700  1.0
  C  C1449  1  0.921000  0.371000  0.591200  1.0
  C  C1450  1  0.379000  0.171000  0.841200  1.0
  C  C1451  1  0.421000  0.871000  0.091200  1.0
  C  C1452  1  0.879000  0.671000  0.341200  1.0
  C  C1453  1  0.621000  0.329000  0.841200  1.0
  C  C1454  1  0.579000  0.629000  0.091200  1.0
  C  C1455  1  0.121000  0.829000  0.341200  1.0
  C  C1456  1  0.079000  0.129000  0.591200  1.0
  C  C1457  1  0.079000  0.629000  0.408800  1.0
  C  C1458  1  0.621000  0.829000  0.158800  1.0
  C  C1459  1  0.579000  0.129000  0.908800  1.0
  C  C1460  1  0.121000  0.329000  0.658800  1.0
  C  C1461  1  0.379000  0.671000  0.158800  1.0
  C  C1462  1  0.421000  0.371000  0.908800  1.0
  C  C1463  1  0.879000  0.171000  0.658800  1.0
  C  C1464  1  0.921000  0.871000  0.408800  1.0
  C  C1465  1  0.948000  0.395000  0.559700  1.0
  C  C1466  1  0.355000  0.198000  0.809700  1.0
  C  C1467  1  0.448000  0.895000  0.059700  1.0
  C  C1468  1  0.855000  0.698000  0.309700  1.0
  C  C1469  1  0.645000  0.302000  0.809700  1.0
  C  C1470  1  0.552000  0.605000  0.059700  1.0
  C  C1471  1  0.145000  0.802000  0.309700  1.0
  C  C1472  1  0.052000  0.105000  0.559700  1.0
  C  C1473  1  0.052000  0.605000  0.440300  1.0
  C  C1474  1  0.645000  0.802000  0.190300  1.0
  C  C1475  1  0.552000  0.105000  0.940300  1.0
  C  C1476  1  0.145000  0.302000  0.690300  1.0
  C  C1477  1  0.355000  0.698000  0.190300  1.0
  C  C1478  1  0.448000  0.395000  0.940300  1.0
  C  C1479  1  0.855000  0.198000  0.690300  1.0
  C  C1480  1  0.948000  0.895000  0.440300  1.0
  C  C1481  1  0.980000  0.372000  0.530700  1.0
  C  C1482  1  0.378000  0.230000  0.780700  1.0
  C  C1483  1  0.480000  0.872000  0.030700  1.0
  C  C1484  1  0.878000  0.730000  0.280700  1.0
  C  C1485  1  0.622000  0.270000  0.780700  1.0
  C  C1486  1  0.520000  0.628000  0.030700  1.0
  C  C1487  1  0.122000  0.770000  0.280700  1.0
  C  C1488  1  0.020000  0.128000  0.530700  1.0
  C  C1489  1  0.020000  0.628000  0.469300  1.0
  C  C1490  1  0.622000  0.770000  0.219300  1.0
  C  C1491  1  0.520000  0.128000  0.969300  1.0
  C  C1492  1  0.122000  0.270000  0.719300  1.0
  C  C1493  1  0.378000  0.730000  0.219300  1.0
  C  C1494  1  0.480000  0.372000  0.969300  1.0
  C  C1495  1  0.878000  0.230000  0.719300  1.0
  C  C1496  1  0.980000  0.872000  0.469300  1.0
  C  C1497  1  0.972600  0.319200  0.534300  1.0
  C  C1498  1  0.430800  0.222600  0.784300  1.0
  C  C1499  1  0.472600  0.819200  0.034300  1.0
  C  C1500  1  0.930800  0.722600  0.284300  1.0
  C  C1501  1  0.569200  0.277400  0.784300  1.0
  C  C1502  1  0.527400  0.680800  0.034300  1.0
  C  C1503  1  0.069200  0.777400  0.284300  1.0
  C  C1504  1  0.027400  0.180800  0.534300  1.0
  C  C1505  1  0.027400  0.680800  0.465700  1.0
  C  C1506  1  0.569200  0.777400  0.215700  1.0
  C  C1507  1  0.527400  0.180800  0.965700  1.0
  C  C1508  1  0.069200  0.277400  0.715700  1.0
  C  C1509  1  0.430800  0.722600  0.215700  1.0
  C  C1510  1  0.472600  0.319200  0.965700  1.0
  C  C1511  1  0.930800  0.222600  0.715700  1.0
  C  C1512  1  0.972600  0.819200  0.465700  1.0
  C  C1513  1  0.948900  0.293100  0.566500  1.0
  C  C1514  1  0.456900  0.198900  0.816500  1.0
  C  C1515  1  0.448900  0.793100  0.066500  1.0
  C  C1516  1  0.956900  0.698900  0.316500  1.0
  C  C1517  1  0.543100  0.301100  0.816500  1.0
  C  C1518  1  0.551100  0.706900  0.066500  1.0
  C  C1519  1  0.043100  0.801100  0.316500  1.0
  C  C1520  1  0.051100  0.206900  0.566500  1.0
  C  C1521  1  0.051100  0.706900  0.433500  1.0
  C  C1522  1  0.543100  0.801100  0.183500  1.0
  C  C1523  1  0.551100  0.206900  0.933500  1.0
  C  C1524  1  0.043100  0.301100  0.683500  1.0
  C  C1525  1  0.456900  0.698900  0.183500  1.0
  C  C1526  1  0.448900  0.293100  0.933500  1.0
  C  C1527  1  0.956900  0.198900  0.683500  1.0
  C  C1528  1  0.948900  0.793100  0.433500  1.0
  C  C1529  1  0.990200  0.298200  0.683600  1.0
  C  C1530  1  0.451800  0.240200  0.933600  1.0
  C  C1531  1  0.490200  0.798200  0.183600  1.0
  C  C1532  1  0.951800  0.740200  0.433600  1.0
  C  C1533  1  0.548200  0.259800  0.933600  1.0
  C  C1534  1  0.509800  0.701800  0.183600  1.0
  C  C1535  1  0.048200  0.759800  0.433600  1.0
  C  C1536  1  0.009800  0.201800  0.683600  1.0
  C  C1537  1  0.009800  0.701800  0.316400  1.0
  C  C1538  1  0.548200  0.759800  0.066400  1.0
  C  C1539  1  0.509800  0.201800  0.816400  1.0
  C  C1540  1  0.048200  0.259800  0.566400  1.0
  C  C1541  1  0.451800  0.740200  0.066400  1.0
  C  C1542  1  0.490200  0.298200  0.816400  1.0
  C  C1543  1  0.951800  0.240200  0.566400  1.0
  C  C1544  1  0.990200  0.798200  0.316400  1.0
  C  C1545  1  0.014100  0.287300  0.536600  1.0
  C  C1546  1  0.462700  0.264100  0.786600  1.0
  C  C1547  1  0.514100  0.787300  0.036600  1.0
  C  C1548  1  0.962700  0.764100  0.286600  1.0
  C  C1549  1  0.537300  0.235900  0.786600  1.0
  C  C1550  1  0.485900  0.712700  0.036600  1.0
  C  C1551  1  0.037300  0.735900  0.286600  1.0
  C  C1552  1  0.985900  0.212700  0.536600  1.0
  C  C1553  1  0.985900  0.712700  0.463400  1.0
  C  C1554  1  0.537300  0.735900  0.213400  1.0
  C  C1555  1  0.485900  0.212700  0.963400  1.0
  C  C1556  1  0.037300  0.235900  0.713400  1.0
  C  C1557  1  0.462700  0.764100  0.213400  1.0
  C  C1558  1  0.514100  0.287300  0.963400  1.0
  C  C1559  1  0.962700  0.264100  0.713400  1.0
  C  C1560  1  0.014100  0.787300  0.463400  1.0
  C  C1561  1  0.990000  0.258000  0.505700  1.0
  C  C1562  1  0.492000  0.240000  0.755700  1.0
  C  C1563  1  0.490000  0.758000  0.005700  1.0
  C  C1564  1  0.992000  0.740000  0.255700  1.0
  C  C1565  1  0.508000  0.260000  0.755700  1.0
  C  C1566  1  0.510000  0.742000  0.005700  1.0
  C  C1567  1  0.008000  0.760000  0.255700  1.0
  C  C1568  1  0.010000  0.242000  0.505700  1.0
  C  C1569  1  0.010000  0.742000  0.494300  1.0
  C  C1570  1  0.508000  0.760000  0.244300  1.0
  C  C1571  1  0.510000  0.242000  0.994300  1.0
  C  C1572  1  0.008000  0.260000  0.744300  1.0
  C  C1573  1  0.492000  0.740000  0.244300  1.0
  C  C1574  1  0.490000  0.258000  0.994300  1.0
  C  C1575  1  0.992000  0.240000  0.744300  1.0
  C  C1576  1  0.990000  0.758000  0.494300  1.0
  C  C1577  1  0.001700  0.294100  0.504600  1.0
  C  C1578  1  0.455900  0.251700  0.754600  1.0
  C  C1579  1  0.501700  0.794100  0.004600  1.0
  C  C1580  1  0.955900  0.751700  0.254600  1.0
  C  C1581  1  0.544100  0.248300  0.754600  1.0
  C  C1582  1  0.498300  0.705900  0.004600  1.0
  C  C1583  1  0.044100  0.748300  0.254600  1.0
  C  C1584  1  0.998300  0.205900  0.504600  1.0
  C  C1585  1  0.998300  0.705900  0.495400  1.0
  C  C1586  1  0.544100  0.748300  0.245400  1.0
  C  C1587  1  0.498300  0.205900  0.995400  1.0
  C  C1588  1  0.044100  0.248300  0.745400  1.0
  C  C1589  1  0.455900  0.751700  0.245400  1.0
  C  C1590  1  0.501700  0.294100  0.995400  1.0
  C  C1591  1  0.955900  0.251700  0.745400  1.0
  C  C1592  1  0.001700  0.794100  0.495400  1.0
  C  C1593  1  0.983500  0.326400  0.563000  1.0
  C  C1594  1  0.423600  0.233500  0.813000  1.0
  C  C1595  1  0.483500  0.826400  0.063000  1.0
  C  C1596  1  0.923600  0.733500  0.313000  1.0
  C  C1597  1  0.576400  0.266500  0.813000  1.0
  C  C1598  1  0.516500  0.673600  0.063000  1.0
  C  C1599  1  0.076400  0.766500  0.313000  1.0
  C  C1600  1  0.016500  0.173600  0.563000  1.0
  C  C1601  1  0.016500  0.673600  0.437000  1.0
  C  C1602  1  0.576400  0.766500  0.187000  1.0
  C  C1603  1  0.516500  0.173600  0.937000  1.0
  C  C1604  1  0.076400  0.266500  0.687000  1.0
  C  C1605  1  0.423600  0.733500  0.187000  1.0
  C  C1606  1  0.483500  0.326400  0.937000  1.0
  C  C1607  1  0.923600  0.233500  0.687000  1.0
  C  C1608  1  0.983500  0.826400  0.437000  1.0
  C  C1609  1  0.896700  0.261400  0.649900  1.0
  C  C1610  1  0.488600  0.146700  0.899900  1.0
  C  C1611  1  0.396700  0.761400  0.149900  1.0
  C  C1612  1  0.988600  0.646700  0.399900  1.0
  C  C1613  1  0.511400  0.353300  0.899900  1.0
  C  C1614  1  0.603300  0.738600  0.149900  1.0
  C  C1615  1  0.011400  0.853300  0.399900  1.0
  C  C1616  1  0.103300  0.238600  0.649900  1.0
  C  C1617  1  0.103300  0.738600  0.350100  1.0
  C  C1618  1  0.511400  0.853300  0.100100  1.0
  C  C1619  1  0.603300  0.238600  0.850100  1.0
  C  C1620  1  0.011400  0.353300  0.600100  1.0
  C  C1621  1  0.488600  0.646700  0.100100  1.0
  C  C1622  1  0.396700  0.261400  0.850100  1.0
  C  C1623  1  0.988600  0.146700  0.600100  1.0
  C  C1624  1  0.896700  0.761400  0.350100  1.0
  C  C1625  1  0.943200  0.296200  0.584700  1.0
  C  C1626  1  0.453800  0.193200  0.834700  1.0
  C  C1627  1  0.443200  0.796200  0.084700  1.0
  C  C1628  1  0.953800  0.693200  0.334700  1.0
  C  C1629  1  0.546200  0.306800  0.834700  1.0
  C  C1630  1  0.556800  0.703800  0.084700  1.0
  C  C1631  1  0.046200  0.806800  0.334700  1.0
  C  C1632  1  0.056800  0.203800  0.584700  1.0
  C  C1633  1  0.056800  0.703800  0.415300  1.0
  C  C1634  1  0.546200  0.806800  0.165300  1.0
  C  C1635  1  0.556800  0.203800  0.915300  1.0
  C  C1636  1  0.046200  0.306800  0.665300  1.0
  C  C1637  1  0.453800  0.693200  0.165300  1.0
  C  C1638  1  0.443200  0.296200  0.915300  1.0
  C  C1639  1  0.953800  0.193200  0.665300  1.0
  C  C1640  1  0.943200  0.796200  0.415300  1.0
  C  C1641  1  0.984000  0.334700  0.637200  1.0
  C  C1642  1  0.415300  0.234000  0.887200  1.0
  C  C1643  1  0.484000  0.834700  0.137200  1.0
  C  C1644  1  0.915300  0.734000  0.387200  1.0
  C  C1645  1  0.584700  0.266000  0.887200  1.0
  C  C1646  1  0.516000  0.665300  0.137200  1.0
  C  C1647  1  0.084700  0.766000  0.387200  1.0
  C  C1648  1  0.016000  0.165300  0.637200  1.0
  C  C1649  1  0.016000  0.665300  0.362800  1.0
  C  C1650  1  0.584700  0.766000  0.112800  1.0
  C  C1651  1  0.516000  0.165300  0.862800  1.0
  C  C1652  1  0.084700  0.266000  0.612800  1.0
  C  C1653  1  0.415300  0.734000  0.112800  1.0
  C  C1654  1  0.484000  0.334700  0.862800  1.0
  C  C1655  1  0.915300  0.234000  0.612800  1.0
  C  C1656  1  0.984000  0.834700  0.362800  1.0
  C  C1657  1  0.917600  0.275600  0.661000  1.0
  C  C1658  1  0.474400  0.167600  0.911000  1.0
  C  C1659  1  0.417600  0.775600  0.161000  1.0
  C  C1660  1  0.974400  0.667600  0.411000  1.0
  C  C1661  1  0.525600  0.332400  0.911000  1.0
  C  C1662  1  0.582400  0.724400  0.161000  1.0
  C  C1663  1  0.025600  0.832400  0.411000  1.0
  C  C1664  1  0.082400  0.224400  0.661000  1.0
  C  C1665  1  0.082400  0.724400  0.339000  1.0
  C  C1666  1  0.525600  0.832400  0.089000  1.0
  C  C1667  1  0.582400  0.224400  0.839000  1.0
  C  C1668  1  0.025600  0.332400  0.589000  1.0
  C  C1669  1  0.474400  0.667600  0.089000  1.0
  C  C1670  1  0.417600  0.275600  0.839000  1.0
  C  C1671  1  0.974400  0.167600  0.589000  1.0
  C  C1672  1  0.917600  0.775600  0.339000  1.0
  C  C1673  1  0.865000  0.297000  0.665900  1.0
  C  C1674  1  0.453000  0.115000  0.915900  1.0
  C  C1675  1  0.365000  0.797000  0.165900  1.0
  C  C1676  1  0.953000  0.615000  0.415900  1.0
  C  C1677  1  0.547000  0.385000  0.915900  1.0
  C  C1678  1  0.635000  0.703000  0.165900  1.0
  C  C1679  1  0.047000  0.885000  0.415900  1.0
  C  C1680  1  0.135000  0.203000  0.665900  1.0
  C  C1681  1  0.135000  0.703000  0.334100  1.0
  C  C1682  1  0.547000  0.885000  0.084100  1.0
  C  C1683  1  0.635000  0.203000  0.834100  1.0
  C  C1684  1  0.047000  0.385000  0.584100  1.0
  C  C1685  1  0.453000  0.615000  0.084100  1.0
  C  C1686  1  0.365000  0.297000  0.834100  1.0
  C  C1687  1  0.953000  0.115000  0.584100  1.0
  C  C1688  1  0.865000  0.797000  0.334100  1.0
  C  C1689  1  0.021000  0.413900  0.549000  1.0
  C  C1690  1  0.336100  0.271000  0.799000  1.0
  C  C1691  1  0.521000  0.913900  0.049000  1.0
  C  C1692  1  0.836100  0.771000  0.299000  1.0
  C  C1693  1  0.663900  0.229000  0.799000  1.0
  C  C1694  1  0.479000  0.586100  0.049000  1.0
  C  C1695  1  0.163900  0.729000  0.299000  1.0
  C  C1696  1  0.979000  0.086100  0.549000  1.0
  C  C1697  1  0.979000  0.586100  0.451000  1.0
  C  C1698  1  0.663900  0.729000  0.201000  1.0
  C  C1699  1  0.479000  0.086100  0.951000  1.0
  C  C1700  1  0.163900  0.229000  0.701000  1.0
  C  C1701  1  0.336100  0.771000  0.201000  1.0
  C  C1702  1  0.521000  0.413900  0.951000  1.0
  C  C1703  1  0.836100  0.271000  0.701000  1.0
  C  C1704  1  0.021000  0.913900  0.451000  1.0
  C  C1705  1  0.020000  0.383000  0.508300  1.0
  C  C1706  1  0.367000  0.270000  0.758300  1.0
  C  C1707  1  0.520000  0.883000  0.008300  1.0
  C  C1708  1  0.867000  0.770000  0.258300  1.0
  C  C1709  1  0.633000  0.230000  0.758300  1.0
  C  C1710  1  0.480000  0.617000  0.008300  1.0
  C  C1711  1  0.133000  0.730000  0.258300  1.0
  C  C1712  1  0.980000  0.117000  0.508300  1.0
  C  C1713  1  0.980000  0.617000  0.491700  1.0
  C  C1714  1  0.633000  0.730000  0.241700  1.0
  C  C1715  1  0.480000  0.117000  0.991700  1.0
  C  C1716  1  0.133000  0.230000  0.741700  1.0
  C  C1717  1  0.367000  0.770000  0.241700  1.0
  C  C1718  1  0.520000  0.383000  0.991700  1.0
  C  C1719  1  0.867000  0.270000  0.741700  1.0
  C  C1720  1  0.020000  0.883000  0.491700  1.0
  C  C1721  1  0.998000  0.332000  0.515000  1.0
  C  C1722  1  0.418000  0.248000  0.765000  1.0
  C  C1723  1  0.498000  0.832000  0.015000  1.0
  C  C1724  1  0.918000  0.748000  0.265000  1.0
  C  C1725  1  0.582000  0.252000  0.765000  1.0
  C  C1726  1  0.502000  0.668000  0.015000  1.0
  C  C1727  1  0.082000  0.752000  0.265000  1.0
  C  C1728  1  0.002000  0.168000  0.515000  1.0
  C  C1729  1  0.002000  0.668000  0.485000  1.0
  C  C1730  1  0.582000  0.752000  0.235000  1.0
  C  C1731  1  0.502000  0.168000  0.985000  1.0
  C  C1732  1  0.082000  0.252000  0.735000  1.0
  C  C1733  1  0.418000  0.748000  0.235000  1.0
  C  C1734  1  0.498000  0.332000  0.985000  1.0
  C  C1735  1  0.918000  0.248000  0.735000  1.0
  C  C1736  1  0.998000  0.832000  0.485000  1.0
  C  C1737  1  0.026000  0.302000  0.549400  1.0
  C  C1738  1  0.448000  0.276000  0.799400  1.0
  C  C1739  1  0.526000  0.802000  0.049400  1.0
  C  C1740  1  0.948000  0.776000  0.299400  1.0
  C  C1741  1  0.552000  0.224000  0.799400  1.0
  C  C1742  1  0.474000  0.698000  0.049400  1.0
  C  C1743  1  0.052000  0.724000  0.299400  1.0
  C  C1744  1  0.974000  0.198000  0.549400  1.0
  C  C1745  1  0.974000  0.698000  0.450600  1.0
  C  C1746  1  0.552000  0.724000  0.200600  1.0
  C  C1747  1  0.474000  0.198000  0.950600  1.0
  C  C1748  1  0.052000  0.224000  0.700600  1.0
  C  C1749  1  0.448000  0.776000  0.200600  1.0
  C  C1750  1  0.526000  0.302000  0.950600  1.0
  C  C1751  1  0.948000  0.276000  0.700600  1.0
  C  C1752  1  0.026000  0.802000  0.450600  1.0
  C  C1753  1  0.732400  0.350600  0.611700  1.0
  C  C1754  1  0.399400  0.982400  0.861700  1.0
  C  C1755  1  0.232400  0.850600  0.111700  1.0
  C  C1756  1  0.899400  0.482400  0.361700  1.0
  C  C1757  1  0.600600  0.517600  0.861700  1.0
  C  C1758  1  0.767600  0.649400  0.111700  1.0
  C  C1759  1  0.100600  0.017600  0.361700  1.0
  C  C1760  1  0.267600  0.149400  0.611700  1.0
  C  C1761  1  0.267600  0.649400  0.388300  1.0
  C  C1762  1  0.600600  0.017600  0.138300  1.0
  C  C1763  1  0.767600  0.149400  0.888300  1.0
  C  C1764  1  0.100600  0.517600  0.638300  1.0
  C  C1765  1  0.399400  0.482400  0.138300  1.0
  C  C1766  1  0.232400  0.350600  0.888300  1.0
  C  C1767  1  0.899400  0.982400  0.638300  1.0
  C  C1768  1  0.732400  0.850600  0.388300  1.0
  C  C1769  1  0.752700  0.307600  0.594300  1.0
  C  C1770  1  0.442400  0.002700  0.844300  1.0
  C  C1771  1  0.252700  0.807600  0.094300  1.0
  C  C1772  1  0.942400  0.502700  0.344300  1.0
  C  C1773  1  0.557600  0.497300  0.844300  1.0
  C  C1774  1  0.747300  0.692400  0.094300  1.0
  C  C1775  1  0.057600  0.997300  0.344300  1.0
  C  C1776  1  0.247300  0.192400  0.594300  1.0
  C  C1777  1  0.247300  0.692400  0.405700  1.0
  C  C1778  1  0.557600  0.997300  0.155700  1.0
  C  C1779  1  0.747300  0.192400  0.905700  1.0
  C  C1780  1  0.057600  0.497300  0.655700  1.0
  C  C1781  1  0.442400  0.502700  0.155700  1.0
  C  C1782  1  0.252700  0.307600  0.905700  1.0
  C  C1783  1  0.942400  0.002700  0.655700  1.0
  C  C1784  1  0.752700  0.807600  0.405700  1.0
  C  C1785  1  0.781700  0.311300  0.558400  1.0
  C  C1786  1  0.438700  0.031700  0.808400  1.0
  C  C1787  1  0.281700  0.811300  0.058400  1.0
  C  C1788  1  0.938700  0.531700  0.308400  1.0
  C  C1789  1  0.561300  0.468300  0.808400  1.0
  C  C1790  1  0.718300  0.688700  0.058400  1.0
  C  C1791  1  0.061300  0.968300  0.308400  1.0
  C  C1792  1  0.218300  0.188700  0.558400  1.0
  C  C1793  1  0.218300  0.688700  0.441600  1.0
  C  C1794  1  0.561300  0.968300  0.191600  1.0
  C  C1795  1  0.718300  0.188700  0.941600  1.0
  C  C1796  1  0.061300  0.468300  0.691600  1.0
  C  C1797  1  0.438700  0.531700  0.191600  1.0
  C  C1798  1  0.281700  0.311300  0.941600  1.0
  C  C1799  1  0.938700  0.031700  0.691600  1.0
  C  C1800  1  0.781700  0.811300  0.441600  1.0
  C  C1801  1  0.790400  0.359400  0.541400  1.0
  C  C1802  1  0.390600  0.040400  0.791400  1.0
  C  C1803  1  0.290400  0.859400  0.041400  1.0
  C  C1804  1  0.890600  0.540400  0.291400  1.0
  C  C1805  1  0.609400  0.459600  0.791400  1.0
  C  C1806  1  0.709600  0.640600  0.041400  1.0
  C  C1807  1  0.109400  0.959600  0.291400  1.0
  C  C1808  1  0.209600  0.140600  0.541400  1.0
  C  C1809  1  0.209600  0.640600  0.458600  1.0
  C  C1810  1  0.609400  0.959600  0.208600  1.0
  C  C1811  1  0.709600  0.140600  0.958600  1.0
  C  C1812  1  0.109400  0.459600  0.708600  1.0
  C  C1813  1  0.390600  0.540400  0.208600  1.0
  C  C1814  1  0.290400  0.359400  0.958600  1.0
  C  C1815  1  0.890600  0.040400  0.708600  1.0
  C  C1816  1  0.790400  0.859400  0.458600  1.0
  C  C1817  1  0.769600  0.401400  0.561060  1.0
  C  C1818  1  0.348600  0.019600  0.811060  1.0
  C  C1819  1  0.269600  0.901400  0.061060  1.0
  C  C1820  1  0.848600  0.519600  0.311060  1.0
  C  C1821  1  0.651400  0.480400  0.811060  1.0
  C  C1822  1  0.730400  0.598600  0.061060  1.0
  C  C1823  1  0.151400  0.980400  0.311060  1.0
  C  C1824  1  0.230400  0.098600  0.561060  1.0
  C  C1825  1  0.230400  0.598600  0.438940  1.0
  C  C1826  1  0.651400  0.980400  0.188940  1.0
  C  C1827  1  0.730400  0.098600  0.938940  1.0
  C  C1828  1  0.151400  0.480400  0.688940  1.0
  C  C1829  1  0.348600  0.519600  0.188940  1.0
  C  C1830  1  0.269600  0.401400  0.938940  1.0
  C  C1831  1  0.848600  0.019600  0.688940  1.0
  C  C1832  1  0.769600  0.901400  0.438940  1.0
  C  C1833  1  0.947000  0.311900  0.850500  1.0
  C  C1834  1  0.438100  0.197000  0.100500  1.0
  C  C1835  1  0.447000  0.811900  0.350500  1.0
  C  C1836  1  0.938100  0.697000  0.600500  1.0
  C  C1837  1  0.561900  0.303000  0.100500  1.0
  C  C1838  1  0.553000  0.688100  0.350500  1.0
  C  C1839  1  0.061900  0.803000  0.600500  1.0
  C  C1840  1  0.053000  0.188100  0.850500  1.0
  C  C1841  1  0.053000  0.688100  0.149500  1.0
  C  C1842  1  0.561900  0.803000  0.899500  1.0
  C  C1843  1  0.553000  0.188100  0.649500  1.0
  C  C1844  1  0.061900  0.303000  0.399500  1.0
  C  C1845  1  0.438100  0.697000  0.899500  1.0
  C  C1846  1  0.447000  0.311900  0.649500  1.0
  C  C1847  1  0.938100  0.197000  0.399500  1.0
  C  C1848  1  0.947000  0.811900  0.149500  1.0
  C  C1849  1  0.941300  0.343500  0.816500  1.0
  C  C1850  1  0.406500  0.191300  0.066500  1.0
  C  C1851  1  0.441300  0.843500  0.316500  1.0
  C  C1852  1  0.906500  0.691300  0.566500  1.0
  C  C1853  1  0.593500  0.308700  0.066500  1.0
  C  C1854  1  0.558700  0.656500  0.316500  1.0
  C  C1855  1  0.093500  0.808700  0.566500  1.0
  C  C1856  1  0.058700  0.156500  0.816500  1.0
  C  C1857  1  0.058700  0.656500  0.183500  1.0
  C  C1858  1  0.593500  0.808700  0.933500  1.0
  C  C1859  1  0.558700  0.156500  0.683500  1.0
  C  C1860  1  0.093500  0.308700  0.433500  1.0
  C  C1861  1  0.406500  0.691300  0.933500  1.0
  C  C1862  1  0.441300  0.343500  0.683500  1.0
  C  C1863  1  0.906500  0.191300  0.433500  1.0
  C  C1864  1  0.941300  0.843500  0.183500  1.0
  C  C1865  1  0.983600  0.365800  0.798500  1.0
  C  C1866  1  0.384200  0.233600  0.048500  1.0
  C  C1867  1  0.483600  0.865800  0.298500  1.0
  C  C1868  1  0.884200  0.733600  0.548500  1.0
  C  C1869  1  0.615800  0.266400  0.048500  1.0
  C  C1870  1  0.516400  0.634200  0.298500  1.0
  C  C1871  1  0.115800  0.766400  0.548500  1.0
  C  C1872  1  0.016400  0.134200  0.798500  1.0
  C  C1873  1  0.016400  0.634200  0.201500  1.0
  C  C1874  1  0.615800  0.766400  0.951500  1.0
  C  C1875  1  0.516400  0.134200  0.701500  1.0
  C  C1876  1  0.115800  0.266400  0.451500  1.0
  C  C1877  1  0.384200  0.733600  0.951500  1.0
  C  C1878  1  0.483600  0.365800  0.701500  1.0
  C  C1879  1  0.884200  0.233600  0.451500  1.0
  C  C1880  1  0.983600  0.865800  0.201500  1.0
  C  C1881  1  0.030400  0.355300  0.815700  1.0
  C  C1882  1  0.394700  0.280400  0.065700  1.0
  C  C1883  1  0.530400  0.855300  0.315700  1.0
  C  C1884  1  0.894700  0.780400  0.565700  1.0
  C  C1885  1  0.605300  0.219600  0.065700  1.0
  C  C1886  1  0.469600  0.644700  0.315700  1.0
  C  C1887  1  0.105300  0.719600  0.565700  1.0
  C  C1888  1  0.969600  0.144700  0.815700  1.0
  C  C1889  1  0.969600  0.644700  0.184300  1.0
  C  C1890  1  0.605300  0.719600  0.934300  1.0
  C  C1891  1  0.469600  0.144700  0.684300  1.0
  C  C1892  1  0.105300  0.219600  0.434300  1.0
  C  C1893  1  0.394700  0.780400  0.934300  1.0
  C  C1894  1  0.530400  0.355300  0.684300  1.0
  C  C1895  1  0.894700  0.280400  0.434300  1.0
  C  C1896  1  0.030400  0.855300  0.184300  1.0
  C  C1897  1  0.033800  0.323400  0.850060  1.0
  C  C1898  1  0.426600  0.283800  0.100060  1.0
  C  C1899  1  0.533800  0.823400  0.350060  1.0
  C  C1900  1  0.926600  0.783800  0.600060  1.0
  C  C1901  1  0.573400  0.216200  0.100060  1.0
  C  C1902  1  0.466200  0.676600  0.350060  1.0
  C  C1903  1  0.073400  0.716200  0.600060  1.0
  C  C1904  1  0.966200  0.176600  0.850060  1.0
  C  C1905  1  0.966200  0.676600  0.149940  1.0
  C  C1906  1  0.573400  0.716200  0.899940  1.0
  C  C1907  1  0.466200  0.176600  0.649940  1.0
  C  C1908  1  0.073400  0.216200  0.399940  1.0
  C  C1909  1  0.426600  0.783800  0.899940  1.0
  C  C1910  1  0.533800  0.323400  0.649940  1.0
  C  C1911  1  0.926600  0.283800  0.399940  1.0
  C  C1912  1  0.033800  0.823400  0.149940  1.0
  C  C1913  1  0.879600  0.443700  0.693000  1.0
  C  C1914  1  0.306300  0.129600  0.943000  1.0
  C  C1915  1  0.379600  0.943700  0.193000  1.0
  C  C1916  1  0.806300  0.629600  0.443000  1.0
  C  C1917  1  0.693700  0.370400  0.943000  1.0
  C  C1918  1  0.620400  0.556300  0.193000  1.0
  C  C1919  1  0.193700  0.870400  0.443000  1.0
  C  C1920  1  0.120400  0.056300  0.693000  1.0
  C  C1921  1  0.120400  0.556300  0.307000  1.0
  C  C1922  1  0.693700  0.870400  0.057000  1.0
  C  C1923  1  0.620400  0.056300  0.807000  1.0
  C  C1924  1  0.193700  0.370400  0.557000  1.0
  C  C1925  1  0.306300  0.629600  0.057000  1.0
  C  C1926  1  0.379600  0.443700  0.807000  1.0
  C  C1927  1  0.806300  0.129600  0.557000  1.0
  C  C1928  1  0.879600  0.943700  0.307000  1.0
  C  C1929  1  0.836800  0.422800  0.710700  1.0
  C  C1930  1  0.327200  0.086800  0.960700  1.0
  C  C1931  1  0.336800  0.922800  0.210700  1.0
  C  C1932  1  0.827200  0.586800  0.460700  1.0
  C  C1933  1  0.672800  0.413200  0.960700  1.0
  C  C1934  1  0.663200  0.577200  0.210700  1.0
  C  C1935  1  0.172800  0.913200  0.460700  1.0
  C  C1936  1  0.163200  0.077200  0.710700  1.0
  C  C1937  1  0.163200  0.577200  0.289300  1.0
  C  C1938  1  0.672800  0.913200  0.039300  1.0
  C  C1939  1  0.663200  0.077200  0.789300  1.0
  C  C1940  1  0.172800  0.413200  0.539300  1.0
  C  C1941  1  0.327200  0.586800  0.039300  1.0
  C  C1942  1  0.336800  0.422800  0.789300  1.0
  C  C1943  1  0.827200  0.086800  0.539300  1.0
  C  C1944  1  0.836800  0.922800  0.289300  1.0
  C  C1945  1  0.790400  0.431000  0.691800  1.0
  C  C1946  1  0.319000  0.040400  0.941800  1.0
  C  C1947  1  0.290400  0.931000  0.191800  1.0
  C  C1948  1  0.819000  0.540400  0.441800  1.0
  C  C1949  1  0.681000  0.459600  0.941800  1.0
  C  C1950  1  0.709600  0.569000  0.191800  1.0
  C  C1951  1  0.181000  0.959600  0.441800  1.0
  C  C1952  1  0.209600  0.069000  0.691800  1.0
  C  C1953  1  0.209600  0.569000  0.308200  1.0
  C  C1954  1  0.681000  0.959600  0.058200  1.0
  C  C1955  1  0.709600  0.069000  0.808200  1.0
  C  C1956  1  0.181000  0.459600  0.558200  1.0
  C  C1957  1  0.319000  0.540400  0.058200  1.0
  C  C1958  1  0.290400  0.431000  0.808200  1.0
  C  C1959  1  0.819000  0.040400  0.558200  1.0
  C  C1960  1  0.790400  0.931000  0.308200  1.0
  C  C1961  1  0.826700  0.478600  0.639600  1.0
  C  C1962  1  0.271400  0.076700  0.889600  1.0
  C  C1963  1  0.326700  0.978600  0.139600  1.0
  C  C1964  1  0.771400  0.576700  0.389600  1.0
  C  C1965  1  0.728600  0.423300  0.889600  1.0
  C  C1966  1  0.673300  0.521400  0.139600  1.0
  C  C1967  1  0.228600  0.923300  0.389600  1.0
  C  C1968  1  0.173300  0.021400  0.639600  1.0
  C  C1969  1  0.173300  0.521400  0.360400  1.0
  C  C1970  1  0.728600  0.923300  0.110400  1.0
  C  C1971  1  0.673300  0.021400  0.860400  1.0
  C  C1972  1  0.228600  0.423300  0.610400  1.0
  C  C1973  1  0.271400  0.576700  0.110400  1.0
  C  C1974  1  0.326700  0.478600  0.860400  1.0
  C  C1975  1  0.771400  0.076700  0.610400  1.0
  C  C1976  1  0.826700  0.978600  0.360400  1.0
  C  C1977  1  0.874500  0.472100  0.656800  1.0
  C  C1978  1  0.277900  0.124500  0.906800  1.0
  C  C1979  1  0.374500  0.972100  0.156800  1.0
  C  C1980  1  0.777900  0.624500  0.406800  1.0
  C  C1981  1  0.722100  0.375500  0.906800  1.0
  C  C1982  1  0.625500  0.527900  0.156800  1.0
  C  C1983  1  0.222100  0.875500  0.406800  1.0
  C  C1984  1  0.125500  0.027900  0.656800  1.0
  C  C1985  1  0.125500  0.527900  0.343200  1.0
  C  C1986  1  0.722100  0.875500  0.093200  1.0
  C  C1987  1  0.625500  0.027900  0.843200  1.0
  C  C1988  1  0.222100  0.375500  0.593200  1.0
  C  C1989  1  0.277900  0.624500  0.093200  1.0
  C  C1990  1  0.374500  0.472100  0.843200  1.0
  C  C1991  1  0.777900  0.124500  0.593200  1.0
  C  C1992  1  0.874500  0.972100  0.343200  1.0
  C  C1993  1  0.979100  0.398300  0.761100  1.0
  C  C1994  1  0.351700  0.229100  0.011100  1.0
  C  C1995  1  0.479100  0.898300  0.261100  1.0
  C  C1996  1  0.851700  0.729100  0.511100  1.0
  C  C1997  1  0.648300  0.270900  0.011100  1.0
  C  C1998  1  0.520900  0.601700  0.261100  1.0
  C  C1999  1  0.148300  0.770900  0.511100  1.0
  C  C2000  1  0.020900  0.101700  0.761100  1.0
  C  C2001  1  0.020900  0.601700  0.238900  1.0
  C  C2002  1  0.648300  0.770900  0.988900  1.0
  C  C2003  1  0.520900  0.101700  0.738900  1.0
  C  C2004  1  0.148300  0.270900  0.488900  1.0
  C  C2005  1  0.351700  0.729100  0.988900  1.0
  C  C2006  1  0.479100  0.398300  0.738900  1.0
  C  C2007  1  0.851700  0.229100  0.488900  1.0
  C  C2008  1  0.979100  0.898300  0.238900  1.0
  C  C2009  1  0.803900  0.265100  0.539000  1.0
  C  C2010  1  0.484900  0.053900  0.789000  1.0
  C  C2011  1  0.303900  0.765100  0.039000  1.0
  C  C2012  1  0.984900  0.553900  0.289000  1.0
  C  C2013  1  0.515100  0.446100  0.789000  1.0
  C  C2014  1  0.696100  0.734900  0.039000  1.0
  C  C2015  1  0.015100  0.946100  0.289000  1.0
  C  C2016  1  0.196100  0.234900  0.539000  1.0
  C  C2017  1  0.196100  0.734900  0.461000  1.0
  C  C2018  1  0.515100  0.946100  0.211000  1.0
  C  C2019  1  0.696100  0.234900  0.961000  1.0
  C  C2020  1  0.015100  0.446100  0.711000  1.0
  C  C2021  1  0.484900  0.553900  0.211000  1.0
  C  C2022  1  0.303900  0.265100  0.961000  1.0
  C  C2023  1  0.984900  0.053900  0.711000  1.0
  C  C2024  1  0.803900  0.765100  0.461000  1.0
  C  C2025  1  0.930600  0.434500  0.711700  1.0
  C  C2026  1  0.315500  0.180600  0.961700  1.0
  C  C2027  1  0.430600  0.934500  0.211700  1.0
  C  C2028  1  0.815500  0.680600  0.461700  1.0
  C  C2029  1  0.684500  0.319400  0.961700  1.0
  C  C2030  1  0.569400  0.565500  0.211700  1.0
  C  C2031  1  0.184500  0.819400  0.461700  1.0
  C  C2032  1  0.069400  0.065500  0.711700  1.0
  C  C2033  1  0.069400  0.565500  0.288300  1.0
  C  C2034  1  0.684500  0.819400  0.038300  1.0
  C  C2035  1  0.569400  0.065500  0.788300  1.0
  C  C2036  1  0.184500  0.319400  0.538300  1.0
  C  C2037  1  0.315500  0.680600  0.038300  1.0
  C  C2038  1  0.430600  0.434500  0.788300  1.0
  C  C2039  1  0.815500  0.180600  0.538300  1.0
  C  C2040  1  0.930600  0.934500  0.288300  1.0
  C  C2041  1  0.990100  0.223200  0.000300  1.0
  C  C2042  1  0.526800  0.240100  0.250300  1.0
  C  C2043  1  0.490100  0.723200  0.500300  1.0
  C  C2044  1  0.026800  0.740100  0.750300  1.0
  C  C2045  1  0.473200  0.259900  0.250300  1.0
  C  C2046  1  0.509900  0.776800  0.500300  1.0
  C  C2047  1  0.973200  0.759900  0.750300  1.0
  C  C2048  1  0.009900  0.276800  0.000300  1.0
  C  C2049  1  0.009900  0.776800  0.999700  1.0
  C  C2050  1  0.473200  0.759900  0.749700  1.0
  C  C2051  1  0.509900  0.276800  0.499700  1.0
  C  C2052  1  0.973200  0.259900  0.249700  1.0
  C  C2053  1  0.526800  0.740100  0.749700  1.0
  C  C2054  1  0.490100  0.223200  0.499700  1.0
  C  C2055  1  0.026800  0.240100  0.249700  1.0
  C  C2056  1  0.990100  0.723200  0.999700  1.0
  C  C2057  1  0.976200  0.150900  0.954500  1.0
  C  C2058  1  0.599100  0.226200  0.204500  1.0
  C  C2059  1  0.476200  0.650900  0.454500  1.0
  C  C2060  1  0.099100  0.726200  0.704500  1.0
  C  C2061  1  0.400900  0.273800  0.204500  1.0
  C  C2062  1  0.523800  0.849100  0.454500  1.0
  C  C2063  1  0.900900  0.773800  0.704500  1.0
  C  C2064  1  0.023800  0.349100  0.954500  1.0
  C  C2065  1  0.023800  0.849100  0.045500  1.0
  C  C2066  1  0.400900  0.773800  0.795500  1.0
  C  C2067  1  0.523800  0.349100  0.545500  1.0
  C  C2068  1  0.900900  0.273800  0.295500  1.0
  C  C2069  1  0.599100  0.726200  0.795500  1.0
  C  C2070  1  0.476200  0.150900  0.545500  1.0
  C  C2071  1  0.099100  0.226200  0.295500  1.0
  C  C2072  1  0.976200  0.650900  0.045500  1.0
  C  C2073  1  0.062100  0.180700  0.964300  1.0
  C  C2074  1  0.569300  0.312100  0.214300  1.0
  C  C2075  1  0.562100  0.680700  0.464300  1.0
  C  C2076  1  0.069300  0.812100  0.714300  1.0
  C  C2077  1  0.430700  0.187900  0.214300  1.0
  C  C2078  1  0.437900  0.819300  0.464300  1.0
  C  C2079  1  0.930700  0.687900  0.714300  1.0
  C  C2080  1  0.937900  0.319300  0.964300  1.0
  C  C2081  1  0.937900  0.819300  0.035700  1.0
  C  C2082  1  0.430700  0.687900  0.785700  1.0
  C  C2083  1  0.437900  0.319300  0.535700  1.0
  C  C2084  1  0.930700  0.187900  0.285700  1.0
  C  C2085  1  0.569300  0.812100  0.785700  1.0
  C  C2086  1  0.562100  0.180700  0.535700  1.0
  C  C2087  1  0.069300  0.312100  0.285700  1.0
  C  C2088  1  0.062100  0.680700  0.035700  1.0
  C  C2089  1  0.615700  0.420000  0.609900  1.0
  C  C2090  1  0.330000  0.865700  0.859900  1.0
  C  C2091  1  0.115700  0.920000  0.109900  1.0
  C  C2092  1  0.830000  0.365700  0.359900  1.0
  C  C2093  1  0.670000  0.634300  0.859900  1.0
  C  C2094  1  0.884300  0.580000  0.109900  1.0
  C  C2095  1  0.170000  0.134300  0.359900  1.0
  C  C2096  1  0.384300  0.080000  0.609900  1.0
  C  C2097  1  0.384300  0.580000  0.390100  1.0
  C  C2098  1  0.670000  0.134300  0.140100  1.0
  C  C2099  1  0.884300  0.080000  0.890100  1.0
  C  C2100  1  0.170000  0.634300  0.640100  1.0
  C  C2101  1  0.330000  0.365700  0.140100  1.0
  C  C2102  1  0.115700  0.420000  0.890100  1.0
  C  C2103  1  0.830000  0.865700  0.640100  1.0
  C  C2104  1  0.615700  0.920000  0.390100  1.0
  C  C2105  1  0.653700  0.459800  0.550500  1.0
  C  C2106  1  0.290200  0.903700  0.800500  1.0
  C  C2107  1  0.153700  0.959800  0.050500  1.0
  C  C2108  1  0.790200  0.403700  0.300500  1.0
  C  C2109  1  0.709800  0.596300  0.800500  1.0
  C  C2110  1  0.846300  0.540200  0.050500  1.0
  C  C2111  1  0.209800  0.096300  0.300500  1.0
  C  C2112  1  0.346300  0.040200  0.550500  1.0
  C  C2113  1  0.346300  0.540200  0.449500  1.0
  C  C2114  1  0.709800  0.096300  0.199500  1.0
  C  C2115  1  0.846300  0.040200  0.949500  1.0
  C  C2116  1  0.209800  0.596300  0.699500  1.0
  C  C2117  1  0.290200  0.403700  0.199500  1.0
  C  C2118  1  0.153700  0.459800  0.949500  1.0
  C  C2119  1  0.790200  0.903700  0.699500  1.0
  C  C2120  1  0.653700  0.959800  0.449500  1.0
  C  C2121  1  0.624600  0.511100  0.608200  1.0
  C  C2122  1  0.238900  0.874600  0.858200  1.0
  C  C2123  1  0.124600  0.011100  0.108200  1.0
  C  C2124  1  0.738900  0.374600  0.358200  1.0
  C  C2125  1  0.761100  0.625400  0.858200  1.0
  C  C2126  1  0.875400  0.488900  0.108200  1.0
  C  C2127  1  0.261100  0.125400  0.358200  1.0
  C  C2128  1  0.375400  0.988900  0.608200  1.0
  C  C2129  1  0.375400  0.488900  0.391800  1.0
  C  C2130  1  0.761100  0.125400  0.141800  1.0
  C  C2131  1  0.875400  0.988900  0.891800  1.0
  C  C2132  1  0.261100  0.625400  0.641800  1.0
  C  C2133  1  0.238900  0.374600  0.141800  1.0
  C  C2134  1  0.124600  0.511100  0.891800  1.0
  C  C2135  1  0.738900  0.874600  0.641800  1.0
  C  C2136  1  0.624600  0.011100  0.391800  1.0
  C  C2137  1  0.638700  0.530000  0.644700  1.0
  C  C2138  1  0.220000  0.888700  0.894700  1.0
  C  C2139  1  0.138700  0.030000  0.144700  1.0
  C  C2140  1  0.720000  0.388700  0.394700  1.0
  C  C2141  1  0.780000  0.611300  0.894700  1.0
  C  C2142  1  0.861300  0.470000  0.144700  1.0
  C  C2143  1  0.280000  0.111300  0.394700  1.0
  C  C2144  1  0.361300  0.970000  0.644700  1.0
  C  C2145  1  0.361300  0.470000  0.355300  1.0
  C  C2146  1  0.780000  0.111300  0.105300  1.0
  C  C2147  1  0.861300  0.970000  0.855300  1.0
  C  C2148  1  0.280000  0.611300  0.605300  1.0
  C  C2149  1  0.220000  0.388700  0.105300  1.0
  C  C2150  1  0.138700  0.530000  0.855300  1.0
  C  C2151  1  0.720000  0.888700  0.605300  1.0
  C  C2152  1  0.638700  0.030000  0.355300  1.0
  C  C2153  1  0.721700  0.568200  0.645600  1.0
  C  C2154  1  0.181800  0.971700  0.895600  1.0
  C  C2155  1  0.221700  0.068200  0.145600  1.0
  C  C2156  1  0.681800  0.471700  0.395600  1.0
  C  C2157  1  0.818200  0.528300  0.895600  1.0
  C  C2158  1  0.778300  0.431800  0.145600  1.0
  C  C2159  1  0.318200  0.028300  0.395600  1.0
  C  C2160  1  0.278300  0.931800  0.645600  1.0
  C  C2161  1  0.278300  0.431800  0.354400  1.0
  C  C2162  1  0.818200  0.028300  0.104400  1.0
  C  C2163  1  0.778300  0.931800  0.854400  1.0
  C  C2164  1  0.318200  0.528300  0.604400  1.0
  C  C2165  1  0.181800  0.471700  0.104400  1.0
  C  C2166  1  0.221700  0.568200  0.854400  1.0
  C  C2167  1  0.681800  0.971700  0.604400  1.0
  C  C2168  1  0.721700  0.068200  0.354400  1.0
  C  C2169  1  0.692300  0.517900  0.703100  1.0
  C  C2170  1  0.232100  0.942300  0.953100  1.0
  C  C2171  1  0.192300  0.017900  0.203100  1.0
  C  C2172  1  0.732100  0.442300  0.453100  1.0
  C  C2173  1  0.767900  0.557700  0.953100  1.0
  C  C2174  1  0.807700  0.482100  0.203100  1.0
  C  C2175  1  0.267900  0.057700  0.453100  1.0
  C  C2176  1  0.307700  0.982100  0.703100  1.0
  C  C2177  1  0.307700  0.482100  0.296900  1.0
  C  C2178  1  0.767900  0.057700  0.046900  1.0
  C  C2179  1  0.807700  0.982100  0.796900  1.0
  C  C2180  1  0.267900  0.557700  0.546900  1.0
  C  C2181  1  0.232100  0.442300  0.046900  1.0
  C  C2182  1  0.192300  0.517900  0.796900  1.0
  C  C2183  1  0.732100  0.942300  0.546900  1.0
  C  C2184  1  0.692300  0.017900  0.296900  1.0
  N  N2185  1  0.322900  0.976000  0.301000  1
  N  N2186  1  0.774000  0.572900  0.551000  1
  N  N2187  1  0.822900  0.476000  0.801000  1
  N  N2188  1  0.274000  0.072900  0.051000  1
  N  N2189  1  0.226000  0.927100  0.551000  1
  N  N2190  1  0.177100  0.024000  0.801000  1
  N  N2191  1  0.726000  0.427100  0.051000  1
  N  N2192  1  0.677100  0.524000  0.301000  1
  N  N2193  1  0.677100  0.024000  0.699000  1
  N  N2194  1  0.226000  0.427100  0.449000  1
  N  N2195  1  0.177100  0.524000  0.199000  1
  N  N2196  1  0.726000  0.927100  0.949000  1
  N  N2197  1  0.774000  0.072900  0.449000  1
  N  N2198  1  0.822900  0.976000  0.199000  1
  N  N2199  1  0.274000  0.572900  0.949000  1
  N  N2200  1  0.322900  0.476000  0.699000  1
  N  N2201  1  0.544300  0.063400  0.251700  1
  N  N2202  1  0.686600  0.794300  0.501700  1
  N  N2203  1  0.044300  0.563400  0.751700  1
  N  N2204  1  0.186600  0.294300  0.001700  1
  N  N2205  1  0.313400  0.705700  0.501700  1
  N  N2206  1  0.955700  0.936600  0.751700  1
  N  N2207  1  0.813400  0.205700  0.001700  1
  N  N2208  1  0.455700  0.436600  0.251700  1
  N  N2209  1  0.455700  0.936600  0.748300  1
  N  N2210  1  0.313400  0.205700  0.498300  1
  N  N2211  1  0.955700  0.436600  0.248300  1
  N  N2212  1  0.813400  0.705700  0.998300  1
  N  N2213  1  0.686600  0.294300  0.498300  1
  N  N2214  1  0.044300  0.063400  0.248300  1
  N  N2215  1  0.186600  0.794300  0.998300  1
  N  N2216  1  0.544300  0.563400  0.748300  1
  N  N2217  1  0.578600  0.106200  0.257500  1
  N  N2218  1  0.643800  0.828600  0.507500  1
  N  N2219  1  0.078600  0.606200  0.757500  1
  N  N2220  1  0.143800  0.328600  0.007500  1
  N  N2221  1  0.356200  0.671400  0.507500  1
  N  N2222  1  0.921400  0.893800  0.757500  1
  N  N2223  1  0.856200  0.171400  0.007500  1
  N  N2224  1  0.421400  0.393800  0.257500  1
  N  N2225  1  0.421400  0.893800  0.742500  1
  N  N2226  1  0.356200  0.171400  0.492500  1
  N  N2227  1  0.921400  0.393800  0.242500  1
  N  N2228  1  0.856200  0.671400  0.992500  1
  N  N2229  1  0.643800  0.328600  0.492500  1
  N  N2230  1  0.078600  0.106200  0.242500  1
  N  N2231  1  0.143800  0.828600  0.992500  1
  N  N2232  1  0.578600  0.606200  0.742500  1
  N  N2233  1  0.945100  0.301400  0.626800  1.0
  N  N2234  1  0.448600  0.195100  0.876800  1.0
  N  N2235  1  0.445100  0.801400  0.126800  1.0
  N  N2236  1  0.948600  0.695100  0.376800  1.0
  N  N2237  1  0.551400  0.304900  0.876800  1.0
  N  N2238  1  0.554900  0.698600  0.126800  1.0
  N  N2239  1  0.051400  0.804900  0.376800  1.0
  N  N2240  1  0.054900  0.198600  0.626800  1.0
  N  N2241  1  0.054900  0.698600  0.373200  1.0
  N  N2242  1  0.551400  0.804900  0.123200  1.0
  N  N2243  1  0.554900  0.198600  0.873200  1.0
  N  N2244  1  0.051400  0.304900  0.623200  1.0
  N  N2245  1  0.448600  0.695100  0.123200  1.0
  N  N2246  1  0.445100  0.301400  0.873200  1.0
  N  N2247  1  0.948600  0.195100  0.623200  1.0
  N  N2248  1  0.945100  0.801400  0.373200  1.0
  N  N2249  1  0.740900  0.397300  0.595490  1.0
  N  N2250  1  0.352700  0.990900  0.845490  1.0
  N  N2251  1  0.240900  0.897300  0.095490  1.0
  N  N2252  1  0.852700  0.490900  0.345490  1.0
  N  N2253  1  0.647300  0.509100  0.845490  1.0
  N  N2254  1  0.759100  0.602700  0.095490  1.0
  N  N2255  1  0.147300  0.009100  0.345490  1.0
  N  N2256  1  0.259100  0.102700  0.595490  1.0
  N  N2257  1  0.259100  0.602700  0.404510  1.0
  N  N2258  1  0.647300  0.009100  0.154510  1.0
  N  N2259  1  0.759100  0.102700  0.904510  1.0
  N  N2260  1  0.147300  0.509100  0.654510  1.0
  N  N2261  1  0.352700  0.490900  0.154510  1.0
  N  N2262  1  0.240900  0.397300  0.904510  1.0
  N  N2263  1  0.852700  0.990900  0.654510  1.0
  N  N2264  1  0.740900  0.897300  0.404510  1.0
  N  N2265  1  0.992700  0.301600  0.867580  1.0
  N  N2266  1  0.448400  0.242700  0.117580  1.0
  N  N2267  1  0.492700  0.801600  0.367580  1.0
  N  N2268  1  0.948400  0.742700  0.617580  1.0
  N  N2269  1  0.551600  0.257300  0.117580  1.0
  N  N2270  1  0.507300  0.698400  0.367580  1.0
  N  N2271  1  0.051600  0.757300  0.617580  1.0
  N  N2272  1  0.007300  0.198400  0.867580  1.0
  N  N2273  1  0.007300  0.698400  0.132420  1.0
  N  N2274  1  0.551600  0.757300  0.882420  1.0
  N  N2275  1  0.507300  0.198400  0.632420  1.0
  N  N2276  1  0.051600  0.257300  0.382420  1.0
  N  N2277  1  0.448400  0.742700  0.882420  1.0
  N  N2278  1  0.492700  0.301600  0.632420  1.0
  N  N2279  1  0.948400  0.242700  0.382420  1.0
  N  N2280  1  0.992700  0.801600  0.132420  1.0
  N  N2281  1  0.785290  0.457700  0.656560  1.0
  N  N2282  1  0.292300  0.035290  0.906560  1.0
  N  N2283  1  0.285290  0.957700  0.156560  1.0
  N  N2284  1  0.792300  0.535290  0.406560  1.0
  N  N2285  1  0.707700  0.464710  0.906560  1.0
  N  N2286  1  0.714710  0.542300  0.156560  1.0
  N  N2287  1  0.207700  0.964710  0.406560  1.0
  N  N2288  1  0.214710  0.042300  0.656560  1.0
  N  N2289  1  0.214710  0.542300  0.343440  1.0
  N  N2290  1  0.707700  0.964710  0.093440  1.0
  N  N2291  1  0.714710  0.042300  0.843440  1.0
  N  N2292  1  0.207700  0.464710  0.593440  1.0
  N  N2293  1  0.292300  0.535290  0.093440  1.0
  N  N2294  1  0.285290  0.457700  0.843440  1.0
  N  N2295  1  0.792300  0.035290  0.593440  1.0
  N  N2296  1  0.785290  0.957700  0.343440  1.0
  N  N2297  1  0.932600  0.405900  0.745930  1.0
  N  N2298  1  0.344100  0.182600  0.995930  1.0
  N  N2299  1  0.432600  0.905900  0.245930  1.0
  N  N2300  1  0.844100  0.682600  0.495930  1.0
  N  N2301  1  0.655900  0.317400  0.995930  1.0
  N  N2302  1  0.567400  0.594100  0.245930  1.0
  N  N2303  1  0.155900  0.817400  0.495930  1.0
  N  N2304  1  0.067400  0.094100  0.745930  1.0
  N  N2305  1  0.067400  0.594100  0.254070  1.0
  N  N2306  1  0.655900  0.817400  0.004070  1.0
  N  N2307  1  0.567400  0.094100  0.754070  1.0
  N  N2308  1  0.155900  0.317400  0.504070  1.0
  N  N2309  1  0.344100  0.682600  0.004070  1.0
  N  N2310  1  0.432600  0.405900  0.754070  1.0
  N  N2311  1  0.844100  0.182600  0.504070  1.0
  N  N2312  1  0.932600  0.905900  0.254070  1.0
  N  N2313  1  0.832300  0.271970  0.504790  1.0
  N  N2314  1  0.478030  0.082300  0.754790  1.0
  N  N2315  1  0.332300  0.771970  0.004790  1.0
  N  N2316  1  0.978030  0.582300  0.254790  1.0
  N  N2317  1  0.521970  0.417700  0.754790  1.0
  N  N2318  1  0.667700  0.728030  0.004790  1.0
  N  N2319  1  0.021970  0.917700  0.254790  1.0
  N  N2320  1  0.167700  0.228030  0.504790  1.0
  N  N2321  1  0.167700  0.728030  0.495210  1.0
  N  N2322  1  0.521970  0.917700  0.245210  1.0
  N  N2323  1  0.667700  0.228030  0.995210  1.0
  N  N2324  1  0.021970  0.417700  0.745210  1.0
  N  N2325  1  0.478030  0.582300  0.245210  1.0
  N  N2326  1  0.332300  0.271970  0.995210  1.0
  N  N2327  1  0.978030  0.082300  0.745210  1.0
  N  N2328  1  0.832300  0.771970  0.495210  1.0
  N  N2329  1  0.794100  0.220790  0.557110  1.0
  N  N2330  1  0.529210  0.044100  0.807110  1.0
  N  N2331  1  0.294100  0.720790  0.057110  1.0
  N  N2332  1  0.029210  0.544100  0.307110  1.0
  N  N2333  1  0.470790  0.455900  0.807110  1.0
  N  N2334  1  0.705900  0.779210  0.057110  1.0
  N  N2335  1  0.970790  0.955900  0.307110  1.0
  N  N2336  1  0.205900  0.279210  0.557110  1.0
  N  N2337  1  0.205900  0.779210  0.442890  1.0
  N  N2338  1  0.470790  0.955900  0.192890  1.0
  N  N2339  1  0.705900  0.279210  0.942890  1.0
  N  N2340  1  0.970790  0.455900  0.692890  1.0
  N  N2341  1  0.529210  0.544100  0.192890  1.0
  N  N2342  1  0.294100  0.220790  0.942890  1.0
  N  N2343  1  0.029210  0.044100  0.692890  1.0
  N  N2344  1  0.794100  0.720790  0.442890  1.0
  N  N2345  1  0.008000  0.197300  0.961240  1.0
  N  N2346  1  0.552700  0.258000  0.211240  1.0
  N  N2347  1  0.508000  0.697300  0.461240  1.0
  N  N2348  1  0.052700  0.758000  0.711240  1.0
  N  N2349  1  0.447300  0.242000  0.211240  1.0
  N  N2350  1  0.492000  0.802700  0.461240  1.0
  N  N2351  1  0.947300  0.742000  0.711240  1.0
  N  N2352  1  0.992000  0.302700  0.961240  1.0
  N  N2353  1  0.992000  0.802700  0.038760  1.0
  N  N2354  1  0.447300  0.742000  0.788760  1.0
  N  N2355  1  0.492000  0.302700  0.538760  1.0
  N  N2356  1  0.947300  0.242000  0.288760  1.0
  N  N2357  1  0.552700  0.758000  0.788760  1.0
  N  N2358  1  0.508000  0.197300  0.538760  1.0
  N  N2359  1  0.052700  0.258000  0.288760  1.0
  N  N2360  1  0.008000  0.697300  0.038760  1.0
  N  N2361  1  0.647900  0.462300  0.597170  1.0
  N  N2362  1  0.287700  0.897900  0.847170  1.0
  N  N2363  1  0.147900  0.962300  0.097170  1.0
  N  N2364  1  0.787700  0.397900  0.347170  1.0
  N  N2365  1  0.712300  0.602100  0.847170  1.0
  N  N2366  1  0.852100  0.537700  0.097170  1.0
  N  N2367  1  0.212300  0.102100  0.347170  1.0
  N  N2368  1  0.352100  0.037700  0.597170  1.0
  N  N2369  1  0.352100  0.537700  0.402830  1.0
  N  N2370  1  0.712300  0.102100  0.152830  1.0
  N  N2371  1  0.852100  0.037700  0.902830  1.0
  N  N2372  1  0.212300  0.602100  0.652830  1.0
  N  N2373  1  0.287700  0.397900  0.152830  1.0
  N  N2374  1  0.147900  0.462300  0.902830  1.0
  N  N2375  1  0.787700  0.897900  0.652830  1.0
  N  N2376  1  0.647900  0.962300  0.402830  1.0
  N  N2377  1  0.692700  0.524100  0.658190  1.0
  N  N2378  1  0.225900  0.942700  0.908190  1.0
  N  N2379  1  0.192700  0.024100  0.158190  1.0
  N  N2380  1  0.725900  0.442700  0.408190  1.0
  N  N2381  1  0.774100  0.557300  0.908190  1.0
  N  N2382  1  0.807300  0.475900  0.158190  1.0
  N  N2383  1  0.274100  0.057300  0.408190  1.0
  N  N2384  1  0.307300  0.975900  0.658190  1.0
  N  N2385  1  0.307300  0.475900  0.341810  1.0
  N  N2386  1  0.774100  0.057300  0.091810  1.0
  N  N2387  1  0.807300  0.975900  0.841810  1.0
  N  N2388  1  0.274100  0.557300  0.591810  1.0
  N  N2389  1  0.225900  0.442700  0.091810  1.0
  N  N2390  1  0.192700  0.524100  0.841810  1.0
  N  N2391  1  0.725900  0.942700  0.591810  1.0
  N  N2392  1  0.692700  0.024100  0.341810  1.0
  O  O2393  1  0.275400  0.984800  0.297900  1
  O  O2394  1  0.765200  0.525400  0.547900  1
  O  O2395  1  0.775400  0.484800  0.797900  1
  O  O2396  1  0.265200  0.025400  0.047900  1
  O  O2397  1  0.234800  0.974600  0.547900  1
  O  O2398  1  0.224600  0.015200  0.797900  1
  O  O2399  1  0.734800  0.474600  0.047900  1
  O  O2400  1  0.724600  0.515200  0.297900  1
  O  O2401  1  0.724600  0.015200  0.702100  1
  O  O2402  1  0.234800  0.474600  0.452100  1
  O  O2403  1  0.224600  0.515200  0.202100  1
  O  O2404  1  0.734800  0.974600  0.952100  1
  O  O2405  1  0.765200  0.025400  0.452100  1
  O  O2406  1  0.775400  0.984800  0.202100  1
  O  O2407  1  0.265200  0.525400  0.952100  1
  O  O2408  1  0.275400  0.484800  0.702100  1
  O  O2409  1  0.334900  0.934500  0.318900  1
  O  O2410  1  0.815500  0.584900  0.568900  1
  O  O2411  1  0.834900  0.434500  0.818900  1
  O  O2412  1  0.315500  0.084900  0.068900  1
  O  O2413  1  0.184500  0.915100  0.568900  1
  O  O2414  1  0.165100  0.065500  0.818900  1
  O  O2415  1  0.684500  0.415100  0.068900  1
  O  O2416  1  0.665100  0.565500  0.318900  1
  O  O2417  1  0.665100  0.065500  0.681100  1
  O  O2418  1  0.184500  0.415100  0.431100  1
  O  O2419  1  0.165100  0.565500  0.181100  1
  O  O2420  1  0.684500  0.915100  0.931100  1
  O  O2421  1  0.815500  0.084900  0.431100  1
  O  O2422  1  0.834900  0.934500  0.181100  1
  O  O2423  1  0.315500  0.584900  0.931100  1
  O  O2424  1  0.334900  0.434500  0.681100  1
  O  O2425  1  0.360500  0.003500  0.288300  1
  O  O2426  1  0.746500  0.610500  0.538300  1
  O  O2427  1  0.860500  0.503500  0.788300  1
  O  O2428  1  0.246500  0.110500  0.038300  1
  O  O2429  1  0.253500  0.889500  0.538300  1
  O  O2430  1  0.139500  0.996500  0.788300  1
  O  O2431  1  0.753500  0.389500  0.038300  1
  O  O2432  1  0.639500  0.496500  0.288300  1
  O  O2433  1  0.639500  0.996500  0.711700  1
  O  O2434  1  0.253500  0.389500  0.461700  1
  O  O2435  1  0.139500  0.496500  0.211700  1
  O  O2436  1  0.753500  0.889500  0.961700  1
  O  O2437  1  0.746500  0.110500  0.461700  1
  O  O2438  1  0.860500  0.003500  0.211700  1
  O  O2439  1  0.246500  0.610500  0.961700  1
  O  O2440  1  0.360500  0.503500  0.711700  1
  O  O2441  1  0.309000  0.867000  0.320000  1
  O  O2442  1  0.883000  0.559000  0.570000  1
  O  O2443  1  0.809000  0.367000  0.820000  1
  O  O2444  1  0.383000  0.059000  0.070000  1
  O  O2445  1  0.117000  0.941000  0.570000  1
  O  O2446  1  0.191000  0.133000  0.820000  1
  O  O2447  1  0.617000  0.441000  0.070000  1
  O  O2448  1  0.691000  0.633000  0.320000  1
  O  O2449  1  0.691000  0.133000  0.680000  1
  O  O2450  1  0.117000  0.441000  0.430000  1
  O  O2451  1  0.191000  0.633000  0.180000  1
  O  O2452  1  0.617000  0.941000  0.930000  1
  O  O2453  1  0.883000  0.059000  0.430000  1
  O  O2454  1  0.809000  0.867000  0.180000  1
  O  O2455  1  0.383000  0.559000  0.930000  1
  O  O2456  1  0.309000  0.367000  0.680000  1
  O  O2457  1  0.553500  0.044000  0.287300  1
  O  O2458  1  0.706000  0.803500  0.537300  1
  O  O2459  1  0.053500  0.544000  0.787300  1
  O  O2460  1  0.206000  0.303500  0.037300  1
  O  O2461  1  0.294000  0.696500  0.537300  1
  O  O2462  1  0.946500  0.956000  0.787300  1
  O  O2463  1  0.794000  0.196500  0.037300  1
  O  O2464  1  0.446500  0.456000  0.287300  1
  O  O2465  1  0.446500  0.956000  0.712700  1
  O  O2466  1  0.294000  0.196500  0.462700  1
  O  O2467  1  0.946500  0.456000  0.212700  1
  O  O2468  1  0.794000  0.696500  0.962700  1
  O  O2469  1  0.706000  0.303500  0.462700  1
  O  O2470  1  0.053500  0.044000  0.212700  1
  O  O2471  1  0.206000  0.803500  0.962700  1
  O  O2472  1  0.553500  0.544000  0.712700  1
  O  O2473  1  0.498800  0.054000  0.240200  1
  O  O2474  1  0.696000  0.748800  0.490200  1
  O  O2475  1  0.998800  0.554000  0.740200  1
  O  O2476  1  0.196000  0.248800  0.990200  1
  O  O2477  1  0.304000  0.751200  0.490200  1
  O  O2478  1  0.001200  0.946000  0.740200  1
  O  O2479  1  0.804000  0.251200  0.990200  1
  O  O2480  1  0.501200  0.446000  0.240200  1
  O  O2481  1  0.501200  0.946000  0.759800  1
  O  O2482  1  0.304000  0.251200  0.509800  1
  O  O2483  1  0.001200  0.446000  0.259800  1
  O  O2484  1  0.804000  0.751200  0.009800  1
  O  O2485  1  0.696000  0.248800  0.509800  1
  O  O2486  1  0.998800  0.054000  0.259800  1
  O  O2487  1  0.196000  0.748800  0.009800  1
  O  O2488  1  0.498800  0.554000  0.759800  1
  O  O2489  1  0.573600  0.088900  0.226300  1
  O  O2490  1  0.661100  0.823600  0.476300  1
  O  O2491  1  0.073600  0.588900  0.726300  1
  O  O2492  1  0.161100  0.323600  0.976300  1
  O  O2493  1  0.338900  0.676400  0.476300  1
  O  O2494  1  0.926400  0.911100  0.726300  1
  O  O2495  1  0.838900  0.176400  0.976300  1
  O  O2496  1  0.426400  0.411100  0.226300  1
  O  O2497  1  0.426400  0.911100  0.773700  1
  O  O2498  1  0.338900  0.176400  0.523700  1
  O  O2499  1  0.926400  0.411100  0.273700  1
  O  O2500  1  0.838900  0.676400  0.023700  1
  O  O2501  1  0.661100  0.323600  0.523700  1
  O  O2502  1  0.073600  0.088900  0.273700  1
  O  O2503  1  0.161100  0.823600  0.023700  1
  O  O2504  1  0.573600  0.588900  0.773700  1
  O  O2505  1  0.610800  0.173000  0.339900  1
  O  O2506  1  0.577000  0.860800  0.589900  1
  O  O2507  1  0.110800  0.673000  0.839900  1
  O  O2508  1  0.077000  0.360800  0.089900  1
  O  O2509  1  0.423000  0.639200  0.589900  1
  O  O2510  1  0.889200  0.827000  0.839900  1
  O  O2511  1  0.923000  0.139200  0.089900  1
  O  O2512  1  0.389200  0.327000  0.339900  1
  O  O2513  1  0.389200  0.827000  0.660100  1
  O  O2514  1  0.423000  0.139200  0.410100  1
  O  O2515  1  0.889200  0.327000  0.160100  1
  O  O2516  1  0.923000  0.639200  0.910100  1
  O  O2517  1  0.577000  0.360800  0.410100  1
  O  O2518  1  0.110800  0.173000  0.160100  1
  O  O2519  1  0.077000  0.860800  0.910100  1
  O  O2520  1  0.610800  0.673000  0.660100  1
  O  O2521  1  0.476300  0.940100  0.394600  1
  O  O2522  1  0.809900  0.726300  0.644600  1
  O  O2523  1  0.976300  0.440100  0.894600  1
  O  O2524  1  0.309900  0.226300  0.144600  1
  O  O2525  1  0.190100  0.773700  0.644600  1
  O  O2526  1  0.023700  0.059900  0.894600  1
  O  O2527  1  0.690100  0.273700  0.144600  1
  O  O2528  1  0.523700  0.559900  0.394600  1
  O  O2529  1  0.523700  0.059900  0.605400  1
  O  O2530  1  0.190100  0.273700  0.355400  1
  O  O2531  1  0.023700  0.559900  0.105400  1
  O  O2532  1  0.690100  0.773700  0.855400  1
  O  O2533  1  0.809900  0.226300  0.355400  1
  O  O2534  1  0.976300  0.940100  0.105400  1
  O  O2535  1  0.309900  0.726300  0.855400  1
  O  O2536  1  0.476300  0.440100  0.605400  1
  O  O2537  1  0.363800  0.912000  0.954300  1
  O  O2538  1  0.838000  0.613800  0.204300  1
  O  O2539  1  0.863800  0.412000  0.454300  1
  O  O2540  1  0.338000  0.113800  0.704300  1
  O  O2541  1  0.162000  0.886200  0.204300  1
  O  O2542  1  0.136200  0.088000  0.454300  1
  O  O2543  1  0.662000  0.386200  0.704300  1
  O  O2544  1  0.636200  0.588000  0.954300  1
  O  O2545  1  0.636200  0.088000  0.045700  1
  O  O2546  1  0.162000  0.386200  0.795700  1
  O  O2547  1  0.136200  0.588000  0.545700  1
  O  O2548  1  0.662000  0.886200  0.295700  1
  O  O2549  1  0.838000  0.113800  0.795700  1
  O  O2550  1  0.863800  0.912000  0.545700  1
  O  O2551  1  0.338000  0.613800  0.295700  1
  O  O2552  1  0.363800  0.412000  0.045700  1
  O  O2553  1  0.423800  0.961800  0.971500  1
  O  O2554  1  0.788200  0.673800  0.221500  1
  O  O2555  1  0.923800  0.461800  0.471500  1
  O  O2556  1  0.288200  0.173800  0.721500  1
  O  O2557  1  0.211800  0.826200  0.221500  1
  O  O2558  1  0.076200  0.038200  0.471500  1
  O  O2559  1  0.711800  0.326200  0.721500  1
  O  O2560  1  0.576200  0.538200  0.971500  1
  O  O2561  1  0.576200  0.038200  0.028500  1
  O  O2562  1  0.211800  0.326200  0.778500  1
  O  O2563  1  0.076200  0.538200  0.528500  1
  O  O2564  1  0.711800  0.826200  0.278500  1
  O  O2565  1  0.788200  0.173800  0.778500  1
  O  O2566  1  0.923800  0.961800  0.528500  1
  O  O2567  1  0.288200  0.673800  0.278500  1
  O  O2568  1  0.423800  0.461800  0.028500  1
  O  O2569  1  0.900000  0.071000  0.272000  1
  O  O2570  1  0.679000  0.150000  0.522000  1
  O  O2571  1  0.400000  0.571000  0.772000  1
  O  O2572  1  0.179000  0.650000  0.022000  1
  O  O2573  1  0.321000  0.350000  0.522000  1
  O  O2574  1  0.600000  0.929000  0.772000  1
  O  O2575  1  0.821000  0.850000  0.022000  1
  O  O2576  1  0.100000  0.429000  0.272000  1
  O  O2577  1  0.100000  0.929000  0.728000  1
  O  O2578  1  0.321000  0.850000  0.478000  1
  O  O2579  1  0.600000  0.429000  0.228000  1
  O  O2580  1  0.821000  0.350000  0.978000  1
  O  O2581  1  0.679000  0.650000  0.478000  1
  O  O2582  1  0.400000  0.071000  0.228000  1
  O  O2583  1  0.179000  0.150000  0.978000  1
  O  O2584  1  0.900000  0.571000  0.728000  1
  O  O2585  1  0.819200  0.080800  0.288400  1
  O  O2586  1  0.669200  0.069200  0.538400  1
  O  O2587  1  0.319200  0.580800  0.788400  1
  O  O2588  1  0.169200  0.569200  0.038400  1
  O  O2589  1  0.330800  0.430800  0.538400  1
  O  O2590  1  0.680800  0.919200  0.788400  1
  O  O2591  1  0.830800  0.930800  0.038400  1
  O  O2592  1  0.180800  0.419200  0.288400  1
  O  O2593  1  0.180800  0.919200  0.711600  1
  O  O2594  1  0.330800  0.930800  0.461600  1
  O  O2595  1  0.680800  0.419200  0.211600  1
  O  O2596  1  0.830800  0.430800  0.961600  1
  O  O2597  1  0.669200  0.569200  0.461600  1
  O  O2598  1  0.319200  0.080800  0.211600  1
  O  O2599  1  0.169200  0.069200  0.961600  1
  O  O2600  1  0.819200  0.580800  0.711600  1
  O  O2601  1  0.775500  0.174300  0.283600  1
  O  O2602  1  0.575700  0.025500  0.533600  1
  O  O2603  1  0.275500  0.674300  0.783600  1
  O  O2604  1  0.075700  0.525500  0.033600  1
  O  O2605  1  0.424300  0.474500  0.533600  1
  O  O2606  1  0.724500  0.825700  0.783600  1
  O  O2607  1  0.924300  0.974500  0.033600  1
  O  O2608  1  0.224500  0.325700  0.283600  1
  O  O2609  1  0.224500  0.825700  0.716400  1
  O  O2610  1  0.424300  0.974500  0.466400  1
  O  O2611  1  0.724500  0.325700  0.216400  1
  O  O2612  1  0.924300  0.474500  0.966400  1
  O  O2613  1  0.575700  0.525500  0.466400  1
  O  O2614  1  0.275500  0.174300  0.216400  1
  O  O2615  1  0.075700  0.025500  0.966400  1
  O  O2616  1  0.775500  0.674300  0.716400  1
  O  O2617  1  0.500000  0.750000  0.625000  1
  O  O2618  1  0.000000  0.750000  0.875000  1
  O  O2619  1  0.000000  0.250000  0.125000  1
  O  O2620  1  0.500000  0.250000  0.375000  1
  O  O2621  1  0.320900  0.206200  0.287800  1
  O  O2622  1  0.543800  0.570900  0.537800  1
  O  O2623  1  0.820900  0.706200  0.787800  1
  O  O2624  1  0.043800  0.070900  0.037800  1
  O  O2625  1  0.456200  0.929100  0.537800  1
  O  O2626  1  0.179100  0.793800  0.787800  1
  O  O2627  1  0.956200  0.429100  0.037800  1
  O  O2628  1  0.679100  0.293800  0.287800  1
  O  O2629  1  0.679100  0.793800  0.712200  1
  O  O2630  1  0.456200  0.429100  0.462200  1
  O  O2631  1  0.179100  0.293800  0.212200  1
  O  O2632  1  0.956200  0.929100  0.962200  1
  O  O2633  1  0.543800  0.070900  0.462200  1
  O  O2634  1  0.820900  0.206200  0.212200  1
  O  O2635  1  0.043800  0.570900  0.962200  1
  O  O2636  1  0.320900  0.706200  0.712200  1
  O  O2637  1  0.510500  0.994000  0.350700  1
  O  O2638  1  0.756000  0.760500  0.600700  1
  O  O2639  1  0.010500  0.494000  0.850700  1
  O  O2640  1  0.256000  0.260500  0.100700  1
  O  O2641  1  0.244000  0.739500  0.600700  1
  O  O2642  1  0.989500  0.006000  0.850700  1
  O  O2643  1  0.744000  0.239500  0.100700  1
  O  O2644  1  0.489500  0.506000  0.350700  1
  O  O2645  1  0.489500  0.006000  0.649300  1
  O  O2646  1  0.244000  0.239500  0.399300  1
  O  O2647  1  0.989500  0.506000  0.149300  1
  O  O2648  1  0.744000  0.739500  0.899300  1
  O  O2649  1  0.756000  0.260500  0.399300  1
  O  O2650  1  0.010500  0.994000  0.149300  1
  O  O2651  1  0.256000  0.760500  0.899300  1
  O  O2652  1  0.510500  0.494000  0.649300  1
  O  O2653  1  0.952200  0.094000  0.141300  1
  O  O2654  1  0.656000  0.202200  0.391300  1
  O  O2655  1  0.452200  0.594000  0.641300  1
  O  O2656  1  0.156000  0.702200  0.891300  1
  O  O2657  1  0.344000  0.297800  0.391300  1
  O  O2658  1  0.547800  0.906000  0.641300  1
  O  O2659  1  0.844000  0.797800  0.891300  1
  O  O2660  1  0.047800  0.406000  0.141300  1
  O  O2661  1  0.047800  0.906000  0.858700  1
  O  O2662  1  0.344000  0.797800  0.608700  1
  O  O2663  1  0.547800  0.406000  0.358700  1
  O  O2664  1  0.844000  0.297800  0.108700  1
  O  O2665  1  0.656000  0.702200  0.608700  1
  O  O2666  1  0.452200  0.094000  0.358700  1
  O  O2667  1  0.156000  0.202200  0.108700  1
  O  O2668  1  0.952200  0.594000  0.858700  1
  O  O2669  1  0.496700  0.073900  0.079100  1
  O  O2670  1  0.676100  0.746700  0.329100  1
  O  O2671  1  0.996700  0.573900  0.579100  1
  O  O2672  1  0.176100  0.246700  0.829100  1
  O  O2673  1  0.323900  0.753300  0.329100  1
  O  O2674  1  0.003300  0.926100  0.579100  1
  O  O2675  1  0.823900  0.253300  0.829100  1
  O  O2676  1  0.503300  0.426100  0.079100  1
  O  O2677  1  0.503300  0.926100  0.920900  1
  O  O2678  1  0.323900  0.253300  0.670900  1
  O  O2679  1  0.003300  0.426100  0.420900  1
  O  O2680  1  0.823900  0.753300  0.170900  1
  O  O2681  1  0.676100  0.246700  0.670900  1
  O  O2682  1  0.996700  0.073900  0.420900  1
  O  O2683  1  0.176100  0.746700  0.170900  1
  O  O2684  1  0.496700  0.573900  0.920900  1
  O  O2685  1  0.339300  0.232100  0.348000  1
  O  O2686  1  0.517900  0.589300  0.598000  1
  O  O2687  1  0.839300  0.732100  0.848000  1
  O  O2688  1  0.017900  0.089300  0.098000  1
  O  O2689  1  0.482100  0.910700  0.598000  1
  O  O2690  1  0.160700  0.767900  0.848000  1
  O  O2691  1  0.982100  0.410700  0.098000  1
  O  O2692  1  0.660700  0.267900  0.348000  1
  O  O2693  1  0.660700  0.767900  0.652000  1
  O  O2694  1  0.482100  0.410700  0.402000  1
  O  O2695  1  0.160700  0.267900  0.152000  1
  O  O2696  1  0.982100  0.910700  0.902000  1
  O  O2697  1  0.517900  0.089300  0.402000  1
  O  O2698  1  0.839300  0.232100  0.152000  1
  O  O2699  1  0.017900  0.589300  0.902000  1
  O  O2700  1  0.339300  0.732100  0.652000  1
  O  O2701  1  0.042800  0.143000  0.143600  1
  O  O2702  1  0.607000  0.292800  0.393600  1
  O  O2703  1  0.542800  0.643000  0.643600  1
  O  O2704  1  0.107000  0.792800  0.893600  1
  O  O2705  1  0.393000  0.207200  0.393600  1
  O  O2706  1  0.457200  0.857000  0.643600  1
  O  O2707  1  0.893000  0.707200  0.893600  1
  O  O2708  1  0.957200  0.357000  0.143600  1
  O  O2709  1  0.957200  0.857000  0.856400  1
  O  O2710  1  0.393000  0.707200  0.606400  1
  O  O2711  1  0.457200  0.357000  0.356400  1
  O  O2712  1  0.893000  0.207200  0.106400  1
  O  O2713  1  0.607000  0.792800  0.606400  1
  O  O2714  1  0.542800  0.143000  0.356400  1
  O  O2715  1  0.107000  0.292800  0.106400  1
  O  O2716  1  0.042800  0.643000  0.856400  1
  O  O2717  1  0.698000  0.221000  0.275000  1
  O  O2718  1  0.529000  0.948000  0.525000  1
  O  O2719  1  0.198000  0.721000  0.775000  1
  O  O2720  1  0.029000  0.448000  0.025000  1
  O  O2721  1  0.471000  0.552000  0.525000  1
  O  O2722  1  0.802000  0.779000  0.775000  1
  O  O2723  1  0.971000  0.052000  0.025000  1
  O  O2724  1  0.302000  0.279000  0.275000  1
  O  O2725  1  0.302000  0.779000  0.725000  1
  O  O2726  1  0.471000  0.052000  0.475000  1
  O  O2727  1  0.802000  0.279000  0.225000  1
  O  O2728  1  0.971000  0.552000  0.975000  1
  O  O2729  1  0.529000  0.448000  0.475000  1
  O  O2730  1  0.198000  0.221000  0.225000  1
  O  O2731  1  0.029000  0.948000  0.975000  1
  O  O2732  1  0.698000  0.721000  0.725000  1
  O  O2733  1  0.386700  0.143900  0.321500  1
  O  O2734  1  0.606100  0.636700  0.571500  1
  O  O2735  1  0.886700  0.643900  0.821500  1
  O  O2736  1  0.106100  0.136700  0.071500  1
  O  O2737  1  0.393900  0.863300  0.571500  1
  O  O2738  1  0.113300  0.856100  0.821500  1
  O  O2739  1  0.893900  0.363300  0.071500  1
  O  O2740  1  0.613300  0.356100  0.321500  1
  O  O2741  1  0.613300  0.856100  0.678500  1
  O  O2742  1  0.393900  0.363300  0.428500  1
  O  O2743  1  0.113300  0.356100  0.178500  1
  O  O2744  1  0.893900  0.863300  0.928500  1
  O  O2745  1  0.606100  0.136700  0.428500  1
  O  O2746  1  0.886700  0.143900  0.178500  1
  O  O2747  1  0.106100  0.636700  0.928500  1
  O  O2748  1  0.386700  0.643900  0.678500  1
  O  O2749  1  0.436000  0.082000  0.154200  1
  O  O2750  1  0.668000  0.686000  0.404200  1
  O  O2751  1  0.936000  0.582000  0.654200  1
  O  O2752  1  0.168000  0.186000  0.904200  1
  O  O2753  1  0.332000  0.814000  0.404200  1
  O  O2754  1  0.064000  0.918000  0.654200  1
  O  O2755  1  0.832000  0.314000  0.904200  1
  O  O2756  1  0.564000  0.418000  0.154200  1
  O  O2757  1  0.564000  0.918000  0.845800  1
  O  O2758  1  0.332000  0.314000  0.595800  1
  O  O2759  1  0.064000  0.418000  0.345800  1
  O  O2760  1  0.832000  0.814000  0.095800  1
  O  O2761  1  0.668000  0.186000  0.595800  1
  O  O2762  1  0.936000  0.082000  0.345800  1
  O  O2763  1  0.168000  0.686000  0.095800  1
  O  O2764  1  0.436000  0.582000  0.845800  1
  O  O2765  1  0.256000  0.228000  0.288000  1
  O  O2766  1  0.522000  0.506000  0.538000  1
  O  O2767  1  0.756000  0.728000  0.788000  1
  O  O2768  1  0.022000  0.006000  0.038000  1
  O  O2769  1  0.478000  0.994000  0.538000  1
  O  O2770  1  0.244000  0.772000  0.788000  1
  O  O2771  1  0.978000  0.494000  0.038000  1
  O  O2772  1  0.744000  0.272000  0.288000  1
  O  O2773  1  0.744000  0.772000  0.712000  1
  O  O2774  1  0.478000  0.494000  0.462000  1
  O  O2775  1  0.244000  0.272000  0.212000  1
  O  O2776  1  0.978000  0.994000  0.962000  1
  O  O2777  1  0.522000  0.006000  0.462000  1
  O  O2778  1  0.756000  0.228000  0.212000  1
  O  O2779  1  0.022000  0.506000  0.962000  1
  O  O2780  1  0.256000  0.728000  0.712000  1
  O  O2781  1  0.661400  0.142400  0.272800  1
  O  O2782  1  0.607600  0.911400  0.522800  1
  O  O2783  1  0.161400  0.642400  0.772800  1
  O  O2784  1  0.107600  0.411400  0.022800  1
  O  O2785  1  0.392400  0.588600  0.522800  1
  O  O2786  1  0.838600  0.857600  0.772800  1
  O  O2787  1  0.892400  0.088600  0.022800  1
  O  O2788  1  0.338600  0.357600  0.272800  1
  O  O2789  1  0.338600  0.857600  0.727200  1
  O  O2790  1  0.392400  0.088600  0.477200  1
  O  O2791  1  0.838600  0.357600  0.227200  1
  O  O2792  1  0.892400  0.588600  0.977200  1
  O  O2793  1  0.607600  0.411400  0.477200  1
  O  O2794  1  0.161400  0.142400  0.227200  1
  O  O2795  1  0.107600  0.911400  0.977200  1
  O  O2796  1  0.661400  0.642400  0.727200  1
  O  O2797  1  0.359800  0.896400  0.384700  1
  O  O2798  1  0.853600  0.609800  0.634700  1
  O  O2799  1  0.859800  0.396400  0.884700  1
  O  O2800  1  0.353600  0.109800  0.134700  1
  O  O2801  1  0.146400  0.890200  0.634700  1
  O  O2802  1  0.140200  0.103600  0.884700  1
  O  O2803  1  0.646400  0.390200  0.134700  1
  O  O2804  1  0.640200  0.603600  0.384700  1
  O  O2805  1  0.640200  0.103600  0.615300  1
  O  O2806  1  0.146400  0.390200  0.365300  1
  O  O2807  1  0.140200  0.603600  0.115300  1
  O  O2808  1  0.646400  0.890200  0.865300  1
  O  O2809  1  0.853600  0.109800  0.365300  1
  O  O2810  1  0.859800  0.896400  0.115300  1
  O  O2811  1  0.353600  0.609800  0.865300  1
  O  O2812  1  0.359800  0.396400  0.615300  1
  O  O2813  1  0.248200  0.883600  0.285100  1
  O  O2814  1  0.866400  0.498200  0.535100  1
  O  O2815  1  0.748200  0.383600  0.785100  1
  O  O2816  1  0.366400  0.998200  0.035100  1
  O  O2817  1  0.133600  0.001800  0.535100  1
  O  O2818  1  0.251800  0.116400  0.785100  1
  O  O2819  1  0.633600  0.501800  0.035100  1
  O  O2820  1  0.751800  0.616400  0.285100  1
  O  O2821  1  0.751800  0.116400  0.714900  1
  O  O2822  1  0.133600  0.501800  0.464900  1
  O  O2823  1  0.251800  0.616400  0.214900  1
  O  O2824  1  0.633600  0.001800  0.964900  1
  O  O2825  1  0.866400  0.998200  0.464900  1
  O  O2826  1  0.748200  0.883600  0.214900  1
  O  O2827  1  0.366400  0.498200  0.964900  1
  O  O2828  1  0.248200  0.383600  0.714900  1
  O  O2829  1  0.783800  0.954900  0.197200  1
  O  O2830  1  0.795100  0.033800  0.447200  1
  O  O2831  1  0.283800  0.454900  0.697200  1
  O  O2832  1  0.295100  0.533800  0.947200  1
  O  O2833  1  0.204900  0.466200  0.447200  1
  O  O2834  1  0.716200  0.045100  0.697200  1
  O  O2835  1  0.704900  0.966200  0.947200  1
  O  O2836  1  0.216200  0.545100  0.197200  1
  O  O2837  1  0.216200  0.045100  0.802800  1
  O  O2838  1  0.204900  0.966200  0.552800  1
  O  O2839  1  0.716200  0.545100  0.302800  1
  O  O2840  1  0.704900  0.466200  0.052800  1
  O  O2841  1  0.795100  0.533800  0.552800  1
  O  O2842  1  0.283800  0.954900  0.302800  1
  O  O2843  1  0.295100  0.033800  0.052800  1
  O  O2844  1  0.783800  0.454900  0.802800  1
  O  O2845  1  0.448600  0.066300  0.107700  1
  O  O2846  1  0.683700  0.698600  0.357700  1
  O  O2847  1  0.948600  0.566300  0.607700  1
  O  O2848  1  0.183700  0.198600  0.857700  1
  O  O2849  1  0.316300  0.801400  0.357700  1
  O  O2850  1  0.051400  0.933700  0.607700  1
  O  O2851  1  0.816300  0.301400  0.857700  1
  O  O2852  1  0.551400  0.433700  0.107700  1
  O  O2853  1  0.551400  0.933700  0.892300  1
  O  O2854  1  0.316300  0.301400  0.642300  1
  O  O2855  1  0.051400  0.433700  0.392300  1
  O  O2856  1  0.816300  0.801400  0.142300  1
  O  O2857  1  0.683700  0.198600  0.642300  1
  O  O2858  1  0.948600  0.066300  0.392300  1
  O  O2859  1  0.183700  0.698600  0.142300  1
  O  O2860  1  0.448600  0.566300  0.892300  1
  O  O2861  1  0.786700  0.005100  0.220300  1
  O  O2862  1  0.744900  0.036700  0.470300  1
  O  O2863  1  0.286700  0.505100  0.720300  1
  O  O2864  1  0.244900  0.536700  0.970300  1
  O  O2865  1  0.255100  0.463300  0.470300  1
  O  O2866  1  0.713300  0.994900  0.720300  1
  O  O2867  1  0.755100  0.963300  0.970300  1
  O  O2868  1  0.213300  0.494900  0.220300  1
  O  O2869  1  0.213300  0.994900  0.779700  1
  O  O2870  1  0.255100  0.963300  0.529700  1
  O  O2871  1  0.713300  0.494900  0.279700  1
  O  O2872  1  0.755100  0.463300  0.029700  1
  O  O2873  1  0.744900  0.536700  0.529700  1
  O  O2874  1  0.286700  0.005100  0.279700  1
  O  O2875  1  0.244900  0.036700  0.029700  1
  O  O2876  1  0.786700  0.505100  0.779700  1
  O  O2877  1  0.867600  0.050500  0.219600  1
  O  O2878  1  0.699500  0.117600  0.469600  1
  O  O2879  1  0.367600  0.550500  0.719600  1
  O  O2880  1  0.199500  0.617600  0.969600  1
  O  O2881  1  0.300500  0.382400  0.469600  1
  O  O2882  1  0.632400  0.949500  0.719600  1
  O  O2883  1  0.800500  0.882400  0.969600  1
  O  O2884  1  0.132400  0.449500  0.219600  1
  O  O2885  1  0.132400  0.949500  0.780400  1
  O  O2886  1  0.300500  0.882400  0.530400  1
  O  O2887  1  0.632400  0.449500  0.280400  1
  O  O2888  1  0.800500  0.382400  0.030400  1
  O  O2889  1  0.699500  0.617600  0.530400  1
  O  O2890  1  0.367600  0.050500  0.280400  1
  O  O2891  1  0.199500  0.117600  0.030400  1
  O  O2892  1  0.867600  0.550500  0.780400  1
  O  O2893  1  0.534800  0.099800  0.240400  1
  O  O2894  1  0.650200  0.784800  0.490400  1
  O  O2895  1  0.034800  0.599800  0.740400  1
  O  O2896  1  0.150200  0.284800  0.990400  1
  O  O2897  1  0.349800  0.715200  0.490400  1
  O  O2898  1  0.965200  0.900200  0.740400  1
  O  O2899  1  0.849800  0.215200  0.990400  1
  O  O2900  1  0.465200  0.400200  0.240400  1
  O  O2901  1  0.465200  0.900200  0.759600  1
  O  O2902  1  0.349800  0.215200  0.509600  1
  O  O2903  1  0.965200  0.400200  0.259600  1
  O  O2904  1  0.849800  0.715200  0.009600  1
  O  O2905  1  0.650200  0.284800  0.509600  1
  O  O2906  1  0.034800  0.099800  0.259600  1
  O  O2907  1  0.150200  0.784800  0.009600  1
  O  O2908  1  0.534800  0.599800  0.759600  1
  O  O2909  1  0.612100  0.095300  0.234100  1
  O  O2910  1  0.654700  0.862100  0.484100  1
  O  O2911  1  0.112100  0.595300  0.734100  1
  O  O2912  1  0.154700  0.362100  0.984100  1
  O  O2913  1  0.345300  0.637900  0.484100  1
  O  O2914  1  0.887900  0.904700  0.734100  1
  O  O2915  1  0.845300  0.137900  0.984100  1
  O  O2916  1  0.387900  0.404700  0.234100  1
  O  O2917  1  0.387900  0.904700  0.765900  1
  O  O2918  1  0.345300  0.137900  0.515900  1
  O  O2919  1  0.887900  0.404700  0.265900  1
  O  O2920  1  0.845300  0.637900  0.015900  1
  O  O2921  1  0.654700  0.362100  0.515900  1
  O  O2922  1  0.112100  0.095300  0.265900  1
  O  O2923  1  0.154700  0.862100  0.015900  1
  O  O2924  1  0.612100  0.595300  0.765900  1
  O  O2925  1  0.583900  0.122400  0.293800  1
  O  O2926  1  0.627600  0.833900  0.543800  1
  O  O2927  1  0.083900  0.622400  0.793800  1
  O  O2928  1  0.127600  0.333900  0.043800  1
  O  O2929  1  0.372400  0.666100  0.543800  1
  O  O2930  1  0.916100  0.877600  0.793800  1
  O  O2931  1  0.872400  0.166100  0.043800  1
  O  O2932  1  0.416100  0.377600  0.293800  1
  O  O2933  1  0.416100  0.877600  0.706200  1
  O  O2934  1  0.372400  0.166100  0.456200  1
  O  O2935  1  0.916100  0.377600  0.206200  1
  O  O2936  1  0.872400  0.666100  0.956200  1
  O  O2937  1  0.627600  0.333900  0.456200  1
  O  O2938  1  0.083900  0.122400  0.206200  1
  O  O2939  1  0.127600  0.833900  0.956200  1
  O  O2940  1  0.583900  0.622400  0.706200  1
  O  O2941  1  0.612800  0.141800  0.296400  1
  O  O2942  1  0.608200  0.862800  0.546400  1
  O  O2943  1  0.112800  0.641800  0.796400  1
  O  O2944  1  0.108200  0.362800  0.046400  1
  O  O2945  1  0.391800  0.637200  0.546400  1
  O  O2946  1  0.887200  0.858200  0.796400  1
  O  O2947  1  0.891800  0.137200  0.046400  1
  O  O2948  1  0.387200  0.358200  0.296400  1
  O  O2949  1  0.387200  0.858200  0.703600  1
  O  O2950  1  0.391800  0.137200  0.453600  1
  O  O2951  1  0.887200  0.358200  0.203600  1
  O  O2952  1  0.891800  0.637200  0.953600  1
  O  O2953  1  0.608200  0.362800  0.453600  1
  O  O2954  1  0.112800  0.141800  0.203600  1
  O  O2955  1  0.108200  0.862800  0.953600  1
  O  O2956  1  0.612800  0.641800  0.703600  1
  O  O2957  1  0.434000  0.965000  0.361300  1
  O  O2958  1  0.785000  0.684000  0.611300  1
  O  O2959  1  0.934000  0.465000  0.861300  1
  O  O2960  1  0.285000  0.184000  0.111300  1
  O  O2961  1  0.215000  0.816000  0.611300  1
  O  O2962  1  0.066000  0.035000  0.861300  1
  O  O2963  1  0.715000  0.316000  0.111300  1
  O  O2964  1  0.566000  0.535000  0.361300  1
  O  O2965  1  0.566000  0.035000  0.638700  1
  O  O2966  1  0.215000  0.316000  0.388700  1
  O  O2967  1  0.066000  0.535000  0.138700  1
  O  O2968  1  0.715000  0.816000  0.888700  1
  O  O2969  1  0.785000  0.184000  0.388700  1
  O  O2970  1  0.934000  0.965000  0.138700  1
  O  O2971  1  0.285000  0.684000  0.888700  1
  O  O2972  1  0.434000  0.465000  0.638700  1
  O  O2973  1  0.448200  0.930000  0.392300  1
  O  O2974  1  0.820000  0.698200  0.642300  1
  O  O2975  1  0.948200  0.430000  0.892300  1
  O  O2976  1  0.320000  0.198200  0.142300  1
  O  O2977  1  0.180000  0.801800  0.642300  1
  O  O2978  1  0.051800  0.070000  0.892300  1
  O  O2979  1  0.680000  0.301800  0.142300  1
  O  O2980  1  0.551800  0.570000  0.392300  1
  O  O2981  1  0.551800  0.070000  0.607700  1
  O  O2982  1  0.180000  0.301800  0.357700  1
  O  O2983  1  0.051800  0.570000  0.107700  1
  O  O2984  1  0.680000  0.801800  0.857700  1
  O  O2985  1  0.820000  0.198200  0.357700  1
  O  O2986  1  0.948200  0.930000  0.107700  1
  O  O2987  1  0.320000  0.698200  0.857700  1
  O  O2988  1  0.448200  0.430000  0.607700  1
  O  O2989  1  0.496000  0.081100  0.203200  1
  O  O2990  1  0.668900  0.746000  0.453200  1
  O  O2991  1  0.996000  0.581100  0.703200  1
  O  O2992  1  0.168900  0.246000  0.953200  1
  O  O2993  1  0.331100  0.754000  0.453200  1
  O  O2994  1  0.004000  0.918900  0.703200  1
  O  O2995  1  0.831100  0.254000  0.953200  1
  O  O2996  1  0.504000  0.418900  0.203200  1
  O  O2997  1  0.504000  0.918900  0.796800  1
  O  O2998  1  0.331100  0.254000  0.546800  1
  O  O2999  1  0.004000  0.418900  0.296800  1
  O  O3000  1  0.831100  0.754000  0.046800  1
  O  O3001  1  0.668900  0.246000  0.546800  1
  O  O3002  1  0.996000  0.081100  0.296800  1
  O  O3003  1  0.168900  0.746000  0.046800  1
  O  O3004  1  0.496000  0.581100  0.796800  1
  O  O3005  1  0.547700  0.113400  0.189100  1
  O  O3006  1  0.636600  0.797700  0.439100  1
  O  O3007  1  0.047700  0.613400  0.689100  1
  O  O3008  1  0.136600  0.297700  0.939100  1
  O  O3009  1  0.363400  0.702300  0.439100  1
  O  O3010  1  0.952300  0.886600  0.689100  1
  O  O3011  1  0.863400  0.202300  0.939100  1
  O  O3012  1  0.452300  0.386600  0.189100  1
  O  O3013  1  0.452300  0.886600  0.810900  1
  O  O3014  1  0.363400  0.202300  0.560900  1
  O  O3015  1  0.952300  0.386600  0.310900  1
  O  O3016  1  0.863400  0.702300  0.060900  1
  O  O3017  1  0.636600  0.297700  0.560900  1
  O  O3018  1  0.047700  0.113400  0.310900  1
  O  O3019  1  0.136600  0.797700  0.060900  1
  O  O3020  1  0.547700  0.613400  0.810900  1
  O  O3021  1  0.467000  0.028700  0.277700  1
  O  O3022  1  0.721300  0.717000  0.527700  1
  O  O3023  1  0.967000  0.528700  0.777700  1
  O  O3024  1  0.221300  0.217000  0.027700  1
  O  O3025  1  0.278700  0.783000  0.527700  1
  O  O3026  1  0.033000  0.971300  0.777700  1
  O  O3027  1  0.778700  0.283000  0.027700  1
  O  O3028  1  0.533000  0.471300  0.277700  1
  O  O3029  1  0.533000  0.971300  0.722300  1
  O  O3030  1  0.278700  0.283000  0.472300  1
  O  O3031  1  0.033000  0.471300  0.222300  1
  O  O3032  1  0.778700  0.783000  0.972300  1
  O  O3033  1  0.721300  0.217000  0.472300  1
  O  O3034  1  0.967000  0.028700  0.222300  1
  O  O3035  1  0.221300  0.717000  0.972300  1
  O  O3036  1  0.467000  0.528700  0.722300  1
  O  O3037  1  0.199000  0.889500  0.256000  1
  O  O3038  1  0.860500  0.449000  0.506000  1
  O  O3039  1  0.699000  0.389500  0.756000  1
  O  O3040  1  0.360500  0.949000  0.006000  1
  O  O3041  1  0.139500  0.051000  0.506000  1
  O  O3042  1  0.301000  0.110500  0.756000  1
  O  O3043  1  0.639500  0.551000  0.006000  1
  O  O3044  1  0.801000  0.610500  0.256000  1
  O  O3045  1  0.801000  0.110500  0.744000  1
  O  O3046  1  0.139500  0.551000  0.494000  1
  O  O3047  1  0.301000  0.610500  0.244000  1
  O  O3048  1  0.639500  0.051000  0.994000  1
  O  O3049  1  0.860500  0.949000  0.494000  1
  O  O3050  1  0.699000  0.889500  0.244000  1
  O  O3051  1  0.360500  0.449000  0.994000  1
  O  O3052  1  0.199000  0.389500  0.744000  1
  O  O3053  1  0.427100  0.897400  0.936500  1
  O  O3054  1  0.852600  0.677100  0.186500  1
  O  O3055  1  0.927100  0.397400  0.436500  1
  O  O3056  1  0.352600  0.177100  0.686500  1
  O  O3057  1  0.147400  0.822900  0.186500  1
  O  O3058  1  0.072900  0.102600  0.436500  1
  O  O3059  1  0.647400  0.322900  0.686500  1
  O  O3060  1  0.572900  0.602600  0.936500  1
  O  O3061  1  0.572900  0.102600  0.063500  1
  O  O3062  1  0.147400  0.322900  0.813500  1
  O  O3063  1  0.072900  0.602600  0.563500  1
  O  O3064  1  0.647400  0.822900  0.313500  1
  O  O3065  1  0.852600  0.177100  0.813500  1
  O  O3066  1  0.927100  0.897400  0.563500  1
  O  O3067  1  0.352600  0.677100  0.313500  1
  O  O3068  1  0.427100  0.397400  0.063500  1
  O  O3069  1  0.385700  0.922800  0.967100  1
  O  O3070  1  0.827200  0.635700  0.217100  1
  O  O3071  1  0.885700  0.422800  0.467100  1
  O  O3072  1  0.327200  0.135700  0.717100  1
  O  O3073  1  0.172800  0.864300  0.217100  1
  O  O3074  1  0.114300  0.077200  0.467100  1
  O  O3075  1  0.672800  0.364300  0.717100  1
  O  O3076  1  0.614300  0.577200  0.967100  1
  O  O3077  1  0.614300  0.077200  0.032900  1
  O  O3078  1  0.172800  0.364300  0.782900  1
  O  O3079  1  0.114300  0.577200  0.532900  1
  O  O3080  1  0.672800  0.864300  0.282900  1
  O  O3081  1  0.827200  0.135700  0.782900  1
  O  O3082  1  0.885700  0.922800  0.532900  1
  O  O3083  1  0.327200  0.635700  0.282900  1
  O  O3084  1  0.385700  0.422800  0.032900  1
  O  O3085  1  0.843500  0.092000  0.246300  1
  O  O3086  1  0.658000  0.093500  0.496300  1
  O  O3087  1  0.343500  0.592000  0.746300  1
  O  O3088  1  0.158000  0.593500  0.996300  1
  O  O3089  1  0.342000  0.406500  0.496300  1
  O  O3090  1  0.656500  0.908000  0.746300  1
  O  O3091  1  0.842000  0.906500  0.996300  1
  O  O3092  1  0.156500  0.408000  0.246300  1
  O  O3093  1  0.156500  0.908000  0.753700  1
  O  O3094  1  0.342000  0.906500  0.503700  1
  O  O3095  1  0.656500  0.408000  0.253700  1
  O  O3096  1  0.842000  0.406500  0.003700  1
  O  O3097  1  0.658000  0.593500  0.503700  1
  O  O3098  1  0.343500  0.092000  0.253700  1
  O  O3099  1  0.158000  0.093500  0.003700  1
  O  O3100  1  0.843500  0.592000  0.753700  1
  O  O3101  1  0.376000  0.193000  0.330000  1
  O  O3102  1  0.557000  0.626000  0.580000  1
  O  O3103  1  0.876000  0.693000  0.830000  1
  O  O3104  1  0.057000  0.126000  0.080000  1
  O  O3105  1  0.443000  0.874000  0.580000  1
  O  O3106  1  0.124000  0.807000  0.830000  1
  O  O3107  1  0.943000  0.374000  0.080000  1
  O  O3108  1  0.624000  0.307000  0.330000  1
  O  O3109  1  0.624000  0.807000  0.670000  1
  O  O3110  1  0.443000  0.374000  0.420000  1
  O  O3111  1  0.124000  0.307000  0.170000  1
  O  O3112  1  0.943000  0.874000  0.920000  1
  O  O3113  1  0.557000  0.126000  0.420000  1
  O  O3114  1  0.876000  0.193000  0.170000  1
  O  O3115  1  0.057000  0.626000  0.920000  1
  O  O3116  1  0.376000  0.693000  0.670000  1
  O  O3117  1  0.526400  0.125800  0.157300  1
  O  O3118  1  0.624200  0.776400  0.407300  1
  O  O3119  1  0.026400  0.625800  0.657300  1
  O  O3120  1  0.124200  0.276400  0.907300  1
  O  O3121  1  0.375800  0.723600  0.407300  1
  O  O3122  1  0.973600  0.874200  0.657300  1
  O  O3123  1  0.875800  0.223600  0.907300  1
  O  O3124  1  0.473600  0.374200  0.157300  1
  O  O3125  1  0.473600  0.874200  0.842700  1
  O  O3126  1  0.375800  0.223600  0.592700  1
  O  O3127  1  0.973600  0.374200  0.342700  1
  O  O3128  1  0.875800  0.723600  0.092700  1
  O  O3129  1  0.624200  0.276400  0.592700  1
  O  O3130  1  0.026400  0.125800  0.342700  1
  O  O3131  1  0.124200  0.776400  0.092700  1
  O  O3132  1  0.526400  0.625800  0.842700  1
  O  O3133  1  0.669700  0.186400  0.306200  1
  O  O3134  1  0.563600  0.919700  0.556200  1
  O  O3135  1  0.169700  0.686400  0.806200  1
  O  O3136  1  0.063600  0.419700  0.056200  1
  O  O3137  1  0.436400  0.580300  0.556200  1
  O  O3138  1  0.830300  0.813600  0.806200  1
  O  O3139  1  0.936400  0.080300  0.056200  1
  O  O3140  1  0.330300  0.313600  0.306200  1
  O  O3141  1  0.330300  0.813600  0.693800  1
  O  O3142  1  0.436400  0.080300  0.443800  1
  O  O3143  1  0.830300  0.313600  0.193800  1
  O  O3144  1  0.936400  0.580300  0.943800  1
  O  O3145  1  0.563600  0.419700  0.443800  1
  O  O3146  1  0.169700  0.186400  0.193800  1
  O  O3147  1  0.063600  0.919700  0.943800  1
  O  O3148  1  0.669700  0.686400  0.693800  1
  O  O3149  1  0.457400  0.999700  0.316900  1
  O  O3150  1  0.750300  0.707400  0.566900  1
  O  O3151  1  0.957400  0.499700  0.816900  1
  O  O3152  1  0.250300  0.207400  0.066900  1
  O  O3153  1  0.249700  0.792600  0.566900  1
  O  O3154  1  0.042600  0.000300  0.816900  1
  O  O3155  1  0.749700  0.292600  0.066900  1
  O  O3156  1  0.542600  0.500300  0.316900  1
  O  O3157  1  0.542600  0.000300  0.683100  1
  O  O3158  1  0.249700  0.292600  0.433100  1
  O  O3159  1  0.042600  0.500300  0.183100  1
  O  O3160  1  0.749700  0.792600  0.933100  1
  O  O3161  1  0.750300  0.207400  0.433100  1
  O  O3162  1  0.957400  0.999700  0.183100  1
  O  O3163  1  0.250300  0.707400  0.933100  1
  O  O3164  1  0.457400  0.499700  0.683100  1
  O  O3165  1  0.002300  0.164200  0.169700  1
  O  O3166  1  0.585800  0.252300  0.419700  1
  O  O3167  1  0.502300  0.664200  0.669700  1
  O  O3168  1  0.085800  0.752300  0.919700  1
  O  O3169  1  0.414200  0.247700  0.419700  1
  O  O3170  1  0.497700  0.835800  0.669700  1
  O  O3171  1  0.914200  0.747700  0.919700  1
  O  O3172  1  0.997700  0.335800  0.169700  1
  O  O3173  1  0.997700  0.835800  0.830300  1
  O  O3174  1  0.414200  0.747700  0.580300  1
  O  O3175  1  0.497700  0.335800  0.330300  1
  O  O3176  1  0.914200  0.247700  0.080300  1
  O  O3177  1  0.585800  0.752300  0.580300  1
  O  O3178  1  0.502300  0.164200  0.330300  1
  O  O3179  1  0.085800  0.252300  0.080300  1
  O  O3180  1  0.002300  0.664200  0.830300  1
  O  O3181  1  0.281100  0.848400  0.297800  1
  O  O3182  1  0.901600  0.531100  0.547800  1
  O  O3183  1  0.781100  0.348400  0.797800  1
  O  O3184  1  0.401600  0.031100  0.047800  1
  O  O3185  1  0.098400  0.968900  0.547800  1
  O  O3186  1  0.218900  0.151600  0.797800  1
  O  O3187  1  0.598400  0.468900  0.047800  1
  O  O3188  1  0.718900  0.651600  0.297800  1
  O  O3189  1  0.718900  0.151600  0.702200  1
  O  O3190  1  0.098400  0.468900  0.452200  1
  O  O3191  1  0.218900  0.651600  0.202200  1
  O  O3192  1  0.598400  0.968900  0.952200  1
  O  O3193  1  0.901600  0.031100  0.452200  1
  O  O3194  1  0.781100  0.848400  0.202200  1
  O  O3195  1  0.401600  0.531100  0.952200  1
  O  O3196  1  0.281100  0.348400  0.702200  1
  O  O3197  1  0.988100  0.342300  0.674700  1.0
  O  O3198  1  0.407700  0.238100  0.924700  1.0
  O  O3199  1  0.488100  0.842300  0.174700  1.0
  O  O3200  1  0.907700  0.738100  0.424700  1.0
  O  O3201  1  0.592300  0.261900  0.924700  1.0
  O  O3202  1  0.511900  0.657700  0.174700  1.0
  O  O3203  1  0.092300  0.761900  0.424700  1.0
  O  O3204  1  0.011900  0.157700  0.674700  1.0
  O  O3205  1  0.011900  0.657700  0.325300  1.0
  O  O3206  1  0.592300  0.761900  0.075300  1.0
  O  O3207  1  0.511900  0.157700  0.825300  1.0
  O  O3208  1  0.092300  0.261900  0.575300  1.0
  O  O3209  1  0.407700  0.738100  0.075300  1.0
  O  O3210  1  0.488100  0.342300  0.825300  1.0
  O  O3211  1  0.907700  0.238100  0.575300  1.0
  O  O3212  1  0.988100  0.842300  0.325300  1.0
  O  O3213  1  0.017900  0.340600  0.677300  1.0
  O  O3214  1  0.409400  0.267900  0.927300  1.0
  O  O3215  1  0.517900  0.840600  0.177300  1.0
  O  O3216  1  0.909400  0.767900  0.427300  1.0
  O  O3217  1  0.590600  0.232100  0.927300  1.0
  O  O3218  1  0.482100  0.659400  0.177300  1.0
  O  O3219  1  0.090600  0.732100  0.427300  1.0
  O  O3220  1  0.982100  0.159400  0.677300  1.0
  O  O3221  1  0.982100  0.659400  0.322700  1.0
  O  O3222  1  0.590600  0.732100  0.072700  1.0
  O  O3223  1  0.482100  0.159400  0.822700  1.0
  O  O3224  1  0.090600  0.232100  0.572700  1.0
  O  O3225  1  0.409400  0.767900  0.072700  1.0
  O  O3226  1  0.517900  0.340600  0.822700  1.0
  O  O3227  1  0.909400  0.267900  0.572700  1.0
  O  O3228  1  0.017900  0.840600  0.322700  1.0
