
#######################################################################
#
#                 Cambridge Crystallographic Data Centre
#                                CCDC 
#
#######################################################################
#
# If this CIF has been generated from an entry in the Cambridge 
# Structural Database, then it will include bibliographic, chemical, 
# crystal, experimental, refinement or atomic coordinate data resulting 
# from the CCDC's data processing and validation procedures.
#
#######################################################################

data_ODUMEG
_chemical_formula_moiety         
'C108 H144 N36 Pd6 12+,C30 H25 N1 O2,12(N1 O3 1-),88(H2 O1)'
_chemical_name_systematic        
"tetrakis(\m~3~-2,4,6-tris(4-Pyridyl)-1,3,5-triazine)-hexakis(N,N,N',N'-tetramethylethylenediamine)-hexa-palladium 2-cyclohexyl-3a,3b,13a,13b-tetrahydro-1H-perylo(1,12-efg)isoindole-1,3(2H)-dione clathrate dodecanitrate hydrate"
_symmetry_cell_setting           tetragonal
_symmetry_space_group_name_H-M   'I 41/a'
_symmetry_Int_Tables_number      88
_space_group_name_Hall           '-I 4ad'
loop_
_symmetry_equiv_pos_site_id
_symmetry_equiv_pos_as_xyz
1 x,y,z
2 3/4-y,1/4+x,1/4+z
3 1/2+x,1/2+y,1/2+z
4 1/4-y,3/4+x,3/4+z
5 1/4+y,1/4-x,1/4+z
6 1/2-x,-y,1/2+z
7 3/4+y,3/4-x,3/4+z
8 -x,1/2-y,z
9 -x,-y,-z
10 1/4+y,3/4-x,3/4-z
11 1/2-x,1/2-y,1/2-z
12 3/4+y,1/4-x,1/4-z
13 3/4-y,3/4+x,3/4-z
14 1/2+x,y,1/2-z
15 1/4-y,1/4+x,1/4-z
16 x,1/2+y,-z
_cell_length_a                   26.283(12)
_cell_length_b                   26.283(12)
_cell_length_c                   32.15(3)
_cell_angle_alpha                90
_cell_angle_beta                 90
_cell_angle_gamma                90
_cell_volume                     22209.1
_exptl_crystal_colour            red
_exptl_crystal_description       block
_cell_formula_units_Z            4
loop_
_atom_site_label
_atom_site_type_symbol
_atom_site_fract_x
_atom_site_fract_y
_atom_site_fract_z
C28 C 0.9085(14) 0.3766(14) 0.5893(13)
H37 H 0.8901 0.3934 0.5678
C29 C 0.8846(15) 0.3467(13) 0.6188(12)
H38 H 0.8485 0.3450 0.6170
C30 C 0.9064(13) 0.3188(10) 0.6509(11)
H39 H 0.8922 0.3320 0.6777
C31 C 0.9624(9) 0.3233(12) 0.6532(10)
C32 C 0.9871(13) 0.3500(14) 0.6215(9)
C33 C 0.9607(15) 0.3803(16) 0.5930(12)
C34 C 0.983(2) 0.4096(18) 0.5618(15)
H40 H 0.9641 0.4254 0.5404
C35 C 1.036(2) 0.4140(17) 0.5642(12)
H41 H 1.0537 0.4346 0.5447
C36 C 0.8614(17) 0.3127(13) 0.6552(12)
H42 H 0.8574 0.3487 0.6542
C37 C 0.8923(13) 0.2895(13) 0.6261(10)
C38 C 0.9183(10) 0.3181(16) 0.5963(12)
C39 C 0.9210(13) 0.371(2) 0.5912(16)
H43 H 0.9031 0.3913 0.6106
C40 C 0.948(2) 0.3950(18) 0.5597(15)
H44 H 0.9442 0.4308 0.5576
C41 C 0.9800(17) 0.372(2) 0.5307(15)
H45 H 1.0025 0.3882 0.5120
C42 C 0.9726(18) 0.3192(17) 0.5343(11)
C43 C 0.9489(13) 0.2931(15) 0.5665(10)
C44 C 0.9902(12) 0.2982(11) 0.6836(9)
C45 C 1.0141(16) 0.2873(14) 0.5366(11)
H46 H 1.0382 0.3092 0.5205
C46 C 0.9900(19) 0.258(2) 0.5057(11)
H47 H 0.9688 0.2743 0.4858
C47 C 1.0017(19) 0.2941(18) 0.5046(13)
H48 H 1.0166 0.3133 0.4827
C48 C 0.9835(16) 0.3264(15) 0.5630(11)
H49 H 0.9675 0.3524 0.5444
C49 C 0.8967(15) 0.2614(10) 0.6499(16)
H50 H 1.0056 0.3908 0.5977
C50 C 0.9432(14) 0.2962(13) 0.5847(11)
C51 C 0.9840(16) 0.3347(14) 0.6372(11)
O1 O 0.9881(15) 0.3423(16) 0.6747(12)
O2 O 1.0179(19) 0.3406(17) 0.6773(16)
N10 N 0.9451(15) 0.3014(12) 0.6268(10)
C52 C 0.9176(13) 0.2756(13) 0.6610(10)
H51 H 0.9892 0.3365 0.5974
C53 C 0.865(3) 0.2970(13) 0.6659(16)
H52 H 0.8673 0.3341 0.6718
H53 H 0.8459 0.2928 0.6395
C54 C 1.021(3) 0.4139(19) 0.549(2)
H54 H 1.0390 0.4465 0.5443
H55 H 0.9857 0.4218 0.5573
C55 C 1.020(3) 0.383(3) 0.5083(15)
H56 H 0.9999 0.4017 0.4872
H57 H 1.0554 0.3799 0.4975
C56 C 0.998(3) 0.332(3) 0.5150(14)
H58 H 1.0004 0.3126 0.4887
H59 H 0.9620 0.3356 0.5224
C57 C 1.026(3) 0.3020(19) 0.5494(11)
H60 H 0.9808 0.2580 0.6961
H61 H 0.9552 0.3111 0.7092
C28N C 0.8734(14) 0.1585(14) 0.6607(13)
C28G C 1.0915(14) 0.1234(14) 0.5893(13)
C28K C 1.1266(14) 0.3415(14) 0.6607(13)
H37N H 0.8566 0.1401 0.6822
H37G H 1.1099 0.1066 0.5678
H37K H 1.1434 0.3599 0.6822
C29N C 0.9033(13) 0.1346(15) 0.6312(12)
C29G C 1.1154(15) 0.1533(13) 0.6188(12)
C29K C 1.0967(13) 0.3654(15) 0.6312(12)
H38N H 0.9050 0.0985 0.6330
H38G H 1.1515 0.1550 0.6170
H38K H 1.0950 0.4015 0.6330
C30N C 0.9312(10) 0.1564(13) 0.5991(11)
C30G C 1.0936(13) 0.1812(10) 0.6509(11)
C30K C 1.0688(10) 0.3436(13) 0.5991(11)
H39N H 0.9180 0.1422 0.5723
H39G H 1.1078 0.1680 0.6777
H39K H 1.0820 0.3578 0.5723
C31N C 0.9267(12) 0.2124(9) 0.5968(10)
C31G C 1.0376(9) 0.1767(12) 0.6532(10)
C31K C 1.0733(12) 0.2876(9) 0.5968(10)
C32N C 0.9000(14) 0.2371(13) 0.6285(9)
C32G C 1.0129(13) 0.1500(14) 0.6215(9)
C32K C 1.1000(14) 0.2629(13) 0.6285(9)
C33N C 0.8697(16) 0.2107(15) 0.6570(12)
C33G C 1.0393(15) 0.1197(16) 0.5930(12)
C33K C 1.1303(16) 0.2893(15) 0.6570(12)
C34N C 0.8404(18) 0.233(2) 0.6882(15)
C34G C 1.017(2) 0.0904(18) 0.5618(15)
C34K C 1.1596(18) 0.267(2) 0.6882(15)
H40G H 1.0359 0.0746 0.5404
H40N H 0.8246 0.2141 0.7096
H40K H 1.1754 0.2859 0.7096
C35N C 0.8360(17) 0.286(2) 0.6858(12)
C35G C 0.964(2) 0.0860(17) 0.5642(12)
C35K C 1.1640(17) 0.214(2) 0.6858(12)
H41K H 1.1846 0.1963 0.7053
H41N H 0.8154 0.3037 0.7053
H41G H 0.9463 0.0654 0.5447
C36N C 0.9373(13) 0.1114(17) 0.5948(12)
C36G C 1.1386(17) 0.1873(13) 0.6552(12)
C36K C 1.0627(13) 0.3886(17) 0.5948(12)
H42K H 1.0987 0.3926 0.5958
H42N H 0.9013 0.1074 0.5958
H42G H 1.1426 0.1513 0.6542
C37G C 1.1077(13) 0.2105(13) 0.6261(10)
C37K C 1.0395(13) 0.3577(13) 0.6239(10)
C37N C 0.9605(13) 0.1423(13) 0.6239(10)
C38G C 1.0817(10) 0.1819(16) 0.5963(12)
C38K C 1.0681(16) 0.3317(10) 0.6537(12)
C38N C 0.9319(16) 0.1683(10) 0.6537(12)
C39N C 0.879(2) 0.1710(13) 0.6588(16)
C39G C 1.0790(13) 0.129(2) 0.5912(16)
C39K C 1.121(2) 0.3290(13) 0.6588(16)
H43G H 1.0969 0.1087 0.6106
H43K H 1.1413 0.3469 0.6394
H43N H 0.8587 0.1531 0.6394
C40G C 1.052(2) 0.1050(18) 0.5597(15)
C40N C 0.8550(18) 0.198(2) 0.6903(15)
C40K C 1.1450(18) 0.302(2) 0.6903(15)
H44K H 1.1808 0.3058 0.6924
H44N H 0.8192 0.1942 0.6924
H44G H 1.0558 0.0692 0.5576
C41G C 1.0200(17) 0.128(2) 0.5307(15)
C41N C 0.878(2) 0.2300(17) 0.7193(15)
C41K C 1.122(2) 0.2700(17) 0.7193(15)
H45K H 1.1382 0.2475 0.7380
H45N H 0.8618 0.2525 0.7380
H45G H 0.9975 0.1118 0.5120
C42G C 1.0274(18) 0.1808(17) 0.5343(11)
C42N C 0.9308(17) 0.2226(18) 0.7157(11)
C42K C 1.0692(17) 0.2774(18) 0.7157(11)
C43G C 1.0511(13) 0.2069(15) 0.5665(10)
C43N C 0.9569(15) 0.1989(13) 0.6835(10)
C43K C 1.0431(15) 0.3011(13) 0.6835(10)
C44K C 1.0482(11) 0.2598(12) 0.5664(9)
C44N C 0.9518(11) 0.2402(12) 0.5664(9)
C44G C 1.0098(12) 0.2018(11) 0.6836(9)
C45K C 1.0373(14) 0.2359(16) 0.7134(11)
C45N C 0.9627(14) 0.2641(16) 0.7134(11)
C45G C 0.9859(16) 0.2127(14) 0.5366(11)
H46K H 1.0592 0.2118 0.7295
H46N H 0.9408 0.2882 0.7295
H46G H 0.9618 0.1908 0.5205
C46N C 0.992(2) 0.2400(19) 0.7443(11)
C46K C 1.008(2) 0.2600(19) 0.7443(11)
C46G C 1.0100(19) 0.242(2) 0.5057(11)
H47K H 1.0243 0.2812 0.7642
H47G H 1.0312 0.2257 0.4858
H47N H 0.9757 0.2188 0.7642
C47K C 1.0441(18) 0.2483(19) 0.7454(13)
C47N C 0.9559(18) 0.2517(19) 0.7454(13)
C47G C 0.9983(19) 0.2059(18) 0.5046(13)
H48N H 0.9367 0.2666 0.7673
H48G H 0.9834 0.1867 0.4827
H48K H 1.0633 0.2334 0.7673
C48K C 1.0764(15) 0.2665(16) 0.6870(11)
C48N C 0.9236(15) 0.2335(16) 0.6870(11)
C48G C 1.0165(16) 0.1736(15) 0.5630(11)
H49K H 1.1024 0.2825 0.7056
H49N H 0.8976 0.2175 0.7056
H49G H 1.0325 0.1476 0.5444
C49G C 1.1033(15) 0.2386(10) 0.6499(16)
C49K C 1.0114(10) 0.3533(15) 0.6001(16)
C49N C 0.9886(10) 0.1467(15) 0.6001(16)
H50G H 0.9944 0.1092 0.5977
H50K H 1.1408 0.2444 0.6523
H50N H 0.8592 0.2556 0.6523
C50G C 1.0568(14) 0.2038(13) 0.5847(11)
C50N C 0.9538(13) 0.1932(14) 0.6653(11)
C50K C 1.0462(13) 0.3068(14) 0.6653(11)
C51K C 1.0847(14) 0.2660(16) 0.6128(11)
C51G C 1.0160(16) 0.1653(14) 0.6372(11)
C51N C 0.9153(14) 0.2340(16) 0.6128(11)
O1K O 1.0923(16) 0.2619(15) 0.5753(12)
O1G O 1.0119(15) 0.1577(16) 0.6747(12)
O1N O 0.9077(16) 0.2381(15) 0.5753(12)
O2K O 1.0906(17) 0.2321(19) 0.5727(16)
O2G O 0.9821(19) 0.1594(17) 0.6773(16)
O2N O 0.9094(17) 0.2679(19) 0.5727(16)
N10K N 1.0514(12) 0.3049(15) 0.6232(10)
N10N N 0.9486(12) 0.1951(15) 0.6232(10)
N10G N 1.0549(15) 0.1986(12) 0.6268(10)
C52K C 1.0256(13) 0.3324(13) 0.5890(10)
C52G C 1.0824(13) 0.2244(13) 0.6610(10)
C52N C 0.9744(13) 0.1676(13) 0.5890(10)
H51N H 0.9135 0.2392 0.6526
H51G H 1.0108 0.1635 0.5974
H51K H 1.0865 0.2608 0.6526
C53K C 1.0470(13) 0.385(3) 0.5841(16)
C53G C 1.135(3) 0.2030(13) 0.6659(16)
C53N C 0.9530(13) 0.115(3) 0.5841(16)
H52K H 1.0841 0.3827 0.5782
H52N H 0.9159 0.1173 0.5782
H52G H 1.1327 0.1659 0.6718
H53N H 0.9572 0.0959 0.6105
H53K H 1.0428 0.4041 0.6105
H53G H 1.1541 0.2072 0.6395
C54K C 1.1639(19) 0.229(3) 0.701(2)
C54N C 0.8361(19) 0.271(3) 0.701(2)
C54G C 0.979(3) 0.0861(19) 0.549(2)
H54G H 0.9610 0.0535 0.5443
H54K H 1.1965 0.2110 0.7057
H54N H 0.8035 0.2890 0.7057
H55K H 1.1718 0.2643 0.6927
H55N H 0.8282 0.2357 0.6927
H55G H 1.0143 0.0782 0.5573
C55K C 1.133(3) 0.230(3) 0.7417(15)
C55N C 0.867(3) 0.270(3) 0.7417(15)
C55G C 0.980(3) 0.117(3) 0.5083(15)
H56G H 1.0001 0.0983 0.4872
H56N H 0.8483 0.2499 0.7628
H56K H 1.1517 0.2501 0.7628
H57G H 0.9446 0.1201 0.4975
H57N H 0.8701 0.3054 0.7525
H57K H 1.1299 0.1946 0.7525
C56N C 0.918(3) 0.248(3) 0.7350(14)
C56G C 1.002(3) 0.168(3) 0.5150(14)
C56K C 1.082(3) 0.252(3) 0.7350(14)
H58G H 0.9996 0.1874 0.4887
H58N H 0.9374 0.2504 0.7613
H58K H 1.0626 0.2496 0.7613
H59N H 0.9144 0.2120 0.7276
H59G H 1.0380 0.1644 0.5224
H59K H 1.0856 0.2880 0.7276
C57N C 0.9480(19) 0.276(3) 0.7006(11)
C57G C 0.974(3) 0.1980(19) 0.5494(11)
C57K C 1.0520(19) 0.224(3) 0.7006(11)
H60N H 0.9920 0.2308 0.5539
H60K H 1.0080 0.2692 0.5539
H60G H 1.0192 0.2420 0.6961
H61G H 1.0448 0.1889 0.7092
H61K H 1.0611 0.2948 0.5408
H61N H 0.9389 0.2052 0.5408
N11 N 0.3229(11) -0.0240(12) 0.3010(8)
O3 O 0.2754(5) -0.0152(7) 0.2979(5)
O4 O 0.3349(12) -0.0655(12) 0.3189(10)
O5 O 0.3605(10) 0.0035(10) 0.2883(8)
O10 O 0.309(2) -0.1330(19) 0.3200(16)
N13 N 0.5443(10) 0.0634(8) 0.2517(8)
O14 O 0.5535(9) 0.0440(9) 0.2873(7)
O15 O 0.4988(9) 0.0540(9) 0.2402(8)
O16 O 0.5736(8) 0.0889(7) 0.2263(6)
O18 O 0.6108(17) 0.1730(18) 0.3399(14)
O22 O 0.4763(11) -0.0599(10) 0.3946(8)
O25 O 0.3638(4) 0.9120(4) 0.9543(3)
O27 O 0.4238(6) 0.9618(6) 0.9715(4)
O30 O 0.900(2) 1.071(2) 0.2720(17)
O31 O 0.8192(7) 1.0808(7) 0.2884(6)
O33 O 0.7755(5) 0.1743(5) 0.2836(4)
O35 O 0.5000 0.7500 0.6250
O37 O 0.3209(7) 0.2062(7) 0.2878(6)
O38 O 0.5105(7) -0.0060(7) 0.3507(6)
O40 O 0.9522(9) 1.0940(9) 0.1413(7)
O41 O 0.4967(8) 0.0739(8) 0.0791(7)
O42 O 0.3393(10) 0.2321(10) 0.3480(8)
O43 O 1.0428(14) 1.1430(14) 0.1436(12)
O44 O 0.698(2) 0.221(2) 0.2750(16)
O45 O 0.3867(5) 0.1439(5) 0.3215(4)
O46 O 0.436(2) 0.082(2) 0.1542(17)
O47 O 0.256(3) 0.228(3) 0.288(2)
O48 O 0.6614(18) 0.1424(18) 0.2728(15)
O50 O 0.3598(6) -0.1036(7) 0.3847(5)
O53 O 0.2482(13) -0.1164(13) 0.2851(10)
Pd1 Pd 0.717131(16) 0.460396(16) 0.626620(12)
Pd2 Pd 1.0000 0.2500 0.914000(18)
C1 C 0.7324(3) 0.3506(2) 0.6117(2)
H1 H 0.7119 0.3475 0.6358
C2 C 0.7527(3) 0.3076(3) 0.5943(2)
H2 H 0.7468 0.2754 0.6067
C3 C 0.7817(3) 0.3113(2) 0.5584(2)
C4 C 0.7904(3) 0.3594(3) 0.5414(2)
H3 H 0.8102 0.3633 0.5169
C5 C 0.7696(3) 0.4014(2) 0.56106(19)
H4 H 0.7758 0.4342 0.5498
C6 C 0.9470(3) 0.3119(2) 0.8505(2)
H5 H 0.9175 0.2968 0.8623
C7 C 0.9413(3) 0.3435(2) 0.8165(2)
H6 H 0.9084 0.3498 0.8055
C8 C 0.9836(3) 0.3658(2) 0.7985(2)
C9 C 1.0304(3) 0.3553(2) 0.8157(2)
H7 H 1.0603 0.3699 0.8041
C10 C 1.0338(3) 0.3234(2) 0.85006(19)
H8 H 1.0664 0.3166 0.8616
C11 C 0.8796(3) 0.4437(2) 0.6930(2)
C12 C 0.8368(3) 0.4228(2) 0.7107(2)
H9 H 0.8391 0.4032 0.7355
C13 C 0.7904(3) 0.4310(2) 0.6918(2)
H10 H 0.7608 0.4171 0.7043
C14 C 0.8267(3) 0.4786(2) 0.6396(2)
H11 H 0.8232 0.4985 0.6150
C15 C 0.8745(3) 0.4721(3) 0.6568(2)
H12 H 0.9036 0.4868 0.6439
C16 C 0.9791(3) 0.3983(2) 0.7611(2)
C17 C 0.8039(3) 0.2651(2) 0.5390(2)
C18 C 0.9306(3) 0.4345(2) 0.7117(2)
N1 N 0.7409(2) 0.39730(19) 0.59549(16)
N2 N 0.9927(2) 0.30160(19) 0.86758(16)
N3 N 0.78529(18) 0.4577(2) 0.65656(16)
N4 N 0.9326(2) 0.40590(19) 0.74593(16)
N5 N 0.8323(2) 0.27197(19) 0.50479(17)
N6 N 0.7941(2) 0.22079(19) 0.55711(17)
C19 C 0.9901(4) 0.2232(4) 1.0003(2)
H13 H 1.0029 0.2048 1.0251
H14 H 0.9525 0.2234 1.0014
C20 C 0.9762(3) 0.1509(3) 0.9545(2)
H15 H 0.9809 0.1273 0.9778
H16 H 0.9403 0.1606 0.9526
H17 H 0.9866 0.1342 0.9286
C21 C 1.0621(4) 0.1807(3) 0.9643(3)
H18 H 1.0656 0.1560 0.9869
H19 H 1.0725 0.1650 0.9380
H20 H 1.0837 0.2103 0.9699
C22 C 0.6157(3) 0.4200(3) 0.6099(3)
H21 H 0.5830 0.4221 0.5954
H22 H 0.6100 0.4215 0.6400
H23 H 0.6325 0.3878 0.6028
C23 C 0.6537(4) 0.4598(7) 0.5505(3)
H24 H 0.6201 0.4606 0.5375
H25 H 0.6712 0.4282 0.5429
H26 H 0.6738 0.4890 0.5409
C24 C 0.6246(4) 0.5111(4) 0.6082(5)
H27 H 0.6329 0.5362 0.5863
H28 H 0.5871 0.5068 0.6084
C25 C 0.6387(5) 0.5300(5) 0.6447(3)
H29 H 0.6170 0.5143 0.6663
H30 H 0.6309 0.5668 0.6445
C26 C 0.7217(6) 0.5682(4) 0.6456(5)
H31 H 0.7094 0.5982 0.6607
H32 H 0.7175 0.5736 0.6156
H33 H 0.7577 0.5627 0.6519
C27 C 0.6923(4) 0.5179(4) 0.7031(2)
H34 H 0.6803 0.5493 0.7162
H35 H 0.7268 0.5103 0.7128
H36 H 0.6696 0.4898 0.7106
N7 N 1.0080(3) 0.1973(2) 0.96124(18)
N8 N 0.6479(2) 0.4623(2) 0.59717(19)
N9 N 0.6927(2) 0.5241(2) 0.65819(18)
Pd1K Pd 1.210396(16) 0.532869(16) 0.623380(12)
Pd1G Pd 1.282869(16) 0.039604(16) 0.626620(12)
Pd1N Pd 0.789604(16) -0.032869(16) 0.623380(12)
Pd2N Pd 1.0000 0.2500 0.336000(18)
C1K C 1.1006(2) 0.5176(3) 0.6383(2)
C1G C 1.2676(3) 0.1494(2) 0.6117(2)
C1N C 0.8994(2) -0.0176(3) 0.6383(2)
H1K H 1.0975 0.5381 0.6142
H1G H 1.2881 0.1525 0.6358
H1N H 0.9025 -0.0381 0.6142
C2K C 1.0576(3) 0.4973(3) 0.6557(2)
C2G C 1.2473(3) 0.1924(3) 0.5943(2)
C2N C 0.9424(3) 0.0027(3) 0.6557(2)
H2K H 1.0254 0.5032 0.6433
H2G H 1.2532 0.2246 0.6067
H2N H 0.9746 -0.0032 0.6433
C3K C 1.0613(2) 0.4683(3) 0.6916(2)
C3G C 1.2183(3) 0.1887(2) 0.5584(2)
C3N C 0.9387(2) 0.0317(3) 0.6916(2)
C4K C 1.1094(3) 0.4596(3) 0.7086(2)
C4G C 1.2096(3) 0.1406(3) 0.5414(2)
C4N C 0.8906(3) 0.0404(3) 0.7086(2)
H3K H 1.1133 0.4398 0.7331
H3G H 1.1898 0.1367 0.5169
H3N H 0.8867 0.0602 0.7331
C5K C 1.1514(2) 0.4804(3) 0.68894(19)
C5G C 1.2304(3) 0.0986(2) 0.56106(19)
C5N C 0.8486(2) 0.0196(3) 0.68894(19)
H4K H 1.1842 0.4742 0.7002
H4G H 1.2242 0.0658 0.5498
H4N H 0.8158 0.0258 0.7002
C6N C 0.9381(2) 0.1970(3) 0.3995(2)
C6K C 1.0619(2) 0.3030(3) 0.3995(2)
C6G C 1.0530(3) 0.1881(2) 0.8505(2)
H5N H 0.9532 0.1675 0.3877
H5K H 1.0468 0.3325 0.3877
H5G H 1.0825 0.2032 0.8623
C7N C 0.9065(2) 0.1913(3) 0.4335(2)
C7K C 1.0935(2) 0.3087(3) 0.4335(2)
C7G C 1.0587(3) 0.1565(2) 0.8165(2)
H6K H 1.0998 0.3416 0.4445
H6G H 1.0916 0.1502 0.8055
H6N H 0.9002 0.1584 0.4445
C8N C 0.8842(2) 0.2336(3) 0.4515(2)
C8K C 1.1158(2) 0.2664(3) 0.4515(2)
C8G C 1.0164(3) 0.1342(2) 0.7985(2)
C9K C 1.1053(2) 0.2196(3) 0.4343(2)
C9G C 0.9696(3) 0.1447(2) 0.8157(2)
C9N C 0.8947(2) 0.2804(3) 0.4343(2)
H7K H 1.1199 0.1897 0.4459
H7G H 0.9397 0.1301 0.8041
H7N H 0.8801 0.3103 0.4459
C10K C 1.0734(2) 0.2162(3) 0.39994(19)
C10G C 0.9662(3) 0.1766(2) 0.85006(19)
C10N C 0.9266(2) 0.2838(3) 0.39994(19)
H8K H 1.0666 0.1836 0.3884
H8G H 0.9336 0.1834 0.8616
H8N H 0.9334 0.3164 0.3884
C11K C 1.1937(2) 0.3704(3) 0.5570(2)
C11G C 1.1204(3) 0.0563(2) 0.6930(2)
C11N C 0.8063(2) 0.1296(3) 0.5570(2)
C12K C 1.1728(2) 0.4132(3) 0.5393(2)
C12G C 1.1632(3) 0.0772(2) 0.7107(2)
C12N C 0.8272(2) 0.0868(3) 0.5393(2)
H9K H 1.1532 0.4109 0.5145
H9G H 1.1609 0.0968 0.7355
H9N H 0.8468 0.0891 0.5145
C13K C 1.1810(2) 0.4596(3) 0.5582(2)
C13G C 1.2096(3) 0.0690(2) 0.6918(2)
C13N C 0.8190(2) 0.0404(3) 0.5582(2)
H10K H 1.1671 0.4892 0.5457
H10G H 1.2392 0.0829 0.7043
H10N H 0.8329 0.0108 0.5457
C14G C 1.1733(3) 0.0214(2) 0.6396(2)
C14N C 0.7714(2) 0.0767(3) 0.6104(2)
C14K C 1.2286(2) 0.4233(3) 0.6104(2)
H11G H 1.1768 0.0015 0.6150
H11N H 0.7515 0.0732 0.6350
H11K H 1.2485 0.4268 0.6350
C15G C 1.1255(3) 0.0279(3) 0.6568(2)
C15N C 0.7779(3) 0.1245(3) 0.5932(2)
C15K C 1.2221(3) 0.3755(3) 0.5932(2)
H12G H 1.0964 0.0132 0.6439
H12N H 0.7632 0.1536 0.6061
H12K H 1.2368 0.3464 0.6061
C16N C 0.8517(2) 0.2291(3) 0.4889(2)
C16K C 1.1483(2) 0.2709(3) 0.4889(2)
C16G C 1.0209(3) 0.1017(2) 0.7611(2)
C17K C 1.0151(2) 0.4461(3) 0.7110(2)
C17G C 1.1961(3) 0.2349(2) 0.5390(2)
C17N C 0.9849(2) 0.0539(3) 0.7110(2)
C18K C 1.1845(2) 0.3194(3) 0.5383(2)
C18G C 1.0694(3) 0.0655(2) 0.7117(2)
C18N C 0.8155(2) 0.1806(3) 0.5383(2)
N1K N 1.14730(19) 0.5091(2) 0.65451(16)
N1G N 1.2591(2) 0.10270(19) 0.59549(16)
N1N N 0.85270(19) -0.0091(2) 0.65451(16)
N2N N 0.94840(19) 0.2427(2) 0.38242(16)
N2K N 1.05160(19) 0.2573(2) 0.38242(16)
N2G N 1.0073(2) 0.19840(19) 0.86758(16)
N3K N 1.2077(2) 0.46471(18) 0.59344(16)
N3G N 1.21471(18) 0.0423(2) 0.65656(16)
N3N N 0.7923(2) 0.03529(18) 0.59344(16)
N4K N 1.15590(19) 0.3174(2) 0.50407(16)
N4G N 1.0674(2) 0.09410(19) 0.74593(16)
N4N N 0.84410(19) 0.1826(2) 0.50407(16)
N5K N 1.02197(19) 0.4177(2) 0.74521(17)
N5G N 1.1677(2) 0.22803(19) 0.50479(17)
N5N N 0.97803(19) 0.0823(2) 0.74521(17)
N6G N 1.2059(2) 0.27921(19) 0.55711(17)
N6N N 1.02921(19) 0.0441(2) 0.69289(17)
N6K N 0.97079(19) 0.4559(2) 0.69289(17)
C19G C 1.0099(4) 0.2768(4) 1.0003(2)
C19N C 1.0268(4) 0.2401(4) 0.2497(2)
C19K C 0.9732(4) 0.2599(4) 0.2497(2)
H13G H 0.9971 0.2952 1.0251
H13K H 0.9548 0.2471 0.2249
H13N H 1.0452 0.2529 0.2249
H14G H 1.0475 0.2766 1.0014
H14K H 0.9734 0.2975 0.2486
H14N H 1.0266 0.2025 0.2486
C20G C 1.0238(3) 0.3491(3) 0.9545(2)
C20K C 0.9009(3) 0.2738(3) 0.2955(2)
C20N C 1.0991(3) 0.2262(3) 0.2955(2)
H15G H 1.0191 0.3727 0.9778
H15K H 0.8773 0.2691 0.2722
H15N H 1.1227 0.2309 0.2722
H16G H 1.0597 0.3394 0.9526
H16K H 0.9106 0.3097 0.2974
H16N H 1.0894 0.1903 0.2974
H17G H 1.0134 0.3658 0.9286
H17K H 0.8842 0.2634 0.3214
H17N H 1.1158 0.2366 0.3214
C21G C 0.9379(4) 0.3193(3) 0.9643(3)
C21K C 0.9307(3) 0.1879(4) 0.2857(3)
C21N C 1.0693(3) 0.3121(4) 0.2857(3)
H18G H 0.9344 0.3440 0.9869
H18K H 0.9060 0.1844 0.2631
H18N H 1.0940 0.3156 0.2631
H19G H 0.9275 0.3350 0.9380
H19K H 0.9150 0.1775 0.3120
H19N H 1.0850 0.3225 0.3120
H20G H 0.9163 0.2897 0.9699
H20K H 0.9603 0.1663 0.2801
H20N H 1.0397 0.3337 0.2801
C22G C 1.3843(3) 0.0800(3) 0.6099(3)
C22N C 0.8300(3) -0.1343(3) 0.6401(3)
C22K C 1.1700(3) 0.6343(3) 0.6401(3)
H21G H 1.4170 0.0779 0.5954
H21N H 0.8279 -0.1670 0.6546
H21K H 1.1721 0.6670 0.6546
H22G H 1.3900 0.0785 0.6400
H22N H 0.8285 -0.1400 0.6100
H22K H 1.1715 0.6400 0.6100
H23G H 1.3675 0.1122 0.6028
H23N H 0.8622 -0.1175 0.6472
H23K H 1.1378 0.6175 0.6472
C23G C 1.3463(4) 0.0402(7) 0.5505(3)
C23N C 0.7902(7) -0.0963(4) 0.6995(3)
C23K C 1.2098(7) 0.5963(4) 0.6995(3)
H24G H 1.3799 0.0394 0.5375
H24N H 0.7894 -0.1299 0.7125
H24K H 1.2106 0.6299 0.7125
H25G H 1.3288 0.0718 0.5429
H25N H 0.8218 -0.0788 0.7071
H25K H 1.1782 0.5788 0.7071
H26G H 1.3262 0.0110 0.5409
H26N H 0.7610 -0.0762 0.7091
H26K H 1.2390 0.5762 0.7091
C24G C 1.3754(4) -0.0111(4) 0.6082(5)
C24N C 0.7389(4) -0.1254(4) 0.6418(5)
C24K C 1.2611(4) 0.6254(4) 0.6418(5)
H27G H 1.3671 -0.0362 0.5863
H27N H 0.7138 -0.1171 0.6637
H27K H 1.2862 0.6171 0.6637
H28G H 1.4129 -0.0068 0.6084
H28N H 0.7432 -0.1629 0.6416
H28K H 1.2568 0.6629 0.6416
C25G C 1.3613(5) -0.0300(5) 0.6447(3)
C25N C 0.7200(5) -0.1113(5) 0.6053(3)
C25K C 1.2800(5) 0.6113(5) 0.6053(3)
H29G H 1.3830 -0.0143 0.6663
H29N H 0.7357 -0.1330 0.5837
H29K H 1.2643 0.6330 0.5837
H30G H 1.3691 -0.0668 0.6445
H30N H 0.6832 -0.1191 0.6055
H30K H 1.3168 0.6191 0.6055
C26G C 1.2783(6) -0.0682(4) 0.6456(5)
C26N C 0.6818(4) -0.0283(6) 0.6044(5)
C26K C 1.3182(4) 0.5283(6) 0.6044(5)
H31G H 1.2906 -0.0982 0.6607
H31N H 0.6518 -0.0406 0.5893
H31K H 1.3482 0.5406 0.5893
H32G H 1.2825 -0.0736 0.6156
H32N H 0.6764 -0.0325 0.6344
H32K H 1.3236 0.5325 0.6344
H33G H 1.2423 -0.0627 0.6519
H33N H 0.6873 0.0077 0.5981
H33K H 1.3127 0.4923 0.5981
C27G C 1.3077(4) -0.0179(4) 0.7031(2)
C27N C 0.7321(4) -0.0577(4) 0.5469(2)
C27K C 1.2679(4) 0.5577(4) 0.5469(2)
H34G H 1.3197 -0.0493 0.7162
H34N H 0.7007 -0.0697 0.5338
H34K H 1.2993 0.5697 0.5338
H35G H 1.2732 -0.0103 0.7128
H35N H 0.7397 -0.0232 0.5372
H35K H 1.2603 0.5232 0.5372
H36G H 1.3304 0.0102 0.7106
H36N H 0.7602 -0.0804 0.5394
H36K H 1.2398 0.5804 0.5394
N7G N 0.9920(3) 0.3027(2) 0.96124(18)
N7N N 1.0527(2) 0.2580(3) 0.28876(18)
N7K N 0.9473(2) 0.2420(3) 0.28876(18)
N8G N 1.3521(2) 0.0377(2) 0.59717(19)
N8N N 0.7877(2) -0.1021(2) 0.65283(19)
N8K N 1.2123(2) 0.6021(2) 0.65283(19)
N9G N 1.3073(2) -0.0241(2) 0.65819(18)
N9N N 0.7259(2) -0.0573(2) 0.59181(18)
N9K N 1.2741(2) 0.5573(2) 0.59181(18)
C58? C 0.970(2) 0.158(2) 0.5928(15)
H62? H 0.9352 0.1472 0.5833
C59? C 0.978(3) 0.191(3) 0.555(2)
H63? H 0.9653 0.2262 0.5607
H64? H 0.9585 0.1774 0.5313
C60? C 1.035(3) 0.193(3) 0.544(3)
H65? H 1.0394 0.2132 0.5187
H66? H 1.0531 0.2106 0.5671
C61? C 1.057(2) 0.142(3) 0.538(3)
H67? H 1.0943 0.1453 0.5335
H68? H 1.0419 0.1258 0.5135
C62? C 1.048(3) 0.108(3) 0.577(3)
H69? H 1.0603 0.0733 0.5707
H70? H 1.0679 0.1216 0.6004
C63? C 0.992(3) 0.106(2) 0.589(2)
H71? H 0.9730 0.0867 0.5672
H72? H 0.9884 0.0876 0.6154
O6? O 0.7838(12) 0.9549(13) 0.1972(10)
O7? O 0.4486(11) 0.0663(11) 0.1077(10)
O8? O 0.7867(15) 1.0051(16) 0.2203(13)
O9? O 0.8676(7) 1.0505(8) 0.2196(6)
N12? N 0.5786(8) 0.1062(6) 0.2575(7)
O11? O 0.5348(10) 0.0998(9) 0.2404(8)
O12? O 0.6121(10) 0.0953(8) 0.2341(7)
O13? O 0.5839(6) 0.1224(6) 0.2938(5)
O17? O 0.6128(9) 0.1418(8) 0.2964(7)
O19? O 0.434(2) -0.035(2) 0.3613(18)
O20? O 0.4482(6) -0.0700(6) 0.3923(5)
O21? O 0.4960(13) 0.0811(13) 0.2032(11)
O23? O 0.5477(17) 0.1134(16) 0.1891(14)
O24? O 0.4670(6) 0.0287(6) 0.2777(5)
O26? O 0.1990(8) -0.1105(8) 0.2560(6)
O28? O 0.4271(9) 0.8974(9) 0.9365(8)
O29? O 0.3857(7) 0.9228(6) 0.9671(5)
O32? O 0.8435(17) 1.0920(17) 0.2463(15)
O34? O 0.376(3) 0.193(3) 0.330(2)
O36? O 0.5264(3) 0.1258(3) 0.1573(2)
O39? O 0.6697(6) 0.1864(7) 0.3062(5)
O49? O 0.4574(11) -0.0003(11) 0.3169(10)
O51? O 1.0023(6) 1.1642(6) 0.1697(5)
O52? O 0.2811(14) -0.1516(13) 0.2978(11)
loop_
_geom_bond_atom_site_label_1
_geom_bond_atom_site_label_2
_geom_bond_site_symmetry_1
_geom_bond_site_symmetry_2
Pd1 N1 1_555 1_555
Pd2 N2 1_555 1_555
C1 H1 1_555 1_555
C2 C1 1_555 1_555
H2 C2 1_555 1_555
C3 C2 1_555 1_555
C4 C3 1_555 1_555
H3 C4 1_555 1_555
C5 C4 1_555 1_555
H4 C5 1_555 1_555
C6 H5 1_555 1_555
C7 C6 1_555 1_555
H6 C7 1_555 1_555
C8 C7 1_555 1_555
C9 C8 1_555 1_555
H7 C9 1_555 1_555
C10 C9 1_555 1_555
H8 C10 1_555 1_555
C11 C12 1_555 1_555
C12 H9 1_555 1_555
C13 C12 1_555 1_555
H10 C13 1_555 1_555
C14 H11 1_555 1_555
C15 C11 1_555 1_555
H12 C15 1_555 1_555
C16 C8 1_555 1_555
C17 C3 1_555 1_555
C18 C11 1_555 1_555
N1 C1 1_555 1_555
N2 C6 1_555 1_555
N3 Pd1 1_555 1_555
N4 C16 1_555 1_555
N5 C17 1_555 1_555
N6 C17 1_555 1_555
C19 H13 1_555 1_555
H14 C19 1_555 1_555
C20 H15 1_555 1_555
H16 C20 1_555 1_555
H17 C20 1_555 1_555
C21 H18 1_555 1_555
H19 C21 1_555 1_555
H20 C21 1_555 1_555
C22 H21 1_555 1_555
H22 C22 1_555 1_555
H23 C22 1_555 1_555
C23 H24 1_555 1_555
H25 C23 1_555 1_555
H26 C23 1_555 1_555
C24 H27 1_555 1_555
H28 C24 1_555 1_555
C25 C24 1_555 1_555
H29 C25 1_555 1_555
H30 C25 1_555 1_555
C26 H31 1_555 1_555
H32 C26 1_555 1_555
H33 C26 1_555 1_555
C27 H34 1_555 1_555
H35 C27 1_555 1_555
H36 C27 1_555 1_555
N7 Pd2 1_555 1_555
N8 Pd1 1_555 1_555
N9 Pd1 1_555 1_555
C28 H37 1_555 1_555
H37 C39 1_555 1_555
C29 C28 1_555 1_555
H38 C29 1_555 1_555
C30 C29 1_555 1_555
H39 C30 1_555 1_555
C31 C30 1_555 1_555
C32 C31 1_555 1_555
C33 C28 1_555 1_555
C34 C33 1_555 1_555
H40 C34 1_555 1_555
C35 C34 1_555 1_555
H41 C35 1_555 1_555
C36 C29 1_555 1_555
H42 C36 1_555 1_555
C37 C29 1_555 1_555
C38 C28 1_555 1_555
C39 C28 1_555 1_555
H43 C28 1_555 1_555
C40 C28 1_555 1_555
H44 C34 1_555 1_555
C41 C34 1_555 1_555
H45 C41 1_555 1_555
C42 C41 1_555 1_555
C43 C38 1_555 1_555
C44 C31 1_555 1_555
C45 C42 1_555 1_555
H46 C45 1_555 1_555
C46 C45 1_555 1_555
H47 C46 1_555 1_555
C47 C42 1_555 1_555
H48 C47 1_555 1_555
C48 C41 1_555 1_555
H49 C41 1_555 1_555
C49 C30 1_555 1_555
H50 C33 1_555 1_555
C50 C38 1_555 1_555
C51 C31 1_555 1_555
O1 C31 1_555 1_555
O2 C31 1_555 1_555
N10 C30 1_555 1_555
C52 C30 1_555 1_555
H51 C32 1_555 1_555
C53 C30 1_555 1_555
H52 C30 1_555 1_555
H53 C36 1_555 1_555
C54 C34 1_555 1_555
H54 C35 1_555 1_555
H55 C34 1_555 1_555
C55 C41 1_555 1_555
H56 C55 1_555 1_555
H57 C55 1_555 1_555
C56 C41 1_555 1_555
H58 C47 1_555 1_555
H59 C41 1_555 1_555
C57 C42 1_555 1_555
H60 C44 1_555 1_555
H61 C44 1_555 1_555
N11 O3 1_555 1_555
O4 N11 1_555 1_555
O5 N11 1_555 1_555
N13 O14 1_555 1_555
O15 N13 1_555 1_555
O16 N13 1_555 1_555
Pd1K N1K 1_555 1_555
Pd1G N1G 1_555 1_555
Pd1N N1N 1_555 1_555
Pd2N N2N 1_555 1_555
C1K H1K 1_555 1_555
C1G H1G 1_555 1_555
C1N H1N 1_555 1_555
C2K C1K 1_555 1_555
C2G C1G 1_555 1_555
C2N C1N 1_555 1_555
H2K C2K 1_555 1_555
H2G C2G 1_555 1_555
H2N C2N 1_555 1_555
C3K C2K 1_555 1_555
C3G C2G 1_555 1_555
C3N C2N 1_555 1_555
C4K C3K 1_555 1_555
C4G C3G 1_555 1_555
C4N C3N 1_555 1_555
H3K C4K 1_555 1_555
H3G C4G 1_555 1_555
H3N C4N 1_555 1_555
C5K C4K 1_555 1_555
C5G C4G 1_555 1_555
C5N C4N 1_555 1_555
H4K C5K 1_555 1_555
H4G C5G 1_555 1_555
H4N C5N 1_555 1_555
C6N H5N 1_555 1_555
C6K H5K 1_555 1_555
C6G H5G 1_555 1_555
C7N C6N 1_555 1_555
C7K C6K 1_555 1_555
C7G C6G 1_555 1_555
H6K C7K 1_555 1_555
H6G C7G 1_555 1_555
H6N C7N 1_555 1_555
C8N C7N 1_555 1_555
C8K C7K 1_555 1_555
C8G C7G 1_555 1_555
C9K C8K 1_555 1_555
C9G C8G 1_555 1_555
C9N C8N 1_555 1_555
H7K C9K 1_555 1_555
H7G C9G 1_555 1_555
H7N C9N 1_555 1_555
C10K C9K 1_555 1_555
C10G C9G 1_555 1_555
C10N C9N 1_555 1_555
H8K C10K 1_555 1_555
H8G C10G 1_555 1_555
H8N C10N 1_555 1_555
C11K C12K 1_555 1_555
C11G C12G 1_555 1_555
C11N C12N 1_555 1_555
C12K H9K 1_555 1_555
C12G H9G 1_555 1_555
C12N H9N 1_555 1_555
C13K C12K 1_555 1_555
C13G C12G 1_555 1_555
C13N C12N 1_555 1_555
H10K C13K 1_555 1_555
H10G C13G 1_555 1_555
H10N C13N 1_555 1_555
C14G H11G 1_555 1_555
C14N H11N 1_555 1_555
C14K H11K 1_555 1_555
C15G C11G 1_555 1_555
C15N C11N 1_555 1_555
C15K C11K 1_555 1_555
H12G C15G 1_555 1_555
H12N C15N 1_555 1_555
H12K C15K 1_555 1_555
C16N N5 1_555 1_555
C16K C8K 1_555 1_555
C16G C8G 1_555 1_555
C17K C3K 1_555 1_555
C17G C3G 1_555 1_555
C17N C3N 1_555 1_555
C18K C11K 1_555 1_555
C18G C11G 1_555 1_555
C18N N6 1_555 1_555
N1K C1K 1_555 1_555
N1G C1G 1_555 1_555
N1N C1N 1_555 1_555
N2N C6N 1_555 1_555
N2K Pd2N 1_555 1_555
N2G Pd2 1_555 1_555
N3K Pd1K 1_555 1_555
N3G Pd1G 1_555 1_555
N3N Pd1N 1_555 1_555
N4K C16K 1_555 1_555
N4G C16G 1_555 1_555
N4N C16N 1_555 1_555
N5K C16 1_555 1_555
N5G C16K 1_555 1_555
N5N C16G 1_555 1_555
N6G C17G 1_555 1_555
N6N C17N 1_555 1_555
N6K C18 1_555 1_555
C19G C19 1_555 1_555
C19N C19K 1_555 1_555
C19K H13K 1_555 1_555
H13G C19G 1_555 1_555
H13N C19N 1_555 1_555
H14G C19G 1_555 1_555
H14K C19K 1_555 1_555
H14N C19N 1_555 1_555
C20G H15G 1_555 1_555
C20K H15K 1_555 1_555
C20N H15N 1_555 1_555
H16G C20G 1_555 1_555
H16K C20K 1_555 1_555
H16N C20N 1_555 1_555
H17G C20G 1_555 1_555
H17K C20K 1_555 1_555
H17N C20N 1_555 1_555
C21G H18G 1_555 1_555
C21K H18K 1_555 1_555
C21N H18N 1_555 1_555
H19G C21G 1_555 1_555
H19K C21K 1_555 1_555
H19N C21N 1_555 1_555
H20G C21G 1_555 1_555
H20K C21K 1_555 1_555
H20N C21N 1_555 1_555
C22G H21G 1_555 1_555
C22N H21N 1_555 1_555
C22K H21K 1_555 1_555
H22G C22G 1_555 1_555
H22N C22N 1_555 1_555
H22K C22K 1_555 1_555
H23G C22G 1_555 1_555
H23N C22N 1_555 1_555
H23K C22K 1_555 1_555
C23G H24G 1_555 1_555
C23N H24N 1_555 1_555
C23K H24K 1_555 1_555
H25G C23G 1_555 1_555
H25N C23N 1_555 1_555
H25K C23K 1_555 1_555
H26G C23G 1_555 1_555
H26N C23N 1_555 1_555
H26K C23K 1_555 1_555
C24G H27G 1_555 1_555
C24N H27N 1_555 1_555
C24K H27K 1_555 1_555
H28G C24G 1_555 1_555
H28N C24N 1_555 1_555
H28K C24K 1_555 1_555
C25G C24G 1_555 1_555
C25N C24N 1_555 1_555
C25K C24K 1_555 1_555
H29G C25G 1_555 1_555
H29N C25N 1_555 1_555
H29K C25K 1_555 1_555
H30G C25G 1_555 1_555
H30N C25N 1_555 1_555
H30K C25K 1_555 1_555
C26G H31G 1_555 1_555
C26N H31N 1_555 1_555
C26K H31K 1_555 1_555
H32G C26G 1_555 1_555
H32N C26N 1_555 1_555
H32K C26K 1_555 1_555
H33G C26G 1_555 1_555
H33N C26N 1_555 1_555
H33K C26K 1_555 1_555
C27G H34G 1_555 1_555
C27N H34N 1_555 1_555
C27K H34K 1_555 1_555
H35G C27G 1_555 1_555
H35N C27N 1_555 1_555
H35K C27K 1_555 1_555
H36G C27G 1_555 1_555
H36N C27N 1_555 1_555
H36K C27K 1_555 1_555
N7G Pd2 1_555 1_555
N7N Pd2N 1_555 1_555
N7K Pd2N 1_555 1_555
N8G Pd1G 1_555 1_555
N8N Pd1N 1_555 1_555
N8K Pd1K 1_555 1_555
N9G Pd1G 1_555 1_555
N9N Pd1N 1_555 1_555
N9K Pd1K 1_555 1_555
C28N H37N 1_555 1_555
C28G H37G 1_555 1_555
C28K H37K 1_555 1_555
H37N C39N 1_555 1_555
H37G C39G 1_555 1_555
H37K C39K 1_555 1_555
C29N C28N 1_555 1_555
C29G C28G 1_555 1_555
C29K C28K 1_555 1_555
H38N C29N 1_555 1_555
H38G C29G 1_555 1_555
H38K C29K 1_555 1_555
C30N C29N 1_555 1_555
C30G C29G 1_555 1_555
C30K C29K 1_555 1_555
H39N C30N 1_555 1_555
H39G C30G 1_555 1_555
H39K C30K 1_555 1_555
C31N C30N 1_555 1_555
C31G C30G 1_555 1_555
C31K C30K 1_555 1_555
C32N C37 1_555 1_555
C32G C31G 1_555 1_555
C32K C31K 1_555 1_555
C33N C49 1_555 1_555
C33G C28G 1_555 1_555
C33K C28K 1_555 1_555
C34N C33N 1_555 1_555
C34G C33G 1_555 1_555
C34K C33K 1_555 1_555
H40G C34G 1_555 1_555
H40N C34N 1_555 1_555
H40K C34K 1_555 1_555
C35N C36 1_555 1_555
C35G C34G 1_555 1_555
C35K C34K 1_555 1_555
H41K C35K 1_555 1_555
H41N C35N 1_555 1_555
H41G C35G 1_555 1_555
C36N C29N 1_555 1_555
C36G C29G 1_555 1_555
C36K C35 1_555 1_555
H42K C36K 1_555 1_555
H42N C36N 1_555 1_555
H42G C36G 1_555 1_555
C37G C29G 1_555 1_555
C37K C32 1_555 1_555
C37N C29N 1_555 1_555
C38G C28G 1_555 1_555
C38K O2 1_555 1_555
C38N C28N 1_555 1_555
C39N C28N 1_555 1_555
C39G C28G 1_555 1_555
C39K C28K 1_555 1_555
H43G C28G 1_555 1_555
H43K C28K 1_555 1_555
H43N C28N 1_555 1_555
C40G C28G 1_555 1_555
C40N C28N 1_555 1_555
C40K C28K 1_555 1_555
H44K C34K 1_555 1_555
H44N C34N 1_555 1_555
H44G C34G 1_555 1_555
C41G C34G 1_555 1_555
C41N C34N 1_555 1_555
C41K C34K 1_555 1_555
H45K C41K 1_555 1_555
H45N C41N 1_555 1_555
H45G C41G 1_555 1_555
C42G C41G 1_555 1_555
C42N C41N 1_555 1_555
C42K C41K 1_555 1_555
C43G C38G 1_555 1_555
C43N C38N 1_555 1_555
C43K C44 1_555 1_555
C44K C45 1_555 1_555
C44N C43 1_555 1_555
C44G C31G 1_555 1_555
C45K C42K 1_555 1_555
C45N C44 1_555 1_555
C45G C46 1_555 1_555
H46K C45K 1_555 1_555
H46N C45N 1_555 1_555
H46G C45G 1_555 1_555
C46N C45K 1_555 1_555
C46K C45K 1_555 1_555
C46G C45 1_555 1_555
H47K C46K 1_555 1_555
H47G C46G 1_555 1_555
H47N C46N 1_555 1_555
C47K C42K 1_555 1_555
C47N C42N 1_555 1_555
C47G C46 1_555 1_555
H48N C47N 1_555 1_555
H48G C47G 1_555 1_555
H48K C47K 1_555 1_555
C48K C41K 1_555 1_555
C48N C49 1_555 1_555
C48G C41G 1_555 1_555
H49K C41K 1_555 1_555
H49N C41N 1_555 1_555
H49G C41G 1_555 1_555
C49G C30G 1_555 1_555
C49K C32 1_555 1_555
C49N C30N 1_555 1_555
H50G C33G 1_555 1_555
H50K C33K 1_555 1_555
H50N C49 1_555 1_555
C50G C38G 1_555 1_555
C50N C38N 1_555 1_555
C50K C44 1_555 1_555
C51K C31K 1_555 1_555
C51G C31G 1_555 1_555
C51N C37 1_555 1_555
O1K C31K 1_555 1_555
O1G C31G 1_555 1_555
O1N C31N 1_555 1_555
O2K C31K 1_555 1_555
O2G C31G 1_555 1_555
O2N C38 1_555 1_555
N10K C30K 1_555 1_555
N10N C30N 1_555 1_555
N10G C30G 1_555 1_555
C52K C32 1_555 1_555
C52G C30G 1_555 1_555
C52N C30N 1_555 1_555
H51N C49 1_555 1_555
H51G C32G 1_555 1_555
H51K C32K 1_555 1_555
C53K C35 1_555 1_555
C53G C30G 1_555 1_555
C53N C30N 1_555 1_555
H52K C30K 1_555 1_555
H52N C30N 1_555 1_555
H52G C30G 1_555 1_555
H53N C36N 1_555 1_555
H53K C36K 1_555 1_555
H53G C36G 1_555 1_555
C54K C34K 1_555 1_555
C54N C53 1_555 1_555
C54G C34G 1_555 1_555
H54G C35G 1_555 1_555
H54K C35K 1_555 1_555
H54N C35N 1_555 1_555
H55K C34K 1_555 1_555
H55N C34N 1_555 1_555
H55G C34G 1_555 1_555
C55K C41K 1_555 1_555
C55N C41N 1_555 1_555
C55G C41G 1_555 1_555
H56G C55G 1_555 1_555
H56N C55N 1_555 1_555
H56K C55K 1_555 1_555
H57G C55G 1_555 1_555
H57N C55N 1_555 1_555
H57K C55K 1_555 1_555
C56N C41N 1_555 1_555
C56G C41G 1_555 1_555
C56K C41K 1_555 1_555
H58G C47G 1_555 1_555
H58N C47N 1_555 1_555
H58K C47K 1_555 1_555
H59N C41N 1_555 1_555
H59G C41G 1_555 1_555
H59K C41K 1_555 1_555
C57N C44 1_555 1_555
C57G C42G 1_555 1_555
C57K C42K 1_555 1_555
H60N C44N 1_555 1_555
H60K C45 1_555 1_555
H60G C44G 1_555 1_555
H61G C44G 1_555 1_555
H61K C45 1_555 1_555
H61N C44N 1_555 1_555
C5 N1 1_555 1_555
C10 N2 1_555 1_555
C13 N3 1_555 1_555
C14 C15 1_555 1_555
C14 N3 1_555 1_555
C18 N4 1_555 1_555
C19 N7 1_555 1_555
C20 N7 1_555 1_555
C21 N7 1_555 1_555
C22 N8 1_555 1_555
C23 N8 1_555 1_555
C24 N8 1_555 1_555
C25 N9 1_555 1_555
C26 N9 1_555 1_555
C27 N9 1_555 1_555
C29 C38 1_555 1_555
C29 C39 1_555 1_555
C29 H43 1_555 1_555
C30 C36 1_555 1_555
C30 C37 1_555 1_555
H39 C36 1_555 1_555
H39 C53 1_555 1_555
H39 H52 1_555 1_555
C31 N10 1_555 1_555
C31 C52 1_555 1_555
C32 C33 1_555 1_555
C32 C51 1_555 1_555
C32 O1 1_555 1_555
C32 N10 1_555 1_555
C33 C39 1_555 1_555
C33 C40 1_555 1_555
C33 C49K 1_555 1_555
C34 C40 1_555 1_555
H40 C40 1_555 1_555
H40 H44 1_555 1_555
H40 H55 1_555 1_555
C35 C54 1_555 1_555
H41 C54 1_555 1_555
H41 H54 1_555 1_555
C36 C37 1_555 1_555
C36 C49 1_555 1_555
C36 C53 1_555 1_555
C36 H52 1_555 1_555
H42 H52 1_555 1_555
C37 C38 1_555 1_555
C37 C49 1_555 1_555
C37 N10 1_555 1_555
C37 C52 1_555 1_555
C37 C53 1_555 1_555
C37 H53 1_555 1_555
C38 C39 1_555 1_555
C38 N10 1_555 1_555
C39 H43 1_555 1_555
C39 C40 1_555 1_555
C40 H44 1_555 1_555
C40 C41 1_555 1_555
C40 H55 1_555 1_555
C41 C54 1_555 1_555
H45 C55 1_555 1_555
C42 C43 1_555 1_555
C42 C48 1_555 1_555
C42 H49 1_555 1_555
C42 C56 1_555 1_555
C42 H59 1_555 1_555
C43 C48 1_555 1_555
C43 C50 1_555 1_555
C43 O2N 1_555 1_555
C44 O1 1_555 1_555
C44 O2 1_555 1_555
C45 C47 1_555 1_555
C45 C48 1_555 1_555
C45 C56 1_555 1_555
C45 C57 1_555 1_555
H46 C47 1_555 1_555
H46 C56 1_555 1_555
H46 C57 1_555 1_555
C46 C47 1_555 1_555
C46 C46G 1_555 1_555
H47 C47 1_555 1_555
C47 C56 1_555 1_555
C47 C57 1_555 1_555
C47 C46G 1_555 1_555
H48 C56 1_555 1_555
H48 H58 1_555 1_555
C48 H49 1_555 1_555
C48 C50 1_555 1_555
C48 H51 1_555 1_555
C48 C56 1_555 1_555
C48 C57 1_555 1_555
C48 C49K 1_555 1_555
C48 C52K 1_555 1_555
H49 H59 1_555 1_555
C49 C52 1_555 1_555
C49 C53 1_555 1_555
C49 C32N 1_555 1_555
C49 C51N 1_555 1_555
H50 C49K 1_555 1_555
H50 C53K 1_555 1_555
C50 N10 1_555 1_555
C50 C44N 1_555 1_555
C50 O2N 1_555 1_555
C51 O1 1_555 1_555
C51 O2 1_555 1_555
C51 N10 1_555 1_555
C51 H51 1_555 1_555
C51 C37K 1_555 1_555
C51 C49K 1_555 1_555
O1 O2 1_555 1_555
O2 C43K 1_555 1_555
O2 C50K 1_555 1_555
N10 C52 1_555 1_555
C52 C53 1_555 1_555
C52 C32N 1_555 1_555
C52 C48N 1_555 1_555
C52 H51N 1_555 1_555
C52 C57N 1_555 1_555
H51 C49K 1_555 1_555
H51 C52K 1_555 1_555
C53 H52 1_555 1_555
C53 H53 1_555 1_555
C53 C35N 1_555 1_555
C53 H50N 1_555 1_555
C54 H54 1_555 1_555
C54 H55 1_555 1_555
C54 C55 1_555 1_555
C54 C53K 1_555 1_555
C55 C56 1_555 1_555
C56 H58 1_555 1_555
C56 H59 1_555 1_555
C56 C57 1_555 1_555
C57 C44K 1_555 1_555
C57 C52K 1_555 1_555
C57 H60K 1_555 1_555
C57 H61K 1_555 1_555
H60 C45N 1_555 1_555
H60 C57N 1_555 1_555
H61 C45N 1_555 1_555
H61 C57N 1_555 1_555
C5K N1K 1_555 1_555
C5G N1G 1_555 1_555
C5N N1N 1_555 1_555
C6K N2K 1_555 1_555
C6G N2G 1_555 1_555
C8N C16N 1_555 1_555
C10K N2K 1_555 1_555
C10G N2G 1_555 1_555
C10N N2N 1_555 1_555
C11N C18N 1_555 1_555
C13K N3K 1_555 1_555
C13G N3G 1_555 1_555
C13N N3N 1_555 1_555
C14G C15G 1_555 1_555
C14G N3G 1_555 1_555
C14N C15N 1_555 1_555
C14N N3N 1_555 1_555
C14K C15K 1_555 1_555
C14K N3K 1_555 1_555
C17K N5K 1_555 1_555
C17K N6K 1_555 1_555
C17G N5G 1_555 1_555
C17N N5N 1_555 1_555
C18K N4K 1_555 1_555
C18K N6G 1_555 1_555
C18G N4G 1_555 1_555
C18G N6N 1_555 1_555
C18N N4N 1_555 1_555
C19G N7G 1_555 1_555
C19N N7N 1_555 1_555
C19K N7K 1_555 1_555
C20G N7G 1_555 1_555
C20K N7K 1_555 1_555
C20N N7N 1_555 1_555
C21G N7G 1_555 1_555
C21K N7K 1_555 1_555
C21N N7N 1_555 1_555
C22G N8G 1_555 1_555
C22N N8N 1_555 1_555
C22K N8K 1_555 1_555
C23G N8G 1_555 1_555
C23N N8N 1_555 1_555
C23K N8K 1_555 1_555
C24G N8G 1_555 1_555
C24N N8N 1_555 1_555
C24K N8K 1_555 1_555
C25G N9G 1_555 1_555
C25N N9N 1_555 1_555
C25K N9K 1_555 1_555
C26G N9G 1_555 1_555
C26N N9N 1_555 1_555
C26K N9K 1_555 1_555
C27G N9G 1_555 1_555
C27N N9N 1_555 1_555
C27K N9K 1_555 1_555
C28N C33N 1_555 1_555
C28K C38K 1_555 1_555
C29N C38N 1_555 1_555
C29N C39N 1_555 1_555
C29N H43N 1_555 1_555
C29G C38G 1_555 1_555
C29G C39G 1_555 1_555
C29G H43G 1_555 1_555
C29K C36K 1_555 1_555
C29K C37K 1_555 1_555
C29K C38K 1_555 1_555
C29K C39K 1_555 1_555
C29K H43K 1_555 1_555
C30N C36N 1_555 1_555
C30N C37N 1_555 1_555
C30G C36G 1_555 1_555
C30G C37G 1_555 1_555
C30K C36K 1_555 1_555
C30K C37K 1_555 1_555
C30K C49K 1_555 1_555
C30K C52K 1_555 1_555
C30K C53K 1_555 1_555
H39N C36N 1_555 1_555
H39N C53N 1_555 1_555
H39N H52N 1_555 1_555
H39G C36G 1_555 1_555
H39G C53G 1_555 1_555
H39G H52G 1_555 1_555
H39K C36K 1_555 1_555
H39K C53K 1_555 1_555
H39K H52K 1_555 1_555
C31N C32N 1_555 1_555
C31N C44N 1_555 1_555
C31N C51N 1_555 1_555
C31N O2N 1_555 1_555
C31N N10N 1_555 1_555
C31N C52N 1_555 1_555
C31G N10G 1_555 1_555
C31G C52G 1_555 1_555
C31K C44K 1_555 1_555
C31K N10K 1_555 1_555
C31K C52K 1_555 1_555
C32N C33N 1_555 1_555
C32N C51N 1_555 1_555
C32N O1N 1_555 1_555
C32N N10N 1_555 1_555
C32N H51N 1_555 1_555
C32G C33G 1_555 1_555
C32G C37N 1_555 1_555
C32G C49N 1_555 1_555
C32G C51G 1_555 1_555
C32G O1G 1_555 1_555
C32G N10G 1_555 1_555
C32G C52N 1_555 1_555
C32K C33K 1_555 1_555
C32K C37G 1_555 1_555
C32K C49G 1_555 1_555
C32K C51K 1_555 1_555
C32K O1K 1_555 1_555
C32K N10K 1_555 1_555
C32K C52G 1_555 1_555
C33N C39N 1_555 1_555
C33N C40N 1_555 1_555
C33N H50N 1_555 1_555
C33G C39G 1_555 1_555
C33G C40G 1_555 1_555
C33G C49N 1_555 1_555
C33K C39K 1_555 1_555
C33K C40K 1_555 1_555
C33K C49G 1_555 1_555
C34N C35N 1_555 1_555
C34N C40N 1_555 1_555
C34N C54N 1_555 1_555
C34G C40G 1_555 1_555
C34K C40K 1_555 1_555
H40G C40G 1_555 1_555
H40G H44G 1_555 1_555
H40G H55G 1_555 1_555
H40N C40N 1_555 1_555
H40N H44N 1_555 1_555
H40N H55N 1_555 1_555
H40K C40K 1_555 1_555
H40K H44K 1_555 1_555
H40K H55K 1_555 1_555
C35N C54N 1_555 1_555
C35G C36N 1_555 1_555
C35G C53N 1_555 1_555
C35G C54G 1_555 1_555
C35K C36G 1_555 1_555
C35K C53G 1_555 1_555
C35K C54K 1_555 1_555
H41K C54K 1_555 1_555
H41K H54K 1_555 1_555
H41N C54N 1_555 1_555
H41N H54N 1_555 1_555
H41G C54G 1_555 1_555
H41G H54G 1_555 1_555
C36N C37N 1_555 1_555
C36N C49N 1_555 1_555
C36N C53N 1_555 1_555
C36N H52N 1_555 1_555
C36G C37G 1_555 1_555
C36G C49G 1_555 1_555
C36G C53G 1_555 1_555
C36G H52G 1_555 1_555
C36K C37K 1_555 1_555
C36K C49K 1_555 1_555
C36K C53K 1_555 1_555
C36K H52K 1_555 1_555
H42K H52K 1_555 1_555
H42N H52N 1_555 1_555
H42G H52G 1_555 1_555
C37G C38G 1_555 1_555
C37G C49G 1_555 1_555
C37G C51K 1_555 1_555
C37G N10G 1_555 1_555
C37G C52G 1_555 1_555
C37G C53G 1_555 1_555
C37G H53G 1_555 1_555
C37K C38K 1_555 1_555
C37K C49K 1_555 1_555
C37K N10K 1_555 1_555
C37K C52K 1_555 1_555
C37K C53K 1_555 1_555
C37K H53K 1_555 1_555
C37N C38N 1_555 1_555
C37N C49N 1_555 1_555
C37N C51G 1_555 1_555
C37N N10N 1_555 1_555
C37N C52N 1_555 1_555
C37N C53N 1_555 1_555
C37N H53N 1_555 1_555
C38G C39G 1_555 1_555
C38G O2K 1_555 1_555
C38G N10G 1_555 1_555
C38K C39K 1_555 1_555
C38K C43K 1_555 1_555
C38K C50K 1_555 1_555
C38K N10K 1_555 1_555
C38N C39N 1_555 1_555
C38N O2G 1_555 1_555
C38N N10N 1_555 1_555
C39N H43N 1_555 1_555
C39N C40N 1_555 1_555
C39G H43G 1_555 1_555
C39G C40G 1_555 1_555
C39K H43K 1_555 1_555
C39K C40K 1_555 1_555
C40G H44G 1_555 1_555
C40G C41G 1_555 1_555
C40G H55G 1_555 1_555
C40N H44N 1_555 1_555
C40N C41N 1_555 1_555
C40N H55N 1_555 1_555
C40K H44K 1_555 1_555
C40K C41K 1_555 1_555
C40K H55K 1_555 1_555
C41G C54G 1_555 1_555
C41N C48N 1_555 1_555
C41N C54N 1_555 1_555
C41K C54K 1_555 1_555
H45K C55K 1_555 1_555
H45N C55N 1_555 1_555
H45G C55G 1_555 1_555
C42G C43G 1_555 1_555
C42G C45G 1_555 1_555
C42G C47G 1_555 1_555
C42G C48G 1_555 1_555
C42G H49G 1_555 1_555
C42G C56G 1_555 1_555
C42G H59G 1_555 1_555
C42N C43N 1_555 1_555
C42N C45N 1_555 1_555
C42N C48N 1_555 1_555
C42N H49N 1_555 1_555
C42N C56N 1_555 1_555
C42N H59N 1_555 1_555
C42N C57N 1_555 1_555
C42K C43K 1_555 1_555
C42K C48K 1_555 1_555
C42K H49K 1_555 1_555
C42K C56K 1_555 1_555
C42K H59K 1_555 1_555
C43G C44K 1_555 1_555
C43G C48G 1_555 1_555
C43G C50G 1_555 1_555
C43G O2K 1_555 1_555
C43N C44G 1_555 1_555
C43N C48N 1_555 1_555
C43N C50N 1_555 1_555
C43N O2G 1_555 1_555
C43K C48K 1_555 1_555
C43K C50K 1_555 1_555
C44K C50G 1_555 1_555
C44K O1K 1_555 1_555
C44K O2K 1_555 1_555
C44K H60K 1_555 1_555
C44K H61K 1_555 1_555
C44N C45G 1_555 1_555
C44N O1N 1_555 1_555
C44N O2N 1_555 1_555
C44N C57G 1_555 1_555
C44G C45K 1_555 1_555
C44G C50N 1_555 1_555
C44G O1G 1_555 1_555
C44G O2G 1_555 1_555
C44G C57K 1_555 1_555
C45K C47K 1_555 1_555
C45K C48K 1_555 1_555
C45K C56K 1_555 1_555
C45K C57K 1_555 1_555
C45K H60G 1_555 1_555
C45K H61G 1_555 1_555
C45N C46N 1_555 1_555
C45N C46K 1_555 1_555
C45N C47N 1_555 1_555
C45N C48N 1_555 1_555
C45N C56N 1_555 1_555
C45N C57N 1_555 1_555
C45G C46G 1_555 1_555
C45G C47G 1_555 1_555
C45G C48G 1_555 1_555
C45G C56G 1_555 1_555
C45G C57G 1_555 1_555
C45G H60N 1_555 1_555
C45G H61N 1_555 1_555
H46K C47K 1_555 1_555
H46K C56K 1_555 1_555
H46K C57K 1_555 1_555
H46N C47N 1_555 1_555
H46N C56N 1_555 1_555
H46N C57N 1_555 1_555
H46G C47G 1_555 1_555
H46G C56G 1_555 1_555
H46G C57G 1_555 1_555
C46N C46K 1_555 1_555
C46N C47K 1_555 1_555
C46N C47N 1_555 1_555
C46K C47K 1_555 1_555
C46K C47N 1_555 1_555
C46G C47G 1_555 1_555
H47K C47K 1_555 1_555
H47G C47G 1_555 1_555
H47N C47N 1_555 1_555
C47K C56K 1_555 1_555
C47K C57K 1_555 1_555
C47N C56N 1_555 1_555
C47N C57N 1_555 1_555
C47G C56G 1_555 1_555
C47G C57G 1_555 1_555
H48N C56N 1_555 1_555
H48N H58N 1_555 1_555
H48G C56G 1_555 1_555
H48G H58G 1_555 1_555
H48K C56K 1_555 1_555
H48K H58K 1_555 1_555
C48K H49K 1_555 1_555
C48K C49G 1_555 1_555
C48K C50K 1_555 1_555
C48K C52G 1_555 1_555
C48K H51K 1_555 1_555
C48K C56K 1_555 1_555
C48K C57K 1_555 1_555
C48N H49N 1_555 1_555
C48N C50N 1_555 1_555
C48N H51N 1_555 1_555
C48N C56N 1_555 1_555
C48N C57N 1_555 1_555
C48G H49G 1_555 1_555
C48G C49N 1_555 1_555
C48G C50G 1_555 1_555
C48G C52N 1_555 1_555
C48G H51G 1_555 1_555
C48G C56G 1_555 1_555
C48G C57G 1_555 1_555
H49K H59K 1_555 1_555
H49N H59N 1_555 1_555
H49G H59G 1_555 1_555
C49G H50K 1_555 1_555
C49G C51K 1_555 1_555
C49G C52G 1_555 1_555
C49G H51K 1_555 1_555
C49G C53G 1_555 1_555
C49K C52K 1_555 1_555
C49K C53K 1_555 1_555
C49N H50G 1_555 1_555
C49N C51G 1_555 1_555
C49N C52N 1_555 1_555
C49N H51G 1_555 1_555
C49N C53N 1_555 1_555
H50G C53N 1_555 1_555
H50K C53G 1_555 1_555
C50G O2K 1_555 1_555
C50G N10G 1_555 1_555
C50N O2G 1_555 1_555
C50N N10N 1_555 1_555
C50K N10K 1_555 1_555
C51K O1K 1_555 1_555
C51K O2K 1_555 1_555
C51K N10K 1_555 1_555
C51K H51K 1_555 1_555
C51G O1G 1_555 1_555
C51G O2G 1_555 1_555
C51G N10G 1_555 1_555
C51G H51G 1_555 1_555
C51N O1N 1_555 1_555
C51N O2N 1_555 1_555
C51N N10N 1_555 1_555
C51N H51N 1_555 1_555
O1K O2K 1_555 1_555
O1G O2G 1_555 1_555
O1N O2N 1_555 1_555
N10K C52K 1_555 1_555
N10N C52N 1_555 1_555
N10G C52G 1_555 1_555
C52K C53K 1_555 1_555
C52G H51K 1_555 1_555
C52G C53G 1_555 1_555
C52G C57K 1_555 1_555
C52N H51G 1_555 1_555
C52N C53N 1_555 1_555
C52N C57G 1_555 1_555
C53K H52K 1_555 1_555
C53K H53K 1_555 1_555
C53G H52G 1_555 1_555
C53G H53G 1_555 1_555
C53G C54K 1_555 1_555
C53N H52N 1_555 1_555
C53N H53N 1_555 1_555
C53N C54G 1_555 1_555
C54K H54K 1_555 1_555
C54K H55K 1_555 1_555
C54K C55K 1_555 1_555
C54N H54N 1_555 1_555
C54N H55N 1_555 1_555
C54N C55N 1_555 1_555
C54G H54G 1_555 1_555
C54G H55G 1_555 1_555
C54G C55G 1_555 1_555
C55K C56K 1_555 1_555
C55N C56N 1_555 1_555
C55G C56G 1_555 1_555
C56N H58N 1_555 1_555
C56N H59N 1_555 1_555
C56N C57N 1_555 1_555
C56G H58G 1_555 1_555
C56G H59G 1_555 1_555
C56G C57G 1_555 1_555
C56K H58K 1_555 1_555
C56K H59K 1_555 1_555
C56K C57K 1_555 1_555
C57G H60N 1_555 1_555
C57G H61N 1_555 1_555
C57K H60G 1_555 1_555
C57K H61G 1_555 1_555

#END
