
#######################################################################
#
#                 Cambridge Crystallographic Data Centre
#                                CCDC 
#
#######################################################################
#
# If this CIF has been generated from an entry in the Cambridge 
# Structural Database, then it will include bibliographic, chemical, 
# crystal, experimental, refinement or atomic coordinate data resulting 
# from the CCDC's data processing and validation procedures.
#
#######################################################################

data_ODUMAC
_chemical_formula_moiety         
'C108 H144 N36 Pd6 12+,C26 H23 N1 O2,12(N1 O3 1-),73.5(H2 O1)'
_chemical_name_systematic        
"tetrakis(\m~3~-2,4,6-tris(4-Pyridyl)-1,3,5-triazine)-hexakis(N,N,N',N'-tetramethylethylenediamine)-hexa-palladium 10-cyclohexyl-11a,11b-dihydro-8bH-pyreno(4',5':3,4)cyclobuta(1,2-c)pyrrole-9,11(8cH,10H)-dione clathrate dodecanitrate hydrate"
_symmetry_cell_setting           tetragonal
_symmetry_space_group_name_H-M   'I 41/a'
_symmetry_Int_Tables_number      88
_space_group_name_Hall           '-I 4ad'
loop_
_symmetry_equiv_pos_site_id
_symmetry_equiv_pos_as_xyz
1 x,y,z
2 3/4-y,1/4+x,1/4+z
3 1/2+x,1/2+y,1/2+z
4 1/4-y,3/4+x,3/4+z
5 1/4+y,1/4-x,1/4+z
6 1/2-x,-y,1/2+z
7 3/4+y,3/4-x,3/4+z
8 -x,1/2-y,z
9 -x,-y,-z
10 1/4+y,3/4-x,3/4-z
11 1/2-x,1/2-y,1/2-z
12 3/4+y,1/4-x,1/4-z
13 3/4-y,3/4+x,3/4-z
14 1/2+x,y,1/2-z
15 1/4-y,1/4+x,1/4-z
16 x,1/2+y,-z
_cell_length_a                   26.2759(19)
_cell_length_b                   26.2759(19)
_cell_length_c                   31.734(5)
_cell_angle_alpha                90
_cell_angle_beta                 90
_cell_angle_gamma                90
_cell_volume                     21909.9
_exptl_crystal_colour            yellow
_exptl_crystal_description       block
_cell_formula_units_Z            4
loop_
_atom_site_label
_atom_site_type_symbol
_atom_site_fract_x
_atom_site_fract_y
_atom_site_fract_z
C28 C -0.0212(11) -0.2793(12) -0.2097(10)
C29 C -0.0517(16) -0.2512(14) -0.2362(11)
H37 H -0.0372 -0.2341 -0.2597
C30 C -0.1038(15) -0.2478(15) -0.2287(13)
H38 H -0.1243 -0.2260 -0.2455
C31 C -0.1259(12) -0.277(2) -0.1964(15)
H39 H -0.1618 -0.2798 -0.1943
C32 C -0.0940(12) -0.3008(17) -0.1671(13)
C33 C -0.1152(12) -0.3244(17) -0.1320(13)
H40 H -0.1501 -0.3196 -0.1254
C34 C -0.0843(12) -0.3554(15) -0.1063(11)
H41 H -0.0992 -0.3754 -0.0846
C35 C -0.0328(12) -0.3566(17) -0.1126(12)
C36 C -0.1400(15) -0.2471(18) -0.1608(14)
H42 H -0.1635 -0.2318 -0.1796
C37 C -0.1384(15) -0.2999(16) -0.1561(12)
H43 H -0.1557 -0.3210 -0.1757
C38 C -0.1117(12) -0.3215(18) -0.1230(13)
H44 H -0.1103 -0.3575 -0.1200
C39 C -0.0867(11) -0.2904(16) -0.0939(13)
C40 C -0.0428(12) -0.3068(19) -0.1760(12)
C41 C -0.0117(11) -0.3347(16) -0.1499(11)
C42 C 0.0338(12) -0.2792(13) -0.2208(10)
H45 H -0.0382 -0.2139 -0.2516
C43 C -0.0647(12) -0.3185(11) -0.0550(11)
H46 H -0.0916 -0.3351 -0.0374
C44 C -0.1042(10) -0.2304(11) -0.1854(9)
H47 H -0.1392 -0.2285 -0.1977
C45 C -0.0666(12) -0.2662(11) -0.2076(9)
H48 H -0.0813 -0.2862 -0.2314
C46 C -0.1006(11) -0.2473(11) -0.1396(9)
C47 C -0.0469(13) -0.2977(11) -0.1713(11)
O1 O -0.0797(14) -0.2357(12) -0.0769(13)
O2 O -0.0236(13) -0.3772(14) -0.1378(10)
N10 N -0.0664(12) -0.2849(11) -0.1331(9)
C48 C -0.0594(16) -0.3091(16) -0.0914(10)
H49 H -0.0852 -0.2872 -0.0771
C49 C -0.0841(17) -0.358(2) -0.0785(16)
H50 H -0.1096 -0.3684 -0.0999
H51 H -0.1018 -0.3537 -0.0512
C50 C -0.044(3) -0.4000(15) -0.074(2)
H52 H -0.0601 -0.4316 -0.0643
H53 H -0.1570 -0.2211 -0.1475
C51 C -0.136(2) -0.2480(19) -0.205(2)
H54 H -0.1634 -0.2740 -0.2050
H55 H -0.1333 -0.2342 -0.2340
C52 C -0.0860(17) -0.273(2) -0.192(2)
H56 H -0.0755 -0.2978 -0.2138
H57 H -0.0901 -0.2910 -0.1652
C53 C -0.043(2) -0.2340(15) -0.1871(15)
H58 H -0.0340 -0.2197 -0.2151
H59 H -0.0126 -0.2504 -0.1753
C28G C 0.0212(11) -0.2207(12) -0.2097(10)
C28I C -0.0293(12) -0.2288(11) -0.0403(10)
C28L C 0.0293(12) -0.2712(11) -0.0403(10)
C29G C 0.0517(16) -0.2488(14) -0.2362(11)
C29I C -0.0012(14) -0.1983(16) -0.0138(11)
C29L C 0.0012(14) -0.3017(16) -0.0138(11)
H37G H 0.0372 -0.2659 -0.2597
H37I H 0.0159 -0.2128 0.0097
H37L H -0.0159 -0.2872 0.0097
C30I C 0.0022(15) -0.1462(15) -0.0213(13)
C30G C 0.1038(15) -0.2522(15) -0.2287(13)
C30L C -0.0022(15) -0.3538(15) -0.0213(13)
H38I H 0.0240 -0.1257 -0.0045
H38G H 0.1243 -0.2740 -0.2455
H38L H -0.0240 -0.3743 -0.0045
C31I C -0.027(2) -0.1241(12) -0.0536(15)
C31G C 0.1259(12) -0.223(2) -0.1964(15)
C31L C 0.027(2) -0.3759(12) -0.0536(15)
H39I H -0.0298 -0.0882 -0.0557
H39G H 0.1618 -0.2202 -0.1943
H39L H 0.0298 -0.4118 -0.0557
C32I C -0.0508(17) -0.1560(12) -0.0829(13)
C32G C 0.0940(12) -0.1992(17) -0.1671(13)
C32L C 0.0508(17) -0.3440(12) -0.0829(13)
C33I C -0.0744(17) -0.1348(12) -0.1180(13)
C33G C 0.1152(12) -0.1756(17) -0.1320(13)
C33L C 0.0744(17) -0.3652(12) -0.1180(13)
H40I H -0.0696 -0.0999 -0.1246
H40G H 0.1501 -0.1804 -0.1254
H40L H 0.0696 -0.4001 -0.1246
C34G C 0.0843(12) -0.1446(15) -0.1063(11)
C34L C 0.1054(15) -0.3343(12) -0.1437(11)
C34I C -0.1054(15) -0.1657(12) -0.1437(11)
H41I H -0.1254 -0.1508 -0.1654
H41G H 0.0992 -0.1246 -0.0846
H41L H 0.1254 -0.3492 -0.1654
C35G C 0.0328(12) -0.1434(17) -0.1126(12)
C35L C 0.1066(17) -0.2828(12) -0.1374(12)
C35I C -0.1066(17) -0.2172(12) -0.1374(12)
C36I C 0.0029(18) -0.1100(15) -0.0892(14)
C36G C 0.1400(15) -0.2529(18) -0.1608(14)
C36L C -0.0029(18) -0.3900(15) -0.0892(14)
H42I H 0.0182 -0.0865 -0.0704
H42G H 0.1635 -0.2682 -0.1796
H42L H -0.0182 -0.4135 -0.0704
C37I C -0.0499(16) -0.1116(15) -0.0939(12)
C37G C 0.1384(15) -0.2001(16) -0.1561(12)
C37L C 0.0499(16) -0.3884(15) -0.0939(12)
H43L H 0.0710 -0.4057 -0.0743
H43G H 0.1557 -0.1790 -0.1757
H43I H -0.0710 -0.0943 -0.0743
C38I C -0.0715(18) -0.1383(12) -0.1270(13)
C38G C 0.1117(12) -0.1785(18) -0.1230(13)
C38L C 0.0715(18) -0.3617(12) -0.1270(13)
H44G H 0.1103 -0.1425 -0.1200
H44L H 0.1075 -0.3603 -0.1300
H44I H -0.1075 -0.1397 -0.1300
C39I C -0.0404(16) -0.1633(11) -0.1561(13)
C39G C 0.0867(11) -0.2096(16) -0.0939(13)
C39L C 0.0404(16) -0.3367(11) -0.1561(13)
C40I C -0.0568(19) -0.2072(12) -0.0740(12)
C40G C 0.0428(12) -0.1932(19) -0.1760(12)
C40L C 0.0568(19) -0.2928(12) -0.0740(12)
C41G C 0.0117(11) -0.1653(16) -0.1499(11)
C41L C 0.0847(16) -0.2617(11) -0.1001(11)
C41I C -0.0847(16) -0.2383(11) -0.1001(11)
C42G C -0.0338(12) -0.2208(13) -0.2208(10)
C42I C -0.0292(13) -0.2838(12) -0.0292(10)
C42L C 0.0292(13) -0.2162(12) -0.0292(10)
H45I H 0.0361 -0.2118 0.0016
H45G H 0.0382 -0.2861 -0.2516
H45L H -0.0361 -0.2882 0.0016
C43I C -0.0685(11) -0.1853(12) -0.1950(11)
C43G C 0.0647(12) -0.1815(11) -0.0550(11)
C43L C 0.0685(11) -0.3147(12) -0.1950(11)
H46I H -0.0851 -0.1584 -0.2126
H46G H 0.0916 -0.1649 -0.0374
H46L H 0.0851 -0.3416 -0.2126
C44I C 0.0196(11) -0.1458(10) -0.0646(9)
C44G C 0.1042(10) -0.2696(11) -0.1854(9)
C44L C -0.0196(11) -0.3542(10) -0.0646(9)
H47I H 0.0215 -0.1108 -0.0523
H47G H 0.1392 -0.2715 -0.1977
H47L H -0.0215 -0.3892 -0.0523
C45I C -0.0162(11) -0.1834(12) -0.0424(9)
C45G C 0.0666(12) -0.2338(11) -0.2076(9)
C45L C 0.0162(11) -0.3166(12) -0.0424(9)
H48L H 0.0362 -0.3313 -0.0186
H48I H -0.0362 -0.1687 -0.0186
H48G H 0.0813 -0.2138 -0.2314
C46I C 0.0027(11) -0.1494(11) -0.1104(9)
C46G C 0.1006(11) -0.2527(11) -0.1396(9)
C46L C -0.0027(11) -0.3506(11) -0.1104(9)
C47I C -0.0477(11) -0.2031(13) -0.0787(11)
C47G C 0.0469(13) -0.2023(11) -0.1713(11)
C47L C 0.0477(11) -0.2969(13) -0.0787(11)
O1G O 0.0797(14) -0.2643(12) -0.0769(13)
O1I O 0.0143(12) -0.1703(14) -0.1731(13)
O1L O -0.0143(12) -0.3297(14) -0.1731(13)
O2I O -0.1272(14) -0.2264(13) -0.1122(10)
O2G O 0.0236(13) -0.1228(14) -0.1378(10)
O2L O 0.1272(14) -0.2736(13) -0.1122(10)
N10G N 0.0664(12) -0.2151(11) -0.1331(9)
N10L N 0.0349(11) -0.3164(12) -0.1169(9)
N10I N -0.0349(11) -0.1836(12) -0.1169(9)
C48G C 0.0594(16) -0.1909(16) -0.0914(10)
C48L C 0.0591(16) -0.3094(16) -0.1586(10)
C48I C -0.0591(16) -0.1906(16) -0.1586(10)
H49G H 0.0852 -0.2128 -0.0771
H49I H -0.0372 -0.1648 -0.1729
H49L H 0.0372 -0.3352 -0.1729
C49I C -0.108(2) -0.1659(17) -0.1715(16)
C49G C 0.0841(17) -0.142(2) -0.0785(16)
C49L C 0.108(2) -0.3341(17) -0.1715(16)
H50G H 0.1096 -0.1316 -0.0999
H50I H -0.1184 -0.1404 -0.1501
H50L H 0.1184 -0.3596 -0.1501
H51I H -0.1037 -0.1482 -0.1988
H51G H 0.1018 -0.1463 -0.0512
H51L H 0.1037 -0.3518 -0.1988
C50G C 0.044(3) -0.1000(15) -0.074(2)
C50L C 0.1500(15) -0.294(3) -0.176(2)
C50I C -0.1500(15) -0.206(3) -0.176(2)
H52G H 0.0601 -0.0684 -0.0643
H52L H 0.1816 -0.3101 -0.1857
H52I H -0.1816 -0.1899 -0.1857
H53I H 0.0289 -0.0930 -0.1025
H53G H 0.1570 -0.2789 -0.1475
H53L H -0.0289 -0.4070 -0.1025
C51I C 0.0020(19) -0.114(2) -0.045(2)
C51G C 0.136(2) -0.2520(19) -0.205(2)
C51L C -0.0020(19) -0.386(2) -0.045(2)
H54I H -0.0240 -0.0866 -0.0450
H54L H 0.0240 -0.4134 -0.0450
H54G H 0.1634 -0.2260 -0.2050
H55I H 0.0158 -0.1167 -0.0160
H55G H 0.1333 -0.2658 -0.2340
H55L H -0.0158 -0.3833 -0.0160
C52L C 0.023(2) -0.3360(17) -0.058(2)
C52I C -0.023(2) -0.1640(17) -0.058(2)
C52G C 0.0860(17) -0.227(2) -0.192(2)
H56I H -0.0478 -0.1745 -0.0362
H56L H 0.0478 -0.3255 -0.0362
H56G H 0.0755 -0.2022 -0.2138
H57G H 0.0901 -0.2090 -0.1652
H57L H 0.0410 -0.3401 -0.0848
H57I H -0.0410 -0.1599 -0.0848
C53L C -0.0160(15) -0.293(2) -0.0629(15)
C53I C 0.0160(15) -0.207(2) -0.0629(15)
C53G C 0.043(2) -0.2660(15) -0.1871(15)
H58L H -0.0303 -0.2840 -0.0349
H58I H 0.0303 -0.2160 -0.0349
H58G H 0.0340 -0.2803 -0.2151
H59G H 0.0126 -0.2496 -0.1753
H59L H 0.0004 -0.2626 -0.0747
H59I H -0.0004 -0.2374 -0.0747
O3 O 0.0452(17) -0.0191(17) -0.0705(15)
O4 O -0.0394(13) -0.0309(13) -0.0424(11)
N11 N 0.6449(9) 0.2188(10) 0.0624(7)
O5 O 0.6442(15) 0.1810(12) 0.0408(11)
O6 O 0.6258(4) 0.2268(4) 0.0945(3)
O7 O 0.6733(11) 0.2567(11) 0.0476(9)
O14 O 0.7104(9) 0.1972(9) -0.0369(8)
O18 O 0.6086(7) 0.1347(8) -0.0468(6)
N13 N 0.7866(9) 0.2731(11) -0.1152(8)
O19 O 0.8110(8) 0.2703(8) -0.1477(6)
O20 O 0.7671(7) 0.2406(7) -0.0940(6)
O21 O 0.7829(13) 0.3206(11) -0.1015(11)
O27 O 0.5413(6) -0.0670(6) 0.0377(5)
O28 O 0.6044(6) -0.1348(5) 0.0731(4)
O29 O 0.5870(5) -0.2537(6) 0.0829(4)
O30 O 0.6734(6) 0.4303(6) 0.0366(6)
O31 O 0.4221(5) 0.0285(5) 0.0336(4)
O33 O 1.0000 0.2500 -0.3750
O34 O 1.3343(10) -0.0931(12) -0.2100(8)
O35 O 0.6605(7) -0.1989(7) 0.1078(6)
O38 O 1.3510(15) -0.2021(16) -0.1864(13)
O41 O 0.8347(19) 0.4022(18) -0.0959(17)
O43 O 1.2012(12) -0.1423(12) -0.3117(10)
O45 O 0.5135(12) -0.0872(12) 0.0963(10)
O46 O 0.7604(12) 0.4040(12) -0.0444(10)
O47 O 0.7684(5) 0.4779(5) -0.0469(4)
O48 O 1.3253(6) 0.1869(6) -0.1960(5)
O49 O 1.3170(10) -0.3009(11) -0.1428(9)
O53 O 1.337(2) -0.287(2) -0.2259(17)
O55 O 0.6845(18) 0.3518(19) 0.0221(15)
O56 O 1.2951(9) -0.1744(9) -0.2257(7)
Pd1 Pd 0.284202(14) -0.040831(14) -0.125685(11)
Pd2 Pd 0.0000 -0.2500 0.166216(16)
C1 C 0.2312(2) -0.1000(2) -0.06020(18)
H1 H 0.2256 -0.0673 -0.0484
C2 C 0.2093(3) -0.1420(2) -0.04096(18)
H2 H 0.1894 -0.1381 -0.0162
C3 C 0.2171(2) -0.1901(2) -0.05858(19)
C4 C 0.2473(2) -0.1937(2) -0.09454(19)
H3 H 0.2534 -0.2259 -0.1072
C5 C 0.2680(2) -0.1506(2) -0.11158(19)
H4 H 0.2887 -0.1536 -0.1360
C6 C 0.0609(2) -0.3037(2) 0.10217(19)
H5 H 0.0458 -0.3329 0.1147
C7 C 0.0914(3) -0.3098(2) 0.06704(19)
H6 H 0.0971 -0.3427 0.0555
C8 C 0.1137(2) -0.26719(19) 0.04886(17)
C9 C 0.1035(2) -0.2200(2) 0.06627(17)
H7 H 0.1177 -0.1901 0.0542
C10 C 0.0727(2) -0.21687(19) 0.10114(16)
H8 H 0.0660 -0.1844 0.1130
C11 C 0.1742(2) -0.0235(2) -0.13810(19)
H9 H 0.1775 -0.0041 -0.1130
C12 C 0.1269(3) -0.0303(2) -0.1554(2)
H10 H 0.0979 -0.0154 -0.1425
C13 C 0.1212(2) -0.0590(2) -0.19204(18)
C14 C 0.1645(3) -0.0789(2) -0.21026(19)
H11 H 0.1623 -0.0980 -0.2356
C15 C 0.2110(3) -0.0708(2) -0.19149(18)
H12 H 0.2406 -0.0849 -0.2042
C16 C 0.1938(2) -0.2362(2) -0.03962(18)
C17 C 0.1462(2) -0.2720(2) 0.01076(18)
C18 C 0.0707(2) -0.0680(2) -0.21063(19)
N1 N 0.26015(17) -0.10415(16) -0.09499(14)
N2 N 0.05184(17) -0.25796(16) 0.11900(13)
N3 N 0.21599(16) -0.04374(17) -0.15590(14)
N4 N 0.1658(2) -0.22936(17) -0.00500(15)
N5 N 0.0686(2) -0.09670(17) -0.24513(15)
N6 N 0.2030(2) -0.28063(17) -0.05830(16)
C19 C 0.3770(4) 0.0100(3) -0.1065(4)
H13 H 0.3680 0.0352 -0.0845
H14 H 0.4144 0.0058 -0.1061
C20 C 0.3629(4) 0.0287(5) -0.1445(3)
H15 H 0.3841 0.0119 -0.1663
H16 H 0.3714 0.0654 -0.1450
C21 C 0.3472(4) -0.0422(6) -0.0490(3)
H17 H 0.3808 -0.0413 -0.0356
H18 H 0.3300 -0.0742 -0.0418
H19 H 0.3268 -0.0135 -0.0391
C22 C 0.3853(2) -0.0811(3) -0.1090(3)
H20 H 0.4180 -0.0792 -0.0942
H21 H 0.3910 -0.0792 -0.1394
H22 H 0.3684 -0.1133 -0.1021
C23 C 0.2791(5) 0.0674(3) -0.1428(4)
H23 H 0.2908 0.0979 -0.1577
H24 H 0.2840 0.0720 -0.1124
H25 H 0.2429 0.0618 -0.1487
C24 C 0.3083(3) 0.0179(3) -0.2026(2)
H26 H 0.3202 0.0496 -0.2154
H27 H 0.2736 0.0106 -0.2122
H28 H 0.3309 -0.0101 -0.2108
C25 C -0.0275(3) -0.2591(3) 0.25299(19)
H29 H -0.0285 -0.2967 0.2544
H30 H -0.0456 -0.2454 0.2779
C26 C -0.0991(2) -0.2725(3) 0.2072(2)
H31 H -0.1226 -0.2674 0.2308
H32 H -0.0898 -0.3086 0.2054
H33 H -0.1156 -0.2621 0.1809
C27 C -0.0676(3) -0.1863(3) 0.2166(2)
H34 H -0.0922 -0.1819 0.2394
H35 H -0.0831 -0.1758 0.1898
H36 H -0.0375 -0.1653 0.2221
N7 N 0.35330(19) -0.0389(2) -0.09579(16)
N8 N 0.30862(19) 0.02309(19) -0.15713(16)
N9 N -0.0522(2) -0.2412(2) 0.21390(15)
Pd1G Pd -0.284202(14) -0.459169(14) -0.125685(11)
Pd1L Pd -0.209169(14) 0.034202(14) -0.124315(11)
Pd1I Pd 0.209169(14) -0.534202(14) -0.124315(11)
Pd2I Pd 0.0000 -0.2500 -0.416216(16)
C1G C -0.2312(2) -0.4000(2) -0.06020(18)
C1L C -0.1500(2) -0.0188(2) -0.18980(18)
C1I C 0.1500(2) -0.4812(2) -0.18980(18)
H1G H -0.2256 -0.4327 -0.0484
H1L H -0.1827 -0.0244 -0.2016
H1I H 0.1827 -0.4756 -0.2016
C2G C -0.2093(3) -0.3580(2) -0.04096(18)
C2L C -0.1080(2) -0.0407(3) -0.20904(18)
C2I C 0.1080(2) -0.4593(3) -0.20904(18)
H2L H -0.1119 -0.0606 -0.2338
H2I H 0.1119 -0.4394 -0.2338
H2G H -0.1894 -0.3619 -0.0162
C3G C -0.2171(2) -0.3099(2) -0.05858(19)
C3L C -0.0599(2) -0.0329(2) -0.19142(19)
C3I C 0.0599(2) -0.4671(2) -0.19142(19)
C4L C -0.0563(2) -0.0027(2) -0.15546(19)
C4I C 0.0563(2) -0.4973(2) -0.15546(19)
C4G C -0.2473(2) -0.3063(2) -0.09454(19)
H3L H -0.0241 0.0034 -0.1428
H3I H 0.0241 -0.5034 -0.1428
H3G H -0.2534 -0.2741 -0.1072
C5L C -0.0994(2) 0.0180(2) -0.13842(19)
C5I C 0.0994(2) -0.5180(2) -0.13842(19)
C5G C -0.2680(2) -0.3494(2) -0.11158(19)
H4L H -0.0964 0.0387 -0.1140
H4I H 0.0964 -0.5387 -0.1140
H4G H -0.2887 -0.3464 -0.1360
C6G C -0.0609(2) -0.1963(2) 0.10217(19)
C6I C -0.0537(2) -0.3109(2) -0.35217(19)
C6L C 0.0537(2) -0.1891(2) -0.35217(19)
H5G H -0.0458 -0.1671 0.1147
H5I H -0.0829 -0.2958 -0.3647
H5L H 0.0829 -0.2042 -0.3647
C7G C -0.0914(3) -0.1902(2) 0.06704(19)
C7I C -0.0598(2) -0.3414(3) -0.31704(19)
C7L C 0.0598(2) -0.1586(3) -0.31704(19)
H6G H -0.0971 -0.1573 0.0555
H6L H 0.0927 -0.1529 -0.3055
H6I H -0.0927 -0.3471 -0.3055
C8G C -0.1137(2) -0.23281(19) 0.04886(17)
C8I C -0.01719(19) -0.3637(2) -0.29886(17)
C8L C 0.01719(19) -0.1363(2) -0.29886(17)
C9G C -0.1035(2) -0.2800(2) 0.06627(17)
C9L C -0.0300(2) -0.1465(2) -0.31627(17)
C9I C 0.0300(2) -0.3535(2) -0.31627(17)
H7G H -0.1177 -0.3099 0.0542
H7L H -0.0599 -0.1323 -0.3042
H7I H 0.0599 -0.3677 -0.3042
C10G C -0.0727(2) -0.28313(19) 0.10114(16)
C10L C -0.03313(19) -0.1773(2) -0.35114(16)
C10I C 0.03313(19) -0.3227(2) -0.35114(16)
H8G H -0.0660 -0.3156 0.1130
H8L H -0.0656 -0.1840 -0.3630
H8I H 0.0656 -0.3160 -0.3630
C11G C -0.1742(2) -0.4765(2) -0.13810(19)
C11L C -0.2265(2) -0.0758(2) -0.11190(19)
C11I C 0.2265(2) -0.4242(2) -0.11190(19)
H9G H -0.1775 -0.4959 -0.1130
H9L H -0.2459 -0.0725 -0.1370
H9I H 0.2459 -0.4275 -0.1370
C12G C -0.1269(3) -0.4697(2) -0.1554(2)
C12L C -0.2197(2) -0.1231(3) -0.0946(2)
C12I C 0.2197(2) -0.3769(3) -0.0946(2)
H10G H -0.0979 -0.4846 -0.1425
H10L H -0.2346 -0.1521 -0.1075
H10I H 0.2346 -0.3479 -0.1075
C13G C -0.1212(2) -0.4410(2) -0.19204(18)
C13L C -0.1910(2) -0.1288(2) -0.05796(18)
C13I C 0.1910(2) -0.3712(2) -0.05796(18)
C14G C -0.1645(3) -0.4211(2) -0.21026(19)
C14L C -0.1711(2) -0.0855(3) -0.03974(19)
C14I C 0.1711(2) -0.4145(3) -0.03974(19)
H11G H -0.1623 -0.4020 -0.2356
H11L H -0.1520 -0.0877 -0.0144
H11I H 0.1520 -0.4123 -0.0144
C15G C -0.2110(3) -0.4292(2) -0.19149(18)
C15L C -0.1792(2) -0.0390(3) -0.05851(18)
C15I C 0.1792(2) -0.4610(3) -0.05851(18)
H12G H -0.2406 -0.4151 -0.2042
H12L H -0.1651 -0.0094 -0.0458
H12I H 0.1651 -0.4906 -0.0458
C16G C -0.1938(2) -0.2638(2) -0.03962(18)
C16L C -0.0138(2) -0.0562(2) -0.21038(18)
C16I C 0.0138(2) -0.4438(2) -0.21038(18)
C17G C -0.1462(2) -0.2280(2) 0.01076(18)
C17I C -0.0220(2) -0.3962(2) -0.26076(18)
C17L C 0.0220(2) -0.1038(2) -0.26076(18)
C18G C -0.0707(2) -0.4320(2) -0.21063(19)
C18L C -0.1820(2) -0.1793(2) -0.03937(19)
C18I C 0.1820(2) -0.3207(2) -0.03937(19)
N1G N -0.26015(17) -0.39585(16) -0.09499(14)
N1L N -0.14585(16) 0.01015(17) -0.15501(14)
N1I N 0.14585(16) -0.51015(17) -0.15501(14)
N2G N -0.05184(17) -0.24204(16) 0.11900(13)
N2I N -0.00796(16) -0.30184(17) -0.36900(13)
N2L N 0.00796(16) -0.19816(17) -0.36900(13)
N3G N -0.21599(16) -0.45626(17) -0.15590(14)
N3L N -0.20626(17) -0.03401(16) -0.09410(14)
N3I N 0.20626(17) -0.46599(16) -0.09410(14)
N4G N -0.1658(2) -0.27064(17) -0.00500(15)
N4L N -0.02064(17) -0.0842(2) -0.24500(15)
N4I N 0.02064(17) -0.4158(2) -0.24500(15)
N5G N -0.0686(2) -0.40330(17) -0.24513(15)
N5L N -0.15330(17) -0.1814(2) -0.00487(15)
N5I N 0.15330(17) -0.3186(2) -0.00487(15)
N6G N -0.2030(2) -0.21937(17) -0.05830(16)
N6L N 0.03063(17) -0.0470(2) -0.19170(16)
N6I N -0.03063(17) -0.4530(2) -0.19170(16)
C19L C -0.2600(3) 0.1270(4) -0.1435(4)
C19I C 0.2600(3) -0.6270(4) -0.1435(4)
C19G C -0.3770(4) -0.5100(3) -0.1065(4)
H13L H -0.2852 0.1180 -0.1655
H13I H 0.2852 -0.6180 -0.1655
H13G H -0.3680 -0.5352 -0.0845
H14L H -0.2558 0.1644 -0.1439
H14I H 0.2558 -0.6644 -0.1439
H14G H -0.4144 -0.5058 -0.1061
C20L C -0.2787(5) 0.1129(4) -0.1055(3)
C20I C 0.2787(5) -0.6129(4) -0.1055(3)
C20G C -0.3629(4) -0.5287(5) -0.1445(3)
H15L H -0.2619 0.1341 -0.0837
H15I H 0.2619 -0.6341 -0.0837
H15G H -0.3841 -0.5119 -0.1663
H16L H -0.3154 0.1214 -0.1050
H16I H 0.3154 -0.6214 -0.1050
H16G H -0.3714 -0.5654 -0.1450
C21L C -0.2078(6) 0.0972(4) -0.2010(3)
C21I C 0.2078(6) -0.5972(4) -0.2010(3)
C21G C -0.3472(4) -0.4578(6) -0.0490(3)
H17L H -0.2087 0.1308 -0.2144
H17I H 0.2087 -0.6308 -0.2144
H17G H -0.3808 -0.4587 -0.0356
H18L H -0.1758 0.0800 -0.2082
H18I H 0.1758 -0.5800 -0.2082
H18G H -0.3300 -0.4258 -0.0418
H19L H -0.2365 0.0768 -0.2109
H19I H 0.2365 -0.5768 -0.2109
H19G H -0.3268 -0.4865 -0.0391
C22L C -0.1689(3) 0.1353(2) -0.1410(3)
C22I C 0.1689(3) -0.6353(2) -0.1410(3)
C22G C -0.3853(2) -0.4189(3) -0.1090(3)
H20L H -0.1708 0.1680 -0.1558
H20I H 0.1708 -0.6680 -0.1558
H20G H -0.4180 -0.4208 -0.0942
H21L H -0.1708 0.1410 -0.1106
H21I H 0.1708 -0.6410 -0.1106
H21G H -0.3910 -0.4208 -0.1394
H22L H -0.1367 0.1184 -0.1479
H22I H 0.1367 -0.6184 -0.1479
H22G H -0.3684 -0.3867 -0.1021
C23L C -0.3174(3) 0.0291(5) -0.1072(4)
C23I C 0.3174(3) -0.5291(5) -0.1072(4)
C23G C -0.2791(5) -0.5674(3) -0.1428(4)
H23L H -0.3479 0.0408 -0.0923
H23I H 0.3479 -0.5408 -0.0923
H23G H -0.2908 -0.5979 -0.1577
H24L H -0.3220 0.0340 -0.1376
H24I H 0.3220 -0.5340 -0.1376
H24G H -0.2840 -0.5720 -0.1124
H25L H -0.3118 -0.0071 -0.1013
H25I H 0.3118 -0.4929 -0.1013
H25G H -0.2429 -0.5618 -0.1487
C24L C -0.2679(3) 0.0583(3) -0.0474(2)
C24I C 0.2679(3) -0.5583(3) -0.0474(2)
C24G C -0.3083(3) -0.5179(3) -0.2026(2)
H26L H -0.2996 0.0702 -0.0346
H26I H 0.2996 -0.5702 -0.0346
H26G H -0.3202 -0.5496 -0.2154
H27L H -0.2606 0.0236 -0.0378
H27I H 0.2606 -0.5236 -0.0378
H27G H -0.2736 -0.5106 -0.2122
H28L H -0.2399 0.0809 -0.0392
H28I H 0.2399 -0.5809 -0.0392
H28G H -0.3309 -0.4899 -0.2108
C25I C -0.0091(3) -0.2225(3) -0.50299(19)
C25L C 0.0091(3) -0.2775(3) -0.50299(19)
C25G C 0.0275(3) -0.2409(3) 0.25299(19)
H29L H 0.0467 -0.2785 -0.5044
H29I H -0.0467 -0.2215 -0.5044
H29G H 0.0285 -0.2033 0.2544
H30L H -0.0046 -0.2956 -0.5279
H30I H 0.0046 -0.2044 -0.5279
H30G H 0.0456 -0.2546 0.2779
C26L C 0.0225(3) -0.3491(2) -0.4572(2)
C26I C -0.0225(3) -0.1509(2) -0.4572(2)
C26G C 0.0991(2) -0.2275(3) 0.2072(2)
H31L H 0.0174 -0.3726 -0.4808
H31I H -0.0174 -0.1274 -0.4808
H31G H 0.1226 -0.2326 0.2308
H32L H 0.0586 -0.3398 -0.4554
H32I H -0.0586 -0.1602 -0.4554
H32G H 0.0898 -0.1914 0.2054
H33L H 0.0121 -0.3656 -0.4309
H33I H -0.0121 -0.1344 -0.4309
H33G H 0.1156 -0.2379 0.1809
C27L C -0.0637(3) -0.3176(3) -0.4666(2)
C27I C 0.0637(3) -0.1824(3) -0.4666(2)
C27G C 0.0676(3) -0.3137(3) 0.2166(2)
H34L H -0.0681 -0.3422 -0.4894
H34I H 0.0681 -0.1578 -0.4894
H34G H 0.0922 -0.3181 0.2394
H35L H -0.0742 -0.3331 -0.4398
H35I H 0.0742 -0.1669 -0.4398
H35G H 0.0831 -0.3242 0.1898
H36L H -0.0847 -0.2875 -0.4721
H36I H 0.0847 -0.2125 -0.4721
H36G H 0.0375 -0.3347 0.2221
N7L N -0.2111(2) 0.10330(19) -0.15421(16)
N7I N 0.2111(2) -0.60330(19) -0.15421(16)
N7G N -0.35330(19) -0.4611(2) -0.09579(16)
N8L N -0.27309(19) 0.05862(19) -0.09287(16)
N8I N 0.27309(19) -0.55862(19) -0.09287(16)
N8G N -0.30862(19) -0.52309(19) -0.15713(16)
N9I N 0.0088(2) -0.1978(2) -0.46390(15)
N9L N -0.0088(2) -0.3022(2) -0.46390(15)
N9G N 0.0522(2) -0.2588(2) 0.21390(15)
C54? C 0.0552(19) -0.1932(18) -0.0923(11)
H60? H 0.0279 -0.1676 -0.0982
C55? C 0.031(2) -0.229(2) -0.0612(13)
H61? H 0.0561 -0.2563 -0.0540
H62? H 0.0013 -0.2457 -0.0743
C56? C 0.015(3) -0.202(3) -0.0212(14)
H63? H 0.0036 -0.2272 -0.0001
H64? H -0.0143 -0.1794 -0.0277
C57? C 0.058(4) -0.170(3) -0.0023(12)
H65? H 0.0451 -0.1497 0.0217
H66? H 0.0853 -0.1925 0.0083
C58? C 0.080(3) -0.135(3) -0.0343(18)
H67? H 0.1089 -0.1163 -0.0217
H68? H 0.0537 -0.1094 -0.0422
C59? C 0.098(2) -0.1624(17) -0.0741(16)
H69? H 0.1099 -0.1371 -0.0951
H70? H 0.1269 -0.1850 -0.0671
N12? N 0.6440(6) 0.1702(7) -0.0099(6)
O8? O 0.6254(6) 0.1636(6) -0.0446(5)
O9? O 0.6510(8) 0.1364(8) 0.0139(7)
O10? O 0.6579(9) 0.2149(9) 0.0049(7)
O11? O 0.830(2) 0.334(3) -0.1528(19)
O12? O 0.7412(16) 0.2408(15) -0.1092(13)
O13? O 0.6944(12) 0.2463(12) 0.0099(10)
O15? O 0.6196(5) 0.2150(6) 0.0854(5)
O16? O 0.5964(9) -0.2848(10) 0.1022(8)
O17? O 0.6641(7) 0.1762(8) 0.0202(7)
O22? O 0.8210(5) 0.3011(7) -0.1415(4)
O23? O 0.7537(8) 0.2930(8) -0.0686(8)
O24? O 1.295(2) 0.220(2) -0.2200(18)
O25? O 0.7050(8) 0.3870(8) -0.0309(7)
O26? O 0.7232(7) 0.2875(7) -0.0307(6)
O32? O 0.8136(14) 0.4199(14) -0.0655(12)
O36? O 1.3533(11) -0.1741(12) -0.1864(9)
O37? O 1.2996(9) -0.1133(8) -0.2607(7)
O39? O 1.3301(8) -0.2465(9) -0.1681(7)
O40? O 1.3375(3) -0.1197(4) -0.2064(2)
O42? O 1.2537(10) -0.1254(9) -0.2867(8)
O44? O 0.562(3) -0.110(2) 0.0755(19)
O50? O 0.7490(16) 0.4646(15) -0.0343(12)
O51? O 0.7873(13) 0.4568(14) -0.0530(10)
O52? O 0.686(2) 0.405(2) 0.000(2)
O54? O 0.8567(6) 0.3930(6) -0.1353(5)
O57? O 1.3291(7) -0.1419(8) -0.2197(6)
loop_
_geom_bond_atom_site_label_1
_geom_bond_atom_site_label_2
_geom_bond_site_symmetry_1
_geom_bond_site_symmetry_2
Pd1 N1 1_555 1_555
Pd2 N2 1_555 1_555
C1 H1 1_555 1_555
C2 C1 1_555 1_555
H2 C2 1_555 1_555
C3 C2 1_555 1_555
C4 C3 1_555 1_555
H3 C4 1_555 1_555
C5 C4 1_555 1_555
H4 C5 1_555 1_555
C6 H5 1_555 1_555
C7 C6 1_555 1_555
H6 C7 1_555 1_555
C8 C7 1_555 1_555
C9 C8 1_555 1_555
H7 C9 1_555 1_555
C10 C9 1_555 1_555
H8 C10 1_555 1_555
C11 H9 1_555 1_555
C12 C11 1_555 1_555
H10 C12 1_555 1_555
C13 C12 1_555 1_555
C14 C13 1_555 1_555
H11 C14 1_555 1_555
C15 C14 1_555 1_555
H12 C15 1_555 1_555
C16 C3 1_555 1_555
C17 C8 1_555 1_555
C18 C13 1_555 1_555
N1 C1 1_555 1_555
N2 C6 1_555 1_555
N3 Pd1 1_555 1_555
N4 C16 1_555 1_555
N5 C18 1_555 1_555
N6 C16 1_555 1_555
C19 H13 1_555 1_555
H14 C19 1_555 1_555
C20 C19 1_555 1_555
H15 C20 1_555 1_555
H16 C20 1_555 1_555
C21 H17 1_555 1_555
H18 C21 1_555 1_555
H19 C21 1_555 1_555
C22 H20 1_555 1_555
H21 C22 1_555 1_555
H22 C22 1_555 1_555
C23 H23 1_555 1_555
H24 C23 1_555 1_555
H25 C23 1_555 1_555
C24 H26 1_555 1_555
H27 C24 1_555 1_555
H28 C24 1_555 1_555
C25 H29 1_555 1_555
H30 C25 1_555 1_555
C26 H31 1_555 1_555
H32 C26 1_555 1_555
H33 C26 1_555 1_555
C27 H34 1_555 1_555
H35 C27 1_555 1_555
H36 C27 1_555 1_555
N7 Pd1 1_555 1_555
N8 Pd1 1_555 1_555
N9 Pd2 1_555 1_555
C28 C29 1_555 1_555
C29 H37 1_555 1_555
H37 H45 1_555 1_555
C30 C29 1_555 1_555
H38 C30 1_555 1_555
C31 C30 1_555 1_555
H39 C31 1_555 1_555
C32 C31 1_555 1_555
C33 C32 1_555 1_555
H40 C33 1_555 1_555
C34 C33 1_555 1_555
H41 C34 1_555 1_555
C35 C34 1_555 1_555
C36 C31 1_555 1_555
H42 C36 1_555 1_555
C37 C31 1_555 1_555
H43 C37 1_555 1_555
C38 C32 1_555 1_555
H44 C33 1_555 1_555
C39 C33 1_555 1_555
C40 C28 1_555 1_555
C41 C35 1_555 1_555
C42 C28 1_555 1_555
H45 C29 1_555 1_555
C43 C39 1_555 1_555
H46 C43 1_555 1_555
C44 C30 1_555 1_555
H47 C36 1_555 1_555
C45 C28 1_555 1_555
H48 C29 1_555 1_555
C46 C32 1_555 1_555
C47 C28 1_555 1_555
O1 C39 1_555 1_555
O2 C35 1_555 1_555
N10 C32 1_555 1_555
C48 C34 1_555 1_555
H49 C39 1_555 1_555
C49 C34 1_555 1_555
H50 C34 1_555 1_555
H51 H46 1_555 1_555
C50 C35 1_555 1_555
H52 C50 1_555 1_555
H53 C36 1_555 1_555
C51 C30 1_555 1_555
H54 C31 1_555 1_555
H55 C30 1_555 1_555
C52 C29 1_555 1_555
H56 C45 1_555 1_555
H57 C32 1_555 1_555
C53 C28 1_555 1_555
H58 C29 1_555 1_555
H59 C53 1_555 1_555
N11 O5 1_555 1_555
O6 N11 1_555 1_555
O7 N11 1_555 1_555
N13 O19 1_555 1_555
O20 N13 1_555 1_555
O21 N13 1_555 1_555
Pd1G N1G 1_555 1_555
Pd1L N1L 1_555 1_555
Pd1I N1I 1_555 1_555
Pd2I N2I 1_555 1_555
C1G H1G 1_555 1_555
C1L H1L 1_555 1_555
C1I H1I 1_555 1_555
C2G C1G 1_555 1_555
C2L C1L 1_555 1_555
C2I C1I 1_555 1_555
H2L C2L 1_555 1_555
H2I C2I 1_555 1_555
H2G C2G 1_555 1_555
C3G C2G 1_555 1_555
C3L C2L 1_555 1_555
C3I C2I 1_555 1_555
C4L C3L 1_555 1_555
C4I C3I 1_555 1_555
C4G C3G 1_555 1_555
H3L C4L 1_555 1_555
H3I C4I 1_555 1_555
H3G C4G 1_555 1_555
C5L C4L 1_555 1_555
C5I C4I 1_555 1_555
C5G C4G 1_555 1_555
H4L C5L 1_555 1_555
H4I C5I 1_555 1_555
H4G C5G 1_555 1_555
C6G H5G 1_555 1_555
C6I H5I 1_555 1_555
C6L H5L 1_555 1_555
C7G C6G 1_555 1_555
C7I C6I 1_555 1_555
C7L C6L 1_555 1_555
H6G C7G 1_555 1_555
H6L C7L 1_555 1_555
H6I C7I 1_555 1_555
C8G C7G 1_555 1_555
C8I C7I 1_555 1_555
C8L C7L 1_555 1_555
C9G C8G 1_555 1_555
C9L C8L 1_555 1_555
C9I C8I 1_555 1_555
H7G C9G 1_555 1_555
H7L C9L 1_555 1_555
H7I C9I 1_555 1_555
C10G C9G 1_555 1_555
C10L C9L 1_555 1_555
C10I C9I 1_555 1_555
H8G C10G 1_555 1_555
H8L C10L 1_555 1_555
H8I C10I 1_555 1_555
C11G H9G 1_555 1_555
C11L H9L 1_555 1_555
C11I H9I 1_555 1_555
C12G C11G 1_555 1_555
C12L C11L 1_555 1_555
C12I C11I 1_555 1_555
H10G C12G 1_555 1_555
H10L C12L 1_555 1_555
H10I C12I 1_555 1_555
C13G C12G 1_555 1_555
C13L C12L 1_555 1_555
C13I C12I 1_555 1_555
C14G C13G 1_555 1_555
C14L C13L 1_555 1_555
C14I C13I 1_555 1_555
H11G C14G 1_555 1_555
H11L C14L 1_555 1_555
H11I C14I 1_555 1_555
C15G C14G 1_555 1_555
C15L C14L 1_555 1_555
C15I C14I 1_555 1_555
H12G C15G 1_555 1_555
H12L C15L 1_555 1_555
H12I C15I 1_555 1_555
C16G C3G 1_555 1_555
C16L C3L 1_555 1_555
C16I C3I 1_555 1_555
C17G C8G 1_555 1_555
C17I C8I 1_555 1_555
C17L N5 1_555 1_555
C18G C13G 1_555 1_555
C18L C13L 1_555 1_555
C18I N6 1_555 1_555
N1G C1G 1_555 1_555
N1L C1L 1_555 1_555
N1I C1I 1_555 1_555
N2G Pd2 1_555 1_555
N2I C6I 1_555 1_555
N2L Pd2I 1_555 1_555
N3G Pd1G 1_555 1_555
N3L Pd1L 1_555 1_555
N3I Pd1I 1_555 1_555
N4G C16G 1_555 1_555
N4L C16L 1_555 1_555
N4I C16I 1_555 1_555
N5G C17I 1_555 1_555
N5L C17G 1_555 1_555
N5I C17 1_555 1_555
N6G C16G 1_555 1_555
N6L C18 1_555 1_555
N6I C16I 1_555 1_555
C19L H13L 1_555 1_555
C19I H13I 1_555 1_555
C19G H13G 1_555 1_555
H14L C19L 1_555 1_555
H14I C19I 1_555 1_555
H14G C19G 1_555 1_555
C20L C19L 1_555 1_555
C20I C19I 1_555 1_555
C20G C19G 1_555 1_555
H15L C20L 1_555 1_555
H15I C20I 1_555 1_555
H15G C20G 1_555 1_555
H16L C20L 1_555 1_555
H16I C20I 1_555 1_555
H16G C20G 1_555 1_555
C21L H17L 1_555 1_555
C21I H17I 1_555 1_555
C21G H17G 1_555 1_555
H18L C21L 1_555 1_555
H18I C21I 1_555 1_555
H18G C21G 1_555 1_555
H19L C21L 1_555 1_555
H19I C21I 1_555 1_555
H19G C21G 1_555 1_555
C22L H20L 1_555 1_555
C22I H20I 1_555 1_555
C22G H20G 1_555 1_555
H21L C22L 1_555 1_555
H21I C22I 1_555 1_555
H21G C22G 1_555 1_555
H22L C22L 1_555 1_555
H22I C22I 1_555 1_555
H22G C22G 1_555 1_555
C23L H23L 1_555 1_555
C23I H23I 1_555 1_555
C23G H23G 1_555 1_555
H24L C23L 1_555 1_555
H24I C23I 1_555 1_555
H24G C23G 1_555 1_555
H25L C23L 1_555 1_555
H25I C23I 1_555 1_555
H25G C23G 1_555 1_555
C24L H26L 1_555 1_555
C24I H26I 1_555 1_555
C24G H26G 1_555 1_555
H27L C24L 1_555 1_555
H27I C24I 1_555 1_555
H27G C24G 1_555 1_555
H28L C24L 1_555 1_555
H28I C24I 1_555 1_555
H28G C24G 1_555 1_555
C25I C25L 1_555 1_555
C25L H29L 1_555 1_555
C25G C25 1_555 1_555
H29I C25I 1_555 1_555
H29G C25G 1_555 1_555
H30L C25L 1_555 1_555
H30I C25I 1_555 1_555
H30G C25G 1_555 1_555
C26L H31L 1_555 1_555
C26I H31I 1_555 1_555
C26G H31G 1_555 1_555
H32L C26L 1_555 1_555
H32I C26I 1_555 1_555
H32G C26G 1_555 1_555
H33L C26L 1_555 1_555
H33I C26I 1_555 1_555
H33G C26G 1_555 1_555
C27L H34L 1_555 1_555
C27I H34I 1_555 1_555
C27G H34G 1_555 1_555
H35L C27L 1_555 1_555
H35I C27I 1_555 1_555
H35G C27G 1_555 1_555
H36L C27L 1_555 1_555
H36I C27I 1_555 1_555
H36G C27G 1_555 1_555
N7L Pd1L 1_555 1_555
N7I Pd1I 1_555 1_555
N7G Pd1G 1_555 1_555
N8L Pd1L 1_555 1_555
N8I Pd1I 1_555 1_555
N8G Pd1G 1_555 1_555
N9I Pd2I 1_555 1_555
N9L Pd2I 1_555 1_555
N9G Pd2 1_555 1_555
C28G C42 1_555 1_555
C28I C29I 1_555 1_555
C28L C29L 1_555 1_555
C29G C42 1_555 1_555
C29I H37I 1_555 1_555
C29L H37L 1_555 1_555
H37G C42 1_555 1_555
H37I C42L 1_555 1_555
H37L C42I 1_555 1_555
C30I C29I 1_555 1_555
C30G C29G 1_555 1_555
C30L C29L 1_555 1_555
H38I C30I 1_555 1_555
H38G C30G 1_555 1_555
H38L C30L 1_555 1_555
C31I C30I 1_555 1_555
C31G C30G 1_555 1_555
C31L C30L 1_555 1_555
H39I C31I 1_555 1_555
H39G C31G 1_555 1_555
H39L C31L 1_555 1_555
C32I C31I 1_555 1_555
C32G C31G 1_555 1_555
C32L C31L 1_555 1_555
C33I C32I 1_555 1_555
C33G C32G 1_555 1_555
C33L C32L 1_555 1_555
H40I C33I 1_555 1_555
H40G C33G 1_555 1_555
H40L C33L 1_555 1_555
C34G C33G 1_555 1_555
C34L C33L 1_555 1_555
C34I C33I 1_555 1_555
H41I C34I 1_555 1_555
H41G C34G 1_555 1_555
H41L C34L 1_555 1_555
C35G C34G 1_555 1_555
C35L C34L 1_555 1_555
C35I C36 1_555 1_555
C36I C31I 1_555 1_555
C36G C31G 1_555 1_555
C36L C35 1_555 1_555
H42I C36I 1_555 1_555
H42G C36G 1_555 1_555
H42L C50 1_555 1_555
C37I C31I 1_555 1_555
C37G C31G 1_555 1_555
C37L C31L 1_555 1_555
H43L C37L 1_555 1_555
H43G C37G 1_555 1_555
H43I C37I 1_555 1_555
C38I C32I 1_555 1_555
C38G C32G 1_555 1_555
C38L C32L 1_555 1_555
H44G C33G 1_555 1_555
H44L C33L 1_555 1_555
H44I C33I 1_555 1_555
C39I C33I 1_555 1_555
C39G C33G 1_555 1_555
C39L C41 1_555 1_555
C40I O1 1_555 1_555
C40G C28G 1_555 1_555
C40L C28L 1_555 1_555
C41G C35G 1_555 1_555
C41L C35L 1_555 1_555
C41I C39 1_555 1_555
C42G C28 1_555 1_555
C42I C43 1_555 1_555
C42L C28I 1_555 1_555
H45I C29I 1_555 1_555
H45G C42 1_555 1_555
H45L C29L 1_555 1_555
C43I C44 1_555 1_555
C43G C39G 1_555 1_555
C43L C42 1_555 1_555
H46I C43I 1_555 1_555
H46G C43G 1_555 1_555
H46L C43L 1_555 1_555
C44I C30I 1_555 1_555
C44G C30G 1_555 1_555
C44L C35 1_555 1_555
H47I C36I 1_555 1_555
H47G C36G 1_555 1_555
H47L C50 1_555 1_555
C45I C28I 1_555 1_555
C45G C42 1_555 1_555
C45L C28L 1_555 1_555
H48L C29L 1_555 1_555
H48I C29I 1_555 1_555
H48G C29G 1_555 1_555
C46I C32I 1_555 1_555
C46G C32G 1_555 1_555
C46L C35 1_555 1_555
C47I O1 1_555 1_555
C47G C28G 1_555 1_555
C47L C28L 1_555 1_555
O1G C39G 1_555 1_555
O1I C39I 1_555 1_555
O1L C40 1_555 1_555
O2I C36 1_555 1_555
O2G C35G 1_555 1_555
O2L C35L 1_555 1_555
N10G C32G 1_555 1_555
N10L C41 1_555 1_555
N10I C32I 1_555 1_555
C48G C34G 1_555 1_555
C48L C34L 1_555 1_555
C48I C53 1_555 1_555
H49G C39G 1_555 1_555
H49I C39I 1_555 1_555
H49L C39L 1_555 1_555
C49I C44 1_555 1_555
C49G C34G 1_555 1_555
C49L C34L 1_555 1_555
H50G C34G 1_555 1_555
H50I C34I 1_555 1_555
H50L C34L 1_555 1_555
H51I H46I 1_555 1_555
H51G H46G 1_555 1_555
H51L H46L 1_555 1_555
C50G C35G 1_555 1_555
C50L C35L 1_555 1_555
C50I C36 1_555 1_555
H52G C50G 1_555 1_555
H52L C50L 1_555 1_555
H52I C50I 1_555 1_555
H53I C36I 1_555 1_555
H53G C36G 1_555 1_555
H53L C50 1_555 1_555
C51I C30I 1_555 1_555
C51G C30G 1_555 1_555
C51L C50 1_555 1_555
H54I C31I 1_555 1_555
H54L C31L 1_555 1_555
H54G C31G 1_555 1_555
H55I C30I 1_555 1_555
H55G C30G 1_555 1_555
H55L C30L 1_555 1_555
C52L C29L 1_555 1_555
C52I C29I 1_555 1_555
C52G C29G 1_555 1_555
H56I C45I 1_555 1_555
H56L C45L 1_555 1_555
H56G C45G 1_555 1_555
H57G C32G 1_555 1_555
H57L C32L 1_555 1_555
H57I C32I 1_555 1_555
C53L C43 1_555 1_555
C53I C28I 1_555 1_555
C53G C42 1_555 1_555
H58L C29L 1_555 1_555
H58I C29I 1_555 1_555
H58G C42 1_555 1_555
H59G H59 1_555 1_555
H59L C53L 1_555 1_555
H59I C53I 1_555 1_555
C5 N1 1_555 1_555
C10 N2 1_555 1_555
C11 N3 1_555 1_555
C15 N3 1_555 1_555
C17 N4 1_555 1_555
C19 N7 1_555 1_555
C20 N8 1_555 1_555
C21 N7 1_555 1_555
C22 N7 1_555 1_555
C23 N8 1_555 1_555
C24 N8 1_555 1_555
C25 N9 1_555 1_555
C26 N9 1_555 1_555
C27 N9 1_555 1_555
C29 C45 1_555 1_555
C29 C53 1_555 1_555
C29 C42G 1_555 1_555
H37 C42G 1_555 1_555
C30 C45 1_555 1_555
C30 H48 1_555 1_555
C30 C52 1_555 1_555
H38 H55 1_555 1_555
C31 C44 1_555 1_555
C31 C45 1_555 1_555
C31 C51 1_555 1_555
C31 C52 1_555 1_555
H39 C51 1_555 1_555
H39 H54 1_555 1_555
C32 C37 1_555 1_555
C32 C40 1_555 1_555
C32 C45 1_555 1_555
C32 C47 1_555 1_555
C32 C52 1_555 1_555
C33 C37 1_555 1_555
C33 C38 1_555 1_555
C33 N10 1_555 1_555
H40 C37 1_555 1_555
H40 C38 1_555 1_555
C34 C38 1_555 1_555
C34 H44 1_555 1_555
C34 C39 1_555 1_555
H41 C49 1_555 1_555
H41 H50 1_555 1_555
C35 C48 1_555 1_555
C35 C49 1_555 1_555
C36 C37 1_555 1_555
C36 C44 1_555 1_555
C36 C46 1_555 1_555
C36 C51 1_555 1_555
H42 C51 1_555 1_555
H42 C50I 1_555 1_555
C37 C38 1_555 1_555
C38 H44 1_555 1_555
C38 C39 1_555 1_555
C38 N10 1_555 1_555
C38 C48 1_555 1_555
H44 H50 1_555 1_555
C39 N10 1_555 1_555
C39 C48 1_555 1_555
C40 C41 1_555 1_555
C40 C45 1_555 1_555
C40 C47 1_555 1_555
C40 N10 1_555 1_555
C40 C52 1_555 1_555
C41 C47 1_555 1_555
C41 O2 1_555 1_555
C41 C46L 1_555 1_555
C41 O1L 1_555 1_555
H45 C42G 1_555 1_555
C43 C48 1_555 1_555
C43 H49 1_555 1_555
C43 C49 1_555 1_555
C43 C44L 1_555 1_555
C44 H47 1_555 1_555
C44 C45 1_555 1_555
C44 C46 1_555 1_555
C44 C51 1_555 1_555
C44 C52 1_555 1_555
C44 C53 1_555 1_555
C44 C35I 1_555 1_555
C44 C50I 1_555 1_555
H47 C51 1_555 1_555
H47 C50I 1_555 1_555
C45 H48 1_555 1_555
C45 C47 1_555 1_555
C45 C52 1_555 1_555
C45 C53 1_555 1_555
C45 C42G 1_555 1_555
H48 C52 1_555 1_555
H48 H56 1_555 1_555
C46 N10 1_555 1_555
C46 C35I 1_555 1_555
C46 C41I 1_555 1_555
C46 O2I 1_555 1_555
C47 N10 1_555 1_555
C47 C52 1_555 1_555
C47 H57 1_555 1_555
C47 C53 1_555 1_555
C47 O1L 1_555 1_555
O1 C41I 1_555 1_555
O1 O2I 1_555 1_555
O2 C36L 1_555 1_555
O2 C46L 1_555 1_555
O2 O1L 1_555 1_555
N10 C48 1_555 1_555
N10 H57 1_555 1_555
N10 C41I 1_555 1_555
C48 H49 1_555 1_555
C48 C49 1_555 1_555
C48 C53L 1_555 1_555
C49 H50 1_555 1_555
C49 H51 1_555 1_555
C49 C50 1_555 1_555
C49 C44L 1_555 1_555
C50 C36L 1_555 1_555
C50 C44L 1_555 1_555
H53 C50I 1_555 1_555
C51 H54 1_555 1_555
C51 H55 1_555 1_555
C51 C52 1_555 1_555
C51 C50I 1_555 1_555
C52 H56 1_555 1_555
C52 H57 1_555 1_555
C52 C53 1_555 1_555
C53 H58 1_555 1_555
C53 C42G 1_555 1_555
C53 C43I 1_555 1_555
H58 C42G 1_555 1_555
C5L N1L 1_555 1_555
C5I N1I 1_555 1_555
C5G N1G 1_555 1_555
C6G N2G 1_555 1_555
C6L N2L 1_555 1_555
C8L C17L 1_555 1_555
C10G N2G 1_555 1_555
C10L N2L 1_555 1_555
C10I N2I 1_555 1_555
C11G N3G 1_555 1_555
C11L N3L 1_555 1_555
C11I N3I 1_555 1_555
C13I C18I 1_555 1_555
C15G N3G 1_555 1_555
C15L N3L 1_555 1_555
C15I N3I 1_555 1_555
C16L N6L 1_555 1_555
C17G N4G 1_555 1_555
C17I N4I 1_555 1_555
C17L N4L 1_555 1_555
C18G N5G 1_555 1_555
C18G N6I 1_555 1_555
C18L N5L 1_555 1_555
C18L N6G 1_555 1_555
C18I N5I 1_555 1_555
C19L N7L 1_555 1_555
C19I N7I 1_555 1_555
C19G N7G 1_555 1_555
C20L N8L 1_555 1_555
C20I N8I 1_555 1_555
C20G N8G 1_555 1_555
C21L N7L 1_555 1_555
C21I N7I 1_555 1_555
C21G N7G 1_555 1_555
C22L N7L 1_555 1_555
C22I N7I 1_555 1_555
C22G N7G 1_555 1_555
C23L N8L 1_555 1_555
C23I N8I 1_555 1_555
C23G N8G 1_555 1_555
C24L N8L 1_555 1_555
C24I N8I 1_555 1_555
C24G N8G 1_555 1_555
C25I N9I 1_555 1_555
C25L N9L 1_555 1_555
C25G N9G 1_555 1_555
C26L N9L 1_555 1_555
C26I N9I 1_555 1_555
C26G N9G 1_555 1_555
C27L N9L 1_555 1_555
C27I N9I 1_555 1_555
C27G N9G 1_555 1_555
C28G C29G 1_555 1_555
C28G C42G 1_555 1_555
C28G C45G 1_555 1_555
C28G C53G 1_555 1_555
C28I C40I 1_555 1_555
C28I C42I 1_555 1_555
C28I C47I 1_555 1_555
C28L C42I 1_555 1_555
C28L C42L 1_555 1_555
C28L C53L 1_555 1_555
C29G H37G 1_555 1_555
C29G H45G 1_555 1_555
C29G C45G 1_555 1_555
C29G C53G 1_555 1_555
C29G H58G 1_555 1_555
C29I C42L 1_555 1_555
C29I C45I 1_555 1_555
C29I C53I 1_555 1_555
C29L C42I 1_555 1_555
C29L C45L 1_555 1_555
C29L C53L 1_555 1_555
H37G H45G 1_555 1_555
H37I H45I 1_555 1_555
H37L H45L 1_555 1_555
C30I C45I 1_555 1_555
C30I H48I 1_555 1_555
C30I C52I 1_555 1_555
C30G C45G 1_555 1_555
C30G H48G 1_555 1_555
C30G C52G 1_555 1_555
C30L C44L 1_555 1_555
C30L C45L 1_555 1_555
C30L H48L 1_555 1_555
C30L C51L 1_555 1_555
C30L C52L 1_555 1_555
H38I H55I 1_555 1_555
H38G H55G 1_555 1_555
H38L H55L 1_555 1_555
C31I C44I 1_555 1_555
C31I C45I 1_555 1_555
C31I C51I 1_555 1_555
C31I C52I 1_555 1_555
C31G C44G 1_555 1_555
C31G C45G 1_555 1_555
C31G C51G 1_555 1_555
C31G C52G 1_555 1_555
C31L C36L 1_555 1_555
C31L C44L 1_555 1_555
C31L C45L 1_555 1_555
C31L C51L 1_555 1_555
C31L C52L 1_555 1_555
H39I C51I 1_555 1_555
H39I H54I 1_555 1_555
H39G C51G 1_555 1_555
H39G H54G 1_555 1_555
H39L C51L 1_555 1_555
H39L H54L 1_555 1_555
C32I C37I 1_555 1_555
C32I C40I 1_555 1_555
C32I C45I 1_555 1_555
C32I C47I 1_555 1_555
C32I C52I 1_555 1_555
C32G C37G 1_555 1_555
C32G C40G 1_555 1_555
C32G C45G 1_555 1_555
C32G C47G 1_555 1_555
C32G C52G 1_555 1_555
C32L C37L 1_555 1_555
C32L C40L 1_555 1_555
C32L C45L 1_555 1_555
C32L C46L 1_555 1_555
C32L C47L 1_555 1_555
C32L N10L 1_555 1_555
C32L C52L 1_555 1_555
C33I C37I 1_555 1_555
C33I C38I 1_555 1_555
C33I N10I 1_555 1_555
C33G C37G 1_555 1_555
C33G C38G 1_555 1_555
C33G N10G 1_555 1_555
C33L C37L 1_555 1_555
C33L C38L 1_555 1_555
C33L C39L 1_555 1_555
C33L N10L 1_555 1_555
H40I C37I 1_555 1_555
H40I C38I 1_555 1_555
H40G C37G 1_555 1_555
H40G C38G 1_555 1_555
H40L C37L 1_555 1_555
H40L C38L 1_555 1_555
C34G C38G 1_555 1_555
C34G H44G 1_555 1_555
C34G C39G 1_555 1_555
C34L C38L 1_555 1_555
C34L H44L 1_555 1_555
C34L C39L 1_555 1_555
C34I C35I 1_555 1_555
C34I C38I 1_555 1_555
C34I H44I 1_555 1_555
C34I C39I 1_555 1_555
C34I C48I 1_555 1_555
C34I C49I 1_555 1_555
H41I C49I 1_555 1_555
H41I H50I 1_555 1_555
H41G C49G 1_555 1_555
H41G H50G 1_555 1_555
H41L C49L 1_555 1_555
H41L H50L 1_555 1_555
C35G C36I 1_555 1_555
C35G C44I 1_555 1_555
C35G C46I 1_555 1_555
C35G C48G 1_555 1_555
C35G C49G 1_555 1_555
C35L C36G 1_555 1_555
C35L C44G 1_555 1_555
C35L C46G 1_555 1_555
C35L C48L 1_555 1_555
C35L C49L 1_555 1_555
C35I C41I 1_555 1_555
C35I O2I 1_555 1_555
C35I C48I 1_555 1_555
C35I C49I 1_555 1_555
C35I C50I 1_555 1_555
C36I C37I 1_555 1_555
C36I C44I 1_555 1_555
C36I C46I 1_555 1_555
C36I O2G 1_555 1_555
C36I C50G 1_555 1_555
C36I C51I 1_555 1_555
C36G C37G 1_555 1_555
C36G C44G 1_555 1_555
C36G C46G 1_555 1_555
C36G O2L 1_555 1_555
C36G C50L 1_555 1_555
C36G C51G 1_555 1_555
C36L H42L 1_555 1_555
C36L C37L 1_555 1_555
C36L C44L 1_555 1_555
C36L H47L 1_555 1_555
C36L C46L 1_555 1_555
C36L H53L 1_555 1_555
C36L C51L 1_555 1_555
H42I C50G 1_555 1_555
H42I C51I 1_555 1_555
H42G C50L 1_555 1_555
H42G C51G 1_555 1_555
H42L C51L 1_555 1_555
C37I C38I 1_555 1_555
C37G C38G 1_555 1_555
C37L C38L 1_555 1_555
C38I H44I 1_555 1_555
C38I C39I 1_555 1_555
C38I N10I 1_555 1_555
C38I C48I 1_555 1_555
C38G H44G 1_555 1_555
C38G C39G 1_555 1_555
C38G N10G 1_555 1_555
C38G C48G 1_555 1_555
C38L H44L 1_555 1_555
C38L C39L 1_555 1_555
C38L N10L 1_555 1_555
C38L C48L 1_555 1_555
H44G H50G 1_555 1_555
H44L H50L 1_555 1_555
H44I H50I 1_555 1_555
C39I C41G 1_555 1_555
C39I C43I 1_555 1_555
C39I N10I 1_555 1_555
C39I C48I 1_555 1_555
C39G C41L 1_555 1_555
C39G N10G 1_555 1_555
C39G C48G 1_555 1_555
C39L C43L 1_555 1_555
C39L O1L 1_555 1_555
C39L N10L 1_555 1_555
C39L C48L 1_555 1_555
C40I C41I 1_555 1_555
C40I C45I 1_555 1_555
C40I C47I 1_555 1_555
C40I N10I 1_555 1_555
C40I C52I 1_555 1_555
C40G C41G 1_555 1_555
C40G C45G 1_555 1_555
C40G C47G 1_555 1_555
C40G O1I 1_555 1_555
C40G N10G 1_555 1_555
C40G C52G 1_555 1_555
C40L C41L 1_555 1_555
C40L C45L 1_555 1_555
C40L C47L 1_555 1_555
C40L O1G 1_555 1_555
C40L N10L 1_555 1_555
C40L C52L 1_555 1_555
C41G C46I 1_555 1_555
C41G C47G 1_555 1_555
C41G O1I 1_555 1_555
C41G O2G 1_555 1_555
C41G N10I 1_555 1_555
C41L C46G 1_555 1_555
C41L C47L 1_555 1_555
C41L O1G 1_555 1_555
C41L O2L 1_555 1_555
C41L N10G 1_555 1_555
C41I C47I 1_555 1_555
C41I O2I 1_555 1_555
C42G C43I 1_555 1_555
C42I H45L 1_555 1_555
C42I C45L 1_555 1_555
C42I C53L 1_555 1_555
C42I H58L 1_555 1_555
C42L H45I 1_555 1_555
C42L C43G 1_555 1_555
C42L C45I 1_555 1_555
C42L C53I 1_555 1_555
C42L H58I 1_555 1_555
C43I C48I 1_555 1_555
C43I H49I 1_555 1_555
C43I C49I 1_555 1_555
C43G C44I 1_555 1_555
C43G C48G 1_555 1_555
C43G H49G 1_555 1_555
C43G C49G 1_555 1_555
C43G C53I 1_555 1_555
C43L C44G 1_555 1_555
C43L C48L 1_555 1_555
C43L H49L 1_555 1_555
C43L C49L 1_555 1_555
C43L C53G 1_555 1_555
C44I H47I 1_555 1_555
C44I C45I 1_555 1_555
C44I C46I 1_555 1_555
C44I C49G 1_555 1_555
C44I C50G 1_555 1_555
C44I C51I 1_555 1_555
C44I C52I 1_555 1_555
C44I C53I 1_555 1_555
C44G H47G 1_555 1_555
C44G C45G 1_555 1_555
C44G C46G 1_555 1_555
C44G C49L 1_555 1_555
C44G C50L 1_555 1_555
C44G C51G 1_555 1_555
C44G C52G 1_555 1_555
C44G C53G 1_555 1_555
C44L H47L 1_555 1_555
C44L C45L 1_555 1_555
C44L C46L 1_555 1_555
C44L C51L 1_555 1_555
C44L C52L 1_555 1_555
C44L C53L 1_555 1_555
H47I C50G 1_555 1_555
H47I C51I 1_555 1_555
H47G C50L 1_555 1_555
H47G C51G 1_555 1_555
H47L C51L 1_555 1_555
C45I H48I 1_555 1_555
C45I C47I 1_555 1_555
C45I C52I 1_555 1_555
C45I C53I 1_555 1_555
C45G H48G 1_555 1_555
C45G C47G 1_555 1_555
C45G C52G 1_555 1_555
C45G C53G 1_555 1_555
C45L H48L 1_555 1_555
C45L C47L 1_555 1_555
C45L C52L 1_555 1_555
C45L C53L 1_555 1_555
H48L C52L 1_555 1_555
H48L H56L 1_555 1_555
H48I C52I 1_555 1_555
H48I H56I 1_555 1_555
H48G C52G 1_555 1_555
H48G H56G 1_555 1_555
C46I O2G 1_555 1_555
C46I N10I 1_555 1_555
C46G O2L 1_555 1_555
C46G N10G 1_555 1_555
C46L N10L 1_555 1_555
C47I N10I 1_555 1_555
C47I C52I 1_555 1_555
C47I H57I 1_555 1_555
C47I C53I 1_555 1_555
C47G O1I 1_555 1_555
C47G N10G 1_555 1_555
C47G C52G 1_555 1_555
C47G H57G 1_555 1_555
C47G C53G 1_555 1_555
C47L O1G 1_555 1_555
C47L N10L 1_555 1_555
C47L C52L 1_555 1_555
C47L H57L 1_555 1_555
C47L C53L 1_555 1_555
O1G O2L 1_555 1_555
O1I O2G 1_555 1_555
N10G C48G 1_555 1_555
N10G H57G 1_555 1_555
N10L C48L 1_555 1_555
N10L H57L 1_555 1_555
N10I C48I 1_555 1_555
N10I H57I 1_555 1_555
C48G H49G 1_555 1_555
C48G C49G 1_555 1_555
C48G C53I 1_555 1_555
C48L H49L 1_555 1_555
C48L C49L 1_555 1_555
C48L C53G 1_555 1_555
C48I H49I 1_555 1_555
C48I C49I 1_555 1_555
C49I H50I 1_555 1_555
C49I H51I 1_555 1_555
C49I C50I 1_555 1_555
C49G H50G 1_555 1_555
C49G H51G 1_555 1_555
C49G C50G 1_555 1_555
C49L H50L 1_555 1_555
C49L H51L 1_555 1_555
C49L C50L 1_555 1_555
C50G H53I 1_555 1_555
C50G C51I 1_555 1_555
C50L H53G 1_555 1_555
C50L C51G 1_555 1_555
C51I H54I 1_555 1_555
C51I H55I 1_555 1_555
C51I C52I 1_555 1_555
C51G H54G 1_555 1_555
C51G H55G 1_555 1_555
C51G C52G 1_555 1_555
C51L H54L 1_555 1_555
C51L H55L 1_555 1_555
C51L C52L 1_555 1_555
C52L H56L 1_555 1_555
C52L H57L 1_555 1_555
C52L C53L 1_555 1_555
C52I H56I 1_555 1_555
C52I H57I 1_555 1_555
C52I C53I 1_555 1_555
C52G H56G 1_555 1_555
C52G H57G 1_555 1_555
C52G C53G 1_555 1_555
C53L H58L 1_555 1_555
C53I H58I 1_555 1_555
C53G H58G 1_555 1_555
C53G H59G 1_555 1_555
H59L H59I 1_555 1_555

#END
