# generated using pymatgen
data_H280Pd6C236N52O225
_symmetry_space_group_name_H-M   'P 1'
_cell_length_a   26.27590000
_cell_length_b   26.27590000
_cell_length_c   31.73400000
_cell_angle_alpha   90.00000000
_cell_angle_beta   90.00000000
_cell_angle_gamma   90.00000000
_symmetry_Int_Tables_number   1
_chemical_formula_structural   H280Pd6C236N52O225
_chemical_formula_sum   'H1120 Pd24 C944 N208 O900'
_cell_volume   21909.88096898
_cell_formula_units_Z   4
loop_
 _symmetry_equiv_pos_site_id
 _symmetry_equiv_pos_as_xyz
  1  'x, y, z'
loop_
 _atom_site_type_symbol
 _atom_site_label
 _atom_site_symmetry_multiplicity
 _atom_site_fract_x
 _atom_site_fract_y
 _atom_site_fract_z
 _atom_site_occupancy
  H  H1  1  0.027900  0.832400  0.901800  1
  H  H2  1  0.917600  0.277900  0.151800  1
  H  H3  1  0.527900  0.332400  0.401800  1
  H  H4  1  0.417600  0.777900  0.651800  1
  H  H5  1  0.082400  0.222100  0.151800  1
  H  H6  1  0.472100  0.167600  0.401800  1
  H  H7  1  0.582400  0.722100  0.651800  1
  H  H8  1  0.972100  0.667600  0.901800  1
  H  H9  1  0.972100  0.167600  0.098200  1
  H  H10  1  0.082400  0.722100  0.848200  1
  H  H11  1  0.472100  0.667600  0.598200  1
  H  H12  1  0.582400  0.222100  0.348200  1
  H  H13  1  0.917600  0.777900  0.848200  1
  H  H14  1  0.527900  0.832400  0.598200  1
  H  H15  1  0.417600  0.277900  0.348200  1
  H  H16  1  0.027900  0.332400  0.098200  1
  H  H17  1  0.056100  0.743700  0.946000  1
  H  H18  1  0.006300  0.306100  0.196000  1
  H  H19  1  0.556100  0.243700  0.446000  1
  H  H20  1  0.506300  0.806100  0.696000  1
  H  H21  1  0.993700  0.193900  0.196000  1
  H  H22  1  0.443900  0.256300  0.446000  1
  H  H23  1  0.493700  0.693900  0.696000  1
  H  H24  1  0.943900  0.756300  0.946000  1
  H  H25  1  0.943900  0.256300  0.054000  1
  H  H26  1  0.993700  0.693900  0.804000  1
  H  H27  1  0.443900  0.756300  0.554000  1
  H  H28  1  0.493700  0.193900  0.304000  1
  H  H29  1  0.006300  0.806100  0.804000  1
  H  H30  1  0.556100  0.743700  0.554000  1
  H  H31  1  0.506300  0.306100  0.304000  1
  H  H32  1  0.056100  0.243700  0.054000  1
  H  H33  1  0.001300  0.754300  0.925700  1
  H  H34  1  0.995700  0.251300  0.175700  1
  H  H35  1  0.501300  0.254300  0.425700  1
  H  H36  1  0.495700  0.751300  0.675700  1
  H  H37  1  0.004300  0.248700  0.175700  1
  H  H38  1  0.498700  0.245700  0.425700  1
  H  H39  1  0.504300  0.748700  0.675700  1
  H  H40  1  0.998700  0.745700  0.925700  1
  H  H41  1  0.998700  0.245700  0.074300  1
  H  H42  1  0.004300  0.748700  0.824300  1
  H  H43  1  0.498700  0.745700  0.574300  1
  H  H44  1  0.504300  0.248700  0.324300  1
  H  H45  1  0.995700  0.751300  0.824300  1
  H  H46  1  0.501300  0.754300  0.574300  1
  H  H47  1  0.495700  0.251300  0.324300  1
  H  H48  1  0.001300  0.254300  0.074300  1
  H  H49  1  0.003600  0.772800  0.999900  1
  H  H50  1  0.977200  0.253600  0.249900  1
  H  H51  1  0.503600  0.272800  0.499900  1
  H  H52  1  0.477200  0.753600  0.749900  1
  H  H53  1  0.022800  0.246400  0.249900  1
  H  H54  1  0.496400  0.227200  0.499900  1
  H  H55  1  0.522800  0.746400  0.749900  1
  H  H56  1  0.996400  0.727200  0.999900  1
  H  H57  1  0.996400  0.227200  0.000100  1
  H  H58  1  0.022800  0.746400  0.750100  1
  H  H59  1  0.496400  0.727200  0.500100  1
  H  H60  1  0.522800  0.246400  0.250100  1
  H  H61  1  0.977200  0.753600  0.750100  1
  H  H62  1  0.503600  0.772800  0.500100  1
  H  H63  1  0.477200  0.253600  0.250100  1
  H  H64  1  0.003600  0.272800  0.000100  1
  H  H65  1  0.985700  0.820600  0.972300  1
  H  H66  1  0.929400  0.235700  0.222300  1
  H  H67  1  0.485700  0.320600  0.472300  1
  H  H68  1  0.429400  0.735700  0.722300  1
  H  H69  1  0.070600  0.264300  0.222300  1
  H  H70  1  0.514300  0.179400  0.472300  1
  H  H71  1  0.570600  0.764300  0.722300  1
  H  H72  1  0.014300  0.679400  0.972300  1
  H  H73  1  0.014300  0.179400  0.027700  1
  H  H74  1  0.070600  0.764300  0.777700  1
  H  H75  1  0.514300  0.679400  0.527700  1
  H  H76  1  0.570600  0.264300  0.277700  1
  H  H77  1  0.929400  0.735700  0.777700  1
  H  H78  1  0.485700  0.820600  0.527700  1
  H  H79  1  0.429400  0.235700  0.277700  1
  H  H80  1  0.985700  0.320600  0.027700  1
  H  H81  1  0.045100  0.850300  0.021700  1
  H  H82  1  0.899700  0.295100  0.271700  1
  H  H83  1  0.545100  0.350300  0.521700  1
  H  H84  1  0.399700  0.795100  0.771700  1
  H  H85  1  0.100300  0.204900  0.271700  1
  H  H86  1  0.454900  0.149700  0.521700  1
  H  H87  1  0.600300  0.704900  0.771700  1
  H  H88  1  0.954900  0.649700  0.021700  1
  H  H89  1  0.954900  0.149700  0.978300  1
  H  H90  1  0.100300  0.704900  0.728300  1
  H  H91  1  0.454900  0.649700  0.478300  1
  H  H92  1  0.600300  0.204900  0.228300  1
  H  H93  1  0.899700  0.795100  0.728300  1
  H  H94  1  0.545100  0.850300  0.478300  1
  H  H95  1  0.399700  0.295100  0.228300  1
  H  H96  1  0.045100  0.350300  0.978300  1
  H  H97  1  0.085300  0.807500  0.008300  1
  H  H98  1  0.942500  0.335300  0.258300  1
  H  H99  1  0.585300  0.307500  0.508300  1
  H  H100  1  0.442500  0.835300  0.758300  1
  H  H101  1  0.057500  0.164700  0.258300  1
  H  H102  1  0.414700  0.192500  0.508300  1
  H  H103  1  0.557500  0.664700  0.758300  1
  H  H104  1  0.914700  0.692500  0.008300  1
  H  H105  1  0.914700  0.192500  0.991700  1
  H  H106  1  0.057500  0.664700  0.741700  1
  H  H107  1  0.414700  0.692500  0.491700  1
  H  H108  1  0.557500  0.164700  0.241700  1
  H  H109  1  0.942500  0.835300  0.741700  1
  H  H110  1  0.585300  0.807500  0.491700  1
  H  H111  1  0.442500  0.335300  0.241700  1
  H  H112  1  0.085300  0.307500  0.991700  1
  H  H113  1  0.108900  0.883700  0.978300  1
  H  H114  1  0.866300  0.358900  0.228300  1
  H  H115  1  0.608900  0.383700  0.478300  1
  H  H116  1  0.366300  0.858900  0.728300  1
  H  H117  1  0.133700  0.141100  0.228300  1
  H  H118  1  0.391100  0.116300  0.478300  1
  H  H119  1  0.633700  0.641100  0.728300  1
  H  H120  1  0.891100  0.616300  0.978300  1
  H  H121  1  0.891100  0.116300  0.021700  1
  H  H122  1  0.133700  0.641100  0.771700  1
  H  H123  1  0.391100  0.616300  0.521700  1
  H  H124  1  0.633700  0.141100  0.271700  1
  H  H125  1  0.866300  0.858900  0.771700  1
  H  H126  1  0.608900  0.883700  0.521700  1
  H  H127  1  0.366300  0.358900  0.271700  1
  H  H128  1  0.108900  0.383700  0.021700  1
  H  H129  1  0.053700  0.890600  0.957800  1
  H  H130  1  0.859400  0.303700  0.207800  1
  H  H131  1  0.553700  0.390600  0.457800  1
  H  H132  1  0.359400  0.803700  0.707800  1
  H  H133  1  0.140600  0.196300  0.207800  1
  H  H134  1  0.446300  0.109400  0.457800  1
  H  H135  1  0.640600  0.696300  0.707800  1
  H  H136  1  0.946300  0.609400  0.957800  1
  H  H137  1  0.946300  0.109400  0.042200  1
  H  H138  1  0.140600  0.696300  0.792200  1
  H  H139  1  0.446300  0.609400  0.542200  1
  H  H140  1  0.640600  0.196300  0.292200  1
  H  H141  1  0.859400  0.803700  0.792200  1
  H  H142  1  0.553700  0.890600  0.542200  1
  H  H143  1  0.359400  0.303700  0.292200  1
  H  H144  1  0.053700  0.390600  0.042200  1
  H  H145  1  0.109900  0.862900  0.904900  1
  H  H146  1  0.887100  0.359900  0.154900  1
  H  H147  1  0.609900  0.362900  0.404900  1
  H  H148  1  0.387100  0.859900  0.654900  1
  H  H149  1  0.112900  0.140100  0.154900  1
  H  H150  1  0.390100  0.137100  0.404900  1
  H  H151  1  0.612900  0.640100  0.654900  1
  H  H152  1  0.890100  0.637100  0.904900  1
  H  H153  1  0.890100  0.137100  0.095100  1
  H  H154  1  0.112900  0.640100  0.845100  1
  H  H155  1  0.390100  0.637100  0.595100  1
  H  H156  1  0.612900  0.140100  0.345100  1
  H  H157  1  0.887100  0.859900  0.845100  1
  H  H158  1  0.609900  0.862900  0.595100  1
  H  H159  1  0.387100  0.359900  0.345100  1
  H  H160  1  0.109900  0.362900  0.095100  1
  H  H161  1  0.126900  0.815000  0.932900  1
  H  H162  1  0.935000  0.376900  0.182900  1
  H  H163  1  0.626900  0.315000  0.432900  1
  H  H164  1  0.435000  0.876900  0.682900  1
  H  H165  1  0.065000  0.123100  0.182900  1
  H  H166  1  0.373100  0.185000  0.432900  1
  H  H167  1  0.565000  0.623100  0.682900  1
  H  H168  1  0.873100  0.685000  0.932900  1
  H  H169  1  0.873100  0.185000  0.067100  1
  H  H170  1  0.065000  0.623100  0.817100  1
  H  H171  1  0.373100  0.685000  0.567100  1
  H  H172  1  0.565000  0.123100  0.317100  1
  H  H173  1  0.935000  0.876900  0.817100  1
  H  H174  1  0.626900  0.815000  0.567100  1
  H  H175  1  0.435000  0.376900  0.317100  1
  H  H176  1  0.126900  0.315000  0.067100  1
  H  H177  1  0.962800  0.765900  0.740300  1.0
  H  H178  1  0.984100  0.212800  0.990300  1.0
  H  H179  1  0.462800  0.265900  0.240300  1.0
  H  H180  1  0.484100  0.712800  0.490300  1.0
  H  H181  1  0.015900  0.287200  0.990300  1.0
  H  H182  1  0.537200  0.234100  0.240300  1.0
  H  H183  1  0.515900  0.787200  0.490300  1.0
  H  H184  1  0.037200  0.734100  0.740300  1.0
  H  H185  1  0.037200  0.234100  0.259700  1.0
  H  H186  1  0.015900  0.787200  0.009700  1.0
  H  H187  1  0.537200  0.734100  0.759700  1.0
  H  H188  1  0.515900  0.287200  0.509700  1.0
  H  H189  1  0.984100  0.712800  0.009700  1.0
  H  H190  1  0.462800  0.765900  0.759700  1.0
  H  H191  1  0.484100  0.212800  0.509700  1.0
  H  H192  1  0.962800  0.265900  0.259700  1.0
  H  H193  1  0.875700  0.774000  0.754500  1.0
  H  H194  1  0.976000  0.125700  0.004500  1.0
  H  H195  1  0.375700  0.274000  0.254500  1.0
  H  H196  1  0.476000  0.625700  0.504500  1.0
  H  H197  1  0.024000  0.374300  0.004500  1.0
  H  H198  1  0.624300  0.226000  0.254500  1.0
  H  H199  1  0.524000  0.874300  0.504500  1.0
  H  H200  1  0.124300  0.726000  0.754500  1.0
  H  H201  1  0.124300  0.226000  0.245500  1.0
  H  H202  1  0.024000  0.874300  0.995500  1.0
  H  H203  1  0.624300  0.726000  0.745500  1.0
  H  H204  1  0.524000  0.374300  0.495500  1.0
  H  H205  1  0.976000  0.625700  0.995500  1.0
  H  H206  1  0.375700  0.774000  0.745500  1.0
  H  H207  1  0.476000  0.125700  0.495500  1.0
  H  H208  1  0.875700  0.274000  0.245500  1.0
  H  H209  1  0.838200  0.720200  0.805700  1.0
  H  H210  1  0.029800  0.088200  0.055700  1.0
  H  H211  1  0.338200  0.220200  0.305700  1.0
  H  H212  1  0.529800  0.588200  0.555700  1.0
  H  H213  1  0.970200  0.411800  0.055700  1.0
  H  H214  1  0.661800  0.279800  0.305700  1.0
  H  H215  1  0.470200  0.911800  0.555700  1.0
  H  H216  1  0.161800  0.779800  0.805700  1.0
  H  H217  1  0.161800  0.279800  0.194300  1.0
  H  H218  1  0.970200  0.911800  0.944300  1.0
  H  H219  1  0.661800  0.779800  0.694300  1.0
  H  H220  1  0.470200  0.411800  0.444300  1.0
  H  H221  1  0.029800  0.588200  0.944300  1.0
  H  H222  1  0.338200  0.720200  0.694300  1.0
  H  H223  1  0.529800  0.088200  0.444300  1.0
  H  H224  1  0.838200  0.220200  0.194300  1.0
  H  H225  1  0.849900  0.680400  0.874600  1.0
  H  H226  1  0.069600  0.099900  0.124600  1.0
  H  H227  1  0.349900  0.180400  0.374600  1.0
  H  H228  1  0.569600  0.599900  0.624600  1.0
  H  H229  1  0.930400  0.400100  0.124600  1.0
  H  H230  1  0.650100  0.319600  0.374600  1.0
  H  H231  1  0.430400  0.900100  0.624600  1.0
  H  H232  1  0.150100  0.819600  0.874600  1.0
  H  H233  1  0.150100  0.319600  0.125400  1.0
  H  H234  1  0.930400  0.900100  0.875400  1.0
  H  H235  1  0.650100  0.819600  0.625400  1.0
  H  H236  1  0.430400  0.400100  0.375400  1.0
  H  H237  1  0.069600  0.599900  0.875400  1.0
  H  H238  1  0.349900  0.680400  0.625400  1.0
  H  H239  1  0.569600  0.099900  0.375400  1.0
  H  H240  1  0.849900  0.180400  0.125400  1.0
  H  H241  1  0.900800  0.624600  0.915400  1.0
  H  H242  1  0.125400  0.150800  0.165400  1.0
  H  H243  1  0.400800  0.124600  0.415400  1.0
  H  H244  1  0.625400  0.650800  0.665400  1.0
  H  H245  1  0.874600  0.349200  0.165400  1.0
  H  H246  1  0.599200  0.375400  0.415400  1.0
  H  H247  1  0.374600  0.849200  0.665400  1.0
  H  H248  1  0.099200  0.875400  0.915400  1.0
  H  H249  1  0.099200  0.375400  0.084600  1.0
  H  H250  1  0.874600  0.849200  0.834600  1.0
  H  H251  1  0.599200  0.875400  0.584600  1.0
  H  H252  1  0.374600  0.349200  0.334600  1.0
  H  H253  1  0.125400  0.650800  0.834600  1.0
  H  H254  1  0.400800  0.624600  0.584600  1.0
  H  H255  1  0.625400  0.150800  0.334600  1.0
  H  H256  1  0.900800  0.124600  0.084600  1.0
  H  H257  1  0.836500  0.768200  0.820400  1.0
  H  H258  1  0.981800  0.086500  0.070400  1.0
  H  H259  1  0.336500  0.268200  0.320400  1.0
  H  H260  1  0.481800  0.586500  0.570400  1.0
  H  H261  1  0.018200  0.413500  0.070400  1.0
  H  H262  1  0.663500  0.231800  0.320400  1.0
  H  H263  1  0.518200  0.913500  0.570400  1.0
  H  H264  1  0.163500  0.731800  0.820400  1.0
  H  H265  1  0.163500  0.231800  0.179600  1.0
  H  H266  1  0.018200  0.913500  0.929600  1.0
  H  H267  1  0.663500  0.731800  0.679600  1.0
  H  H268  1  0.518200  0.413500  0.429600  1.0
  H  H269  1  0.981800  0.586500  0.929600  1.0
  H  H270  1  0.336500  0.768200  0.679600  1.0
  H  H271  1  0.481800  0.086500  0.429600  1.0
  H  H272  1  0.836500  0.268200  0.179600  1.0
  H  H273  1  0.844300  0.679000  0.824300  1.0
  H  H274  1  0.071000  0.094300  0.074300  1.0
  H  H275  1  0.344300  0.179000  0.324300  1.0
  H  H276  1  0.571000  0.594300  0.574300  1.0
  H  H277  1  0.929000  0.405700  0.074300  1.0
  H  H278  1  0.655700  0.321000  0.324300  1.0
  H  H279  1  0.429000  0.905700  0.574300  1.0
  H  H280  1  0.155700  0.821000  0.824300  1.0
  H  H281  1  0.155700  0.321000  0.175700  1.0
  H  H282  1  0.929000  0.905700  0.925700  1.0
  H  H283  1  0.655700  0.821000  0.675700  1.0
  H  H284  1  0.429000  0.405700  0.425700  1.0
  H  H285  1  0.071000  0.594300  0.925700  1.0
  H  H286  1  0.344300  0.679000  0.675700  1.0
  H  H287  1  0.571000  0.094300  0.425700  1.0
  H  H288  1  0.844300  0.179000  0.175700  1.0
  H  H289  1  0.889700  0.642500  0.880000  1.0
  H  H290  1  0.107500  0.139700  0.130000  1.0
  H  H291  1  0.389700  0.142500  0.380000  1.0
  H  H292  1  0.607500  0.639700  0.630000  1.0
  H  H293  1  0.892500  0.360300  0.130000  1.0
  H  H294  1  0.610300  0.357500  0.380000  1.0
  H  H295  1  0.392500  0.860300  0.630000  1.0
  H  H296  1  0.110300  0.857500  0.880000  1.0
  H  H297  1  0.110300  0.357500  0.120000  1.0
  H  H298  1  0.892500  0.860300  0.870000  1.0
  H  H299  1  0.610300  0.857500  0.620000  1.0
  H  H300  1  0.392500  0.360300  0.370000  1.0
  H  H301  1  0.107500  0.639700  0.870000  1.0
  H  H302  1  0.389700  0.642500  0.620000  1.0
  H  H303  1  0.607500  0.139700  0.370000  1.0
  H  H304  1  0.889700  0.142500  0.120000  1.0
  H  H305  1  0.961800  0.786100  0.748400  1.0
  H  H306  1  0.963900  0.211800  0.998400  1.0
  H  H307  1  0.461800  0.286100  0.248400  1.0
  H  H308  1  0.463900  0.711800  0.498400  1.0
  H  H309  1  0.036100  0.288200  0.998400  1.0
  H  H310  1  0.538200  0.213900  0.248400  1.0
  H  H311  1  0.536100  0.788200  0.498400  1.0
  H  H312  1  0.038200  0.713900  0.748400  1.0
  H  H313  1  0.038200  0.213900  0.251600  1.0
  H  H314  1  0.036100  0.788200  0.001600  1.0
  H  H315  1  0.538200  0.713900  0.751600  1.0
  H  H316  1  0.536100  0.288200  0.501600  1.0
  H  H317  1  0.963900  0.711800  0.001600  1.0
  H  H318  1  0.461800  0.786100  0.751600  1.0
  H  H319  1  0.463900  0.211800  0.501600  1.0
  H  H320  1  0.961800  0.286100  0.251600  1.0
  H  H321  1  0.908400  0.664900  0.962600  1.0
  H  H322  1  0.085100  0.158400  0.212600  1.0
  H  H323  1  0.408400  0.164900  0.462600  1.0
  H  H324  1  0.585100  0.658400  0.712600  1.0
  H  H325  1  0.914900  0.341600  0.212600  1.0
  H  H326  1  0.591600  0.335100  0.462600  1.0
  H  H327  1  0.414900  0.841600  0.712600  1.0
  H  H328  1  0.091600  0.835100  0.962600  1.0
  H  H329  1  0.091600  0.335100  0.037400  1.0
  H  H330  1  0.914900  0.841600  0.787400  1.0
  H  H331  1  0.591600  0.835100  0.537400  1.0
  H  H332  1  0.414900  0.341600  0.287400  1.0
  H  H333  1  0.085100  0.658400  0.787400  1.0
  H  H334  1  0.408400  0.664900  0.537400  1.0
  H  H335  1  0.585100  0.158400  0.287400  1.0
  H  H336  1  0.908400  0.164900  0.037400  1.0
  H  H337  1  0.860800  0.771500  0.802300  1.0
  H  H338  1  0.978500  0.110800  0.052300  1.0
  H  H339  1  0.360800  0.271500  0.302300  1.0
  H  H340  1  0.478500  0.610800  0.552300  1.0
  H  H341  1  0.021500  0.389200  0.052300  1.0
  H  H342  1  0.639200  0.228500  0.302300  1.0
  H  H343  1  0.521500  0.889200  0.552300  1.0
  H  H344  1  0.139200  0.728500  0.802300  1.0
  H  H345  1  0.139200  0.228500  0.197700  1.0
  H  H346  1  0.021500  0.889200  0.947700  1.0
  H  H347  1  0.639200  0.728500  0.697700  1.0
  H  H348  1  0.521500  0.389200  0.447700  1.0
  H  H349  1  0.978500  0.610800  0.947700  1.0
  H  H350  1  0.360800  0.771500  0.697700  1.0
  H  H351  1  0.478500  0.110800  0.447700  1.0
  H  H352  1  0.860800  0.271500  0.197700  1.0
  H  H353  1  0.918700  0.713800  0.768600  1.0
  H  H354  1  0.036200  0.168700  0.018600  1.0
  H  H355  1  0.418700  0.213800  0.268600  1.0
  H  H356  1  0.536200  0.668700  0.518600  1.0
  H  H357  1  0.963800  0.331300  0.018600  1.0
  H  H358  1  0.581300  0.286200  0.268600  1.0
  H  H359  1  0.463800  0.831300  0.518600  1.0
  H  H360  1  0.081300  0.786200  0.768600  1.0
  H  H361  1  0.081300  0.286200  0.231400  1.0
  H  H362  1  0.963800  0.831300  0.981400  1.0
  H  H363  1  0.581300  0.786200  0.731400  1.0
  H  H364  1  0.463800  0.331300  0.481400  1.0
  H  H365  1  0.036200  0.668700  0.981400  1.0
  H  H366  1  0.418700  0.713800  0.731400  1.0
  H  H367  1  0.536200  0.168700  0.481400  1.0
  H  H368  1  0.918700  0.213800  0.231400  1.0
  H  H369  1  0.914800  0.712800  0.922900  1.0
  H  H370  1  0.037200  0.164800  0.172900  1.0
  H  H371  1  0.414800  0.212800  0.422900  1.0
  H  H372  1  0.537200  0.664800  0.672900  1.0
  H  H373  1  0.962800  0.335200  0.172900  1.0
  H  H374  1  0.585200  0.287200  0.422900  1.0
  H  H375  1  0.462800  0.835200  0.672900  1.0
  H  H376  1  0.085200  0.787200  0.922900  1.0
  H  H377  1  0.085200  0.287200  0.077100  1.0
  H  H378  1  0.962800  0.835200  0.827100  1.0
  H  H379  1  0.585200  0.787200  0.577100  1.0
  H  H380  1  0.462800  0.335200  0.327100  1.0
  H  H381  1  0.037200  0.664800  0.827100  1.0
  H  H382  1  0.414800  0.712800  0.577100  1.0
  H  H383  1  0.537200  0.164800  0.327100  1.0
  H  H384  1  0.914800  0.212800  0.077100  1.0
  H  H385  1  0.890400  0.631600  0.900100  1.0
  H  H386  1  0.118400  0.140400  0.150100  1.0
  H  H387  1  0.390400  0.131600  0.400100  1.0
  H  H388  1  0.618400  0.640400  0.650100  1.0
  H  H389  1  0.881600  0.359600  0.150100  1.0
  H  H390  1  0.609600  0.368400  0.400100  1.0
  H  H391  1  0.381600  0.859600  0.650100  1.0
  H  H392  1  0.109600  0.868400  0.900100  1.0
  H  H393  1  0.109600  0.368400  0.099900  1.0
  H  H394  1  0.881600  0.859600  0.849900  1.0
  H  H395  1  0.609600  0.868400  0.599900  1.0
  H  H396  1  0.381600  0.359600  0.349900  1.0
  H  H397  1  0.118400  0.640400  0.849900  1.0
  H  H398  1  0.390400  0.631600  0.599900  1.0
  H  H399  1  0.618400  0.140400  0.349900  1.0
  H  H400  1  0.890400  0.131600  0.099900  1.0
  H  H401  1  0.898200  0.646300  0.948800  1.0
  H  H402  1  0.103700  0.148200  0.198800  1.0
  H  H403  1  0.398200  0.146300  0.448800  1.0
  H  H404  1  0.603700  0.648200  0.698800  1.0
  H  H405  1  0.896300  0.351800  0.198800  1.0
  H  H406  1  0.601800  0.353700  0.448800  1.0
  H  H407  1  0.396300  0.851800  0.698800  1.0
  H  H408  1  0.101800  0.853700  0.948800  1.0
  H  H409  1  0.101800  0.353700  0.051200  1.0
  H  H410  1  0.896300  0.851800  0.801200  1.0
  H  H411  1  0.601800  0.853700  0.551200  1.0
  H  H412  1  0.396300  0.351800  0.301200  1.0
  H  H413  1  0.103700  0.648200  0.801200  1.0
  H  H414  1  0.398200  0.646300  0.551200  1.0
  H  H415  1  0.603700  0.148200  0.301200  1.0
  H  H416  1  0.898200  0.146300  0.051200  1.0
  H  H417  1  0.939900  0.568400  0.935700  1.0
  H  H418  1  0.181600  0.189900  0.185700  1.0
  H  H419  1  0.439900  0.068400  0.435700  1.0
  H  H420  1  0.681600  0.689900  0.685700  1.0
  H  H421  1  0.818400  0.310100  0.185700  1.0
  H  H422  1  0.560100  0.431600  0.435700  1.0
  H  H423  1  0.318400  0.810100  0.685700  1.0
  H  H424  1  0.060100  0.931600  0.935700  1.0
  H  H425  1  0.060100  0.431600  0.064300  1.0
  H  H426  1  0.818400  0.810100  0.814300  1.0
  H  H427  1  0.560100  0.931600  0.564300  1.0
  H  H428  1  0.318400  0.310100  0.314300  1.0
  H  H429  1  0.181600  0.689900  0.814300  1.0
  H  H430  1  0.439900  0.568400  0.564300  1.0
  H  H431  1  0.681600  0.189900  0.314300  1.0
  H  H432  1  0.939900  0.068400  0.064300  1.0
  H  H433  1  0.843000  0.778900  0.852500  1.0
  H  H434  1  0.971100  0.093000  0.102500  1.0
  H  H435  1  0.343000  0.278900  0.352500  1.0
  H  H436  1  0.471100  0.593000  0.602500  1.0
  H  H437  1  0.028900  0.407000  0.102500  1.0
  H  H438  1  0.657000  0.221100  0.352500  1.0
  H  H439  1  0.528900  0.907000  0.602500  1.0
  H  H440  1  0.157000  0.721100  0.852500  1.0
  H  H441  1  0.157000  0.221100  0.147500  1.0
  H  H442  1  0.028900  0.907000  0.897500  1.0
  H  H443  1  0.657000  0.721100  0.647500  1.0
  H  H444  1  0.528900  0.407000  0.397500  1.0
  H  H445  1  0.971100  0.593000  0.897500  1.0
  H  H446  1  0.343000  0.778900  0.647500  1.0
  H  H447  1  0.471100  0.093000  0.397500  1.0
  H  H448  1  0.843000  0.278900  0.147500  1.0
  H  H449  1  0.836600  0.726000  0.795000  1.0
  H  H450  1  0.024000  0.086600  0.045000  1.0
  H  H451  1  0.336600  0.226000  0.295000  1.0
  H  H452  1  0.524000  0.586600  0.545000  1.0
  H  H453  1  0.976000  0.413400  0.045000  1.0
  H  H454  1  0.663400  0.274000  0.295000  1.0
  H  H455  1  0.476000  0.913400  0.545000  1.0
  H  H456  1  0.163400  0.774000  0.795000  1.0
  H  H457  1  0.163400  0.274000  0.205000  1.0
  H  H458  1  0.976000  0.913400  0.955000  1.0
  H  H459  1  0.663400  0.774000  0.705000  1.0
  H  H460  1  0.476000  0.413400  0.455000  1.0
  H  H461  1  0.024000  0.586600  0.955000  1.0
  H  H462  1  0.336600  0.726000  0.705000  1.0
  H  H463  1  0.524000  0.086600  0.455000  1.0
  H  H464  1  0.836600  0.226000  0.205000  1.0
  H  H465  1  0.866700  0.765800  0.766000  1.0
  H  H466  1  0.984200  0.116700  0.016000  1.0
  H  H467  1  0.366700  0.265800  0.266000  1.0
  H  H468  1  0.484200  0.616700  0.516000  1.0
  H  H469  1  0.015800  0.383300  0.016000  1.0
  H  H470  1  0.633300  0.234200  0.266000  1.0
  H  H471  1  0.515800  0.883300  0.516000  1.0
  H  H472  1  0.133300  0.734200  0.766000  1.0
  H  H473  1  0.133300  0.234200  0.234000  1.0
  H  H474  1  0.015800  0.883300  0.984000  1.0
  H  H475  1  0.633300  0.734200  0.734000  1.0
  H  H476  1  0.515800  0.383300  0.484000  1.0
  H  H477  1  0.984200  0.616700  0.984000  1.0
  H  H478  1  0.366700  0.765800  0.734000  1.0
  H  H479  1  0.484200  0.116700  0.484000  1.0
  H  H480  1  0.866700  0.265800  0.234000  1.0
  H  H481  1  0.924500  0.702200  0.786200  1.0
  H  H482  1  0.047800  0.174500  0.036200  1.0
  H  H483  1  0.424500  0.202200  0.286200  1.0
  H  H484  1  0.547800  0.674500  0.536200  1.0
  H  H485  1  0.952200  0.325500  0.036200  1.0
  H  H486  1  0.575500  0.297800  0.286200  1.0
  H  H487  1  0.452200  0.825500  0.536200  1.0
  H  H488  1  0.075500  0.797800  0.786200  1.0
  H  H489  1  0.075500  0.297800  0.213800  1.0
  H  H490  1  0.952200  0.825500  0.963800  1.0
  H  H491  1  0.575500  0.797800  0.713800  1.0
  H  H492  1  0.452200  0.325500  0.463800  1.0
  H  H493  1  0.047800  0.674500  0.963800  1.0
  H  H494  1  0.424500  0.702200  0.713800  1.0
  H  H495  1  0.547800  0.174500  0.463800  1.0
  H  H496  1  0.924500  0.202200  0.213800  1.0
  H  H497  1  0.909900  0.709000  0.834800  1.0
  H  H498  1  0.041000  0.159900  0.084800  1.0
  H  H499  1  0.409900  0.209000  0.334800  1.0
  H  H500  1  0.541000  0.659900  0.584800  1.0
  H  H501  1  0.959000  0.340100  0.084800  1.0
  H  H502  1  0.590100  0.291000  0.334800  1.0
  H  H503  1  0.459000  0.840100  0.584800  1.0
  H  H504  1  0.090100  0.791000  0.834800  1.0
  H  H505  1  0.090100  0.291000  0.165200  1.0
  H  H506  1  0.959000  0.840100  0.915200  1.0
  H  H507  1  0.590100  0.791000  0.665200  1.0
  H  H508  1  0.459000  0.340100  0.415200  1.0
  H  H509  1  0.041000  0.659900  0.915200  1.0
  H  H510  1  0.409900  0.709000  0.665200  1.0
  H  H511  1  0.541000  0.159900  0.415200  1.0
  H  H512  1  0.909900  0.209000  0.165200  1.0
  H  H513  1  0.966000  0.780300  0.784900  1.0
  H  H514  1  0.969700  0.216000  0.034900  1.0
  H  H515  1  0.466000  0.280300  0.284900  1.0
  H  H516  1  0.469700  0.716000  0.534900  1.0
  H  H517  1  0.030300  0.284000  0.034900  1.0
  H  H518  1  0.534000  0.219700  0.284900  1.0
  H  H519  1  0.530300  0.784000  0.534900  1.0
  H  H520  1  0.034000  0.719700  0.784900  1.0
  H  H521  1  0.034000  0.219700  0.215100  1.0
  H  H522  1  0.030300  0.784000  0.965100  1.0
  H  H523  1  0.534000  0.719700  0.715100  1.0
  H  H524  1  0.530300  0.284000  0.465100  1.0
  H  H525  1  0.969700  0.716000  0.965100  1.0
  H  H526  1  0.466000  0.780300  0.715100  1.0
  H  H527  1  0.469700  0.216000  0.465100  1.0
  H  H528  1  0.966000  0.280300  0.215100  1.0
  H  H529  1  0.987400  0.749600  0.824700  1.0
  H  H530  1  0.000400  0.237400  0.074700  1.0
  H  H531  1  0.487400  0.249600  0.324700  1.0
  H  H532  1  0.500400  0.737400  0.574700  1.0
  H  H533  1  0.999600  0.262600  0.074700  1.0
  H  H534  1  0.512600  0.250400  0.324700  1.0
  H  H535  1  0.499600  0.762600  0.574700  1.0
  H  H536  1  0.012600  0.750400  0.824700  1.0
  H  H537  1  0.012600  0.250400  0.175300  1.0
  H  H538  1  0.999600  0.762600  0.925300  1.0
  H  H539  1  0.512600  0.750400  0.675300  1.0
  H  H540  1  0.499600  0.262600  0.425300  1.0
  H  H541  1  0.000400  0.737400  0.925300  1.0
  H  H542  1  0.487400  0.749600  0.675300  1.0
  H  H543  1  0.500400  0.237400  0.425300  1.0
  H  H544  1  0.987400  0.249600  0.175300  1.0
  H  H545  1  0.225600  0.932700  0.951600  1.0
  H  H546  1  0.817300  0.475600  0.201600  1.0
  H  H547  1  0.725600  0.432700  0.451600  1.0
  H  H548  1  0.317300  0.975600  0.701600  1.0
  H  H549  1  0.182700  0.024400  0.201600  1.0
  H  H550  1  0.274400  0.067300  0.451600  1.0
  H  H551  1  0.682700  0.524400  0.701600  1.0
  H  H552  1  0.774400  0.567300  0.951600  1.0
  H  H553  1  0.774400  0.067300  0.048400  1.0
  H  H554  1  0.182700  0.524400  0.798400  1.0
  H  H555  1  0.274400  0.567300  0.548400  1.0
  H  H556  1  0.682700  0.024400  0.298400  1.0
  H  H557  1  0.817300  0.975600  0.798400  1.0
  H  H558  1  0.725600  0.932700  0.548400  1.0
  H  H559  1  0.317300  0.475600  0.298400  1.0
  H  H560  1  0.225600  0.432700  0.048400  1.0
  H  H561  1  0.189400  0.861900  0.983800  1.0
  H  H562  1  0.888100  0.439400  0.233800  1.0
  H  H563  1  0.689400  0.361900  0.483800  1.0
  H  H564  1  0.388100  0.939400  0.733800  1.0
  H  H565  1  0.111900  0.060600  0.233800  1.0
  H  H566  1  0.310600  0.138100  0.483800  1.0
  H  H567  1  0.611900  0.560600  0.733800  1.0
  H  H568  1  0.810600  0.638100  0.983800  1.0
  H  H569  1  0.810600  0.138100  0.016200  1.0
  H  H570  1  0.111900  0.560600  0.766200  1.0
  H  H571  1  0.310600  0.638100  0.516200  1.0
  H  H572  1  0.611900  0.060600  0.266200  1.0
  H  H573  1  0.888100  0.939400  0.766200  1.0
  H  H574  1  0.689400  0.861900  0.516200  1.0
  H  H575  1  0.388100  0.439400  0.266200  1.0
  H  H576  1  0.189400  0.361900  0.016200  1.0
  H  H577  1  0.253400  0.774100  0.892800  1.0
  H  H578  1  0.975900  0.503400  0.142800  1.0
  H  H579  1  0.753400  0.274100  0.392800  1.0
  H  H580  1  0.475900  0.003400  0.642800  1.0
  H  H581  1  0.024100  0.996600  0.142800  1.0
  H  H582  1  0.246600  0.225900  0.392800  1.0
  H  H583  1  0.524100  0.496600  0.642800  1.0
  H  H584  1  0.746600  0.725900  0.892800  1.0
  H  H585  1  0.746600  0.225900  0.107200  1.0
  H  H586  1  0.024100  0.496600  0.857200  1.0
  H  H587  1  0.246600  0.725900  0.607200  1.0
  H  H588  1  0.524100  0.996600  0.357200  1.0
  H  H589  1  0.975900  0.003400  0.857200  1.0
  H  H590  1  0.753400  0.774100  0.607200  1.0
  H  H591  1  0.475900  0.503400  0.357200  1.0
  H  H592  1  0.253400  0.274100  0.107200  1.0
  H  H593  1  0.288700  0.846400  0.864000  1.0
  H  H594  1  0.903600  0.538700  0.114000  1.0
  H  H595  1  0.788700  0.346400  0.364000  1.0
  H  H596  1  0.403600  0.038700  0.614000  1.0
  H  H597  1  0.096400  0.961300  0.114000  1.0
  H  H598  1  0.211300  0.153600  0.364000  1.0
  H  H599  1  0.596400  0.461300  0.614000  1.0
  H  H600  1  0.711300  0.653600  0.864000  1.0
  H  H601  1  0.711300  0.153600  0.136000  1.0
  H  H602  1  0.096400  0.461300  0.886000  1.0
  H  H603  1  0.211300  0.653600  0.636000  1.0
  H  H604  1  0.596400  0.961300  0.386000  1.0
  H  H605  1  0.903600  0.038700  0.886000  1.0
  H  H606  1  0.788700  0.846400  0.636000  1.0
  H  H607  1  0.403600  0.538700  0.386000  1.0
  H  H608  1  0.288700  0.346400  0.136000  1.0
  H  H609  1  0.045800  0.667100  0.114700  1.0
  H  H610  1  0.082900  0.295800  0.364700  1.0
  H  H611  1  0.545800  0.167100  0.614700  1.0
  H  H612  1  0.582900  0.795800  0.864700  1.0
  H  H613  1  0.917100  0.204200  0.364700  1.0
  H  H614  1  0.454200  0.332900  0.614700  1.0
  H  H615  1  0.417100  0.704200  0.864700  1.0
  H  H616  1  0.954200  0.832900  0.114700  1.0
  H  H617  1  0.954200  0.332900  0.885300  1.0
  H  H618  1  0.917100  0.704200  0.635300  1.0
  H  H619  1  0.454200  0.832900  0.385300  1.0
  H  H620  1  0.417100  0.204200  0.135300  1.0
  H  H621  1  0.082900  0.795800  0.635300  1.0
  H  H622  1  0.545800  0.667100  0.385300  1.0
  H  H623  1  0.582900  0.295800  0.135300  1.0
  H  H624  1  0.045800  0.167100  0.885300  1.0
  H  H625  1  0.097100  0.657300  0.055500  1.0
  H  H626  1  0.092700  0.347100  0.305500  1.0
  H  H627  1  0.597100  0.157300  0.555500  1.0
  H  H628  1  0.592700  0.847100  0.805500  1.0
  H  H629  1  0.907300  0.152900  0.305500  1.0
  H  H630  1  0.402900  0.342700  0.555500  1.0
  H  H631  1  0.407300  0.652900  0.805500  1.0
  H  H632  1  0.902900  0.842700  0.055500  1.0
  H  H633  1  0.902900  0.342700  0.944500  1.0
  H  H634  1  0.907300  0.652900  0.694500  1.0
  H  H635  1  0.402900  0.842700  0.444500  1.0
  H  H636  1  0.407300  0.152900  0.194500  1.0
  H  H637  1  0.092700  0.847100  0.694500  1.0
  H  H638  1  0.597100  0.657300  0.444500  1.0
  H  H639  1  0.592700  0.347100  0.194500  1.0
  H  H640  1  0.097100  0.157300  0.944500  1.0
  H  H641  1  0.117700  0.809900  0.054200  1.0
  H  H642  1  0.940100  0.367700  0.304200  1.0
  H  H643  1  0.617700  0.309900  0.554200  1.0
  H  H644  1  0.440100  0.867700  0.804200  1.0
  H  H645  1  0.059900  0.132300  0.304200  1.0
  H  H646  1  0.382300  0.190100  0.554200  1.0
  H  H647  1  0.559900  0.632300  0.804200  1.0
  H  H648  1  0.882300  0.690100  0.054200  1.0
  H  H649  1  0.882300  0.190100  0.945800  1.0
  H  H650  1  0.059900  0.632300  0.695800  1.0
  H  H651  1  0.382300  0.690100  0.445800  1.0
  H  H652  1  0.559900  0.132300  0.195800  1.0
  H  H653  1  0.940100  0.867700  0.695800  1.0
  H  H654  1  0.617700  0.809900  0.445800  1.0
  H  H655  1  0.440100  0.367700  0.195800  1.0
  H  H656  1  0.117700  0.309900  0.945800  1.0
  H  H657  1  0.066000  0.815600  0.113000  1.0
  H  H658  1  0.934400  0.316000  0.363000  1.0
  H  H659  1  0.566000  0.315600  0.613000  1.0
  H  H660  1  0.434400  0.816000  0.863000  1.0
  H  H661  1  0.065600  0.184000  0.363000  1.0
  H  H662  1  0.434000  0.184400  0.613000  1.0
  H  H663  1  0.565600  0.684000  0.863000  1.0
  H  H664  1  0.934000  0.684400  0.113000  1.0
  H  H665  1  0.934000  0.184400  0.887000  1.0
  H  H666  1  0.065600  0.684000  0.637000  1.0
  H  H667  1  0.434000  0.684400  0.387000  1.0
  H  H668  1  0.565600  0.184000  0.137000  1.0
  H  H669  1  0.934400  0.816000  0.637000  1.0
  H  H670  1  0.566000  0.815600  0.387000  1.0
  H  H671  1  0.434400  0.316000  0.137000  1.0
  H  H672  1  0.066000  0.315600  0.887000  1.0
  H  H673  1  0.177500  0.995900  0.887000  1.0
  H  H674  1  0.754100  0.427500  0.137000  1.0
  H  H675  1  0.677500  0.495900  0.387000  1.0
  H  H676  1  0.254100  0.927500  0.637000  1.0
  H  H677  1  0.245900  0.072500  0.137000  1.0
  H  H678  1  0.322500  0.004100  0.387000  1.0
  H  H679  1  0.745900  0.572500  0.637000  1.0
  H  H680  1  0.822500  0.504100  0.887000  1.0
  H  H681  1  0.822500  0.004100  0.113000  1.0
  H  H682  1  0.245900  0.572500  0.863000  1.0
  H  H683  1  0.322500  0.504100  0.613000  1.0
  H  H684  1  0.745900  0.072500  0.363000  1.0
  H  H685  1  0.754100  0.927500  0.863000  1.0
  H  H686  1  0.677500  0.995900  0.613000  1.0
  H  H687  1  0.254100  0.427500  0.363000  1.0
  H  H688  1  0.177500  0.495900  0.113000  1.0
  H  H689  1  0.097900  0.984600  0.857500  1.0
  H  H690  1  0.765400  0.347900  0.107500  1.0
  H  H691  1  0.597900  0.484600  0.357500  1.0
  H  H692  1  0.265400  0.847900  0.607500  1.0
  H  H693  1  0.234600  0.152100  0.107500  1.0
  H  H694  1  0.402100  0.015400  0.357500  1.0
  H  H695  1  0.734600  0.652100  0.607500  1.0
  H  H696  1  0.902100  0.515400  0.857500  1.0
  H  H697  1  0.902100  0.015400  0.142500  1.0
  H  H698  1  0.234600  0.652100  0.892500  1.0
  H  H699  1  0.402100  0.515400  0.642500  1.0
  H  H700  1  0.734600  0.152100  0.392500  1.0
  H  H701  1  0.765400  0.847900  0.892500  1.0
  H  H702  1  0.597900  0.984600  0.642500  1.0
  H  H703  1  0.265400  0.347900  0.392500  1.0
  H  H704  1  0.097900  0.484600  0.142500  1.0
  H  H705  1  0.162300  0.902000  0.764400  1.0
  H  H706  1  0.848000  0.412300  0.014400  1.0
  H  H707  1  0.662300  0.402000  0.264400  1.0
  H  H708  1  0.348000  0.912300  0.514400  1.0
  H  H709  1  0.152000  0.087700  0.014400  1.0
  H  H710  1  0.337700  0.098000  0.264400  1.0
  H  H711  1  0.652000  0.587700  0.514400  1.0
  H  H712  1  0.837700  0.598000  0.764400  1.0
  H  H713  1  0.837700  0.098000  0.235600  1.0
  H  H714  1  0.152000  0.587700  0.985600  1.0
  H  H715  1  0.337700  0.598000  0.735600  1.0
  H  H716  1  0.652000  0.087700  0.485600  1.0
  H  H717  1  0.848000  0.912300  0.985600  1.0
  H  H718  1  0.662300  0.902000  0.735600  1.0
  H  H719  1  0.348000  0.412300  0.485600  1.0
  H  H720  1  0.162300  0.402000  0.235600  1.0
  H  H721  1  0.240600  0.915100  0.795800  1.0
  H  H722  1  0.834900  0.490600  0.045800  1.0
  H  H723  1  0.740600  0.415100  0.295800  1.0
  H  H724  1  0.334900  0.990600  0.545800  1.0
  H  H725  1  0.165100  0.009400  0.045800  1.0
  H  H726  1  0.259400  0.084900  0.295800  1.0
  H  H727  1  0.665100  0.509400  0.545800  1.0
  H  H728  1  0.759400  0.584900  0.795800  1.0
  H  H729  1  0.759400  0.084900  0.204200  1.0
  H  H730  1  0.165100  0.509400  0.954200  1.0
  H  H731  1  0.259400  0.584900  0.704200  1.0
  H  H732  1  0.665100  0.009400  0.454200  1.0
  H  H733  1  0.834900  0.990600  0.954200  1.0
  H  H734  1  0.740600  0.915100  0.704200  1.0
  H  H735  1  0.334900  0.490600  0.454200  1.0
  H  H736  1  0.240600  0.415100  0.204200  1.0
  H  H737  1  0.368000  0.035200  0.915500  1.0
  H  H738  1  0.714800  0.618000  0.165500  1.0
  H  H739  1  0.868000  0.535200  0.415500  1.0
  H  H740  1  0.214800  0.118000  0.665500  1.0
  H  H741  1  0.285200  0.882000  0.165500  1.0
  H  H742  1  0.132000  0.964800  0.415500  1.0
  H  H743  1  0.785200  0.382000  0.665500  1.0
  H  H744  1  0.632000  0.464800  0.915500  1.0
  H  H745  1  0.632000  0.964800  0.084500  1.0
  H  H746  1  0.285200  0.382000  0.834500  1.0
  H  H747  1  0.132000  0.464800  0.584500  1.0
  H  H748  1  0.785200  0.882000  0.334500  1.0
  H  H749  1  0.714800  0.118000  0.834500  1.0
  H  H750  1  0.868000  0.035200  0.584500  1.0
  H  H751  1  0.214800  0.618000  0.334500  1.0
  H  H752  1  0.368000  0.535200  0.084500  1.0
  H  H753  1  0.414400  0.005800  0.893900  1.0
  H  H754  1  0.744200  0.664400  0.143900  1.0
  H  H755  1  0.914400  0.505800  0.393900  1.0
  H  H756  1  0.244200  0.164400  0.643900  1.0
  H  H757  1  0.255800  0.835600  0.143900  1.0
  H  H758  1  0.085600  0.994200  0.393900  1.0
  H  H759  1  0.755800  0.335600  0.643900  1.0
  H  H760  1  0.585600  0.494200  0.893900  1.0
  H  H761  1  0.585600  0.994200  0.106100  1.0
  H  H762  1  0.255800  0.335600  0.856100  1.0
  H  H763  1  0.085600  0.494200  0.606100  1.0
  H  H764  1  0.755800  0.835600  0.356100  1.0
  H  H765  1  0.744200  0.164400  0.856100  1.0
  H  H766  1  0.914400  0.005800  0.606100  1.0
  H  H767  1  0.244200  0.664400  0.356100  1.0
  H  H768  1  0.414400  0.505800  0.106100  1.0
  H  H769  1  0.384100  0.011900  0.833700  1.0
  H  H770  1  0.738100  0.634100  0.083700  1.0
  H  H771  1  0.884100  0.511900  0.333700  1.0
  H  H772  1  0.238100  0.134100  0.583700  1.0
  H  H773  1  0.261900  0.865900  0.083700  1.0
  H  H774  1  0.115900  0.988100  0.333700  1.0
  H  H775  1  0.761900  0.365900  0.583700  1.0
  H  H776  1  0.615900  0.488100  0.833700  1.0
  H  H777  1  0.615900  0.988100  0.166300  1.0
  H  H778  1  0.261900  0.365900  0.916300  1.0
  H  H779  1  0.115900  0.488100  0.666300  1.0
  H  H780  1  0.761900  0.865900  0.416300  1.0
  H  H781  1  0.738100  0.134100  0.916300  1.0
  H  H782  1  0.884100  0.011900  0.666300  1.0
  H  H783  1  0.238100  0.634100  0.416300  1.0
  H  H784  1  0.384100  0.511900  0.166300  1.0
  H  H785  1  0.371400  0.065400  0.855000  1.0
  H  H786  1  0.684600  0.621400  0.105000  1.0
  H  H787  1  0.871400  0.565400  0.355000  1.0
  H  H788  1  0.184600  0.121400  0.605000  1.0
  H  H789  1  0.315400  0.878600  0.105000  1.0
  H  H790  1  0.128600  0.934600  0.355000  1.0
  H  H791  1  0.815400  0.378600  0.605000  1.0
  H  H792  1  0.628600  0.434600  0.855000  1.0
  H  H793  1  0.628600  0.934600  0.145000  1.0
  H  H794  1  0.315400  0.378600  0.895000  1.0
  H  H795  1  0.128600  0.434600  0.645000  1.0
  H  H796  1  0.815400  0.878600  0.395000  1.0
  H  H797  1  0.684600  0.121400  0.895000  1.0
  H  H798  1  0.871400  0.065400  0.645000  1.0
  H  H799  1  0.184600  0.621400  0.395000  1.0
  H  H800  1  0.371400  0.565400  0.145000  1.0
  H  H801  1  0.380800  0.958700  0.964400  1.0
  H  H802  1  0.791300  0.630800  0.214400  1.0
  H  H803  1  0.880800  0.458700  0.464400  1.0
  H  H804  1  0.291300  0.130800  0.714400  1.0
  H  H805  1  0.208700  0.869200  0.214400  1.0
  H  H806  1  0.119200  0.041300  0.464400  1.0
  H  H807  1  0.708700  0.369200  0.714400  1.0
  H  H808  1  0.619200  0.541300  0.964400  1.0
  H  H809  1  0.619200  0.041300  0.035600  1.0
  H  H810  1  0.208700  0.369200  0.785600  1.0
  H  H811  1  0.119200  0.541300  0.535600  1.0
  H  H812  1  0.708700  0.869200  0.285600  1.0
  H  H813  1  0.791300  0.130800  0.785600  1.0
  H  H814  1  0.880800  0.958700  0.535600  1.0
  H  H815  1  0.291300  0.630800  0.285600  1.0
  H  H816  1  0.380800  0.458700  0.035600  1.0
  H  H817  1  0.330000  0.925800  0.958200  1.0
  H  H818  1  0.824200  0.580000  0.208200  1.0
  H  H819  1  0.830000  0.425800  0.458200  1.0
  H  H820  1  0.324200  0.080000  0.708200  1.0
  H  H821  1  0.175800  0.920000  0.208200  1.0
  H  H822  1  0.170000  0.074200  0.458200  1.0
  H  H823  1  0.675800  0.420000  0.708200  1.0
  H  H824  1  0.670000  0.574200  0.958200  1.0
  H  H825  1  0.670000  0.074200  0.041800  1.0
  H  H826  1  0.175800  0.420000  0.791800  1.0
  H  H827  1  0.170000  0.574200  0.541800  1.0
  H  H828  1  0.675800  0.920000  0.291800  1.0
  H  H829  1  0.824200  0.080000  0.791800  1.0
  H  H830  1  0.830000  0.925800  0.541800  1.0
  H  H831  1  0.324200  0.580000  0.291800  1.0
  H  H832  1  0.330000  0.425800  0.041800  1.0
  H  H833  1  0.326800  0.986500  0.960900  1.0
  H  H834  1  0.763500  0.576800  0.210900  1.0
  H  H835  1  0.826800  0.486500  0.460900  1.0
  H  H836  1  0.263500  0.076800  0.710900  1.0
  H  H837  1  0.236500  0.923200  0.210900  1.0
  H  H838  1  0.173200  0.013500  0.460900  1.0
  H  H839  1  0.736500  0.423200  0.710900  1.0
  H  H840  1  0.673200  0.513500  0.960900  1.0
  H  H841  1  0.673200  0.013500  0.039100  1.0
  H  H842  1  0.236500  0.423200  0.789100  1.0
  H  H843  1  0.173200  0.513500  0.539100  1.0
  H  H844  1  0.736500  0.923200  0.289100  1.0
  H  H845  1  0.763500  0.076800  0.789100  1.0
  H  H846  1  0.826800  0.986500  0.539100  1.0
  H  H847  1  0.263500  0.576800  0.289100  1.0
  H  H848  1  0.326800  0.486500  0.039100  1.0
  H  H849  1  0.418000  0.920800  0.905800  1.0
  H  H850  1  0.829200  0.668000  0.155800  1.0
  H  H851  1  0.918000  0.420800  0.405800  1.0
  H  H852  1  0.329200  0.168000  0.655800  1.0
  H  H853  1  0.170800  0.832000  0.155800  1.0
  H  H854  1  0.082000  0.079200  0.405800  1.0
  H  H855  1  0.670800  0.332000  0.655800  1.0
  H  H856  1  0.582000  0.579200  0.905800  1.0
  H  H857  1  0.582000  0.079200  0.094200  1.0
  H  H858  1  0.170800  0.332000  0.844200  1.0
  H  H859  1  0.082000  0.579200  0.594200  1.0
  H  H860  1  0.670800  0.832000  0.344200  1.0
  H  H861  1  0.829200  0.168000  0.844200  1.0
  H  H862  1  0.918000  0.920800  0.594200  1.0
  H  H863  1  0.329200  0.668000  0.344200  1.0
  H  H864  1  0.418000  0.420800  0.094200  1.0
  H  H865  1  0.391000  0.920800  0.860600  1.0
  H  H866  1  0.829200  0.641000  0.110600  1.0
  H  H867  1  0.891000  0.420800  0.360600  1.0
  H  H868  1  0.329200  0.141000  0.610600  1.0
  H  H869  1  0.170800  0.859000  0.110600  1.0
  H  H870  1  0.109000  0.079200  0.360600  1.0
  H  H871  1  0.670800  0.359000  0.610600  1.0
  H  H872  1  0.609000  0.579200  0.860600  1.0
  H  H873  1  0.609000  0.079200  0.139400  1.0
  H  H874  1  0.170800  0.359000  0.889400  1.0
  H  H875  1  0.109000  0.579200  0.639400  1.0
  H  H876  1  0.670800  0.859000  0.389400  1.0
  H  H877  1  0.829200  0.141000  0.889400  1.0
  H  H878  1  0.891000  0.920800  0.639400  1.0
  H  H879  1  0.329200  0.641000  0.389400  1.0
  H  H880  1  0.391000  0.420800  0.139400  1.0
  H  H881  1  0.368400  0.886700  0.897900  1.0
  H  H882  1  0.863300  0.618400  0.147900  1.0
  H  H883  1  0.868400  0.386700  0.397900  1.0
  H  H884  1  0.363300  0.118400  0.647900  1.0
  H  H885  1  0.136700  0.881600  0.147900  1.0
  H  H886  1  0.131600  0.113300  0.397900  1.0
  H  H887  1  0.636700  0.381600  0.647900  1.0
  H  H888  1  0.631600  0.613300  0.897900  1.0
  H  H889  1  0.631600  0.113300  0.102100  1.0
  H  H890  1  0.136700  0.381600  0.852100  1.0
  H  H891  1  0.131600  0.613300  0.602100  1.0
  H  H892  1  0.636700  0.881600  0.352100  1.0
  H  H893  1  0.863300  0.118400  0.852100  1.0
  H  H894  1  0.868400  0.886700  0.602100  1.0
  H  H895  1  0.363300  0.618400  0.352100  1.0
  H  H896  1  0.368400  0.386700  0.102100  1.0
  H  H897  1  0.290800  0.097900  0.842300  1.0
  H  H898  1  0.652100  0.540800  0.092300  1.0
  H  H899  1  0.790800  0.597900  0.342300  1.0
  H  H900  1  0.152100  0.040800  0.592300  1.0
  H  H901  1  0.347900  0.959200  0.092300  1.0
  H  H902  1  0.209200  0.902100  0.342300  1.0
  H  H903  1  0.847900  0.459200  0.592300  1.0
  H  H904  1  0.709200  0.402100  0.842300  1.0
  H  H905  1  0.709200  0.902100  0.157700  1.0
  H  H906  1  0.347900  0.459200  0.907700  1.0
  H  H907  1  0.209200  0.402100  0.657700  1.0
  H  H908  1  0.847900  0.959200  0.407700  1.0
  H  H909  1  0.652100  0.040800  0.907700  1.0
  H  H910  1  0.790800  0.097900  0.657700  1.0
  H  H911  1  0.152100  0.540800  0.407700  1.0
  H  H912  1  0.290800  0.597900  0.157700  1.0
  H  H913  1  0.284000  0.072000  0.887600  1.0
  H  H914  1  0.678000  0.534000  0.137600  1.0
  H  H915  1  0.784000  0.572000  0.387600  1.0
  H  H916  1  0.178000  0.034000  0.637600  1.0
  H  H917  1  0.322000  0.966000  0.137600  1.0
  H  H918  1  0.216000  0.928000  0.387600  1.0
  H  H919  1  0.822000  0.466000  0.637600  1.0
  H  H920  1  0.716000  0.428000  0.887600  1.0
  H  H921  1  0.716000  0.928000  0.112400  1.0
  H  H922  1  0.322000  0.466000  0.862400  1.0
  H  H923  1  0.216000  0.428000  0.612400  1.0
  H  H924  1  0.822000  0.966000  0.362400  1.0
  H  H925  1  0.678000  0.034000  0.862400  1.0
  H  H926  1  0.784000  0.072000  0.612400  1.0
  H  H927  1  0.178000  0.534000  0.362400  1.0
  H  H928  1  0.284000  0.572000  0.112400  1.0
  H  H929  1  0.242900  0.061800  0.851300  1.0
  H  H930  1  0.688200  0.492900  0.101300  1.0
  H  H931  1  0.742900  0.561800  0.351300  1.0
  H  H932  1  0.188200  0.992900  0.601300  1.0
  H  H933  1  0.311800  0.007100  0.101300  1.0
  H  H934  1  0.257100  0.938200  0.351300  1.0
  H  H935  1  0.811800  0.507100  0.601300  1.0
  H  H936  1  0.757100  0.438200  0.851300  1.0
  H  H937  1  0.757100  0.938200  0.148700  1.0
  H  H938  1  0.311800  0.507100  0.898700  1.0
  H  H939  1  0.257100  0.438200  0.648700  1.0
  H  H940  1  0.811800  0.007100  0.398700  1.0
  H  H941  1  0.688200  0.992900  0.898700  1.0
  H  H942  1  0.742900  0.061800  0.648700  1.0
  H  H943  1  0.188200  0.492900  0.398700  1.0
  H  H944  1  0.242900  0.561800  0.148700  1.0
  H  H945  1  0.320200  0.049600  0.784600  1.0
  H  H946  1  0.700400  0.570200  0.034600  1.0
  H  H947  1  0.820200  0.549600  0.284600  1.0
  H  H948  1  0.200400  0.070200  0.534600  1.0
  H  H949  1  0.299600  0.929800  0.034600  1.0
  H  H950  1  0.179800  0.950400  0.284600  1.0
  H  H951  1  0.799600  0.429800  0.534600  1.0
  H  H952  1  0.679800  0.450400  0.784600  1.0
  H  H953  1  0.679800  0.950400  0.215400  1.0
  H  H954  1  0.299600  0.429800  0.965400  1.0
  H  H955  1  0.179800  0.450400  0.715400  1.0
  H  H956  1  0.799600  0.929800  0.465400  1.0
  H  H957  1  0.700400  0.070200  0.965400  1.0
  H  H958  1  0.820200  0.049600  0.715400  1.0
  H  H959  1  0.200400  0.570200  0.465400  1.0
  H  H960  1  0.320200  0.549600  0.215400  1.0
  H  H961  1  0.273600  0.010600  0.787800  1.0
  H  H962  1  0.739400  0.523600  0.037800  1.0
  H  H963  1  0.773600  0.510600  0.287800  1.0
  H  H964  1  0.239400  0.023600  0.537800  1.0
  H  H965  1  0.260600  0.976400  0.037800  1.0
  H  H966  1  0.226400  0.989400  0.287800  1.0
  H  H967  1  0.760600  0.476400  0.537800  1.0
  H  H968  1  0.726400  0.489400  0.787800  1.0
  H  H969  1  0.726400  0.989400  0.212200  1.0
  H  H970  1  0.260600  0.476400  0.962200  1.0
  H  H971  1  0.226400  0.489400  0.712200  1.0
  H  H972  1  0.760600  0.976400  0.462200  1.0
  H  H973  1  0.739400  0.023600  0.962200  1.0
  H  H974  1  0.773600  0.010600  0.712200  1.0
  H  H975  1  0.239400  0.523600  0.462200  1.0
  H  H976  1  0.273600  0.510600  0.212200  1.0
  H  H977  1  0.330900  0.989900  0.789200  1.0
  H  H978  1  0.760100  0.580900  0.039200  1.0
  H  H979  1  0.830900  0.489900  0.289200  1.0
  H  H980  1  0.260100  0.080900  0.539200  1.0
  H  H981  1  0.239900  0.919100  0.039200  1.0
  H  H982  1  0.169100  0.010100  0.289200  1.0
  H  H983  1  0.739900  0.419100  0.539200  1.0
  H  H984  1  0.669100  0.510100  0.789200  1.0
  H  H985  1  0.669100  0.010100  0.210800  1.0
  H  H986  1  0.239900  0.419100  0.960800  1.0
  H  H987  1  0.169100  0.510100  0.710800  1.0
  H  H988  1  0.739900  0.919100  0.460800  1.0
  H  H989  1  0.760100  0.080900  0.960800  1.0
  H  H990  1  0.830900  0.989900  0.710800  1.0
  H  H991  1  0.260100  0.580900  0.460800  1.0
  H  H992  1  0.330900  0.489900  0.210800  1.0
  H  H993  1  0.971500  0.703300  0.254400  1.0
  H  H994  1  0.046700  0.221500  0.504400  1.0
  H  H995  1  0.471500  0.203300  0.754400  1.0
  H  H996  1  0.546700  0.721500  0.004400  1.0
  H  H997  1  0.953300  0.278500  0.504400  1.0
  H  H998  1  0.528500  0.296700  0.754400  1.0
  H  H999  1  0.453300  0.778500  0.004400  1.0
  H  H1000  1  0.028500  0.796700  0.254400  1.0
  H  H1001  1  0.028500  0.296700  0.745600  1.0
  H  H1002  1  0.953300  0.778500  0.495600  1.0
  H  H1003  1  0.528500  0.796700  0.245600  1.0
  H  H1004  1  0.453300  0.278500  0.995600  1.0
  H  H1005  1  0.046700  0.721500  0.495600  1.0
  H  H1006  1  0.471500  0.703300  0.245600  1.0
  H  H1007  1  0.546700  0.221500  0.995600  1.0
  H  H1008  1  0.971500  0.203300  0.745600  1.0
  H  H1009  1  0.954400  0.754600  0.277900  1.0
  H  H1010  1  0.995400  0.204400  0.527900  1.0
  H  H1011  1  0.454400  0.254600  0.777900  1.0
  H  H1012  1  0.495400  0.704400  0.027900  1.0
  H  H1013  1  0.004600  0.295600  0.527900  1.0
  H  H1014  1  0.545600  0.245400  0.777900  1.0
  H  H1015  1  0.504600  0.795600  0.027900  1.0
  H  H1016  1  0.045600  0.745400  0.277900  1.0
  H  H1017  1  0.045600  0.245400  0.722100  1.0
  H  H1018  1  0.004600  0.795600  0.472100  1.0
  H  H1019  1  0.545600  0.745400  0.222100  1.0
  H  H1020  1  0.504600  0.295600  0.972100  1.0
  H  H1021  1  0.995400  0.704400  0.472100  1.0
  H  H1022  1  0.454400  0.754600  0.222100  1.0
  H  H1023  1  0.495400  0.204400  0.972100  1.0
  H  H1024  1  0.954400  0.254600  0.722100  1.0
  H  H1025  1  0.877400  0.732600  0.230800  1.0
  H  H1026  1  0.017400  0.127400  0.480800  1.0
  H  H1027  1  0.377400  0.232600  0.730800  1.0
  H  H1028  1  0.517400  0.627400  0.980800  1.0
  H  H1029  1  0.982600  0.372600  0.480800  1.0
  H  H1030  1  0.622600  0.267400  0.730800  1.0
  H  H1031  1  0.482600  0.872600  0.980800  1.0
  H  H1032  1  0.122600  0.767400  0.230800  1.0
  H  H1033  1  0.122600  0.267400  0.769200  1.0
  H  H1034  1  0.982600  0.872600  0.519200  1.0
  H  H1035  1  0.622600  0.767400  0.269200  1.0
  H  H1036  1  0.482600  0.372600  0.019200  1.0
  H  H1037  1  0.017400  0.627400  0.519200  1.0
  H  H1038  1  0.377400  0.732600  0.269200  1.0
  H  H1039  1  0.517400  0.127400  0.019200  1.0
  H  H1040  1  0.877400  0.232600  0.769200  1.0
  H  H1041  1  0.910200  0.691400  0.205400  1.0
  H  H1042  1  0.058600  0.160200  0.455400  1.0
  H  H1043  1  0.410200  0.191400  0.705400  1.0
  H  H1044  1  0.558600  0.660200  0.955400  1.0
  H  H1045  1  0.941400  0.339800  0.455400  1.0
  H  H1046  1  0.589800  0.308600  0.705400  1.0
  H  H1047  1  0.441400  0.839800  0.955400  1.0
  H  H1048  1  0.089800  0.808600  0.205400  1.0
  H  H1049  1  0.089800  0.308600  0.794600  1.0
  H  H1050  1  0.941400  0.839800  0.544600  1.0
  H  H1051  1  0.589800  0.808600  0.294600  1.0
  H  H1052  1  0.441400  0.339800  0.044600  1.0
  H  H1053  1  0.058600  0.660200  0.544600  1.0
  H  H1054  1  0.410200  0.691400  0.294600  1.0
  H  H1055  1  0.558600  0.160200  0.044600  1.0
  H  H1056  1  0.910200  0.191400  0.794600  1.0
  H  H1057  1  0.884400  0.737900  0.180900  1.0
  H  H1058  1  0.012100  0.134400  0.430900  1.0
  H  H1059  1  0.384400  0.237900  0.680900  1.0
  H  H1060  1  0.512100  0.634400  0.930900  1.0
  H  H1061  1  0.987900  0.365600  0.430900  1.0
  H  H1062  1  0.615600  0.262100  0.680900  1.0
  H  H1063  1  0.487900  0.865600  0.930900  1.0
  H  H1064  1  0.115600  0.762100  0.180900  1.0
  H  H1065  1  0.115600  0.262100  0.819100  1.0
  H  H1066  1  0.987900  0.865600  0.569100  1.0
  H  H1067  1  0.615600  0.762100  0.319100  1.0
  H  H1068  1  0.487900  0.365600  0.069100  1.0
  H  H1069  1  0.012100  0.634400  0.569100  1.0
  H  H1070  1  0.384400  0.737900  0.319100  1.0
  H  H1071  1  0.512100  0.134400  0.069100  1.0
  H  H1072  1  0.884400  0.237900  0.819100  1.0
  H  H1073  1  0.907800  0.818100  0.239400  1.0
  H  H1074  1  0.931900  0.157800  0.489400  1.0
  H  H1075  1  0.407800  0.318100  0.739400  1.0
  H  H1076  1  0.431900  0.657800  0.989400  1.0
  H  H1077  1  0.068100  0.342200  0.489400  1.0
  H  H1078  1  0.592200  0.181900  0.739400  1.0
  H  H1079  1  0.568100  0.842200  0.989400  1.0
  H  H1080  1  0.092200  0.681900  0.239400  1.0
  H  H1081  1  0.092200  0.181900  0.760600  1.0
  H  H1082  1  0.068100  0.842200  0.510600  1.0
  H  H1083  1  0.592200  0.681900  0.260600  1.0
  H  H1084  1  0.568100  0.342200  0.010600  1.0
  H  H1085  1  0.931900  0.657800  0.510600  1.0
  H  H1086  1  0.407800  0.818100  0.260600  1.0
  H  H1087  1  0.431900  0.157800  0.010600  1.0
  H  H1088  1  0.907800  0.318100  0.760600  1.0
  H  H1089  1  0.916900  0.824200  0.189800  1.0
  H  H1090  1  0.925800  0.166900  0.439800  1.0
  H  H1091  1  0.416900  0.324200  0.689800  1.0
  H  H1092  1  0.425800  0.666900  0.939800  1.0
  H  H1093  1  0.074200  0.333100  0.439800  1.0
  H  H1094  1  0.583100  0.175800  0.689800  1.0
  H  H1095  1  0.574200  0.833100  0.939800  1.0
  H  H1096  1  0.083100  0.675800  0.189800  1.0
  H  H1097  1  0.083100  0.175800  0.810200  1.0
  H  H1098  1  0.074200  0.833100  0.560200  1.0
  H  H1099  1  0.583100  0.675800  0.310200  1.0
  H  H1100  1  0.574200  0.333100  0.060200  1.0
  H  H1101  1  0.925800  0.666900  0.560200  1.0
  H  H1102  1  0.416900  0.824200  0.310200  1.0
  H  H1103  1  0.425800  0.166900  0.060200  1.0
  H  H1104  1  0.916900  0.324200  0.810200  1.0
  H  H1105  1  0.962500  0.834700  0.222100  1.0
  H  H1106  1  0.915300  0.212500  0.472100  1.0
  H  H1107  1  0.462500  0.334700  0.722100  1.0
  H  H1108  1  0.415300  0.712500  0.972100  1.0
  H  H1109  1  0.084700  0.287500  0.472100  1.0
  H  H1110  1  0.537500  0.165300  0.722100  1.0
  H  H1111  1  0.584700  0.787500  0.972100  1.0
  H  H1112  1  0.037500  0.665300  0.222100  1.0
  H  H1113  1  0.037500  0.165300  0.777900  1.0
  H  H1114  1  0.084700  0.787500  0.527900  1.0
  H  H1115  1  0.537500  0.665300  0.277900  1.0
  H  H1116  1  0.584700  0.287500  0.027900  1.0
  H  H1117  1  0.915300  0.712500  0.527900  1.0
  H  H1118  1  0.462500  0.834700  0.277900  1.0
  H  H1119  1  0.415300  0.212500  0.027900  1.0
  H  H1120  1  0.962500  0.334700  0.777900  1.0
  Pd  Pd1121  1  0.000000  0.750000  0.166216  1.0
  Pd  Pd1122  1  0.000000  0.250000  0.416216  1.0
  Pd  Pd1123  1  0.500000  0.250000  0.666216  1.0
  Pd  Pd1124  1  0.500000  0.750000  0.916216  1.0
  Pd  Pd1125  1  0.000000  0.250000  0.833784  1.0
  Pd  Pd1126  1  0.000000  0.750000  0.583784  1.0
  Pd  Pd1127  1  0.500000  0.750000  0.333784  1.0
  Pd  Pd1128  1  0.500000  0.250000  0.083784  1.0
  Pd  Pd1129  1  0.284202  0.959169  0.874315  1.0
  Pd  Pd1130  1  0.790831  0.534202  0.124315  1.0
  Pd  Pd1131  1  0.784202  0.459169  0.374315  1.0
  Pd  Pd1132  1  0.290831  0.034202  0.624315  1.0
  Pd  Pd1133  1  0.209169  0.965798  0.124315  1.0
  Pd  Pd1134  1  0.215798  0.040831  0.374315  1.0
  Pd  Pd1135  1  0.709169  0.465798  0.624315  1.0
  Pd  Pd1136  1  0.715798  0.540831  0.874315  1.0
  Pd  Pd1137  1  0.715798  0.040831  0.125685  1.0
  Pd  Pd1138  1  0.209169  0.465798  0.875685  1.0
  Pd  Pd1139  1  0.215798  0.540831  0.625685  1.0
  Pd  Pd1140  1  0.709169  0.965798  0.375685  1.0
  Pd  Pd1141  1  0.790831  0.034202  0.875685  1.0
  Pd  Pd1142  1  0.784202  0.959169  0.625685  1.0
  Pd  Pd1143  1  0.290831  0.534202  0.375685  1.0
  Pd  Pd1144  1  0.284202  0.459169  0.125685  1.0
  C  C1145  1  0.055200  0.806800  0.907700  1
  C  C1146  1  0.943200  0.305200  0.157700  1
  C  C1147  1  0.555200  0.306800  0.407700  1
  C  C1148  1  0.443200  0.805200  0.657700  1
  C  C1149  1  0.056800  0.194800  0.157700  1
  C  C1150  1  0.444800  0.193200  0.407700  1
  C  C1151  1  0.556800  0.694800  0.657700  1
  C  C1152  1  0.944800  0.693200  0.907700  1
  C  C1153  1  0.944800  0.193200  0.092300  1
  C  C1154  1  0.056800  0.694800  0.842300  1
  C  C1155  1  0.444800  0.693200  0.592300  1
  C  C1156  1  0.556800  0.194800  0.342300  1
  C  C1157  1  0.943200  0.805200  0.842300  1
  C  C1158  1  0.555200  0.806800  0.592300  1
  C  C1159  1  0.443200  0.305200  0.342300  1
  C  C1160  1  0.055200  0.306800  0.092300  1
  C  C1161  1  0.031000  0.771000  0.938800  1
  C  C1162  1  0.979000  0.281000  0.188800  1
  C  C1163  1  0.531000  0.271000  0.438800  1
  C  C1164  1  0.479000  0.781000  0.688800  1
  C  C1165  1  0.021000  0.219000  0.188800  1
  C  C1166  1  0.469000  0.229000  0.438800  1
  C  C1167  1  0.521000  0.719000  0.688800  1
  C  C1168  1  0.969000  0.729000  0.938800  1
  C  C1169  1  0.969000  0.229000  0.061200  1
  C  C1170  1  0.021000  0.719000  0.811200  1
  C  C1171  1  0.469000  0.729000  0.561200  1
  C  C1172  1  0.521000  0.219000  0.311200  1
  C  C1173  1  0.979000  0.781000  0.811200  1
  C  C1174  1  0.531000  0.771000  0.561200  1
  C  C1175  1  0.479000  0.281000  0.311200  1
  C  C1176  1  0.031000  0.271000  0.061200  1
  C  C1177  1  0.015000  0.798000  0.978800  1
  C  C1178  1  0.952000  0.265000  0.228800  1
  C  C1179  1  0.515000  0.298000  0.478800  1
  C  C1180  1  0.452000  0.765000  0.728800  1
  C  C1181  1  0.048000  0.235000  0.228800  1
  C  C1182  1  0.485000  0.202000  0.478800  1
  C  C1183  1  0.548000  0.735000  0.728800  1
  C  C1184  1  0.985000  0.702000  0.978800  1
  C  C1185  1  0.985000  0.202000  0.021200  1
  C  C1186  1  0.048000  0.735000  0.771200  1
  C  C1187  1  0.485000  0.702000  0.521200  1
  C  C1188  1  0.548000  0.235000  0.271200  1
  C  C1189  1  0.952000  0.765000  0.771200  1
  C  C1190  1  0.515000  0.798000  0.521200  1
  C  C1191  1  0.452000  0.265000  0.271200  1
  C  C1192  1  0.015000  0.298000  0.021200  1
  C  C1193  1  0.058000  0.830000  0.997700  1
  C  C1194  1  0.920000  0.308000  0.247700  1
  C  C1195  1  0.558000  0.330000  0.497700  1
  C  C1196  1  0.420000  0.808000  0.747700  1
  C  C1197  1  0.080000  0.192000  0.247700  1
  C  C1198  1  0.442000  0.170000  0.497700  1
  C  C1199  1  0.580000  0.692000  0.747700  1
  C  C1200  1  0.942000  0.670000  0.997700  1
  C  C1201  1  0.942000  0.170000  0.002300  1
  C  C1202  1  0.080000  0.692000  0.752300  1
  C  C1203  1  0.442000  0.670000  0.502300  1
  C  C1204  1  0.580000  0.192000  0.252300  1
  C  C1205  1  0.920000  0.808000  0.752300  1
  C  C1206  1  0.558000  0.830000  0.502300  1
  C  C1207  1  0.420000  0.308000  0.252300  1
  C  C1208  1  0.058000  0.330000  0.002300  1
  C  C1209  1  0.080000  0.865000  0.965700  1
  C  C1210  1  0.885000  0.330000  0.215700  1
  C  C1211  1  0.580000  0.365000  0.465700  1
  C  C1212  1  0.385000  0.830000  0.715700  1
  C  C1213  1  0.115000  0.170000  0.215700  1
  C  C1214  1  0.420000  0.135000  0.465700  1
  C  C1215  1  0.615000  0.670000  0.715700  1
  C  C1216  1  0.920000  0.635000  0.965700  1
  C  C1217  1  0.920000  0.135000  0.034300  1
  C  C1218  1  0.115000  0.670000  0.784300  1
  C  C1219  1  0.420000  0.635000  0.534300  1
  C  C1220  1  0.615000  0.170000  0.284300  1
  C  C1221  1  0.885000  0.830000  0.784300  1
  C  C1222  1  0.580000  0.865000  0.534300  1
  C  C1223  1  0.385000  0.330000  0.284300  1
  C  C1224  1  0.080000  0.365000  0.034300  1
  C  C1225  1  0.098000  0.837600  0.925900  1
  C  C1226  1  0.912400  0.348000  0.175900  1
  C  C1227  1  0.598000  0.337600  0.425900  1
  C  C1228  1  0.412400  0.848000  0.675900  1
  C  C1229  1  0.087600  0.152000  0.175900  1
  C  C1230  1  0.402000  0.162400  0.425900  1
  C  C1231  1  0.587600  0.652000  0.675900  1
  C  C1232  1  0.902000  0.662400  0.925900  1
  C  C1233  1  0.902000  0.162400  0.074100  1
  C  C1234  1  0.087600  0.652000  0.824100  1
  C  C1235  1  0.402000  0.662400  0.574100  1
  C  C1236  1  0.587600  0.152000  0.324100  1
  C  C1237  1  0.912400  0.848000  0.824100  1
  C  C1238  1  0.598000  0.837600  0.574100  1
  C  C1239  1  0.412400  0.348000  0.324100  1
  C  C1240  1  0.098000  0.337600  0.074100  1
  C  C1241  1  0.978800  0.720700  0.790300  1.0
  C  C1242  1  0.029300  0.228800  0.040300  1.0
  C  C1243  1  0.478800  0.220700  0.290300  1.0
  C  C1244  1  0.529300  0.728800  0.540300  1.0
  C  C1245  1  0.970700  0.271200  0.040300  1.0
  C  C1246  1  0.521200  0.279300  0.290300  1.0
  C  C1247  1  0.470700  0.771200  0.540300  1.0
  C  C1248  1  0.021200  0.779300  0.790300  1.0
  C  C1249  1  0.021200  0.279300  0.209700  1.0
  C  C1250  1  0.970700  0.771200  0.959700  1.0
  C  C1251  1  0.521200  0.779300  0.709700  1.0
  C  C1252  1  0.470700  0.271200  0.459700  1.0
  C  C1253  1  0.029300  0.728800  0.959700  1.0
  C  C1254  1  0.478800  0.720700  0.709700  1.0
  C  C1255  1  0.529300  0.228800  0.459700  1.0
  C  C1256  1  0.978800  0.220700  0.209700  1.0
  C  C1257  1  0.948300  0.748800  0.763800  1.0
  C  C1258  1  0.001200  0.198300  0.013800  1.0
  C  C1259  1  0.448300  0.248800  0.263800  1.0
  C  C1260  1  0.501200  0.698300  0.513800  1.0
  C  C1261  1  0.998800  0.301700  0.013800  1.0
  C  C1262  1  0.551700  0.251200  0.263800  1.0
  C  C1263  1  0.498800  0.801700  0.513800  1.0
  C  C1264  1  0.051700  0.751200  0.763800  1.0
  C  C1265  1  0.051700  0.251200  0.236200  1.0
  C  C1266  1  0.998800  0.801700  0.986200  1.0
  C  C1267  1  0.551700  0.751200  0.736200  1.0
  C  C1268  1  0.498800  0.301700  0.486200  1.0
  C  C1269  1  0.001200  0.698300  0.986200  1.0
  C  C1270  1  0.448300  0.748800  0.736200  1.0
  C  C1271  1  0.501200  0.198300  0.486200  1.0
  C  C1272  1  0.948300  0.248800  0.236200  1.0
  C  C1273  1  0.896200  0.752200  0.771300  1.0
  C  C1274  1  0.997800  0.146200  0.021300  1.0
  C  C1275  1  0.396200  0.252200  0.271300  1.0
  C  C1276  1  0.497800  0.646200  0.521300  1.0
  C  C1277  1  0.002200  0.353800  0.021300  1.0
  C  C1278  1  0.603800  0.247800  0.271300  1.0
  C  C1279  1  0.502200  0.853800  0.521300  1.0
  C  C1280  1  0.103800  0.747800  0.771300  1.0
  C  C1281  1  0.103800  0.247800  0.228700  1.0
  C  C1282  1  0.002200  0.853800  0.978700  1.0
  C  C1283  1  0.603800  0.747800  0.728700  1.0
  C  C1284  1  0.502200  0.353800  0.478700  1.0
  C  C1285  1  0.997800  0.646200  0.978700  1.0
  C  C1286  1  0.396200  0.752200  0.728700  1.0
  C  C1287  1  0.497800  0.146200  0.478700  1.0
  C  C1288  1  0.896200  0.252200  0.228700  1.0
  C  C1289  1  0.874100  0.723000  0.803600  1.0
  C  C1290  1  0.027000  0.124100  0.053600  1.0
  C  C1291  1  0.374100  0.223000  0.303600  1.0
  C  C1292  1  0.527000  0.624100  0.553600  1.0
  C  C1293  1  0.973000  0.375900  0.053600  1.0
  C  C1294  1  0.625900  0.277000  0.303600  1.0
  C  C1295  1  0.473000  0.875900  0.553600  1.0
  C  C1296  1  0.125900  0.777000  0.803600  1.0
  C  C1297  1  0.125900  0.277000  0.196400  1.0
  C  C1298  1  0.973000  0.875900  0.946400  1.0
  C  C1299  1  0.625900  0.777000  0.696400  1.0
  C  C1300  1  0.473000  0.375900  0.446400  1.0
  C  C1301  1  0.027000  0.624100  0.946400  1.0
  C  C1302  1  0.374100  0.723000  0.696400  1.0
  C  C1303  1  0.527000  0.124100  0.446400  1.0
  C  C1304  1  0.874100  0.223000  0.196400  1.0
  C  C1305  1  0.906000  0.699200  0.832900  1.0
  C  C1306  1  0.050800  0.156000  0.082900  1.0
  C  C1307  1  0.406000  0.199200  0.332900  1.0
  C  C1308  1  0.550800  0.656000  0.582900  1.0
  C  C1309  1  0.949200  0.344000  0.082900  1.0
  C  C1310  1  0.594000  0.300800  0.332900  1.0
  C  C1311  1  0.449200  0.844000  0.582900  1.0
  C  C1312  1  0.094000  0.800800  0.832900  1.0
  C  C1313  1  0.094000  0.300800  0.167100  1.0
  C  C1314  1  0.949200  0.844000  0.917100  1.0
  C  C1315  1  0.594000  0.800800  0.667100  1.0
  C  C1316  1  0.449200  0.344000  0.417100  1.0
  C  C1317  1  0.050800  0.656000  0.917100  1.0
  C  C1318  1  0.406000  0.699200  0.667100  1.0
  C  C1319  1  0.550800  0.156000  0.417100  1.0
  C  C1320  1  0.906000  0.199200  0.167100  1.0
  C  C1321  1  0.884800  0.675600  0.868000  1.0
  C  C1322  1  0.074400  0.134800  0.118000  1.0
  C  C1323  1  0.384800  0.175600  0.368000  1.0
  C  C1324  1  0.574400  0.634800  0.618000  1.0
  C  C1325  1  0.925600  0.365200  0.118000  1.0
  C  C1326  1  0.615200  0.324400  0.368000  1.0
  C  C1327  1  0.425600  0.865200  0.618000  1.0
  C  C1328  1  0.115200  0.824400  0.868000  1.0
  C  C1329  1  0.115200  0.324400  0.132000  1.0
  C  C1330  1  0.925600  0.865200  0.882000  1.0
  C  C1331  1  0.615200  0.824400  0.632000  1.0
  C  C1332  1  0.425600  0.365200  0.382000  1.0
  C  C1333  1  0.074400  0.634800  0.882000  1.0
  C  C1334  1  0.384800  0.675600  0.632000  1.0
  C  C1335  1  0.574400  0.134800  0.382000  1.0
  C  C1336  1  0.884800  0.175600  0.132000  1.0
  C  C1337  1  0.915700  0.644600  0.893700  1.0
  C  C1338  1  0.105400  0.165700  0.143700  1.0
  C  C1339  1  0.415700  0.144600  0.393700  1.0
  C  C1340  1  0.605400  0.665700  0.643700  1.0
  C  C1341  1  0.894600  0.334300  0.143700  1.0
  C  C1342  1  0.584300  0.355400  0.393700  1.0
  C  C1343  1  0.394600  0.834300  0.643700  1.0
  C  C1344  1  0.084300  0.855400  0.893700  1.0
  C  C1345  1  0.084300  0.355400  0.106300  1.0
  C  C1346  1  0.894600  0.834300  0.856300  1.0
  C  C1347  1  0.584300  0.855400  0.606300  1.0
  C  C1348  1  0.394600  0.334300  0.356300  1.0
  C  C1349  1  0.105400  0.665700  0.856300  1.0
  C  C1350  1  0.415700  0.644600  0.606300  1.0
  C  C1351  1  0.605400  0.165700  0.356300  1.0
  C  C1352  1  0.915700  0.144600  0.106300  1.0
  C  C1353  1  0.967200  0.643400  0.887400  1.0
  C  C1354  1  0.106600  0.217200  0.137400  1.0
  C  C1355  1  0.467200  0.143400  0.387400  1.0
  C  C1356  1  0.606600  0.717200  0.637400  1.0
  C  C1357  1  0.893400  0.282800  0.137400  1.0
  C  C1358  1  0.532800  0.356600  0.387400  1.0
  C  C1359  1  0.393400  0.782800  0.637400  1.0
  C  C1360  1  0.032800  0.856600  0.887400  1.0
  C  C1361  1  0.032800  0.356600  0.112600  1.0
  C  C1362  1  0.893400  0.782800  0.862600  1.0
  C  C1363  1  0.532800  0.856600  0.612600  1.0
  C  C1364  1  0.393400  0.282800  0.362600  1.0
  C  C1365  1  0.106600  0.717200  0.862600  1.0
  C  C1366  1  0.467200  0.643400  0.612600  1.0
  C  C1367  1  0.606600  0.217200  0.362600  1.0
  C  C1368  1  0.967200  0.143400  0.112600  1.0
  C  C1369  1  0.860000  0.752900  0.839200  1.0
  C  C1370  1  0.997100  0.110000  0.089200  1.0
  C  C1371  1  0.360000  0.252900  0.339200  1.0
  C  C1372  1  0.497100  0.610000  0.589200  1.0
  C  C1373  1  0.002900  0.390000  0.089200  1.0
  C  C1374  1  0.640000  0.247100  0.339200  1.0
  C  C1375  1  0.502900  0.890000  0.589200  1.0
  C  C1376  1  0.140000  0.747100  0.839200  1.0
  C  C1377  1  0.140000  0.247100  0.160800  1.0
  C  C1378  1  0.002900  0.890000  0.910800  1.0
  C  C1379  1  0.640000  0.747100  0.660800  1.0
  C  C1380  1  0.502900  0.390000  0.410800  1.0
  C  C1381  1  0.997100  0.610000  0.910800  1.0
  C  C1382  1  0.360000  0.752900  0.660800  1.0
  C  C1383  1  0.497100  0.110000  0.410800  1.0
  C  C1384  1  0.860000  0.252900  0.160800  1.0
  C  C1385  1  0.861600  0.700100  0.843900  1.0
  C  C1386  1  0.049900  0.111600  0.093900  1.0
  C  C1387  1  0.361600  0.200100  0.343900  1.0
  C  C1388  1  0.549900  0.611600  0.593900  1.0
  C  C1389  1  0.950100  0.388400  0.093900  1.0
  C  C1390  1  0.638400  0.299900  0.343900  1.0
  C  C1391  1  0.450100  0.888400  0.593900  1.0
  C  C1392  1  0.138400  0.799900  0.843900  1.0
  C  C1393  1  0.138400  0.299900  0.156100  1.0
  C  C1394  1  0.950100  0.888400  0.906100  1.0
  C  C1395  1  0.638400  0.799900  0.656100  1.0
  C  C1396  1  0.450100  0.388400  0.406100  1.0
  C  C1397  1  0.049900  0.611600  0.906100  1.0
  C  C1398  1  0.361600  0.700100  0.656100  1.0
  C  C1399  1  0.549900  0.111600  0.406100  1.0
  C  C1400  1  0.861600  0.200100  0.156100  1.0
  C  C1401  1  0.888300  0.678500  0.877000  1.0
  C  C1402  1  0.071500  0.138300  0.127000  1.0
  C  C1403  1  0.388300  0.178500  0.377000  1.0
  C  C1404  1  0.571500  0.638300  0.627000  1.0
  C  C1405  1  0.928500  0.361700  0.127000  1.0
  C  C1406  1  0.611700  0.321500  0.377000  1.0
  C  C1407  1  0.428500  0.861700  0.627000  1.0
  C  C1408  1  0.111700  0.821500  0.877000  1.0
  C  C1409  1  0.111700  0.321500  0.123000  1.0
  C  C1410  1  0.928500  0.861700  0.873000  1.0
  C  C1411  1  0.611700  0.821500  0.623000  1.0
  C  C1412  1  0.428500  0.361700  0.373000  1.0
  C  C1413  1  0.071500  0.638300  0.873000  1.0
  C  C1414  1  0.388300  0.678500  0.623000  1.0
  C  C1415  1  0.571500  0.138300  0.373000  1.0
  C  C1416  1  0.888300  0.178500  0.123000  1.0
  C  C1417  1  0.913300  0.709600  0.906100  1.0
  C  C1418  1  0.040400  0.163300  0.156100  1.0
  C  C1419  1  0.413300  0.209600  0.406100  1.0
  C  C1420  1  0.540400  0.663300  0.656100  1.0
  C  C1421  1  0.959600  0.336700  0.156100  1.0
  C  C1422  1  0.586700  0.290400  0.406100  1.0
  C  C1423  1  0.459600  0.836700  0.656100  1.0
  C  C1424  1  0.086700  0.790400  0.906100  1.0
  C  C1425  1  0.086700  0.290400  0.093900  1.0
  C  C1426  1  0.959600  0.836700  0.843900  1.0
  C  C1427  1  0.586700  0.790400  0.593900  1.0
  C  C1428  1  0.459600  0.336700  0.343900  1.0
  C  C1429  1  0.040400  0.663300  0.843900  1.0
  C  C1430  1  0.413300  0.709600  0.593900  1.0
  C  C1431  1  0.540400  0.163300  0.343900  1.0
  C  C1432  1  0.913300  0.209600  0.093900  1.0
  C  C1433  1  0.957200  0.693200  0.824000  1.0
  C  C1434  1  0.056800  0.207200  0.074000  1.0
  C  C1435  1  0.457200  0.193200  0.324000  1.0
  C  C1436  1  0.556800  0.707200  0.574000  1.0
  C  C1437  1  0.943200  0.292800  0.074000  1.0
  C  C1438  1  0.542800  0.306800  0.324000  1.0
  C  C1439  1  0.443200  0.792800  0.574000  1.0
  C  C1440  1  0.042800  0.806800  0.824000  1.0
  C  C1441  1  0.042800  0.306800  0.176000  1.0
  C  C1442  1  0.943200  0.792800  0.926000  1.0
  C  C1443  1  0.542800  0.806800  0.676000  1.0
  C  C1444  1  0.443200  0.292800  0.426000  1.0
  C  C1445  1  0.056800  0.707200  0.926000  1.0
  C  C1446  1  0.457200  0.693200  0.676000  1.0
  C  C1447  1  0.556800  0.207200  0.426000  1.0
  C  C1448  1  0.957200  0.193200  0.176000  1.0
  C  C1449  1  0.988300  0.665300  0.850100  1.0
  C  C1450  1  0.084700  0.238300  0.100100  1.0
  C  C1451  1  0.488300  0.165300  0.350100  1.0
  C  C1452  1  0.584700  0.738300  0.600100  1.0
  C  C1453  1  0.915300  0.261700  0.100100  1.0
  C  C1454  1  0.511700  0.334700  0.350100  1.0
  C  C1455  1  0.415300  0.761700  0.600100  1.0
  C  C1456  1  0.011700  0.834700  0.850100  1.0
  C  C1457  1  0.011700  0.334700  0.149900  1.0
  C  C1458  1  0.915300  0.761700  0.899900  1.0
  C  C1459  1  0.511700  0.834700  0.649900  1.0
  C  C1460  1  0.415300  0.261700  0.399900  1.0
  C  C1461  1  0.084700  0.738300  0.899900  1.0
  C  C1462  1  0.488300  0.665300  0.649900  1.0
  C  C1463  1  0.584700  0.238300  0.399900  1.0
  C  C1464  1  0.988300  0.165300  0.149900  1.0
  C  C1465  1  0.033800  0.720800  0.779200  1.0
  C  C1466  1  0.029200  0.283800  0.029200  1.0
  C  C1467  1  0.533800  0.220800  0.279200  1.0
  C  C1468  1  0.529200  0.783800  0.529200  1.0
  C  C1469  1  0.970800  0.216200  0.029200  1.0
  C  C1470  1  0.466200  0.279200  0.279200  1.0
  C  C1471  1  0.470800  0.716200  0.529200  1.0
  C  C1472  1  0.966200  0.779200  0.779200  1.0
  C  C1473  1  0.966200  0.279200  0.220800  1.0
  C  C1474  1  0.970800  0.716200  0.970800  1.0
  C  C1475  1  0.466200  0.779200  0.720800  1.0
  C  C1476  1  0.470800  0.216200  0.470800  1.0
  C  C1477  1  0.029200  0.783800  0.970800  1.0
  C  C1478  1  0.533800  0.720800  0.720800  1.0
  C  C1479  1  0.529200  0.283800  0.470800  1.0
  C  C1480  1  0.033800  0.220800  0.220800  1.0
  C  C1481  1  0.935300  0.681500  0.945000  1.0
  C  C1482  1  0.068500  0.185300  0.195000  1.0
  C  C1483  1  0.435300  0.181500  0.445000  1.0
  C  C1484  1  0.568500  0.685300  0.695000  1.0
  C  C1485  1  0.931500  0.314700  0.195000  1.0
  C  C1486  1  0.564700  0.318500  0.445000  1.0
  C  C1487  1  0.431500  0.814700  0.695000  1.0
  C  C1488  1  0.064700  0.818500  0.945000  1.0
  C  C1489  1  0.064700  0.318500  0.055000  1.0
  C  C1490  1  0.931500  0.814700  0.805000  1.0
  C  C1491  1  0.564700  0.818500  0.555000  1.0
  C  C1492  1  0.431500  0.314700  0.305000  1.0
  C  C1493  1  0.068500  0.685300  0.805000  1.0
  C  C1494  1  0.435300  0.681500  0.555000  1.0
  C  C1495  1  0.568500  0.185300  0.305000  1.0
  C  C1496  1  0.935300  0.181500  0.055000  1.0
  C  C1497  1  0.895800  0.769600  0.814600  1.0
  C  C1498  1  0.980400  0.145800  0.064600  1.0
  C  C1499  1  0.395800  0.269600  0.314600  1.0
  C  C1500  1  0.480400  0.645800  0.564600  1.0
  C  C1501  1  0.019600  0.354200  0.064600  1.0
  C  C1502  1  0.604200  0.230400  0.314600  1.0
  C  C1503  1  0.519600  0.854200  0.564600  1.0
  C  C1504  1  0.104200  0.730400  0.814600  1.0
  C  C1505  1  0.104200  0.230400  0.185400  1.0
  C  C1506  1  0.019600  0.854200  0.935400  1.0
  C  C1507  1  0.604200  0.730400  0.685400  1.0
  C  C1508  1  0.519600  0.354200  0.435400  1.0
  C  C1509  1  0.980400  0.645800  0.935400  1.0
  C  C1510  1  0.395800  0.769600  0.685400  1.0
  C  C1511  1  0.480400  0.145800  0.435400  1.0
  C  C1512  1  0.895800  0.269600  0.185400  1.0
  C  C1513  1  0.933400  0.733800  0.792400  1.0
  C  C1514  1  0.016200  0.183400  0.042400  1.0
  C  C1515  1  0.433400  0.233800  0.292400  1.0
  C  C1516  1  0.516200  0.683400  0.542400  1.0
  C  C1517  1  0.983800  0.316600  0.042400  1.0
  C  C1518  1  0.566600  0.266200  0.292400  1.0
  C  C1519  1  0.483800  0.816600  0.542400  1.0
  C  C1520  1  0.066600  0.766200  0.792400  1.0
  C  C1521  1  0.066600  0.266200  0.207600  1.0
  C  C1522  1  0.983800  0.816600  0.957600  1.0
  C  C1523  1  0.566600  0.766200  0.707600  1.0
  C  C1524  1  0.483800  0.316600  0.457600  1.0
  C  C1525  1  0.016200  0.683400  0.957600  1.0
  C  C1526  1  0.433400  0.733800  0.707600  1.0
  C  C1527  1  0.516200  0.183400  0.457600  1.0
  C  C1528  1  0.933400  0.233800  0.207600  1.0
  C  C1529  1  0.899400  0.752700  0.860400  1.0
  C  C1530  1  0.997300  0.149400  0.110400  1.0
  C  C1531  1  0.399400  0.252700  0.360400  1.0
  C  C1532  1  0.497300  0.649400  0.610400  1.0
  C  C1533  1  0.002700  0.350600  0.110400  1.0
  C  C1534  1  0.600600  0.247300  0.360400  1.0
  C  C1535  1  0.502700  0.850600  0.610400  1.0
  C  C1536  1  0.100600  0.747300  0.860400  1.0
  C  C1537  1  0.100600  0.247300  0.139600  1.0
  C  C1538  1  0.002700  0.850600  0.889600  1.0
  C  C1539  1  0.600600  0.747300  0.639600  1.0
  C  C1540  1  0.502700  0.350600  0.389600  1.0
  C  C1541  1  0.997300  0.649400  0.889600  1.0
  C  C1542  1  0.399400  0.752700  0.639600  1.0
  C  C1543  1  0.497300  0.149400  0.389600  1.0
  C  C1544  1  0.899400  0.252700  0.139600  1.0
  C  C1545  1  0.953100  0.702300  0.828700  1.0
  C  C1546  1  0.047700  0.203100  0.078700  1.0
  C  C1547  1  0.453100  0.202300  0.328700  1.0
  C  C1548  1  0.547700  0.703100  0.578700  1.0
  C  C1549  1  0.952300  0.296900  0.078700  1.0
  C  C1550  1  0.546900  0.297700  0.328700  1.0
  C  C1551  1  0.452300  0.796900  0.578700  1.0
  C  C1552  1  0.046900  0.797700  0.828700  1.0
  C  C1553  1  0.046900  0.297700  0.171300  1.0
  C  C1554  1  0.952300  0.796900  0.921300  1.0
  C  C1555  1  0.546900  0.797700  0.671300  1.0
  C  C1556  1  0.452300  0.296900  0.421300  1.0
  C  C1557  1  0.047700  0.703100  0.921300  1.0
  C  C1558  1  0.453100  0.702300  0.671300  1.0
  C  C1559  1  0.547700  0.203100  0.421300  1.0
  C  C1560  1  0.953100  0.202300  0.171300  1.0
  C  C1561  1  0.940600  0.690900  0.908600  1.0
  C  C1562  1  0.059100  0.190600  0.158600  1.0
  C  C1563  1  0.440600  0.190900  0.408600  1.0
  C  C1564  1  0.559100  0.690600  0.658600  1.0
  C  C1565  1  0.940900  0.309400  0.158600  1.0
  C  C1566  1  0.559400  0.309100  0.408600  1.0
  C  C1567  1  0.440900  0.809400  0.658600  1.0
  C  C1568  1  0.059400  0.809100  0.908600  1.0
  C  C1569  1  0.059400  0.309100  0.091400  1.0
  C  C1570  1  0.940900  0.809400  0.841400  1.0
  C  C1571  1  0.559400  0.809100  0.591400  1.0
  C  C1572  1  0.440900  0.309400  0.341400  1.0
  C  C1573  1  0.059100  0.690600  0.841400  1.0
  C  C1574  1  0.440600  0.690900  0.591400  1.0
  C  C1575  1  0.559100  0.190600  0.341400  1.0
  C  C1576  1  0.940600  0.190900  0.091400  1.0
  C  C1577  1  0.915900  0.642000  0.921500  1.0
  C  C1578  1  0.108000  0.165900  0.171500  1.0
  C  C1579  1  0.415900  0.142000  0.421500  1.0
  C  C1580  1  0.608000  0.665900  0.671500  1.0
  C  C1581  1  0.892000  0.334100  0.171500  1.0
  C  C1582  1  0.584100  0.358000  0.421500  1.0
  C  C1583  1  0.392000  0.834100  0.671500  1.0
  C  C1584  1  0.084100  0.858000  0.921500  1.0
  C  C1585  1  0.084100  0.358000  0.078500  1.0
  C  C1586  1  0.892000  0.834100  0.828500  1.0
  C  C1587  1  0.584100  0.858000  0.578500  1.0
  C  C1588  1  0.392000  0.334100  0.328500  1.0
  C  C1589  1  0.108000  0.665900  0.828500  1.0
  C  C1590  1  0.415900  0.642000  0.578500  1.0
  C  C1591  1  0.608000  0.165900  0.328500  1.0
  C  C1592  1  0.915900  0.142000  0.078500  1.0
  C  C1593  1  0.956000  0.600000  0.926000  1.0
  C  C1594  1  0.150000  0.206000  0.176000  1.0
  C  C1595  1  0.456000  0.100000  0.426000  1.0
  C  C1596  1  0.650000  0.706000  0.676000  1.0
  C  C1597  1  0.850000  0.294000  0.176000  1.0
  C  C1598  1  0.544000  0.400000  0.426000  1.0
  C  C1599  1  0.350000  0.794000  0.676000  1.0
  C  C1600  1  0.044000  0.900000  0.926000  1.0
  C  C1601  1  0.044000  0.400000  0.074000  1.0
  C  C1602  1  0.850000  0.794000  0.824000  1.0
  C  C1603  1  0.544000  0.900000  0.574000  1.0
  C  C1604  1  0.350000  0.294000  0.324000  1.0
  C  C1605  1  0.150000  0.706000  0.824000  1.0
  C  C1606  1  0.456000  0.600000  0.574000  1.0
  C  C1607  1  0.650000  0.206000  0.324000  1.0
  C  C1608  1  0.956000  0.100000  0.074000  1.0
  C  C1609  1  0.864000  0.752000  0.795000  1.0
  C  C1610  1  0.998000  0.114000  0.045000  1.0
  C  C1611  1  0.364000  0.252000  0.295000  1.0
  C  C1612  1  0.498000  0.614000  0.545000  1.0
  C  C1613  1  0.002000  0.386000  0.045000  1.0
  C  C1614  1  0.636000  0.248000  0.295000  1.0
  C  C1615  1  0.502000  0.886000  0.545000  1.0
  C  C1616  1  0.136000  0.748000  0.795000  1.0
  C  C1617  1  0.136000  0.248000  0.205000  1.0
  C  C1618  1  0.002000  0.886000  0.955000  1.0
  C  C1619  1  0.636000  0.748000  0.705000  1.0
  C  C1620  1  0.502000  0.386000  0.455000  1.0
  C  C1621  1  0.998000  0.614000  0.955000  1.0
  C  C1622  1  0.364000  0.752000  0.705000  1.0
  C  C1623  1  0.498000  0.114000  0.455000  1.0
  C  C1624  1  0.864000  0.252000  0.205000  1.0
  C  C1625  1  0.914000  0.727000  0.808000  1.0
  C  C1626  1  0.023000  0.164000  0.058000  1.0
  C  C1627  1  0.414000  0.227000  0.308000  1.0
  C  C1628  1  0.523000  0.664000  0.558000  1.0
  C  C1629  1  0.977000  0.336000  0.058000  1.0
  C  C1630  1  0.586000  0.273000  0.308000  1.0
  C  C1631  1  0.477000  0.836000  0.558000  1.0
  C  C1632  1  0.086000  0.773000  0.808000  1.0
  C  C1633  1  0.086000  0.273000  0.192000  1.0
  C  C1634  1  0.977000  0.836000  0.942000  1.0
  C  C1635  1  0.586000  0.773000  0.692000  1.0
  C  C1636  1  0.477000  0.336000  0.442000  1.0
  C  C1637  1  0.023000  0.664000  0.942000  1.0
  C  C1638  1  0.414000  0.727000  0.692000  1.0
  C  C1639  1  0.523000  0.164000  0.442000  1.0
  C  C1640  1  0.914000  0.227000  0.192000  1.0
  C  C1641  1  0.957000  0.766000  0.812900  1.0
  C  C1642  1  0.984000  0.207000  0.062900  1.0
  C  C1643  1  0.457000  0.266000  0.312900  1.0
  C  C1644  1  0.484000  0.707000  0.562900  1.0
  C  C1645  1  0.016000  0.293000  0.062900  1.0
  C  C1646  1  0.543000  0.234000  0.312900  1.0
  C  C1647  1  0.516000  0.793000  0.562900  1.0
  C  C1648  1  0.043000  0.734000  0.812900  1.0
  C  C1649  1  0.043000  0.234000  0.187100  1.0
  C  C1650  1  0.016000  0.793000  0.937100  1.0
  C  C1651  1  0.543000  0.734000  0.687100  1.0
  C  C1652  1  0.516000  0.293000  0.437100  1.0
  C  C1653  1  0.984000  0.707000  0.937100  1.0
  C  C1654  1  0.457000  0.766000  0.687100  1.0
  C  C1655  1  0.484000  0.207000  0.437100  1.0
  C  C1656  1  0.957000  0.266000  0.187100  1.0
  C  C1657  1  0.231200  0.900000  0.939800  1.0
  C  C1658  1  0.850000  0.481200  0.189800  1.0
  C  C1659  1  0.731200  0.400000  0.439800  1.0
  C  C1660  1  0.350000  0.981200  0.689800  1.0
  C  C1661  1  0.150000  0.018800  0.189800  1.0
  C  C1662  1  0.268800  0.100000  0.439800  1.0
  C  C1663  1  0.650000  0.518800  0.689800  1.0
  C  C1664  1  0.768800  0.600000  0.939800  1.0
  C  C1665  1  0.768800  0.100000  0.060200  1.0
  C  C1666  1  0.150000  0.518800  0.810200  1.0
  C  C1667  1  0.268800  0.600000  0.560200  1.0
  C  C1668  1  0.650000  0.018800  0.310200  1.0
  C  C1669  1  0.850000  0.981200  0.810200  1.0
  C  C1670  1  0.731200  0.900000  0.560200  1.0
  C  C1671  1  0.350000  0.481200  0.310200  1.0
  C  C1672  1  0.231200  0.400000  0.060200  1.0
  C  C1673  1  0.209300  0.858000  0.959040  1.0
  C  C1674  1  0.892000  0.459300  0.209040  1.0
  C  C1675  1  0.709300  0.358000  0.459040  1.0
  C  C1676  1  0.392000  0.959300  0.709040  1.0
  C  C1677  1  0.108000  0.040700  0.209040  1.0
  C  C1678  1  0.290700  0.142000  0.459040  1.0
  C  C1679  1  0.608000  0.540700  0.709040  1.0
  C  C1680  1  0.790700  0.642000  0.959040  1.0
  C  C1681  1  0.790700  0.142000  0.040960  1.0
  C  C1682  1  0.108000  0.540700  0.790960  1.0
  C  C1683  1  0.290700  0.642000  0.540960  1.0
  C  C1684  1  0.608000  0.040700  0.290960  1.0
  C  C1685  1  0.892000  0.959300  0.790960  1.0
  C  C1686  1  0.709300  0.858000  0.540960  1.0
  C  C1687  1  0.392000  0.459300  0.290960  1.0
  C  C1688  1  0.209300  0.358000  0.040960  1.0
  C  C1689  1  0.217100  0.809900  0.941420  1.0
  C  C1690  1  0.940100  0.467100  0.191420  1.0
  C  C1691  1  0.717100  0.309900  0.441420  1.0
  C  C1692  1  0.440100  0.967100  0.691420  1.0
  C  C1693  1  0.059900  0.032900  0.191420  1.0
  C  C1694  1  0.282900  0.190100  0.441420  1.0
  C  C1695  1  0.559900  0.532900  0.691420  1.0
  C  C1696  1  0.782900  0.690100  0.941420  1.0
  C  C1697  1  0.782900  0.190100  0.058580  1.0
  C  C1698  1  0.059900  0.532900  0.808580  1.0
  C  C1699  1  0.282900  0.690100  0.558580  1.0
  C  C1700  1  0.559900  0.032900  0.308580  1.0
  C  C1701  1  0.940100  0.967100  0.808580  1.0
  C  C1702  1  0.717100  0.809900  0.558580  1.0
  C  C1703  1  0.440100  0.467100  0.308580  1.0
  C  C1704  1  0.217100  0.309900  0.058580  1.0
  C  C1705  1  0.247300  0.806300  0.905460  1.0
  C  C1706  1  0.943700  0.497300  0.155460  1.0
  C  C1707  1  0.747300  0.306300  0.405460  1.0
  C  C1708  1  0.443700  0.997300  0.655460  1.0
  C  C1709  1  0.056300  0.002700  0.155460  1.0
  C  C1710  1  0.252700  0.193700  0.405460  1.0
  C  C1711  1  0.556300  0.502700  0.655460  1.0
  C  C1712  1  0.752700  0.693700  0.905460  1.0
  C  C1713  1  0.752700  0.193700  0.094540  1.0
  C  C1714  1  0.056300  0.502700  0.844540  1.0
  C  C1715  1  0.252700  0.693700  0.594540  1.0
  C  C1716  1  0.556300  0.002700  0.344540  1.0
  C  C1717  1  0.943700  0.997300  0.844540  1.0
  C  C1718  1  0.747300  0.806300  0.594540  1.0
  C  C1719  1  0.443700  0.497300  0.344540  1.0
  C  C1720  1  0.247300  0.306300  0.094540  1.0
  C  C1721  1  0.268000  0.849400  0.888420  1.0
  C  C1722  1  0.900600  0.518000  0.138420  1.0
  C  C1723  1  0.768000  0.349400  0.388420  1.0
  C  C1724  1  0.400600  0.018000  0.638420  1.0
  C  C1725  1  0.099400  0.982000  0.138420  1.0
  C  C1726  1  0.232000  0.150600  0.388420  1.0
  C  C1727  1  0.599400  0.482000  0.638420  1.0
  C  C1728  1  0.732000  0.650600  0.888420  1.0
  C  C1729  1  0.732000  0.150600  0.111580  1.0
  C  C1730  1  0.099400  0.482000  0.861580  1.0
  C  C1731  1  0.232000  0.650600  0.611580  1.0
  C  C1732  1  0.599400  0.982000  0.361580  1.0
  C  C1733  1  0.900600  0.018000  0.861580  1.0
  C  C1734  1  0.768000  0.849400  0.611580  1.0
  C  C1735  1  0.400600  0.518000  0.361580  1.0
  C  C1736  1  0.268000  0.349400  0.111580  1.0
  C  C1737  1  0.060900  0.696300  0.102170  1.0
  C  C1738  1  0.053700  0.310900  0.352170  1.0
  C  C1739  1  0.560900  0.196300  0.602170  1.0
  C  C1740  1  0.553700  0.810900  0.852170  1.0
  C  C1741  1  0.946300  0.189100  0.352170  1.0
  C  C1742  1  0.439100  0.303700  0.602170  1.0
  C  C1743  1  0.446300  0.689100  0.852170  1.0
  C  C1744  1  0.939100  0.803700  0.102170  1.0
  C  C1745  1  0.939100  0.303700  0.897830  1.0
  C  C1746  1  0.946300  0.689100  0.647830  1.0
  C  C1747  1  0.439100  0.803700  0.397830  1.0
  C  C1748  1  0.446300  0.189100  0.147830  1.0
  C  C1749  1  0.053700  0.810900  0.647830  1.0
  C  C1750  1  0.560900  0.696300  0.397830  1.0
  C  C1751  1  0.553700  0.310900  0.147830  1.0
  C  C1752  1  0.060900  0.196300  0.897830  1.0
  C  C1753  1  0.091400  0.690200  0.067040  1.0
  C  C1754  1  0.059800  0.341400  0.317040  1.0
  C  C1755  1  0.591400  0.190200  0.567040  1.0
  C  C1756  1  0.559800  0.841400  0.817040  1.0
  C  C1757  1  0.940200  0.158600  0.317040  1.0
  C  C1758  1  0.408600  0.309800  0.567040  1.0
  C  C1759  1  0.440200  0.658600  0.817040  1.0
  C  C1760  1  0.908600  0.809800  0.067040  1.0
  C  C1761  1  0.908600  0.309800  0.932960  1.0
  C  C1762  1  0.940200  0.658600  0.682960  1.0
  C  C1763  1  0.408600  0.809800  0.432960  1.0
  C  C1764  1  0.440200  0.158600  0.182960  1.0
  C  C1765  1  0.059800  0.841400  0.682960  1.0
  C  C1766  1  0.591400  0.690200  0.432960  1.0
  C  C1767  1  0.559800  0.341400  0.182960  1.0
  C  C1768  1  0.091400  0.190200  0.932960  1.0
  C  C1769  1  0.113700  0.732810  0.048860  1.0
  C  C1770  1  0.017190  0.363700  0.298860  1.0
  C  C1771  1  0.613700  0.232810  0.548860  1.0
  C  C1772  1  0.517190  0.863700  0.798860  1.0
  C  C1773  1  0.982810  0.136300  0.298860  1.0
  C  C1774  1  0.386300  0.267190  0.548860  1.0
  C  C1775  1  0.482810  0.636300  0.798860  1.0
  C  C1776  1  0.886300  0.767190  0.048860  1.0
  C  C1777  1  0.886300  0.267190  0.951140  1.0
  C  C1778  1  0.982810  0.636300  0.701140  1.0
  C  C1779  1  0.386300  0.767190  0.451140  1.0
  C  C1780  1  0.482810  0.136300  0.201140  1.0
  C  C1781  1  0.017190  0.863700  0.701140  1.0
  C  C1782  1  0.613700  0.732810  0.451140  1.0
  C  C1783  1  0.517190  0.363700  0.201140  1.0
  C  C1784  1  0.113700  0.232810  0.951140  1.0
  C  C1785  1  0.103500  0.780000  0.066270  1.0
  C  C1786  1  0.970000  0.353500  0.316270  1.0
  C  C1787  1  0.603500  0.280000  0.566270  1.0
  C  C1788  1  0.470000  0.853500  0.816270  1.0
  C  C1789  1  0.030000  0.146500  0.316270  1.0
  C  C1790  1  0.396500  0.220000  0.566270  1.0
  C  C1791  1  0.530000  0.646500  0.816270  1.0
  C  C1792  1  0.896500  0.720000  0.066270  1.0
  C  C1793  1  0.896500  0.220000  0.933730  1.0
  C  C1794  1  0.030000  0.646500  0.683730  1.0
  C  C1795  1  0.396500  0.720000  0.433730  1.0
  C  C1796  1  0.530000  0.146500  0.183730  1.0
  C  C1797  1  0.970000  0.853500  0.683730  1.0
  C  C1798  1  0.603500  0.780000  0.433730  1.0
  C  C1799  1  0.470000  0.353500  0.183730  1.0
  C  C1800  1  0.103500  0.280000  0.933730  1.0
  C  C1801  1  0.072700  0.783130  0.101140  1.0
  C  C1802  1  0.966870  0.322700  0.351140  1.0
  C  C1803  1  0.572700  0.283130  0.601140  1.0
  C  C1804  1  0.466870  0.822700  0.851140  1.0
  C  C1805  1  0.033130  0.177300  0.351140  1.0
  C  C1806  1  0.427300  0.216870  0.601140  1.0
  C  C1807  1  0.533130  0.677300  0.851140  1.0
  C  C1808  1  0.927300  0.716870  0.101140  1.0
  C  C1809  1  0.927300  0.216870  0.898860  1.0
  C  C1810  1  0.033130  0.677300  0.648860  1.0
  C  C1811  1  0.427300  0.716870  0.398860  1.0
  C  C1812  1  0.533130  0.177300  0.148860  1.0
  C  C1813  1  0.966870  0.822700  0.648860  1.0
  C  C1814  1  0.572700  0.783130  0.398860  1.0
  C  C1815  1  0.466870  0.322700  0.148860  1.0
  C  C1816  1  0.072700  0.283130  0.898860  1.0
  C  C1817  1  0.174200  0.976500  0.861900  1.0
  C  C1818  1  0.773500  0.424200  0.111900  1.0
  C  C1819  1  0.674200  0.476500  0.361900  1.0
  C  C1820  1  0.273500  0.924200  0.611900  1.0
  C  C1821  1  0.226500  0.075800  0.111900  1.0
  C  C1822  1  0.325800  0.023500  0.361900  1.0
  C  C1823  1  0.726500  0.575800  0.611900  1.0
  C  C1824  1  0.825800  0.523500  0.861900  1.0
  C  C1825  1  0.825800  0.023500  0.138100  1.0
  C  C1826  1  0.226500  0.575800  0.888100  1.0
  C  C1827  1  0.325800  0.523500  0.638100  1.0
  C  C1828  1  0.726500  0.075800  0.388100  1.0
  C  C1829  1  0.773500  0.924200  0.888100  1.0
  C  C1830  1  0.674200  0.976500  0.638100  1.0
  C  C1831  1  0.273500  0.424200  0.388100  1.0
  C  C1832  1  0.174200  0.476500  0.138100  1.0
  C  C1833  1  0.126900  0.969700  0.844600  1.0
  C  C1834  1  0.780300  0.376900  0.094600  1.0
  C  C1835  1  0.626900  0.469700  0.344600  1.0
  C  C1836  1  0.280300  0.876900  0.594600  1.0
  C  C1837  1  0.219700  0.123100  0.094600  1.0
  C  C1838  1  0.373100  0.030300  0.344600  1.0
  C  C1839  1  0.719700  0.623100  0.594600  1.0
  C  C1840  1  0.873100  0.530300  0.844600  1.0
  C  C1841  1  0.873100  0.030300  0.155400  1.0
  C  C1842  1  0.219700  0.623100  0.905400  1.0
  C  C1843  1  0.373100  0.530300  0.655400  1.0
  C  C1844  1  0.719700  0.123100  0.405400  1.0
  C  C1845  1  0.780300  0.876900  0.905400  1.0
  C  C1846  1  0.626900  0.969700  0.655400  1.0
  C  C1847  1  0.280300  0.376900  0.405400  1.0
  C  C1848  1  0.126900  0.469700  0.155400  1.0
  C  C1849  1  0.121200  0.941000  0.807960  1.0
  C  C1850  1  0.809000  0.371200  0.057960  1.0
  C  C1851  1  0.621200  0.441000  0.307960  1.0
  C  C1852  1  0.309000  0.871200  0.557960  1.0
  C  C1853  1  0.191000  0.128800  0.057960  1.0
  C  C1854  1  0.378800  0.059000  0.307960  1.0
  C  C1855  1  0.691000  0.628800  0.557960  1.0
  C  C1856  1  0.878800  0.559000  0.807960  1.0
  C  C1857  1  0.878800  0.059000  0.192040  1.0
  C  C1858  1  0.191000  0.628800  0.942040  1.0
  C  C1859  1  0.378800  0.559000  0.692040  1.0
  C  C1860  1  0.691000  0.128800  0.442040  1.0
  C  C1861  1  0.809000  0.871200  0.942040  1.0
  C  C1862  1  0.621200  0.941000  0.692040  1.0
  C  C1863  1  0.309000  0.371200  0.442040  1.0
  C  C1864  1  0.121200  0.441000  0.192040  1.0
  C  C1865  1  0.164500  0.921100  0.789740  1.0
  C  C1866  1  0.828900  0.414500  0.039740  1.0
  C  C1867  1  0.664500  0.421100  0.289740  1.0
  C  C1868  1  0.328900  0.914500  0.539740  1.0
  C  C1869  1  0.171100  0.085500  0.039740  1.0
  C  C1870  1  0.335500  0.078900  0.289740  1.0
  C  C1871  1  0.671100  0.585500  0.539740  1.0
  C  C1872  1  0.835500  0.578900  0.789740  1.0
  C  C1873  1  0.835500  0.078900  0.210260  1.0
  C  C1874  1  0.171100  0.585500  0.960260  1.0
  C  C1875  1  0.335500  0.578900  0.710260  1.0
  C  C1876  1  0.671100  0.085500  0.460260  1.0
  C  C1877  1  0.828900  0.914500  0.960260  1.0
  C  C1878  1  0.664500  0.921100  0.710260  1.0
  C  C1879  1  0.328900  0.414500  0.460260  1.0
  C  C1880  1  0.164500  0.421100  0.210260  1.0
  C  C1881  1  0.211000  0.929200  0.808510  1.0
  C  C1882  1  0.820800  0.461000  0.058510  1.0
  C  C1883  1  0.711000  0.429200  0.308510  1.0
  C  C1884  1  0.320800  0.961000  0.558510  1.0
  C  C1885  1  0.179200  0.039000  0.058510  1.0
  C  C1886  1  0.289000  0.070800  0.308510  1.0
  C  C1887  1  0.679200  0.539000  0.558510  1.0
  C  C1888  1  0.789000  0.570800  0.808510  1.0
  C  C1889  1  0.789000  0.070800  0.191490  1.0
  C  C1890  1  0.179200  0.539000  0.941490  1.0
  C  C1891  1  0.289000  0.570800  0.691490  1.0
  C  C1892  1  0.679200  0.039000  0.441490  1.0
  C  C1893  1  0.820800  0.961000  0.941490  1.0
  C  C1894  1  0.711000  0.929200  0.691490  1.0
  C  C1895  1  0.320800  0.461000  0.441490  1.0
  C  C1896  1  0.211000  0.429200  0.191490  1.0
  C  C1897  1  0.193800  0.763800  0.960380  1.0
  C  C1898  1  0.986200  0.443800  0.210380  1.0
  C  C1899  1  0.693800  0.263800  0.460380  1.0
  C  C1900  1  0.486200  0.943800  0.710380  1.0
  C  C1901  1  0.013800  0.056200  0.210380  1.0
  C  C1902  1  0.306200  0.236200  0.460380  1.0
  C  C1903  1  0.513800  0.556200  0.710380  1.0
  C  C1904  1  0.806200  0.736200  0.960380  1.0
  C  C1905  1  0.806200  0.236200  0.039620  1.0
  C  C1906  1  0.013800  0.556200  0.789620  1.0
  C  C1907  1  0.306200  0.736200  0.539620  1.0
  C  C1908  1  0.513800  0.056200  0.289620  1.0
  C  C1909  1  0.986200  0.943800  0.789620  1.0
  C  C1910  1  0.693800  0.763800  0.539620  1.0
  C  C1911  1  0.486200  0.443800  0.289620  1.0
  C  C1912  1  0.193800  0.263800  0.039620  1.0
  C  C1913  1  0.146200  0.728000  0.010760  1.0
  C  C1914  1  0.022000  0.396200  0.260760  1.0
  C  C1915  1  0.646200  0.228000  0.510760  1.0
  C  C1916  1  0.522000  0.896200  0.760760  1.0
  C  C1917  1  0.978000  0.103800  0.260760  1.0
  C  C1918  1  0.353800  0.272000  0.510760  1.0
  C  C1919  1  0.478000  0.603800  0.760760  1.0
  C  C1920  1  0.853800  0.772000  0.010760  1.0
  C  C1921  1  0.853800  0.272000  0.989240  1.0
  C  C1922  1  0.978000  0.603800  0.739240  1.0
  C  C1923  1  0.353800  0.772000  0.489240  1.0
  C  C1924  1  0.478000  0.103800  0.239240  1.0
  C  C1925  1  0.022000  0.896200  0.739240  1.0
  C  C1926  1  0.646200  0.728000  0.489240  1.0
  C  C1927  1  0.522000  0.396200  0.239240  1.0
  C  C1928  1  0.146200  0.228000  0.989240  1.0
  C  C1929  1  0.070700  0.932000  0.789370  1.0
  C  C1930  1  0.818000  0.320700  0.039370  1.0
  C  C1931  1  0.570700  0.432000  0.289370  1.0
  C  C1932  1  0.318000  0.820700  0.539370  1.0
  C  C1933  1  0.182000  0.179300  0.039370  1.0
  C  C1934  1  0.429300  0.068000  0.289370  1.0
  C  C1935  1  0.682000  0.679300  0.539370  1.0
  C  C1936  1  0.929300  0.568000  0.789370  1.0
  C  C1937  1  0.929300  0.068000  0.210630  1.0
  C  C1938  1  0.182000  0.679300  0.960630  1.0
  C  C1939  1  0.429300  0.568000  0.710630  1.0
  C  C1940  1  0.682000  0.179300  0.460630  1.0
  C  C1941  1  0.818000  0.820700  0.960630  1.0
  C  C1942  1  0.570700  0.932000  0.710630  1.0
  C  C1943  1  0.318000  0.320700  0.460630  1.0
  C  C1944  1  0.070700  0.432000  0.210630  1.0
  C  C1945  1  0.377000  0.010000  0.893500  1.0
  C  C1946  1  0.740000  0.627000  0.143500  1.0
  C  C1947  1  0.877000  0.510000  0.393500  1.0
  C  C1948  1  0.240000  0.127000  0.643500  1.0
  C  C1949  1  0.260000  0.873000  0.143500  1.0
  C  C1950  1  0.123000  0.990000  0.393500  1.0
  C  C1951  1  0.760000  0.373000  0.643500  1.0
  C  C1952  1  0.623000  0.490000  0.893500  1.0
  C  C1953  1  0.623000  0.990000  0.106500  1.0
  C  C1954  1  0.260000  0.373000  0.856500  1.0
  C  C1955  1  0.123000  0.490000  0.606500  1.0
  C  C1956  1  0.760000  0.873000  0.356500  1.0
  C  C1957  1  0.740000  0.127000  0.856500  1.0
  C  C1958  1  0.877000  0.010000  0.606500  1.0
  C  C1959  1  0.240000  0.627000  0.356500  1.0
  C  C1960  1  0.377000  0.510000  0.106500  1.0
  C  C1961  1  0.362900  0.028700  0.855500  1.0
  C  C1962  1  0.721300  0.612900  0.105500  1.0
  C  C1963  1  0.862900  0.528700  0.355500  1.0
  C  C1964  1  0.221300  0.112900  0.605500  1.0
  C  C1965  1  0.278700  0.887100  0.105500  1.0
  C  C1966  1  0.137100  0.971300  0.355500  1.0
  C  C1967  1  0.778700  0.387100  0.605500  1.0
  C  C1968  1  0.637100  0.471300  0.855500  1.0
  C  C1969  1  0.637100  0.971300  0.144500  1.0
  C  C1970  1  0.278700  0.387100  0.894500  1.0
  C  C1971  1  0.137100  0.471300  0.644500  1.0
  C  C1972  1  0.778700  0.887100  0.394500  1.0
  C  C1973  1  0.721300  0.112900  0.894500  1.0
  C  C1974  1  0.862900  0.028700  0.644500  1.0
  C  C1975  1  0.221300  0.612900  0.394500  1.0
  C  C1976  1  0.362900  0.528700  0.144500  1.0
  C  C1977  1  0.347200  0.957800  0.951000  1.0
  C  C1978  1  0.792200  0.597200  0.201000  1.0
  C  C1979  1  0.847200  0.457800  0.451000  1.0
  C  C1980  1  0.292200  0.097200  0.701000  1.0
  C  C1981  1  0.207800  0.902800  0.201000  1.0
  C  C1982  1  0.152800  0.042200  0.451000  1.0
  C  C1983  1  0.707800  0.402800  0.701000  1.0
  C  C1984  1  0.652800  0.542200  0.951000  1.0
  C  C1985  1  0.652800  0.042200  0.049000  1.0
  C  C1986  1  0.207800  0.402800  0.799000  1.0
  C  C1987  1  0.152800  0.542200  0.549000  1.0
  C  C1988  1  0.707800  0.902800  0.299000  1.0
  C  C1989  1  0.792200  0.097200  0.799000  1.0
  C  C1990  1  0.847200  0.957800  0.549000  1.0
  C  C1991  1  0.292200  0.597200  0.299000  1.0
  C  C1992  1  0.347200  0.457800  0.049000  1.0
  C  C1993  1  0.385300  0.918900  0.891000  1.0
  C  C1994  1  0.831100  0.635300  0.141000  1.0
  C  C1995  1  0.885300  0.418900  0.391000  1.0
  C  C1996  1  0.331100  0.135300  0.641000  1.0
  C  C1997  1  0.168900  0.864700  0.141000  1.0
  C  C1998  1  0.114700  0.081100  0.391000  1.0
  C  C1999  1  0.668900  0.364700  0.641000  1.0
  C  C2000  1  0.614700  0.581100  0.891000  1.0
  C  C2001  1  0.614700  0.081100  0.109000  1.0
  C  C2002  1  0.168900  0.364700  0.859000  1.0
  C  C2003  1  0.114700  0.581100  0.609000  1.0
  C  C2004  1  0.668900  0.864700  0.359000  1.0
  C  C2005  1  0.831100  0.135300  0.859000  1.0
  C  C2006  1  0.885300  0.918900  0.609000  1.0
  C  C2007  1  0.331100  0.635300  0.359000  1.0
  C  C2008  1  0.385300  0.418900  0.109000  1.0
  C  C2009  1  0.279100  0.067400  0.857200  1.0
  C  C2010  1  0.682600  0.529100  0.107200  1.0
  C  C2011  1  0.779100  0.567400  0.357200  1.0
  C  C2012  1  0.182600  0.029100  0.607200  1.0
  C  C2013  1  0.317400  0.970900  0.107200  1.0
  C  C2014  1  0.220900  0.932600  0.357200  1.0
  C  C2015  1  0.817400  0.470900  0.607200  1.0
  C  C2016  1  0.720900  0.432600  0.857200  1.0
  C  C2017  1  0.720900  0.932600  0.142800  1.0
  C  C2018  1  0.317400  0.470900  0.892800  1.0
  C  C2019  1  0.220900  0.432600  0.642800  1.0
  C  C2020  1  0.817400  0.970900  0.392800  1.0
  C  C2021  1  0.682600  0.029100  0.892800  1.0
  C  C2022  1  0.779100  0.067400  0.642800  1.0
  C  C2023  1  0.182600  0.529100  0.392800  1.0
  C  C2024  1  0.279100  0.567400  0.142800  1.0
  C  C2025  1  0.308300  0.017900  0.797400  1.0
  C  C2026  1  0.732100  0.558300  0.047400  1.0
  C  C2027  1  0.808300  0.517900  0.297400  1.0
  C  C2028  1  0.232100  0.058300  0.547400  1.0
  C  C2029  1  0.267900  0.941700  0.047400  1.0
  C  C2030  1  0.191700  0.982100  0.297400  1.0
  C  C2031  1  0.767900  0.441700  0.547400  1.0
  C  C2032  1  0.691700  0.482100  0.797400  1.0
  C  C2033  1  0.691700  0.982100  0.202600  1.0
  C  C2034  1  0.267900  0.441700  0.952600  1.0
  C  C2035  1  0.191700  0.482100  0.702600  1.0
  C  C2036  1  0.767900  0.941700  0.452600  1.0
  C  C2037  1  0.732100  0.058300  0.952600  1.0
  C  C2038  1  0.808300  0.017900  0.702600  1.0
  C  C2039  1  0.232100  0.558300  0.452600  1.0
  C  C2040  1  0.308300  0.517900  0.202600  1.0
  C  C2041  1  0.972500  0.740900  0.252990  1.0
  C  C2042  1  0.009100  0.222500  0.502990  1.0
  C  C2043  1  0.472500  0.240900  0.752990  1.0
  C  C2044  1  0.509100  0.722500  0.002990  1.0
  C  C2045  1  0.990900  0.277500  0.502990  1.0
  C  C2046  1  0.527500  0.259100  0.752990  1.0
  C  C2047  1  0.490900  0.777500  0.002990  1.0
  C  C2048  1  0.027500  0.759100  0.252990  1.0
  C  C2049  1  0.027500  0.259100  0.747010  1.0
  C  C2050  1  0.990900  0.777500  0.497010  1.0
  C  C2051  1  0.527500  0.759100  0.247010  1.0
  C  C2052  1  0.490900  0.277500  0.997010  1.0
  C  C2053  1  0.009100  0.722500  0.497010  1.0
  C  C2054  1  0.472500  0.740900  0.247010  1.0
  C  C2055  1  0.509100  0.222500  0.997010  1.0
  C  C2056  1  0.972500  0.240900  0.747010  1.0
  C  C2057  1  0.900900  0.727500  0.207200  1.0
  C  C2058  1  0.022500  0.150900  0.457200  1.0
  C  C2059  1  0.400900  0.227500  0.707200  1.0
  C  C2060  1  0.522500  0.650900  0.957200  1.0
  C  C2061  1  0.977500  0.349100  0.457200  1.0
  C  C2062  1  0.599100  0.272500  0.707200  1.0
  C  C2063  1  0.477500  0.849100  0.957200  1.0
  C  C2064  1  0.099100  0.772500  0.207200  1.0
  C  C2065  1  0.099100  0.272500  0.792800  1.0
  C  C2066  1  0.977500  0.849100  0.542800  1.0
  C  C2067  1  0.599100  0.772500  0.292800  1.0
  C  C2068  1  0.477500  0.349100  0.042800  1.0
  C  C2069  1  0.022500  0.650900  0.542800  1.0
  C  C2070  1  0.400900  0.727500  0.292800  1.0
  C  C2071  1  0.522500  0.150900  0.042800  1.0
  C  C2072  1  0.900900  0.227500  0.792800  1.0
  C  C2073  1  0.932400  0.813700  0.216600  1.0
  C  C2074  1  0.936300  0.182400  0.466600  1.0
  C  C2075  1  0.432400  0.313700  0.716600  1.0
  C  C2076  1  0.436300  0.682400  0.966600  1.0
  C  C2077  1  0.063700  0.317600  0.466600  1.0
  C  C2078  1  0.567600  0.186300  0.716600  1.0
  C  C2079  1  0.563700  0.817600  0.966600  1.0
  C  C2080  1  0.067600  0.686300  0.216600  1.0
  C  C2081  1  0.067600  0.186300  0.783400  1.0
  C  C2082  1  0.063700  0.817600  0.533400  1.0
  C  C2083  1  0.567600  0.686300  0.283400  1.0
  C  C2084  1  0.563700  0.317600  0.033400  1.0
  C  C2085  1  0.936300  0.682400  0.533400  1.0
  C  C2086  1  0.432400  0.813700  0.283400  1.0
  C  C2087  1  0.436300  0.182400  0.033400  1.0
  C  C2088  1  0.932400  0.313700  0.783400  1.0
  N  N2089  1  0.644900  0.218800  0.062400  1
  N  N2090  1  0.531200  0.894900  0.312400  1
  N  N2091  1  0.144900  0.718800  0.562400  1
  N  N2092  1  0.031200  0.394900  0.812400  1
  N  N2093  1  0.468800  0.605100  0.312400  1
  N  N2094  1  0.855100  0.781200  0.562400  1
  N  N2095  1  0.968800  0.105100  0.812400  1
  N  N2096  1  0.355100  0.281200  0.062400  1
  N  N2097  1  0.355100  0.781200  0.937600  1
  N  N2098  1  0.468800  0.105100  0.687600  1
  N  N2099  1  0.855100  0.281200  0.437600  1
  N  N2100  1  0.968800  0.605100  0.187600  1
  N  N2101  1  0.531200  0.394900  0.687600  1
  N  N2102  1  0.144900  0.218800  0.437600  1
  N  N2103  1  0.031200  0.894900  0.187600  1
  N  N2104  1  0.644900  0.718800  0.937600  1
  N  N2105  1  0.786600  0.273100  0.884800  1
  N  N2106  1  0.476900  0.036600  0.134800  1
  N  N2107  1  0.286600  0.773100  0.384800  1
  N  N2108  1  0.976900  0.536600  0.634800  1
  N  N2109  1  0.523100  0.463400  0.134800  1
  N  N2110  1  0.713400  0.726900  0.384800  1
  N  N2111  1  0.023100  0.963400  0.634800  1
  N  N2112  1  0.213400  0.226900  0.884800  1
  N  N2113  1  0.213400  0.726900  0.115200  1
  N  N2114  1  0.523100  0.963400  0.865200  1
  N  N2115  1  0.713400  0.226900  0.615200  1
  N  N2116  1  0.023100  0.463400  0.365200  1
  N  N2117  1  0.476900  0.536600  0.865200  1
  N  N2118  1  0.286600  0.273100  0.615200  1
  N  N2119  1  0.976900  0.036600  0.365200  1
  N  N2120  1  0.786600  0.773100  0.115200  1
  N  N2121  1  0.644000  0.170200  0.990100  1
  N  N2122  1  0.579800  0.894000  0.240100  1
  N  N2123  1  0.144000  0.670200  0.490100  1
  N  N2124  1  0.079800  0.394000  0.740100  1
  N  N2125  1  0.420200  0.606000  0.240100  1
  N  N2126  1  0.856000  0.829800  0.490100  1
  N  N2127  1  0.920200  0.106000  0.740100  1
  N  N2128  1  0.356000  0.329800  0.990100  1
  N  N2129  1  0.356000  0.829800  0.009900  1
  N  N2130  1  0.420200  0.106000  0.759900  1
  N  N2131  1  0.856000  0.329800  0.509900  1
  N  N2132  1  0.920200  0.606000  0.259900  1
  N  N2133  1  0.579800  0.394000  0.759900  1
  N  N2134  1  0.144000  0.170200  0.509900  1
  N  N2135  1  0.079800  0.894000  0.259900  1
  N  N2136  1  0.644000  0.670200  0.009900  1
  N  N2137  1  0.933600  0.715100  0.866900  1.0
  N  N2138  1  0.034900  0.183600  0.116900  1.0
  N  N2139  1  0.433600  0.215100  0.366900  1.0
  N  N2140  1  0.534900  0.683600  0.616900  1.0
  N  N2141  1  0.965100  0.316400  0.116900  1.0
  N  N2142  1  0.566400  0.284900  0.366900  1.0
  N  N2143  1  0.465100  0.816400  0.616900  1.0
  N  N2144  1  0.066400  0.784900  0.866900  1.0
  N  N2145  1  0.066400  0.284900  0.133100  1.0
  N  N2146  1  0.965100  0.816400  0.883100  1.0
  N  N2147  1  0.566400  0.784900  0.633100  1.0
  N  N2148  1  0.465100  0.316400  0.383100  1.0
  N  N2149  1  0.034900  0.683600  0.883100  1.0
  N  N2150  1  0.433600  0.715100  0.633100  1.0
  N  N2151  1  0.534900  0.183600  0.383100  1.0
  N  N2152  1  0.933600  0.215100  0.133100  1.0
  N  N2153  1  0.260150  0.895850  0.905010  1.0
  N  N2154  1  0.854150  0.510150  0.155010  1.0
  N  N2155  1  0.760150  0.395850  0.405010  1.0
  N  N2156  1  0.354150  0.010150  0.655010  1.0
  N  N2157  1  0.145850  0.989850  0.155010  1.0
  N  N2158  1  0.239850  0.104150  0.405010  1.0
  N  N2159  1  0.645850  0.489850  0.655010  1.0
  N  N2160  1  0.739850  0.604150  0.905010  1.0
  N  N2161  1  0.739850  0.104150  0.094990  1.0
  N  N2162  1  0.145850  0.489850  0.844990  1.0
  N  N2163  1  0.239850  0.604150  0.594990  1.0
  N  N2164  1  0.645850  0.989850  0.344990  1.0
  N  N2165  1  0.854150  0.010150  0.844990  1.0
  N  N2166  1  0.760150  0.895850  0.594990  1.0
  N  N2167  1  0.354150  0.510150  0.344990  1.0
  N  N2168  1  0.260150  0.395850  0.094990  1.0
  N  N2169  1  0.051840  0.742040  0.119000  1.0
  N  N2170  1  0.007960  0.301840  0.369000  1.0
  N  N2171  1  0.551840  0.242040  0.619000  1.0
  N  N2172  1  0.507960  0.801840  0.869000  1.0
  N  N2173  1  0.992040  0.198160  0.369000  1.0
  N  N2174  1  0.448160  0.257960  0.619000  1.0
  N  N2175  1  0.492040  0.698160  0.869000  1.0
  N  N2176  1  0.948160  0.757960  0.119000  1.0
  N  N2177  1  0.948160  0.257960  0.881000  1.0
  N  N2178  1  0.992040  0.698160  0.631000  1.0
  N  N2179  1  0.448160  0.757960  0.381000  1.0
  N  N2180  1  0.492040  0.198160  0.131000  1.0
  N  N2181  1  0.007960  0.801840  0.631000  1.0
  N  N2182  1  0.551840  0.742040  0.381000  1.0
  N  N2183  1  0.507960  0.301840  0.131000  1.0
  N  N2184  1  0.051840  0.242040  0.881000  1.0
  N  N2185  1  0.215990  0.956260  0.844100  1.0
  N  N2186  1  0.793740  0.465990  0.094100  1.0
  N  N2187  1  0.715990  0.456260  0.344100  1.0
  N  N2188  1  0.293740  0.965990  0.594100  1.0
  N  N2189  1  0.206260  0.034010  0.094100  1.0
  N  N2190  1  0.284010  0.043740  0.344100  1.0
  N  N2191  1  0.706260  0.534010  0.594100  1.0
  N  N2192  1  0.784010  0.543740  0.844100  1.0
  N  N2193  1  0.784010  0.043740  0.155900  1.0
  N  N2194  1  0.206260  0.534010  0.905900  1.0
  N  N2195  1  0.284010  0.543740  0.655900  1.0
  N  N2196  1  0.706260  0.034010  0.405900  1.0
  N  N2197  1  0.793740  0.965990  0.905900  1.0
  N  N2198  1  0.715990  0.956260  0.655900  1.0
  N  N2199  1  0.293740  0.465990  0.405900  1.0
  N  N2200  1  0.215990  0.456260  0.155900  1.0
  N  N2201  1  0.165800  0.770640  0.995000  1.0
  N  N2202  1  0.979360  0.415800  0.245000  1.0
  N  N2203  1  0.665800  0.270640  0.495000  1.0
  N  N2204  1  0.479360  0.915800  0.745000  1.0
  N  N2205  1  0.020640  0.084200  0.245000  1.0
  N  N2206  1  0.334200  0.229360  0.495000  1.0
  N  N2207  1  0.520640  0.584200  0.745000  1.0
  N  N2208  1  0.834200  0.729360  0.995000  1.0
  N  N2209  1  0.834200  0.229360  0.005000  1.0
  N  N2210  1  0.020640  0.584200  0.755000  1.0
  N  N2211  1  0.334200  0.729360  0.505000  1.0
  N  N2212  1  0.520640  0.084200  0.255000  1.0
  N  N2213  1  0.979360  0.915800  0.755000  1.0
  N  N2214  1  0.665800  0.770640  0.505000  1.0
  N  N2215  1  0.479360  0.415800  0.255000  1.0
  N  N2216  1  0.165800  0.270640  0.005000  1.0
  N  N2217  1  0.068600  0.903300  0.754870  1.0
  N  N2218  1  0.846700  0.318600  0.004870  1.0
  N  N2219  1  0.568600  0.403300  0.254870  1.0
  N  N2220  1  0.346700  0.818600  0.504870  1.0
  N  N2221  1  0.153300  0.181400  0.004870  1.0
  N  N2222  1  0.431400  0.096700  0.254870  1.0
  N  N2223  1  0.653300  0.681400  0.504870  1.0
  N  N2224  1  0.931400  0.596700  0.754870  1.0
  N  N2225  1  0.931400  0.096700  0.245130  1.0
  N  N2226  1  0.153300  0.681400  0.995130  1.0
  N  N2227  1  0.431400  0.596700  0.745130  1.0
  N  N2228  1  0.653300  0.181400  0.495130  1.0
  N  N2229  1  0.846700  0.818600  0.995130  1.0
  N  N2230  1  0.568600  0.903300  0.745130  1.0
  N  N2231  1  0.346700  0.318600  0.495130  1.0
  N  N2232  1  0.068600  0.403300  0.245130  1.0
  N  N2233  1  0.203000  0.719370  0.941700  1.0
  N  N2234  1  0.030630  0.453000  0.191700  1.0
  N  N2235  1  0.703000  0.219370  0.441700  1.0
  N  N2236  1  0.530630  0.953000  0.691700  1.0
  N  N2237  1  0.969370  0.047000  0.191700  1.0
  N  N2238  1  0.297000  0.280630  0.441700  1.0
  N  N2239  1  0.469370  0.547000  0.691700  1.0
  N  N2240  1  0.797000  0.780630  0.941700  1.0
  N  N2241  1  0.797000  0.280630  0.058300  1.0
  N  N2242  1  0.969370  0.547000  0.808300  1.0
  N  N2243  1  0.297000  0.780630  0.558300  1.0
  N  N2244  1  0.469370  0.047000  0.308300  1.0
  N  N2245  1  0.030630  0.953000  0.808300  1.0
  N  N2246  1  0.703000  0.719370  0.558300  1.0
  N  N2247  1  0.530630  0.453000  0.308300  1.0
  N  N2248  1  0.203000  0.219370  0.058300  1.0
  N  N2249  1  0.353300  0.961100  0.904210  1.0
  N  N2250  1  0.788900  0.603300  0.154210  1.0
  N  N2251  1  0.853300  0.461100  0.404210  1.0
  N  N2252  1  0.288900  0.103300  0.654210  1.0
  N  N2253  1  0.211100  0.896700  0.154210  1.0
  N  N2254  1  0.146700  0.038900  0.404210  1.0
  N  N2255  1  0.711100  0.396700  0.654210  1.0
  N  N2256  1  0.646700  0.538900  0.904210  1.0
  N  N2257  1  0.646700  0.038900  0.095790  1.0
  N  N2258  1  0.211100  0.396700  0.845790  1.0
  N  N2259  1  0.146700  0.538900  0.595790  1.0
  N  N2260  1  0.711100  0.896700  0.345790  1.0
  N  N2261  1  0.788900  0.103300  0.845790  1.0
  N  N2262  1  0.853300  0.961100  0.595790  1.0
  N  N2263  1  0.288900  0.603300  0.345790  1.0
  N  N2264  1  0.353300  0.461100  0.095790  1.0
  N  N2265  1  0.308620  0.023090  0.842870  1.0
  N  N2266  1  0.726910  0.558620  0.092870  1.0
  N  N2267  1  0.808620  0.523090  0.342870  1.0
  N  N2268  1  0.226910  0.058620  0.592870  1.0
  N  N2269  1  0.273090  0.941380  0.092870  1.0
  N  N2270  1  0.191380  0.976910  0.342870  1.0
  N  N2271  1  0.773090  0.441380  0.592870  1.0
  N  N2272  1  0.691380  0.476910  0.842870  1.0
  N  N2273  1  0.691380  0.976910  0.157130  1.0
  N  N2274  1  0.273090  0.441380  0.907130  1.0
  N  N2275  1  0.191380  0.476910  0.657130  1.0
  N  N2276  1  0.773090  0.941380  0.407130  1.0
  N  N2277  1  0.726910  0.058620  0.907130  1.0
  N  N2278  1  0.808620  0.023090  0.657130  1.0
  N  N2279  1  0.226910  0.558620  0.407130  1.0
  N  N2280  1  0.308620  0.523090  0.157130  1.0
  N  N2281  1  0.947800  0.758800  0.213900  1.0
  N  N2282  1  0.991200  0.197800  0.463900  1.0
  N  N2283  1  0.447800  0.258800  0.713900  1.0
  N  N2284  1  0.491200  0.697800  0.963900  1.0
  N  N2285  1  0.008800  0.302200  0.463900  1.0
  N  N2286  1  0.552200  0.241200  0.713900  1.0
  N  N2287  1  0.508800  0.802200  0.963900  1.0
  N  N2288  1  0.052200  0.741200  0.213900  1.0
  N  N2289  1  0.052200  0.241200  0.786100  1.0
  N  N2290  1  0.008800  0.802200  0.536100  1.0
  N  N2291  1  0.552200  0.741200  0.286100  1.0
  N  N2292  1  0.508800  0.302200  0.036100  1.0
  N  N2293  1  0.991200  0.697800  0.536100  1.0
  N  N2294  1  0.447800  0.758800  0.286100  1.0
  N  N2295  1  0.491200  0.197800  0.036100  1.0
  N  N2296  1  0.947800  0.258800  0.786100  1.0
  O  O2297  1  0.045200  0.980900  0.929500  1
  O  O2298  1  0.769100  0.295200  0.179500  1
  O  O2299  1  0.545200  0.480900  0.429500  1
  O  O2300  1  0.269100  0.795200  0.679500  1
  O  O2301  1  0.230900  0.204800  0.179500  1
  O  O2302  1  0.454800  0.019100  0.429500  1
  O  O2303  1  0.730900  0.704800  0.679500  1
  O  O2304  1  0.954800  0.519100  0.929500  1
  O  O2305  1  0.954800  0.019100  0.070500  1
  O  O2306  1  0.230900  0.704800  0.820500  1
  O  O2307  1  0.454800  0.519100  0.570500  1
  O  O2308  1  0.730900  0.204800  0.320500  1
  O  O2309  1  0.769100  0.795200  0.820500  1
  O  O2310  1  0.545200  0.980900  0.570500  1
  O  O2311  1  0.269100  0.295200  0.320500  1
  O  O2312  1  0.045200  0.480900  0.070500  1
  O  O2313  1  0.960600  0.969100  0.957600  1
  O  O2314  1  0.780900  0.210600  0.207600  1
  O  O2315  1  0.460600  0.469100  0.457600  1
  O  O2316  1  0.280900  0.710600  0.707600  1
  O  O2317  1  0.219100  0.289400  0.207600  1
  O  O2318  1  0.539400  0.030900  0.457600  1
  O  O2319  1  0.719100  0.789400  0.707600  1
  O  O2320  1  0.039400  0.530900  0.957600  1
  O  O2321  1  0.039400  0.030900  0.042400  1
  O  O2322  1  0.219100  0.789400  0.792400  1
  O  O2323  1  0.539400  0.530900  0.542400  1
  O  O2324  1  0.719100  0.289400  0.292400  1
  O  O2325  1  0.780900  0.710600  0.792400  1
  O  O2326  1  0.460600  0.969100  0.542400  1
  O  O2327  1  0.280900  0.210600  0.292400  1
  O  O2328  1  0.960600  0.469100  0.042400  1
  O  O2329  1  0.644200  0.181000  0.040800  1
  O  O2330  1  0.569000  0.894200  0.290800  1
  O  O2331  1  0.144200  0.681000  0.540800  1
  O  O2332  1  0.069000  0.394200  0.790800  1
  O  O2333  1  0.431000  0.605800  0.290800  1
  O  O2334  1  0.855800  0.819000  0.540800  1
  O  O2335  1  0.931000  0.105800  0.790800  1
  O  O2336  1  0.355800  0.319000  0.040800  1
  O  O2337  1  0.355800  0.819000  0.959200  1
  O  O2338  1  0.431000  0.105800  0.709200  1
  O  O2339  1  0.855800  0.319000  0.459200  1
  O  O2340  1  0.931000  0.605800  0.209200  1
  O  O2341  1  0.569000  0.394200  0.709200  1
  O  O2342  1  0.144200  0.181000  0.459200  1
  O  O2343  1  0.069000  0.894200  0.209200  1
  O  O2344  1  0.644200  0.681000  0.959200  1
  O  O2345  1  0.625800  0.226800  0.094500  1
  O  O2346  1  0.523200  0.875800  0.344500  1
  O  O2347  1  0.125800  0.726800  0.594500  1
  O  O2348  1  0.023200  0.375800  0.844500  1
  O  O2349  1  0.476800  0.624200  0.344500  1
  O  O2350  1  0.874200  0.773200  0.594500  1
  O  O2351  1  0.976800  0.124200  0.844500  1
  O  O2352  1  0.374200  0.273200  0.094500  1
  O  O2353  1  0.374200  0.773200  0.905500  1
  O  O2354  1  0.476800  0.124200  0.655500  1
  O  O2355  1  0.874200  0.273200  0.405500  1
  O  O2356  1  0.976800  0.624200  0.155500  1
  O  O2357  1  0.523200  0.375800  0.655500  1
  O  O2358  1  0.125800  0.226800  0.405500  1
  O  O2359  1  0.023200  0.875800  0.155500  1
  O  O2360  1  0.625800  0.726800  0.905500  1
  O  O2361  1  0.673300  0.256700  0.047600  1
  O  O2362  1  0.493300  0.923300  0.297600  1
  O  O2363  1  0.173300  0.756700  0.547600  1
  O  O2364  1  0.993300  0.423300  0.797600  1
  O  O2365  1  0.506700  0.576700  0.297600  1
  O  O2366  1  0.826700  0.743300  0.547600  1
  O  O2367  1  0.006700  0.076700  0.797600  1
  O  O2368  1  0.326700  0.243300  0.047600  1
  O  O2369  1  0.326700  0.743300  0.952400  1
  O  O2370  1  0.506700  0.076700  0.702400  1
  O  O2371  1  0.826700  0.243300  0.452400  1
  O  O2372  1  0.006700  0.576700  0.202400  1
  O  O2373  1  0.493300  0.423300  0.702400  1
  O  O2374  1  0.173300  0.256700  0.452400  1
  O  O2375  1  0.993300  0.923300  0.202400  1
  O  O2376  1  0.673300  0.756700  0.952400  1
  O  O2377  1  0.710400  0.197200  0.963100  1
  O  O2378  1  0.552800  0.960400  0.213100  1
  O  O2379  1  0.210400  0.697200  0.463100  1
  O  O2380  1  0.052800  0.460400  0.713100  1
  O  O2381  1  0.447200  0.539600  0.213100  1
  O  O2382  1  0.789600  0.802800  0.463100  1
  O  O2383  1  0.947200  0.039600  0.713100  1
  O  O2384  1  0.289600  0.302800  0.963100  1
  O  O2385  1  0.289600  0.802800  0.036900  1
  O  O2386  1  0.447200  0.039600  0.786900  1
  O  O2387  1  0.789600  0.302800  0.536900  1
  O  O2388  1  0.947200  0.539600  0.286900  1
  O  O2389  1  0.552800  0.460400  0.786900  1
  O  O2390  1  0.210400  0.197200  0.536900  1
  O  O2391  1  0.052800  0.960400  0.286900  1
  O  O2392  1  0.710400  0.697200  0.036900  1
  O  O2393  1  0.608600  0.134700  0.953200  1
  O  O2394  1  0.615300  0.858600  0.203200  1
  O  O2395  1  0.108600  0.634700  0.453200  1
  O  O2396  1  0.115300  0.358600  0.703200  1
  O  O2397  1  0.384700  0.641400  0.203200  1
  O  O2398  1  0.891400  0.865300  0.453200  1
  O  O2399  1  0.884700  0.141400  0.703200  1
  O  O2400  1  0.391400  0.365300  0.953200  1
  O  O2401  1  0.391400  0.865300  0.046800  1
  O  O2402  1  0.384700  0.141400  0.796800  1
  O  O2403  1  0.891400  0.365300  0.546800  1
  O  O2404  1  0.884700  0.641400  0.296800  1
  O  O2405  1  0.615300  0.358600  0.796800  1
  O  O2406  1  0.108600  0.134700  0.546800  1
  O  O2407  1  0.115300  0.858600  0.296800  1
  O  O2408  1  0.608600  0.634700  0.046800  1
  O  O2409  1  0.811000  0.270300  0.852300  1
  O  O2410  1  0.479700  0.061000  0.102300  1
  O  O2411  1  0.311000  0.770300  0.352300  1
  O  O2412  1  0.979700  0.561000  0.602300  1
  O  O2413  1  0.520300  0.439000  0.102300  1
  O  O2414  1  0.689000  0.729700  0.352300  1
  O  O2415  1  0.020300  0.939000  0.602300  1
  O  O2416  1  0.189000  0.229700  0.852300  1
  O  O2417  1  0.189000  0.729700  0.147700  1
  O  O2418  1  0.520300  0.939000  0.897700  1
  O  O2419  1  0.689000  0.229700  0.647700  1
  O  O2420  1  0.020300  0.439000  0.397700  1
  O  O2421  1  0.479700  0.561000  0.897700  1
  O  O2422  1  0.311000  0.270300  0.647700  1
  O  O2423  1  0.979700  0.061000  0.397700  1
  O  O2424  1  0.811000  0.770300  0.147700  1
  O  O2425  1  0.767100  0.240600  0.906000  1
  O  O2426  1  0.509400  0.017100  0.156000  1
  O  O2427  1  0.267100  0.740600  0.406000  1
  O  O2428  1  0.009400  0.517100  0.656000  1
  O  O2429  1  0.490600  0.482900  0.156000  1
  O  O2430  1  0.732900  0.759400  0.406000  1
  O  O2431  1  0.990600  0.982900  0.656000  1
  O  O2432  1  0.232900  0.259400  0.906000  1
  O  O2433  1  0.232900  0.759400  0.094000  1
  O  O2434  1  0.490600  0.982900  0.844000  1
  O  O2435  1  0.732900  0.259400  0.594000  1
  O  O2436  1  0.990600  0.482900  0.344000  1
  O  O2437  1  0.509400  0.517100  0.844000  1
  O  O2438  1  0.267100  0.240600  0.594000  1
  O  O2439  1  0.009400  0.017100  0.344000  1
  O  O2440  1  0.767100  0.740600  0.094000  1
  O  O2441  1  0.782900  0.320600  0.898500  1
  O  O2442  1  0.429400  0.032900  0.148500  1
  O  O2443  1  0.282900  0.820600  0.398500  1
  O  O2444  1  0.929400  0.532900  0.648500  1
  O  O2445  1  0.570600  0.467100  0.148500  1
  O  O2446  1  0.717100  0.679400  0.398500  1
  O  O2447  1  0.070600  0.967100  0.648500  1
  O  O2448  1  0.217100  0.179400  0.898500  1
  O  O2449  1  0.217100  0.679400  0.101500  1
  O  O2450  1  0.570600  0.967100  0.851500  1
  O  O2451  1  0.717100  0.179400  0.601500  1
  O  O2452  1  0.070600  0.467100  0.351500  1
  O  O2453  1  0.429400  0.532900  0.851500  1
  O  O2454  1  0.282900  0.320600  0.601500  1
  O  O2455  1  0.929400  0.032900  0.351500  1
  O  O2456  1  0.782900  0.820600  0.101500  1
  O  O2457  1  0.541300  0.933000  0.037700  1
  O  O2458  1  0.817000  0.791300  0.287700  1
  O  O2459  1  0.041300  0.433000  0.537700  1
  O  O2460  1  0.317000  0.291300  0.787700  1
  O  O2461  1  0.183000  0.708700  0.287700  1
  O  O2462  1  0.958700  0.067000  0.537700  1
  O  O2463  1  0.683000  0.208700  0.787700  1
  O  O2464  1  0.458700  0.567000  0.037700  1
  O  O2465  1  0.458700  0.067000  0.962300  1
  O  O2466  1  0.183000  0.208700  0.712300  1
  O  O2467  1  0.958700  0.567000  0.462300  1
  O  O2468  1  0.683000  0.708700  0.212300  1
  O  O2469  1  0.817000  0.291300  0.712300  1
  O  O2470  1  0.041300  0.933000  0.462300  1
  O  O2471  1  0.317000  0.791300  0.212300  1
  O  O2472  1  0.541300  0.433000  0.962300  1
  O  O2473  1  0.604400  0.865200  0.073100  1
  O  O2474  1  0.884800  0.854400  0.323100  1
  O  O2475  1  0.104400  0.365200  0.573100  1
  O  O2476  1  0.384800  0.354400  0.823100  1
  O  O2477  1  0.115200  0.645600  0.323100  1
  O  O2478  1  0.895600  0.134800  0.573100  1
  O  O2479  1  0.615200  0.145600  0.823100  1
  O  O2480  1  0.395600  0.634800  0.073100  1
  O  O2481  1  0.395600  0.134800  0.926900  1
  O  O2482  1  0.115200  0.145600  0.676900  1
  O  O2483  1  0.895600  0.634800  0.426900  1
  O  O2484  1  0.615200  0.645600  0.176900  1
  O  O2485  1  0.884800  0.354400  0.676900  1
  O  O2486  1  0.104400  0.865200  0.426900  1
  O  O2487  1  0.384800  0.854400  0.176900  1
  O  O2488  1  0.604400  0.365200  0.926900  1
  O  O2489  1  0.587000  0.746300  0.082900  1
  O  O2490  1  0.003700  0.837000  0.332900  1
  O  O2491  1  0.087000  0.246300  0.582900  1
  O  O2492  1  0.503700  0.337000  0.832900  1
  O  O2493  1  0.996300  0.663000  0.332900  1
  O  O2494  1  0.913000  0.253700  0.582900  1
  O  O2495  1  0.496300  0.163000  0.832900  1
  O  O2496  1  0.413000  0.753700  0.082900  1
  O  O2497  1  0.413000  0.253700  0.917100  1
  O  O2498  1  0.996300  0.163000  0.667100  1
  O  O2499  1  0.913000  0.753700  0.417100  1
  O  O2500  1  0.496300  0.663000  0.167100  1
  O  O2501  1  0.003700  0.337000  0.667100  1
  O  O2502  1  0.087000  0.746300  0.417100  1
  O  O2503  1  0.503700  0.837000  0.167100  1
  O  O2504  1  0.587000  0.246300  0.917100  1
  O  O2505  1  0.673400  0.430300  0.036600  1
  O  O2506  1  0.319700  0.923400  0.286600  1
  O  O2507  1  0.173400  0.930300  0.536600  1
  O  O2508  1  0.819700  0.423400  0.786600  1
  O  O2509  1  0.680300  0.576600  0.286600  1
  O  O2510  1  0.826600  0.569700  0.536600  1
  O  O2511  1  0.180300  0.076600  0.786600  1
  O  O2512  1  0.326600  0.069700  0.036600  1
  O  O2513  1  0.326600  0.569700  0.963400  1
  O  O2514  1  0.680300  0.076600  0.713400  1
  O  O2515  1  0.826600  0.069700  0.463400  1
  O  O2516  1  0.180300  0.576600  0.213400  1
  O  O2517  1  0.319700  0.423400  0.713400  1
  O  O2518  1  0.173400  0.430300  0.463400  1
  O  O2519  1  0.819700  0.923400  0.213400  1
  O  O2520  1  0.673400  0.930300  0.963400  1
  O  O2521  1  0.422100  0.028500  0.033600  1
  O  O2522  1  0.721500  0.672100  0.283600  1
  O  O2523  1  0.922100  0.528500  0.533600  1
  O  O2524  1  0.221500  0.172100  0.783600  1
  O  O2525  1  0.278500  0.827900  0.283600  1
  O  O2526  1  0.077900  0.971500  0.533600  1
  O  O2527  1  0.778500  0.327900  0.783600  1
  O  O2528  1  0.577900  0.471500  0.033600  1
  O  O2529  1  0.577900  0.971500  0.966400  1
  O  O2530  1  0.278500  0.327900  0.716400  1
  O  O2531  1  0.077900  0.471500  0.466400  1
  O  O2532  1  0.778500  0.827900  0.216400  1
  O  O2533  1  0.721500  0.172100  0.716400  1
  O  O2534  1  0.922100  0.028500  0.466400  1
  O  O2535  1  0.221500  0.672100  0.216400  1
  O  O2536  1  0.422100  0.528500  0.966400  1
  O  O2537  1  0.000000  0.250000  0.625000  1
  O  O2538  1  0.500000  0.250000  0.875000  1
  O  O2539  1  0.500000  0.750000  0.125000  1
  O  O2540  1  0.000000  0.750000  0.375000  1
  O  O2541  1  0.334300  0.906900  0.790000  1
  O  O2542  1  0.843100  0.584300  0.040000  1
  O  O2543  1  0.834300  0.406900  0.290000  1
  O  O2544  1  0.343100  0.084300  0.540000  1
  O  O2545  1  0.156900  0.915700  0.040000  1
  O  O2546  1  0.165700  0.093100  0.290000  1
  O  O2547  1  0.656900  0.415700  0.540000  1
  O  O2548  1  0.665700  0.593100  0.790000  1
  O  O2549  1  0.665700  0.093100  0.210000  1
  O  O2550  1  0.156900  0.415700  0.960000  1
  O  O2551  1  0.165700  0.593100  0.710000  1
  O  O2552  1  0.656900  0.915700  0.460000  1
  O  O2553  1  0.843100  0.084300  0.960000  1
  O  O2554  1  0.834300  0.906900  0.710000  1
  O  O2555  1  0.343100  0.584300  0.460000  1
  O  O2556  1  0.334300  0.406900  0.210000  1
  O  O2557  1  0.660500  0.801100  0.107800  1
  O  O2558  1  0.948900  0.910500  0.357800  1
  O  O2559  1  0.160500  0.301100  0.607800  1
  O  O2560  1  0.448900  0.410500  0.857800  1
  O  O2561  1  0.051100  0.589500  0.357800  1
  O  O2562  1  0.839500  0.198900  0.607800  1
  O  O2563  1  0.551100  0.089500  0.857800  1
  O  O2564  1  0.339500  0.698900  0.107800  1
  O  O2565  1  0.339500  0.198900  0.892200  1
  O  O2566  1  0.051100  0.089500  0.642200  1
  O  O2567  1  0.839500  0.698900  0.392200  1
  O  O2568  1  0.551100  0.589500  0.142200  1
  O  O2569  1  0.948900  0.410500  0.642200  1
  O  O2570  1  0.160500  0.801100  0.392200  1
  O  O2571  1  0.448900  0.910500  0.142200  1
  O  O2572  1  0.660500  0.301100  0.892200  1
  O  O2573  1  0.351000  0.797900  0.813600  1
  O  O2574  1  0.952100  0.601000  0.063600  1
  O  O2575  1  0.851000  0.297900  0.313600  1
  O  O2576  1  0.452100  0.101000  0.563600  1
  O  O2577  1  0.047900  0.899000  0.063600  1
  O  O2578  1  0.149000  0.202100  0.313600  1
  O  O2579  1  0.547900  0.399000  0.563600  1
  O  O2580  1  0.649000  0.702100  0.813600  1
  O  O2581  1  0.649000  0.202100  0.186400  1
  O  O2582  1  0.047900  0.399000  0.936400  1
  O  O2583  1  0.149000  0.702100  0.686400  1
  O  O2584  1  0.547900  0.899000  0.436400  1
  O  O2585  1  0.952100  0.101000  0.936400  1
  O  O2586  1  0.851000  0.797900  0.686400  1
  O  O2587  1  0.452100  0.601000  0.436400  1
  O  O2588  1  0.351000  0.297900  0.186400  1
  O  O2589  1  0.834700  0.402200  0.904100  1
  O  O2590  1  0.347800  0.084700  0.154100  1
  O  O2591  1  0.334700  0.902200  0.404100  1
  O  O2592  1  0.847800  0.584700  0.654100  1
  O  O2593  1  0.652200  0.415300  0.154100  1
  O  O2594  1  0.665300  0.597800  0.404100  1
  O  O2595  1  0.152200  0.915300  0.654100  1
  O  O2596  1  0.165300  0.097800  0.904100  1
  O  O2597  1  0.165300  0.597800  0.095900  1
  O  O2598  1  0.652200  0.915300  0.845900  1
  O  O2599  1  0.665300  0.097800  0.595900  1
  O  O2600  1  0.152200  0.415300  0.345900  1
  O  O2601  1  0.347800  0.584700  0.845900  1
  O  O2602  1  0.334700  0.402200  0.595900  1
  O  O2603  1  0.847800  0.084700  0.345900  1
  O  O2604  1  0.834700  0.902200  0.095900  1
  O  O2605  1  0.201200  0.857700  0.688300  1
  O  O2606  1  0.892300  0.451200  0.938300  1
  O  O2607  1  0.701200  0.357700  0.188300  1
  O  O2608  1  0.392300  0.951200  0.438300  1
  O  O2609  1  0.107700  0.048800  0.938300  1
  O  O2610  1  0.298800  0.142300  0.188300  1
  O  O2611  1  0.607700  0.548800  0.438300  1
  O  O2612  1  0.798800  0.642300  0.688300  1
  O  O2613  1  0.798800  0.142300  0.311700  1
  O  O2614  1  0.107700  0.548800  0.061700  1
  O  O2615  1  0.298800  0.642300  0.811700  1
  O  O2616  1  0.607700  0.048800  0.561700  1
  O  O2617  1  0.892300  0.951200  0.061700  1
  O  O2618  1  0.701200  0.857700  0.811700  1
  O  O2619  1  0.392300  0.451200  0.561700  1
  O  O2620  1  0.201200  0.357700  0.311700  1
  O  O2621  1  0.513500  0.912800  0.096300  1
  O  O2622  1  0.837200  0.763500  0.346300  1
  O  O2623  1  0.013500  0.412800  0.596300  1
  O  O2624  1  0.337200  0.263500  0.846300  1
  O  O2625  1  0.162800  0.736500  0.346300  1
  O  O2626  1  0.986500  0.087200  0.596300  1
  O  O2627  1  0.662800  0.236500  0.846300  1
  O  O2628  1  0.486500  0.587200  0.096300  1
  O  O2629  1  0.486500  0.087200  0.903700  1
  O  O2630  1  0.162800  0.236500  0.653700  1
  O  O2631  1  0.986500  0.587200  0.403700  1
  O  O2632  1  0.662800  0.736500  0.153700  1
  O  O2633  1  0.837200  0.263500  0.653700  1
  O  O2634  1  0.013500  0.912800  0.403700  1
  O  O2635  1  0.337200  0.763500  0.153700  1
  O  O2636  1  0.513500  0.412800  0.903700  1
  O  O2637  1  0.760400  0.404000  0.955600  1
  O  O2638  1  0.346000  0.010400  0.205600  1
  O  O2639  1  0.260400  0.904000  0.455600  1
  O  O2640  1  0.846000  0.510400  0.705600  1
  O  O2641  1  0.654000  0.489600  0.205600  1
  O  O2642  1  0.739600  0.596000  0.455600  1
  O  O2643  1  0.154000  0.989600  0.705600  1
  O  O2644  1  0.239600  0.096000  0.955600  1
  O  O2645  1  0.239600  0.596000  0.044400  1
  O  O2646  1  0.654000  0.989600  0.794400  1
  O  O2647  1  0.739600  0.096000  0.544400  1
  O  O2648  1  0.154000  0.489600  0.294400  1
  O  O2649  1  0.346000  0.510400  0.794400  1
  O  O2650  1  0.260400  0.404000  0.544400  1
  O  O2651  1  0.846000  0.010400  0.294400  1
  O  O2652  1  0.760400  0.904000  0.044400  1
  O  O2653  1  0.768400  0.477900  0.953100  1
  O  O2654  1  0.272100  0.018400  0.203100  1
  O  O2655  1  0.268400  0.977900  0.453100  1
  O  O2656  1  0.772100  0.518400  0.703100  1
  O  O2657  1  0.727900  0.481600  0.203100  1
  O  O2658  1  0.731600  0.522100  0.453100  1
  O  O2659  1  0.227900  0.981600  0.703100  1
  O  O2660  1  0.231600  0.022100  0.953100  1
  O  O2661  1  0.231600  0.522100  0.046900  1
  O  O2662  1  0.727900  0.981600  0.796900  1
  O  O2663  1  0.731600  0.022100  0.546900  1
  O  O2664  1  0.227900  0.481600  0.296900  1
  O  O2665  1  0.272100  0.518400  0.796900  1
  O  O2666  1  0.268400  0.477900  0.546900  1
  O  O2667  1  0.772100  0.018400  0.296900  1
  O  O2668  1  0.768400  0.977900  0.046900  1
  O  O2669  1  0.325300  0.186900  0.804000  1
  O  O2670  1  0.563100  0.575300  0.054000  1
  O  O2671  1  0.825300  0.686900  0.304000  1
  O  O2672  1  0.063100  0.075300  0.554000  1
  O  O2673  1  0.436900  0.924700  0.054000  1
  O  O2674  1  0.174700  0.813100  0.304000  1
  O  O2675  1  0.936900  0.424700  0.554000  1
  O  O2676  1  0.674700  0.313100  0.804000  1
  O  O2677  1  0.674700  0.813100  0.196000  1
  O  O2678  1  0.436900  0.424700  0.946000  1
  O  O2679  1  0.174700  0.313100  0.696000  1
  O  O2680  1  0.936900  0.924700  0.446000  1
  O  O2681  1  0.563100  0.075300  0.946000  1
  O  O2682  1  0.825300  0.186900  0.696000  1
  O  O2683  1  0.063100  0.575300  0.446000  1
  O  O2684  1  0.325300  0.686900  0.196000  1
  O  O2685  1  0.317000  0.699100  0.857200  1
  O  O2686  1  0.050900  0.567000  0.107200  1
  O  O2687  1  0.817000  0.199100  0.357200  1
  O  O2688  1  0.550900  0.067000  0.607200  1
  O  O2689  1  0.949100  0.933000  0.107200  1
  O  O2690  1  0.183000  0.300900  0.357200  1
  O  O2691  1  0.449100  0.433000  0.607200  1
  O  O2692  1  0.683000  0.800900  0.857200  1
  O  O2693  1  0.683000  0.300900  0.142800  1
  O  O2694  1  0.949100  0.433000  0.892800  1
  O  O2695  1  0.183000  0.800900  0.642800  1
  O  O2696  1  0.449100  0.933000  0.392800  1
  O  O2697  1  0.050900  0.067000  0.892800  1
  O  O2698  1  0.817000  0.699100  0.642800  1
  O  O2699  1  0.550900  0.567000  0.392800  1
  O  O2700  1  0.317000  0.199100  0.142800  1
  O  O2701  1  0.337000  0.713000  0.774100  1
  O  O2702  1  0.037000  0.587000  0.024100  1
  O  O2703  1  0.837000  0.213000  0.274100  1
  O  O2704  1  0.537000  0.087000  0.524100  1
  O  O2705  1  0.963000  0.913000  0.024100  1
  O  O2706  1  0.163000  0.287000  0.274100  1
  O  O2707  1  0.463000  0.413000  0.524100  1
  O  O2708  1  0.663000  0.787000  0.774100  1
  O  O2709  1  0.663000  0.287000  0.225900  1
  O  O2710  1  0.963000  0.413000  0.975900  1
  O  O2711  1  0.163000  0.787000  0.725900  1
  O  O2712  1  0.463000  0.913000  0.475900  1
  O  O2713  1  0.037000  0.087000  0.975900  1
  O  O2714  1  0.837000  0.713000  0.725900  1
  O  O2715  1  0.537000  0.587000  0.475900  1
  O  O2716  1  0.337000  0.213000  0.225900  1
  O  O2717  1  0.684500  0.351800  0.022100  1
  O  O2718  1  0.398200  0.934500  0.272100  1
  O  O2719  1  0.184500  0.851800  0.522100  1
  O  O2720  1  0.898200  0.434500  0.772100  1
  O  O2721  1  0.601800  0.565500  0.272100  1
  O  O2722  1  0.815500  0.648200  0.522100  1
  O  O2723  1  0.101800  0.065500  0.772100  1
  O  O2724  1  0.315500  0.148200  0.022100  1
  O  O2725  1  0.315500  0.648200  0.977900  1
  O  O2726  1  0.601800  0.065500  0.727900  1
  O  O2727  1  0.815500  0.148200  0.477900  1
  O  O2728  1  0.101800  0.565500  0.227900  1
  O  O2729  1  0.398200  0.434500  0.727900  1
  O  O2730  1  0.184500  0.351800  0.477900  1
  O  O2731  1  0.898200  0.934500  0.227900  1
  O  O2732  1  0.684500  0.851800  0.977900  1
  O  O2733  1  0.295100  0.825600  0.774300  1
  O  O2734  1  0.924400  0.545100  0.024300  1
  O  O2735  1  0.795100  0.325600  0.274300  1
  O  O2736  1  0.424400  0.045100  0.524300  1
  O  O2737  1  0.075600  0.954900  0.024300  1
  O  O2738  1  0.204900  0.174400  0.274300  1
  O  O2739  1  0.575600  0.454900  0.524300  1
  O  O2740  1  0.704900  0.674400  0.774300  1
  O  O2741  1  0.704900  0.174400  0.225700  1
  O  O2742  1  0.075600  0.454900  0.975700  1
  O  O2743  1  0.204900  0.674400  0.725700  1
  O  O2744  1  0.575600  0.954900  0.475700  1
  O  O2745  1  0.924400  0.045100  0.975700  1
  O  O2746  1  0.795100  0.825600  0.725700  1
  O  O2747  1  0.424400  0.545100  0.475700  1
  O  O2748  1  0.295100  0.325600  0.225700  1
  O  O2749  1  0.625400  0.163600  0.955400  1
  O  O2750  1  0.586400  0.875400  0.205400  1
  O  O2751  1  0.125400  0.663600  0.455400  1
  O  O2752  1  0.086400  0.375400  0.705400  1
  O  O2753  1  0.413600  0.624600  0.205400  1
  O  O2754  1  0.874600  0.836400  0.455400  1
  O  O2755  1  0.913600  0.124600  0.705400  1
  O  O2756  1  0.374600  0.336400  0.955400  1
  O  O2757  1  0.374600  0.836400  0.044600  1
  O  O2758  1  0.413600  0.124600  0.794600  1
  O  O2759  1  0.874600  0.336400  0.544600  1
  O  O2760  1  0.913600  0.624600  0.294600  1
  O  O2761  1  0.586400  0.375400  0.794600  1
  O  O2762  1  0.125400  0.163600  0.544600  1
  O  O2763  1  0.086400  0.875400  0.294600  1
  O  O2764  1  0.625400  0.663600  0.044600  1
  O  O2765  1  0.651000  0.136400  0.013900  1
  O  O2766  1  0.613600  0.901000  0.263900  1
  O  O2767  1  0.151000  0.636400  0.513900  1
  O  O2768  1  0.113600  0.401000  0.763900  1
  O  O2769  1  0.386400  0.599000  0.263900  1
  O  O2770  1  0.849000  0.863600  0.513900  1
  O  O2771  1  0.886400  0.099000  0.763900  1
  O  O2772  1  0.349000  0.363600  0.013900  1
  O  O2773  1  0.349000  0.863600  0.986100  1
  O  O2774  1  0.386400  0.099000  0.736100  1
  O  O2775  1  0.849000  0.363600  0.486100  1
  O  O2776  1  0.886400  0.599000  0.236100  1
  O  O2777  1  0.613600  0.401000  0.736100  1
  O  O2778  1  0.151000  0.136400  0.486100  1
  O  O2779  1  0.113600  0.901000  0.236100  1
  O  O2780  1  0.651000  0.636400  0.986100  1
  O  O2781  1  0.657900  0.214900  0.004900  1
  O  O2782  1  0.535100  0.907900  0.254900  1
  O  O2783  1  0.157900  0.714900  0.504900  1
  O  O2784  1  0.035100  0.407900  0.754900  1
  O  O2785  1  0.464900  0.592100  0.254900  1
  O  O2786  1  0.842100  0.785100  0.504900  1
  O  O2787  1  0.964900  0.092100  0.754900  1
  O  O2788  1  0.342100  0.285100  0.004900  1
  O  O2789  1  0.342100  0.785100  0.995100  1
  O  O2790  1  0.464900  0.092100  0.745100  1
  O  O2791  1  0.842100  0.285100  0.495100  1
  O  O2792  1  0.964900  0.592100  0.245100  1
  O  O2793  1  0.535100  0.407900  0.745100  1
  O  O2794  1  0.157900  0.214900  0.495100  1
  O  O2795  1  0.035100  0.907900  0.245100  1
  O  O2796  1  0.657900  0.714900  0.995100  1
  O  O2797  1  0.830000  0.334000  0.847200  1
  O  O2798  1  0.416000  0.080000  0.097200  1
  O  O2799  1  0.330000  0.834000  0.347200  1
  O  O2800  1  0.916000  0.580000  0.597200  1
  O  O2801  1  0.584000  0.420000  0.097200  1
  O  O2802  1  0.670000  0.666000  0.347200  1
  O  O2803  1  0.084000  0.920000  0.597200  1
  O  O2804  1  0.170000  0.166000  0.847200  1
  O  O2805  1  0.170000  0.666000  0.152800  1
  O  O2806  1  0.584000  0.920000  0.902800  1
  O  O2807  1  0.670000  0.166000  0.652800  1
  O  O2808  1  0.084000  0.420000  0.402800  1
  O  O2809  1  0.416000  0.580000  0.902800  1
  O  O2810  1  0.330000  0.334000  0.652800  1
  O  O2811  1  0.916000  0.080000  0.402800  1
  O  O2812  1  0.830000  0.834000  0.152800  1
  O  O2813  1  0.741200  0.240800  0.890800  1
  O  O2814  1  0.509200  0.991200  0.140800  1
  O  O2815  1  0.241200  0.740800  0.390800  1
  O  O2816  1  0.009200  0.491200  0.640800  1
  O  O2817  1  0.490800  0.508800  0.140800  1
  O  O2818  1  0.758800  0.759200  0.390800  1
  O  O2819  1  0.990800  0.008800  0.640800  1
  O  O2820  1  0.258800  0.259200  0.890800  1
  O  O2821  1  0.258800  0.759200  0.109200  1
  O  O2822  1  0.490800  0.008800  0.859200  1
  O  O2823  1  0.758800  0.259200  0.609200  1
  O  O2824  1  0.990800  0.508800  0.359200  1
  O  O2825  1  0.509200  0.491200  0.859200  1
  O  O2826  1  0.241200  0.240800  0.609200  1
  O  O2827  1  0.009200  0.991200  0.359200  1
  O  O2828  1  0.741200  0.740800  0.109200  1
  O  O2829  1  0.694400  0.246300  0.009900  1
  O  O2830  1  0.503700  0.944400  0.259900  1
  O  O2831  1  0.194400  0.746300  0.509900  1
  O  O2832  1  0.003700  0.444400  0.759900  1
  O  O2833  1  0.496300  0.555600  0.259900  1
  O  O2834  1  0.805600  0.753700  0.509900  1
  O  O2835  1  0.996300  0.055600  0.759900  1
  O  O2836  1  0.305600  0.253700  0.009900  1
  O  O2837  1  0.305600  0.753700  0.990100  1
  O  O2838  1  0.496300  0.055600  0.740100  1
  O  O2839  1  0.805600  0.253700  0.490100  1
  O  O2840  1  0.996300  0.555600  0.240100  1
  O  O2841  1  0.503700  0.444400  0.740100  1
  O  O2842  1  0.194400  0.246300  0.490100  1
  O  O2843  1  0.003700  0.944400  0.240100  1
  O  O2844  1  0.694400  0.746300  0.990100  1
  O  O2845  1  0.619600  0.215000  0.085400  1
  O  O2846  1  0.535000  0.869600  0.335400  1
  O  O2847  1  0.119600  0.715000  0.585400  1
  O  O2848  1  0.035000  0.369600  0.835400  1
  O  O2849  1  0.465000  0.630400  0.335400  1
  O  O2850  1  0.880400  0.785000  0.585400  1
  O  O2851  1  0.965000  0.130400  0.835400  1
  O  O2852  1  0.380400  0.285000  0.085400  1
  O  O2853  1  0.380400  0.785000  0.914600  1
  O  O2854  1  0.465000  0.130400  0.664600  1
  O  O2855  1  0.880400  0.285000  0.414600  1
  O  O2856  1  0.965000  0.630400  0.164600  1
  O  O2857  1  0.535000  0.369600  0.664600  1
  O  O2858  1  0.119600  0.215000  0.414600  1
  O  O2859  1  0.035000  0.869600  0.164600  1
  O  O2860  1  0.619600  0.715000  0.914600  1
  O  O2861  1  0.596400  0.715200  0.102200  1
  O  O2862  1  0.034800  0.846400  0.352200  1
  O  O2863  1  0.096400  0.215200  0.602200  1
  O  O2864  1  0.534800  0.346400  0.852200  1
  O  O2865  1  0.965200  0.653600  0.352200  1
  O  O2866  1  0.903600  0.284800  0.602200  1
  O  O2867  1  0.465200  0.153600  0.852200  1
  O  O2868  1  0.403600  0.784800  0.102200  1
  O  O2869  1  0.403600  0.284800  0.897800  1
  O  O2870  1  0.965200  0.153600  0.647800  1
  O  O2871  1  0.903600  0.784800  0.397800  1
  O  O2872  1  0.465200  0.653600  0.147800  1
  O  O2873  1  0.034800  0.346400  0.647800  1
  O  O2874  1  0.096400  0.715200  0.397800  1
  O  O2875  1  0.534800  0.846400  0.147800  1
  O  O2876  1  0.596400  0.215200  0.897800  1
  O  O2877  1  0.664100  0.176200  0.020200  1
  O  O2878  1  0.573800  0.914100  0.270200  1
  O  O2879  1  0.164100  0.676200  0.520200  1
  O  O2880  1  0.073800  0.414100  0.770200  1
  O  O2881  1  0.426200  0.585900  0.270200  1
  O  O2882  1  0.835900  0.823800  0.520200  1
  O  O2883  1  0.926200  0.085900  0.770200  1
  O  O2884  1  0.335900  0.323800  0.020200  1
  O  O2885  1  0.335900  0.823800  0.979800  1
  O  O2886  1  0.426200  0.085900  0.729800  1
  O  O2887  1  0.835900  0.323800  0.479800  1
  O  O2888  1  0.926200  0.585900  0.229800  1
  O  O2889  1  0.573800  0.414100  0.729800  1
  O  O2890  1  0.164100  0.176200  0.479800  1
  O  O2891  1  0.073800  0.914100  0.229800  1
  O  O2892  1  0.664100  0.676200  0.979800  1
  O  O2893  1  0.821000  0.301100  0.858500  1
  O  O2894  1  0.448900  0.071000  0.108500  1
  O  O2895  1  0.321000  0.801100  0.358500  1
  O  O2896  1  0.948900  0.571000  0.608500  1
  O  O2897  1  0.551100  0.429000  0.108500  1
  O  O2898  1  0.679000  0.698900  0.358500  1
  O  O2899  1  0.051100  0.929000  0.608500  1
  O  O2900  1  0.179000  0.198900  0.858500  1
  O  O2901  1  0.179000  0.698900  0.141500  1
  O  O2902  1  0.551100  0.929000  0.891500  1
  O  O2903  1  0.679000  0.198900  0.641500  1
  O  O2904  1  0.051100  0.429000  0.391500  1
  O  O2905  1  0.448900  0.571000  0.891500  1
  O  O2906  1  0.321000  0.301100  0.641500  1
  O  O2907  1  0.948900  0.071000  0.391500  1
  O  O2908  1  0.821000  0.801100  0.141500  1
  O  O2909  1  0.753700  0.293000  0.931400  1
  O  O2910  1  0.457000  0.003700  0.181400  1
  O  O2911  1  0.253700  0.793000  0.431400  1
  O  O2912  1  0.957000  0.503700  0.681400  1
  O  O2913  1  0.543000  0.496300  0.181400  1
  O  O2914  1  0.746300  0.707000  0.431400  1
  O  O2915  1  0.043000  0.996300  0.681400  1
  O  O2916  1  0.246300  0.207000  0.931400  1
  O  O2917  1  0.246300  0.707000  0.068600  1
  O  O2918  1  0.543000  0.996300  0.818600  1
  O  O2919  1  0.746300  0.207000  0.568600  1
  O  O2920  1  0.043000  0.496300  0.318600  1
  O  O2921  1  0.457000  0.503700  0.818600  1
  O  O2922  1  0.253700  0.293000  0.568600  1
  O  O2923  1  0.957000  0.003700  0.318600  1
  O  O2924  1  0.753700  0.793000  0.068600  1
  O  O2925  1  0.295000  0.220000  0.780000  1
  O  O2926  1  0.530000  0.545000  0.030000  1
  O  O2927  1  0.795000  0.720000  0.280000  1
  O  O2928  1  0.030000  0.045000  0.530000  1
  O  O2929  1  0.470000  0.955000  0.030000  1
  O  O2930  1  0.205000  0.780000  0.280000  1
  O  O2931  1  0.970000  0.455000  0.530000  1
  O  O2932  1  0.705000  0.280000  0.780000  1
  O  O2933  1  0.705000  0.780000  0.220000  1
  O  O2934  1  0.470000  0.455000  0.970000  1
  O  O2935  1  0.205000  0.280000  0.720000  1
  O  O2936  1  0.970000  0.955000  0.470000  1
  O  O2937  1  0.530000  0.045000  0.970000  1
  O  O2938  1  0.795000  0.220000  0.720000  1
  O  O2939  1  0.030000  0.545000  0.470000  1
  O  O2940  1  0.295000  0.720000  0.220000  1
  O  O2941  1  0.705000  0.387000  0.969100  1
  O  O2942  1  0.363000  0.955000  0.219100  1
  O  O2943  1  0.205000  0.887000  0.469100  1
  O  O2944  1  0.863000  0.455000  0.719100  1
  O  O2945  1  0.637000  0.545000  0.219100  1
  O  O2946  1  0.795000  0.613000  0.469100  1
  O  O2947  1  0.137000  0.045000  0.719100  1
  O  O2948  1  0.295000  0.113000  0.969100  1
  O  O2949  1  0.295000  0.613000  0.030900  1
  O  O2950  1  0.637000  0.045000  0.780900  1
  O  O2951  1  0.795000  0.113000  0.530900  1
  O  O2952  1  0.137000  0.545000  0.280900  1
  O  O2953  1  0.363000  0.455000  0.780900  1
  O  O2954  1  0.205000  0.387000  0.530900  1
  O  O2955  1  0.863000  0.955000  0.280900  1
  O  O2956  1  0.705000  0.887000  0.030900  1
  O  O2957  1  0.723200  0.287500  0.969300  1
  O  O2958  1  0.462500  0.973200  0.219300  1
  O  O2959  1  0.223200  0.787500  0.469300  1
  O  O2960  1  0.962500  0.473200  0.719300  1
  O  O2961  1  0.537500  0.526800  0.219300  1
  O  O2962  1  0.776800  0.712500  0.469300  1
  O  O2963  1  0.037500  0.026800  0.719300  1
  O  O2964  1  0.276800  0.212500  0.969300  1
  O  O2965  1  0.276800  0.712500  0.030700  1
  O  O2966  1  0.537500  0.026800  0.780700  1
  O  O2967  1  0.776800  0.212500  0.530700  1
  O  O2968  1  0.037500  0.526800  0.280700  1
  O  O2969  1  0.462500  0.473200  0.780700  1
  O  O2970  1  0.223200  0.287500  0.530700  1
  O  O2971  1  0.962500  0.973200  0.280700  1
  O  O2972  1  0.723200  0.787500  0.030700  1
  O  O2973  1  0.813600  0.419900  0.934500  1
  O  O2974  1  0.330100  0.063600  0.184500  1
  O  O2975  1  0.313600  0.919900  0.434500  1
  O  O2976  1  0.830100  0.563600  0.684500  1
  O  O2977  1  0.669900  0.436400  0.184500  1
  O  O2978  1  0.686400  0.580100  0.434500  1
  O  O2979  1  0.169900  0.936400  0.684500  1
  O  O2980  1  0.186400  0.080100  0.934500  1
  O  O2981  1  0.186400  0.580100  0.065500  1
  O  O2982  1  0.669900  0.936400  0.815500  1
  O  O2983  1  0.686400  0.080100  0.565500  1
  O  O2984  1  0.169900  0.436400  0.315500  1
  O  O2985  1  0.330100  0.563600  0.815500  1
  O  O2986  1  0.313600  0.419900  0.565500  1
  O  O2987  1  0.830100  0.063600  0.315500  1
  O  O2988  1  0.813600  0.919900  0.065500  1
  O  O2989  1  0.353300  0.825900  0.813600  1
  O  O2990  1  0.924100  0.603300  0.063600  1
  O  O2991  1  0.853300  0.325900  0.313600  1
  O  O2992  1  0.424100  0.103300  0.563600  1
  O  O2993  1  0.075900  0.896700  0.063600  1
  O  O2994  1  0.146700  0.174100  0.313600  1
  O  O2995  1  0.575900  0.396700  0.563600  1
  O  O2996  1  0.646700  0.674100  0.813600  1
  O  O2997  1  0.646700  0.174100  0.186400  1
  O  O2998  1  0.075900  0.396700  0.936400  1
  O  O2999  1  0.146700  0.674100  0.686400  1
  O  O3000  1  0.575900  0.896700  0.436400  1
  O  O3001  1  0.924100  0.103300  0.936400  1
  O  O3002  1  0.853300  0.825900  0.686400  1
  O  O3003  1  0.424100  0.603300  0.436400  1
  O  O3004  1  0.353300  0.325900  0.186400  1
  O  O3005  1  0.299600  0.886700  0.739300  1
  O  O3006  1  0.863300  0.549600  0.989300  1
  O  O3007  1  0.799600  0.386700  0.239300  1
  O  O3008  1  0.363300  0.049600  0.489300  1
  O  O3009  1  0.136700  0.950400  0.989300  1
  O  O3010  1  0.200400  0.113300  0.239300  1
  O  O3011  1  0.636700  0.450400  0.489300  1
  O  O3012  1  0.700400  0.613300  0.739300  1
  O  O3013  1  0.700400  0.113300  0.260700  1
  O  O3014  1  0.136700  0.450400  0.010700  1
  O  O3015  1  0.200400  0.613300  0.760700  1
  O  O3016  1  0.636700  0.950400  0.510700  1
  O  O3017  1  0.863300  0.049600  0.010700  1
  O  O3018  1  0.799600  0.886700  0.760700  1
  O  O3019  1  0.363300  0.549600  0.510700  1
  O  O3020  1  0.299600  0.386700  0.260700  1
  O  O3021  1  0.330100  0.753500  0.831900  1
  O  O3022  1  0.996500  0.580100  0.081900  1
  O  O3023  1  0.830100  0.253500  0.331900  1
  O  O3024  1  0.496500  0.080100  0.581900  1
  O  O3025  1  0.003500  0.919900  0.081900  1
  O  O3026  1  0.169900  0.246500  0.331900  1
  O  O3027  1  0.503500  0.419900  0.581900  1
  O  O3028  1  0.669900  0.746500  0.831900  1
  O  O3029  1  0.669900  0.246500  0.168100  1
  O  O3030  1  0.003500  0.419900  0.918100  1
  O  O3031  1  0.169900  0.746500  0.668100  1
  O  O3032  1  0.503500  0.919900  0.418100  1
  O  O3033  1  0.996500  0.080100  0.918100  1
  O  O3034  1  0.830100  0.753500  0.668100  1
  O  O3035  1  0.496500  0.580100  0.418100  1
  O  O3036  1  0.330100  0.253500  0.168100  1
  O  O3037  1  0.337500  0.880300  0.793600  1
  O  O3038  1  0.869700  0.587500  0.043600  1
  O  O3039  1  0.837500  0.380300  0.293600  1
  O  O3040  1  0.369700  0.087500  0.543600  1
  O  O3041  1  0.130300  0.912500  0.043600  1
  O  O3042  1  0.162500  0.119700  0.293600  1
  O  O3043  1  0.630300  0.412500  0.543600  1
  O  O3044  1  0.662500  0.619700  0.793600  1
  O  O3045  1  0.662500  0.119700  0.206400  1
  O  O3046  1  0.130300  0.412500  0.956400  1
  O  O3047  1  0.162500  0.619700  0.706400  1
  O  O3048  1  0.630300  0.912500  0.456400  1
  O  O3049  1  0.869700  0.087500  0.956400  1
  O  O3050  1  0.837500  0.880300  0.706400  1
  O  O3051  1  0.369700  0.587500  0.456400  1
  O  O3052  1  0.337500  0.380300  0.206400  1
  O  O3053  1  0.253700  0.874600  0.713300  1
  O  O3054  1  0.875400  0.503700  0.963300  1
  O  O3055  1  0.753700  0.374600  0.213300  1
  O  O3056  1  0.375400  0.003700  0.463300  1
  O  O3057  1  0.124600  0.996300  0.963300  1
  O  O3058  1  0.246300  0.125400  0.213300  1
  O  O3059  1  0.624600  0.496300  0.463300  1
  O  O3060  1  0.746300  0.625400  0.713300  1
  O  O3061  1  0.746300  0.125400  0.286700  1
  O  O3062  1  0.124600  0.496300  0.036700  1
  O  O3063  1  0.246300  0.625400  0.786700  1
  O  O3064  1  0.624600  0.996300  0.536700  1
  O  O3065  1  0.875400  0.003700  0.036700  1
  O  O3066  1  0.753700  0.874600  0.786700  1
  O  O3067  1  0.375400  0.503700  0.536700  1
  O  O3068  1  0.253700  0.374600  0.286700  1
  O  O3069  1  0.562000  0.890000  0.075500  1
  O  O3070  1  0.860000  0.812000  0.325500  1
  O  O3071  1  0.062000  0.390000  0.575500  1
  O  O3072  1  0.360000  0.312000  0.825500  1
  O  O3073  1  0.140000  0.688000  0.325500  1
  O  O3074  1  0.938000  0.110000  0.575500  1
  O  O3075  1  0.640000  0.188000  0.825500  1
  O  O3076  1  0.438000  0.610000  0.075500  1
  O  O3077  1  0.438000  0.110000  0.924500  1
  O  O3078  1  0.140000  0.188000  0.674500  1
  O  O3079  1  0.938000  0.610000  0.424500  1
  O  O3080  1  0.640000  0.688000  0.174500  1
  O  O3081  1  0.860000  0.312000  0.674500  1
  O  O3082  1  0.062000  0.890000  0.424500  1
  O  O3083  1  0.360000  0.812000  0.174500  1
  O  O3084  1  0.562000  0.390000  0.924500  1
  O  O3085  1  0.749000  0.464600  0.965700  1
  O  O3086  1  0.285400  0.999000  0.215700  1
  O  O3087  1  0.249000  0.964600  0.465700  1
  O  O3088  1  0.785400  0.499000  0.715700  1
  O  O3089  1  0.714600  0.501000  0.215700  1
  O  O3090  1  0.751000  0.535400  0.465700  1
  O  O3091  1  0.214600  0.001000  0.715700  1
  O  O3092  1  0.251000  0.035400  0.965700  1
  O  O3093  1  0.251000  0.535400  0.034300  1
  O  O3094  1  0.714600  0.001000  0.784300  1
  O  O3095  1  0.751000  0.035400  0.534300  1
  O  O3096  1  0.214600  0.501000  0.284300  1
  O  O3097  1  0.285400  0.499000  0.784300  1
  O  O3098  1  0.249000  0.464600  0.534300  1
  O  O3099  1  0.785400  0.999000  0.284300  1
  O  O3100  1  0.749000  0.964600  0.034300  1
  O  O3101  1  0.787300  0.456800  0.947000  1
  O  O3102  1  0.293200  0.037300  0.197000  1
  O  O3103  1  0.287300  0.956800  0.447000  1
  O  O3104  1  0.793200  0.537300  0.697000  1
  O  O3105  1  0.706800  0.462700  0.197000  1
  O  O3106  1  0.712700  0.543200  0.447000  1
  O  O3107  1  0.206800  0.962700  0.697000  1
  O  O3108  1  0.212700  0.043200  0.947000  1
  O  O3109  1  0.212700  0.543200  0.053000  1
  O  O3110  1  0.706800  0.962700  0.803000  1
  O  O3111  1  0.712700  0.043200  0.553000  1
  O  O3112  1  0.206800  0.462700  0.303000  1
  O  O3113  1  0.293200  0.537300  0.803000  1
  O  O3114  1  0.287300  0.456800  0.553000  1
  O  O3115  1  0.793200  0.037300  0.303000  1
  O  O3116  1  0.787300  0.956800  0.053000  1
  O  O3117  1  0.686000  0.405000  0.000000  1
  O  O3118  1  0.345000  0.936000  0.250000  1
  O  O3119  1  0.186000  0.905000  0.500000  1
  O  O3120  1  0.845000  0.436000  0.750000  1
  O  O3121  1  0.655000  0.564000  0.250000  1
  O  O3122  1  0.814000  0.595000  0.500000  1
  O  O3123  1  0.155000  0.064000  0.750000  1
  O  O3124  1  0.314000  0.095000  0.000000  1
  O  O3125  1  0.314000  0.595000  0.000000  1
  O  O3126  1  0.655000  0.064000  0.750000  1
  O  O3127  1  0.814000  0.095000  0.500000  1
  O  O3128  1  0.155000  0.564000  0.250000  1
  O  O3129  1  0.345000  0.436000  0.750000  1
  O  O3130  1  0.186000  0.405000  0.500000  1
  O  O3131  1  0.845000  0.936000  0.250000  1
  O  O3132  1  0.686000  0.905000  0.000000  1
  O  O3133  1  0.856700  0.393000  0.864700  1
  O  O3134  1  0.357000  0.106700  0.114700  1
  O  O3135  1  0.356700  0.893000  0.364700  1
  O  O3136  1  0.857000  0.606700  0.614700  1
  O  O3137  1  0.643000  0.393300  0.114700  1
  O  O3138  1  0.643300  0.607000  0.364700  1
  O  O3139  1  0.143000  0.893300  0.614700  1
  O  O3140  1  0.143300  0.107000  0.864700  1
  O  O3141  1  0.143300  0.607000  0.135300  1
  O  O3142  1  0.643000  0.893300  0.885300  1
  O  O3143  1  0.643300  0.107000  0.635300  1
  O  O3144  1  0.143000  0.393300  0.385300  1
  O  O3145  1  0.357000  0.606700  0.885300  1
  O  O3146  1  0.356700  0.393000  0.635300  1
  O  O3147  1  0.857000  0.106700  0.385300  1
  O  O3148  1  0.856700  0.893000  0.135300  1
  O  O3149  1  0.329100  0.858100  0.780300  1
  O  O3150  1  0.891900  0.579100  0.030300  1
  O  O3151  1  0.829100  0.358100  0.280300  1
  O  O3152  1  0.391900  0.079100  0.530300  1
  O  O3153  1  0.108100  0.920900  0.030300  1
  O  O3154  1  0.170900  0.141900  0.280300  1
  O  O3155  1  0.608100  0.420900  0.530300  1
  O  O3156  1  0.670900  0.641900  0.780300  1
  O  O3157  1  0.670900  0.141900  0.219700  1
  O  O3158  1  0.108100  0.420900  0.969700  1
  O  O3159  1  0.170900  0.641900  0.719700  1
  O  O3160  1  0.608100  0.920900  0.469700  1
  O  O3161  1  0.891900  0.079100  0.969700  1
  O  O3162  1  0.829100  0.858100  0.719700  1
  O  O3163  1  0.391900  0.579100  0.469700  1
  O  O3164  1  0.329100  0.358100  0.219700  1
  O  O3165  1  0.920300  0.764300  0.923100  1.0
  O  O3166  1  0.985700  0.170300  0.173100  1.0
  O  O3167  1  0.420300  0.264300  0.423100  1.0
  O  O3168  1  0.485700  0.670300  0.673100  1.0
  O  O3169  1  0.014300  0.329700  0.173100  1.0
  O  O3170  1  0.579700  0.235700  0.423100  1.0
  O  O3171  1  0.514300  0.829700  0.673100  1.0
  O  O3172  1  0.079700  0.735700  0.923100  1.0
  O  O3173  1  0.079700  0.235700  0.076900  1.0
  O  O3174  1  0.014300  0.829700  0.826900  1.0
  O  O3175  1  0.579700  0.735700  0.576900  1.0
  O  O3176  1  0.514300  0.329700  0.326900  1.0
  O  O3177  1  0.985700  0.670300  0.826900  1.0
  O  O3178  1  0.420300  0.764300  0.576900  1.0
  O  O3179  1  0.485700  0.170300  0.326900  1.0
  O  O3180  1  0.920300  0.264300  0.076900  1.0
  O  O3181  1  0.976400  0.622800  0.862200  1.0
  O  O3182  1  0.127200  0.226400  0.112200  1.0
  O  O3183  1  0.476400  0.122800  0.362200  1.0
  O  O3184  1  0.627200  0.726400  0.612200  1.0
  O  O3185  1  0.872800  0.273600  0.112200  1.0
  O  O3186  1  0.523600  0.377200  0.362200  1.0
  O  O3187  1  0.372800  0.773600  0.612200  1.0
  O  O3188  1  0.023600  0.877200  0.862200  1.0
  O  O3189  1  0.023600  0.377200  0.137800  1.0
  O  O3190  1  0.872800  0.773600  0.887800  1.0
  O  O3191  1  0.523600  0.877200  0.637800  1.0
  O  O3192  1  0.372800  0.273600  0.387800  1.0
  O  O3193  1  0.127200  0.726400  0.887800  1.0
  O  O3194  1  0.476400  0.622800  0.637800  1.0
  O  O3195  1  0.627200  0.226400  0.387800  1.0
  O  O3196  1  0.976400  0.122800  0.137800  1.0
