
#######################################################################
#
#                 Cambridge Crystallographic Data Centre
#                                CCDC 
#
#######################################################################
#
# If this CIF has been generated from an entry in the Cambridge 
# Structural Database, then it will include bibliographic, chemical, 
# crystal, experimental, refinement or atomic coordinate data resulting 
# from the CCDC's data processing and validation procedures.
#
#######################################################################

data_OGUBAU
_chemical_formula_moiety         
'C100 H152 N4 P8 Pt4 4+,4(N1 O3 1-),10(C1 H2 Cl2)'
_chemical_name_systematic        
"bis(\m~2~-Phenanthrene-3,6-diyl)-bis(\m~2~-1-(3-pyridyl)-2-(4-pyridyl)ethyne-N,N')-octakis(triethylphosphine)-tetra-platinum tetranitrate dichloromethane solvate"
_symmetry_cell_setting           triclinic
_symmetry_space_group_name_H-M   'P -1'
_symmetry_Int_Tables_number      2
_space_group_name_Hall           '-P 1'
loop_
_symmetry_equiv_pos_site_id
_symmetry_equiv_pos_as_xyz
1 x,y,z
2 -x,-y,-z
_cell_length_a                   10.74550(10)
_cell_length_b                   18.3338(2)
_cell_length_c                   19.2355(2)
_cell_angle_alpha                78.1129(7)
_cell_angle_beta                 86.5602(7)
_cell_angle_gamma                79.1068(6)
_cell_volume                     3640.55
_exptl_crystal_colour            yellow
_exptl_crystal_description       plate
_cell_formula_units_Z            1
loop_
_atom_site_label
_atom_site_type_symbol
_atom_site_fract_x
_atom_site_fract_y
_atom_site_fract_z
Pt1 Pt 0.29191(2) 0.444580(13) 0.762569(12)
Pt2 Pt 0.17626(2) 0.186125(13) 0.219154(12)
P1 P 0.13892(17) 0.37973(10) 0.82056(9)
P2 P 0.44814(19) 0.51121(11) 0.71324(10)
P3 P 0.02886(17) 0.12674(10) 0.29005(9)
P4 P 0.32328(17) 0.23364(10) 0.13999(9)
N3 N 0.2989(5) 0.3913(3) 0.6748(3)
N4 N 0.3025(5) 0.1565(3) 0.3055(3)
C3 C 0.2867(6) 0.4944(4) 0.8471(3)
C4 C 0.3631(6) 0.4597(4) 0.9072(3)
H5 H 0.4167 0.4121 0.9075
C5 C 0.3610(6) 0.4938(4) 0.9648(3)
H6 H 0.4109 0.4686 1.0048
C6 C 0.2859(6) 0.5654(3) 0.9652(3)
C7 C 0.2924(6) 0.6050(4) 1.0216(3)
H7 H 0.3469 0.5818 1.0602
C8 C 0.2225(6) 0.6746(4) 1.0209(3)
H8 H 0.2320 0.7004 1.0578
C9 C 0.1340(6) 0.7106(4) 0.9656(3)
C10 C 0.0574(6) 0.7812(4) 0.9652(3)
H9 H 0.0659 0.8077 1.0017
C11 C -0.0301(6) 0.8132(4) 0.9134(3)
H10 H -0.0798 0.8617 0.9144
C12 C -0.0477(6) 0.7756(4) 0.8586(3)
C13 C 0.0299(6) 0.7066(3) 0.8581(3)
H11 H 0.0206 0.6808 0.8212
C14 C 0.1224(5) 0.6725(3) 0.9095(3)
C15 C 0.2063(5) 0.5997(3) 0.9071(3)
C16 C 0.2098(6) 0.5632(3) 0.8495(3)
H12 H 0.1568 0.5870 0.8103
C17 C 0.3817(7) 0.3272(4) 0.6742(4)
H13 H 0.4347 0.3069 0.7140
C18 C 0.3943(7) 0.2890(4) 0.6189(4)
H14 H 0.4543 0.2435 0.6205
C19 C 0.3166(7) 0.3187(4) 0.5606(4)
C20 C 0.2297(7) 0.3847(4) 0.5611(4)
H15 H 0.1752 0.4063 0.5222
C21 C 0.2237(7) 0.4188(4) 0.6193(3)
H16 H 0.1632 0.4637 0.6198
C22 C 0.3290(7) 0.2779(4) 0.5038(4)
C23 C 0.3439(7) 0.2390(4) 0.4602(4)
C24 C 0.3629(6) 0.1881(4) 0.4120(3)
C25 C 0.4437(7) 0.1180(4) 0.4276(4)
H17 H 0.4914 0.1042 0.4698
C26 C 0.4538(7) 0.0686(4) 0.3810(4)
H18 H 0.5105 0.0214 0.3899
C27 C 0.3802(6) 0.0891(3) 0.3216(3)
H19 H 0.3844 0.0542 0.2908
C28 C 0.2956(6) 0.2060(4) 0.3487(3)
H20 H 0.2436 0.2546 0.3361
C29 C 0.0050(7) 0.4379(5) 0.8580(4)
H21 H -0.0081 0.4894 0.8278
H22 H -0.0719 0.4165 0.8547
C30 C 0.0155(8) 0.4455(5) 0.9337(4)
H23 H -0.0615 0.4775 0.9480
H24 H 0.0891 0.4687 0.9378
H25 H 0.0258 0.3953 0.9648
C31 C 0.2056(8) 0.3052(4) 0.8936(4)
H26 H 0.2375 0.3282 0.9297
H27 H 0.1384 0.2776 0.9165
C32 C 0.3119(10) 0.2503(5) 0.8685(5)
H28 H 0.3456 0.2111 0.9090
H29 H 0.3793 0.2774 0.8466
H30 H 0.2802 0.2267 0.8335
C33 C 0.0634(8) 0.3323(5) 0.7640(4)
H31 H 0.0085 0.3714 0.7302
H32 H 0.1303 0.3054 0.7359
C34 C -0.0166(9) 0.2753(5) 0.8042(5)
H33 H -0.0533 0.2527 0.7701
H34 H -0.0849 0.3014 0.8311
H35 H 0.0371 0.2354 0.8369
C35 C 0.5977(9) 0.4810(7) 0.7627(6)
H36 H 0.6629 0.5080 0.7361
H37 H 0.5838 0.4964 0.8093
C36 C 0.6468(11) 0.3977(9) 0.7745(8)
H38 H 0.7260 0.3858 0.8006
H39 H 0.6627 0.3820 0.7286
H40 H 0.5840 0.3705 0.8021
C37 C 0.4197(12) 0.6109(5) 0.7137(6)
H41 H 0.4023 0.6183 0.7632
H42 H 0.4970 0.6316 0.6962
C38 C 0.3126(14) 0.6531(7) 0.6695(8)
H43 H 0.3003 0.7069 0.6719
H44 H 0.2356 0.6332 0.6868
H45 H 0.3306 0.6475 0.6201
C39 C 0.4932(11) 0.5026(6) 0.6233(5)
H46 H 0.5350 0.4495 0.6242
H47 H 0.4146 0.5116 0.5961
C40 C 0.5781(17) 0.5525(9) 0.5828(6)
H48 H 0.5946 0.5412 0.5351
H49 H 0.6583 0.5434 0.6075
H50 H 0.5373 0.6056 0.5790
C41 C 0.0282(8) 0.1329(6) 0.3840(4)
H51 H -0.0253 0.0981 0.4114
H52 H 0.1156 0.1157 0.4017
C42 C -0.0204(10) 0.2119(7) 0.3975(6)
H53 H -0.0183 0.2113 0.4485
H54 H -0.1077 0.2291 0.3812
H55 H 0.0334 0.2466 0.3715
C43 C -0.1344(7) 0.1569(5) 0.2636(4)
H56 H -0.1578 0.2121 0.2620
H57 H -0.1401 0.1488 0.2147
C44 C -0.2329(8) 0.1180(6) 0.3105(5)
H58 H -0.3173 0.1383 0.2907
H59 H -0.2319 0.1277 0.3587
H60 H -0.2125 0.0633 0.3120
C45 C 0.0710(9) 0.0253(5) 0.2957(5)
H61 H 0.1521 0.0066 0.3208
H62 H 0.0053 0.0007 0.3246
C46 C 0.0845(12) 0.0016(6) 0.2254(6)
H63 H 0.1068 -0.0537 0.2327
H64 H 0.1513 0.0243 0.1969
H65 H 0.0041 0.0189 0.2004
C47 C 0.2805(8) 0.3329(4) 0.0968(4)
H66 H 0.3456 0.3454 0.0598
H67 H 0.1987 0.3405 0.0728
C48 C 0.2688(10) 0.3862(5) 0.1472(5)
H68 H 0.2461 0.4385 0.1209
H69 H 0.3499 0.3798 0.1705
H70 H 0.2028 0.3751 0.1831
C49 C 0.4775(7) 0.2258(5) 0.1778(4)
H71 H 0.4656 0.2523 0.2183
H72 H 0.5099 0.1715 0.1971
C50 C 0.5789(8) 0.2572(6) 0.1273(5)
H73 H 0.6575 0.2504 0.1530
H74 H 0.5495 0.3113 0.1086
H75 H 0.5945 0.2301 0.0878
C51 C 0.3551(8) 0.1843(5) 0.0660(4)
H76 H 0.2788 0.1963 0.0364
H77 H 0.4250 0.2032 0.0361
C52 C 0.3908(10) 0.0988(5) 0.0894(6)
H78 H 0.4060 0.0755 0.0475
H79 H 0.3214 0.0794 0.1185
H80 H 0.4678 0.0863 0.1175
Pt1A Pt -0.29191(2) 0.555420(13) 0.237431(12)
Pt2A Pt -0.17626(2) 0.813875(13) 0.780846(12)
P1A P -0.13892(17) 0.62027(10) 0.17944(9)
P2A P -0.44814(19) 0.48879(11) 0.28676(10)
P3A P -0.02886(17) 0.87326(10) 0.70995(9)
P4A P -0.32328(17) 0.76636(10) 0.86001(9)
N3A N -0.2989(5) 0.6087(3) 0.3252(3)
N4A N -0.3025(5) 0.8435(3) 0.6945(3)
C3A C -0.2867(6) 0.5056(4) 0.1529(3)
C4A C -0.3631(6) 0.5403(4) 0.0928(3)
H5A H -0.4167 0.5879 0.0925
C5A C -0.3610(6) 0.5062(4) 0.0352(3)
H6A H -0.4109 0.5314 -0.0048
C6A C -0.2859(6) 0.4346(3) 0.0348(3)
C7A C -0.2924(6) 0.3950(4) -0.0216(3)
H7A H -0.3469 0.4182 -0.0602
C8A C -0.2225(6) 0.3254(4) -0.0209(3)
H8A H -0.2320 0.2996 -0.0578
C9A C -0.1340(6) 0.2894(4) 0.0344(3)
C10A C -0.0574(6) 0.2188(4) 0.0348(3)
H9A H -0.0659 0.1923 -0.0017
C11A C 0.0301(6) 0.1868(4) 0.0866(3)
H10A H 0.0798 0.1383 0.0856
C12A C 0.0477(6) 0.2244(4) 0.1414(3)
C13A C -0.0299(6) 0.2934(3) 0.1419(3)
H11A H -0.0206 0.3192 0.1788
C14A C -0.1224(5) 0.3275(3) 0.0905(3)
C15A C -0.2063(5) 0.4003(3) 0.0929(3)
C16A C -0.2098(6) 0.4368(3) 0.1505(3)
H12A H -0.1568 0.4130 0.1897
C17A C -0.3817(7) 0.6728(4) 0.3258(4)
H13A H -0.4347 0.6931 0.2860
C18A C -0.3943(7) 0.7110(4) 0.3811(4)
H14A H -0.4543 0.7565 0.3795
C19A C -0.3166(7) 0.6813(4) 0.4394(4)
C20A C -0.2297(7) 0.6153(4) 0.4389(4)
H15A H -0.1752 0.5937 0.4778
C21A C -0.2237(7) 0.5812(4) 0.3807(3)
H16A H -0.1632 0.5363 0.3802
C22A C -0.3290(7) 0.7221(4) 0.4962(4)
C23A C -0.3439(7) 0.7610(4) 0.5398(4)
C24A C -0.3629(6) 0.8119(4) 0.5880(3)
C25A C -0.4437(7) 0.8820(4) 0.5724(4)
H17A H -0.4914 0.8958 0.5302
C26A C -0.4538(7) 0.9314(4) 0.6190(4)
H18A H -0.5105 0.9786 0.6101
C27A C -0.3802(6) 0.9109(3) 0.6784(3)
H19A H -0.3844 0.9458 0.7092
C28A C -0.2956(6) 0.7940(4) 0.6513(3)
H20A H -0.2436 0.7454 0.6639
C29A C -0.0050(7) 0.5621(5) 0.1420(4)
H21A H 0.0081 0.5106 0.1722
H22A H 0.0719 0.5835 0.1453
C30A C -0.0155(8) 0.5545(5) 0.0663(4)
H23A H 0.0615 0.5225 0.0520
H24A H -0.0891 0.5313 0.0622
H25A H -0.0258 0.6047 0.0352
C31A C -0.2056(8) 0.6948(4) 0.1064(4)
H26A H -0.2375 0.6718 0.0703
H27A H -0.1384 0.7224 0.0835
C32A C -0.3119(10) 0.7497(5) 0.1315(5)
H28A H -0.3456 0.7889 0.0910
H29A H -0.3793 0.7226 0.1534
H30A H -0.2802 0.7733 0.1665
C33A C -0.0634(8) 0.6677(5) 0.2360(4)
H31A H -0.0085 0.6286 0.2698
H32A H -0.1303 0.6946 0.2641
C34A C 0.0166(9) 0.7247(5) 0.1958(5)
H33A H 0.0533 0.7473 0.2299
H34A H 0.0849 0.6986 0.1689
H35A H -0.0371 0.7646 0.1631
C35A C -0.5977(9) 0.5190(7) 0.2373(6)
H36A H -0.6629 0.4920 0.2639
H37A H -0.5838 0.5036 0.1907
C36A C -0.6468(11) 0.6023(9) 0.2255(8)
H38A H -0.7260 0.6142 0.1994
H39A H -0.6627 0.6180 0.2714
H40A H -0.5840 0.6295 0.1979
C37A C -0.4197(12) 0.3891(5) 0.2863(6)
H41A H -0.4023 0.3817 0.2368
H42A H -0.4970 0.3684 0.3038
C38A C -0.3126(14) 0.3469(7) 0.3305(8)
H43A H -0.3003 0.2931 0.3281
H44A H -0.2356 0.3668 0.3132
H45A H -0.3306 0.3525 0.3799
C39A C -0.4932(11) 0.4974(6) 0.3767(5)
H46A H -0.5350 0.5505 0.3758
H47A H -0.4146 0.4884 0.4039
C40A C -0.5781(17) 0.4475(9) 0.4172(6)
H48A H -0.5946 0.4588 0.4649
H49A H -0.6583 0.4566 0.3925
H50A H -0.5373 0.3944 0.4210
C41A C -0.0282(8) 0.8671(6) 0.6160(4)
H51A H 0.0253 0.9019 0.5886
H52A H -0.1156 0.8843 0.5983
C42A C 0.0204(10) 0.7881(7) 0.6025(6)
H53A H 0.0183 0.7887 0.5515
H54A H 0.1077 0.7709 0.6188
H55A H -0.0334 0.7534 0.6285
C43A C 0.1344(7) 0.8431(5) 0.7364(4)
H56A H 0.1578 0.7879 0.7380
H57A H 0.1401 0.8512 0.7853
C44A C 0.2329(8) 0.8820(6) 0.6895(5)
H58A H 0.3173 0.8617 0.7093
H59A H 0.2319 0.8723 0.6413
H60A H 0.2125 0.9367 0.6880
C45A C -0.0710(9) 0.9747(5) 0.7043(5)
H61A H -0.1521 0.9934 0.6792
H62A H -0.0053 0.9993 0.6754
C46A C -0.0845(12) 0.9984(6) 0.7746(6)
H63A H -0.1068 1.0537 0.7673
H64A H -0.1513 0.9757 0.8031
H65A H -0.0041 0.9811 0.7996
C47A C -0.2805(8) 0.6671(4) 0.9032(4)
H66A H -0.3456 0.6546 0.9402
H67A H -0.1987 0.6595 0.9272
C48A C -0.2688(10) 0.6138(5) 0.8528(5)
H68A H -0.2461 0.5615 0.8791
H69A H -0.3499 0.6202 0.8295
H70A H -0.2028 0.6249 0.8169
C49A C -0.4775(7) 0.7742(5) 0.8222(4)
H71A H -0.4656 0.7477 0.7817
H72A H -0.5099 0.8285 0.8029
C50A C -0.5789(8) 0.7428(6) 0.8727(5)
H73A H -0.6575 0.7496 0.8470
H74A H -0.5495 0.6887 0.8914
H75A H -0.5945 0.7699 0.9122
C51A C -0.3551(8) 0.8157(5) 0.9340(4)
H76A H -0.2788 0.8037 0.9636
H77A H -0.4250 0.7968 0.9639
C52A C -0.3908(10) 0.9012(5) 0.9106(6)
H78A H -0.4060 0.9245 0.9525
H79A H -0.3214 0.9206 0.8815
H80A H -0.4678 0.9137 0.8825
Cl1 Cl 0.7804(3) 0.05886(16) 0.52482(13)
Cl2 Cl 0.6704(3) 0.21660(18) 0.50963(19)
C1 C 0.7521(10) 0.1375(6) 0.5666(5)
H1 H 0.7015 0.1260 0.6110
H2 H 0.8338 0.1483 0.5793
Cl3 Cl 0.0682(6) 0.7013(3) 0.3978(3)
Cl4 Cl 0.2779(6) 0.5986(4) 0.4754(4)
C2 C 0.1190(18) 0.6118(12) 0.4530(16)
H3 H 0.0658 0.6073 0.4970
H4 H 0.1072 0.5715 0.4281
Cl5 Cl 0.2473(4) -0.0521(2) 0.8683(3)
Cl6 Cl 0.1602(6) 0.0770(3) 0.9328(3)
C53 C 0.2700(16) 0.0337(7) 0.8810(9)
H81 H 0.3540 0.0268 0.9024
H82 H 0.2725 0.0678 0.8340
Cl7 Cl 0.1043(5) 0.1350(3) 0.6986(3)
Cl8 Cl 0.1812(4) 0.0840(2) 0.56661(16)
C54 C 0.2006(12) 0.1399(8) 0.6250(6)
H83 H 0.2896 0.1262 0.6406
H84 H 0.1876 0.1933 0.5990
Cl9 Cl 0.6493(7) 0.1449(6) 0.9439(4)
Cl10 Cl 0.6895(6) 0.1978(3) 0.7941(7)
C55 C 0.657(2) 0.1243(11) 0.8648(10)
H85 H 0.5750 0.1108 0.8559
H86 H 0.7234 0.0789 0.8645
N1 N 0.4968(13) 0.0955(5) 0.7240(5)
O1 O 0.4101(12) 0.1385(6) 0.7490(5)
O2 O 0.5461(15) 0.0439(6) 0.7685(6)
O3 O 0.5056(7) 0.0980(4) 0.6610(4)
N2 N 0.0824(10) 0.4320(7) 0.3359(8)
O4 O 0.1766(12) 0.3899(5) 0.3230(6)
O5 O -0.0111(16) 0.4172(12) 0.3141(10)
O6 O 0.0821(16) 0.4842(12) 0.3589(19)
C56? C 0.119(4) 0.608(2) 0.4216(12)
Cl11? Cl 0.0917(7) 0.6053(4) 0.5140(4)
Cl12? Cl 0.2140(14) 0.6749(8) 0.3828(7)
H87? H 0.1609 0.5575 0.4143
H88? H 0.0366 0.6213 0.3976
loop_
_geom_bond_atom_site_label_1
_geom_bond_atom_site_label_2
_geom_bond_site_symmetry_1
_geom_bond_site_symmetry_2
Pt1 P1 1_555 1_555
Pt2 P3 1_555 1_555
Cl1 C1 1_555 1_555
Cl2 C1 1_555 1_555
C1 H1 1_555 1_555
H2 C1 1_555 1_555
Cl3 C2 1_555 1_555
Cl4 C2 1_555 1_555
C2 H3 1_555 1_555
H4 C2 1_555 1_555
Cl5 C53 1_555 1_555
Cl6 C53 1_555 1_555
Cl7 C54 1_555 1_555
Cl8 C54 1_555 1_555
Cl9 C55 1_555 1_555
Cl10 C55 1_555 1_555
P1 C29 1_555 1_555
P2 Pt1 1_555 1_555
P3 C41 1_555 1_555
P4 Pt2 1_555 1_555
N1 O1 1_555 1_555
O2 N1 1_555 1_555
O3 N1 1_555 1_555
N2 O4 1_555 1_555
O5 N2 1_555 1_555
O6 N2 1_555 1_555
N3 Pt1 1_555 1_555
N4 Pt2 1_555 1_555
C3 Pt1 1_555 1_555
C4 C3 1_555 1_555
H5 C4 1_555 1_555
C5 C4 1_555 1_555
H6 C5 1_555 1_555
C6 C5 1_555 1_555
C7 C6 1_555 1_555
H7 C7 1_555 1_555
C8 C7 1_555 1_555
H8 C8 1_555 1_555
C9 C8 1_555 1_555
C10 C9 1_555 1_555
H9 C10 1_555 1_555
C11 C10 1_555 1_555
H10 C11 1_555 1_555
C12 C11 1_555 1_555
C13 C12 1_555 1_555
H11 C13 1_555 1_555
C14 C9 1_555 1_555
C15 C6 1_555 1_555
C16 C3 1_555 1_555
H12 C16 1_555 1_555
C17 N3 1_555 1_555
H13 C17 1_555 1_555
C18 C17 1_555 1_555
H14 C18 1_555 1_555
C19 C18 1_555 1_555
C20 C19 1_555 1_555
H15 C20 1_555 1_555
C21 N3 1_555 1_555
H16 C21 1_555 1_555
C22 C19 1_555 1_555
C23 C22 1_555 1_555
C24 C23 1_555 1_555
C25 C24 1_555 1_555
H17 C25 1_555 1_555
C26 C25 1_555 1_555
H18 C26 1_555 1_555
C27 N4 1_555 1_555
H19 C27 1_555 1_555
C28 N4 1_555 1_555
H20 C28 1_555 1_555
C29 H21 1_555 1_555
H22 C29 1_555 1_555
C30 C29 1_555 1_555
H23 C30 1_555 1_555
H24 C30 1_555 1_555
H25 C30 1_555 1_555
C31 P1 1_555 1_555
H26 C31 1_555 1_555
H27 C31 1_555 1_555
C32 C31 1_555 1_555
H28 C32 1_555 1_555
H29 C32 1_555 1_555
H30 C32 1_555 1_555
C33 P1 1_555 1_555
H31 C33 1_555 1_555
H32 C33 1_555 1_555
C34 C33 1_555 1_555
H33 C34 1_555 1_555
H34 C34 1_555 1_555
H35 C34 1_555 1_555
C35 P2 1_555 1_555
H36 C35 1_555 1_555
H37 C35 1_555 1_555
C36 C35 1_555 1_555
H38 C36 1_555 1_555
H39 C36 1_555 1_555
H40 C36 1_555 1_555
C37 P2 1_555 1_555
H41 C37 1_555 1_555
H42 C37 1_555 1_555
C38 C37 1_555 1_555
H43 C38 1_555 1_555
H44 C38 1_555 1_555
H45 C38 1_555 1_555
C39 P2 1_555 1_555
H46 C39 1_555 1_555
H47 C39 1_555 1_555
C40 C39 1_555 1_555
H48 C40 1_555 1_555
H49 C40 1_555 1_555
H50 C40 1_555 1_555
C41 H51 1_555 1_555
H52 C41 1_555 1_555
C42 C41 1_555 1_555
H53 C42 1_555 1_555
H54 C42 1_555 1_555
H55 C42 1_555 1_555
C43 P3 1_555 1_555
H56 C43 1_555 1_555
H57 C43 1_555 1_555
C44 C43 1_555 1_555
H58 C44 1_555 1_555
H59 C44 1_555 1_555
H60 C44 1_555 1_555
C45 P3 1_555 1_555
H61 C45 1_555 1_555
H62 C45 1_555 1_555
C46 C45 1_555 1_555
H63 C46 1_555 1_555
H64 C46 1_555 1_555
H65 C46 1_555 1_555
C47 P4 1_555 1_555
H66 C47 1_555 1_555
H67 C47 1_555 1_555
C48 C47 1_555 1_555
H68 C48 1_555 1_555
H69 C48 1_555 1_555
H70 C48 1_555 1_555
C49 P4 1_555 1_555
H71 C49 1_555 1_555
H72 C49 1_555 1_555
C50 C49 1_555 1_555
H73 C50 1_555 1_555
H74 C50 1_555 1_555
H75 C50 1_555 1_555
C51 P4 1_555 1_555
H76 C51 1_555 1_555
H77 C51 1_555 1_555
C52 C51 1_555 1_555
H78 C52 1_555 1_555
H79 C52 1_555 1_555
H80 C52 1_555 1_555
C53 H81 1_555 1_555
H82 C53 1_555 1_555
C54 H83 1_555 1_555
H84 C54 1_555 1_555
C55 H85 1_555 1_555
H86 C55 1_555 1_555
Pt1A P1A 1_555 1_555
Pt2A C12 1_555 1_555
P1A C29A 1_555 1_555
P2A Pt1A 1_555 1_555
P3A Pt2A 1_555 1_555
P4A Pt2A 1_555 1_555
N3A Pt1A 1_555 1_555
N4A Pt2A 1_555 1_555
C3A Pt1A 1_555 1_555
C4A C3A 1_555 1_555
H5A C4A 1_555 1_555
C5A C4A 1_555 1_555
H6A C5A 1_555 1_555
C6A C5A 1_555 1_555
C7A C6A 1_555 1_555
H7A C7A 1_555 1_555
C8A C7A 1_555 1_555
H8A C8A 1_555 1_555
C9A C8A 1_555 1_555
C10A C9A 1_555 1_555
H9A C10A 1_555 1_555
C11A C10A 1_555 1_555
H10A C11A 1_555 1_555
C12A Pt2 1_555 1_555
C13A C12A 1_555 1_555
H11A C13A 1_555 1_555
C14A C9A 1_555 1_555
C15A C6A 1_555 1_555
C16A C3A 1_555 1_555
H12A C16A 1_555 1_555
C17A N3A 1_555 1_555
H13A C17A 1_555 1_555
C18A C17A 1_555 1_555
H14A C18A 1_555 1_555
C19A C18A 1_555 1_555
C20A C19A 1_555 1_555
H15A C20A 1_555 1_555
C21A N3A 1_555 1_555
H16A C21A 1_555 1_555
C22A C19A 1_555 1_555
C23A C22A 1_555 1_555
C24A C23A 1_555 1_555
C25A C24A 1_555 1_555
H17A C25A 1_555 1_555
C26A C25A 1_555 1_555
H18A C26A 1_555 1_555
C27A N4A 1_555 1_555
H19A C27A 1_555 1_555
C28A N4A 1_555 1_555
H20A C28A 1_555 1_555
C29A H21A 1_555 1_555
H22A C29A 1_555 1_555
C30A C29A 1_555 1_555
H23A C30A 1_555 1_555
H24A C30A 1_555 1_555
H25A C30A 1_555 1_555
C31A P1A 1_555 1_555
H26A C31A 1_555 1_555
H27A C31A 1_555 1_555
C32A C31A 1_555 1_555
H28A C32A 1_555 1_555
H29A C32A 1_555 1_555
H30A C32A 1_555 1_555
C33A P1A 1_555 1_555
H31A C33A 1_555 1_555
H32A C33A 1_555 1_555
C34A C33A 1_555 1_555
H33A C34A 1_555 1_555
H34A C34A 1_555 1_555
H35A C34A 1_555 1_555
C35A P2A 1_555 1_555
H36A C35A 1_555 1_555
H37A C35A 1_555 1_555
C36A C35A 1_555 1_555
H38A C36A 1_555 1_555
H39A C36A 1_555 1_555
H40A C36A 1_555 1_555
C37A P2A 1_555 1_555
H41A C37A 1_555 1_555
H42A C37A 1_555 1_555
C38A C37A 1_555 1_555
H43A C38A 1_555 1_555
H44A C38A 1_555 1_555
H45A C38A 1_555 1_555
C39A P2A 1_555 1_555
H46A C39A 1_555 1_555
H47A C39A 1_555 1_555
C40A C39A 1_555 1_555
H48A C40A 1_555 1_555
H49A C40A 1_555 1_555
H50A C40A 1_555 1_555
C41A P3A 1_555 1_555
H51A C41A 1_555 1_555
H52A C41A 1_555 1_555
C42A C41A 1_555 1_555
H53A C42A 1_555 1_555
H54A C42A 1_555 1_555
H55A C42A 1_555 1_555
C43A P3A 1_555 1_555
H56A C43A 1_555 1_555
H57A C43A 1_555 1_555
C44A C43A 1_555 1_555
H58A C44A 1_555 1_555
H59A C44A 1_555 1_555
H60A C44A 1_555 1_555
C45A P3A 1_555 1_555
H61A C45A 1_555 1_555
H62A C45A 1_555 1_555
C46A C45A 1_555 1_555
H63A C46A 1_555 1_555
H64A C46A 1_555 1_555
H65A C46A 1_555 1_555
C47A P4A 1_555 1_555
H66A C47A 1_555 1_555
H67A C47A 1_555 1_555
C48A C47A 1_555 1_555
H68A C48A 1_555 1_555
H69A C48A 1_555 1_555
H70A C48A 1_555 1_555
C49A P4A 1_555 1_555
H71A C49A 1_555 1_555
H72A C49A 1_555 1_555
C50A C49A 1_555 1_555
H73A C50A 1_555 1_555
H74A C50A 1_555 1_555
H75A C50A 1_555 1_555
C51A P4A 1_555 1_555
H76A C51A 1_555 1_555
H77A C51A 1_555 1_555
C52A C51A 1_555 1_555
H78A C52A 1_555 1_555
H79A C52A 1_555 1_555
H80A C52A 1_555 1_555
C13 C14 1_555 1_555
C14 C15 1_555 1_555
C15 C16 1_555 1_555
C20 C21 1_555 1_555
C24 C28 1_555 1_555
C26 C27 1_555 1_555
C11A C12A 1_555 1_555
C13A C14A 1_555 1_555
C14A C15A 1_555 1_555
C15A C16A 1_555 1_555
C20A C21A 1_555 1_555
C24A C28A 1_555 1_555
C26A C27A 1_555 1_555

#END
