
#######################################################################
#
#                 Cambridge Crystallographic Data Centre
#                                CCDC 
#
#######################################################################
#
# If this CIF has been generated from an entry in the Cambridge 
# Structural Database, then it will include bibliographic, chemical, 
# crystal, experimental, refinement or atomic coordinate data resulting 
# from the CCDC's data processing and validation procedures.
#
#######################################################################

data_OGUHOO
_chemical_formula_moiety         
'C64 H44 N8 Pt2 4+,4(F6 P1 1-),9(C2 H6 O1 S1),2(C6 H6),C6 H6 O2'
_chemical_name_systematic        
"bis(\m~2~-4'-(4'-(4-Pyridyl)(1,1'-biphenyl)-3-yl)-2,2':6',2''-terpyridine-N,N',N'',N''')-di-platinum(ii) tetrakis(hexafluorophosphate) benzene-1,4-diol clathrate benzene dimethylsulfoxide solvate"
_symmetry_cell_setting           triclinic
_symmetry_space_group_name_H-M   'P -1'
_symmetry_Int_Tables_number      2
_space_group_name_Hall           '-P 1'
loop_
_symmetry_equiv_pos_site_id
_symmetry_equiv_pos_as_xyz
1 x,y,z
2 -x,-y,-z
_cell_length_a                   10.4656(4)
_cell_length_b                   17.5215(7)
_cell_length_c                   18.4321(8)
_cell_angle_alpha                116.3134(12)
_cell_angle_beta                 94.0280(14)
_cell_angle_gamma                99.9312(11)
_cell_volume                     2942.85
_exptl_crystal_colour            red
_exptl_crystal_description       prismatic
_cell_formula_units_Z            1
loop_
_atom_site_label
_atom_site_type_symbol
_atom_site_fract_x
_atom_site_fract_y
_atom_site_fract_z
Pt1 Pt 0.86726(2) 0.559253(15) 0.403655(16)
N1 N 0.8530(5) 0.6176(3) 0.5242(4)
C1 C 0.8337(6) 0.5595(4) 0.5564(5)
C2 C 0.8253(7) 0.5877(5) 0.6377(5)
H1 H 0.8124 0.5471 0.6590
C3 C 0.8358(8) 0.6765(5) 0.6892(5)
H2 H 0.8300 0.6972 0.7458
C4 C 0.8550(8) 0.7340(5) 0.6558(5)
H3 H 0.8628 0.7947 0.6896
C5 C 0.8627(7) 0.7030(4) 0.5739(5)
H4 H 0.8753 0.7430 0.5518
N2 N 0.8413(5) 0.4573(4) 0.4214(3)
C6 C 0.8229(6) 0.4665(4) 0.4960(4)
C7 C 0.7961(6) 0.3945(4) 0.5081(5)
H5 H 0.7819 0.4008 0.5606
C8 C 0.7893(6) 0.3113(4) 0.4436(5)
C9 C 0.8101(7) 0.3041(5) 0.3662(5)
H6 H 0.8061 0.2485 0.3212
C10 C 0.8364(6) 0.3785(4) 0.3567(4)
N3 N 0.8746(6) 0.4682(4) 0.2906(4)
C11 C 0.8564(7) 0.3853(5) 0.2817(5)
C12 C 0.8584(9) 0.3156(5) 0.2066(6)
H7 H 0.8448 0.2583 0.2014
C13 C 0.8795(11) 0.3279(6) 0.1402(5)
H8 H 0.8798 0.2799 0.0887
C14 C 0.9004(11) 0.4122(7) 0.1497(6)
H9 H 0.9168 0.4228 0.1046
C15 C 0.8976(9) 0.4805(6) 0.2243(5)
H10 H 0.9122 0.5380 0.2299
C16 C 0.7556(7) 0.2326(4) 0.4561(4)
C17 C 0.6649(7) 0.2286(4) 0.5071(5)
H11 H 0.6250 0.2765 0.5331
C18 C 0.6312(7) 0.1561(5) 0.5211(5)
C19 C 0.6932(8) 0.0864(5) 0.4832(5)
H12 H 0.6731 0.0367 0.4924
C20 C 0.7840(8) 0.0901(5) 0.4324(6)
H13 H 0.8259 0.0429 0.4077
C21 C 0.8148(7) 0.1622(5) 0.4170(5)
H14 H 0.8746 0.1633 0.3808
C22 C 0.5323(7) 0.1524(4) 0.5733(5)
C23 C 0.4213(7) 0.1874(5) 0.5719(5)
H15 H 0.4094 0.2128 0.5365
C24 C 0.3278(7) 0.1850(5) 0.6225(5)
C25 C 0.3468(8) 0.1486(5) 0.6750(5)
H16 H 0.2847 0.1473 0.7098
C26 C 0.4570(8) 0.1142(5) 0.6764(6)
H17 H 0.4693 0.0892 0.7121
C27 C 0.5491(7) 0.1160(5) 0.6260(5)
H18 H 0.6238 0.0923 0.6275
C28 C 0.2096(7) 0.2203(5) 0.6201(5)
C29 C 0.2173(7) 0.2956(5) 0.6120(5)
H19 H 0.2992 0.3226 0.6052
N4 N 0.1122(6) 0.3331(4) 0.6133(3)
C30 C -0.0038(7) 0.2954(5) 0.6249(5)
H20 H -0.0765 0.3221 0.6287
C31 C -0.0181(7) 0.2184(5) 0.6313(5)
H21 H -0.1007 0.1921 0.6379
C32 C 0.0876(8) 0.1801(5) 0.6281(5)
H22 H 0.0775 0.1268 0.6313
Pt1A Pt 0.13274(2) 0.440747(15) 0.596345(16)
N1A N 0.1470(5) 0.3824(3) 0.4758(4)
C1A C 0.1663(6) 0.4405(4) 0.4436(5)
C2A C 0.1747(7) 0.4123(5) 0.3623(5)
H1A H 0.1876 0.4529 0.3410
C3A C 0.1642(8) 0.3235(5) 0.3108(5)
H2A H 0.1700 0.3028 0.2542
C4A C 0.1450(8) 0.2660(5) 0.3442(5)
H3A H 0.1372 0.2053 0.3104
C5A C 0.1373(7) 0.2970(4) 0.4261(5)
H4A H 0.1247 0.2570 0.4482
N2A N 0.1587(5) 0.5427(4) 0.5786(3)
C6A C 0.1771(6) 0.5335(4) 0.5040(4)
C7A C 0.2039(6) 0.6055(4) 0.4919(5)
H5A H 0.2181 0.5992 0.4394
C8A C 0.2107(6) 0.6887(4) 0.5564(5)
C9A C 0.1899(7) 0.6959(5) 0.6338(5)
H6A H 0.1939 0.7515 0.6788
C10A C 0.1636(6) 0.6215(4) 0.6433(4)
N3A N 0.1254(6) 0.5318(4) 0.7094(4)
C11A C 0.1436(7) 0.6147(5) 0.7183(5)
C12A C 0.1416(9) 0.6844(5) 0.7934(6)
H7A H 0.1552 0.7417 0.7986
C13A C 0.1205(11) 0.6721(6) 0.8598(5)
H8A H 0.1202 0.7201 0.9113
C14A C 0.0996(11) 0.5878(7) 0.8503(6)
H9A H 0.0832 0.5772 0.8954
C15A C 0.1024(9) 0.5195(6) 0.7757(5)
H10A H 0.0878 0.4620 0.7701
C16A C 0.2444(7) 0.7674(4) 0.5439(4)
C17A C 0.3351(7) 0.7714(4) 0.4929(5)
H11A H 0.3750 0.7235 0.4669
C18A C 0.3688(7) 0.8439(5) 0.4789(5)
C19A C 0.3068(8) 0.9136(5) 0.5168(5)
H12A H 0.3269 0.9633 0.5076
C20A C 0.2160(8) 0.9099(5) 0.5676(6)
H13A H 0.1741 0.9571 0.5923
C21A C 0.1852(7) 0.8378(5) 0.5830(5)
H14A H 0.1254 0.8367 0.6192
C22A C 0.4677(7) 0.8476(4) 0.4267(5)
C23A C 0.5787(7) 0.8126(5) 0.4281(5)
H15A H 0.5906 0.7872 0.4635
C24A C 0.6722(7) 0.8150(5) 0.3775(5)
C25A C 0.6532(8) 0.8514(5) 0.3250(5)
H16A H 0.7153 0.8527 0.2902
C26A C 0.5430(8) 0.8858(5) 0.3236(6)
H17A H 0.5307 0.9108 0.2879
C27A C 0.4509(7) 0.8840(5) 0.3740(5)
H18A H 0.3762 0.9077 0.3725
C28A C 0.7904(7) 0.7797(5) 0.3799(5)
C29A C 0.7827(7) 0.7044(5) 0.3880(5)
H19A H 0.7008 0.6774 0.3948
N4A N 0.8878(6) 0.6669(4) 0.3867(3)
C30A C 1.0038(7) 0.7046(5) 0.3751(5)
H20A H 1.0765 0.6779 0.3713
C31A C 1.0181(7) 0.7816(5) 0.3687(5)
H21A H 1.1007 0.8079 0.3621
C32A C 0.9124(8) 0.8199(5) 0.3719(5)
H22A H 0.9225 0.8732 0.3687
O1 O 0.4501(10) 0.3310(6) 0.4759(7)
H23 H 0.4614 0.2975 0.4285
C33 C 0.4778(8) 0.4160(7) 0.4879(9)
C34 C 0.5009(9) 0.4348(9) 0.4233(11)
H24 H 0.5020 0.3890 0.3705
C35 C 0.5223(10) 0.5203(8) 0.4363(10)
H25 H 0.5368 0.5339 0.3926
O1A O 0.5499(10) 0.6690(6) 0.5241(7)
H23A H 0.5386 0.7025 0.5715
C33A C 0.5222(8) 0.5840(7) 0.5121(9)
C34A C 0.4991(9) 0.5652(9) 0.5767(11)
H24A H 0.4980 0.6110 0.6295
C35A C 0.4777(10) 0.4797(8) 0.5637(10)
H25A H 0.4632 0.4661 0.6074
P1 P 0.1489(2) 0.01916(15) 0.35535(16)
F1 F 0.3030(7) 0.0525(5) 0.3847(5)
F2 F 0.1279(9) 0.1139(4) 0.4092(5)
F3 F 0.1594(7) 0.0377(5) 0.2798(4)
F4 F -0.0060(6) -0.0186(5) 0.3267(5)
F5 F 0.1660(7) -0.0780(4) 0.3038(5)
F6 F 0.1383(7) 0.0013(4) 0.4319(4)
P2 P 0.8134(6) 0.7742(4) 0.9445(4)
F7 F 0.7022(12) 0.7214(6) 0.8667(4)
F8 F 0.8561(13) 0.6859(6) 0.9283(9)
F9 F 0.7179(9) 0.7605(6) 1.0017(5)
F10 F 0.7728(8) 0.8626(4) 0.9607(5)
F11 F 0.9130(12) 0.7885(8) 0.8877(8)
F12 F 0.9298(8) 0.8265(7) 1.0207(7)
S1 S 0.4183(3) 0.1545(3) 0.2573(2)
C36 C 0.4962(12) 0.0787(8) 0.2668(8)
H26 H 0.4699 0.0694 0.3128
H27 H 0.5917 0.1007 0.2769
H28 H 0.4708 0.0232 0.2160
C37 C 0.4934(12) 0.1447(7) 0.1793(9)
H29 H 0.4678 0.1830 0.1578
H30 H 0.4684 0.0839 0.1361
H31 H 0.5888 0.1615 0.1975
O2 O 0.4910(12) 0.2419(6) 0.3257(8)
S2 S 0.6902(8) 0.4287(5) 0.7415(5)
C38 C 0.755(2) 0.5135(13) 0.8425(10)
H32 H 0.7519 0.5701 0.8451
H33 H 0.8470 0.5127 0.8568
H34 H 0.7035 0.5044 0.8814
C39 C 0.721(4) 0.3499(17) 0.769(2)
H35 H 0.6913 0.2918 0.7219
H36 H 0.6726 0.3525 0.8138
H37 H 0.8151 0.3611 0.7880
O3 O 0.8117(13) 0.4360(9) 0.6997(7)
S3 S 0.8091(3) 0.04066(17) 0.13808(16)
C40 C 0.9706(11) 0.0346(8) 0.1182(8)
H38 H 1.0018 0.0749 0.0963
H39 H 0.9709 -0.0252 0.0781
H40 H 1.0287 0.0507 0.1693
C41 C 0.7906(11) -0.0335(6) 0.1770(6)
H41 H 0.7035 -0.0394 0.1928
H42 H 0.8585 -0.0126 0.2251
H43 H 0.7994 -0.0904 0.1349
O4 O 0.8183(9) 0.1279(4) 0.2095(5)
S4 S 0.1187(8) 0.3732(5) 0.9166(5)
C42 C 0.227(4) 0.312(3) 0.862(3)
H44 H 0.3072 0.3521 0.8643
H45 H 0.1852 0.2744 0.8053
H46 H 0.2503 0.2764 0.8875
C43 C 0.000(3) 0.284(2) 0.897(3)
H47 H -0.0752 0.3025 0.9226
H48 H 0.0356 0.2491 0.9197
H49 H -0.0274 0.2484 0.8376
O5 O 0.069(2) 0.4125(15) 0.8655(14)
S5 S 0.490(2) 0.5904(15) 0.9603(13)
C44 C 0.451(7) 0.4775(18) 0.893(3)
H50 H 0.5205 0.4626 0.8600
H51 H 0.3670 0.4616 0.8574
H52 H 0.4442 0.4452 0.9254
C45 C 0.355(3) 0.589(3) 1.004(2)
H53 H 0.3525 0.6485 1.0437
H54 H 0.3565 0.5532 1.0330
H55 H 0.2759 0.5635 0.9620
O6 O 0.461(4) 0.630(2) 0.903(2)
C46 C 0.5680(14) 0.1683(11) 0.9076(9)
H56 H 0.5059 0.1945 0.8924
C47 C 0.5462(14) 0.1367(10) 0.9659(9)
H57 H 0.4668 0.1392 0.9880
C48 C 0.6356(14) 0.1040(10) 0.9892(9)
H58 H 0.6234 0.0881 1.0317
C49 C 0.7464(13) 0.0925(10) 0.9533(8)
H59 H 0.8066 0.0642 0.9671
C50 C 0.7676(13) 0.1224(10) 0.8975(8)
H60 H 0.8454 0.1170 0.8739
C51 C 0.6787(15) 0.1603(10) 0.8746(9)
H61 H 0.6955 0.1808 0.8356
loop_
_geom_bond_atom_site_label_1
_geom_bond_atom_site_label_2
_geom_bond_site_symmetry_1
_geom_bond_site_symmetry_2
Pt1 N1 1_555 1_555
N1 C1 1_555 1_555
C1 C2 1_555 1_555
C2 H1 1_555 1_555
C3 C2 1_555 1_555
H2 C3 1_555 1_555
C4 C3 1_555 1_555
H3 C4 1_555 1_555
C5 N1 1_555 1_555
H4 C5 1_555 1_555
N2 Pt1 1_555 1_555
C6 C1 1_555 1_555
C7 C6 1_555 1_555
H5 C7 1_555 1_555
C8 C7 1_555 1_555
C9 C8 1_555 1_555
H6 C9 1_555 1_555
C10 N2 1_555 1_555
N3 Pt1 1_555 1_555
C11 C10 1_555 1_555
C12 C11 1_555 1_555
H7 C12 1_555 1_555
C13 C12 1_555 1_555
H8 C13 1_555 1_555
C14 C13 1_555 1_555
H9 C14 1_555 1_555
C15 N3 1_555 1_555
H10 C15 1_555 1_555
C16 C8 1_555 1_555
C17 C16 1_555 1_555
H11 C17 1_555 1_555
C18 C17 1_555 1_555
C19 C18 1_555 1_555
H12 C19 1_555 1_555
C20 C19 1_555 1_555
H13 C20 1_555 1_555
C21 C16 1_555 1_555
H14 C21 1_555 1_555
C22 C18 1_555 1_555
C23 C22 1_555 1_555
H15 C23 1_555 1_555
C24 C23 1_555 1_555
C25 C24 1_555 1_555
H16 C25 1_555 1_555
C26 C25 1_555 1_555
H17 C26 1_555 1_555
C27 C22 1_555 1_555
H18 C27 1_555 1_555
C28 C24 1_555 1_555
C29 C28 1_555 1_555
H19 C29 1_555 1_555
N4 C29 1_555 1_555
C30 N4 1_555 1_555
H20 C30 1_555 1_555
C31 C30 1_555 1_555
H21 C31 1_555 1_555
C32 C28 1_555 1_555
H22 C32 1_555 1_555
O1 H23 1_555 1_555
C33 O1 1_555 1_555
C34 C33 1_555 1_555
H24 C34 1_555 1_555
C35 C34 1_555 1_555
H25 C35 1_555 1_555
P1 F1 1_555 1_555
F2 P1 1_555 1_555
F3 P1 1_555 1_555
F4 P1 1_555 1_555
F5 P1 1_555 1_555
F6 P1 1_555 1_555
P2 F7 1_555 1_555
F8 P2 1_555 1_555
F9 P2 1_555 1_555
F10 P2 1_555 1_555
F11 P2 1_555 1_555
F12 P2 1_555 1_555
S1 C36 1_555 1_555
C36 H26 1_555 1_555
H27 C36 1_555 1_555
H28 C36 1_555 1_555
C37 S1 1_555 1_555
H29 C37 1_555 1_555
H30 C37 1_555 1_555
H31 C37 1_555 1_555
O2 S1 1_555 1_555
S2 C38 1_555 1_555
C38 H32 1_555 1_555
H33 C38 1_555 1_555
H34 C38 1_555 1_555
C39 S2 1_555 1_555
H35 C39 1_555 1_555
H36 C39 1_555 1_555
H37 C39 1_555 1_555
O3 S2 1_555 1_555
S3 C40 1_555 1_555
C40 H38 1_555 1_555
H39 C40 1_555 1_555
H40 C40 1_555 1_555
C41 S3 1_555 1_555
H41 C41 1_555 1_555
H42 C41 1_555 1_555
H43 C41 1_555 1_555
O4 S3 1_555 1_555
S4 C42 1_555 1_555
C42 H44 1_555 1_555
H45 C42 1_555 1_555
H46 C42 1_555 1_555
C43 S4 1_555 1_555
H47 C43 1_555 1_555
H48 C43 1_555 1_555
H49 C43 1_555 1_555
O5 S4 1_555 1_555
S5 C44 1_555 1_555
C44 H50 1_555 1_555
H51 C44 1_555 1_555
H52 C44 1_555 1_555
C45 S5 1_555 1_555
H53 C45 1_555 1_555
H54 C45 1_555 1_555
H55 C45 1_555 1_555
O6 S5 1_555 1_555
C46 H56 1_555 1_555
C47 C46 1_555 1_555
H57 C47 1_555 1_555
C48 C47 1_555 1_555
H58 C48 1_555 1_555
C49 C48 1_555 1_555
H59 C49 1_555 1_555
C50 C49 1_555 1_555
H60 C50 1_555 1_555
C51 C46 1_555 1_555
H61 C51 1_555 1_555
Pt1A N4 1_555 1_555
N1A Pt1A 1_555 1_555
C1A N1A 1_555 1_555
C2A C1A 1_555 1_555
H1A C2A 1_555 1_555
C3A C2A 1_555 1_555
H2A C3A 1_555 1_555
C4A C3A 1_555 1_555
H3A C4A 1_555 1_555
C5A N1A 1_555 1_555
H4A C5A 1_555 1_555
N2A Pt1A 1_555 1_555
C6A C1A 1_555 1_555
C7A C6A 1_555 1_555
H5A C7A 1_555 1_555
C8A C7A 1_555 1_555
C9A C8A 1_555 1_555
H6A C9A 1_555 1_555
C10A N2A 1_555 1_555
N3A Pt1A 1_555 1_555
C11A C10A 1_555 1_555
C12A C11A 1_555 1_555
H7A C12A 1_555 1_555
C13A C12A 1_555 1_555
H8A C13A 1_555 1_555
C14A C13A 1_555 1_555
H9A C14A 1_555 1_555
C15A N3A 1_555 1_555
H10A C15A 1_555 1_555
C16A C8A 1_555 1_555
C17A C16A 1_555 1_555
H11A C17A 1_555 1_555
C18A C17A 1_555 1_555
C19A C18A 1_555 1_555
H12A C19A 1_555 1_555
C20A C19A 1_555 1_555
H13A C20A 1_555 1_555
C21A C16A 1_555 1_555
H14A C21A 1_555 1_555
C22A C18A 1_555 1_555
C23A C22A 1_555 1_555
H15A C23A 1_555 1_555
C24A C23A 1_555 1_555
C25A C24A 1_555 1_555
H16A C25A 1_555 1_555
C26A C25A 1_555 1_555
H17A C26A 1_555 1_555
C27A C22A 1_555 1_555
H18A C27A 1_555 1_555
C28A C24A 1_555 1_555
C29A C28A 1_555 1_555
H19A C29A 1_555 1_555
N4A Pt1 1_555 1_555
C30A N4A 1_555 1_555
H20A C30A 1_555 1_555
C31A C30A 1_555 1_555
H21A C31A 1_555 1_555
C32A C28A 1_555 1_555
H22A C32A 1_555 1_555
O1A H23A 1_555 1_555
C33A C35 1_555 1_555
C34A C33A 1_555 1_555
H24A C34A 1_555 1_555
C35A C33 1_555 1_555
H25A C35A 1_555 1_555
C4 C5 1_555 1_555
N2 C6 1_555 1_555
C9 C10 1_555 1_555
N3 C11 1_555 1_555
C14 C15 1_555 1_555
C20 C21 1_555 1_555
C26 C27 1_555 1_555
C31 C32 1_555 1_555
C50 C51 1_555 1_555
C4A C5A 1_555 1_555
N2A C6A 1_555 1_555
C9A C10A 1_555 1_555
N3A C11A 1_555 1_555
C14A C15A 1_555 1_555
C20A C21A 1_555 1_555
C26A C27A 1_555 1_555
C29A N4A 1_555 1_555
C31A C32A 1_555 1_555
O1A C33A 1_555 1_555
C34A C35A 1_555 1_555

#END
