
#######################################################################
#
#                 Cambridge Crystallographic Data Centre
#                                CCDC 
#
#######################################################################
#
# If this CIF has been generated from an entry in the Cambridge 
# Structural Database, then it will include bibliographic, chemical, 
# crystal, experimental, refinement or atomic coordinate data resulting 
# from the CCDC's data processing and validation procedures.
#
#######################################################################

data_OGUHUU
_chemical_formula_moiety         
'C64 H44 N8 Pt2 4+,4(B1 F4 1-),5(C2 H6 O1 S1),C6 H6,4(H2 O1),C6 H6 O2'
_chemical_name_systematic        
"bis(\m~2~-4'-(4'-(4-Pyridyl)(1,1'-biphenyl)-3-yl)-2,2':6',2''-terpyridine-N,N',N'',N''')-di-platinum(ii) tetrakis(tetrafluoroborate) benzene-1,2-diol clathrate benzene dimethylsulfoxide solvate tetrahydrate"
_symmetry_cell_setting           triclinic
_symmetry_space_group_name_H-M   'P -1'
_symmetry_Int_Tables_number      2
_space_group_name_Hall           '-P 1'
loop_
_symmetry_equiv_pos_site_id
_symmetry_equiv_pos_as_xyz
1 x,y,z
2 -x,-y,-z
_cell_length_a                   10.383(2)
_cell_length_b                   16.982(5)
_cell_length_c                   18.087(6)
_cell_angle_alpha                115.363(12)
_cell_angle_beta                 93.652(13)
_cell_angle_gamma                100.697(10)
_cell_volume                     2794.63
_exptl_crystal_colour            orange
_exptl_crystal_description       prismatic
_cell_formula_units_Z            1
loop_
_atom_site_label
_atom_site_type_symbol
_atom_site_fract_x
_atom_site_fract_y
_atom_site_fract_z
O1 O 0.4661(14) 0.4875(15) 0.6469(12)
H23 H 0.4697 0.5336 0.6913
O2 O 0.4660(14) 0.3641(11) 0.5040(12)
H24 H 0.4693 0.3289 0.4548
C33 C 0.4826(10) 0.5086(11) 0.5905(10)
C34 C 0.4828(11) 0.4411(12) 0.5116(9)
C35 C 0.4993(15) 0.5371(13) 0.5515(11)
H25 H 0.4990 0.5826 0.6054
C36 C 0.4813(16) 0.4490(13) 0.5380(14)
H26 H 0.4689 0.4340 0.5824
C37 C 0.4815(15) 0.3834(13) 0.4604(14)
C38 C 0.5004(12) 0.5951(11) 0.6036(12)
H28 H 0.5003 0.6408 0.6574
O1A O 0.5339(14) 0.5125(15) 0.3531(12)
H23A H 0.5303 0.4664 0.3087
O2A O 0.5340(14) 0.6359(11) 0.4960(12)
H24A H 0.5307 0.6711 0.5452
C33A C 0.5174(10) 0.4914(11) 0.4095(10)
C34A C 0.5172(11) 0.5589(12) 0.4884(9)
C35A C 0.5007(15) 0.4629(13) 0.4485(11)
H25A H 0.5010 0.4174 0.3946
C36A C 0.5187(16) 0.5510(13) 0.4620(14)
H26A H 0.5311 0.5660 0.4176
C37A C 0.5185(15) 0.6166(13) 0.5396(14)
C38A C 0.4996(12) 0.4049(11) 0.3964(12)
H28A H 0.4997 0.3592 0.3426
B1 B 0.1530(16) 0.0380(10) 0.3644(11)
F1 F 0.121(2) 0.0215(13) 0.4298(11)
F2 F 0.0399(18) 0.0497(14) 0.3307(11)
F3 F 0.2442(15) 0.1179(9) 0.3946(8)
F4 F 0.1927(17) -0.0372(11) 0.3137(11)
B3 B 0.808(2) 0.7856(12) 0.9400(10)
F9 F 0.773(2) 0.8547(14) 0.9439(17)
F10 F 0.931(2) 0.7985(16) 0.9441(19)
F11 F 0.753(3) 0.7179(14) 0.8730(11)
F12 F 0.770(3) 0.7727(18) 0.9985(12)
S1 S 0.8123(5) 0.0404(2) 0.1398(3)
C39 C 0.772(2) -0.0394(9) 0.1738(11)
H29 H 0.6807 -0.0430 0.1859
H30 H 0.8331 -0.0233 0.2242
H31 H 0.7780 -0.0977 0.1307
C40 C 0.970(2) 0.0288(13) 0.1272(17)
H32 H 1.0131 0.0703 0.1067
H33 H 0.9679 -0.0329 0.0872
H34 H 1.0211 0.0424 0.1806
O3 O 0.8249(17) 0.1300(6) 0.2114(8)
S2 S 0.6954(17) 0.4208(11) 0.7413(11)
C41 C 0.714(3) 0.5228(17) 0.8273(18)
H35 H 0.7004 0.5680 0.8095
H36 H 0.8043 0.5412 0.8585
H37 H 0.6494 0.5171 0.8627
C42 C 0.741(6) 0.366(3) 0.796(3)
H38 H 0.7395 0.3038 0.7576
H39 H 0.6787 0.3662 0.8347
H40 H 0.8309 0.3965 0.8274
O4 O 0.8236(17) 0.4323(11) 0.7049(10)
S4 S 0.4219(6) 0.1681(4) 0.2758(4)
C45 C 0.5009(15) 0.1373(11) 0.1936(9)
H47 H 0.4858 0.1713 0.1629
H48 H 0.4669 0.0731 0.1573
H49 H 0.5964 0.1497 0.2124
C46 C 0.485(2) 0.0932(13) 0.2997(14)
H50 H 0.4544 0.0936 0.3500
H51 H 0.5823 0.1106 0.3090
H52 H 0.4542 0.0328 0.2536
O6 O 0.4991(19) 0.2575(11) 0.3444(12)
C47 C 0.763(3) 0.123(2) 0.8984(17)
H53 H 0.8358 0.1101 0.8697
C48 C 0.734(3) 0.0888(17) 0.9537(17)
H54 H 0.7857 0.0526 0.9632
C49 C 0.626(3) 0.1083(18) 0.9961(16)
H55 H 0.6045 0.0852 1.0344
C50 C 0.551(3) 0.161(2) 0.9816(18)
H56 H 0.4777 0.1741 1.0101
C51 C 0.581(3) 0.195(2) 0.926(2)
H57 H 0.5290 0.2318 0.9166
C52 C 0.688(3) 0.176(2) 0.8838(18)
H58 H 0.7087 0.1997 0.8456
O7 O 0.467(4) 0.626(3) 0.803(2)
O12 O -0.025(5) 0.299(3) 0.836(3)
Pt1 Pt 0.86321(3) 0.566536(17) 0.403194(19)
N1 N 0.8531(6) 0.6224(4) 0.5239(5)
C1 C 0.8340(7) 0.5636(5) 0.5579(5)
C2 C 0.8283(7) 0.5908(5) 0.6397(5)
H1 H 0.8158 0.5482 0.6612
C3 C 0.8405(9) 0.6801(6) 0.6916(6)
H2 H 0.8369 0.7001 0.7490
C4 C 0.8581(9) 0.7399(5) 0.6582(6)
H3 H 0.8673 0.8020 0.6929
C5 C 0.8623(8) 0.7105(5) 0.5762(6)
H4 H 0.8721 0.7527 0.5543
N2 N 0.8407(6) 0.4612(4) 0.4215(4)
C6 C 0.8233(7) 0.4701(5) 0.4967(5)
C7 C 0.7998(7) 0.3944(5) 0.5104(5)
H5 H 0.7889 0.3995 0.5639
C8 C 0.7924(7) 0.3109(5) 0.4443(5)
C9 C 0.8143(8) 0.3048(5) 0.3667(6)
H6 H 0.8144 0.2486 0.3221
C10 C 0.8359(7) 0.3821(5) 0.3559(6)
N3 N 0.8688(8) 0.4767(5) 0.2871(5)
C11 C 0.8531(9) 0.3892(6) 0.2789(6)
C12 C 0.8604(12) 0.3208(7) 0.2061(6)
H7 H 0.8554 0.2627 0.2023
C13 C 0.8751(16) 0.3349(9) 0.1369(8)
H8 H 0.8755 0.2868 0.0845
C14 C 0.8893(18) 0.4212(8) 0.1469(8)
H9 H 0.9022 0.4336 0.1011
C15 C 0.8850(14) 0.4888(8) 0.2216(7)
H10 H 0.8943 0.5475 0.2263
C16 C 0.7623(7) 0.2298(5) 0.4567(5)
C17 C 0.6717(8) 0.2252(5) 0.5098(5)
H11 H 0.6316 0.2739 0.5367
C18 C 0.6403(8) 0.1493(5) 0.5235(6)
C19 C 0.7060(9) 0.0799(6) 0.4855(7)
H12 H 0.6884 0.0287 0.4956
C20 C 0.7930(9) 0.0858(6) 0.4354(7)
H13 H 0.8371 0.0387 0.4111
C21 C 0.8204(8) 0.1586(5) 0.4180(6)
H14 H 0.8786 0.1596 0.3798
C22 C 0.5427(9) 0.1458(5) 0.5787(6)
C23 C 0.4290(8) 0.1768(5) 0.5749(6)
H15 H 0.4129 0.1985 0.5355
C24 C 0.3375(8) 0.1763(5) 0.6287(6)
C25 C 0.3599(10) 0.1430(6) 0.6856(6)
H16 H 0.2986 0.1424 0.7223
C26 C 0.4725(10) 0.1111(7) 0.6877(7)
H17 H 0.4880 0.0880 0.7261
C27 C 0.5625(9) 0.1121(6) 0.6355(7)
H18 H 0.6391 0.0897 0.6381
C28 C 0.2175(8) 0.2110(6) 0.6248(6)
C29 C 0.2230(8) 0.2867(5) 0.6147(5)
H19 H 0.3053 0.3155 0.6074
N4 N 0.8818(7) 0.6773(5) 0.3855(5)
C30 C 0.9996(9) 0.7172(6) 0.3735(6)
H20 H 1.0732 0.6906 0.3704
C31 C 1.0137(9) 0.7953(7) 0.3659(7)
H21 H 1.0977 0.8241 0.3606
C32 C 0.0943(9) 0.1680(6) 0.6339(6)
H22 H 0.0855 0.1144 0.6398
Pt1A Pt 0.13679(3) 0.433464(17) 0.596806(19)
N1A N 0.1469(6) 0.3776(4) 0.4761(5)
C1A C 0.1660(7) 0.4364(5) 0.4421(5)
C2A C 0.1717(7) 0.4092(5) 0.3603(5)
H1A H 0.1842 0.4518 0.3388
C3A C 0.1595(9) 0.3199(6) 0.3084(6)
H2A H 0.1631 0.2999 0.2510
C4A C 0.1419(9) 0.2601(5) 0.3418(6)
H3A H 0.1327 0.1980 0.3071
C5A C 0.1377(8) 0.2895(5) 0.4238(6)
H4A H 0.1279 0.2473 0.4457
N2A N 0.1593(6) 0.5388(4) 0.5785(4)
C6A C 0.1767(7) 0.5299(5) 0.5033(5)
C7A C 0.2002(7) 0.6056(5) 0.4896(5)
H5A H 0.2111 0.6005 0.4361
C8A C 0.2076(7) 0.6891(5) 0.5557(5)
C9A C 0.1857(8) 0.6952(5) 0.6333(6)
H6A H 0.1856 0.7514 0.6779
C10A C 0.1641(7) 0.6179(5) 0.6441(6)
N3A N 0.1312(8) 0.5233(5) 0.7129(5)
C11A C 0.1469(9) 0.6108(6) 0.7211(6)
C12A C 0.1396(12) 0.6792(7) 0.7939(6)
H7A H 0.1446 0.7373 0.7977
C13A C 0.1249(16) 0.6651(9) 0.8631(8)
H8A H 0.1245 0.7132 0.9155
C14A C 0.1107(18) 0.5788(8) 0.8531(8)
H9A H 0.0978 0.5664 0.8989
C15A C 0.1150(14) 0.5112(8) 0.7784(7)
H10A H 0.1057 0.4525 0.7737
C16A C 0.2377(7) 0.7702(5) 0.5433(5)
C17A C 0.3283(8) 0.7748(5) 0.4902(5)
H11A H 0.3684 0.7261 0.4633
C18A C 0.3597(8) 0.8507(5) 0.4765(6)
C19A C 0.2940(9) 0.9201(6) 0.5145(7)
H12A H 0.3116 0.9713 0.5044
C20A C 0.2070(9) 0.9142(6) 0.5646(7)
H13A H 0.1629 0.9613 0.5889
C21A C 0.1796(8) 0.8414(5) 0.5820(6)
H14A H 0.1214 0.8404 0.6202
C22A C 0.4573(9) 0.8542(5) 0.4213(6)
C23A C 0.5710(8) 0.8232(5) 0.4251(6)
H15A H 0.5871 0.8015 0.4645
C24A C 0.6625(8) 0.8237(5) 0.3713(6)
C25A C 0.6401(10) 0.8570(6) 0.3144(6)
H16A H 0.7014 0.8576 0.2777
C26A C 0.5275(10) 0.8889(7) 0.3123(7)
H17A H 0.5120 0.9120 0.2739
C27A C 0.4375(9) 0.8879(6) 0.3645(7)
H18A H 0.3609 0.9103 0.3619
C28A C 0.7825(8) 0.7890(6) 0.3752(6)
C29A C 0.7770(8) 0.7133(5) 0.3853(5)
H19A H 0.6947 0.6845 0.3926
N4A N 0.1182(7) 0.3227(5) 0.6145(5)
C30A C 0.0004(9) 0.2828(6) 0.6265(6)
H20A H -0.0732 0.3094 0.6296
C31A C -0.0137(9) 0.2047(7) 0.6341(7)
H21A H -0.0977 0.1759 0.6394
C32A C 0.9057(9) 0.8320(6) 0.3661(6)
H22A H 0.9145 0.8856 0.3602
loop_
_geom_bond_atom_site_label_1
_geom_bond_atom_site_label_2
_geom_bond_site_symmetry_1
_geom_bond_site_symmetry_2
Pt1 N1 1_555 1_555
N1 C1 1_555 1_555
C1 C2 1_555 1_555
C2 H1 1_555 1_555
C3 C2 1_555 1_555
H2 C3 1_555 1_555
C4 C3 1_555 1_555
H3 C4 1_555 1_555
C5 N1 1_555 1_555
H4 C5 1_555 1_555
N2 Pt1 1_555 1_555
C6 C1 1_555 1_555
C7 C6 1_555 1_555
H5 C7 1_555 1_555
C8 C7 1_555 1_555
C9 C8 1_555 1_555
H6 C9 1_555 1_555
C10 N2 1_555 1_555
N3 Pt1 1_555 1_555
C11 C10 1_555 1_555
C12 C11 1_555 1_555
H7 C12 1_555 1_555
C13 C12 1_555 1_555
H8 C13 1_555 1_555
C14 C13 1_555 1_555
H9 C14 1_555 1_555
C15 N3 1_555 1_555
H10 C15 1_555 1_555
C16 C8 1_555 1_555
C17 C16 1_555 1_555
H11 C17 1_555 1_555
C18 C17 1_555 1_555
C19 C18 1_555 1_555
H12 C19 1_555 1_555
C20 C19 1_555 1_555
H13 C20 1_555 1_555
C21 C16 1_555 1_555
H14 C21 1_555 1_555
C22 C18 1_555 1_555
C23 C22 1_555 1_555
H15 C23 1_555 1_555
C24 C23 1_555 1_555
C25 C24 1_555 1_555
H16 C25 1_555 1_555
C26 C25 1_555 1_555
H17 C26 1_555 1_555
C27 C22 1_555 1_555
H18 C27 1_555 1_555
C28 C24 1_555 1_555
C29 C28 1_555 1_555
H19 C29 1_555 1_555
N4 Pt1 1_555 1_555
C30 N4 1_555 1_555
H20 C30 1_555 1_555
C31 C30 1_555 1_555
H21 C31 1_555 1_555
C32 C28 1_555 1_555
H22 C32 1_555 1_555
O1 H23 1_555 1_555
O2 H24 1_555 1_555
H24 C37 1_555 1_555
C33 O1 1_555 1_555
C34 O2 1_555 1_555
C35 C33 1_555 1_555
H25 C33 1_555 1_555
C36 O2 1_555 1_555
H26 O1 1_555 1_555
C37 O2 1_555 1_555
C38 C33 1_555 1_555
H28 C38 1_555 1_555
B1 F1 1_555 1_555
F2 B1 1_555 1_555
F3 B1 1_555 1_555
F4 B1 1_555 1_555
B3 F9 1_555 1_555
F10 B3 1_555 1_555
F11 B3 1_555 1_555
F12 B3 1_555 1_555
S1 C39 1_555 1_555
C39 H29 1_555 1_555
H30 C39 1_555 1_555
H31 C39 1_555 1_555
C40 S1 1_555 1_555
H32 C40 1_555 1_555
H33 C40 1_555 1_555
H34 C40 1_555 1_555
O3 S1 1_555 1_555
S2 C41 1_555 1_555
C41 H35 1_555 1_555
H36 C41 1_555 1_555
H37 C41 1_555 1_555
C42 S2 1_555 1_555
H38 C42 1_555 1_555
H39 C42 1_555 1_555
H40 C42 1_555 1_555
O4 S2 1_555 1_555
S4 C45 1_555 1_555
C45 H47 1_555 1_555
H48 C45 1_555 1_555
H49 C45 1_555 1_555
C46 S4 1_555 1_555
H50 C46 1_555 1_555
H51 C46 1_555 1_555
H52 C46 1_555 1_555
O6 S4 1_555 1_555
C47 H53 1_555 1_555
C48 C47 1_555 1_555
H54 C48 1_555 1_555
C49 C48 1_555 1_555
H55 C49 1_555 1_555
C50 C49 1_555 1_555
H56 C50 1_555 1_555
C51 C50 1_555 1_555
H57 C51 1_555 1_555
C52 C47 1_555 1_555
H58 C52 1_555 1_555
Pt1A N1A 1_555 1_555
N1A C1A 1_555 1_555
C1A C2A 1_555 1_555
C2A H1A 1_555 1_555
C3A C2A 1_555 1_555
H2A C3A 1_555 1_555
C4A C3A 1_555 1_555
H3A C4A 1_555 1_555
C5A N1A 1_555 1_555
H4A C5A 1_555 1_555
N2A Pt1A 1_555 1_555
C6A C1A 1_555 1_555
C7A C6A 1_555 1_555
H5A C7A 1_555 1_555
C8A C7A 1_555 1_555
C9A C8A 1_555 1_555
H6A C9A 1_555 1_555
C10A N2A 1_555 1_555
N3A Pt1A 1_555 1_555
C11A C10A 1_555 1_555
C12A C11A 1_555 1_555
H7A C12A 1_555 1_555
C13A C12A 1_555 1_555
H8A C13A 1_555 1_555
C14A C13A 1_555 1_555
H9A C14A 1_555 1_555
C15A N3A 1_555 1_555
H10A C15A 1_555 1_555
C16A C8A 1_555 1_555
C17A C16A 1_555 1_555
H11A C17A 1_555 1_555
C18A C17A 1_555 1_555
C19A C18A 1_555 1_555
H12A C19A 1_555 1_555
C20A C19A 1_555 1_555
H13A C20A 1_555 1_555
C21A C16A 1_555 1_555
H14A C21A 1_555 1_555
C22A C18A 1_555 1_555
C23A C22A 1_555 1_555
H15A C23A 1_555 1_555
C24A C23A 1_555 1_555
C25A C24A 1_555 1_555
H16A C25A 1_555 1_555
C26A C25A 1_555 1_555
H17A C26A 1_555 1_555
C27A C22A 1_555 1_555
H18A C27A 1_555 1_555
C28A C24A 1_555 1_555
C29A N4 1_555 1_555
H19A C29A 1_555 1_555
N4A C29 1_555 1_555
C30A N4A 1_555 1_555
H20A C30A 1_555 1_555
C31A C32 1_555 1_555
H21A C31A 1_555 1_555
C32A C31 1_555 1_555
H22A C32A 1_555 1_555
O1A H23A 1_555 1_555
O2A H24A 1_555 1_555
H24A C37A 1_555 1_555
C33A O1A 1_555 1_555
C34A C35 1_555 1_555
C35A C34 1_555 1_555
H25A C33A 1_555 1_555
C36A C35 1_555 1_555
H26A O1A 1_555 1_555
C37A C35 1_555 1_555
C38A C37 1_555 1_555
H28A C38A 1_555 1_555
C4 C5 1_555 1_555
N2 C6 1_555 1_555
C9 C10 1_555 1_555
N3 C11 1_555 1_555
C14 C15 1_555 1_555
C20 C21 1_555 1_555
C26 C27 1_555 1_555
C33 C34 1_555 1_555
C33 C36 1_555 1_555
C33 H26 1_555 1_555
C34 C35 1_555 1_555
C34 C36 1_555 1_555
C34 C37 1_555 1_555
C35 H25 1_555 1_555
C35 C36 1_555 1_555
C35 C38 1_555 1_555
C35 C35A 1_555 1_555
H25 C38 1_555 1_555
C36 H26 1_555 1_555
C36 C37 1_555 1_555
C36 C35A 1_555 1_555
C37 C35A 1_555 1_555
C38 C37A 1_555 1_555
C51 C52 1_555 1_555
Pt1A N4A 1_555 1_555
C4A C5A 1_555 1_555
N2A C6A 1_555 1_555
C9A C10A 1_555 1_555
N3A C11A 1_555 1_555
C14A C15A 1_555 1_555
C20A C21A 1_555 1_555
C26A C27A 1_555 1_555
C28A C29A 1_555 1_555
C28A C32A 1_555 1_555
C30A C31A 1_555 1_555
O2A C34A 1_555 1_555
O2A C36A 1_555 1_555
O2A C37A 1_555 1_555
C33A C34A 1_555 1_555
C33A C35A 1_555 1_555
C33A C36A 1_555 1_555
C33A H26A 1_555 1_555
C33A C38A 1_555 1_555
C34A C35A 1_555 1_555
C34A C36A 1_555 1_555
C34A C37A 1_555 1_555
C35A H25A 1_555 1_555
C35A C36A 1_555 1_555
C35A C38A 1_555 1_555
H25A C38A 1_555 1_555
C36A H26A 1_555 1_555
C36A C37A 1_555 1_555

#END
