
#######################################################################
#
#                 Cambridge Crystallographic Data Centre
#                                CCDC 
#
#######################################################################
#
# If this CIF has been generated from an entry in the Cambridge 
# Structural Database, then it will include bibliographic, chemical, 
# crystal, experimental, refinement or atomic coordinate data resulting 
# from the CCDC's data processing and validation procedures.
#
#######################################################################

data_OGUJAC
_chemical_formula_moiety         
'C64 H44 N8 Pt2 4+,4(B1 F4 1-),5(C2 H6 O1 S1),C6 H6,3.5(H2 O1),C6 H6 O2'
_chemical_name_systematic        
"bis(\m~2~-4'-(4'-(4-Pyridyl)(1,1'-biphenyl)-3-yl)-2,2':6',2''-terpyridine-N,N',N'',N''')-di-platinum(ii) tetrakis(tetrafluoroborate) benzene-1,3-diol clathrate benzene dimethylsulfoxide solvate hydrate"
_symmetry_cell_setting           triclinic
_symmetry_space_group_name_H-M   'P -1'
_symmetry_Int_Tables_number      2
_space_group_name_Hall           '-P 1'
loop_
_symmetry_equiv_pos_site_id
_symmetry_equiv_pos_as_xyz
1 x,y,z
2 -x,-y,-z
_cell_length_a                   10.396(2)
_cell_length_b                   17.035(5)
_cell_length_c                   18.221(6)
_cell_angle_alpha                115.643(12)
_cell_angle_beta                 92.584(12)
_cell_angle_gamma                100.460(9)
_cell_volume                     2832.74
_exptl_crystal_colour            orange
_exptl_crystal_description       prismatic
_cell_formula_units_Z            1
loop_
_atom_site_label
_atom_site_type_symbol
_atom_site_fract_x
_atom_site_fract_y
_atom_site_fract_z
C33 C 0.4805(9) 0.4389(10) 0.5217(10)
C34 C 0.4974(12) 0.4728(10) 0.4673(12)
H23 H 0.4994 0.4345 0.4111
C35 C 0.4884(12) 0.4381(10) 0.5067(14)
C36 C 0.4915(12) 0.3838(11) 0.4267(12)
C37 C 0.5080(13) 0.4178(12) 0.3724(12)
H25 H 0.5094 0.3794 0.3162
C38 C 0.4775(11) 0.4934(11) 0.6019(10)
H26 H 0.4651 0.4693 0.6400
O1 O 0.4655(13) 0.3476(10) 0.4963(11)
H27 H 0.4715 0.3220 0.4459
O2 O 0.4708(19) 0.4014(14) 0.5620(16)
H28 H 0.4877 0.4427 0.6104
C33A C 0.5195(9) 0.5611(10) 0.4783(10)
C34A C 0.5026(12) 0.5272(10) 0.5327(12)
H23A H 0.5006 0.5655 0.5889
C35A C 0.5116(12) 0.5619(10) 0.4933(14)
C36A C 0.5085(12) 0.6162(11) 0.5733(12)
C37A C 0.4920(13) 0.5822(12) 0.6276(12)
H25A H 0.4906 0.6206 0.6838
C38A C 0.5225(11) 0.5066(11) 0.3981(10)
H26A H 0.5349 0.5307 0.3600
O1A O 0.5345(13) 0.6524(10) 0.5037(11)
H27A H 0.5285 0.6780 0.5541
O2A O 0.5292(19) 0.5986(14) 0.4380(16)
H28A H 0.5123 0.5573 0.3896
B1 B 0.1272(17) 0.0195(13) 0.3320(13)
F1 F 0.1797(16) -0.0410(10) 0.3427(10)
F2 F -0.0053(14) -0.0103(11) 0.3126(9)
F3 F 0.137(3) 0.0990(17) 0.3984(15)
F4 F 0.165(2) 0.0393(15) 0.2711(13)
B3 B 0.8234(17) 0.7805(10) 0.9433(8)
F9 F 0.783(2) 0.8398(15) 0.9318(17)
F10 F 0.9447(16) 0.8052(12) 0.9635(15)
F11 F 0.793(2) 0.7096(12) 0.8813(9)
F12 F 0.767(2) 0.7739(15) 0.9993(9)
S1 S 0.8233(5) 0.0435(2) 0.1420(2)
C39 C 0.778(2) -0.0370(8) 0.1747(10)
H29 H 0.6863 -0.0401 0.1857
H30 H 0.8359 -0.0217 0.2252
H31 H 0.7861 -0.0950 0.1320
C40 C 0.9810(15) 0.0309(11) 0.1299(13)
H32 H 1.0255 0.0729 0.1105
H33 H 0.9795 -0.0304 0.0894
H34 H 1.0287 0.0431 0.1826
O3 O 0.8393(15) 0.1332(6) 0.2157(7)
S2 S 0.6983(13) 0.4194(8) 0.7447(7)
C41 C 0.723(4) 0.336(2) 0.772(2)
H35 H 0.6952 0.2775 0.7238
H36 H 0.6716 0.3374 0.8158
H37 H 0.8173 0.3463 0.7910
C42 C 0.759(4) 0.499(2) 0.8460(14)
H38 H 0.7568 0.5585 0.8518
H39 H 0.8495 0.4963 0.8597
H40 H 0.7031 0.4860 0.8833
O4 O 0.8255(19) 0.4342(13) 0.7067(12)
S4 S 0.5813(6) 0.8348(5) 0.7219(6)
C45 C 0.4887(14) 0.8676(10) 0.8018(9)
H47 H 0.5026 0.8376 0.8359
H48 H 0.5159 0.9325 0.8354
H49 H 0.3949 0.8514 0.7796
C46 C 0.517(2) 0.9043(14) 0.6913(14)
H50 H 0.5525 0.9022 0.6417
H51 H 0.4204 0.8844 0.6794
H52 H 0.5410 0.9656 0.7353
O6 O 0.5036(17) 0.7433(10) 0.6573(12)
C47 C 0.543(2) 0.1593(18) 0.9788(15)
H53 H 0.4671 0.1719 1.0051
C48 C 0.574(3) 0.1876(17) 0.9202(16)
H54 H 0.5192 0.2197 0.9064
C49 C 0.682(3) 0.1702(19) 0.8819(16)
H55 H 0.7028 0.1899 0.8416
C50 C 0.760(2) 0.1236(18) 0.9024(16)
H56 H 0.8361 0.1111 0.8758
C51 C 0.731(3) 0.0954(18) 0.9602(18)
H57 H 0.7856 0.0633 0.9737
C52 C 0.621(3) 0.1130(18) 0.9995(16)
H58 H 0.6005 0.0935 1.0400
O7 O 0.460(2) 0.4257(14) 0.2210(13)
O9 O 0.983(3) 0.641(2) 0.071(2)
Pt1 Pt 0.86332(3) 0.566892(16) 0.405755(18)
N1 N 0.8490(6) 0.6234(4) 0.5264(5)
C1 C 0.8319(7) 0.5635(5) 0.5588(5)
C2 C 0.8257(7) 0.5904(5) 0.6401(5)
H1 H 0.8134 0.5480 0.6613
C3 C 0.8376(8) 0.6815(6) 0.6926(6)
H2 H 0.8335 0.7014 0.7496
C4 C 0.8551(9) 0.7409(6) 0.6604(6)
H3 H 0.8648 0.8028 0.6951
C5 C 0.8587(7) 0.7106(5) 0.5772(6)
H4 H 0.8684 0.7522 0.5551
N2 N 0.8416(6) 0.4618(4) 0.4234(4)
C6 C 0.8231(7) 0.4698(5) 0.4977(5)
C7 C 0.7996(7) 0.3958(5) 0.5116(5)
H5 H 0.7871 0.4013 0.5648
C8 C 0.7943(7) 0.3107(5) 0.4448(5)
C9 C 0.8155(7) 0.3053(5) 0.3694(5)
H6 H 0.8150 0.2493 0.3245
C10 C 0.8376(7) 0.3822(5) 0.3592(5)
N3 N 0.8714(8) 0.4761(5) 0.2908(5)
C11 C 0.8573(9) 0.3909(6) 0.2824(5)
C12 C 0.8623(10) 0.3214(6) 0.2084(6)
H7 H 0.8535 0.2629 0.2038
C13 C 0.8801(15) 0.3363(8) 0.1412(7)
H8 H 0.8855 0.2891 0.0894
C14 C 0.8900(17) 0.4225(9) 0.1515(8)
H9 H 0.8984 0.4346 0.1055
C15 C 0.8879(12) 0.4887(7) 0.2247(7)
H10 H 0.8988 0.5475 0.2300
C16 C 0.7636(7) 0.2307(5) 0.4594(6)
C17 C 0.6733(7) 0.2252(5) 0.5108(5)
H11 H 0.6319 0.2735 0.5377
C18 C 0.6416(8) 0.1497(5) 0.5242(6)
C19 C 0.7089(9) 0.0807(6) 0.4864(6)
H12 H 0.6910 0.0296 0.4962
C20 C 0.7989(8) 0.0863(5) 0.4361(6)
H13 H 0.8440 0.0394 0.4120
C21 C 0.8268(7) 0.1598(5) 0.4188(6)
H14 H 0.8862 0.1618 0.3812
C22 C 0.5394(8) 0.1448(5) 0.5776(6)
C23 C 0.4281(8) 0.1768(5) 0.5741(5)
H15 H 0.4151 0.2002 0.5362
C24 C 0.3347(8) 0.1751(5) 0.6257(5)
C25 C 0.3532(9) 0.1403(6) 0.6807(6)
H16 H 0.2893 0.1384 0.7160
C26 C 0.4665(10) 0.1083(7) 0.6837(7)
H17 H 0.4811 0.0856 0.7219
C27 C 0.5577(9) 0.1094(6) 0.6310(6)
H18 H 0.6333 0.0856 0.6319
C28 C 0.2148(8) 0.2100(5) 0.6233(5)
C29 C 0.2214(8) 0.2861(5) 0.6116(5)
H19 H 0.3034 0.3134 0.6028
N4 N 0.8816(7) 0.6776(4) 0.3878(5)
C30 C 0.9994(8) 0.7149(6) 0.3749(5)
H20 H 1.0721 0.6874 0.3715
C31 C 1.0145(9) 0.7926(6) 0.3666(6)
H21 H 1.0988 0.8200 0.3605
C32 C 0.0913(9) 0.1695(5) 0.6329(6)
H22 H 0.0808 0.1162 0.6390
Pt1A Pt 0.13668(3) 0.433108(16) 0.594245(18)
N1A N 0.1510(6) 0.3766(4) 0.4736(5)
C1A C 0.1681(7) 0.4365(5) 0.4412(5)
C2A C 0.1743(7) 0.4096(5) 0.3599(5)
H1A H 0.1866 0.4520 0.3387
C3A C 0.1624(8) 0.3185(6) 0.3074(6)
H2A H 0.1665 0.2986 0.2504
C4A C 0.1449(9) 0.2591(6) 0.3396(6)
H3A H 0.1352 0.1972 0.3049
C5A C 0.1413(7) 0.2894(5) 0.4228(6)
H4A H 0.1316 0.2478 0.4449
N2A N 0.1584(6) 0.5382(4) 0.5766(4)
C6A C 0.1769(7) 0.5302(5) 0.5023(5)
C7A C 0.2004(7) 0.6042(5) 0.4884(5)
H5A H 0.2129 0.5987 0.4352
C8A C 0.2057(7) 0.6893(5) 0.5552(5)
C9A C 0.1845(7) 0.6947(5) 0.6306(5)
H6A H 0.1850 0.7507 0.6755
C10A C 0.1624(7) 0.6178(5) 0.6408(5)
N3A N 0.1286(8) 0.5239(5) 0.7092(5)
C11A C 0.1427(9) 0.6091(6) 0.7176(5)
C12A C 0.1377(10) 0.6786(6) 0.7916(6)
H7A H 0.1465 0.7371 0.7962
C13A C 0.1199(15) 0.6637(8) 0.8588(7)
H8A H 0.1145 0.7109 0.9106
C14A C 0.1100(17) 0.5775(9) 0.8485(8)
H9A H 0.1016 0.5654 0.8945
C15A C 0.1121(12) 0.5113(7) 0.7753(7)
H10A H 0.1012 0.4525 0.7700
C16A C 0.2364(7) 0.7693(5) 0.5406(6)
C17A C 0.3267(7) 0.7748(5) 0.4892(5)
H11A H 0.3681 0.7265 0.4623
C18A C 0.3584(8) 0.8503(5) 0.4758(6)
C19A C 0.2911(9) 0.9193(6) 0.5136(6)
H12A H 0.3090 0.9704 0.5038
C20A C 0.2011(8) 0.9137(5) 0.5639(6)
H13A H 0.1560 0.9606 0.5880
C21A C 0.1732(7) 0.8402(5) 0.5812(6)
H14A H 0.1138 0.8382 0.6188
C22A C 0.4606(8) 0.8552(5) 0.4224(6)
C23A C 0.5719(8) 0.8232(5) 0.4259(5)
H15A H 0.5849 0.7998 0.4638
C24A C 0.6653(8) 0.8249(5) 0.3743(5)
C25A C 0.6468(9) 0.8597(6) 0.3193(6)
H16A H 0.7107 0.8616 0.2840
C26A C 0.5335(10) 0.8917(7) 0.3163(7)
H17A H 0.5189 0.9144 0.2781
C27A C 0.4423(9) 0.8906(6) 0.3690(6)
H18A H 0.3667 0.9144 0.3681
C28A C 0.7852(8) 0.7900(5) 0.3767(5)
C29A C 0.7786(8) 0.7139(5) 0.3884(5)
H19A H 0.6966 0.6866 0.3972
N4A N 0.1184(7) 0.3224(4) 0.6122(5)
C30A C 0.0006(8) 0.2851(6) 0.6251(5)
H20A H -0.0721 0.3126 0.6285
C31A C -0.0145(9) 0.2074(6) 0.6334(6)
H21A H -0.0988 0.1800 0.6395
C32A C 0.9087(9) 0.8305(5) 0.3671(6)
H22A H 0.9192 0.8838 0.3610
loop_
_geom_bond_atom_site_label_1
_geom_bond_atom_site_label_2
_geom_bond_site_symmetry_1
_geom_bond_site_symmetry_2
Pt1 N1 1_555 1_555
N1 C1 1_555 1_555
C1 C2 1_555 1_555
C2 H1 1_555 1_555
C3 C2 1_555 1_555
H2 C3 1_555 1_555
C4 C3 1_555 1_555
H3 C4 1_555 1_555
C5 N1 1_555 1_555
H4 C5 1_555 1_555
N2 Pt1 1_555 1_555
C6 C1 1_555 1_555
C7 C6 1_555 1_555
H5 C7 1_555 1_555
C8 C7 1_555 1_555
C9 C8 1_555 1_555
H6 C9 1_555 1_555
C10 N2 1_555 1_555
N3 Pt1 1_555 1_555
C11 C10 1_555 1_555
C12 C11 1_555 1_555
H7 C12 1_555 1_555
C13 C12 1_555 1_555
H8 C13 1_555 1_555
C14 C13 1_555 1_555
H9 C14 1_555 1_555
C15 N3 1_555 1_555
H10 C15 1_555 1_555
C16 C8 1_555 1_555
C17 C16 1_555 1_555
H11 C17 1_555 1_555
C18 C17 1_555 1_555
C19 C18 1_555 1_555
H12 C19 1_555 1_555
C20 C19 1_555 1_555
H13 C20 1_555 1_555
C21 C16 1_555 1_555
H14 C21 1_555 1_555
C22 C18 1_555 1_555
C23 C22 1_555 1_555
H15 C23 1_555 1_555
C24 C23 1_555 1_555
C25 C24 1_555 1_555
H16 C25 1_555 1_555
C26 C25 1_555 1_555
H17 C26 1_555 1_555
C27 C22 1_555 1_555
H18 C27 1_555 1_555
C28 C24 1_555 1_555
C29 C28 1_555 1_555
H19 C29 1_555 1_555
N4 Pt1 1_555 1_555
C30 N4 1_555 1_555
H20 C30 1_555 1_555
C31 C30 1_555 1_555
H21 C31 1_555 1_555
C32 C28 1_555 1_555
H22 C32 1_555 1_555
C33 C34 1_555 1_555
C34 H23 1_555 1_555
H23 C36 1_555 1_555
C35 C33 1_555 1_555
C36 C33 1_555 1_555
C37 C34 1_555 1_555
H25 C37 1_555 1_555
C38 C33 1_555 1_555
H26 C38 1_555 1_555
O1 C33 1_555 1_555
H27 C36 1_555 1_555
O2 C33 1_555 1_555
H28 C38 1_555 1_555
B1 F1 1_555 1_555
F2 B1 1_555 1_555
F3 B1 1_555 1_555
F4 B1 1_555 1_555
B3 F9 1_555 1_555
F10 B3 1_555 1_555
F11 B3 1_555 1_555
F12 B3 1_555 1_555
S1 C39 1_555 1_555
C39 H29 1_555 1_555
H30 C39 1_555 1_555
H31 C39 1_555 1_555
C40 S1 1_555 1_555
H32 C40 1_555 1_555
H33 C40 1_555 1_555
H34 C40 1_555 1_555
O3 S1 1_555 1_555
S2 C41 1_555 1_555
C41 H35 1_555 1_555
H36 C41 1_555 1_555
H37 C41 1_555 1_555
C42 S2 1_555 1_555
H38 C42 1_555 1_555
H39 C42 1_555 1_555
H40 C42 1_555 1_555
O4 S2 1_555 1_555
S4 C45 1_555 1_555
C45 H47 1_555 1_555
H48 C45 1_555 1_555
H49 C45 1_555 1_555
C46 S4 1_555 1_555
H50 C46 1_555 1_555
H51 C46 1_555 1_555
H52 C46 1_555 1_555
O6 S4 1_555 1_555
C47 H53 1_555 1_555
C48 C47 1_555 1_555
H54 C48 1_555 1_555
C49 C48 1_555 1_555
H55 C49 1_555 1_555
C50 C49 1_555 1_555
H56 C50 1_555 1_555
C51 C50 1_555 1_555
H57 C51 1_555 1_555
C52 C47 1_555 1_555
H58 C52 1_555 1_555
Pt1A N1A 1_555 1_555
N1A C1A 1_555 1_555
C1A C2A 1_555 1_555
C2A H1A 1_555 1_555
C3A C2A 1_555 1_555
H2A C3A 1_555 1_555
C4A C3A 1_555 1_555
H3A C4A 1_555 1_555
C5A N1A 1_555 1_555
H4A C5A 1_555 1_555
N2A Pt1A 1_555 1_555
C6A C1A 1_555 1_555
C7A C6A 1_555 1_555
H5A C7A 1_555 1_555
C8A C7A 1_555 1_555
C9A C8A 1_555 1_555
H6A C9A 1_555 1_555
C10A N2A 1_555 1_555
N3A Pt1A 1_555 1_555
C11A C10A 1_555 1_555
C12A C11A 1_555 1_555
H7A C12A 1_555 1_555
C13A C12A 1_555 1_555
H8A C13A 1_555 1_555
C14A C13A 1_555 1_555
H9A C14A 1_555 1_555
C15A N3A 1_555 1_555
H10A C15A 1_555 1_555
C16A C8A 1_555 1_555
C17A C16A 1_555 1_555
H11A C17A 1_555 1_555
C18A C17A 1_555 1_555
C19A C18A 1_555 1_555
H12A C19A 1_555 1_555
C20A C19A 1_555 1_555
H13A C20A 1_555 1_555
C21A C16A 1_555 1_555
H14A C21A 1_555 1_555
C22A C18A 1_555 1_555
C23A C22A 1_555 1_555
H15A C23A 1_555 1_555
C24A C23A 1_555 1_555
C25A C24A 1_555 1_555
H16A C25A 1_555 1_555
C26A C25A 1_555 1_555
H17A C26A 1_555 1_555
C27A C22A 1_555 1_555
H18A C27A 1_555 1_555
C28A C24A 1_555 1_555
C29A N4 1_555 1_555
H19A C29A 1_555 1_555
N4A C29 1_555 1_555
C30A N4A 1_555 1_555
H20A C30A 1_555 1_555
C31A C32 1_555 1_555
H21A C31A 1_555 1_555
C32A C31 1_555 1_555
H22A C32A 1_555 1_555
C33A C34 1_555 1_555
C34A C33 1_555 1_555
H23A C34A 1_555 1_555
C35A C34 1_555 1_555
C36A C33A 1_555 1_555
C37A C38 1_555 1_555
H25A C37A 1_555 1_555
C38A C34 1_555 1_555
H26A C38A 1_555 1_555
O1A C33A 1_555 1_555
H27A C36A 1_555 1_555
O2A C33A 1_555 1_555
H28A C38A 1_555 1_555
C4 C5 1_555 1_555
N2 C6 1_555 1_555
C9 C10 1_555 1_555
N3 C11 1_555 1_555
C14 C15 1_555 1_555
C20 C21 1_555 1_555
C26 C27 1_555 1_555
C34 C35 1_555 1_555
C34 C36 1_555 1_555
C34 C34A 1_555 1_555
H23 C37 1_555 1_555
C35 C36 1_555 1_555
C35 C38 1_555 1_555
C35 O1 1_555 1_555
C35 O2 1_555 1_555
C35 C34A 1_555 1_555
C36 C37 1_555 1_555
C36 O1 1_555 1_555
C37 C38A 1_555 1_555
C38 O2 1_555 1_555
C38 C34A 1_555 1_555
H26 H28 1_555 1_555
O1 H27 1_555 1_555
O1 O2 1_555 1_555
O2 H28 1_555 1_555
C51 C52 1_555 1_555
Pt1A N4A 1_555 1_555
C4A C5A 1_555 1_555
N2A C6A 1_555 1_555
C9A C10A 1_555 1_555
N3A C11A 1_555 1_555
C14A C15A 1_555 1_555
C20A C21A 1_555 1_555
C26A C27A 1_555 1_555
C28A C29A 1_555 1_555
C28A C32A 1_555 1_555
C30A C31A 1_555 1_555
C33A C34A 1_555 1_555
C33A C35A 1_555 1_555
C33A C38A 1_555 1_555
C34A C35A 1_555 1_555
C34A C36A 1_555 1_555
C34A C37A 1_555 1_555
H23A C36A 1_555 1_555
H23A C37A 1_555 1_555
C35A C36A 1_555 1_555
C35A C38A 1_555 1_555
C35A O1A 1_555 1_555
C35A O2A 1_555 1_555
C36A C37A 1_555 1_555
C36A O1A 1_555 1_555
C38A O2A 1_555 1_555
H26A H28A 1_555 1_555
O1A H27A 1_555 1_555
O1A O2A 1_555 1_555
O2A H28A 1_555 1_555

#END
