
#######################################################################
#
#                 Cambridge Crystallographic Data Centre
#                                CCDC 
#
#######################################################################
#
# If this CIF has been generated from an entry in the Cambridge 
# Structural Database, then it will include bibliographic, chemical, 
# crystal, experimental, refinement or atomic coordinate data resulting 
# from the CCDC's data processing and validation procedures.
#
#######################################################################

data_OJAVUR
_chemical_formula_moiety         'C84 H126 Na7 O84 V7 7-,7(Na1 1+),39(H2 O1)'
_chemical_name_systematic        
'Hepta-sodium bis(\m~14~-\b-cyclodextrin)-hepta-aqua-heptaoxo-hepta-sodium-hepta-vanadium nonatriacontahydrate'
_symmetry_cell_setting           monoclinic
_symmetry_space_group_name_H-M   'P 21'
_symmetry_Int_Tables_number      4
_space_group_name_Hall           'P 2yb'
loop_
_symmetry_equiv_pos_site_id
_symmetry_equiv_pos_as_xyz
1 x,y,z
2 -x,1/2+y,-z
_cell_length_a                   21.322(8)
_cell_length_b                   18.694(7)
_cell_length_c                   23.798(9)
_cell_angle_alpha                90
_cell_angle_beta                 100.184(6)
_cell_angle_gamma                90
_cell_volume                     9336.28
_exptl_crystal_colour            blue
_exptl_crystal_description       plate
_cell_formula_units_Z            2
loop_
_atom_site_label
_atom_site_type_symbol
_atom_site_fract_x
_atom_site_fract_y
_atom_site_fract_z
V1 V 1.05215(7) 0.31038(12) 0.21926(8)
V2 V 1.01287(7) 0.33138(9) 0.47854(7)
V3 V 0.75962(7) 0.30202(9) 0.59024(7)
V4 V 0.47653(6) 0.25309(9) 0.45507(7)
V5 V 0.38190(7) 0.21707(9) 0.18784(7)
V6 V 0.54109(8) 0.20572(10) -0.01760(7)
V7 V 0.84206(9) 0.25154(19) -0.00599(9)
Na1 Na 0.99431(18) 0.3150(2) 0.33893(17)
Na2 Na 0.86945(15) 0.3118(2) 0.50746(17)
Na3 Na 0.63139(14) 0.2799(2) 0.49012(17)
Na4 Na 0.47181(18) 0.2401(2) 0.31610(16)
Na5 Na 0.48990(17) 0.2169(2) 0.10613(15)
Na6 Na 0.69520(19) 0.2331(3) 0.0222(2)
Na7 Na 0.9196(2) 0.2779(4) 0.1248(2)
O1 O 1.1250(3) 0.3214(5) 0.2092(3)
O2 O 1.0784(3) 0.3441(4) 0.5236(3)
O3 O 0.7670(3) 0.3111(4) 0.6604(3)
O4 O 0.4194(3) 0.2512(4) 0.4933(3)
O5 O 0.3058(4) 0.2059(6) 0.1696(4)
O6 O 0.5005(3) 0.1915(4) -0.0807(3)
O7 O 0.8692(4) 0.2567(9) -0.0681(3)
O8 O 0.8822(4) 0.3011(7) 0.3131(5)
O9 O 0.8120(4) 0.2835(6) 0.4145(4)
O10 O 0.6707(4) 0.2770(5) 0.4052(3)
O11 O 0.5764(4) 0.2557(6) 0.2995(4)
O12 O 0.5900(5) 0.2459(6) 0.1697(4)
O13 O 0.7079(5) 0.2406(7) 0.1235(3)
O14 O 0.8407(5) 0.2785(6) 0.1806(4)
O15 O 1.0068(3) 0.2295(5) 0.1781(3)
O16 O 1.0572(3) 0.2457(4) 0.2841(3)
O17 O 1.0003(3) 0.3657(6) 0.1591(3)
O18 O 1.0247(3) 0.3799(4) 0.2674(3)
O19 O 1.0204(2) 0.2566(4) 0.4227(2)
O20 O 0.9695(3) 0.2564(4) 0.5130(3)
O21 O 1.0175(3) 0.3993(4) 0.4144(3)
O22 O 0.9435(3) 0.3942(3) 0.4914(3)
O23 O 0.8209(2) 0.2390(3) 0.5626(3)
O24 O 0.7018(2) 0.2197(3) 0.5706(2)
O25 O 0.8102(3) 0.3795(3) 0.5643(3)
O26 O 0.6926(3) 0.3585(3) 0.5480(3)
O27 O 0.5508(2) 0.1967(3) 0.4811(3)
O28 O 0.4571(2) 0.1735(3) 0.4013(2)
O29 O 0.5300(2) 0.3362(3) 0.4865(3)
O30 O 0.4582(2) 0.3157(3) 0.3889(2)
O31 O 0.4232(3) 0.1613(3) 0.2521(3)
O32 O 0.4198(3) 0.1467(3) 0.1442(3)
O33 O 0.3933(3) 0.2963(4) 0.2428(3)
O34 O 0.4172(3) 0.2858(3) 0.1416(2)
O35 O 0.5218(3) 0.1417(4) 0.0406(3)
O36 O 0.6156(3) 0.1433(4) -0.0115(3)
O37 O 0.4912(3) 0.2785(3) 0.0187(3)
O38 O 0.5995(3) 0.2860(4) -0.0128(3)
O39 O 0.7851(3) 0.1754(6) 0.0050(3)
O40 O 0.9055(3) 0.1919(7) 0.0480(4)
O41 O 0.7616(3) 0.3081(7) -0.0224(3)
O42 O 0.8731(3) 0.3337(6) 0.0411(3)
O43 O 0.9206(3) 0.1112(4) 0.1499(3)
O44 O 1.0269(3) 0.0556(4) 0.2831(3)
O45 O 1.0168(5) -0.0478(6) 0.2014(4)
H1 H 1.0097 -0.0895 0.1887
O46 O 0.9865(3) 0.1433(4) 0.3390(3)
O47 O 0.9568(3) 0.0655(3) 0.4758(3)
O48 O 1.0295(3) -0.0239(3) 0.4129(3)
H2 H 1.0346 -0.0655 0.4011
O49 O 0.8741(3) 0.1405(3) 0.4906(3)
O50 O 0.7467(3) 0.0354(3) 0.5395(3)
O51 O 0.8688(4) -0.0314(5) 0.5618(5)
H3 H 0.8916 -0.0680 0.5614
O52 O 0.6654(2) 0.1084(3) 0.4873(2)
O53 O 0.5347(2) -0.0036(3) 0.4100(2)
O54 O 0.6398(4) -0.0969(4) 0.4101(4)
H4 H 0.6615 -0.1316 0.4251
O55 O 0.5098(3) 0.0724(3) 0.3311(2)
O56 O 0.4859(3) -0.0297(3) 0.1948(2)
O57 O 0.4616(6) -0.1095(5) 0.2861(5)
H5 H 0.4342 -0.0861 0.2637
O58 O 0.5366(3) 0.0607(3) 0.1464(2)
O59 O 0.6477(3) -0.0274(4) 0.0644(4)
O60 O 0.5766(6) -0.1270(7) 0.1292(5)
H6 H 0.5896 -0.1454 0.1012
O61 O 0.7148(4) 0.0702(4) 0.0634(3)
O62 O 0.8860(5) 0.0122(6) 0.0927(4)
O63 O 0.8030(8) -0.0848(10) 0.0443(6)
H7 H 0.7932 -0.1280 0.0379
O64 O 0.9383(3) 0.4754(4) 0.3195(3)
O65 O 0.9324(4) 0.5477(5) 0.1739(4)
O66 O 0.8639(15) 0.6487(11) 0.2182(12)
H8 H 0.8303 0.6318 0.2267
O67 O 0.8818(3) 0.4468(4) 0.1260(3)
O68 O 0.7485(3) 0.4974(6) 0.0106(4)
O69 O 0.7586(10) 0.6227(12) 0.0626(9)
H9 H 0.7612 0.6652 0.0518
O70 O 0.6842(3) 0.4051(4) 0.0300(3)
O71 O 0.5203(3) 0.4709(4) 0.0343(2)
O72 O 0.5950(3) 0.5689(3) -0.0154(3)
H10 H 0.6179 0.5466 -0.0348
O73 O 0.5018(3) 0.3873(3) 0.1035(3)
O74 O 0.4301(3) 0.4839(3) 0.2175(3)
O75 O 0.4305(6) 0.5643(6) 0.1290(6)
H11 H 0.4332 0.5657 0.0942
O76 O 0.4729(3) 0.4110(3) 0.2943(2)
O77 O 0.5221(3) 0.5165(3) 0.4250(3)
O78 O 0.4356(5) 0.5843(4) 0.3312(3)
H12 H 0.4229 0.5753 0.3619
O79 O 0.6133(2) 0.4439(3) 0.4592(3)
O80 O 0.7583(3) 0.5551(3) 0.5057(3)
O81 O 0.6482(5) 0.6240(6) 0.5211(7)
H13 H 0.6240 0.6597 0.5169
O82 O 0.8245(2) 0.4727(3) 0.4687(3)
O83 O 0.9298(3) 0.5666(4) 0.3859(3)
O84 O 0.8122(6) 0.6530(7) 0.3552(5)
H14 H 0.8425 0.6576 0.3373
C1 C 1.0381(4) 0.1207(6) 0.3115(4)
H15 H 1.0781 0.1173 0.3406
C2 C 1.0472(4) 0.1739(6) 0.2669(4)
H16 H 1.0856 0.1586 0.2512
C3 C 0.9927(5) 0.1784(6) 0.2174(5)
H17 H 0.9543 0.1954 0.2323
C4 C 0.9770(5) 0.1020(7) 0.1902(4)
H18 H 1.0123 0.0864 0.1703
C5 C 0.9709(4) 0.0507(7) 0.2366(4)
H19 H 0.9327 0.0653 0.2530
C6 C 0.9642(6) -0.0233(7) 0.2230(5)
H20 H 0.9600 -0.0508 0.2577
H21 H 0.9250 -0.0309 0.1943
C7 C 0.9406(3) 0.1248(5) 0.5036(4)
H22 H 0.9515 0.1151 0.5455
C8 C 0.9806(4) 0.1867(5) 0.4909(5)
H23 H 1.0256 0.1740 0.5078
C9 C 0.9802(4) 0.2002(5) 0.4291(5)
H24 H 0.9361 0.2157 0.4120
C10 C 0.9958(4) 0.1295(5) 0.3948(5)
H25 H 1.0411 0.1149 0.4081
C11 C 0.9501(4) 0.0725(5) 0.4146(4)
H26 H 0.9049 0.0844 0.3980
C12 C 0.9657(4) -0.0036(5) 0.3962(4)
H27 H 0.9385 -0.0381 0.4125
H28 H 0.9544 -0.0069 0.3541
C13 C 0.7027(4) 0.0922(5) 0.5402(4)
H29 H 0.6725 0.0763 0.5655
C14 C 0.7370(4) 0.1568(5) 0.5684(4)
H30 H 0.7583 0.1437 0.6079
C15 C 0.7892(3) 0.1780(5) 0.5324(4)
H31 H 0.7682 0.1929 0.4932
C16 C 0.8332(4) 0.1183(5) 0.5284(4)
H32 H 0.8584 0.1067 0.5669
C17 C 0.7947(4) 0.0533(5) 0.5030(4)
H33 H 0.7726 0.0643 0.4633
C18 C 0.8357(5) -0.0155(6) 0.5031(8)
H34 H 0.8081 -0.0563 0.4882
H35 H 0.8675 -0.0086 0.4778
C19 C 0.4926(4) 0.0505(5) 0.3821(4)
H36 H 0.4487 0.0299 0.3733
C20 C 0.4919(4) 0.1110(5) 0.4230(4)
H37 H 0.4733 0.0930 0.4560
C21 C 0.5592(4) 0.1376(4) 0.4459(3)
H38 H 0.5774 0.1561 0.4128
C22 C 0.6024(4) 0.0785(5) 0.4734(4)
H39 H 0.5878 0.0596 0.5082
C23 C 0.5984(5) 0.0231(6) 0.4290(5)
H40 H 0.6156 0.0425 0.3956
C24 C 0.6348(5) -0.0481(5) 0.4503(5)
H41 H 0.6782 -0.0352 0.4698
H42 H 0.6127 -0.0705 0.4791
C25 C 0.4742(6) 0.0293(6) 0.1551(5)
H43 H 0.4503 0.0117 0.1177
C26 C 0.4351(5) 0.0819(5) 0.1793(4)
H44 H 0.3936 0.0579 0.1814
C27 C 0.4615(5) 0.1045(5) 0.2368(4)
H45 H 0.5034 0.1271 0.2339
C28 C 0.4774(5) 0.0445(5) 0.2786(5)
H46 H 0.4366 0.0226 0.2853
C29 C 0.5153(7) -0.0128(5) 0.2532(4)
H47 H 0.5583 0.0076 0.2520
C30 C 0.5249(6) -0.0794(5) 0.2855(4)
H48 H 0.5473 -0.0701 0.3249
H49 H 0.5508 -0.1131 0.2670
C31 C 0.6662(5) 0.0298(7) 0.0302(5)
H50 H 0.6796 0.0114 -0.0053
C32 C 0.6067(4) 0.0782(5) 0.0164(4)
H51 H 0.5754 0.0505 -0.0115
C33 C 0.5719(5) 0.0957(6) 0.0659(4)
H52 H 0.6019 0.1261 0.0930
C34 C 0.5581(5) 0.0345(6) 0.0981(3)
H53 H 0.5246 0.0042 0.0747
C35 C 0.6215(5) -0.0069(6) 0.1119(5)
H54 H 0.6527 0.0274 0.1337
C36 C 0.6186(6) -0.0705(7) 0.1521(6)
H55 H 0.6621 -0.0904 0.1631
H56 H 0.6052 -0.0527 0.1874
C37 C 0.9172(6) 0.0772(10) 0.0970(5)
H57 H 0.9618 0.0680 0.0914
C38 C 0.8858(6) 0.1191(12) 0.0482(6)
H58 H 0.8890 0.0949 0.0114
C39 C 0.8106(5) 0.1310(10) 0.0549(8)
H59 H 0.8077 0.1565 0.0913
C40 C 0.7799(5) 0.0600(9) 0.0532(6)
H60 H 0.7780 0.0393 0.0141
C41 C 0.8196(5) 0.0121(10) 0.0955(7)
H61 H 0.8174 0.0344 0.1333
C42 C 0.7982(9) -0.0675(10) 0.1021(7)
H62 H 0.8284 -0.0949 0.1306
H63 H 0.7543 -0.0717 0.1100
C43 C 0.9386(5) 0.4812(9) 0.1400(6)
H64 H 0.9548 0.4941 0.1043
C44 C 0.9893(5) 0.4340(8) 0.1791(5)
H65 H 1.0307 0.4604 0.1838
C45 C 0.9731(5) 0.4225(7) 0.2416(4)
H66 H 0.9333 0.3933 0.2381
C46 C 0.9611(5) 0.4937(7) 0.2668(4)
H67 H 1.0029 0.5187 0.2774
C47 C 0.9159(5) 0.5435(7) 0.2292(5)
H68 H 0.8716 0.5243 0.2256
C48 C 0.9179(9) 0.6184(8) 0.2545(8)
H69 H 0.9124 0.6177 0.2950
H70 H 0.9578 0.6438 0.2512
C49 C 0.7242(5) 0.4281(9) -0.0107(5)
H71 H 0.6987 0.4322 -0.0501
C50 C 0.7783(5) 0.3777(10) -0.0094(6)
H72 H 0.8030 0.3945 -0.0389
C51 C 0.8251(5) 0.3808(6) 0.0498(5)
H73 H 0.8030 0.3610 0.0800
C52 C 0.8478(5) 0.4474(8) 0.0659(6)
H74 H 0.8769 0.4644 0.0401
C53 C 0.7932(6) 0.5107(11) 0.0719(8)
H75 H 0.7725 0.5093 0.1065
C54 C 0.8238(11) 0.5812(10) 0.0584(10)
H76 H 0.8352 0.5826 0.0199
H77 H 0.8603 0.5959 0.0879
C55 C 0.4893(4) 0.4052(6) 0.0460(5)
H78 H 0.4423 0.4100 0.0331
C56 C 0.5144(4) 0.3495(6) 0.0112(4)
H79 H 0.4998 0.3626 -0.0298
C57 C 0.5847(4) 0.3432(6) 0.0203(4)
H80 H 0.5988 0.3290 0.0611
C58 C 0.6154(4) 0.4135(5) 0.0130(3)
H81 H 0.6056 0.4275 -0.0282
C59 C 0.5921(4) 0.4721(5) 0.0486(4)
H82 H 0.6056 0.4600 0.0899
C60 C 0.6080(5) 0.5455(6) 0.0401(4)
H83 H 0.5844 0.5760 0.0633
H84 H 0.6541 0.5523 0.0548
C61 C 0.4199(4) 0.4276(5) 0.2534(3)
H85 H 0.3844 0.4415 0.2736
C62 C 0.3980(4) 0.3640(5) 0.2153(4)
H86 H 0.3553 0.3757 0.1923
C63 C 0.4440(4) 0.3471(5) 0.1733(3)
H87 H 0.4858 0.3324 0.1965
C64 C 0.4560(4) 0.4097(5) 0.1370(4)
H88 H 0.4154 0.4225 0.1110
C65 C 0.4793(5) 0.4764(5) 0.1766(4)
H89 H 0.5194 0.4599 0.2016
C66 C 0.4923(6) 0.5539(6) 0.1623(5)
H90 H 0.5007 0.5852 0.1964
H91 H 0.5269 0.5587 0.1397
C67 C 0.5513(5) 0.4637(5) 0.4624(4)
H92 H 0.5515 0.4813 0.5021
C68 C 0.5077(4) 0.3989(5) 0.4535(3)
H93 H 0.4652 0.4128 0.4623
C69 C 0.4987(4) 0.3724(4) 0.3933(4)
H94 H 0.5408 0.3554 0.3855
C70 C 0.4742(4) 0.4343(5) 0.3500(4)
H95 H 0.4300 0.4477 0.3547
C71 C 0.5189(4) 0.5008(5) 0.3655(4)
H96 H 0.5626 0.4882 0.3589
C72 C 0.4999(5) 0.5667(6) 0.3367(5)
H97 H 0.5253 0.6059 0.3574
H98 H 0.5108 0.5643 0.2980
C73 C 0.8065(4) 0.4988(5) 0.5196(5)
H99 H 0.8448 0.5190 0.5450
C74 C 0.7772(3) 0.4378(4) 0.5522(4)
H100 H 0.7678 0.4582 0.5887
C75 C 0.7136(4) 0.4137(5) 0.5157(4)
H101 H 0.7228 0.3926 0.4794
C76 C 0.6649(4) 0.4762(5) 0.5001(4)
H102 H 0.6493 0.4951 0.5345
C77 C 0.6978(4) 0.5350(5) 0.4699(5)
H103 H 0.7041 0.5193 0.4311
C78 C 0.6575(5) 0.5994(7) 0.4668(6)
H104 H 0.6775 0.6381 0.4477
H105 H 0.6155 0.5887 0.4432
C79 C 0.9670(4) 0.5113(6) 0.3678(5)
H106 H 1.0079 0.5324 0.3604
C80 C 0.9822(4) 0.4612(5) 0.4236(4)
H107 H 1.0073 0.4895 0.4555
C81 C 0.9216(4) 0.4356(5) 0.4418(4)
H108 H 0.8964 0.4052 0.4113
C82 C 0.8833(4) 0.5006(5) 0.4535(4)
H109 H 0.9075 0.5292 0.4858
C83 C 0.8693(5) 0.5451(6) 0.4003(5)
H110 H 0.8436 0.5173 0.3684
C84 C 0.8348(6) 0.6213(8) 0.4093(5)
H111 H 0.7988 0.6134 0.4297
H112 H 0.8657 0.6538 0.4326
loop_
_geom_bond_atom_site_label_1
_geom_bond_atom_site_label_2
_geom_bond_site_symmetry_1
_geom_bond_site_symmetry_2
V1 O1 1_555 1_555
V2 O2 1_555 1_555
V3 O3 1_555 1_555
V4 O4 1_555 1_555
V5 O5 1_555 1_555
V6 O6 1_555 1_555
V7 O7 1_555 1_555
Na1 O8 1_555 1_555
Na2 O9 1_555 1_555
Na3 O10 1_555 1_555
Na4 O11 1_555 1_555
Na5 O12 1_555 1_555
Na6 O13 1_555 1_555
Na7 O14 1_555 1_555
O15 V1 1_555 1_555
O16 V1 1_555 1_555
O17 V1 1_555 1_555
O18 V1 1_555 1_555
O19 V2 1_555 1_555
O20 V2 1_555 1_555
O21 V2 1_555 1_555
O22 V2 1_555 1_555
O23 V3 1_555 1_555
O24 V3 1_555 1_555
O25 V3 1_555 1_555
O26 V3 1_555 1_555
O27 V4 1_555 1_555
O28 V4 1_555 1_555
O29 V4 1_555 1_555
O30 V4 1_555 1_555
O31 V5 1_555 1_555
O32 V5 1_555 1_555
O33 V5 1_555 1_555
O34 V5 1_555 1_555
O35 V6 1_555 1_555
O36 V6 1_555 1_555
O37 V6 1_555 1_555
O38 V6 1_555 1_555
O39 V7 1_555 1_555
O40 V7 1_555 1_555
O41 V7 1_555 1_555
O42 V7 1_555 1_555
O43 C4 1_555 1_555
O44 C1 1_555 1_555
O45 H1 1_555 1_555
O46 C1 1_555 1_555
O47 C7 1_555 1_555
O48 H2 1_555 1_555
O49 C7 1_555 1_555
O50 C13 1_555 1_555
O51 H3 1_555 1_555
O52 C13 1_555 1_555
O53 C19 1_555 1_555
O54 H4 1_555 1_555
O55 C19 1_555 1_555
O56 C25 1_555 1_555
O57 H5 1_555 1_555
O58 C25 1_555 1_555
O59 C31 1_555 1_555
O60 H6 1_555 1_555
O61 C31 1_555 1_555
O62 C37 1_555 1_555
O63 H7 1_555 1_555
O64 C46 1_555 1_555
O65 C43 1_555 1_555
O66 H8 1_555 1_555
O67 C43 1_555 1_555
O68 C49 1_555 1_555
O69 H9 1_555 1_555
O70 C49 1_555 1_555
O71 C55 1_555 1_555
O72 H10 1_555 1_555
O73 C55 1_555 1_555
O74 C61 1_555 1_555
O75 H11 1_555 1_555
O76 C61 1_555 1_555
O77 C67 1_555 1_555
O78 H12 1_555 1_555
O79 C67 1_555 1_555
O80 C73 1_555 1_555
O81 H13 1_555 1_555
O82 C73 1_555 1_555
O83 C79 1_555 1_555
O84 H14 1_555 1_555
C1 H15 1_555 1_555
C2 O16 1_555 1_555
H16 C2 1_555 1_555
C3 O15 1_555 1_555
H17 C3 1_555 1_555
C4 C3 1_555 1_555
H18 C4 1_555 1_555
C5 O44 1_555 1_555
H19 C5 1_555 1_555
C6 O45 1_555 1_555
H20 C6 1_555 1_555
H21 C6 1_555 1_555
C7 H22 1_555 1_555
C8 O20 1_555 1_555
H23 C8 1_555 1_555
C9 O19 1_555 1_555
H24 C9 1_555 1_555
C10 O46 1_555 1_555
H25 C10 1_555 1_555
C11 O47 1_555 1_555
H26 C11 1_555 1_555
C12 O48 1_555 1_555
H27 C12 1_555 1_555
H28 C12 1_555 1_555
C13 H29 1_555 1_555
C14 O24 1_555 1_555
H30 C14 1_555 1_555
C15 O23 1_555 1_555
H31 C15 1_555 1_555
C16 O49 1_555 1_555
H32 C16 1_555 1_555
C17 O50 1_555 1_555
H33 C17 1_555 1_555
C18 O51 1_555 1_555
H34 C18 1_555 1_555
H35 C18 1_555 1_555
C19 H36 1_555 1_555
C20 O28 1_555 1_555
H37 C20 1_555 1_555
C21 O27 1_555 1_555
H38 C21 1_555 1_555
C22 O52 1_555 1_555
H39 C22 1_555 1_555
C23 O53 1_555 1_555
H40 C23 1_555 1_555
C24 O54 1_555 1_555
H41 C24 1_555 1_555
H42 C24 1_555 1_555
C25 H43 1_555 1_555
C26 O32 1_555 1_555
H44 C26 1_555 1_555
C27 O31 1_555 1_555
H45 C27 1_555 1_555
C28 O55 1_555 1_555
H46 C28 1_555 1_555
C29 O56 1_555 1_555
H47 C29 1_555 1_555
C30 O57 1_555 1_555
H48 C30 1_555 1_555
H49 C30 1_555 1_555
C31 H50 1_555 1_555
C32 O36 1_555 1_555
H51 C32 1_555 1_555
C33 O35 1_555 1_555
H52 C33 1_555 1_555
C34 O58 1_555 1_555
H53 C34 1_555 1_555
C35 O59 1_555 1_555
H54 C35 1_555 1_555
C36 O60 1_555 1_555
H55 C36 1_555 1_555
H56 C36 1_555 1_555
C37 O43 1_555 1_555
H57 C37 1_555 1_555
C38 O40 1_555 1_555
H58 C38 1_555 1_555
C39 O39 1_555 1_555
H59 C39 1_555 1_555
C40 O61 1_555 1_555
H60 C40 1_555 1_555
C41 O62 1_555 1_555
H61 C41 1_555 1_555
C42 O63 1_555 1_555
H62 C42 1_555 1_555
H63 C42 1_555 1_555
C43 H64 1_555 1_555
C44 O17 1_555 1_555
H65 C44 1_555 1_555
C45 O18 1_555 1_555
H66 C45 1_555 1_555
C46 C45 1_555 1_555
H67 C46 1_555 1_555
C47 O65 1_555 1_555
H68 C47 1_555 1_555
C48 O66 1_555 1_555
H69 C48 1_555 1_555
H70 C48 1_555 1_555
C49 H71 1_555 1_555
C50 O41 1_555 1_555
H72 C50 1_555 1_555
C51 O42 1_555 1_555
H73 C51 1_555 1_555
C52 O67 1_555 1_555
H74 C52 1_555 1_555
C53 O68 1_555 1_555
H75 C53 1_555 1_555
C54 O69 1_555 1_555
H76 C54 1_555 1_555
H77 C54 1_555 1_555
C55 H78 1_555 1_555
C56 O37 1_555 1_555
H79 C56 1_555 1_555
C57 O38 1_555 1_555
H80 C57 1_555 1_555
C58 O70 1_555 1_555
H81 C58 1_555 1_555
C59 O71 1_555 1_555
H82 C59 1_555 1_555
C60 O72 1_555 1_555
H83 C60 1_555 1_555
H84 C60 1_555 1_555
C61 H85 1_555 1_555
C62 O33 1_555 1_555
H86 C62 1_555 1_555
C63 O34 1_555 1_555
H87 C63 1_555 1_555
C64 O73 1_555 1_555
H88 C64 1_555 1_555
C65 O74 1_555 1_555
H89 C65 1_555 1_555
C66 O75 1_555 1_555
H90 C66 1_555 1_555
H91 C66 1_555 1_555
C67 H92 1_555 1_555
C68 O29 1_555 1_555
H93 C68 1_555 1_555
C69 O30 1_555 1_555
H94 C69 1_555 1_555
C70 O76 1_555 1_555
H95 C70 1_555 1_555
C71 O77 1_555 1_555
H96 C71 1_555 1_555
C72 O78 1_555 1_555
H97 C72 1_555 1_555
H98 C72 1_555 1_555
C73 H99 1_555 1_555
C74 O25 1_555 1_555
H100 C74 1_555 1_555
C75 O26 1_555 1_555
H101 C75 1_555 1_555
C76 O79 1_555 1_555
H102 C76 1_555 1_555
C77 O80 1_555 1_555
H103 C77 1_555 1_555
C78 O81 1_555 1_555
H104 C78 1_555 1_555
H105 C78 1_555 1_555
C79 O64 1_555 1_555
H106 C79 1_555 1_555
C80 O21 1_555 1_555
H107 C80 1_555 1_555
C81 O22 1_555 1_555
H108 C81 1_555 1_555
C82 O82 1_555 1_555
H109 C82 1_555 1_555
C83 O83 1_555 1_555
H110 C83 1_555 1_555
C84 O84 1_555 1_555
H111 C84 1_555 1_555
H112 C84 1_555 1_555
Na1 O16 1_555 1_555
Na1 O18 1_555 1_555
Na1 O19 1_555 1_555
Na1 O21 1_555 1_555
Na2 O20 1_555 1_555
Na2 O22 1_555 1_555
Na2 O23 1_555 1_555
Na2 O25 1_555 1_555
Na3 O24 1_555 1_555
Na3 O26 1_555 1_555
Na3 O27 1_555 1_555
Na3 O29 1_555 1_555
Na4 O28 1_555 1_555
Na4 O30 1_555 1_555
Na4 O31 1_555 1_555
Na4 O33 1_555 1_555
Na5 O32 1_555 1_555
Na5 O34 1_555 1_555
Na5 O35 1_555 1_555
Na5 O37 1_555 1_555
Na6 O36 1_555 1_555
Na6 O38 1_555 1_555
Na6 O39 1_555 1_555
Na6 O41 1_555 1_555
Na7 O15 1_555 1_555
Na7 O17 1_555 1_555
Na7 O40 1_555 1_555
Na7 O42 1_555 1_555
C1 C2 1_555 1_555
C2 C3 1_555 1_555
C4 C5 1_555 1_555
C5 C6 1_555 1_555
C7 C8 1_555 1_555
C8 C9 1_555 1_555
C9 C10 1_555 1_555
C10 C11 1_555 1_555
C11 C12 1_555 1_555
C13 C14 1_555 1_555
C14 C15 1_555 1_555
C15 C16 1_555 1_555
C16 C17 1_555 1_555
C17 C18 1_555 1_555
C19 C20 1_555 1_555
C20 C21 1_555 1_555
C21 C22 1_555 1_555
C22 C23 1_555 1_555
C23 C24 1_555 1_555
C25 C26 1_555 1_555
C26 C27 1_555 1_555
C27 C28 1_555 1_555
C28 C29 1_555 1_555
C29 C30 1_555 1_555
C31 C32 1_555 1_555
C32 C33 1_555 1_555
C33 C34 1_555 1_555
C34 C35 1_555 1_555
C35 C36 1_555 1_555
C37 C38 1_555 1_555
C38 C39 1_555 1_555
C39 C40 1_555 1_555
C40 C41 1_555 1_555
C41 C42 1_555 1_555
C43 C44 1_555 1_555
C44 C45 1_555 1_555
C46 C47 1_555 1_555
C47 C48 1_555 1_555
C49 C50 1_555 1_555
C50 C51 1_555 1_555
C51 C52 1_555 1_555
C52 C53 1_555 1_555
C53 C54 1_555 1_555
C55 C56 1_555 1_555
C56 C57 1_555 1_555
C57 C58 1_555 1_555
C58 C59 1_555 1_555
C59 C60 1_555 1_555
C61 C62 1_555 1_555
C62 C63 1_555 1_555
C63 C64 1_555 1_555
C64 C65 1_555 1_555
C65 C66 1_555 1_555
C67 C68 1_555 1_555
C68 C69 1_555 1_555
C69 C70 1_555 1_555
C70 C71 1_555 1_555
C71 C72 1_555 1_555
C73 C74 1_555 1_555
C74 C75 1_555 1_555
C75 C76 1_555 1_555
C76 C77 1_555 1_555
C77 C78 1_555 1_555
C79 C80 1_555 1_555
C80 C81 1_555 1_555
C81 C82 1_555 1_555
C82 C83 1_555 1_555
C83 C84 1_555 1_555

#END
