
#######################################################################
#
#                 Cambridge Crystallographic Data Centre
#                                CCDC 
#
#######################################################################
#
# If this CIF has been generated from an entry in the Cambridge 
# Structural Database, then it will include bibliographic, chemical, 
# crystal, experimental, refinement or atomic coordinate data resulting 
# from the CCDC's data processing and validation procedures.
#
#######################################################################

data_OJECAI
_chemical_formula_moiety         
'C82 H92 N4 O2 P4 Pd2 Si4 4+,4(C1 F3 O3 S1 1-),6(C3 H6 O1)'
_chemical_name_systematic        
'bis(\m~2~-1,3-bis(3-pyridyl)tetramethyldisiloxane)-bis(1,3-bis(diphenyphosphino)propane)-di-palladium(ii) tetrakis(trifluoromethanesulfonate) acetone solvate'
_symmetry_cell_setting           triclinic
_symmetry_space_group_name_H-M   'P -1'
_symmetry_Int_Tables_number      2
_space_group_name_Hall           '-P 1'
loop_
_symmetry_equiv_pos_site_id
_symmetry_equiv_pos_as_xyz
1 x,y,z
2 -x,-y,-z
_cell_length_a                   14.0347(10)
_cell_length_b                   14.0630(10)
_cell_length_c                   18.4132(13)
_cell_angle_alpha                82.0920(10)
_cell_angle_beta                 70.3030(10)
_cell_angle_gamma                62.1430(10)
_cell_volume                     3024.2
_exptl_crystal_colour            colorless
_exptl_crystal_description       block
_cell_formula_units_Z            1
loop_
_atom_site_label
_atom_site_type_symbol
_atom_site_fract_x
_atom_site_fract_y
_atom_site_fract_z
Pd1 Pd 0.73557(3) 0.30854(2) 0.249651(17)
P1 P 0.72997(9) 0.40515(8) 0.34142(6)
P2 P 0.74230(9) 0.16885(8) 0.33071(6)
O1 O 0.4791(3) 0.2991(3) 0.00645(19)
N1 N 0.7345(3) 0.2306(3) 0.1606(2)
N2 N 0.2675(3) 0.5699(3) -0.1693(2)
Si1 Si 0.48821(10) 0.22729(9) 0.08353(7)
Si2 Si 0.51249(12) 0.32282(14) -0.08386(9)
C1 C 0.5372(4) 0.5991(4) 0.3467(3)
H1 H 0.4957 0.5598 0.3715
C2 C 0.4802(4) 0.7068(4) 0.3321(3)
H2 H 0.3997 0.7422 0.3475
C3 C 0.5415(5) 0.7625(4) 0.2949(4)
H3 H 0.5026 0.8367 0.2850
C4 C 0.6574(5) 0.7122(4) 0.2722(4)
H4 H 0.6985 0.7511 0.2457
C5 C 0.7151(4) 0.6041(4) 0.2878(3)
H5 H 0.7956 0.5694 0.2727
C6 C 0.6553(4) 0.5477(3) 0.3251(2)
C7 C 0.8686(3) 0.3832(3) 0.3409(2)
C8 C 0.8774(4) 0.4297(4) 0.3992(3)
H6 H 0.8120 0.4683 0.4410
C9 C 0.9824(4) 0.4189(4) 0.3954(3)
H7 H 0.9883 0.4511 0.4347
C10 C 1.0779(4) 0.3626(4) 0.3358(3)
H8 H 1.1494 0.3550 0.3344
C11 C 1.0694(4) 0.3170(4) 0.2778(3)
H9 H 1.1352 0.2782 0.2363
C12 C 0.9649(3) 0.3279(3) 0.2800(2)
H10 H 0.9593 0.2973 0.2396
C13 C 0.6578(4) 0.3860(3) 0.4399(2)
H11 H 0.6594 0.4327 0.4746
H12 H 0.5774 0.4088 0.4453
C14 C 0.7107(4) 0.2694(3) 0.4650(2)
H13 H 0.7944 0.2400 0.4464
H14 H 0.6864 0.2676 0.5220
C15 C 0.6771(4) 0.1985(3) 0.4339(2)
H15 H 0.5936 0.2345 0.4456
H16 H 0.6978 0.1297 0.4616
C16 C 0.8860(4) 0.0640(3) 0.3169(2)
C17 C 0.9744(4) 0.0684(3) 0.2558(3)
H17 H 0.9598 0.1289 0.2233
C18 C 1.0837(4) -0.0141(4) 0.2415(3)
H18 H 1.1438 -0.0107 0.1993
C19 C 1.1043(4) -0.1011(4) 0.2892(3)
H19 H 1.1790 -0.1582 0.2797
C20 C 1.0173(4) -0.1059(4) 0.3507(3)
H20 H 1.0328 -0.1660 0.3834
C21 C 0.9079(4) -0.0243(4) 0.3652(3)
H21 H 0.8483 -0.0282 0.4075
C22 C 0.6698(4) 0.1050(3) 0.3084(2)
C23 C 0.7282(4) 0.0151(4) 0.2587(3)
H22 H 0.8088 -0.0187 0.2402
C24 C 0.6682(6) -0.0244(4) 0.2367(3)
H23 H 0.7078 -0.0852 0.2026
C25 C 0.5524(6) 0.0233(5) 0.2635(3)
H24 H 0.5122 -0.0038 0.2471
C26 C 0.4933(5) 0.1103(5) 0.3141(3)
H25 H 0.4130 0.1410 0.3344
C27 C 0.5511(4) 0.1524(4) 0.3352(3)
H26 H 0.5102 0.2143 0.3682
C28 C 0.8315(4) 0.1706(3) 0.1054(3)
H27 H 0.9017 0.1609 0.1085
C29 C 0.8314(4) 0.1234(4) 0.0452(3)
H28 H 0.9009 0.0815 0.0074
C30 C 0.7300(4) 0.1368(4) 0.0394(3)
H29 H 0.7300 0.1029 -0.0018
C31 C 0.6280(3) 0.2002(3) 0.0941(2)
C32 C 0.6359(3) 0.2445(3) 0.1539(2)
H30 H 0.5675 0.2871 0.1923
C33 C 0.4932(4) 0.0969(4) 0.0701(3)
H31 H 0.4213 0.1095 0.0645
H32 H 0.5057 0.0524 0.1150
H33 H 0.5554 0.0599 0.0236
C34 C 0.3677(4) 0.3078(4) 0.1656(3)
H34 H 0.2968 0.3201 0.1584
H35 H 0.3672 0.3770 0.1686
H36 H 0.3749 0.2690 0.2134
C35 C 0.5763(7) 0.1958(7) -0.1396(4)
H37 H 0.6478 0.1457 -0.1299
H38 H 0.5909 0.2110 -0.1948
H39 H 0.5239 0.1636 -0.1235
C36 C 0.6063(6) 0.3874(9) -0.1078(6)
H40 H 0.5689 0.4535 -0.0765
H41 H 0.6228 0.4049 -0.1626
H42 H 0.6772 0.3382 -0.0970
C37 C 0.3752(4) 0.4190(3) -0.1014(2)
C38 C 0.3669(4) 0.4961(3) -0.1584(2)
H43 H 0.4349 0.4970 -0.1916
C39 C 0.1720(4) 0.5671(3) -0.1232(3)
H44 H 0.1017 0.6186 -0.1298
C40 C 0.1721(4) 0.4917(4) -0.0661(3)
H45 H 0.1032 0.4905 -0.0351
C41 C 0.2738(4) 0.4185(4) -0.0551(3)
H46 H 0.2747 0.3672 -0.0156
Pd1A Pd 0.26443(3) 0.69146(2) -0.249651(17)
P1A P 0.27003(9) 0.59485(8) -0.34142(6)
P2A P 0.25770(9) 0.83115(8) -0.33071(6)
O1A O 0.5209(3) 0.7009(3) -0.00645(19)
N1A N 0.2655(3) 0.7694(3) -0.1606(2)
N2A N 0.7325(3) 0.4301(3) 0.1693(2)
Si1A Si 0.51179(10) 0.77271(9) -0.08353(7)
Si2A Si 0.48751(12) 0.67718(14) 0.08386(9)
C1A C 0.4628(4) 0.4009(4) -0.3467(3)
H1A H 0.5043 0.4402 -0.3715
C2A C 0.5198(4) 0.2932(4) -0.3321(3)
H2A H 0.6003 0.2578 -0.3475
C3A C 0.4585(5) 0.2375(4) -0.2949(4)
H3A H 0.4974 0.1633 -0.2850
C4A C 0.3426(5) 0.2878(4) -0.2722(4)
H4A H 0.3015 0.2489 -0.2457
C5A C 0.2849(4) 0.3959(4) -0.2878(3)
H5A H 0.2044 0.4306 -0.2727
C6A C 0.3447(4) 0.4523(3) -0.3251(2)
C7A C 0.1314(3) 0.6168(3) -0.3409(2)
C8A C 0.1226(4) 0.5703(4) -0.3992(3)
H6A H 0.1880 0.5317 -0.4410
C9A C 0.0176(4) 0.5811(4) -0.3954(3)
H7A H 0.0117 0.5489 -0.4347
C10A C -0.0779(4) 0.6374(4) -0.3358(3)
H8A H -0.1494 0.6450 -0.3344
C11A C -0.0694(4) 0.6830(4) -0.2778(3)
H9A H -0.1352 0.7218 -0.2363
C12A C 0.0351(3) 0.6721(3) -0.2800(2)
H10A H 0.0407 0.7027 -0.2396
C13A C 0.3422(4) 0.6140(3) -0.4399(2)
H11A H 0.3406 0.5673 -0.4746
H12A H 0.4226 0.5912 -0.4453
C14A C 0.2893(4) 0.7306(3) -0.4650(2)
H13A H 0.2056 0.7600 -0.4464
H14A H 0.3136 0.7324 -0.5220
C15A C 0.3229(4) 0.8015(3) -0.4339(2)
H15A H 0.4064 0.7655 -0.4456
H16A H 0.3022 0.8703 -0.4616
C16A C 0.1140(4) 0.9360(3) -0.3169(2)
C17A C 0.0256(4) 0.9316(3) -0.2558(3)
H17A H 0.0402 0.8711 -0.2233
C18A C -0.0837(4) 1.0141(4) -0.2415(3)
H18A H -0.1438 1.0107 -0.1993
C19A C -0.1043(4) 1.1011(4) -0.2892(3)
H19A H -0.1790 1.1582 -0.2797
C20A C -0.0173(4) 1.1059(4) -0.3507(3)
H20A H -0.0328 1.1660 -0.3834
C21A C 0.0921(4) 1.0243(4) -0.3652(3)
H21A H 0.1517 1.0282 -0.4075
C22A C 0.3302(4) 0.8950(3) -0.3084(2)
C23A C 0.2718(4) 0.9849(4) -0.2587(3)
H22A H 0.1912 1.0187 -0.2402
C24A C 0.3318(6) 1.0244(4) -0.2367(3)
H23A H 0.2922 1.0852 -0.2026
C25A C 0.4476(6) 0.9767(5) -0.2635(3)
H24A H 0.4878 1.0038 -0.2471
C26A C 0.5067(5) 0.8897(5) -0.3141(3)
H25A H 0.5870 0.8590 -0.3344
C27A C 0.4489(4) 0.8476(4) -0.3352(3)
H26A H 0.4898 0.7857 -0.3682
C28A C 0.1685(4) 0.8294(3) -0.1054(3)
H27A H 0.0983 0.8391 -0.1085
C29A C 0.1686(4) 0.8766(4) -0.0452(3)
H28A H 0.0991 0.9185 -0.0074
C30A C 0.2700(4) 0.8632(4) -0.0394(3)
H29A H 0.2700 0.8971 0.0018
C31A C 0.3720(3) 0.7998(3) -0.0941(2)
C32A C 0.3641(3) 0.7555(3) -0.1539(2)
H30A H 0.4325 0.7129 -0.1923
C33A C 0.5068(4) 0.9031(4) -0.0701(3)
H31A H 0.5787 0.8905 -0.0645
H32A H 0.4943 0.9476 -0.1150
H33A H 0.4446 0.9401 -0.0236
C34A C 0.6323(4) 0.6922(4) -0.1656(3)
H34A H 0.7032 0.6799 -0.1584
H35A H 0.6328 0.6230 -0.1686
H36A H 0.6251 0.7310 -0.2134
C35A C 0.4237(7) 0.8042(7) 0.1396(4)
H37A H 0.3522 0.8543 0.1299
H38A H 0.4091 0.7890 0.1948
H39A H 0.4761 0.8364 0.1235
C36A C 0.3937(6) 0.6126(9) 0.1078(6)
H40A H 0.4311 0.5465 0.0765
H41A H 0.3772 0.5951 0.1626
H42A H 0.3228 0.6618 0.0970
C37A C 0.6248(4) 0.5810(3) 0.1014(2)
C38A C 0.6331(4) 0.5039(3) 0.1584(2)
H43A H 0.5651 0.5030 0.1916
C39A C 0.8280(4) 0.4329(3) 0.1232(3)
H44A H 0.8983 0.3814 0.1298
C40A C 0.8279(4) 0.5083(4) 0.0661(3)
H45A H 0.8968 0.5095 0.0351
C41A C 0.7262(4) 0.5815(4) 0.0551(3)
H46A H 0.7253 0.6328 0.0156
S1 S 0.35286(9) 0.43949(9) 0.36184(7)
O2 O 0.4407(3) 0.4325(3) 0.2915(2)
O3 O 0.3751(3) 0.4478(3) 0.4309(2)
O4 O 0.3050(3) 0.3682(3) 0.3659(2)
F1 F 0.2662(4) 0.6489(3) 0.3556(3)
F2 F 0.1447(3) 0.5904(3) 0.4167(2)
F3 F 0.2076(3) 0.5801(4) 0.2952(2)
C42 C 0.2372(5) 0.5719(5) 0.3569(3)
S2 S 0.16149(9) 0.17817(9) 1.07029(7)
O5 O 0.0458(3) 0.2022(3) 1.11138(19)
O6 O 0.2408(3) 0.0667(3) 1.0716(2)
O7 O 0.1957(3) 0.2546(3) 1.0814(2)
F4 F 0.0897(4) 0.2964(3) 0.9601(2)
F5 F 0.1307(4) 0.1313(3) 0.9501(2)
F6 F 0.2636(3) 0.1800(3) 0.92274(19)
C43 C 0.1629(5) 0.1962(4) 0.9708(3)
O8 O 0.1950(4) -0.0692(3) 0.4350(3)
C44 C 0.0533(4) 0.1072(4) 0.4316(3)
H47 H 0.0062 0.0833 0.4748
H48 H 0.0208 0.1284 0.3891
H49 H 0.0559 0.1688 0.4485
C45 C 0.1698(5) 0.0180(4) 0.4052(3)
C46 C 0.2530(5) 0.0400(5) 0.3401(4)
H50 H 0.3266 -0.0242 0.3281
H51 H 0.2609 0.1000 0.3543
H52 H 0.2266 0.0588 0.2947
O9 O 0.2793(6) 0.1003(6) 0.5024(4)
C47 C 0.1777(9) 0.2766(9) 0.5520(6)
H53 H 0.1151 0.2753 0.5403
H54 H 0.1952 0.3330 0.5224
H55 H 0.1556 0.2914 0.6073
C48 C 0.2783(8) 0.1717(7) 0.5310(4)
C49 C 0.3790(9) 0.1594(9) 0.5464(5)
H56 H 0.4401 0.0865 0.5313
H57 H 0.3609 0.1718 0.6016
H58 H 0.4036 0.2118 0.5167
O10 O -0.0947(5) 0.7168(7) 0.2270(4)
C50 C 0.0692(9) 0.5647(7) 0.1646(6)
H59 H 0.0244 0.5256 0.1882
H60 H 0.1362 0.5349 0.1820
H61 H 0.0933 0.5573 0.1083
C51 C 0.0012(6) 0.6771(7) 0.1871(4)
C52 C 0.0568(7) 0.7467(8) 0.1561(6)
H62 H 0.0040 0.8207 0.1753
H63 H 0.0796 0.7447 0.0996
H64 H 0.1241 0.7212 0.1727
loop_
_geom_bond_atom_site_label_1
_geom_bond_atom_site_label_2
_geom_bond_site_symmetry_1
_geom_bond_site_symmetry_2
Pd1 P1 1_555 1_555
P1 C6 1_555 1_555
P2 Pd1 1_555 1_555
S1 O2 1_555 1_555
S2 O5 1_555 1_555
O1 Si1 1_555 1_555
O3 S1 1_555 1_555
O4 S1 1_555 1_555
O6 S2 1_555 1_555
O7 S2 1_555 1_555
O8 C45 1_555 1_555
O9 C48 1_555 1_555
O10 C51 1_555 1_555
N1 Pd1 1_555 1_555
N2 C38 1_555 1_555
Si1 C31 1_555 1_555
Si2 O1 1_555 1_555
F1 C42 1_555 1_555
F2 C42 1_555 1_555
F3 C42 1_555 1_555
F4 C43 1_555 1_555
F5 C43 1_555 1_555
F6 C43 1_555 1_555
C1 H1 1_555 1_555
C2 C1 1_555 1_555
H2 C2 1_555 1_555
C3 C2 1_555 1_555
H3 C3 1_555 1_555
C4 C3 1_555 1_555
H4 C4 1_555 1_555
C5 C4 1_555 1_555
H5 C5 1_555 1_555
C6 C1 1_555 1_555
C7 P1 1_555 1_555
C8 C7 1_555 1_555
H6 C8 1_555 1_555
C9 C8 1_555 1_555
H7 C9 1_555 1_555
C10 C9 1_555 1_555
H8 C10 1_555 1_555
C11 C10 1_555 1_555
H9 C11 1_555 1_555
C12 C7 1_555 1_555
H10 C12 1_555 1_555
C13 P1 1_555 1_555
H11 C13 1_555 1_555
H12 C13 1_555 1_555
C14 C13 1_555 1_555
H13 C14 1_555 1_555
H14 C14 1_555 1_555
C15 P2 1_555 1_555
H15 C15 1_555 1_555
H16 C15 1_555 1_555
C16 P2 1_555 1_555
C17 C16 1_555 1_555
H17 C17 1_555 1_555
C18 C17 1_555 1_555
H18 C18 1_555 1_555
C19 C18 1_555 1_555
H19 C19 1_555 1_555
C20 C19 1_555 1_555
H20 C20 1_555 1_555
C21 C16 1_555 1_555
H21 C21 1_555 1_555
C22 P2 1_555 1_555
C23 C22 1_555 1_555
H22 C23 1_555 1_555
C24 C23 1_555 1_555
H23 C24 1_555 1_555
C25 C24 1_555 1_555
H24 C25 1_555 1_555
C26 C25 1_555 1_555
H25 C26 1_555 1_555
C27 C22 1_555 1_555
H26 C27 1_555 1_555
C28 N1 1_555 1_555
H27 C28 1_555 1_555
C29 C28 1_555 1_555
H28 C29 1_555 1_555
C30 C29 1_555 1_555
H29 C30 1_555 1_555
C31 C30 1_555 1_555
C32 N1 1_555 1_555
H30 C32 1_555 1_555
C33 Si1 1_555 1_555
H31 C33 1_555 1_555
H32 C33 1_555 1_555
H33 C33 1_555 1_555
C34 Si1 1_555 1_555
H34 C34 1_555 1_555
H35 C34 1_555 1_555
H36 C34 1_555 1_555
C35 Si2 1_555 1_555
H37 C35 1_555 1_555
H38 C35 1_555 1_555
H39 C35 1_555 1_555
C36 Si2 1_555 1_555
H40 C36 1_555 1_555
H41 C36 1_555 1_555
H42 C36 1_555 1_555
C37 Si2 1_555 1_555
C38 C37 1_555 1_555
H43 C38 1_555 1_555
C39 N2 1_555 1_555
H44 C39 1_555 1_555
C40 C39 1_555 1_555
H45 C40 1_555 1_555
C41 C37 1_555 1_555
H46 C41 1_555 1_555
C42 S1 1_555 1_555
C43 S2 1_555 1_555
C44 H47 1_555 1_555
H48 C44 1_555 1_555
H49 C44 1_555 1_555
C45 C44 1_555 1_555
C46 C45 1_555 1_555
H50 C46 1_555 1_555
H51 C46 1_555 1_555
H52 C46 1_555 1_555
C47 H53 1_555 1_555
H54 C47 1_555 1_555
H55 C47 1_555 1_555
C48 C47 1_555 1_555
C49 C48 1_555 1_555
H56 C49 1_555 1_555
H57 C49 1_555 1_555
H58 C49 1_555 1_555
C50 H59 1_555 1_555
H60 C50 1_555 1_555
H61 C50 1_555 1_555
C51 C50 1_555 1_555
C52 C51 1_555 1_555
H62 C52 1_555 1_555
H63 C52 1_555 1_555
H64 C52 1_555 1_555
Pd1A N2 1_555 1_555
P1A Pd1A 1_555 1_555
P2A Pd1A 1_555 1_555
O1A Si1A 1_555 1_555
N1A Pd1A 1_555 1_555
N2A Pd1 1_555 1_555
Si1A C31A 1_555 1_555
Si2A O1A 1_555 1_555
C1A H1A 1_555 1_555
C2A C1A 1_555 1_555
H2A C2A 1_555 1_555
C3A C2A 1_555 1_555
H3A C3A 1_555 1_555
C4A C3A 1_555 1_555
H4A C4A 1_555 1_555
C5A C4A 1_555 1_555
H5A C5A 1_555 1_555
C6A P1A 1_555 1_555
C7A P1A 1_555 1_555
C8A C7A 1_555 1_555
H6A C8A 1_555 1_555
C9A C8A 1_555 1_555
H7A C9A 1_555 1_555
C10A C9A 1_555 1_555
H8A C10A 1_555 1_555
C11A C10A 1_555 1_555
H9A C11A 1_555 1_555
C12A C7A 1_555 1_555
H10A C12A 1_555 1_555
C13A P1A 1_555 1_555
H11A C13A 1_555 1_555
H12A C13A 1_555 1_555
C14A C13A 1_555 1_555
H13A C14A 1_555 1_555
H14A C14A 1_555 1_555
C15A P2A 1_555 1_555
H15A C15A 1_555 1_555
H16A C15A 1_555 1_555
C16A P2A 1_555 1_555
C17A C16A 1_555 1_555
H17A C17A 1_555 1_555
C18A C17A 1_555 1_555
H18A C18A 1_555 1_555
C19A C18A 1_555 1_555
H19A C19A 1_555 1_555
C20A C19A 1_555 1_555
H20A C20A 1_555 1_555
C21A C16A 1_555 1_555
H21A C21A 1_555 1_555
C22A P2A 1_555 1_555
C23A C22A 1_555 1_555
H22A C23A 1_555 1_555
C24A C23A 1_555 1_555
H23A C24A 1_555 1_555
C25A C24A 1_555 1_555
H24A C25A 1_555 1_555
C26A C25A 1_555 1_555
H25A C26A 1_555 1_555
C27A C22A 1_555 1_555
H26A C27A 1_555 1_555
C28A N1A 1_555 1_555
H27A C28A 1_555 1_555
C29A C28A 1_555 1_555
H28A C29A 1_555 1_555
C30A C29A 1_555 1_555
H29A C30A 1_555 1_555
C31A C30A 1_555 1_555
C32A N1A 1_555 1_555
H30A C32A 1_555 1_555
C33A Si1A 1_555 1_555
H31A C33A 1_555 1_555
H32A C33A 1_555 1_555
H33A C33A 1_555 1_555
C34A Si1A 1_555 1_555
H34A C34A 1_555 1_555
H35A C34A 1_555 1_555
H36A C34A 1_555 1_555
C35A Si2A 1_555 1_555
H37A C35A 1_555 1_555
H38A C35A 1_555 1_555
H39A C35A 1_555 1_555
C36A Si2A 1_555 1_555
H40A C36A 1_555 1_555
H41A C36A 1_555 1_555
H42A C36A 1_555 1_555
C37A Si2A 1_555 1_555
C38A N2A 1_555 1_555
H43A C38A 1_555 1_555
C39A N2A 1_555 1_555
H44A C39A 1_555 1_555
C40A C39A 1_555 1_555
H45A C40A 1_555 1_555
C41A C37A 1_555 1_555
H46A C41A 1_555 1_555
C5 C6 1_555 1_555
C11 C12 1_555 1_555
C14 C15 1_555 1_555
C20 C21 1_555 1_555
C26 C27 1_555 1_555
C31 C32 1_555 1_555
C40 C41 1_555 1_555
C1A C6A 1_555 1_555
C5A C6A 1_555 1_555
C11A C12A 1_555 1_555
C14A C15A 1_555 1_555
C20A C21A 1_555 1_555
C26A C27A 1_555 1_555
C31A C32A 1_555 1_555
C37A C38A 1_555 1_555
C40A C41A 1_555 1_555

#END
