# generated using pymatgen
data_H166Pd6C136N45O134
_symmetry_space_group_name_H-M   'P 1'
_cell_length_a   16.90040000
_cell_length_b   20.02800000
_cell_length_c   30.41200000
_cell_angle_alpha   108.50700000
_cell_angle_beta   91.27400000
_cell_angle_gamma   90.73200000
_symmetry_Int_Tables_number   1
_chemical_formula_structural   H166Pd6C136N45O134
_chemical_formula_sum   'H332 Pd12 C272 N90 O268'
_cell_volume   9756.99210559
_cell_formula_units_Z   2
loop_
 _symmetry_equiv_pos_site_id
 _symmetry_equiv_pos_as_xyz
  1  'x, y, z'
loop_
 _atom_site_type_symbol
 _atom_site_label
 _atom_site_symmetry_multiplicity
 _atom_site_fract_x
 _atom_site_fract_y
 _atom_site_fract_z
 _atom_site_occupancy
  H  H1  1  0.525400  0.681200  0.836200  1
  H  H2  1  0.474600  0.318800  0.163800  1
  H  H3  1  0.570200  0.726100  0.780600  1
  H  H4  1  0.429800  0.273900  0.219400  1
  H  H5  1  0.369200  0.653700  0.706300  1
  H  H6  1  0.630800  0.346300  0.293700  1
  H  H7  1  0.330400  0.610300  0.764100  1
  H  H8  1  0.669600  0.389700  0.235900  1
  H  H9  1  0.822800  0.834000  0.614000  1
  H  H10  1  0.177200  0.166000  0.386000  1
  H  H11  1  0.688700  0.810400  0.611700  1
  H  H12  1  0.311300  0.189600  0.388300  1
  H  H13  1  0.715900  0.771400  0.732400  1
  H  H14  1  0.284100  0.228600  0.267600  1
  H  H15  1  0.851400  0.792900  0.730500  1
  H  H16  1  0.148600  0.207100  0.269500  1
  H  H17  1  0.265900  0.681900  0.540700  1
  H  H18  1  0.734100  0.318100  0.459300  1
  H  H19  1  0.336800  0.694400  0.608500  1
  H  H20  1  0.663200  0.305600  0.391500  1
  H  H21  1  0.522400  0.765400  0.554100  1
  H  H22  1  0.477600  0.234600  0.445900  1
  H  H23  1  0.446700  0.749100  0.487300  1
  H  H24  1  0.553300  0.250900  0.512700  1
  H  H25  1  0.319200  0.191900  0.999500  1
  H  H26  1  0.680800  0.808100  0.000500  1
  H  H27  1  0.393600  0.223300  0.946200  1
  H  H28  1  0.606400  0.776700  0.053800  1
  H  H29  1  0.203400  0.184000  0.860000  1
  H  H30  1  0.796600  0.816000  0.140000  1
  H  H31  1  0.132600  0.155000  0.915700  1
  H  H32  1  0.867400  0.845000  0.084300  1
  H  H33  1  0.695200  0.370800  0.821100  1
  H  H34  1  0.304800  0.629200  0.178900  1
  H  H35  1  0.565600  0.333800  0.801700  1
  H  H36  1  0.434400  0.666200  0.198300  1
  H  H37  1  0.560600  0.272400  0.915700  1
  H  H38  1  0.439400  0.727600  0.084300  1
  H  H39  1  0.690900  0.309400  0.931100  1
  H  H40  1  0.309100  0.690600  0.068900  1
  H  H41  1  0.159600  0.223700  0.691900  1
  H  H42  1  0.840400  0.776300  0.308100  1
  H  H43  1  0.214500  0.217700  0.760400  1
  H  H44  1  0.785500  0.782300  0.239600  1
  H  H45  1  0.422000  0.284700  0.725200  1
  H  H46  1  0.578000  0.715300  0.274800  1
  H  H47  1  0.362600  0.287100  0.657300  1
  H  H48  1  0.637400  0.712900  0.342700  1
  H  H49  1  0.229500  0.682600  0.867600  1
  H  H50  1  0.770500  0.317400  0.132400  1
  H  H51  1  0.178900  0.792500  0.901000  1
  H  H52  1  0.821100  0.207500  0.099000  1
  H  H53  1  0.399700  0.866400  0.940000  1
  H  H54  1  0.600300  0.133600  0.060000  1
  H  H55  1  0.444500  0.753800  0.907900  1
  H  H56  1  0.555500  0.246200  0.092100  1
  H  H57  1  0.294300  0.062500  0.026800  1
  H  H58  1  0.705700  0.937500  0.973200  1
  H  H59  1  0.341400  0.951100  0.996100  1
  H  H60  1  0.658600  0.048900  0.003900  1
  H  H61  1  0.154700  0.904300  0.906500  1
  H  H62  1  0.845300  0.095700  0.093500  1
  H  H63  1  0.111700  0.017100  0.940700  1
  H  H64  1  0.888300  0.982900  0.059300  1
  H  H65  1  0.174400  0.791800  0.508700  1
  H  H66  1  0.825600  0.208200  0.491300  1
  H  H67  1  0.157500  0.908700  0.545700  1
  H  H68  1  0.842500  0.091300  0.454300  1
  H  H69  1  0.333600  0.950700  0.471700  1
  H  H70  1  0.666400  0.049300  0.528300  1
  H  H71  1  0.348600  0.832600  0.439200  1
  H  H72  1  0.651400  0.167400  0.560800  1
  H  H73  1  0.322600  0.172800  0.560900  1
  H  H74  1  0.677400  0.827200  0.439100  1
  H  H75  1  0.342600  0.055100  0.526300  1
  H  H76  1  0.657400  0.944900  0.473700  1
  H  H77  1  0.123000  0.016200  0.560100  1
  H  H78  1  0.877000  0.983800  0.439900  1
  H  H79  1  0.109600  0.134600  0.595300  1
  H  H80  1  0.890400  0.865400  0.404700  1
  H  H81  1  0.915900  0.967800  0.657800  1
  H  H82  1  0.084100  0.032200  0.342200  1
  H  H83  1  0.878700  0.078900  0.701000  1
  H  H84  1  0.121300  0.921100  0.299000  1
  H  H85  1  0.914200  0.024800  0.815900  1
  H  H86  1  0.085800  0.975200  0.184100  1
  H  H87  1  0.953200  0.916100  0.769600  1
  H  H88  1  0.046800  0.083900  0.230400  1
  H  H89  1  0.823100  0.226700  0.896600  1
  H  H90  1  0.176900  0.773300  0.103400  1
  H  H91  1  0.843600  0.113600  0.850700  1
  H  H92  1  0.156400  0.886400  0.149300  1
  H  H93  1  0.892300  0.187900  0.746100  1
  H  H94  1  0.107700  0.812100  0.253900  1
  H  H95  1  0.864800  0.298900  0.793900  1
  H  H96  1  0.135200  0.701100  0.206100  1
  H  H97  1  0.546100  0.475000  0.826200  1
  H  H98  1  0.453900  0.525000  0.173800  1
  H  H99  1  0.537200  0.541800  0.869700  1
  H  H100  1  0.462800  0.458200  0.130300  1
  H  H101  1  0.539600  0.549600  0.820100  1
  H  H102  1  0.460400  0.450400  0.179900  1
  H  H103  1  0.430600  0.427700  0.775000  1
  H  H104  1  0.569400  0.572300  0.225000  1
  H  H105  1  0.419800  0.499400  0.765200  1
  H  H106  1  0.580200  0.500600  0.234800  1
  H  H107  1  0.349900  0.466700  0.785100  1
  H  H108  1  0.650100  0.533300  0.214900  1
  H  H109  1  0.359000  0.447500  0.853600  1
  H  H110  1  0.641000  0.552500  0.146400  1
  H  H111  1  0.448100  0.435000  0.864000  1
  H  H112  1  0.551900  0.565000  0.136000  1
  H  H113  1  0.382600  0.494300  0.932500  1
  H  H114  1  0.617400  0.505700  0.067500  1
  H  H115  1  0.454900  0.539100  0.924800  1
  H  H116  1  0.545100  0.460900  0.075200  1
  H  H117  1  0.340500  0.614600  0.982100  1
  H  H118  1  0.659500  0.385400  0.017900  1
  H  H119  1  0.326200  0.672300  0.958200  1
  H  H120  1  0.673800  0.327700  0.041800  1
  H  H121  1  0.412400  0.647900  0.964200  1
  H  H122  1  0.587600  0.352100  0.035800  1
  H  H123  1  0.249800  0.535400  0.928200  1
  H  H124  1  0.750200  0.464600  0.071800  1
  H  H125  1  0.262700  0.512700  0.874600  1
  H  H126  1  0.737300  0.487300  0.125400  1
  H  H127  1  0.233800  0.588700  0.900900  1
  H  H128  1  0.766200  0.411300  0.099100  1
  H  H129  1  0.007100  0.066200  0.072700  1
  H  H130  1  0.992900  0.933800  0.927300  1
  H  H131  1  0.058000  0.031200  0.029300  1
  H  H132  1  0.942000  0.968800  0.970700  1
  H  H133  1  0.996900  0.088900  0.028100  1
  H  H134  1  0.003100  0.911100  0.971900  1
  H  H135  1  0.115600  0.097000  0.121200  1
  H  H136  1  0.884400  0.903000  0.878800  1
  H  H137  1  0.186100  0.141800  0.111900  1
  H  H138  1  0.813900  0.858200  0.888100  1
  H  H139  1  0.173200  0.063300  0.080800  1
  H  H140  1  0.826800  0.936700  0.919200  1
  H  H141  1  0.004800  0.185900  0.096600  1
  H  H142  1  0.995200  0.814100  0.903400  1
  H  H143  1  0.086100  0.213300  0.121500  1
  H  H144  1  0.913900  0.786700  0.878500  1
  H  H145  1  0.066700  0.289600  0.100500  1
  H  H146  1  0.933300  0.710400  0.899500  1
  H  H147  1  0.005800  0.247900  0.062100  1
  H  H148  1  0.994200  0.752100  0.937900  1
  H  H149  1  0.053100  0.320200  0.017500  1
  H  H150  1  0.946900  0.679800  0.982500  1
  H  H151  1  0.027500  0.242000  0.990800  1
  H  H152  1  0.972500  0.758000  0.009200  1
  H  H153  1  0.107100  0.272900  0.979200  1
  H  H154  1  0.892900  0.727100  0.020800  1
  H  H155  1  0.156500  0.347200  0.071800  1
  H  H156  1  0.843500  0.652800  0.928200  1
  H  H157  1  0.216100  0.300300  0.037000  1
  H  H158  1  0.783900  0.699700  0.963000  1
  H  H159  1  0.203000  0.288800  0.084900  1
  H  H160  1  0.797000  0.711200  0.915100  1
  H  H161  1  0.296400  0.503400  0.435300  1
  H  H162  1  0.703600  0.496600  0.564700  1
  H  H163  1  0.224900  0.554700  0.445100  1
  H  H164  1  0.775100  0.445300  0.554900  1
  H  H165  1  0.297900  0.569800  0.479800  1
  H  H166  1  0.702100  0.430200  0.520200  1
  H  H167  1  0.415700  0.534000  0.410500  1
  H  H168  1  0.584300  0.466000  0.589500  1
  H  H169  1  0.425200  0.601800  0.453900  1
  H  H170  1  0.574800  0.398200  0.546100  1
  H  H171  1  0.429400  0.607700  0.403800  1
  H  H172  1  0.570600  0.392300  0.596200  1
  H  H173  1  0.337900  0.576300  0.354300  1
  H  H174  1  0.662100  0.423700  0.645700  1
  H  H175  1  0.280200  0.520400  0.362900  1
  H  H176  1  0.719800  0.479600  0.637100  1
  H  H177  1  0.181400  0.582800  0.367100  1
  H  H178  1  0.818600  0.417200  0.632900  1
  H  H179  1  0.230200  0.598600  0.328300  1
  H  H180  1  0.769800  0.401400  0.671700  1
  H  H181  1  0.115800  0.688500  0.363700  1
  H  H182  1  0.884200  0.311500  0.636300  1
  H  H183  1  0.140100  0.747100  0.410200  1
  H  H184  1  0.859900  0.252900  0.589800  1
  H  H185  1  0.118500  0.670800  0.410300  1
  H  H186  1  0.881500  0.329200  0.589700  1
  H  H187  1  0.227800  0.705500  0.329400  1
  H  H188  1  0.772200  0.294500  0.670600  1
  H  H189  1  0.312500  0.703600  0.350900  1
  H  H190  1  0.687500  0.296400  0.649100  1
  H  H191  1  0.256300  0.765900  0.374100  1
  H  H192  1  0.743700  0.234100  0.625900  1
  H  H193  1  0.152400  0.261100  0.487100  1
  H  H194  1  0.847600  0.738900  0.512900  1
  H  H195  1  0.186800  0.202700  0.505900  1
  H  H196  1  0.813200  0.797300  0.494100  1
  H  H197  1  0.234600  0.273300  0.513600  1
  H  H198  1  0.765400  0.726700  0.486400  1
  H  H199  1  0.032800  0.254700  0.524800  1
  H  H200  1  0.967200  0.745300  0.475200  1
  H  H201  1  0.032500  0.271700  0.578800  1
  H  H202  1  0.967500  0.728300  0.421200  1
  H  H203  1  0.065900  0.200100  0.547500  1
  H  H204  1  0.934100  0.799900  0.452500  1
  H  H205  1  0.183700  0.377600  0.554900  1
  H  H206  1  0.816300  0.622400  0.445100  1
  H  H207  1  0.091600  0.368600  0.548100  1
  H  H208  1  0.908400  0.631400  0.451900  1
  H  H209  1  0.075500  0.386200  0.622400  1
  H  H210  1  0.924500  0.613800  0.377600  1
  H  H211  1  0.131400  0.446900  0.618000  1
  H  H212  1  0.868600  0.553100  0.382000  1
  H  H213  1  0.257300  0.464100  0.657400  1
  H  H214  1  0.742700  0.535900  0.342600  1
  H  H215  1  0.280900  0.405600  0.611800  1
  H  H216  1  0.719100  0.594400  0.388200  1
  H  H217  1  0.304000  0.398400  0.660300  1
  H  H218  1  0.696000  0.601600  0.339700  1
  H  H219  1  0.157300  0.447100  0.703100  1
  H  H220  1  0.842700  0.552900  0.296900  1
  H  H221  1  0.198900  0.381500  0.710000  1
  H  H222  1  0.801100  0.618500  0.290000  1
  H  H223  1  0.111000  0.375000  0.691300  1
  H  H224  1  0.889000  0.625000  0.308700  1
  H  H225  1  0.973100  0.662200  0.572100  1
  H  H226  1  0.026900  0.337800  0.427900  1
  H  H227  1  0.981500  0.740400  0.572400  1
  H  H228  1  0.018500  0.259600  0.427600  1
  H  H229  1  0.903500  0.714200  0.589300  1
  H  H230  1  0.096500  0.285800  0.410700  1
  H  H231  1  0.979800  0.635300  0.643400  1
  H  H232  1  0.020200  0.364700  0.356600  1
  H  H233  1  0.909700  0.685500  0.663300  1
  H  H234  1  0.090300  0.314500  0.336700  1
  H  H235  1  0.990600  0.695400  0.691000  1
  H  H236  1  0.009400  0.304600  0.309000  1
  H  H237  1  0.097200  0.712700  0.662000  1
  H  H238  1  0.902800  0.287300  0.338000  1
  H  H239  1  0.094700  0.692700  0.607900  1
  H  H240  1  0.905300  0.307300  0.392100  1
  H  H241  1  0.115900  0.793600  0.608900  1
  H  H242  1  0.884100  0.206400  0.391100  1
  H  H243  1  0.171600  0.784200  0.648000  1
  H  H244  1  0.828400  0.215800  0.352000  1
  H  H245  1  0.160000  0.920200  0.655300  1
  H  H246  1  0.840000  0.079800  0.344700  1
  H  H247  1  0.079700  0.954200  0.674700  1
  H  H248  1  0.920300  0.045800  0.325300  1
  H  H249  1  0.082800  0.902200  0.623900  1
  H  H250  1  0.917200  0.097800  0.376100  1
  H  H251  1  0.177000  0.878300  0.718100  1
  H  H252  1  0.823000  0.121700  0.281900  1
  H  H253  1  0.112500  0.830300  0.730000  1
  H  H254  1  0.887500  0.169700  0.270000  1
  H  H255  1  0.096800  0.910500  0.739000  1
  H  H256  1  0.903200  0.089500  0.261000  1
  H  H257  1  0.753200  0.510800  0.998300  1
  H  H258  1  0.246800  0.489200  0.001700  1
  H  H259  1  0.803700  0.443500  0.992100  1
  H  H260  1  0.196300  0.556500  0.007900  1
  H  H261  1  0.717400  0.436200  0.970900  1
  H  H262  1  0.282600  0.563800  0.029100  1
  H  H263  1  0.730700  0.555600  0.936000  1
  H  H264  1  0.269300  0.444400  0.064000  1
  H  H265  1  0.688900  0.483900  0.907800  1
  H  H266  1  0.311100  0.516100  0.092200  1
  H  H267  1  0.758100  0.514500  0.885900  1
  H  H268  1  0.241900  0.485500  0.114100  1
  H  H269  1  0.886300  0.526700  0.916900  1
  H  H270  1  0.113700  0.473300  0.083100  1
  H  H271  1  0.872000  0.550700  0.970500  1
  H  H272  1  0.128000  0.449300  0.029500  1
  H  H273  1  0.988800  0.486500  0.952800  1
  H  H274  1  0.011200  0.513500  0.047200  1
  H  H275  1  0.928300  0.449100  0.976300  1
  H  H276  1  0.071700  0.550900  0.023700  1
  H  H277  1  0.036800  0.356900  0.926000  1
  H  H278  1  0.963200  0.643100  0.074000  1
  H  H279  1  0.979600  0.299500  0.893000  1
  H  H280  1  0.020400  0.700500  0.107000  1
  H  H281  1  0.959700  0.333700  0.945400  1
  H  H282  1  0.040300  0.666300  0.054600  1
  H  H283  1  0.031400  0.426400  0.876600  1
  H  H284  1  0.968600  0.573600  0.123400  1
  H  H285  1  0.951000  0.452600  0.862000  1
  H  H286  1  0.049000  0.547400  0.138000  1
  H  H287  1  0.973200  0.373200  0.841200  1
  H  H288  1  0.026800  0.626800  0.158800  1
  H  H289  1  0.651400  0.983400  0.093100  1
  H  H290  1  0.348600  0.016600  0.906900  1
  H  H291  1  0.538200  0.939500  0.112100  1
  H  H292  1  0.461800  0.060500  0.887900  1
  H  H293  1  0.754000  0.985700  0.212500  1
  H  H294  1  0.246000  0.014300  0.787500  1
  H  H295  1  0.760200  0.008700  0.143800  1
  H  H296  1  0.239800  0.991300  0.856200  1
  H  H297  1  0.315700  0.833800  0.219400  1
  H  H298  1  0.684300  0.166200  0.780600  1
  H  H299  1  0.421800  0.860800  0.270700  1
  H  H300  1  0.578200  0.139200  0.729300  1
  H  H301  1  0.438000  0.896600  0.131000  1
  H  H302  1  0.562000  0.103400  0.869000  1
  H  H303  1  0.325000  0.860800  0.148800  1
  H  H304  1  0.675000  0.139200  0.851200  1
  H  H305  1  0.745300  0.939900  0.343200  1
  H  H306  1  0.254700  0.060100  0.656800  1
  H  H307  1  0.751800  0.961000  0.270600  1
  H  H308  1  0.248200  0.039000  0.729400  1
  H  H309  1  0.520100  0.882900  0.315300  1
  H  H310  1  0.479900  0.117100  0.684700  1
  H  H311  1  0.622700  0.903900  0.363200  1
  H  H312  1  0.377300  0.096100  0.636800  1
  H  H313  1  0.627700  0.950400  0.906700  1
  H  H314  1  0.372300  0.049600  0.093300  1
  H  H315  1  0.676300  0.013700  0.900200  1
  H  H316  1  0.323700  0.986300  0.099800  1
  H  H317  1  0.712200  0.938300  0.885600  1
  H  H318  1  0.287800  0.061700  0.114400  1
  H  H319  1  0.703100  0.987500  0.727600  1
  H  H320  1  0.296900  0.012500  0.272400  1
  H  H321  1  0.408800  0.866400  0.812700  1
  H  H322  1  0.591200  0.133600  0.187300  1
  H  H323  1  0.632600  0.975400  0.659800  1
  H  H324  1  0.367400  0.024600  0.340200  1
  H  H325  1  0.334100  0.849600  0.745600  1
  H  H326  1  0.665900  0.150400  0.254400  1
  H  H327  1  0.393100  0.919200  0.575300  1
  H  H328  1  0.606900  0.080800  0.424700  1
  H  H329  1  0.316800  0.932900  0.605000  1
  H  H330  1  0.683200  0.067100  0.395000  1
  H  H331  1  0.343900  0.855600  0.580900  1
  H  H332  1  0.656100  0.144400  0.419100  1
  Pd  Pd333  1  0.385650  0.609680  0.858116  1
  Pd  Pd334  1  0.614350  0.390320  0.141884  1
  Pd  Pd335  1  0.966720  0.833270  0.672006  1
  Pd  Pd336  1  0.033280  0.166730  0.327994  1
  Pd  Pd337  1  0.156810  0.149381  0.013050  1
  Pd  Pd338  1  0.843190  0.850619  0.986950  1
  Pd  Pd339  1  0.289190  0.696750  0.447258  1
  Pd  Pd340  1  0.710810  0.303250  0.552742  1
  Pd  Pd341  1  0.201420  0.269990  0.612063  1
  Pd  Pd342  1  0.798580  0.730010  0.387937  1
  Pd  Pd343  1  0.820160  0.371550  0.891422  1
  Pd  Pd344  1  0.179840  0.628450  0.108578  1
  C  C345  1  0.604200  0.764800  0.669600  1
  C  C346  1  0.395800  0.235200  0.330400  1
  C  C347  1  0.503500  0.720600  0.699600  1
  C  C348  1  0.496500  0.279400  0.300400  1
  C  C349  1  0.487300  0.736800  0.630600  1
  C  C350  1  0.512700  0.263200  0.369400  1
  C  C351  1  0.359900  0.253200  0.796330  1
  C  C352  1  0.640100  0.746800  0.203670  1
  C  C353  1  0.351500  0.230600  0.863510  1
  C  C354  1  0.648500  0.769400  0.136490  1
  C  C355  1  0.465200  0.275000  0.845590  1
  C  C356  1  0.534800  0.725000  0.154410  1
  C  C357  1  0.494200  0.675700  0.809700  1
  C  C358  1  0.505800  0.324300  0.190300  1
  C  C359  1  0.521300  0.702700  0.776600  1
  C  C360  1  0.478700  0.297300  0.223400  1
  C  C361  1  0.474800  0.694800  0.737100  1
  C  C362  1  0.525200  0.305200  0.262900  1
  C  C363  1  0.401700  0.659700  0.732400  1
  C  C364  1  0.598300  0.340300  0.267600  1
  C  C365  1  0.379000  0.633900  0.767200  1
  C  C366  1  0.621000  0.366100  0.232800  1
  C  C367  1  0.801100  0.819800  0.637500  1
  C  C368  1  0.198900  0.180200  0.362500  1
  C  C369  1  0.720500  0.806100  0.636000  1
  C  C370  1  0.279500  0.193900  0.364000  1
  C  C371  1  0.688300  0.786100  0.671300  1
  C  C372  1  0.311700  0.213900  0.328700  1
  C  C373  1  0.736900  0.782600  0.707500  1
  C  C374  1  0.263100  0.217400  0.292500  1
  C  C375  1  0.818200  0.796000  0.706400  1
  C  C376  1  0.181800  0.204000  0.293600  1
  C  C377  1  0.318300  0.697600  0.543300  1
  C  C378  1  0.681700  0.302400  0.456700  1
  C  C379  1  0.360200  0.705500  0.584200  1
  C  C380  1  0.639800  0.294500  0.415800  1
  C  C381  1  0.438200  0.730400  0.588300  1
  C  C382  1  0.561800  0.269600  0.411700  1
  C  C383  1  0.470800  0.747600  0.551800  1
  C  C384  1  0.529200  0.252400  0.448200  1
  C  C385  1  0.425300  0.737600  0.511900  1
  C  C386  1  0.574700  0.262400  0.488100  1
  C  C387  1  0.295500  0.191400  0.971550  1
  C  C388  1  0.704500  0.808600  0.028450  1
  C  C389  1  0.340600  0.209900  0.939600  1
  C  C390  1  0.659400  0.790100  0.060400  1
  C  C391  1  0.305500  0.208200  0.897610  1
  C  C392  1  0.694500  0.791800  0.102390  1
  C  C393  1  0.227500  0.186800  0.888360  1
  C  C394  1  0.772500  0.813200  0.111640  1
  C  C395  1  0.185300  0.169500  0.921950  1
  C  C396  1  0.814700  0.830500  0.078050  1
  C  C397  1  0.667500  0.350900  0.840020  1
  C  C398  1  0.332500  0.649100  0.159980  1
  C  C399  1  0.589800  0.328800  0.828230  1
  C  C400  1  0.410200  0.671200  0.171770  1
  C  C401  1  0.548100  0.298800  0.856900  1
  C  C402  1  0.451900  0.701200  0.143100  1
  C  C403  1  0.586800  0.292000  0.896050  1
  C  C404  1  0.413200  0.708000  0.103950  1
  C  C405  1  0.664800  0.314700  0.905270  1
  C  C406  1  0.335200  0.685300  0.094730  1
  C  C407  1  0.212500  0.236800  0.699200  1
  C  C408  1  0.787500  0.763200  0.300800  1
  C  C409  1  0.245000  0.233100  0.740310  1
  C  C410  1  0.755000  0.766900  0.259690  1
  C  C411  1  0.323800  0.252800  0.751310  1
  C  C412  1  0.676200  0.747200  0.248690  1
  C  C413  1  0.368600  0.272800  0.719180  1
  C  C414  1  0.631400  0.727200  0.280820  1
  C  C415  1  0.332600  0.274500  0.678800  1
  C  C416  1  0.667400  0.725500  0.321200  1
  C  C417  1  0.263700  0.719800  0.883000  1
  C  C418  1  0.736300  0.280200  0.117000  1
  C  C419  1  0.233100  0.785800  0.902800  1
  C  C420  1  0.766900  0.214200  0.097200  1
  C  C421  1  0.283600  0.842200  0.925390  1
  C  C422  1  0.716400  0.157800  0.074610  1
  C  C423  1  0.364000  0.829600  0.926230  1
  C  C424  1  0.636000  0.170400  0.073770  1
  C  C425  1  0.390600  0.762000  0.906500  1
  C  C426  1  0.609400  0.238000  0.093500  1
  C  C427  1  0.265800  0.030000  0.002770  1
  C  C428  1  0.734200  0.970000  0.997230  1
  C  C429  1  0.294500  0.963400  0.984200  1
  C  C430  1  0.705500  0.036600  0.015800  1
  C  C431  1  0.253600  0.914100  0.947580  1
  C  C432  1  0.746400  0.085900  0.052420  1
  C  C433  1  0.183700  0.935300  0.931000  1
  C  C434  1  0.816300  0.064700  0.069000  1
  C  C435  1  0.158300  0.003200  0.951900  1
  C  C436  1  0.841700  0.996800  0.048100  1
  C  C437  1  0.207700  0.824400  0.502000  1
  C  C438  1  0.792300  0.175600  0.498000  1
  C  C439  1  0.196900  0.894700  0.523900  1
  C  C440  1  0.803100  0.105300  0.476100  1
  C  C441  1  0.244100  0.945500  0.514100  1
  C  C442  1  0.755900  0.054500  0.485900  1
  C  C443  1  0.301300  0.919600  0.480600  1
  C  C444  1  0.698700  0.080400  0.519400  1
  C  C445  1  0.309600  0.848500  0.460900  1
  C  C446  1  0.690400  0.151500  0.539100  1
  C  C447  1  0.282000  0.140800  0.560700  1
  C  C448  1  0.718000  0.859200  0.439300  1
  C  C449  1  0.294200  0.070200  0.539500  1
  C  C450  1  0.705800  0.929800  0.460500  1
  C  C451  1  0.234100  0.021700  0.537800  1
  C  C452  1  0.765900  0.978300  0.462200  1
  C  C453  1  0.164300  0.047200  0.559600  1
  C  C454  1  0.835700  0.952800  0.440400  1
  C  C455  1  0.156500  0.118200  0.580600  1
  C  C456  1  0.843500  0.881800  0.419400  1
  C  C457  1  0.917000  0.980100  0.690000  1
  C  C458  1  0.083000  0.019900  0.310000  1
  C  C459  1  0.894100  0.046900  0.715800  1
  C  C460  1  0.105900  0.953100  0.284200  1
  C  C461  1  0.894200  0.065900  0.763960  1
  C  C462  1  0.105800  0.934100  0.236040  1
  C  C463  1  0.915500  0.014900  0.783910  1
  C  C464  1  0.084500  0.985100  0.216090  1
  C  C465  1  0.938500  0.949700  0.756010  1
  C  C466  1  0.061500  0.050300  0.243990  1
  C  C467  1  0.837200  0.218500  0.866000  1
  C  C468  1  0.162800  0.781500  0.134000  1
  C  C469  1  0.850400  0.150600  0.838700  1
  C  C470  1  0.149600  0.849400  0.161300  1
  C  C471  1  0.873900  0.137200  0.793050  1
  C  C472  1  0.126100  0.862800  0.206950  1
  C  C473  1  0.878500  0.194500  0.776600  1
  C  C474  1  0.121500  0.805500  0.223400  1
  C  C475  1  0.862600  0.261300  0.805500  1
  C  C476  1  0.137400  0.738700  0.194500  1
  C  C477  1  0.522100  0.520200  0.837700  1
  C  C478  1  0.477900  0.479800  0.162300  1
  C  C479  1  0.406300  0.472900  0.785400  1
  C  C480  1  0.593700  0.527100  0.214600  1
  C  C481  1  0.409700  0.470800  0.864500  1
  C  C482  1  0.590300  0.529200  0.135500  1
  C  C483  1  0.403100  0.519600  0.912600  1
  C  C484  1  0.596900  0.480400  0.087400  1
  C  C485  1  0.357900  0.632900  0.958300  1
  C  C486  1  0.642100  0.367100  0.041700  1
  C  C487  1  0.266800  0.551200  0.903200  1
  C  C488  1  0.733200  0.448800  0.096800  1
  C  C489  1  0.034100  0.074100  0.047300  1
  C  C490  1  0.965900  0.925900  0.952700  1
  C  C491  1  0.147200  0.105700  0.097700  1
  C  C492  1  0.852800  0.894300  0.902300  1
  C  C493  1  0.059400  0.196300  0.091300  1
  C  C494  1  0.940600  0.803700  0.908700  1
  C  C495  1  0.058800  0.246500  0.074700  1
  C  C496  1  0.941200  0.753500  0.925300  1
  C  C497  1  0.071700  0.273300  0.003500  1
  C  C498  1  0.928300  0.726700  0.996500  1
  C  C499  1  0.177900  0.301000  0.060000  1
  C  C500  1  0.822100  0.699000  0.940000  1
  C  C501  1  0.281400  0.551700  0.447800  1
  C  C502  1  0.718600  0.448300  0.552200  1
  C  C503  1  0.404700  0.583300  0.422600  1
  C  C504  1  0.595300  0.416700  0.577400  1
  C  C505  1  0.293400  0.570300  0.372400  1
  C  C506  1  0.706600  0.429700  0.627600  1
  C  C507  1  0.229700  0.604900  0.361200  1
  C  C508  1  0.770300  0.395100  0.638800  1
  C  C509  1  0.142900  0.697900  0.393200  1
  C  C510  1  0.857100  0.302100  0.606800  1
  C  C511  1  0.258500  0.716300  0.357800  1
  C  C512  1  0.741500  0.283700  0.642200  1
  C  C513  1  0.182600  0.252600  0.511800  1
  C  C514  1  0.817400  0.747400  0.488200  1
  C  C515  1  0.060900  0.249300  0.551200  1
  C  C516  1  0.939100  0.750700  0.448800  1
  C  C517  1  0.136700  0.359500  0.565500  1
  C  C518  1  0.863300  0.640500  0.434500  1
  C  C519  1  0.127600  0.396700  0.613200  1
  C  C520  1  0.872400  0.603300  0.386800  1
  C  C521  1  0.264300  0.414400  0.643100  1
  C  C522  1  0.735700  0.585600  0.356900  1
  C  C523  1  0.161800  0.396900  0.691100  1
  C  C524  1  0.838200  0.603100  0.308900  1
  C  C525  1  0.960000  0.710100  0.588300  1
  C  C526  1  0.040000  0.289900  0.411700  1
  C  C527  1  0.966100  0.682600  0.660600  1
  C  C528  1  0.033900  0.317400  0.339400  1
  C  C529  1  0.079300  0.728000  0.636300  1
  C  C530  1  0.920700  0.272000  0.363700  1
  C  C531  1  0.116600  0.788300  0.639500  1
  C  C532  1  0.883400  0.211700  0.360500  1
  C  C533  1  0.103700  0.912600  0.655000  1
  C  C534  1  0.896300  0.087400  0.345000  1
  C  C535  1  0.121200  0.869500  0.718800  1
  C  C536  1  0.878800  0.130500  0.281200  1
  C  C537  1  0.764900  0.464900  0.977700  1
  C  C538  1  0.235100  0.535100  0.022300  1
  C  C539  1  0.738400  0.509700  0.914200  1
  C  C540  1  0.261600  0.490300  0.085800  1
  C  C541  1  0.874400  0.510100  0.942800  1
  C  C542  1  0.125600  0.489900  0.057200  1
  C  C543  1  0.937700  0.462400  0.948800  1
  C  C544  1  0.062300  0.537600  0.051200  1
  C  C545  1  0.982500  0.342100  0.918900  1
  C  C546  1  0.017500  0.657900  0.081100  1
  C  C547  1  0.976700  0.414000  0.868300  1
  C  C548  1  0.023300  0.586000  0.131700  1
  C  C549  1  0.648800  0.974900  0.121300  1
  C  C550  1  0.351200  0.025100  0.878700  1
  C  C551  1  0.581500  0.948300  0.132700  1
  C  C552  1  0.418500  0.051700  0.867300  1
  C  C553  1  0.574600  0.933200  0.175400  1
  C  C554  1  0.425400  0.066800  0.824600  1
  C  C555  1  0.641300  0.947000  0.205200  1
  C  C556  1  0.358700  0.053000  0.794800  1
  C  C557  1  0.710000  0.975800  0.192300  1
  C  C558  1  0.290000  0.024200  0.807700  1
  C  C559  1  0.714100  0.989600  0.151500  1
  C  C560  1  0.285900  0.010400  0.848500  1
  C  C561  1  0.362000  0.853000  0.212000  1
  C  C562  1  0.638000  0.147000  0.788000  1
  C  C563  1  0.426900  0.868200  0.242200  1
  C  C564  1  0.573100  0.131800  0.757800  1
  C  C565  1  0.500300  0.894100  0.233000  1
  C  C566  1  0.499700  0.105900  0.767000  1
  C  C567  1  0.502900  0.906400  0.187400  1
  C  C568  1  0.497100  0.093600  0.812600  1
  C  C569  1  0.435100  0.890300  0.159900  1
  C  C570  1  0.564900  0.109700  0.840100  1
  C  C571  1  0.368200  0.867500  0.169400  1
  C  C572  1  0.631800  0.132500  0.830600  1
  C  C573  1  0.701200  0.933200  0.323300  1
  C  C574  1  0.298800  0.066800  0.676700  1
  C  C575  1  0.704400  0.945300  0.279300  1
  C  C576  1  0.295600  0.054700  0.720700  1
  C  C577  1  0.640300  0.934700  0.250000  1
  C  C578  1  0.359700  0.065300  0.750000  1
  C  C579  1  0.569100  0.909500  0.263100  1
  C  C580  1  0.430900  0.090500  0.736900  1
  C  C581  1  0.567000  0.898900  0.306400  1
  C  C582  1  0.433000  0.101100  0.693600  1
  C  C583  1  0.627900  0.910700  0.334600  1
  C  C584  1  0.372100  0.089300  0.665400  1
  C  C585  1  0.664300  0.964200  0.887300  1
  C  C586  1  0.335700  0.035800  0.112700  1
  C  C587  1  0.667100  0.963800  0.804200  1
  C  C588  1  0.332900  0.036200  0.195800  1
  C  C589  1  0.554800  0.917800  0.836700  1
  C  C590  1  0.445200  0.082200  0.163300  1
  C  C591  1  0.623700  0.950600  0.760800  1
  C  C592  1  0.376300  0.049400  0.239200  1
  C  C593  1  0.508400  0.903900  0.794000  1
  C  C594  1  0.491600  0.096100  0.206000  1
  C  C595  1  0.651700  0.969100  0.724500  1
  C  C596  1  0.348300  0.030900  0.275500  1
  C  C597  1  0.540000  0.922800  0.755500  1
  C  C598  1  0.460000  0.077200  0.244500  1
  C  C599  1  0.431100  0.878100  0.788400  1
  C  C600  1  0.568900  0.121900  0.211600  1
  C  C601  1  0.610700  0.963000  0.683900  1
  C  C602  1  0.389300  0.037000  0.316100  1
  C  C603  1  0.495700  0.917200  0.716000  1
  C  C604  1  0.504300  0.082800  0.284000  1
  C  C605  1  0.385000  0.868800  0.748500  1
  C  C606  1  0.615000  0.131200  0.251500  1
  C  C607  1  0.531500  0.936000  0.681900  1
  C  C608  1  0.468500  0.064000  0.318100  1
  C  C609  1  0.419700  0.890600  0.710400  1
  C  C610  1  0.580300  0.109400  0.289600  1
  C  C611  1  0.480500  0.930500  0.636500  1
  C  C612  1  0.519500  0.069500  0.363500  1
  C  C613  1  0.365400  0.883200  0.669900  1
  C  C614  1  0.634600  0.116800  0.330100  1
  C  C615  1  0.361700  0.903300  0.596100  1
  C  C616  1  0.638300  0.096700  0.403900  1
  N  N617  1  0.423900  0.641500  0.805150  1
  N  N618  1  0.576100  0.358500  0.194850  1
  N  N619  1  0.848600  0.813300  0.671290  1
  N  N620  1  0.151400  0.186700  0.328710  1
  N  N621  1  0.350300  0.711500  0.507730  1
  N  N622  1  0.649700  0.288500  0.492270  1
  N  N623  1  0.577900  0.745800  0.705130  1
  N  N624  1  0.422100  0.254200  0.294870  1
  N  N625  1  0.561300  0.762500  0.631330  1
  N  N626  1  0.438700  0.237500  0.368670  1
  N  N627  1  0.455700  0.715000  0.663340  1
  N  N628  1  0.544300  0.285000  0.336660  1
  N  N629  1  0.218400  0.172900  0.963330  1
  N  N630  1  0.781600  0.827100  0.036670  1
  N  N631  1  0.704000  0.344400  0.877890  1
  N  N632  1  0.296000  0.655600  0.122110  1
  N  N633  1  0.255300  0.258700  0.669270  1
  N  N634  1  0.744700  0.741300  0.330730  1
  N  N635  1  0.427400  0.251600  0.875840  1
  N  N636  1  0.572600  0.748400  0.124160  1
  N  N637  1  0.434300  0.278300  0.805840  1
  N  N638  1  0.565700  0.721700  0.194160  1
  N  N639  1  0.315900  0.229000  0.824170  1
  N  N640  1  0.684100  0.771000  0.175830  1
  N  N641  1  0.341300  0.707600  0.885410  1
  N  N642  1  0.658700  0.292400  0.114590  1
  N  N643  1  0.197400  0.049700  0.987140  1
  N  N644  1  0.802600  0.950300  0.012860  1
  N  N645  1  0.264200  0.801100  0.471470  1
  N  N646  1  0.735800  0.198900  0.528530  1
  N  N647  1  0.214900  0.165100  0.580680  1
  N  N648  1  0.785100  0.834900  0.419320  1
  N  N649  1  0.940300  0.933500  0.709620  1
  N  N650  1  0.059700  0.066500  0.290380  1
  N  N651  1  0.844000  0.273300  0.849890  1
  N  N652  1  0.156000  0.726700  0.150110  1
  N  N653  1  0.435100  0.511400  0.833100  1
  N  N654  1  0.564900  0.488600  0.166900  1
  N  N655  1  0.349500  0.576600  0.911880  1
  N  N656  1  0.650500  0.423400  0.088120  1
  N  N657  1  0.095600  0.128900  0.065360  1
  N  N658  1  0.904400  0.871100  0.934640  1
  N  N659  1  0.113900  0.249900  0.039050  1
  N  N660  1  0.886100  0.750100  0.960950  1
  N  N661  1  0.319300  0.593100  0.421900  1
  N  N662  1  0.680700  0.406900  0.578100  1
  N  N663  1  0.227400  0.678000  0.385700  1
  N  N664  1  0.772600  0.322000  0.614300  1
  N  N665  1  0.143500  0.283600  0.555300  1
  N  N666  1  0.856500  0.716400  0.444700  1
  N  N667  1  0.189800  0.377000  0.642900  1
  N  N668  1  0.810200  0.623000  0.357100  1
  N  N669  1  0.993900  0.730800  0.636460  1
  N  N670  1  0.006100  0.269200  0.363540  1
  N  N671  1  0.086500  0.853100  0.672030  1
  N  N672  1  0.913500  0.146900  0.327970  1
  N  N673  1  0.796400  0.471400  0.933890  1
  N  N674  1  0.203600  0.528600  0.066110  1
  N  N675  1  0.937600  0.398500  0.907170  1
  N  N676  1  0.062400  0.601500  0.092830  1
  N  N677  1  0.628500  0.949300  0.840100  1
  N  N678  1  0.371500  0.050700  0.159900  1
  N  N679  1  0.406600  0.906300  0.634900  1
  N  N680  1  0.593400  0.093700  0.365100  1
  N  N681  1  0.925100  0.387900  0.074300  1
  N  N682  1  0.074900  0.612100  0.925700  1
  N  N683  1  0.328700  0.232500  0.116200  1
  N  N684  1  0.671300  0.767500  0.883800  1
  N  N685  1  0.960800  0.886600  0.550100  1
  N  N686  1  0.039200  0.113400  0.449900  1
  N  N687  1  0.238800  0.369500  0.940000  1
  N  N688  1  0.761200  0.630500  0.060000  1
  N  N689  1  0.936000  0.092600  0.940600  1
  N  N690  1  0.064000  0.907400  0.059400  1
  N  N691  1  0.536800  0.165800  0.978600  1
  N  N692  1  0.463200  0.834200  0.021400  1
  N  N693  1  0.085900  0.107500  0.786800  1
  N  N694  1  0.914100  0.892500  0.213200  1
  N  N695  1  0.212900  0.792500  0.793500  1
  N  N696  1  0.787100  0.207500  0.206500  1
  N  N697  1  0.776300  0.110700  0.643800  1
  N  N698  1  0.223700  0.889300  0.356200  1
  N  N699  1  0.951800  0.908200  0.554700  1
  N  N700  1  0.048200  0.091800  0.445300  1
  N  N701  1  0.234500  0.370100  0.926100  1
  N  N702  1  0.765500  0.629900  0.073900  1
  N  N703  1  0.868500  0.337400  0.017200  1
  N  N704  1  0.131500  0.662600  0.982800  1
  N  N705  1  0.089400  0.107300  0.760100  1
  N  N706  1  0.910600  0.892700  0.239900  1
  O  O707  1  0.735000  0.984700  0.809300  1
  O  O708  1  0.265000  0.015300  0.190700  1
  O  O709  1  0.525800  0.903000  0.869700  1
  O  O710  1  0.474200  0.097000  0.130300  1
  O  O711  1  0.509500  0.946600  0.605600  1
  O  O712  1  0.490500  0.053400  0.394400  1
  O  O713  1  0.302700  0.862400  0.664900  1
  O  O714  1  0.697300  0.137600  0.335100  1
  O  O715  1  0.922600  0.411100  0.045500  1
  O  O716  1  0.077400  0.588900  0.954500  1
  O  O717  1  0.888100  0.336700  0.079600  1
  O  O718  1  0.111900  0.663300  0.920400  1
  O  O719  1  0.977900  0.418000  0.107600  1
  O  O720  1  0.022100  0.582000  0.892400  1
  O  O721  1  0.351100  0.296300  0.119400  1
  O  O722  1  0.648900  0.703700  0.880600  1
  O  O723  1  0.320400  0.187900  0.080800  1
  O  O724  1  0.679600  0.812100  0.919200  1
  O  O725  1  0.307900  0.220900  0.154400  1
  O  O726  1  0.692100  0.779100  0.845600  1
  O  O727  1  0.020600  0.905300  0.539100  1
  O  O728  1  0.979400  0.094700  0.460900  1
  O  O729  1  0.902600  0.917200  0.530500  1
  O  O730  1  0.097400  0.082800  0.469500  1
  O  O731  1  0.941400  0.863000  0.579400  1
  O  O732  1  0.058600  0.137000  0.420600  1
  O  O733  1  0.242500  0.356100  0.975400  1
  O  O734  1  0.757500  0.643900  0.024600  1
  O  O735  1  0.176200  0.382500  0.918500  1
  O  O736  1  0.823800  0.617500  0.081500  1
  O  O737  1  0.303800  0.378000  0.922300  1
  O  O738  1  0.696200  0.622000  0.077700  1
  O  O739  1  0.001300  0.109700  0.952000  1
  O  O740  1  0.998700  0.890300  0.048000  1
  O  O741  1  0.896900  0.109600  0.971900  1
  O  O742  1  0.103100  0.890400  0.028100  1
  O  O743  1  0.905700  0.054900  0.902000  1
  O  O744  1  0.094300  0.945100  0.098000  1
  O  O745  1  0.580200  0.113700  0.960500  1
  O  O746  1  0.419800  0.886300  0.039500  1
  O  O747  1  0.472500  0.145700  0.997100  1
  O  O748  1  0.527500  0.854300  0.002900  1
  O  O749  1  0.552200  0.219600  0.976600  1
  O  O750  1  0.447800  0.780400  0.023400  1
  O  O751  1  0.101100  0.044500  0.775100  1
  O  O752  1  0.898900  0.955500  0.224900  1
  O  O753  1  0.065300  0.138700  0.825300  1
  O  O754  1  0.934700  0.861300  0.174700  1
  O  O755  1  0.084800  0.140100  0.754200  1
  O  O756  1  0.915200  0.859900  0.245800  1
  O  O757  1  0.254100  0.755000  0.769200  1
  O  O758  1  0.745900  0.245000  0.230800  1
  O  O759  1  0.217800  0.847800  0.813700  1
  O  O760  1  0.782200  0.152200  0.186300  1
  O  O761  1  0.150400  0.757700  0.791000  1
  O  O762  1  0.849600  0.242300  0.209000  1
  O  O763  1  0.739800  0.060800  0.633300  1
  O  O764  1  0.260200  0.939200  0.366700  1
  O  O765  1  0.750000  0.156100  0.679900  1
  O  O766  1  0.250000  0.843900  0.320100  1
  O  O767  1  0.835400  0.125900  0.616900  1
  O  O768  1  0.164600  0.874100  0.383100  1
  O  O769  1  0.801900  0.298600  0.980200  1
  O  O770  1  0.198100  0.701400  0.019800  1
  O  O771  1  0.440500  0.321400  0.053200  1
  O  O772  1  0.559500  0.678600  0.946800  1
  O  O773  1  0.556500  0.356100  0.718600  1
  O  O774  1  0.443500  0.643900  0.281400  1
  O  O775  1  0.526500  0.579600  0.551400  1
  O  O776  1  0.473500  0.420400  0.448600  1
  O  O777  1  0.944500  0.517600  0.687200  1
  O  O778  1  0.055500  0.482400  0.312800  1
  O  O779  1  0.699900  0.618400  0.638500  1
  O  O780  1  0.300100  0.381600  0.361500  1
  O  O781  1  0.502400  0.517300  0.683600  1
  O  O782  1  0.497600  0.482700  0.316400  1
  O  O783  1  0.252000  0.598900  0.630700  1
  O  O784  1  0.748000  0.401100  0.369300  1
  O  O785  1  0.141100  0.554300  0.609000  1
  O  O786  1  0.858900  0.445700  0.391000  1
  O  O787  1  0.238900  0.537300  0.562700  1
  O  O788  1  0.761100  0.462700  0.437300  1
  O  O789  1  0.070000  0.078000  0.660500  1
  O  O790  1  0.930000  0.922000  0.339500  1
  O  O791  1  0.755900  0.643000  0.561700  1
  O  O792  1  0.244100  0.357000  0.438300  1
  O  O793  1  0.047000  0.364700  0.203400  1
  O  O794  1  0.953000  0.635300  0.796600  1
  O  O795  1  0.063700  0.279700  0.791800  1
  O  O796  1  0.936300  0.720300  0.208200  1
  O  O797  1  0.380000  0.391000  0.554300  1
  O  O798  1  0.620000  0.609000  0.445700  1
  O  O799  1  0.987900  0.515400  0.563500  1
  O  O800  1  0.012100  0.484600  0.436500  1
  O  O801  1  0.040900  0.882900  0.836300  1
  O  O802  1  0.959100  0.117100  0.163700  1
  O  O803  1  0.607000  0.587000  0.683000  1
  O  O804  1  0.393000  0.413000  0.317000  1
  O  O805  1  0.399300  0.289800  0.577200  1
  O  O806  1  0.600700  0.710200  0.422800  1
  O  O807  1  0.738800  0.164400  0.945700  1
  O  O808  1  0.261200  0.835600  0.054300  1
  O  O809  1  0.750300  0.923600  0.573500  1
  O  O810  1  0.249700  0.076400  0.426500  1
  O  O811  1  0.016000  0.277200  0.687300  1
  O  O812  1  0.984000  0.722800  0.312700  1
  O  O813  1  0.365000  0.357000  0.456100  1
  O  O814  1  0.635000  0.643000  0.543900  1
  O  O815  1  0.639200  0.834300  0.536700  1
  O  O816  1  0.360800  0.165700  0.463300  1
  O  O817  1  0.098700  0.645600  0.499500  1
  O  O818  1  0.901300  0.354400  0.500500  1
  O  O819  1  0.510200  0.986100  0.469000  1
  O  O820  1  0.489800  0.013900  0.531000  1
  O  O821  1  0.536300  0.246900  0.599900  1
  O  O822  1  0.463700  0.753100  0.400100  1
  O  O823  1  0.185400  0.379200  0.820400  1
  O  O824  1  0.814600  0.620800  0.179600  1
  O  O825  1  0.180900  0.620000  0.714900  1
  O  O826  1  0.819100  0.380000  0.285100  1
  O  O827  1  0.669500  0.551900  0.740800  1
  O  O828  1  0.330500  0.448100  0.259200  1
  O  O829  1  0.954400  0.773900  0.778300  1
  O  O830  1  0.045600  0.226100  0.221700  1
  O  O831  1  0.538500  0.937500  0.970800  1
  O  O832  1  0.461500  0.062500  0.029200  1
  O  O833  1  0.564700  0.455500  0.952710  1
  O  O834  1  0.435300  0.544500  0.047290  1
  O  O835  1  0.426500  0.402400  0.987220  1
  O  O836  1  0.573500  0.597600  0.012780  1
  O  O837  1  0.216700  0.564800  0.792500  1
  O  O838  1  0.783300  0.435200  0.207500  1
  O  O839  1  0.957700  0.066000  0.543600  1
  O  O840  1  0.042300  0.934000  0.456400  1
  O  O841  1  0.089800  0.481400  0.803500  1
  O  O842  1  0.910200  0.518600  0.196500  1
  O  O843  1  0.831300  0.419000  0.786200  1
  O  O844  1  0.168700  0.581000  0.213800  1
  O  O845  1  0.859500  0.557000  0.837600  1
  O  O846  1  0.140500  0.443000  0.162400  1
  O  O847  1  0.823600  0.710800  0.790500  1
  O  O848  1  0.176400  0.289200  0.209500  1
  O  O849  1  0.069100  0.017500  0.855200  1
  O  O850  1  0.930900  0.982500  0.144800  1
  O  O851  1  0.966000  0.417400  0.735200  1
  O  O852  1  0.034000  0.582600  0.264800  1
  O  O853  1  0.687900  0.426100  0.752800  1
  O  O854  1  0.312100  0.573900  0.247200  1
  O  O855  1  0.139600  0.441600  0.483000  1
  O  O856  1  0.860400  0.558400  0.517000  1
  O  O857  1  0.394600  0.528000  0.585600  1
  O  O858  1  0.605400  0.472000  0.414400  1
  O  O859  1  0.798600  0.595100  0.700800  1
  O  O860  1  0.201400  0.404900  0.299200  1
  O  O861  1  0.904100  0.941900  0.544400  1
  O  O862  1  0.095900  0.058100  0.455600  1
  O  O863  1  0.929400  0.882500  0.584900  1
  O  O864  1  0.070600  0.117500  0.415100  1
  O  O865  1  0.021800  0.879600  0.534300  1
  O  O866  1  0.978200  0.120400  0.465700  1
  O  O867  1  0.215300  0.356600  0.963900  1
  O  O868  1  0.784700  0.643400  0.036100  1
  O  O869  1  0.180300  0.369800  0.898900  1
  O  O870  1  0.819700  0.630200  0.101100  1
  O  O871  1  0.298600  0.376100  0.910900  1
  O  O872  1  0.701400  0.623900  0.089100  1
  O  O873  1  0.908800  0.384300  0.032400  1
  O  O874  1  0.091200  0.615700  0.967600  1
  O  O875  1  0.857500  0.298900  0.043700  1
  O  O876  1  0.142500  0.701100  0.956300  1
  O  O877  1  0.833400  0.318700  0.975900  1
  O  O878  1  0.166600  0.681300  0.024100  1
  O  O879  1  0.095900  0.047800  0.753400  1
  O  O880  1  0.904100  0.952200  0.246600  1
  O  O881  1  0.082400  0.150300  0.801400  1
  O  O882  1  0.917600  0.849700  0.198600  1
  O  O883  1  0.075100  0.129800  0.722700  1
  O  O884  1  0.924900  0.870200  0.277300  1
  O  O885  1  0.768600  0.964700  0.592300  1
  O  O886  1  0.231400  0.035300  0.407700  1
  O  O887  1  0.693000  0.258700  0.734100  1
  O  O888  1  0.307000  0.741300  0.265900  1
  O  O889  1  0.929500  0.149700  0.636200  1
  O  O890  1  0.070500  0.850300  0.363800  1
  O  O891  1  0.961700  0.407100  0.138800  1
  O  O892  1  0.038300  0.592900  0.861200  1
  O  O893  1  0.584100  0.281500  0.707900  1
  O  O894  1  0.415900  0.718500  0.292100  1
  O  O895  1  0.488800  0.371900  0.672400  1
  O  O896  1  0.511200  0.628100  0.327600  1
  O  O897  1  0.484300  0.562900  0.524500  1
  O  O898  1  0.515700  0.437100  0.475500  1
  O  O899  1  0.014300  0.543300  0.715300  1
  O  O900  1  0.985700  0.456700  0.284700  1
  O  O901  1  0.906400  0.519900  0.641700  1
  O  O902  1  0.093600  0.480100  0.358300  1
  O  O903  1  0.773000  0.623600  0.611900  1
  O  O904  1  0.227000  0.376400  0.388100  1
  O  O905  1  0.447400  0.491500  0.663800  1
  O  O906  1  0.552600  0.508500  0.336200  1
  O  O907  1  0.541200  0.518000  0.714000  1
  O  O908  1  0.458800  0.482000  0.286000  1
  O  O909  1  0.223900  0.575800  0.605100  1
  O  O910  1  0.776100  0.424200  0.394900  1
  O  O911  1  0.388000  0.278700  0.098900  1
  O  O912  1  0.612000  0.721300  0.901100  1
  O  O913  1  0.037300  0.045700  0.634700  1
  O  O914  1  0.962700  0.954300  0.365300  1
  O  O915  1  0.535800  0.564700  0.660800  1
  O  O916  1  0.464200  0.435300  0.339200  1
  O  O917  1  0.453000  0.316000  0.035000  1
  O  O918  1  0.547000  0.684000  0.965000  1
  O  O919  1  0.970600  0.362500  0.251200  1
  O  O920  1  0.029400  0.637500  0.748800  1
  O  O921  1  0.057100  0.285700  0.773100  1
  O  O922  1  0.942900  0.714300  0.226900  1
  O  O923  1  0.630000  0.182400  0.962300  1
  O  O924  1  0.370000  0.817600  0.037700  1
  O  O925  1  0.503000  0.278900  0.603500  1
  O  O926  1  0.497000  0.721100  0.396500  1
  O  O927  1  0.775000  0.205000  0.975100  1
  O  O928  1  0.225000  0.795000  0.024900  1
  O  O929  1  0.235000  0.735000  0.722900  1
  O  O930  1  0.765000  0.265000  0.277100  1
  O  O931  1  0.007500  0.098400  0.936500  1
  O  O932  1  0.992500  0.901600  0.063500  1
  O  O933  1  0.483000  0.884000  0.409500  1
  O  O934  1  0.517000  0.116000  0.590500  1
  O  O935  1  0.382400  0.393900  0.508600  1
  O  O936  1  0.617600  0.606100  0.491400  1
  O  O937  1  0.983600  0.496600  0.591400  1
  O  O938  1  0.016400  0.503400  0.408600  1
  O  O939  1  0.074300  0.869200  0.837900  1
  O  O940  1  0.925700  0.130800  0.162100  1
  O  O941  1  0.602000  0.605500  0.623000  1
  O  O942  1  0.398000  0.394500  0.377000  1
  O  O943  1  0.380000  0.281300  0.541300  1
  O  O944  1  0.620000  0.718700  0.458700  1
  O  O945  1  0.620000  0.870100  0.540200  1
  O  O946  1  0.380000  0.129900  0.459800  1
  O  O947  1  0.129400  0.690500  0.523600  1
  O  O948  1  0.870600  0.309500  0.476400  1
  O  O949  1  0.646000  0.111000  0.646300  1
  O  O950  1  0.354000  0.889000  0.353700  1
  O  O951  1  0.074000  0.257700  0.827600  1
  O  O952  1  0.926000  0.742300  0.172400  1
  O  O953  1  0.485700  0.184200  0.003000  1
  O  O954  1  0.514300  0.815800  0.997000  1
  O  O955  1  0.974100  0.802000  0.776800  1
  O  O956  1  0.025900  0.198000  0.223200  1
  O  O957  1  0.501000  0.983000  0.970800  1
  O  O958  1  0.499000  0.017000  0.029200  1
  O  O959  1  0.932400  0.299900  0.157700  1
  O  O960  1  0.067600  0.700100  0.842300  1
  O  O961  1  0.295000  0.398100  0.172300  1
  O  O962  1  0.705000  0.601900  0.827700  1
  O  O963  1  0.041900  0.622000  0.483500  1
  O  O964  1  0.958100  0.378000  0.516500  1
  O  O965  1  0.015000  0.226900  0.651600  1
  O  O966  1  0.985000  0.773100  0.348400  1
  O  O967  1  0.524200  0.871100  0.497800  1
  O  O968  1  0.475800  0.128900  0.502200  1
  O  O969  1  0.872000  0.074400  0.922900  1
  O  O970  1  0.128000  0.925600  0.077100  1
  O  O971  1  0.113700  0.542700  0.563300  1
  O  O972  1  0.886300  0.457300  0.436700  1
  O  O973  1  0.892800  0.151500  0.989900  1
  O  O974  1  0.107200  0.848500  0.010100  1
