
#######################################################################
#
#                 Cambridge Crystallographic Data Centre
#                                CCDC 
#
#######################################################################
#
# If this CIF has been generated from an entry in the Cambridge 
# Structural Database, then it will include bibliographic, chemical, 
# crystal, experimental, refinement or atomic coordinate data resulting 
# from the CCDC's data processing and validation procedures.
#
#######################################################################

data_OKIGIZ
_chemical_formula_moiety         
'C102 H144 N30 Pd6 9+,C16 H10 N2 O4,C18 H12,9(N1 O3 1-),38.5(H2 O1)'
_chemical_name_systematic        
"bis(\m~3~-2,4,6-tripyridin-4-yl-1,3,5-triazine)-tris(\m~2~-4,4'-bipyridine)-hexakis(N,N,N',N'-tetramethylethane-1,2-diamine)-hexa-palladium nonanitriate triphenylene 2,7-dimethyl-3a,5a-dihydrobenzo[lmn][3,8]phenanthroline-1,3,6,8(2H,7H)-tetrone clathrate hydrate"
_symmetry_cell_setting           triclinic
_symmetry_space_group_name_H-M   'P -1'
_symmetry_Int_Tables_number      2
_space_group_name_Hall           '-P 1'
loop_
_symmetry_equiv_pos_site_id
_symmetry_equiv_pos_as_xyz
1 x,y,z
2 -x,-y,-z
_cell_length_a                   16.9004(18)
_cell_length_b                   20.028(2)
_cell_length_c                   30.412(3)
_cell_angle_alpha                108.5070(10)
_cell_angle_beta                 91.2740(10)
_cell_angle_gamma                90.7320(10)
_cell_volume                     9756.99
_exptl_crystal_colour            yellow
_exptl_crystal_description       block
_cell_formula_units_Z            2
loop_
_atom_site_label
_atom_site_type_symbol
_atom_site_fract_x
_atom_site_fract_y
_atom_site_fract_z
Pd1 Pd 0.38565(3) 0.60968(2) 0.858116(15)
Pd2 Pd 0.96672(3) 0.83327(2) 0.672006(14)
Pd3 Pd 0.15681(2) 1.149381(18) 1.013050(13)
Pd4 Pd 0.28919(3) 0.69675(3) 0.447258(17)
Pd5 Pd 0.20142(3) 1.26999(3) 0.612063(17)
Pd6 Pd 0.82016(2) 1.37155(2) 0.891422(14)
C1 C 0.6042(4) 0.7648(3) 0.6696(2)
C2 C 0.5035(4) 0.7206(3) 0.6996(2)
C3 C 0.4873(4) 0.7368(3) 0.6306(2)
C4 C 0.3599(3) 1.2532(3) 0.79633(17)
C5 C 0.3515(3) 1.2306(2) 0.86351(17)
C6 C 0.4652(3) 1.2750(3) 0.84559(17)
C7 C 0.4942(4) 0.6757(3) 0.8097(2)
H1 H 0.5254 0.6812 0.8362
C8 C 0.5213(4) 0.7027(3) 0.7766(2)
H2 H 0.5702 0.7261 0.7806
C9 C 0.4748(4) 0.6948(3) 0.7371(2)
C10 C 0.4017(4) 0.6597(4) 0.7324(2)
H3 H 0.3692 0.6537 0.7063
C11 C 0.3790(4) 0.6339(4) 0.7672(2)
H4 H 0.3304 0.6103 0.7641
C12 C 0.8011(4) 0.8198(3) 0.6375(2)
H5 H 0.8228 0.8340 0.6140
C13 C 0.7205(4) 0.8061(3) 0.6360(2)
H6 H 0.6887 0.8104 0.6117
C14 C 0.6883(4) 0.7861(3) 0.6713(2)
C15 C 0.7369(4) 0.7826(4) 0.7075(2)
H7 H 0.7159 0.7714 0.7324
C16 C 0.8182(4) 0.7960(4) 0.7064(2)
H8 H 0.8514 0.7929 0.7305
C17 C 0.3183(4) 0.6976(3) 0.5433(2)
H9 H 0.2659 0.6819 0.5407
C18 C 0.3602(3) 0.7055(3) 0.5842(2)
H10 H 0.3368 0.6944 0.6085
C19 C 0.4382(3) 0.7304(3) 0.5883(2)
C20 C 0.4708(4) 0.7476(3) 0.5518(2)
H11 H 0.5224 0.7654 0.5541
C21 C 0.4253(4) 0.7376(4) 0.5119(2)
H12 H 0.4467 0.7491 0.4873
C22 C 0.2955(3) 1.1914(3) 0.97155(18)
H13 H 0.3192 1.1919 0.9995
C23 C 0.3406(3) 1.2099(3) 0.93960(19)
H14 H 0.3936 1.2233 0.9462
C24 C 0.3055(3) 1.2082(2) 0.89761(18)
C25 C 0.2275(3) 1.1868(3) 0.88836(18)
H15 H 0.2034 1.1840 0.8600
C26 C 0.1853(3) 1.1695(3) 0.92195(19)
H16 H 0.1326 1.1550 0.9157
C27 C 0.6675(3) 1.3509(3) 0.84002(19)
H17 H 0.6952 1.3708 0.8211
C28 C 0.5898(3) 1.3288(3) 0.82823(19)
H18 H 0.5656 1.3338 0.8017
C29 C 0.5481(3) 1.2988(3) 0.85690(18)
C30 C 0.5868(3) 1.2920(3) 0.89605(19)
H19 H 0.5606 1.2724 0.9157
C31 C 0.6648(3) 1.3147(3) 0.90527(18)
H20 H 0.6909 1.3094 0.9311
C32 C 0.2125(3) 1.2368(3) 0.6992(2)
H21 H 0.1596 1.2237 0.6919
C33 C 0.2450(3) 1.2331(3) 0.74031(19)
H22 H 0.2145 1.2177 0.7604
C34 C 0.3238(3) 1.2528(3) 0.75131(17)
C35 C 0.3686(3) 1.2728(3) 0.71918(19)
H23 H 0.4220 1.2847 0.7252
C36 C 0.3326(4) 1.2745(3) 0.6788(2)
H24 H 0.3626 1.2871 0.6573
C37 C 0.2637(3) 0.7198(3) 0.8830(3)
H25 H 0.2295 0.6826 0.8676
C38 C 0.2331(3) 0.7858(3) 0.9028(2)
H26 H 0.1789 0.7925 0.9010
C39 C 0.2836(3) 0.8422(3) 0.92539(19)
C40 C 0.3640(3) 0.8296(3) 0.92623(19)
H27 H 0.3997 0.8664 0.9400
C41 C 0.3906(3) 0.7620(3) 0.9065(2)
H28 H 0.4445 0.7538 0.9079
C42 C 0.2658(3) 1.0300(3) 1.00277(19)
H29 H 0.2943 1.0625 1.0268
C43 C 0.2945(3) 0.9634(3) 0.98420(19)
H30 H 0.3414 0.9511 0.9961
C44 C 0.2536(3) 0.9141(3) 0.94758(19)
C45 C 0.1837(3) 0.9353(3) 0.9310(2)
H31 H 0.1547 0.9043 0.9065
C46 C 0.1583(3) 1.0032(3) 0.9519(2)
H32 H 0.1117 1.0171 0.9407
C47 C 0.2077(4) 0.8244(3) 0.5020(2)
H33 H 0.1744 0.7918 0.5087
C48 C 0.1969(3) 0.8947(4) 0.5239(2)
H34 H 0.1575 0.9087 0.5457
C49 C 0.2441(3) 0.9455(3) 0.5141(2)
C50 C 0.3013(4) 0.9196(4) 0.4806(2)
H35 H 0.3336 0.9507 0.4717
C51 C 0.3096(4) 0.8485(4) 0.4609(3)
H36 H 0.3486 0.8326 0.4392
C52 C 0.2820(4) 1.1408(4) 0.5607(2)
H37 H 0.3226 1.1728 0.5609
C53 C 0.2942(4) 1.0702(4) 0.5395(2)
H38 H 0.3426 1.0551 0.5263
C54 C 0.2341(3) 1.0217(3) 0.5378(2)
C55 C 0.1643(3) 1.0472(3) 0.5596(2)
H39 H 0.1230 1.0162 0.5601
C56 C 0.1565(4) 1.1182(4) 0.5806(2)
H40 H 0.1096 1.1346 0.5953
C57 C 0.9170(4) 0.9801(3) 0.6900(2)
H41 H 0.9159 0.9678 0.6578
C58 C 0.8941(4) 1.0469(3) 0.7158(2)
H42 H 0.8787 1.0789 0.7010
C59 C 0.8942(3) 1.0659(3) 0.76396(19)
C60 C 0.9155(4) 1.0149(3) 0.78391(19)
H43 H 0.9142 1.0248 0.8159
C61 C 0.9385(3) 0.9497(3) 0.75601(19)
H44 H 0.9532 0.9161 0.7696
C62 C 0.8372(3) 1.2185(3) 0.8660(2)
H45 H 0.8231 1.2267 0.8966
C63 C 0.8504(3) 1.1506(3) 0.8387(2)
H46 H 0.8436 1.1136 0.8507
C64 C 0.8739(3) 1.1372(3) 0.79305(19)
C65 C 0.8785(4) 1.1945(3) 0.7766(2)
H47 H 0.8923 1.1879 0.7461
C66 C 0.8626(4) 1.2613(3) 0.8055(2)
H48 H 0.8648 1.2989 0.7939
C67 C 0.5221(6) 0.5202(5) 0.8377(5)
H49 H 0.5461 0.4750 0.8262
H50 H 0.5372 0.5418 0.8697
H51 H 0.5396 0.5496 0.8201
C68 C 0.4063(9) 0.4729(5) 0.7854(4)
H52 H 0.4306 0.4277 0.7750
H53 H 0.4198 0.4994 0.7652
H54 H 0.3499 0.4667 0.7851
C69 C 0.4097(6) 0.4708(4) 0.8645(3)
H55 H 0.3590 0.4475 0.8536
H56 H 0.4481 0.4350 0.8640
C70 C 0.4031(5) 0.5196(4) 0.9126(3)
H57 H 0.3826 0.4943 0.9325
H58 H 0.4549 0.5391 0.9248
C71 C 0.3579(6) 0.6329(4) 0.9583(2)
H59 H 0.3405 0.6146 0.9821
H60 H 0.3262 0.6723 0.9582
H61 H 0.4124 0.6479 0.9642
C72 C 0.2668(4) 0.5512(4) 0.9032(3)
H62 H 0.2498 0.5354 0.9282
H63 H 0.2627 0.5127 0.8746
H64 H 0.2338 0.5887 0.9009
C73 C 0.0341(4) 1.0741(4) 1.0473(3)
H65 H 0.0071 1.0662 1.0727
H66 H 0.0580 1.0312 1.0293
H67 H -0.0031 1.0889 1.0281
C74 C 0.1472(4) 1.1057(5) 1.0977(3)
H68 H 0.1156 1.0970 1.1212
H69 H 0.1861 1.1418 1.1119
H70 H 0.1732 1.0633 1.0808
C75 C 0.0594(8) 1.1963(4) 1.0913(4)
H71 H 0.0048 1.1859 1.0966
H72 H 0.0861 1.2133 1.1215
C76 C 0.0588(10) 1.2465(5) 1.0747(5)
H73 H 0.0667 1.2896 1.1005
H74 H 0.0058 1.2479 1.0621
C77 C 0.0717(4) 1.2733(3) 1.0035(3)
H75 H 0.0531 1.3202 1.0175
H76 H 0.0275 1.2420 0.9908
H77 H 0.1071 1.2729 0.9792
C78 C 0.1779(6) 1.3010(4) 1.0600(3)
H78 H 0.1565 1.3472 1.0718
H79 H 0.2161 1.3003 1.0370
H80 H 0.2030 1.2888 1.0849
C79 C 0.2814(10) 0.5517(5) 0.4478(5)
H81 H 0.2964 0.5034 0.4353
H82 H 0.2249 0.5547 0.4451
H83 H 0.2979 0.5698 0.4798
C80 C 0.4047(7) 0.5833(6) 0.4226(5)
H84 H 0.4157 0.5340 0.4105
H85 H 0.4252 0.6018 0.4539
H86 H 0.4294 0.6077 0.4038
C81 C 0.2934(11) 0.5703(7) 0.3724(5)
H87 H 0.3379 0.5763 0.3543
H88 H 0.2802 0.5204 0.3629
C82 C 0.2297(9) 0.6049(6) 0.3612(4)
H89 H 0.1814 0.5828 0.3671
H90 H 0.2302 0.5986 0.3283
C83 C 0.1429(8) 0.6979(11) 0.3932(5)
H91 H 0.1158 0.6885 0.3637
H92 H 0.1401 0.7471 0.4102
H93 H 0.1185 0.6708 0.4103
C84 C 0.2585(11) 0.7163(7) 0.3578(4)
H94 H 0.2278 0.7055 0.3294
H95 H 0.3125 0.7036 0.3509
H96 H 0.2563 0.7659 0.3741
C85 C 0.1826(7) 1.2526(7) 0.5118(3)
H97 H 0.1524 1.2611 0.4871
H98 H 0.1868 1.2027 0.5059
H99 H 0.2346 1.2733 0.5136
C86 C 0.0609(6) 1.2493(7) 0.5512(4)
H100 H 0.0328 1.2547 0.5248
H101 H 0.0325 1.2717 0.5788
H102 H 0.0659 1.2001 0.5475
C87 C 0.1367(9) 1.3595(6) 0.5655(5)
H103 H 0.1837 1.3776 0.5549
H104 H 0.0916 1.3686 0.5481
C88 C 0.1276(10) 1.3967(7) 0.6132(5)
H105 H 0.0755 1.3862 0.6224
H106 H 0.1314 1.4469 0.6180
C89 C 0.2643(7) 1.4144(5) 0.6431(5)
H107 H 0.2573 1.4641 0.6574
H108 H 0.2809 1.4056 0.6118
H109 H 0.3040 1.3984 0.6603
C90 C 0.1618(10) 1.3969(6) 0.6911(5)
H110 H 0.1573 1.4471 0.7031
H111 H 0.1989 1.3815 0.7100
H112 H 0.1110 1.3750 0.6913
C91 C 0.9600(5) 0.7101(4) 0.5883(3)
H113 H 0.9731 0.6622 0.5721
H114 H 0.9815 0.7404 0.5724
H115 H 0.9035 0.7142 0.5893
C92 C 0.9661(11) 0.6826(5) 0.6606(4)
H116 H 0.9798 0.6353 0.6434
H117 H 0.9097 0.6855 0.6633
H118 H 0.9906 0.6954 0.6910
C93 C 1.0793(6) 0.7280(5) 0.6363(5)
H119 H 1.0972 0.7127 0.6620
H120 H 1.0947 0.6927 0.6079
C94 C 1.1166(6) 0.7883(5) 0.6395(5)
H121 H 1.1159 0.7936 0.6089
H122 H 1.1716 0.7842 0.6480
C95 C 1.1037(5) 0.9126(6) 0.6550(4)
H123 H 1.1600 0.9202 0.6553
H124 H 1.0797 0.9542 0.6747
H125 H 1.0828 0.9022 0.6239
C96 C 1.1212(5) 0.8695(6) 0.7188(3)
H126 H 1.1770 0.8783 0.7181
H127 H 1.1125 0.8303 0.7300
H128 H 1.0968 0.9105 0.7390
C97 C 0.7649(4) 1.4649(3) 0.9777(2)
H129 H 0.7532 1.5108 0.9983
H130 H 0.8037 1.4435 0.9921
H131 H 0.7174 1.4362 0.9709
C98 C 0.7384(4) 1.5097(3) 0.9142(2)
H132 H 0.7307 1.5556 0.9360
H133 H 0.6889 1.4839 0.9078
H134 H 0.7581 1.5145 0.8859
C99 C 0.8744(4) 1.5101(3) 0.9428(2)
H135 H 0.8863 1.5267 0.9169
H136 H 0.8720 1.5507 0.9705
C100 C 0.9377(4) 1.4624(3) 0.9488(2)
H137 H 0.9888 1.4865 0.9528
H138 H 0.9283 1.4491 0.9763
C101 C 0.9825(4) 1.3421(4) 0.9189(3)
H139 H 1.0368 1.3569 0.9260
H140 H 0.9796 1.2995 0.8930
H141 H 0.9597 1.3337 0.9454
C102 C 0.9767(4) 1.4140(4) 0.8683(2)
H142 H 1.0314 1.4264 0.8766
H143 H 0.9510 1.4526 0.8620
H144 H 0.9732 1.3732 0.8412
N1 N 0.4239(3) 0.6415(2) 0.80515(18)
N2 N 0.8486(3) 0.8133(3) 0.67129(17)
N3 N 0.3503(3) 0.7115(3) 0.50773(19)
N4 N 0.5779(3) 0.7458(3) 0.70513(17)
N5 N 0.5613(3) 0.7625(2) 0.63133(17)
N6 N 0.4557(3) 0.7150(3) 0.66334(17)
N7 N 0.2184(2) 1.1729(2) 0.96333(15)
N8 N 0.7040(2) 1.3444(2) 0.87789(16)
N9 N 0.2553(3) 1.2587(3) 0.66927(16)
N10 N 0.4274(2) 1.2516(2) 0.87584(15)
N11 N 0.4343(2) 1.2783(2) 0.80584(15)
N12 N 0.3159(2) 1.2290(2) 0.82417(15)
N13 N 0.3413(3) 0.7076(2) 0.88541(17)
N14 N 0.1974(2) 1.0497(2) 0.98714(15)
N15 N 0.2642(3) 0.8011(3) 0.47147(18)
N16 N 0.2149(3) 1.1651(3) 0.58068(16)
N17 N 0.9403(3) 0.9335(2) 0.70962(16)
N18 N 0.8440(2) 1.2733(2) 0.84989(16)
N19 N 0.4351(5) 0.5114(3) 0.8331(3)
N20 N 0.3495(4) 0.5766(3) 0.91188(19)
N21 N 0.0956(3) 1.1289(2) 1.06536(17)
N22 N 0.1139(3) 1.2499(2) 1.03905(19)
N23 N 0.3193(4) 0.5931(3) 0.4219(2)
N24 N 0.2274(5) 0.6780(4) 0.3857(2)
N25 N 0.1435(5) 1.2836(4) 0.5553(2)
N26 N 0.1898(5) 1.3770(3) 0.6429(3)
N27 N 0.9939(4) 0.7308(3) 0.63646(19)
N28 N 1.0865(3) 0.8531(3) 0.67203(18)
N29 N 0.7964(3) 1.4714(2) 0.93389(17)
N30 N 0.9376(3) 1.3985(3) 0.90717(18)
C103 C 0.6488(8) 0.9749(4) 0.1213(4)
H145 H 0.6514 0.9834 0.0931
C104 C 0.5815(6) 0.9483(4) 0.1327(3)
H146 H 0.5382 0.9395 0.1121
C105 C 0.5746(5) 0.9332(4) 0.1754(3)
C106 C 0.6413(4) 0.9470(3) 0.2052(2)
C107 C 0.7100(5) 0.9758(4) 0.1923(3)
H147 H 0.7540 0.9857 0.2125
C108 C 0.7141(7) 0.9896(5) 0.1515(4)
H148 H 0.7602 1.0087 0.1438
C109 C 0.3620(5) 0.8530(4) 0.2120(4)
H149 H 0.3157 0.8338 0.2194
C110 C 0.4269(6) 0.8682(4) 0.2422(4)
H150 H 0.4218 0.8608 0.2707
C111 C 0.5003(4) 0.8941(3) 0.2330(3)
C112 C 0.5029(4) 0.9064(4) 0.1874(3)
C113 C 0.4351(5) 0.8903(4) 0.1599(4)
H151 H 0.4380 0.8966 0.1310
C114 C 0.3682(7) 0.8675(6) 0.1694(5)
H152 H 0.3250 0.8608 0.1488
C115 C 0.7012(8) 0.9332(6) 0.3233(4)
H153 H 0.7453 0.9399 0.3432
C116 C 0.7044(6) 0.9453(4) 0.2793(3)
H154 H 0.7518 0.9610 0.2706
C117 C 0.6403(4) 0.9347(3) 0.2500(2)
C118 C 0.5691(5) 0.9095(4) 0.2631(3)
C119 C 0.5670(7) 0.8989(4) 0.3064(3)
H155 H 0.5201 0.8829 0.3153
C120 C 0.6279(9) 0.9107(5) 0.3346(4)
H156 H 0.6227 0.9039 0.3632
C121 C 0.6643(9) 0.9642(6) 0.8873(4)
H157 H 0.6277 0.9504 0.9067
H158 H 0.6763 1.0137 0.9002
H159 H 0.7122 0.9383 0.8856
C122 C 0.6671(6) 0.9638(5) 0.8042(4)
C123 C 0.5548(6) 0.9178(4) 0.8367(3)
C124 C 0.6237(5) 0.9506(4) 0.7608(3)
C125 C 0.5084(4) 0.9039(4) 0.7940(3)
C126 C 0.6517(6) 0.9691(5) 0.7245(4)
H160 H 0.7031 0.9875 0.7276
C127 C 0.5400(6) 0.9228(4) 0.7555(3)
C128 C 0.4311(6) 0.8781(4) 0.7884(3)
H161 H 0.4088 0.8664 0.8127
C129 C 0.6107(5) 0.9630(4) 0.6839(3)
H162 H 0.6326 0.9754 0.6598
C130 C 0.4957(4) 0.9172(4) 0.7160(3)
C131 C 0.3850(5) 0.8688(4) 0.7485(3)
H163 H 0.3341 0.8496 0.7456
C132 C 0.5315(7) 0.9360(4) 0.6819(3)
C133 C 0.4197(4) 0.8906(4) 0.7104(4)
C134 C 0.4805(6) 0.9305(4) 0.6365(3)
C135 C 0.3654(5) 0.8832(4) 0.6699(3)
C136 C 0.3617(9) 0.9033(6) 0.5961(4)
H164 H 0.3931 0.9192 0.5753
H165 H 0.3168 0.9329 0.6050
H166 H 0.3439 0.8556 0.5809
N31 N 0.6285(5) 0.9493(4) 0.8401(3)
N32 N 0.4066(6) 0.9063(4) 0.6349(3)
O1 O 0.7350(4) 0.9847(5) 0.8093(3)
O2 O 0.5258(5) 0.9030(4) 0.8697(3)
O3 O 0.5095(6) 0.9466(5) 0.6056(3)
O4 O 0.3027(4) 0.8624(4) 0.6649(3)
N33 N 0.9251(6) 0.3879(5) 1.0743(3)
O5 O 0.9226(8) 0.4111(7) 1.0455(4)
O6 O 0.8881(5) 0.3367(4) 1.0796(3)
O7 O 0.9779(7) 0.4180(6) 1.1076(4)
N34 N 0.3287(7) 0.2325(7) 0.1162(4)
O8 O 0.3511(7) 0.2963(6) 0.1194(4)
O9 O 0.3204(5) 0.1879(4) 0.0808(3)
O10 O 0.3079(8) 0.2209(7) 0.1544(5)
N35 N 0.9608(6) 0.8866(6) 0.5501(3)
O11 O 1.0206(6) 0.9053(7) 0.5391(4)
O12 O 0.9026(7) 0.9172(7) 0.5305(4)
O13 O 0.9414(5) 0.8630(5) 0.5794(3)
N36 N 0.2388(7) 0.3695(6) 0.9400(5)
O14 O 0.2425(7) 0.3561(5) 0.9754(4)
O15 O 0.1762(8) 0.3825(7) 0.9185(5)
O16 O 0.3038(6) 0.3780(5) 0.9223(3)
N37 N 0.9360(5) 0.0926(4) 0.9406(3)
O17 O 1.0013(7) 0.1097(6) 0.9520(4)
O18 O 0.8969(7) 0.1096(7) 0.9719(5)
O19 O 0.9057(6) 0.0549(5) 0.9020(4)
N38 N 0.5368(6) 0.1658(6) 0.9786(4)
O20 O 0.5802(6) 0.1137(6) 0.9605(4)
O21 O 0.4725(12) 0.1457(11) 0.9971(7)
O23 O 0.5522(6) 0.2196(6) 0.9766(4)
O22 O 0.1011(7) 0.0445(6) 0.7751(4)
N39 N 0.0859(8) 0.1075(8) 0.7868(5)
O24 O 0.0653(7) 0.1387(6) 0.8253(4)
O25 O 0.0848(8) 0.1401(8) 0.7542(5)
N40 N 0.2129(8) 0.7925(7) 0.7935(4)
O26 O 0.2541(10) 0.7550(9) 0.7692(6)
O27 O 0.2178(7) 0.8478(7) 0.8137(4)
O28 O 0.1504(11) 0.7577(9) 0.7910(6)
N41 N 0.7763(14) 0.1107(12) 0.6438(8)
O29 O 0.7398(14) 0.0608(12) 0.6333(8)
O30 O 0.750(2) 0.1561(15) 0.6799(10)
O31 O 0.8354(16) 0.1259(16) 0.6169(10)
O32 O 0.8019(7) 0.2986(6) 0.9802(4)
O33 O 0.4405(7) 0.3214(6) 0.0532(4)
O34 O 0.5565(11) 0.3561(10) 0.7186(7)
O35 O 0.5265(16) 0.5796(14) 0.5514(10)
O36 O 0.9445(12) 0.5176(10) 0.6872(7)
O37 O 0.6999(15) 0.6184(12) 0.6385(8)
O38 O 0.5024(12) 0.5173(10) 0.6836(7)
O39 O 0.2520(8) 0.5989(7) 0.6307(5)
O40 O 0.1411(12) 0.5543(10) 0.6090(7)
O41 O 0.2389(15) 0.5373(13) 0.5627(9)
O42 O 0.0700(8) 0.0780(7) 0.6605(5)
O43 O 0.7559(9) 0.6430(8) 0.5617(5)
O44 O 0.047(2) 0.3647(19) 0.2034(12)
O45 O 0.0637(10) 0.2797(9) 0.7918(6)
O46 O 0.380(2) 0.391(2) 0.5543(14)
O47 O 0.9879(9) 0.5154(8) 0.5635(6)
O48 O 0.0409(8) 0.8829(6) 0.8363(4)
O49 O 0.607(3) 0.587(2) 0.6830(15)
O50 O 0.3993(17) 0.2898(15) 0.5772(10)
O51 O 0.7388(7) 0.1644(6) 0.9457(4)
O52 O 0.7503(7) 0.9236(7) 0.5735(4)
O53 O 1.0160(8) 0.2772(7) 0.6873(5)
O54 O 0.365(3) 0.357(3) 0.4561(17)
O55 O 0.6392(7) 0.8343(7) 0.5367(4)
O56 O 0.0987(5) 0.6456(4) 0.4995(3)
O57 O 0.5102(17) 0.9861(15) 0.4690(9)
O58 O 0.5363(18) 0.2469(16) 0.5999(10)
O59 O 0.1854(5) 0.3792(5) 0.8204(3)
O60 O 0.1809(9) 0.6200(8) 0.7149(5)
O61 O 0.6695(14) 0.5519(12) 0.7408(8)
O62 O 0.9544(10) 0.7739(9) 0.7783(5)
O63 O 0.5385(9) 0.9375(8) 0.9708(5)
O121 O 0.5647(3) 0.4555(3) 0.95271(17)
O122 O 0.4265(3) 0.4024(3) 0.98722(18)
O123 O 0.2167(4) 0.5648(4) 0.7925(2)
O124 O 0.9577(5) 0.0660(4) 0.5436(3)
O125 O 0.0898(5) 0.4814(4) 0.8035(3)
O126 O 0.8313(5) 0.4190(4) 0.7862(3)
O127 O 0.8595(5) 0.5570(5) 0.8376(3)
O128 O 0.8236(14) 0.7108(12) 0.7905(8)
O129 O 0.0691(6) 0.0175(5) 0.8552(3)
O130 O 0.9660(7) 0.4174(7) 0.7352(4)
O131 O 0.6879(7) 0.4261(7) 0.7528(4)
O132 O 0.1396(8) 0.4416(7) 0.4830(4)
O133 O 0.3946(8) 0.5280(7) 0.5856(5)
O134 O 0.7986(11) 0.5951(10) 0.7008(7)
N42? N 0.9518(6) 0.9082(7) 0.5547(4)
O64? O 0.9041(8) 0.9419(8) 0.5444(5)
O65? O 0.9294(7) 0.8825(7) 0.5849(4)
O66? O 1.0218(7) 0.8796(8) 0.5343(5)
N43? N 0.2345(7) 0.3701(6) 0.9261(5)
O67? O 0.2153(7) 0.3566(5) 0.9639(4)
O68? O 0.1803(12) 0.3698(11) 0.8989(7)
O69? O 0.2986(9) 0.3761(8) 0.9109(5)
N44? N 0.8685(8) 0.3374(7) 1.0172(5)
O70? O 0.9088(10) 0.3843(9) 1.0324(6)
O71? O 0.8575(15) 0.2989(12) 1.0437(8)
O72? O 0.8334(14) 0.3187(12) 0.9759(6)
N45? N 0.0894(14) 0.1073(11) 0.7601(6)
O73? O 0.0959(13) 0.0478(10) 0.7534(8)
O74? O 0.0824(11) 0.1503(10) 0.8014(6)
O75? O 0.0751(14) 0.1298(12) 0.7227(7)
O76? O 0.7686(13) 0.9647(13) 0.5923(8)
O77? O 0.693(2) 0.2587(18) 0.7341(12)
O78? O 0.9295(10) 0.1497(9) 0.6362(6)
O79? O 0.9617(18) 0.4071(16) 1.1388(11)
O80? O 0.5841(16) 0.2815(15) 0.7079(9)
O81? O 0.4888(14) 0.3719(13) 0.6724(8)
O82? O 0.4843(12) 0.5629(10) 0.5245(7)
O83? O 1.0143(17) 0.5433(15) 0.7153(10)
O84? O 0.9064(13) 0.5199(12) 0.6417(8)
O85? O 0.773(2) 0.6236(17) 0.6119(11)
O86? O 0.4474(14) 0.4915(12) 0.6638(8)
O87? O 0.5412(14) 0.5180(12) 0.7140(8)
O88? O 0.2239(13) 0.5758(11) 0.6051(8)
O89? O 0.3880(19) 0.2787(16) 0.0989(11)
O90? O 0.0373(11) 0.0457(10) 0.6347(7)
O91? O 0.5358(16) 0.5647(14) 0.6608(9)
O92? O 0.4530(9) 0.3160(8) 0.0350(6)
O93? O 0.9706(12) 0.3625(11) 0.2512(7)
O94? O 0.0571(9) 0.2857(8) 0.7731(6)
O95? O 0.630(2) 0.1824(19) 0.9623(12)
O96? O 0.503(2) 0.2789(18) 0.6035(11)
O97? O 0.775(2) 0.205(2) 0.9751(14)
O98? O 0.235(2) 0.735(2) 0.7229(14)
O99? O 1.0075(9) 0.0984(8) 0.9365(6)
O100? O 0.483(3) 0.884(2) 0.4095(15)
O101? O 0.3824(12) 0.3939(11) 0.5086(8)
O102? O 0.9836(14) 0.4966(12) 0.5914(8)
O103? O 0.0743(13) 0.8692(11) 0.8379(7)
O104? O 0.602(2) 0.6055(18) 0.6230(12)
O105? O 0.3800(9) 0.2813(8) 0.5413(6)
O106? O 0.6200(13) 0.8701(12) 0.5402(7)
O107? O 0.1294(8) 0.6905(8) 0.5236(5)
O108? O 0.646(3) 0.111(2) 0.6463(15)
O109? O 0.074(2) 0.2577(18) 0.8276(12)
O110? O 0.4857(9) 0.1842(9) 1.0030(5)
O111? O 0.9741(11) 0.8020(11) 0.7768(6)
O112? O 0.501(3) 0.983(3) 0.9708(13)
O113? O 0.9324(8) 0.2999(7) 0.1577(5)
O114? O 0.2950(18) 0.3981(16) 0.1723(10)
O115? O 0.0419(12) 0.6220(10) 0.4835(7)
O116? O 1.0150(16) 0.2269(15) 0.6516(10)
O117? O 0.5242(16) 0.8711(14) 0.4978(9)
O118? O 0.8720(14) 0.0744(12) 0.9229(8)
O119? O 0.1137(15) 0.5427(13) 0.5633(9)
O120? O 0.8928(14) 0.1515(13) 0.9899(8)
loop_
_geom_bond_atom_site_label_1
_geom_bond_atom_site_label_2
_geom_bond_site_symmetry_1
_geom_bond_site_symmetry_2
Pd1 N1 1_555 1_555
Pd2 N2 1_555 1_555
Pd3 N7 1_555 1_555
Pd4 N3 1_555 1_555
Pd5 N9 1_555 1_555
Pd6 N8 1_555 1_555
C1 C14 1_555 1_555
C2 C9 1_555 1_555
C3 C19 1_555 1_555
C4 C34 1_555 1_555
C5 C24 1_555 1_555
C6 C29 1_555 1_555
C7 H1 1_555 1_555
C8 C7 1_555 1_555
H2 C8 1_555 1_555
C9 C8 1_555 1_555
C10 C9 1_555 1_555
H3 C10 1_555 1_555
C11 C10 1_555 1_555
H4 C11 1_555 1_555
C12 H5 1_555 1_555
C13 C12 1_555 1_555
H6 C13 1_555 1_555
C14 C13 1_555 1_555
C15 C14 1_555 1_555
H7 C15 1_555 1_555
C16 C15 1_555 1_555
H8 C16 1_555 1_555
C17 H9 1_555 1_555
C18 C17 1_555 1_555
H10 C18 1_555 1_555
C19 C18 1_555 1_555
C20 C19 1_555 1_555
H11 C20 1_555 1_555
C21 C20 1_555 1_555
H12 C21 1_555 1_555
C22 H13 1_555 1_555
C23 C22 1_555 1_555
H14 C23 1_555 1_555
C24 C23 1_555 1_555
C25 C24 1_555 1_555
H15 C25 1_555 1_555
C26 C25 1_555 1_555
H16 C26 1_555 1_555
C27 H17 1_555 1_555
C28 C27 1_555 1_555
H18 C28 1_555 1_555
C29 C28 1_555 1_555
C30 C29 1_555 1_555
H19 C30 1_555 1_555
C31 C30 1_555 1_555
H20 C31 1_555 1_555
C32 H21 1_555 1_555
C33 C32 1_555 1_555
H22 C33 1_555 1_555
C34 C33 1_555 1_555
C35 C34 1_555 1_555
H23 C35 1_555 1_555
C36 C35 1_555 1_555
H24 C36 1_555 1_555
C37 H25 1_555 1_555
C38 C37 1_555 1_555
H26 C38 1_555 1_555
C39 C38 1_555 1_555
C40 C39 1_555 1_555
H27 C40 1_555 1_555
C41 C40 1_555 1_555
H28 C41 1_555 1_555
C42 H29 1_555 1_555
C43 C42 1_555 1_555
H30 C43 1_555 1_555
C44 C39 1_555 1_555
C45 C44 1_555 1_555
H31 C45 1_555 1_555
C46 C45 1_555 1_555
H32 C46 1_555 1_555
C47 H33 1_555 1_555
C48 C47 1_555 1_555
H34 C48 1_555 1_555
C49 C48 1_555 1_555
C50 C49 1_555 1_555
H35 C50 1_555 1_555
C51 C50 1_555 1_555
H36 C51 1_555 1_555
C52 H37 1_555 1_555
C53 C52 1_555 1_555
H38 C53 1_555 1_555
C54 C49 1_555 1_555
C55 C54 1_555 1_555
H39 C55 1_555 1_555
C56 C55 1_555 1_555
H40 C56 1_555 1_555
C57 H41 1_555 1_555
C58 C57 1_555 1_555
H42 C58 1_555 1_555
C59 C58 1_555 1_555
C60 C59 1_555 1_555
H43 C60 1_555 1_555
C61 C60 1_555 1_555
H44 C61 1_555 1_555
C62 H45 1_555 1_555
C63 C62 1_555 1_555
H46 C63 1_555 1_555
C64 C59 1_555 1_555
C65 C64 1_555 1_555
H47 C65 1_555 1_555
C66 C65 1_555 1_555
H48 C66 1_555 1_555
C67 H49 1_555 1_555
H50 C67 1_555 1_555
H51 C67 1_555 1_555
C68 H52 1_555 1_555
H53 C68 1_555 1_555
H54 C68 1_555 1_555
C69 H55 1_555 1_555
H56 C69 1_555 1_555
C70 C69 1_555 1_555
H57 C70 1_555 1_555
H58 C70 1_555 1_555
C71 H59 1_555 1_555
H60 C71 1_555 1_555
H61 C71 1_555 1_555
C72 H62 1_555 1_555
H63 C72 1_555 1_555
H64 C72 1_555 1_555
C73 H65 1_555 1_555
H66 C73 1_555 1_555
H67 C73 1_555 1_555
C74 H68 1_555 1_555
H69 C74 1_555 1_555
H70 C74 1_555 1_555
C75 H71 1_555 1_555
H72 C75 1_555 1_555
C76 C75 1_555 1_555
H73 C76 1_555 1_555
H74 C76 1_555 1_555
C77 H75 1_555 1_555
H76 C77 1_555 1_555
H77 C77 1_555 1_555
C78 H78 1_555 1_555
H79 C78 1_555 1_555
H80 C78 1_555 1_555
C79 H81 1_555 1_555
H82 C79 1_555 1_555
H83 C79 1_555 1_555
C80 H84 1_555 1_555
H85 C80 1_555 1_555
H86 C80 1_555 1_555
C81 H87 1_555 1_555
H88 C81 1_555 1_555
C82 C81 1_555 1_555
H89 C82 1_555 1_555
H90 C82 1_555 1_555
C83 H91 1_555 1_555
H92 C83 1_555 1_555
H93 C83 1_555 1_555
C84 H94 1_555 1_555
H95 C84 1_555 1_555
H96 C84 1_555 1_555
C85 H97 1_555 1_555
H98 C85 1_555 1_555
H99 C85 1_555 1_555
C86 H100 1_555 1_555
H101 C86 1_555 1_555
H102 C86 1_555 1_555
C87 H103 1_555 1_555
H104 C87 1_555 1_555
C88 C87 1_555 1_555
H105 C88 1_555 1_555
H106 C88 1_555 1_555
C89 H107 1_555 1_555
H108 C89 1_555 1_555
H109 C89 1_555 1_555
C90 H110 1_555 1_555
H111 C90 1_555 1_555
H112 C90 1_555 1_555
C91 H113 1_555 1_555
H114 C91 1_555 1_555
H115 C91 1_555 1_555
C92 H116 1_555 1_555
H117 C92 1_555 1_555
H118 C92 1_555 1_555
C93 H119 1_555 1_555
H120 C93 1_555 1_555
C94 C93 1_555 1_555
H121 C94 1_555 1_555
H122 C94 1_555 1_555
C95 H123 1_555 1_555
H124 C95 1_555 1_555
H125 C95 1_555 1_555
C96 H126 1_555 1_555
H127 C96 1_555 1_555
H128 C96 1_555 1_555
C97 H129 1_555 1_555
H130 C97 1_555 1_555
H131 C97 1_555 1_555
C98 H132 1_555 1_555
H133 C98 1_555 1_555
H134 C98 1_555 1_555
C99 H135 1_555 1_555
H136 C99 1_555 1_555
C100 C99 1_555 1_555
H137 C100 1_555 1_555
H138 C100 1_555 1_555
C101 H139 1_555 1_555
H140 C101 1_555 1_555
H141 C101 1_555 1_555
C102 H142 1_555 1_555
H143 C102 1_555 1_555
H144 C102 1_555 1_555
N1 C7 1_555 1_555
N2 C12 1_555 1_555
N3 C17 1_555 1_555
N4 C1 1_555 1_555
N5 C1 1_555 1_555
N6 C2 1_555 1_555
N7 C22 1_555 1_555
N8 C27 1_555 1_555
N9 C32 1_555 1_555
N10 C5 1_555 1_555
N11 C4 1_555 1_555
N12 C4 1_555 1_555
N13 Pd1 1_555 1_555
N14 Pd3 1_555 1_555
N15 Pd4 1_555 1_555
N16 Pd5 1_555 1_555
N17 Pd2 1_555 1_555
N18 Pd6 1_555 1_555
N19 Pd1 1_555 1_555
N20 Pd1 1_555 1_555
N21 Pd3 1_555 1_555
N22 Pd3 1_555 1_555
N23 Pd4 1_555 1_555
N24 Pd4 1_555 1_555
N25 Pd5 1_555 1_555
N26 Pd5 1_555 1_555
N27 Pd2 1_555 1_555
N28 Pd2 1_555 1_555
N29 Pd6 1_555 1_555
N30 Pd6 1_555 1_555
C103 H145 1_555 1_555
C104 C103 1_555 1_555
H146 C104 1_555 1_555
C105 C104 1_555 1_555
C106 C105 1_555 1_555
C107 C106 1_555 1_555
H147 C107 1_555 1_555
C108 C103 1_555 1_555
H148 C108 1_555 1_555
C109 H149 1_555 1_555
C110 C109 1_555 1_555
H150 C110 1_555 1_555
C111 C110 1_555 1_555
C112 C105 1_555 1_555
C113 C112 1_555 1_555
H151 C113 1_555 1_555
C114 C109 1_555 1_555
H152 C114 1_555 1_555
C115 H153 1_555 1_555
C116 C115 1_555 1_555
H154 C116 1_555 1_555
C117 C106 1_555 1_555
C118 C111 1_555 1_555
C119 C118 1_555 1_555
H155 C119 1_555 1_555
C120 C115 1_555 1_555
H156 C120 1_555 1_555
C121 H157 1_555 1_555
H158 C121 1_555 1_555
H159 C121 1_555 1_555
C122 C124 1_555 1_555
C123 C125 1_555 1_555
C124 C126 1_555 1_555
C125 C127 1_555 1_555
C126 H160 1_555 1_555
C127 C124 1_555 1_555
C128 C125 1_555 1_555
H161 C128 1_555 1_555
C129 C126 1_555 1_555
H162 C129 1_555 1_555
C130 C127 1_555 1_555
C131 C128 1_555 1_555
H163 C131 1_555 1_555
C132 C129 1_555 1_555
C133 C130 1_555 1_555
C134 C132 1_555 1_555
C135 C133 1_555 1_555
C136 H164 1_555 1_555
H165 C136 1_555 1_555
H166 C136 1_555 1_555
N31 C121 1_555 1_555
N32 C134 1_555 1_555
O1 C122 1_555 1_555
O2 C123 1_555 1_555
O3 C134 1_555 1_555
O4 C135 1_555 1_555
N33 O5 1_555 1_555
O6 N33 1_555 1_555
O7 N33 1_555 1_555
N34 O8 1_555 1_555
O9 N34 1_555 1_555
O10 N34 1_555 1_555
N35 O11 1_555 1_555
O12 N35 1_555 1_555
O13 N35 1_555 1_555
N36 O14 1_555 1_555
O15 N36 1_555 1_555
O16 N36 1_555 1_555
N37 O17 1_555 1_555
O18 N37 1_555 1_555
O19 N37 1_555 1_555
N38 O20 1_555 1_555
O21 N38 1_555 1_555
O22 N39 1_555 1_555
N39 O24 1_555 1_555
O23 N38 1_555 1_555
O25 N39 1_555 1_555
N40 O26 1_555 1_555
O27 N40 1_555 1_555
O28 N40 1_555 1_555
N41 O29 1_555 1_555
O30 N41 1_555 1_555
O31 N41 1_555 1_555
C2 N4 1_555 1_555
C3 N5 1_555 1_555
C3 N6 1_555 1_555
C5 N12 1_555 1_555
C6 N10 1_555 1_555
C6 N11 1_555 1_555
C11 N1 1_555 1_555
C16 N2 1_555 1_555
C21 N3 1_555 1_555
C26 N7 1_555 1_555
C31 N8 1_555 1_555
C36 N9 1_555 1_555
C37 N13 1_555 1_555
C41 N13 1_555 1_555
C42 N14 1_555 1_555
C43 C44 1_555 1_555
C46 N14 1_555 1_555
C47 N15 1_555 1_555
C51 N15 1_555 1_555
C52 N16 1_555 1_555
C53 C54 1_555 1_555
C56 N16 1_555 1_555
C57 N17 1_555 1_555
C61 N17 1_555 1_555
C62 N18 1_555 1_555
C63 C64 1_555 1_555
C66 N18 1_555 1_555
C67 N19 1_555 1_555
C68 N19 1_555 1_555
C69 N19 1_555 1_555
C70 N20 1_555 1_555
C71 N20 1_555 1_555
C72 N20 1_555 1_555
C73 N21 1_555 1_555
C74 N21 1_555 1_555
C75 N21 1_555 1_555
C76 N22 1_555 1_555
C77 N22 1_555 1_555
C78 N22 1_555 1_555
C79 N23 1_555 1_555
C80 N23 1_555 1_555
C81 N23 1_555 1_555
C82 N24 1_555 1_555
C83 N24 1_555 1_555
C84 N24 1_555 1_555
C85 N25 1_555 1_555
C86 N25 1_555 1_555
C87 N25 1_555 1_555
C88 N26 1_555 1_555
C89 N26 1_555 1_555
C90 N26 1_555 1_555
C91 N27 1_555 1_555
C92 N27 1_555 1_555
C93 N27 1_555 1_555
C94 N28 1_555 1_555
C95 N28 1_555 1_555
C96 N28 1_555 1_555
C97 N29 1_555 1_555
C98 N29 1_555 1_555
C99 N29 1_555 1_555
C100 N30 1_555 1_555
C101 N30 1_555 1_555
C102 N30 1_555 1_555
C107 C108 1_555 1_555
C111 C112 1_555 1_555
C113 C114 1_555 1_555
C116 C117 1_555 1_555
C117 C118 1_555 1_555
C119 C120 1_555 1_555
C122 N31 1_555 1_555
C123 N31 1_555 1_555
C130 C132 1_555 1_555
C131 C133 1_555 1_555
C135 N32 1_555 1_555
C136 N32 1_555 1_555

#END
