# generated using pymatgen
data_H322Pt12C222(N19O30)5
_symmetry_space_group_name_H-M   'P 1'
_cell_length_a   23.60100000
_cell_length_b   25.57200000
_cell_length_c   27.94400000
_cell_angle_alpha   90.00000000
_cell_angle_beta   90.00000000
_cell_angle_gamma   90.00000000
_symmetry_Int_Tables_number   1
_chemical_formula_structural   H322Pt12C222(N19O30)5
_chemical_formula_sum   'H644 Pt24 C444 N190 O300'
_cell_volume   16864.89622877
_cell_formula_units_Z   2
loop_
 _symmetry_equiv_pos_site_id
 _symmetry_equiv_pos_as_xyz
  1  'x, y, z'
loop_
 _atom_site_type_symbol
 _atom_site_label
 _atom_site_symmetry_multiplicity
 _atom_site_fract_x
 _atom_site_fract_y
 _atom_site_fract_z
 _atom_site_occupancy
  H  H1  1  0.648400  0.673100  0.946100  1
  H  H2  1  0.351600  0.326900  0.946100  1
  H  H3  1  0.851600  0.173100  0.053900  1
  H  H4  1  0.148400  0.826900  0.053900  1
  H  H5  1  0.614800  0.572500  0.915900  1
  H  H6  1  0.385200  0.427500  0.915900  1
  H  H7  1  0.885200  0.072500  0.084100  1
  H  H8  1  0.114800  0.927500  0.084100  1
  H  H9  1  0.727700  0.613600  0.922700  1
  H  H10  1  0.272300  0.386400  0.922700  1
  H  H11  1  0.772300  0.113600  0.077300  1
  H  H12  1  0.227700  0.886400  0.077300  1
  H  H13  1  0.712200  0.556900  0.901900  1
  H  H14  1  0.287800  0.443100  0.901900  1
  H  H15  1  0.787800  0.056900  0.098100  1
  H  H16  1  0.212200  0.943100  0.098100  1
  H  H17  1  0.676500  0.530900  0.979300  1
  H  H18  1  0.323500  0.469100  0.979300  1
  H  H19  1  0.823500  0.030900  0.020700  1
  H  H20  1  0.176500  0.969100  0.020700  1
  H  H21  1  0.741500  0.548800  0.984300  1
  H  H22  1  0.258500  0.451200  0.984300  1
  H  H23  1  0.758500  0.048800  0.015700  1
  H  H24  1  0.241500  0.951200  0.015700  1
  H  H25  1  0.713000  0.631200  0.007600  1
  H  H26  1  0.287000  0.368800  0.007600  1
  H  H27  1  0.787000  0.131200  0.992400  1
  H  H28  1  0.213000  0.868800  0.992400  1
  H  H29  1  0.687900  0.587900  0.043000  1
  H  H30  1  0.312100  0.412100  0.043000  1
  H  H31  1  0.812100  0.087900  0.957000  1
  H  H32  1  0.187900  0.912100  0.957000  1
  H  H33  1  0.595500  0.594900  0.005100  1
  H  H34  1  0.404500  0.405100  0.005100  1
  H  H35  1  0.904500  0.094900  0.994900  1
  H  H36  1  0.095500  0.905100  0.994900  1
  H  H37  1  0.614700  0.652100  0.022700  1
  H  H38  1  0.385300  0.347900  0.022700  1
  H  H39  1  0.885300  0.152100  0.977300  1
  H  H40  1  0.114700  0.847900  0.977300  1
  H  H41  1  0.975300  0.584400  0.972200  1
  H  H42  1  0.024700  0.415600  0.972200  1
  H  H43  1  0.524700  0.084400  0.027800  1
  H  H44  1  0.475300  0.915600  0.027800  1
  H  H45  1  0.895300  0.664700  0.944300  1
  H  H46  1  0.104700  0.335300  0.944300  1
  H  H47  1  0.604700  0.164700  0.055700  1
  H  H48  1  0.395300  0.835300  0.055700  1
  H  H49  1  0.877800  0.555400  0.960400  1
  H  H50  1  0.122200  0.444600  0.960400  1
  H  H51  1  0.622200  0.055400  0.039600  1
  H  H52  1  0.377800  0.944600  0.039600  1
  H  H53  1  0.830000  0.594100  0.940300  1
  H  H54  1  0.170000  0.405900  0.940300  1
  H  H55  1  0.670000  0.094100  0.059700  1
  H  H56  1  0.330000  0.905900  0.059700  1
  H  H57  1  0.834500  0.643300  0.011800  1
  H  H58  1  0.165500  0.356700  0.011800  1
  H  H59  1  0.665500  0.143300  0.988200  1
  H  H60  1  0.334500  0.856700  0.988200  1
  H  H61  1  0.817900  0.583800  0.023100  1
  H  H62  1  0.182100  0.416200  0.023100  1
  H  H63  1  0.682100  0.083800  0.976900  1
  H  H64  1  0.317900  0.916200  0.976900  1
  H  H65  1  0.910900  0.564700  0.044000  1
  H  H66  1  0.089100  0.435300  0.044000  1
  H  H67  1  0.589100  0.064700  0.956000  1
  H  H68  1  0.410900  0.935300  0.956000  1
  H  H69  1  0.889000  0.612800  0.075500  1
  H  H70  1  0.111000  0.387200  0.075500  1
  H  H71  1  0.611000  0.112800  0.924500  1
  H  H72  1  0.389000  0.887200  0.924500  1
  H  H73  1  0.941400  0.673000  0.028300  1
  H  H74  1  0.058600  0.327000  0.028300  1
  H  H75  1  0.558600  0.173000  0.971700  1
  H  H76  1  0.441400  0.827000  0.971700  1
  H  H77  1  0.984200  0.627800  0.045300  1
  H  H78  1  0.015800  0.372200  0.045300  1
  H  H79  1  0.515800  0.127800  0.954700  1
  H  H80  1  0.484200  0.872200  0.954700  1
  H  H81  1  0.562300  0.589200  0.532700  1
  H  H82  1  0.437700  0.410800  0.532700  1
  H  H83  1  0.937700  0.089200  0.467300  1
  H  H84  1  0.062300  0.910800  0.467300  1
  H  H85  1  0.641200  0.671500  0.550500  1
  H  H86  1  0.358800  0.328500  0.550500  1
  H  H87  1  0.858800  0.171500  0.449500  1
  H  H88  1  0.141200  0.828500  0.449500  1
  H  H89  1  0.677100  0.568500  0.540600  1
  H  H90  1  0.322900  0.431500  0.540600  1
  H  H91  1  0.822900  0.068500  0.459400  1
  H  H92  1  0.177100  0.931500  0.459400  1
  H  H93  1  0.715400  0.617700  0.554500  1
  H  H94  1  0.284600  0.382300  0.554500  1
  H  H95  1  0.784600  0.117700  0.445500  1
  H  H96  1  0.215400  0.882300  0.445500  1
  H  H97  1  0.725400  0.593000  0.470700  1
  H  H98  1  0.274600  0.407000  0.470700  1
  H  H99  1  0.774600  0.093000  0.529300  1
  H  H100  1  0.225400  0.907000  0.529300  1
  H  H101  1  0.706500  0.653000  0.476700  1
  H  H102  1  0.293500  0.347000  0.476700  1
  H  H103  1  0.793500  0.153000  0.523300  1
  H  H104  1  0.206500  0.847000  0.523300  1
  H  H105  1  0.645000  0.615400  0.419000  1
  H  H106  1  0.355000  0.384600  0.419000  1
  H  H107  1  0.855000  0.115400  0.581000  1
  H  H108  1  0.145000  0.884600  0.581000  1
  H  H109  1  0.631600  0.566800  0.453200  1
  H  H110  1  0.368400  0.433200  0.453200  1
  H  H111  1  0.868400  0.066800  0.546800  1
  H  H112  1  0.131600  0.933200  0.546800  1
  H  H113  1  0.589600  0.672000  0.466200  1
  H  H114  1  0.410400  0.328000  0.466200  1
  H  H115  1  0.910400  0.172000  0.533800  1
  H  H116  1  0.089600  0.828000  0.533800  1
  H  H117  1  0.551600  0.621600  0.455100  1
  H  H118  1  0.448400  0.378400  0.455100  1
  H  H119  1  0.948400  0.121600  0.544900  1
  H  H120  1  0.051600  0.878400  0.544900  1
  H  H121  1  0.181800  0.142900  0.960900  1
  H  H122  1  0.818200  0.857100  0.960900  1
  H  H123  1  0.318200  0.642900  0.039100  1
  H  H124  1  0.681800  0.357100  0.039100  1
  H  H125  1  0.294100  0.184600  0.947800  1
  H  H126  1  0.705900  0.815400  0.947800  1
  H  H127  1  0.205900  0.684600  0.052200  1
  H  H128  1  0.794100  0.315400  0.052200  1
  H  H129  1  0.189400  0.241800  0.947600  1
  H  H130  1  0.810600  0.758200  0.947600  1
  H  H131  1  0.310600  0.741800  0.052400  1
  H  H132  1  0.689400  0.258200  0.052400  1
  H  H133  1  0.251400  0.267000  0.942500  1
  H  H134  1  0.748600  0.733000  0.942500  1
  H  H135  1  0.248600  0.767000  0.057500  1
  H  H136  1  0.751400  0.233000  0.057500  1
  H  H137  1  0.275300  0.241800  0.023200  1
  H  H138  1  0.724700  0.758200  0.023200  1
  H  H139  1  0.224700  0.741800  0.976800  1
  H  H140  1  0.775300  0.258200  0.976800  1
  H  H141  1  0.217100  0.273900  0.025600  1
  H  H142  1  0.782900  0.726100  0.025600  1
  H  H143  1  0.282900  0.773900  0.974400  1
  H  H144  1  0.717100  0.226100  0.974400  1
  H  H145  1  0.166000  0.195600  0.030700  1
  H  H146  1  0.834000  0.804400  0.030700  1
  H  H147  1  0.334000  0.695600  0.969300  1
  H  H148  1  0.666000  0.304400  0.969300  1
  H  H149  1  0.211000  0.199400  0.073500  1
  H  H150  1  0.789000  0.800600  0.073500  1
  H  H151  1  0.289000  0.699400  0.926500  1
  H  H152  1  0.711000  0.300600  0.926500  1
  H  H153  1  0.275900  0.142900  0.028200  1
  H  H154  1  0.724100  0.857100  0.028200  1
  H  H155  1  0.224100  0.642900  0.971800  1
  H  H156  1  0.775900  0.357100  0.971800  1
  H  H157  1  0.217000  0.112800  0.037800  1
  H  H158  1  0.783000  0.887200  0.037800  1
  H  H159  1  0.283000  0.612800  0.962200  1
  H  H160  1  0.717000  0.387200  0.962200  1
  H  H161  1  0.903100  0.671900  0.556500  1
  H  H162  1  0.096900  0.328100  0.556500  1
  H  H163  1  0.596900  0.171900  0.443500  1
  H  H164  1  0.403100  0.828100  0.443500  1
  H  H165  1  0.936900  0.567200  0.574400  1
  H  H166  1  0.063100  0.432800  0.574400  1
  H  H167  1  0.563100  0.067200  0.425600  1
  H  H168  1  0.436900  0.932800  0.425600  1
  H  H169  1  0.841200  0.547700  0.589300  1
  H  H170  1  0.158800  0.452300  0.589300  1
  H  H171  1  0.658800  0.047700  0.410700  1
  H  H172  1  0.341200  0.952300  0.410700  1
  H  H173  1  0.823200  0.607200  0.579000  1
  H  H174  1  0.176800  0.392800  0.579000  1
  H  H175  1  0.676800  0.107200  0.421000  1
  H  H176  1  0.323200  0.892800  0.421000  1
  H  H177  1  0.867400  0.535100  0.509700  1
  H  H178  1  0.132600  0.464900  0.509700  1
  H  H179  1  0.632600  0.035100  0.490300  1
  H  H180  1  0.367400  0.964900  0.490300  1
  H  H181  1  0.804700  0.558900  0.509600  1
  H  H182  1  0.195300  0.441100  0.509600  1
  H  H183  1  0.695300  0.058900  0.490400  1
  H  H184  1  0.304700  0.941100  0.490400  1
  H  H185  1  0.837800  0.639200  0.490500  1
  H  H186  1  0.162200  0.360800  0.490500  1
  H  H187  1  0.662200  0.139200  0.509500  1
  H  H188  1  0.337800  0.860800  0.509500  1
  H  H189  1  0.862100  0.597700  0.452900  1
  H  H190  1  0.137900  0.402300  0.452900  1
  H  H191  1  0.637900  0.097700  0.547100  1
  H  H192  1  0.362100  0.902300  0.547100  1
  H  H193  1  0.933700  0.657200  0.477600  1
  H  H194  1  0.066300  0.342800  0.477600  1
  H  H195  1  0.566300  0.157200  0.522400  1
  H  H196  1  0.433700  0.842800  0.522400  1
  H  H197  1  0.950800  0.598200  0.490500  1
  H  H198  1  0.049200  0.401800  0.490500  1
  H  H199  1  0.549200  0.098200  0.509500  1
  H  H200  1  0.450800  0.901800  0.509500  1
  H  H201  1  0.305300  0.169200  0.541600  1
  H  H202  1  0.694700  0.830800  0.541600  1
  H  H203  1  0.194700  0.669200  0.458400  1
  H  H204  1  0.805300  0.330800  0.458400  1
  H  H205  1  0.187200  0.182800  0.572100  1
  H  H206  1  0.812800  0.817200  0.572100  1
  H  H207  1  0.312800  0.682800  0.427900  1
  H  H208  1  0.687200  0.317200  0.427900  1
  H  H209  1  0.270600  0.264300  0.561500  1
  H  H210  1  0.729400  0.735700  0.561500  1
  H  H211  1  0.229400  0.764300  0.438500  1
  H  H212  1  0.770600  0.235700  0.438500  1
  H  H213  1  0.206800  0.273600  0.579000  1
  H  H214  1  0.793200  0.726400  0.579000  1
  H  H215  1  0.293200  0.773600  0.421000  1
  H  H216  1  0.706800  0.226400  0.421000  1
  H  H217  1  0.220900  0.294400  0.493500  1
  H  H218  1  0.779100  0.705600  0.493500  1
  H  H219  1  0.279100  0.794400  0.506500  1
  H  H220  1  0.720900  0.205600  0.506500  1
  H  H221  1  0.170100  0.253900  0.502400  1
  H  H222  1  0.829900  0.746100  0.502400  1
  H  H223  1  0.329900  0.753900  0.497600  1
  H  H224  1  0.670100  0.246100  0.497600  1
  H  H225  1  0.225700  0.217700  0.439400  1
  H  H226  1  0.774300  0.782300  0.439400  1
  H  H227  1  0.274300  0.717700  0.560600  1
  H  H228  1  0.725700  0.282300  0.560600  1
  H  H229  1  0.283100  0.227000  0.468400  1
  H  H230  1  0.716900  0.773000  0.468400  1
  H  H231  1  0.216900  0.727000  0.531600  1
  H  H232  1  0.783100  0.273000  0.531600  1
  H  H233  1  0.262700  0.139500  0.467800  1
  H  H234  1  0.737300  0.860500  0.467800  1
  H  H235  1  0.237300  0.639500  0.532200  1
  H  H236  1  0.762700  0.360500  0.532200  1
  H  H237  1  0.200800  0.150100  0.489200  1
  H  H238  1  0.799200  0.849900  0.489200  1
  H  H239  1  0.299200  0.650100  0.510800  1
  H  H240  1  0.700800  0.349900  0.510800  1
  H  H241  1  0.503800  0.776700  0.620900  1
  H  H242  1  0.496200  0.223300  0.620900  1
  H  H243  1  0.996200  0.276700  0.379100  1
  H  H244  1  0.003800  0.723300  0.379100  1
  H  H245  1  0.420800  0.823200  0.627600  1
  H  H246  1  0.579200  0.176800  0.627600  1
  H  H247  1  0.079200  0.323200  0.372400  1
  H  H248  1  0.920800  0.676800  0.372400  1
  H  H249  1  0.337500  0.684200  0.636900  1
  H  H250  1  0.662500  0.315800  0.636900  1
  H  H251  1  0.162500  0.184200  0.363100  1
  H  H252  1  0.837500  0.815800  0.363100  1
  H  H253  1  0.422700  0.642500  0.633000  1
  H  H254  1  0.577300  0.357500  0.633000  1
  H  H255  1  0.077300  0.142500  0.367000  1
  H  H256  1  0.922700  0.857500  0.367000  1
  H  H257  1  0.178600  0.018600  0.647000  1
  H  H258  1  0.821400  0.981400  0.647000  1
  H  H259  1  0.321400  0.518600  0.353000  1
  H  H260  1  0.678600  0.481400  0.353000  1
  H  H261  1  0.178100  0.927700  0.645600  1
  H  H262  1  0.821900  0.072300  0.645600  1
  H  H263  1  0.321900  0.427700  0.354400  1
  H  H264  1  0.678100  0.572300  0.354400  1
  H  H265  1  0.349400  0.932000  0.630600  1
  H  H266  1  0.650600  0.068000  0.630600  1
  H  H267  1  0.150600  0.432000  0.369400  1
  H  H268  1  0.849400  0.568000  0.369400  1
  H  H269  1  0.342000  0.023400  0.626700  1
  H  H270  1  0.658000  0.976600  0.626700  1
  H  H271  1  0.158000  0.523400  0.373300  1
  H  H272  1  0.842000  0.476600  0.373300  1
  H  H273  1  0.028200  0.766900  0.629100  1
  H  H274  1  0.971800  0.233100  0.629100  1
  H  H275  1  0.471800  0.266900  0.370900  1
  H  H276  1  0.528200  0.733100  0.370900  1
  H  H277  1  0.113100  0.815800  0.633200  1
  H  H278  1  0.886900  0.184200  0.633200  1
  H  H279  1  0.386900  0.315800  0.366800  1
  H  H280  1  0.613100  0.684200  0.366800  1
  H  H281  1  0.200900  0.682900  0.642400  1
  H  H282  1  0.799100  0.317100  0.642400  1
  H  H283  1  0.299100  0.182900  0.357600  1
  H  H284  1  0.700900  0.817100  0.357600  1
  H  H285  1  0.116600  0.636000  0.645000  1
  H  H286  1  0.883400  0.364000  0.645000  1
  H  H287  1  0.383400  0.136000  0.355000  1
  H  H288  1  0.616600  0.864000  0.355000  1
  H  H289  1  0.437300  0.639900  0.854700  1
  H  H290  1  0.562700  0.360100  0.854700  1
  H  H291  1  0.062700  0.139900  0.145300  1
  H  H292  1  0.937300  0.860100  0.145300  1
  H  H293  1  0.349300  0.680000  0.852100  1
  H  H294  1  0.650700  0.320000  0.852100  1
  H  H295  1  0.150700  0.180000  0.147900  1
  H  H296  1  0.849300  0.820000  0.147900  1
  H  H297  1  0.432900  0.820300  0.866500  1
  H  H298  1  0.567100  0.179700  0.866500  1
  H  H299  1  0.067100  0.320300  0.133500  1
  H  H300  1  0.932900  0.679700  0.133500  1
  H  H301  1  0.516500  0.775400  0.869600  1
  H  H302  1  0.483500  0.224600  0.869600  1
  H  H303  1  0.983500  0.275400  0.130400  1
  H  H304  1  0.016500  0.724600  0.130400  1
  H  H305  1  0.042600  0.762900  0.880600  1
  H  H306  1  0.957400  0.237100  0.880600  1
  H  H307  1  0.457400  0.262900  0.119400  1
  H  H308  1  0.542600  0.737100  0.119400  1
  H  H309  1  0.126800  0.810400  0.876700  1
  H  H310  1  0.873200  0.189600  0.876700  1
  H  H311  1  0.373200  0.310400  0.123300  1
  H  H312  1  0.626800  0.689600  0.123300  1
  H  H313  1  0.212200  0.674900  0.862600  1
  H  H314  1  0.787800  0.325100  0.862600  1
  H  H315  1  0.287800  0.174900  0.137400  1
  H  H316  1  0.712200  0.825100  0.137400  1
  H  H317  1  0.127100  0.630900  0.870900  1
  H  H318  1  0.872900  0.369100  0.870900  1
  H  H319  1  0.372900  0.130900  0.129100  1
  H  H320  1  0.627100  0.869100  0.129100  1
  H  H321  1  0.178500  0.008000  0.864700  1
  H  H322  1  0.821500  0.992000  0.864700  1
  H  H323  1  0.321500  0.508000  0.135300  1
  H  H324  1  0.678500  0.492000  0.135300  1
  H  H325  1  0.184500  0.917400  0.862900  1
  H  H326  1  0.815500  0.082600  0.862900  1
  H  H327  1  0.315500  0.417400  0.137100  1
  H  H328  1  0.684500  0.582600  0.137100  1
  H  H329  1  0.356000  0.931700  0.859800  1
  H  H330  1  0.644000  0.068300  0.859800  1
  H  H331  1  0.144000  0.431700  0.140200  1
  H  H332  1  0.856000  0.568300  0.140200  1
  H  H333  1  0.343800  0.021500  0.864900  1
  H  H334  1  0.656200  0.978500  0.864900  1
  H  H335  1  0.156200  0.521500  0.135100  1
  H  H336  1  0.843800  0.478500  0.135100  1
  H  H337  1  0.172400  0.093800  0.794900  1
  H  H338  1  0.827600  0.906200  0.794900  1
  H  H339  1  0.327600  0.593800  0.205100  1
  H  H340  1  0.672400  0.406200  0.205100  1
  H  H341  1  0.171800  0.096400  0.712300  1
  H  H342  1  0.828200  0.903600  0.712300  1
  H  H343  1  0.328200  0.596400  0.287700  1
  H  H344  1  0.671800  0.403600  0.287700  1
  H  H345  1  0.335400  0.122100  0.795000  1
  H  H346  1  0.664600  0.877900  0.795000  1
  H  H347  1  0.164600  0.622100  0.205000  1
  H  H348  1  0.835400  0.377900  0.205000  1
  H  H349  1  0.336100  0.127700  0.713100  1
  H  H350  1  0.663900  0.872300  0.713100  1
  H  H351  1  0.163900  0.627700  0.286900  1
  H  H352  1  0.836100  0.372300  0.286900  1
  H  H353  1  0.045300  0.589300  0.796000  1
  H  H354  1  0.954700  0.410700  0.796000  1
  H  H355  1  0.454700  0.089300  0.204000  1
  H  H356  1  0.545300  0.910700  0.204000  1
  H  H357  1  0.046600  0.593900  0.715200  1
  H  H358  1  0.953400  0.406100  0.715200  1
  H  H359  1  0.453400  0.093900  0.284800  1
  H  H360  1  0.546600  0.906100  0.284800  1
  H  H361  1  0.950600  0.714900  0.801100  1
  H  H362  1  0.049400  0.285100  0.801100  1
  H  H363  1  0.549400  0.214900  0.198900  1
  H  H364  1  0.450600  0.785100  0.198900  1
  H  H365  1  0.951100  0.718700  0.719400  1
  H  H366  1  0.048900  0.281300  0.719400  1
  H  H367  1  0.548900  0.218700  0.280600  1
  H  H368  1  0.451100  0.781300  0.280600  1
  H  H369  1  0.588000  0.738700  0.781900  1
  H  H370  1  0.412000  0.261300  0.781900  1
  H  H371  1  0.912000  0.238700  0.218100  1
  H  H372  1  0.088000  0.761300  0.218100  1
  H  H373  1  0.586700  0.737700  0.697600  1
  H  H374  1  0.413300  0.262300  0.697600  1
  H  H375  1  0.913300  0.237700  0.302400  1
  H  H376  1  0.086700  0.762300  0.302400  1
  H  H377  1  0.534900  0.592300  0.781800  1
  H  H378  1  0.465100  0.407700  0.781800  1
  H  H379  1  0.965100  0.092300  0.218200  1
  H  H380  1  0.034900  0.907700  0.218200  1
  H  H381  1  0.532200  0.592800  0.699700  1
  H  H382  1  0.467800  0.407200  0.699700  1
  H  H383  1  0.967800  0.092800  0.300300  1
  H  H384  1  0.032200  0.907200  0.300300  1
  H  H385  1  0.557500  0.693100  0.947600  1
  H  H386  1  0.442500  0.306900  0.947600  1
  H  H387  1  0.942500  0.193100  0.052400  1
  H  H388  1  0.057500  0.806900  0.052400  1
  H  H389  1  0.537600  0.637800  0.945600  1
  H  H390  1  0.462400  0.362200  0.945600  1
  H  H391  1  0.962400  0.137800  0.054400  1
  H  H392  1  0.037600  0.862200  0.054400  1
  H  H393  1  0.635700  0.600100  0.843800  1
  H  H394  1  0.364300  0.399900  0.843800  1
  H  H395  1  0.864300  0.100100  0.156200  1
  H  H396  1  0.135700  0.899900  0.156200  1
  H  H397  1  0.664300  0.648600  0.860900  1
  H  H398  1  0.335700  0.351400  0.860900  1
  H  H399  1  0.835700  0.148600  0.139100  1
  H  H400  1  0.164300  0.851400  0.139100  1
  H  H401  1  0.042400  0.645800  0.963200  1
  H  H402  1  0.957600  0.354200  0.963200  1
  H  H403  1  0.457600  0.145800  0.036800  1
  H  H404  1  0.542400  0.854200  0.036800  1
  H  H405  1  0.001700  0.690400  0.963000  1
  H  H406  1  0.998300  0.309600  0.963000  1
  H  H407  1  0.498300  0.190400  0.037000  1
  H  H408  1  0.501700  0.809600  0.037000  1
  H  H409  1  0.901200  0.627900  0.870700  1
  H  H410  1  0.098800  0.372100  0.870700  1
  H  H411  1  0.598800  0.127900  0.129300  1
  H  H412  1  0.401200  0.872100  0.129300  1
  H  H413  1  0.932000  0.580600  0.888100  1
  H  H414  1  0.068000  0.419400  0.888100  1
  H  H415  1  0.568000  0.080600  0.111900  1
  H  H416  1  0.432000  0.919400  0.111900  1
  H  H417  1  0.499600  0.654900  0.539700  1
  H  H418  1  0.500400  0.345100  0.539700  1
  H  H419  1  0.000400  0.154900  0.460300  1
  H  H420  1  0.999600  0.845100  0.460300  1
  H  H421  1  0.543100  0.696800  0.534800  1
  H  H422  1  0.456900  0.303200  0.534800  1
  H  H423  1  0.956900  0.196800  0.465200  1
  H  H424  1  0.043100  0.803200  0.465200  1
  H  H425  1  0.646700  0.638600  0.625300  1
  H  H426  1  0.353300  0.361400  0.625300  1
  H  H427  1  0.853300  0.138600  0.374700  1
  H  H428  1  0.146700  0.861400  0.374700  1
  H  H429  1  0.613000  0.591000  0.613000  1
  H  H430  1  0.387000  0.409000  0.613000  1
  H  H431  1  0.887000  0.091000  0.387000  1
  H  H432  1  0.113000  0.909000  0.387000  1
  H  H433  1  0.221100  0.064900  0.953400  1
  H  H434  1  0.778900  0.935100  0.953400  1
  H  H435  1  0.278900  0.564900  0.046600  1
  H  H436  1  0.721100  0.435100  0.046600  1
  H  H437  1  0.280200  0.084500  0.959200  1
  H  H438  1  0.719800  0.915500  0.959200  1
  H  H439  1  0.219800  0.584500  0.040800  1
  H  H440  1  0.780200  0.415500  0.040800  1
  H  H441  1  0.269600  0.196600  0.870500  1
  H  H442  1  0.730400  0.803400  0.870500  1
  H  H443  1  0.230400  0.696600  0.129500  1
  H  H444  1  0.769600  0.303400  0.129500  1
  H  H445  1  0.207700  0.188900  0.879100  1
  H  H446  1  0.792300  0.811100  0.879100  1
  H  H447  1  0.292300  0.688900  0.120900  1
  H  H448  1  0.707700  0.311100  0.120900  1
  H  H449  1  0.995900  0.690800  0.554400  1
  H  H450  1  0.004100  0.309200  0.554400  1
  H  H451  1  0.504100  0.190800  0.445600  1
  H  H452  1  0.495900  0.809200  0.445600  1
  H  H453  1  0.014200  0.635000  0.552400  1
  H  H454  1  0.985800  0.365000  0.552400  1
  H  H455  1  0.485800  0.135000  0.447600  1
  H  H456  1  0.514200  0.865000  0.447600  1
  H  H457  1  0.923500  0.584200  0.651200  1
  H  H458  1  0.076500  0.415800  0.651200  1
  H  H459  1  0.576500  0.084200  0.348800  1
  H  H460  1  0.423500  0.915800  0.348800  1
  H  H461  1  0.890600  0.633100  0.642700  1
  H  H462  1  0.109400  0.366900  0.642700  1
  H  H463  1  0.609400  0.133100  0.357300  1
  H  H464  1  0.390600  0.866900  0.357300  1
  H  H465  1  0.288000  0.084600  0.550000  1
  H  H466  1  0.712000  0.915400  0.550000  1
  H  H467  1  0.212000  0.584600  0.450000  1
  H  H468  1  0.788000  0.415400  0.450000  1
  H  H469  1  0.225300  0.090500  0.548400  1
  H  H470  1  0.774700  0.909500  0.548400  1
  H  H471  1  0.274700  0.590500  0.451600  1
  H  H472  1  0.725300  0.409500  0.451600  1
  H  H473  1  0.222100  0.197500  0.644400  1
  H  H474  1  0.777900  0.802500  0.644400  1
  H  H475  1  0.277900  0.697500  0.355600  1
  H  H476  1  0.722100  0.302500  0.355600  1
  H  H477  1  0.281900  0.200600  0.627300  1
  H  H478  1  0.718100  0.799400  0.627300  1
  H  H479  1  0.218100  0.700600  0.372700  1
  H  H480  1  0.781900  0.299400  0.372700  1
  H  H481  1  0.232300  0.716900  0.750100  1
  H  H482  1  0.767700  0.283100  0.750100  1
  H  H483  1  0.267700  0.216900  0.249900  1
  H  H484  1  0.732300  0.783100  0.249900  1
  H  H485  1  0.153700  0.611500  0.753100  1
  H  H486  1  0.846300  0.388500  0.753100  1
  H  H487  1  0.346300  0.111500  0.246900  1
  H  H488  1  0.653700  0.888500  0.246900  1
  H  H489  1  0.154500  0.671000  0.756200  1
  H  H490  1  0.845500  0.329000  0.756200  1
  H  H491  1  0.345500  0.171000  0.243800  1
  H  H492  1  0.654500  0.829000  0.243800  1
  H  H493  1  0.440800  0.571200  0.737600  1
  H  H494  1  0.559200  0.428800  0.737600  1
  H  H495  1  0.059200  0.071200  0.262400  1
  H  H496  1  0.940800  0.928800  0.262400  1
  H  H497  1  0.382700  0.490200  0.734100  1
  H  H498  1  0.617300  0.509800  0.734100  1
  H  H499  1  0.117300  0.990200  0.265900  1
  H  H500  1  0.882700  0.009800  0.265900  1
  H  H501  1  0.285500  0.510300  0.792700  1
  H  H502  1  0.714500  0.489700  0.792700  1
  H  H503  1  0.214500  0.010300  0.207300  1
  H  H504  1  0.785500  0.989700  0.207300  1
  H  H505  1  0.368600  0.502900  0.829700  1
  H  H506  1  0.631400  0.497100  0.829700  1
  H  H507  1  0.131400  0.002900  0.170300  1
  H  H508  1  0.868600  0.997100  0.170300  1
  H  H509  1  0.253000  0.424500  0.777800  1
  H  H510  1  0.747000  0.575500  0.777800  1
  H  H511  1  0.247000  0.924500  0.222200  1
  H  H512  1  0.753000  0.075500  0.222200  1
  H  H513  1  0.315700  0.367200  0.749200  1
  H  H514  1  0.684300  0.632800  0.749200  1
  H  H515  1  0.184300  0.867200  0.250800  1
  H  H516  1  0.815700  0.132800  0.250800  1
  H  H517  1  0.287500  0.424100  0.687600  1
  H  H518  1  0.712500  0.575900  0.687600  1
  H  H519  1  0.212500  0.924100  0.312400  1
  H  H520  1  0.787500  0.075900  0.312400  1
  H  H521  1  0.216100  0.482100  0.663900  1
  H  H522  1  0.783900  0.517900  0.663900  1
  H  H523  1  0.283900  0.982100  0.336100  1
  H  H524  1  0.716100  0.017900  0.336100  1
  H  H525  1  0.192400  0.435800  0.697100  1
  H  H526  1  0.807600  0.564200  0.697100  1
  H  H527  1  0.307600  0.935800  0.302900  1
  H  H528  1  0.692400  0.064200  0.302900  1
  H  H529  1  0.218300  0.531100  0.732600  1
  H  H530  1  0.781700  0.468900  0.732600  1
  H  H531  1  0.281700  0.031100  0.267400  1
  H  H532  1  0.718300  0.968900  0.267400  1
  H  H533  1  0.287700  0.807200  0.751500  1
  H  H534  1  0.712300  0.192800  0.751500  1
  H  H535  1  0.212300  0.307200  0.248500  1
  H  H536  1  0.787700  0.692800  0.248500  1
  H  H537  1  0.283900  0.866700  0.750300  1
  H  H538  1  0.716100  0.133300  0.750300  1
  H  H539  1  0.216100  0.366700  0.249700  1
  H  H540  1  0.783900  0.633300  0.249700  1
  H  H541  1  0.192900  0.913200  0.753700  1
  H  H542  1  0.807100  0.086800  0.753700  1
  H  H543  1  0.307100  0.413200  0.246300  1
  H  H544  1  0.692900  0.586800  0.246300  1
  H  H545  1  0.097300  0.902600  0.749400  1
  H  H546  1  0.902700  0.097400  0.749400  1
  H  H547  1  0.402700  0.402600  0.250600  1
  H  H548  1  0.597300  0.597400  0.250600  1
  H  H549  1  0.025900  0.777400  0.752300  1
  H  H550  1  0.974100  0.222600  0.752300  1
  H  H551  1  0.474100  0.277400  0.247700  1
  H  H552  1  0.525900  0.722600  0.247700  1
  H  H553  1  0.012600  0.883600  0.779600  1
  H  H554  1  0.987400  0.116400  0.779600  1
  H  H555  1  0.487400  0.383600  0.220400  1
  H  H556  1  0.512600  0.616400  0.220400  1
  H  H557  1  0.019700  0.832500  0.842700  1
  H  H558  1  0.980300  0.167500  0.842700  1
  H  H559  1  0.480300  0.332500  0.157300  1
  H  H560  1  0.519700  0.667500  0.157300  1
  H  H561  1  0.918400  0.882700  0.761000  1
  H  H562  1  0.081600  0.117300  0.761000  1
  H  H563  1  0.581600  0.382700  0.239000  1
  H  H564  1  0.418400  0.617300  0.239000  1
  H  H565  1  0.877800  0.805400  0.749800  1
  H  H566  1  0.122200  0.194600  0.749800  1
  H  H567  1  0.622200  0.305400  0.250200  1
  H  H568  1  0.377800  0.694600  0.250200  1
  H  H569  1  0.936200  0.820000  0.684000  1
  H  H570  1  0.063800  0.180000  0.684000  1
  H  H571  1  0.563800  0.320000  0.316000  1
  H  H572  1  0.436200  0.680000  0.316000  1
  H  H573  1  0.965400  0.929500  0.694100  1
  H  H574  1  0.034600  0.070500  0.694100  1
  H  H575  1  0.534600  0.429500  0.305900  1
  H  H576  1  0.465400  0.570500  0.305900  1
  H  H577  1  0.988000  0.899000  0.647400  1
  H  H578  1  0.012000  0.101000  0.647400  1
  H  H579  1  0.512000  0.399000  0.352600  1
  H  H580  1  0.488000  0.601000  0.352600  1
  H  H581  1  0.897900  0.930900  0.633400  1
  H  H582  1  0.102100  0.069100  0.633400  1
  H  H583  1  0.602100  0.430900  0.366600  1
  H  H584  1  0.397900  0.569100  0.366600  1
  H  H585  1  0.022300  0.790600  0.738700  1
  H  H586  1  0.977700  0.209400  0.738700  1
  H  H587  1  0.477700  0.290600  0.261300  1
  H  H588  1  0.522300  0.709400  0.261300  1
  H  H589  1  0.011600  0.888900  0.787800  1
  H  H590  1  0.988400  0.111100  0.787800  1
  H  H591  1  0.488400  0.388900  0.212200  1
  H  H592  1  0.511600  0.611100  0.212200  1
  H  H593  1  0.018700  0.813100  0.826800  1
  H  H594  1  0.981300  0.186900  0.826800  1
  H  H595  1  0.481300  0.313100  0.173200  1
  H  H596  1  0.518700  0.686900  0.173200  1
  H  H597  1  0.921400  0.885200  0.746400  1
  H  H598  1  0.078600  0.114800  0.746400  1
  H  H599  1  0.578600  0.385200  0.253600  1
  H  H600  1  0.421400  0.614800  0.253600  1
  H  H601  1  0.893900  0.812700  0.709600  1
  H  H602  1  0.106100  0.187300  0.709600  1
  H  H603  1  0.606100  0.312700  0.290400  1
  H  H604  1  0.393900  0.687300  0.290400  1
  H  H605  1  0.959400  0.856200  0.663000  1
  H  H606  1  0.040600  0.143800  0.663000  1
  H  H607  1  0.540600  0.356200  0.337000  1
  H  H608  1  0.459400  0.643800  0.337000  1
  H  H609  1  0.985800  0.933800  0.643900  1
  H  H610  1  0.014200  0.066200  0.643900  1
  H  H611  1  0.514200  0.433800  0.356100  1
  H  H612  1  0.485800  0.566200  0.356100  1
  H  H613  1  0.014700  0.945100  0.694400  1
  H  H614  1  0.985300  0.054900  0.694400  1
  H  H615  1  0.485300  0.445100  0.305600  1
  H  H616  1  0.514700  0.554900  0.305600  1
  H  H617  1  0.934700  0.994300  0.685700  1
  H  H618  1  0.065300  0.005700  0.685700  1
  H  H619  1  0.565300  0.494300  0.314300  1
  H  H620  1  0.434700  0.505700  0.314300  1
  H  H621  1  0.708400  0.585400  0.555700  1
  H  H622  1  0.291600  0.414600  0.555700  1
  H  H623  1  0.791600  0.085400  0.444300  1
  H  H624  1  0.208400  0.914600  0.444300  1
  H  H625  1  0.652700  0.551100  0.544600  1
  H  H626  1  0.347300  0.448900  0.544600  1
  H  H627  1  0.847300  0.051100  0.455400  1
  H  H628  1  0.152700  0.948900  0.455400  1
  H  H629  1  0.698200  0.626900  0.477000  1
  H  H630  1  0.301800  0.373100  0.477000  1
  H  H631  1  0.801800  0.126900  0.523000  1
  H  H632  1  0.198200  0.873100  0.523000  1
  H  H633  1  0.709100  0.565100  0.471700  1
  H  H634  1  0.290900  0.434900  0.471700  1
  H  H635  1  0.790900  0.065100  0.528300  1
  H  H636  1  0.209100  0.934900  0.528300  1
  H  H637  1  0.606000  0.552700  0.468000  1
  H  H638  1  0.394000  0.447300  0.468000  1
  H  H639  1  0.894000  0.052700  0.532000  1
  H  H640  1  0.106000  0.947300  0.532000  1
  H  H641  1  0.629700  0.585000  0.423000  1
  H  H642  1  0.370300  0.415000  0.423000  1
  H  H643  1  0.870300  0.085000  0.577000  1
  H  H644  1  0.129700  0.915000  0.577000  1
  Pt  Pt645  1  0.560368  0.665235  0.862056  1
  Pt  Pt646  1  0.439632  0.334765  0.862056  1
  Pt  Pt647  1  0.939632  0.165235  0.137944  1
  Pt  Pt648  1  0.060368  0.834765  0.137944  1
  Pt  Pt649  1  0.003429  0.653058  0.880689  1
  Pt  Pt650  1  0.996571  0.346942  0.880689  1
  Pt  Pt651  1  0.496571  0.153058  0.119311  1
  Pt  Pt652  1  0.503429  0.846942  0.119311  1
  Pt  Pt653  1  0.545099  0.666042  0.618875  1
  Pt  Pt654  1  0.454901  0.333958  0.618875  1
  Pt  Pt655  1  0.954901  0.166042  0.381125  1
  Pt  Pt656  1  0.045099  0.833958  0.381125  1
  Pt  Pt657  1  0.252022  0.099962  0.874192  1
  Pt  Pt658  1  0.747978  0.900038  0.874192  1
  Pt  Pt659  1  0.247978  0.599962  0.125808  1
  Pt  Pt660  1  0.752022  0.400038  0.125808  1
  Pt  Pt661  1  0.992937  0.655792  0.636885  1
  Pt  Pt662  1  0.007063  0.344208  0.636885  1
  Pt  Pt663  1  0.507063  0.155792  0.363115  1
  Pt  Pt664  1  0.492937  0.844208  0.363115  1
  Pt  Pt665  1  0.255900  0.106717  0.631862  1
  Pt  Pt666  1  0.744100  0.893283  0.631862  1
  Pt  Pt667  1  0.244100  0.606717  0.368138  1
  Pt  Pt668  1  0.755900  0.393283  0.368138  1
  C  C669  1  0.622100  0.642600  0.948500  1
  C  C670  1  0.377900  0.357400  0.948500  1
  C  C671  1  0.877900  0.142600  0.051500  1
  C  C672  1  0.122100  0.857400  0.051500  1
  C  C673  1  0.641000  0.603100  0.913700  1
  C  C674  1  0.359000  0.396900  0.913700  1
  C  C675  1  0.859000  0.103100  0.086300  1
  C  C676  1  0.141000  0.896900  0.086300  1
  C  C677  1  0.700800  0.584100  0.925300  1
  C  C678  1  0.299200  0.415900  0.925300  1
  C  C679  1  0.799200  0.084100  0.074700  1
  C  C680  1  0.200800  0.915900  0.074700  1
  C  C681  1  0.702700  0.561000  0.976800  1
  C  C682  1  0.297300  0.439000  0.976800  1
  C  C683  1  0.797300  0.061000  0.023200  1
  C  C684  1  0.202700  0.939000  0.023200  1
  C  C685  1  0.685900  0.601800  0.010000  1
  C  C686  1  0.314100  0.398200  0.010000  1
  C  C687  1  0.814100  0.101800  0.990000  1
  C  C688  1  0.185900  0.898200  0.990000  1
  C  C689  1  0.623600  0.623100  0.000400  1
  C  C690  1  0.376400  0.376900  0.000400  1
  C  C691  1  0.876400  0.123100  0.999600  1
  C  C692  1  0.123600  0.876900  0.999600  1
  C  C693  1  0.962100  0.621500  0.973900  1
  C  C694  1  0.037900  0.378500  0.973900  1
  C  C695  1  0.537900  0.121500  0.026100  1
  C  C696  1  0.462100  0.878500  0.026100  1
  C  C697  1  0.909000  0.627800  0.942400  1
  C  C698  1  0.091000  0.372200  0.942400  1
  C  C699  1  0.591000  0.127800  0.057600  1
  C  C700  1  0.409000  0.872200  0.057600  1
  C  C701  1  0.863900  0.591900  0.961000  1
  C  C702  1  0.136100  0.408100  0.961000  1
  C  C703  1  0.636100  0.091900  0.039000  1
  C  C704  1  0.363900  0.908100  0.039000  1
  C  C705  1  0.848500  0.606900  0.011200  1
  C  C706  1  0.151500  0.393100  0.011200  1
  C  C707  1  0.651500  0.106900  0.988800  1
  C  C708  1  0.348500  0.893100  0.988800  1
  C  C709  1  0.899300  0.601900  0.042700  1
  C  C710  1  0.100700  0.398100  0.042700  1
  C  C711  1  0.600700  0.101900  0.957300  1
  C  C712  1  0.399300  0.898100  0.957300  1
  C  C713  1  0.950400  0.635300  0.025400  1
  C  C714  1  0.049600  0.364700  0.025400  1
  C  C715  1  0.549600  0.135300  0.974600  1
  C  C716  1  0.450400  0.864700  0.974600  1
  C  C717  1  0.576700  0.625500  0.526900  1
  C  C718  1  0.423300  0.374500  0.526900  1
  C  C719  1  0.923300  0.125500  0.473100  1
  C  C720  1  0.076700  0.874500  0.473100  1
  C  C721  1  0.632400  0.633400  0.553900  1
  C  C722  1  0.367600  0.366600  0.553900  1
  C  C723  1  0.867600  0.133400  0.446100  1
  C  C724  1  0.132400  0.866600  0.446100  1
  C  C725  1  0.682100  0.606500  0.535600  1
  C  C726  1  0.317900  0.393500  0.535600  1
  C  C727  1  0.817900  0.106500  0.464400  1
  C  C728  1  0.182100  0.893500  0.464400  1
  C  C729  1  0.694500  0.616300  0.481700  1
  C  C730  1  0.305500  0.383700  0.481700  1
  C  C731  1  0.805500  0.116300  0.518300  1
  C  C732  1  0.194500  0.883700  0.518300  1
  C  C733  1  0.639000  0.604900  0.452700  1
  C  C734  1  0.361000  0.395100  0.452700  1
  C  C735  1  0.861000  0.104900  0.547300  1
  C  C736  1  0.139000  0.895100  0.547300  1
  C  C737  1  0.585600  0.634000  0.472500  1
  C  C738  1  0.414400  0.366000  0.472500  1
  C  C739  1  0.914400  0.134000  0.527500  1
  C  C740  1  0.085600  0.866000  0.527500  1
  C  C741  1  0.223500  0.140800  0.966700  1
  C  C742  1  0.776500  0.859200  0.966700  1
  C  C743  1  0.276500  0.640800  0.033300  1
  C  C744  1  0.723500  0.359200  0.033300  1
  C  C745  1  0.252600  0.185900  0.940900  1
  C  C746  1  0.747400  0.814100  0.940900  1
  C  C747  1  0.247400  0.685900  0.059100  1
  C  C748  1  0.752600  0.314100  0.059100  1
  C  C749  1  0.229500  0.238200  0.957300  1
  C  C750  1  0.770500  0.761800  0.957300  1
  C  C751  1  0.270500  0.738200  0.042700  1
  C  C752  1  0.729500  0.261800  0.042700  1
  C  C753  1  0.234700  0.241000  0.014200  1
  C  C754  1  0.765300  0.759000  0.014200  1
  C  C755  1  0.265300  0.741000  0.985800  1
  C  C756  1  0.734700  0.259000  0.985800  1
  C  C757  1  0.206900  0.195900  0.038400  1
  C  C758  1  0.793100  0.804100  0.038400  1
  C  C759  1  0.293100  0.695900  0.961600  1
  C  C760  1  0.706900  0.304100  0.961600  1
  C  C761  1  0.234700  0.143000  0.021400  1
  C  C762  1  0.765300  0.857000  0.021400  1
  C  C763  1  0.265300  0.643000  0.978600  1
  C  C764  1  0.734700  0.357000  0.978600  1
  C  C765  1  0.929100  0.641800  0.550300  1
  C  C766  1  0.070900  0.358200  0.550300  1
  C  C767  1  0.570900  0.141800  0.449700  1
  C  C768  1  0.429100  0.858200  0.449700  1
  C  C769  1  0.911000  0.597200  0.581300  1
  C  C770  1  0.089000  0.402800  0.581300  1
  C  C771  1  0.589000  0.097200  0.418700  1
  C  C772  1  0.411000  0.902800  0.418700  1
  C  C773  1  0.850300  0.579200  0.570200  1
  C  C774  1  0.149700  0.420800  0.570200  1
  C  C775  1  0.649700  0.079200  0.429800  1
  C  C776  1  0.350300  0.920800  0.429800  1
  C  C777  1  0.844900  0.566700  0.517000  1
  C  C778  1  0.155100  0.433300  0.517000  1
  C  C779  1  0.655100  0.066700  0.483000  1
  C  C780  1  0.344900  0.933300  0.483000  1
  C  C781  1  0.863900  0.609100  0.486700  1
  C  C782  1  0.136100  0.390900  0.486700  1
  C  C783  1  0.636100  0.109100  0.513300  1
  C  C784  1  0.363900  0.890900  0.513300  1
  C  C785  1  0.923900  0.626800  0.497900  1
  C  C786  1  0.076100  0.373200  0.497900  1
  C  C787  1  0.576100  0.126800  0.502100  1
  C  C788  1  0.423900  0.873200  0.502100  1
  C  C789  1  0.264700  0.158200  0.540800  1
  C  C790  1  0.735300  0.841800  0.540800  1
  C  C791  1  0.235300  0.658200  0.459200  1
  C  C792  1  0.764700  0.341800  0.459200  1
  C  C793  1  0.227500  0.194400  0.574400  1
  C  C794  1  0.772500  0.805600  0.574400  1
  C  C795  1  0.272500  0.694400  0.425600  1
  C  C796  1  0.727500  0.305600  0.425600  1
  C  C797  1  0.231100  0.251900  0.558100  1
  C  C798  1  0.768900  0.748100  0.558100  1
  C  C799  1  0.268900  0.751900  0.441900  1
  C  C800  1  0.731100  0.248100  0.441900  1
  C  C801  1  0.211600  0.258700  0.504700  1
  C  C802  1  0.788400  0.741300  0.504700  1
  C  C803  1  0.288400  0.758700  0.495300  1
  C  C804  1  0.711600  0.241300  0.495300  1
  C  C805  1  0.242900  0.216700  0.471700  1
  C  C806  1  0.757100  0.783300  0.471700  1
  C  C807  1  0.257100  0.716700  0.528300  1
  C  C808  1  0.742900  0.283300  0.528300  1
  C  C809  1  0.240600  0.162400  0.489400  1
  C  C810  1  0.759400  0.837600  0.489400  1
  C  C811  1  0.259400  0.662400  0.510600  1
  C  C812  1  0.740600  0.337600  0.510600  1
  C  C813  1  0.469200  0.758100  0.624600  1
  C  C814  1  0.530800  0.241900  0.624600  1
  C  C815  1  0.030800  0.258100  0.375400  1
  C  C816  1  0.969200  0.741900  0.375400  1
  C  C817  1  0.420400  0.786000  0.628500  1
  C  C818  1  0.579600  0.214000  0.628500  1
  C  C819  1  0.079600  0.286000  0.371500  1
  C  C820  1  0.920400  0.714000  0.371500  1
  C  C821  1  0.368900  0.758400  0.633800  1
  C  C822  1  0.631100  0.241600  0.633800  1
  C  C823  1  0.131100  0.258400  0.366200  1
  C  C824  1  0.868900  0.741600  0.366200  1
  C  C825  1  0.371400  0.704100  0.634300  1
  C  C826  1  0.628600  0.295900  0.634300  1
  C  C827  1  0.128600  0.204100  0.365700  1
  C  C828  1  0.871400  0.795900  0.365700  1
  C  C829  1  0.421800  0.679600  0.631200  1
  C  C830  1  0.578200  0.320400  0.631200  1
  C  C831  1  0.078200  0.179600  0.368800  1
  C  C832  1  0.921800  0.820400  0.368800  1
  C  C833  1  0.213200  0.000400  0.642000  1
  C  C834  1  0.786800  0.999600  0.642000  1
  C  C835  1  0.286800  0.500400  0.358000  1
  C  C836  1  0.713200  0.499600  0.358000  1
  C  C837  1  0.212700  0.946300  0.642400  1
  C  C838  1  0.787300  0.053700  0.642400  1
  C  C839  1  0.287300  0.446300  0.357600  1
  C  C840  1  0.712700  0.553700  0.357600  1
  C  C841  1  0.264800  0.919100  0.637900  1
  C  C842  1  0.735200  0.080900  0.637900  1
  C  C843  1  0.235200  0.419100  0.362100  1
  C  C844  1  0.764800  0.580900  0.362100  1
  C  C845  1  0.313400  0.948400  0.632800  1
  C  C846  1  0.686600  0.051600  0.632800  1
  C  C847  1  0.186600  0.448400  0.367200  1
  C  C848  1  0.813400  0.551600  0.367200  1
  C  C849  1  0.308600  0.003200  0.631000  1
  C  C850  1  0.691400  0.996800  0.631000  1
  C  C851  1  0.191400  0.503200  0.369000  1
  C  C852  1  0.808600  0.496800  0.369000  1
  C  C853  1  0.063400  0.749500  0.633100  1
  C  C854  1  0.936600  0.250500  0.633100  1
  C  C855  1  0.436600  0.249500  0.366900  1
  C  C856  1  0.563400  0.750500  0.366900  1
  C  C857  1  0.114600  0.778700  0.634900  1
  C  C858  1  0.885400  0.221300  0.634900  1
  C  C859  1  0.385400  0.278700  0.365100  1
  C  C860  1  0.614600  0.721300  0.365100  1
  C  C861  1  0.165700  0.754400  0.638900  1
  C  C862  1  0.834300  0.245600  0.638900  1
  C  C863  1  0.334300  0.254400  0.361100  1
  C  C864  1  0.665700  0.745600  0.361100  1
  C  C865  1  0.165800  0.701000  0.641200  1
  C  C866  1  0.834200  0.299000  0.641200  1
  C  C867  1  0.334200  0.201000  0.358800  1
  C  C868  1  0.665800  0.799000  0.358800  1
  C  C869  1  0.115600  0.673000  0.641600  1
  C  C870  1  0.884400  0.327000  0.641600  1
  C  C871  1  0.384400  0.173000  0.358400  1
  C  C872  1  0.615600  0.827000  0.358400  1
  C  C873  1  0.313600  0.787900  0.636900  1
  C  C874  1  0.686400  0.212100  0.636900  1
  C  C875  1  0.186400  0.287900  0.363100  1
  C  C876  1  0.813600  0.712100  0.363100  1
  C  C877  1  0.218900  0.784400  0.639500  1
  C  C878  1  0.781100  0.215600  0.639500  1
  C  C879  1  0.281100  0.284400  0.360500  1
  C  C880  1  0.718900  0.715600  0.360500  1
  C  C881  1  0.264600  0.861500  0.637200  1
  C  C882  1  0.735400  0.138500  0.637200  1
  C  C883  1  0.235400  0.361500  0.362800  1
  C  C884  1  0.764600  0.638500  0.362800  1
  C  C885  1  0.435400  0.677000  0.857100  1
  C  C886  1  0.564600  0.323000  0.857100  1
  C  C887  1  0.064600  0.177000  0.142900  1
  C  C888  1  0.935400  0.823000  0.142900  1
  C  C889  1  0.382800  0.700200  0.855300  1
  C  C890  1  0.617200  0.299800  0.855300  1
  C  C891  1  0.117200  0.200200  0.144700  1
  C  C892  1  0.882800  0.799800  0.144700  1
  C  C893  1  0.380500  0.755100  0.858400  1
  C  C894  1  0.619500  0.244900  0.858400  1
  C  C895  1  0.119500  0.255100  0.141600  1
  C  C896  1  0.880500  0.744900  0.141600  1
  C  C897  1  0.433000  0.783300  0.864000  1
  C  C898  1  0.567000  0.216700  0.864000  1
  C  C899  1  0.067000  0.283300  0.136000  1
  C  C900  1  0.933000  0.716700  0.136000  1
  C  C901  1  0.482300  0.756400  0.865700  1
  C  C902  1  0.517700  0.243600  0.865700  1
  C  C903  1  0.017700  0.256400  0.134300  1
  C  C904  1  0.982300  0.743600  0.134300  1
  C  C905  1  0.077600  0.744900  0.877400  1
  C  C906  1  0.922400  0.255100  0.877400  1
  C  C907  1  0.422400  0.244900  0.122600  1
  C  C908  1  0.577600  0.755100  0.122600  1
  C  C909  1  0.127500  0.773300  0.874300  1
  C  C910  1  0.872500  0.226700  0.874300  1
  C  C911  1  0.372500  0.273300  0.125700  1
  C  C912  1  0.627500  0.726700  0.125700  1
  C  C913  1  0.177400  0.747700  0.868000  1
  C  C914  1  0.822600  0.252300  0.868000  1
  C  C915  1  0.322600  0.247700  0.132000  1
  C  C916  1  0.677400  0.752300  0.132000  1
  C  C917  1  0.177800  0.693700  0.866600  1
  C  C918  1  0.822200  0.306300  0.866600  1
  C  C919  1  0.322200  0.193700  0.133400  1
  C  C920  1  0.677800  0.806300  0.133400  1
  C  C921  1  0.126900  0.668100  0.871100  1
  C  C922  1  0.873100  0.331900  0.871100  1
  C  C923  1  0.373100  0.168100  0.128900  1
  C  C924  1  0.626900  0.831900  0.128900  1
  C  C925  1  0.214800  0.991800  0.864600  1
  C  C926  1  0.785200  0.008200  0.864600  1
  C  C927  1  0.285200  0.491800  0.135400  1
  C  C928  1  0.714800  0.508200  0.135400  1
  C  C929  1  0.218000  0.938000  0.863100  1
  C  C930  1  0.782000  0.062000  0.863100  1
  C  C931  1  0.282000  0.438000  0.136900  1
  C  C932  1  0.718000  0.562000  0.136900  1
  C  C933  1  0.270600  0.914800  0.862100  1
  C  C934  1  0.729400  0.085200  0.862100  1
  C  C935  1  0.229400  0.414800  0.137900  1
  C  C936  1  0.770600  0.585200  0.137900  1
  C  C937  1  0.319100  0.946400  0.861700  1
  C  C938  1  0.680900  0.053600  0.861700  1
  C  C939  1  0.180900  0.446400  0.138300  1
  C  C940  1  0.819100  0.553600  0.138300  1
  C  C941  1  0.311200  0.999600  0.864200  1
  C  C942  1  0.688800  0.000400  0.864200  1
  C  C943  1  0.188800  0.499600  0.135800  1
  C  C944  1  0.811200  0.500400  0.135800  1
  C  C945  1  0.275100  0.856300  0.862600  1
  C  C946  1  0.724900  0.143700  0.862600  1
  C  C947  1  0.224900  0.356300  0.137400  1
  C  C948  1  0.775100  0.643700  0.137400  1
  C  C949  1  0.325700  0.781800  0.858800  1
  C  C950  1  0.674300  0.218200  0.858800  1
  C  C951  1  0.174300  0.281800  0.141200  1
  C  C952  1  0.825700  0.718200  0.141200  1
  C  C953  1  0.231800  0.778700  0.863600  1
  C  C954  1  0.768200  0.221300  0.863600  1
  C  C955  1  0.268200  0.278700  0.136400  1
  C  C956  1  0.731800  0.721300  0.136400  1
  C  C957  1  0.206800  0.100200  0.778200  1
  C  C958  1  0.793200  0.899800  0.778200  1
  C  C959  1  0.293200  0.600200  0.221800  1
  C  C960  1  0.706800  0.399800  0.221800  1
  C  C961  1  0.206400  0.101600  0.729100  1
  C  C962  1  0.793600  0.898400  0.729100  1
  C  C963  1  0.293600  0.601600  0.270900  1
  C  C964  1  0.706400  0.398400  0.270900  1
  C  C965  1  0.301000  0.117000  0.778000  1
  C  C966  1  0.699000  0.883000  0.778000  1
  C  C967  1  0.199000  0.617000  0.222000  1
  C  C968  1  0.801000  0.383000  0.222000  1
  C  C969  1  0.301700  0.119500  0.729100  1
  C  C970  1  0.698300  0.880500  0.729100  1
  C  C971  1  0.198300  0.619500  0.270900  1
  C  C972  1  0.801700  0.380500  0.270900  1
  C  C973  1  0.025000  0.616600  0.780600  1
  C  C974  1  0.975000  0.383400  0.780600  1
  C  C975  1  0.475000  0.116600  0.219400  1
  C  C976  1  0.525000  0.883400  0.219400  1
  C  C977  1  0.024700  0.618500  0.732700  1
  C  C978  1  0.975300  0.381500  0.732700  1
  C  C979  1  0.475300  0.118500  0.267300  1
  C  C980  1  0.524700  0.881500  0.267300  1
  C  C981  1  0.970400  0.688700  0.783800  1
  C  C982  1  0.029600  0.311300  0.783800  1
  C  C983  1  0.529600  0.188700  0.216200  1
  C  C984  1  0.470400  0.811300  0.216200  1
  C  C985  1  0.969800  0.690500  0.735000  1
  C  C986  1  0.030200  0.309500  0.735000  1
  C  C987  1  0.530200  0.190500  0.265000  1
  C  C988  1  0.469800  0.809500  0.265000  1
  C  C989  1  0.575800  0.708200  0.765500  1
  C  C990  1  0.424200  0.291800  0.765500  1
  C  C991  1  0.924200  0.208200  0.234500  1
  C  C992  1  0.075800  0.791800  0.234500  1
  C  C993  1  0.574200  0.707800  0.714800  1
  C  C994  1  0.425800  0.292200  0.714800  1
  C  C995  1  0.925800  0.207800  0.285200  1
  C  C996  1  0.074200  0.792200  0.285200  1
  C  C997  1  0.544800  0.623400  0.765100  1
  C  C998  1  0.455200  0.376600  0.765100  1
  C  C999  1  0.955200  0.123400  0.234900  1
  C  C1000  1  0.044800  0.876600  0.234900  1
  C  C1001  1  0.542900  0.623800  0.716100  1
  C  C1002  1  0.457100  0.376200  0.716100  1
  C  C1003  1  0.957100  0.123800  0.283900  1
  C  C1004  1  0.042900  0.876200  0.283900  1
  C  C1005  1  0.229500  0.640600  0.751000  1
  C  C1006  1  0.770500  0.359400  0.751000  1
  C  C1007  1  0.270500  0.140600  0.249000  1
  C  C1008  1  0.729500  0.859400  0.249000  1
  C  C1009  1  0.313100  0.603100  0.744900  1
  C  C1010  1  0.686900  0.396900  0.744900  1
  C  C1011  1  0.186900  0.103100  0.255100  1
  C  C1012  1  0.813100  0.896900  0.255100  1
  C  C1013  1  0.343900  0.649200  0.744700  1
  C  C1014  1  0.656100  0.350800  0.744700  1
  C  C1015  1  0.156100  0.149200  0.255300  1
  C  C1016  1  0.843900  0.850800  0.255300  1
  C  C1017  1  0.313500  0.697500  0.747800  1
  C  C1018  1  0.686500  0.302500  0.747800  1
  C  C1019  1  0.186500  0.197500  0.252200  1
  C  C1020  1  0.813500  0.802500  0.252200  1
  C  C1021  1  0.405800  0.589300  0.739900  1
  C  C1022  1  0.594200  0.410700  0.739900  1
  C  C1023  1  0.094200  0.089300  0.260100  1
  C  C1024  1  0.905800  0.910700  0.260100  1
  C  C1025  1  0.345500  0.508400  0.738700  1
  C  C1026  1  0.654500  0.491600  0.738700  1
  C  C1027  1  0.154500  0.008400  0.261300  1
  C  C1028  1  0.845500  0.991600  0.261300  1
  C  C1029  1  0.315700  0.485700  0.781400  1
  C  C1030  1  0.684300  0.514300  0.781400  1
  C  C1031  1  0.184300  0.985700  0.218600  1
  C  C1032  1  0.815700  0.014300  0.218600  1
  C  C1033  1  0.288100  0.434900  0.760200  1
  C  C1034  1  0.711900  0.565100  0.760200  1
  C  C1035  1  0.211900  0.934900  0.239800  1
  C  C1036  1  0.788100  0.065100  0.239800  1
  C  C1037  1  0.275500  0.452800  0.709700  1
  C  C1038  1  0.724500  0.547200  0.709700  1
  C  C1039  1  0.224500  0.952800  0.290300  1
  C  C1040  1  0.775500  0.047200  0.290300  1
  C  C1041  1  0.216800  0.467200  0.696600  1
  C  C1042  1  0.783200  0.532800  0.696600  1
  C  C1043  1  0.283200  0.967200  0.303400  1
  C  C1044  1  0.716800  0.032800  0.303400  1
  C  C1045  1  0.129700  0.778000  0.754300  1
  C  C1046  1  0.870300  0.222000  0.754300  1
  C  C1047  1  0.370300  0.278000  0.245700  1
  C  C1048  1  0.629700  0.722000  0.245700  1
  C  C1049  1  0.210100  0.832800  0.752300  1
  C  C1050  1  0.789900  0.167200  0.752300  1
  C  C1051  1  0.289900  0.332800  0.247700  1
  C  C1052  1  0.710100  0.667200  0.247700  1
  C  C1053  1  0.176300  0.879300  0.752600  1
  C  C1054  1  0.823700  0.120700  0.752600  1
  C  C1055  1  0.323700  0.379300  0.247400  1
  C  C1056  1  0.676300  0.620700  0.247400  1
  C  C1057  1  0.121200  0.872800  0.751300  1
  C  C1058  1  0.878800  0.127200  0.751300  1
  C  C1059  1  0.378800  0.372800  0.248700  1
  C  C1060  1  0.621200  0.627200  0.248700  1
  C  C1061  1  0.035100  0.815300  0.748400  1
  C  C1062  1  0.964900  0.184700  0.748400  1
  C  C1063  1  0.464900  0.315300  0.251600  1
  C  C1064  1  0.535100  0.684700  0.251600  1
  C  C1065  1  0.997000  0.847200  0.779600  1
  C  C1066  1  0.003000  0.152800  0.779600  1
  C  C1067  1  0.503000  0.347200  0.220400  1
  C  C1068  1  0.497000  0.652800  0.220400  1
  C  C1069  1  0.939700  0.849800  0.753700  1
  C  C1070  1  0.060300  0.150200  0.753700  1
  C  C1071  1  0.560300  0.349800  0.246300  1
  C  C1072  1  0.439700  0.650200  0.246300  1
  C  C1073  1  0.958900  0.847000  0.701400  1
  C  C1074  1  0.041100  0.153000  0.701400  1
  C  C1075  1  0.541100  0.347000  0.298600  1
  C  C1076  1  0.458900  0.653000  0.298600  1
  C  C1077  1  0.958400  0.899500  0.672500  1
  C  C1078  1  0.041600  0.100500  0.672500  1
  C  C1079  1  0.541600  0.399500  0.327500  1
  C  C1080  1  0.458400  0.600500  0.327500  1
  C  C1081  1  0.037000  0.827000  0.742400  1
  C  C1082  1  0.963000  0.173000  0.742400  1
  C  C1083  1  0.463000  0.327000  0.257600  1
  C  C1084  1  0.537000  0.673000  0.257600  1
  C  C1085  1  0.998000  0.855000  0.775000  1
  C  C1086  1  0.002000  0.145000  0.775000  1
  C  C1087  1  0.502000  0.355000  0.225000  1
  C  C1088  1  0.498000  0.645000  0.225000  1
  C  C1089  1  0.950000  0.858100  0.736900  1
  C  C1090  1  0.050000  0.141900  0.736900  1
  C  C1091  1  0.550000  0.358100  0.263100  1
  C  C1092  1  0.450000  0.641900  0.263100  1
  C  C1093  1  0.979200  0.874300  0.689900  1
  C  C1094  1  0.020800  0.125700  0.689900  1
  C  C1095  1  0.520800  0.374300  0.310100  1
  C  C1096  1  0.479200  0.625700  0.310100  1
  C  C1097  1  0.981000  0.930000  0.679000  1
  C  C1098  1  0.019000  0.070000  0.679000  1
  C  C1099  1  0.519000  0.430000  0.321000  1
  C  C1100  1  0.481000  0.570000  0.321000  1
  C  C1101  1  0.672000  0.584700  0.538100  1
  C  C1102  1  0.328000  0.415300  0.538100  1
  C  C1103  1  0.828000  0.084700  0.461900  1
  C  C1104  1  0.172000  0.915300  0.461900  1
  C  C1105  1  0.682200  0.591900  0.483500  1
  C  C1106  1  0.317800  0.408100  0.483500  1
  C  C1107  1  0.817800  0.091900  0.516500  1
  C  C1108  1  0.182200  0.908100  0.516500  1
  C  C1109  1  0.624300  0.585800  0.458100  1
  C  C1110  1  0.375700  0.414200  0.458100  1
  C  C1111  1  0.875700  0.085800  0.541900  1
  C  C1112  1  0.124300  0.914200  0.541900  1
  N  N1113  1  0.564500  0.660800  0.934500  1
  N  N1114  1  0.435500  0.339200  0.934500  1
  N  N1115  1  0.935500  0.160800  0.065500  1
  N  N1116  1  0.064500  0.839200  0.065500  1
  N  N1117  1  0.634700  0.626000  0.866600  1
  N  N1118  1  0.365300  0.374000  0.866600  1
  N  N1119  1  0.865300  0.126000  0.133400  1
  N  N1120  1  0.134700  0.874000  0.133400  1
  N  N1121  1  0.007300  0.656500  0.952900  1
  N  N1122  1  0.992700  0.343500  0.952900  1
  N  N1123  1  0.492700  0.156500  0.047100  1
  N  N1124  1  0.507300  0.843500  0.047100  1
  N  N1125  1  0.927800  0.616100  0.892200  1
  N  N1126  1  0.072200  0.383900  0.892200  1
  N  N1127  1  0.572200  0.116100  0.107800  1
  N  N1128  1  0.427800  0.883900  0.107800  1
  N  N1129  1  0.536100  0.664200  0.547400  1
  N  N1130  1  0.463900  0.335800  0.547400  1
  N  N1131  1  0.963900  0.164200  0.452600  1
  N  N1132  1  0.036100  0.835800  0.452600  1
  N  N1133  1  0.617900  0.625900  0.606300  1
  N  N1134  1  0.382100  0.374100  0.606300  1
  N  N1135  1  0.882100  0.125900  0.393700  1
  N  N1136  1  0.117900  0.874100  0.393700  1
  N  N1137  1  0.245300  0.092000  0.946300  1
  N  N1138  1  0.754700  0.908000  0.946300  1
  N  N1139  1  0.254700  0.592000  0.053700  1
  N  N1140  1  0.745300  0.408000  0.053700  1
  N  N1141  1  0.243400  0.177800  0.887700  1
  N  N1142  1  0.756600  0.822200  0.887700  1
  N  N1143  1  0.256600  0.677800  0.112300  1
  N  N1144  1  0.743400  0.322200  0.112300  1
  N  N1145  1  0.988100  0.657600  0.565300  1
  N  N1146  1  0.011900  0.342400  0.565300  1
  N  N1147  1  0.511900  0.157600  0.434700  1
  N  N1148  1  0.488100  0.842400  0.434700  1
  N  N1149  1  0.920700  0.613400  0.632100  1
  N  N1150  1  0.079300  0.386600  0.632100  1
  N  N1151  1  0.579300  0.113400  0.367900  1
  N  N1152  1  0.420700  0.886600  0.367900  1
  N  N1153  1  0.258200  0.105100  0.560000  1
  N  N1154  1  0.741800  0.894900  0.560000  1
  N  N1155  1  0.241800  0.605100  0.440000  1
  N  N1156  1  0.758200  0.394900  0.440000  1
  N  N1157  1  0.247500  0.184400  0.622600  1
  N  N1158  1  0.752500  0.815600  0.622600  1
  N  N1159  1  0.252500  0.684400  0.377400  1
  N  N1160  1  0.747500  0.315600  0.377400  1
  N  N1161  1  0.471300  0.706000  0.625600  1
  N  N1162  1  0.528700  0.294000  0.625600  1
  N  N1163  1  0.028700  0.206000  0.374400  1
  N  N1164  1  0.971300  0.794000  0.374400  1
  N  N1165  1  0.259600  0.027500  0.634900  1
  N  N1166  1  0.740400  0.972500  0.634900  1
  N  N1167  1  0.240400  0.527500  0.365100  1
  N  N1168  1  0.759600  0.472500  0.365100  1
  N  N1169  1  0.065000  0.697600  0.637100  1
  N  N1170  1  0.935000  0.302400  0.637100  1
  N  N1171  1  0.435000  0.197600  0.362900  1
  N  N1172  1  0.565000  0.802400  0.362900  1
  N  N1173  1  0.268000  0.758000  0.640600  1
  N  N1174  1  0.732000  0.242000  0.640600  1
  N  N1175  1  0.232000  0.258000  0.359400  1
  N  N1176  1  0.768000  0.742000  0.359400  1
  N  N1177  1  0.215700  0.837100  0.637600  1
  N  N1178  1  0.784300  0.162900  0.637600  1
  N  N1179  1  0.284300  0.337100  0.362400  1
  N  N1180  1  0.715700  0.662900  0.362400  1
  N  N1181  1  0.316300  0.838900  0.635800  1
  N  N1182  1  0.683700  0.161100  0.635800  1
  N  N1183  1  0.183700  0.338900  0.364200  1
  N  N1184  1  0.816300  0.661100  0.364200  1
  N  N1185  1  0.485000  0.704200  0.862000  1
  N  N1186  1  0.515000  0.295800  0.862000  1
  N  N1187  1  0.015000  0.204200  0.138000  1
  N  N1188  1  0.985000  0.795800  0.138000  1
  N  N1189  1  0.077600  0.692200  0.875800  1
  N  N1190  1  0.922400  0.307800  0.875800  1
  N  N1191  1  0.422400  0.192200  0.124200  1
  N  N1192  1  0.577600  0.807800  0.124200  1
  N  N1193  1  0.261000  0.021900  0.865700  1
  N  N1194  1  0.739000  0.978100  0.865700  1
  N  N1195  1  0.239000  0.521900  0.134300  1
  N  N1196  1  0.761000  0.478100  0.134300  1
  N  N1197  1  0.326400  0.834700  0.860200  1
  N  N1198  1  0.673600  0.165300  0.860200  1
  N  N1199  1  0.173600  0.334700  0.139800  1
  N  N1200  1  0.826400  0.665300  0.139800  1
  N  N1201  1  0.225900  0.830800  0.865300  1
  N  N1202  1  0.774100  0.169200  0.865300  1
  N  N1203  1  0.274100  0.330800  0.134700  1
  N  N1204  1  0.725900  0.669200  0.134700  1
  N  N1205  1  0.279100  0.753100  0.857700  1
  N  N1206  1  0.720900  0.246900  0.857700  1
  N  N1207  1  0.220900  0.253100  0.142300  1
  N  N1208  1  0.779100  0.746900  0.142300  1
  N  N1209  1  0.253800  0.107500  0.802600  1
  N  N1210  1  0.746200  0.892500  0.802600  1
  N  N1211  1  0.246200  0.607500  0.197400  1
  N  N1212  1  0.753800  0.392500  0.197400  1
  N  N1213  1  0.255500  0.110600  0.703800  1
  N  N1214  1  0.744500  0.889400  0.703800  1
  N  N1215  1  0.244500  0.610600  0.296200  1
  N  N1216  1  0.755500  0.389400  0.296200  1
  N  N1217  1  0.997500  0.652000  0.807800  1
  N  N1218  1  0.002500  0.348000  0.807800  1
  N  N1219  1  0.502500  0.152000  0.192200  1
  N  N1220  1  0.497500  0.848000  0.192200  1
  N  N1221  1  0.994400  0.654000  0.709000  1
  N  N1222  1  0.005600  0.346000  0.709000  1
  N  N1223  1  0.505600  0.154000  0.291000  1
  N  N1224  1  0.494400  0.846000  0.291000  1
  N  N1225  1  0.560400  0.666200  0.790200  1
  N  N1226  1  0.439600  0.333800  0.790200  1
  N  N1227  1  0.939600  0.166200  0.209800  1
  N  N1228  1  0.060400  0.833800  0.209800  1
  N  N1229  1  0.555600  0.666400  0.690900  1
  N  N1230  1  0.444400  0.333600  0.690900  1
  N  N1231  1  0.944400  0.166400  0.309100  1
  N  N1232  1  0.055600  0.833600  0.309100  1
  N  N1233  1  0.254500  0.689200  0.749700  1
  N  N1234  1  0.745500  0.310800  0.749700  1
  N  N1235  1  0.245500  0.189200  0.250300  1
  N  N1236  1  0.754500  0.810800  0.250300  1
  N  N1237  1  0.172700  0.641100  0.753700  1
  N  N1238  1  0.827300  0.358900  0.753700  1
  N  N1239  1  0.327300  0.141100  0.246300  1
  N  N1240  1  0.672700  0.858900  0.246300  1
  N  N1241  1  0.257500  0.596600  0.747400  1
  N  N1242  1  0.742500  0.403400  0.747400  1
  N  N1243  1  0.242500  0.096600  0.252600  1
  N  N1244  1  0.757500  0.903400  0.252600  1
  N  N1245  1  0.401900  0.640200  0.742500  1
  N  N1246  1  0.598100  0.359800  0.742500  1
  N  N1247  1  0.098100  0.140200  0.257500  1
  N  N1248  1  0.901900  0.859800  0.257500  1
  N  N1249  1  0.354900  0.565000  0.740900  1
  N  N1250  1  0.645100  0.435000  0.740900  1
  N  N1251  1  0.145100  0.065000  0.259100  1
  N  N1252  1  0.854900  0.935000  0.259100  1
  N  N1253  1  0.096800  0.823100  0.752600  1
  N  N1254  1  0.903200  0.176900  0.752600  1
  N  N1255  1  0.403200  0.323100  0.247400  1
  N  N1256  1  0.596800  0.676900  0.247400  1
  N  N1257  1  0.187300  0.784900  0.753700  1
  N  N1258  1  0.812700  0.215100  0.753700  1
  N  N1259  1  0.312700  0.284900  0.246300  1
  N  N1260  1  0.687300  0.715100  0.246300  1
  N  N1261  1  0.267200  0.835900  0.751300  1
  N  N1262  1  0.732800  0.164100  0.751300  1
  N  N1263  1  0.232800  0.335900  0.248700  1
  N  N1264  1  0.767200  0.664100  0.248700  1
  N  N1265  1  0.317200  0.974200  0.748000  1
  N  N1266  1  0.682800  0.025800  0.748000  1
  N  N1267  1  0.182800  0.474200  0.252000  1
  N  N1268  1  0.817200  0.525800  0.252000  1
  N  N1269  1  0.079600  0.004900  0.777400  1
  N  N1270  1  0.920400  0.995100  0.777400  1
  N  N1271  1  0.420400  0.504900  0.222600  1
  N  N1272  1  0.579600  0.495100  0.222600  1
  N  N1273  1  0.096800  0.712900  0.025900  1
  N  N1274  1  0.903200  0.287100  0.025900  1
  N  N1275  1  0.403200  0.212900  0.974100  1
  N  N1276  1  0.596800  0.787100  0.974100  1
  N  N1277  1  0.430700  0.705100  0.433100  1
  N  N1278  1  0.569300  0.294900  0.433100  1
  N  N1279  1  0.069300  0.205100  0.566900  1
  N  N1280  1  0.930700  0.794900  0.566900  1
  N  N1281  1  0.588900  0.793600  0.508800  1
  N  N1282  1  0.411100  0.206400  0.508800  1
  N  N1283  1  0.911100  0.293600  0.491200  1
  N  N1284  1  0.088900  0.706400  0.491200  1
  N  N1285  1  0.292400  0.573000  0.609700  1
  N  N1286  1  0.707600  0.427000  0.609700  1
  N  N1287  1  0.207600  0.073000  0.390300  1
  N  N1288  1  0.792400  0.927000  0.390300  1
  N  N1289  1  0.500000  0.500000  0.813600  1
  N  N1290  1  0.000000  0.000000  0.186400  1
  N  N1291  1  0.543200  0.499200  0.637000  1
  N  N1292  1  0.456800  0.500800  0.637000  1
  N  N1293  1  0.956800  0.999200  0.363000  1
  N  N1294  1  0.043200  0.000800  0.363000  1
  N  N1295  1  0.275100  0.237500  0.748000  1
  N  N1296  1  0.724900  0.762500  0.748000  1
  N  N1297  1  0.224900  0.737500  0.252000  1
  N  N1298  1  0.775100  0.262500  0.252000  1
  N  N1299  1  0.862000  0.451100  0.998600  1
  N  N1300  1  0.138000  0.548900  0.998600  1
  N  N1301  1  0.638000  0.951100  0.001400  1
  N  N1302  1  0.362000  0.048900  0.001400  1
  O  O1303  1  0.331300  0.743500  0.748100  1
  O  O1304  1  0.668700  0.256500  0.748100  1
  O  O1305  1  0.168700  0.243500  0.251900  1
  O  O1306  1  0.831300  0.756500  0.251900  1
  O  O1307  1  0.310700  0.499100  0.698600  1
  O  O1308  1  0.689300  0.500900  0.698600  1
  O  O1309  1  0.189300  0.999100  0.301400  1
  O  O1310  1  0.810700  0.000900  0.301400  1
  O  O1311  1  0.354700  0.474800  0.819500  1
  O  O1312  1  0.645300  0.525200  0.819500  1
  O  O1313  1  0.145300  0.974800  0.180500  1
  O  O1314  1  0.854700  0.025200  0.180500  1
  O  O1315  1  0.329700  0.394800  0.760500  1
  O  O1316  1  0.670300  0.605200  0.760500  1
  O  O1317  1  0.170300  0.894800  0.239500  1
  O  O1318  1  0.829700  0.105200  0.239500  1
  O  O1319  1  0.195600  0.505900  0.731000  1
  O  O1320  1  0.804400  0.494100  0.731000  1
  O  O1321  1  0.304400  0.005900  0.269000  1
  O  O1322  1  0.695600  0.994100  0.269000  1
  O  O1323  1  0.107500  0.735200  0.755500  1
  O  O1324  1  0.892500  0.264800  0.755500  1
  O  O1325  1  0.392500  0.235200  0.244500  1
  O  O1326  1  0.607500  0.764800  0.244500  1
  O  O1327  1  0.019700  0.832100  0.701100  1
  O  O1328  1  0.980300  0.167900  0.701100  1
  O  O1329  1  0.480300  0.332100  0.298900  1
  O  O1330  1  0.519700  0.667900  0.298900  1
  O  O1331  1  0.988400  0.833100  0.828500  1
  O  O1332  1  0.011600  0.166900  0.828500  1
  O  O1333  1  0.511600  0.333100  0.171500  1
  O  O1334  1  0.488400  0.666900  0.171500  1
  O  O1335  1  0.908600  0.805000  0.764800  1
  O  O1336  1  0.091400  0.195000  0.764800  1
  O  O1337  1  0.591400  0.305000  0.235200  1
  O  O1338  1  0.408600  0.695000  0.235200  1
  O  O1339  1  0.899800  0.903600  0.650000  1
  O  O1340  1  0.100200  0.096400  0.650000  1
  O  O1341  1  0.600200  0.403600  0.350000  1
  O  O1342  1  0.399800  0.596400  0.350000  1
  O  O1343  1  0.338200  0.928300  0.746000  1
  O  O1344  1  0.661800  0.071700  0.746000  1
  O  O1345  1  0.161800  0.428300  0.254000  1
  O  O1346  1  0.838200  0.571700  0.254000  1
  O  O1347  1  0.355500  0.011200  0.748300  1
  O  O1348  1  0.644500  0.988800  0.748300  1
  O  O1349  1  0.144500  0.511200  0.251700  1
  O  O1350  1  0.855500  0.488800  0.251700  1
  O  O1351  1  0.266600  0.984200  0.751800  1
  O  O1352  1  0.733400  0.015800  0.751800  1
  O  O1353  1  0.233400  0.484200  0.248200  1
  O  O1354  1  0.766600  0.515800  0.248200  1
  O  O1355  1  0.074600  0.991400  0.817900  1
  O  O1356  1  0.925400  0.008600  0.817900  1
  O  O1357  1  0.425400  0.491400  0.182100  1
  O  O1358  1  0.574600  0.508600  0.182100  1
  O  O1359  1  0.050000  0.972000  0.748500  1
  O  O1360  1  0.950000  0.028000  0.748500  1
  O  O1361  1  0.450000  0.472000  0.251500  1
  O  O1362  1  0.550000  0.528000  0.251500  1
  O  O1363  1  0.123600  0.012000  0.752600  1
  O  O1364  1  0.876400  0.988000  0.752600  1
  O  O1365  1  0.376400  0.512000  0.247400  1
  O  O1366  1  0.623600  0.488000  0.247400  1
  O  O1367  1  0.108800  0.668300  0.011600  1
  O  O1368  1  0.891200  0.331700  0.011600  1
  O  O1369  1  0.391200  0.168300  0.988400  1
  O  O1370  1  0.608800  0.831700  0.988400  1
  O  O1371  1  0.108000  0.723600  0.068500  1
  O  O1372  1  0.892000  0.276400  0.068500  1
  O  O1373  1  0.392000  0.223600  0.931500  1
  O  O1374  1  0.608000  0.776400  0.931500  1
  O  O1375  1  0.071300  0.741300  0.002100  1
  O  O1376  1  0.928700  0.258700  0.002100  1
  O  O1377  1  0.428700  0.241300  0.997900  1
  O  O1378  1  0.571300  0.758700  0.997900  1
  O  O1379  1  0.417700  0.728800  0.395600  1
  O  O1380  1  0.582300  0.271200  0.395600  1
  O  O1381  1  0.082300  0.228800  0.604400  1
  O  O1382  1  0.917700  0.771200  0.604400  1
  O  O1383  1  0.414600  0.659600  0.432000  1
  O  O1384  1  0.585400  0.340400  0.432000  1
  O  O1385  1  0.085400  0.159600  0.568000  1
  O  O1386  1  0.914600  0.840400  0.568000  1
  O  O1387  1  0.434000  0.715000  0.477100  1
  O  O1388  1  0.566000  0.285000  0.477100  1
  O  O1389  1  0.066000  0.215000  0.522900  1
  O  O1390  1  0.934000  0.785000  0.522900  1
  O  O1391  1  0.817600  0.775400  0.707100  1
  O  O1392  1  0.182400  0.224600  0.707100  1
  O  O1393  1  0.682400  0.275400  0.292900  1
  O  O1394  1  0.317600  0.724600  0.292900  1
  O  O1395  1  0.305100  0.243300  0.804300  1
  O  O1396  1  0.694900  0.756700  0.804300  1
  O  O1397  1  0.194900  0.743300  0.195700  1
  O  O1398  1  0.805100  0.256700  0.195700  1
  O  O1399  1  0.978000  0.579800  0.138800  1
  O  O1400  1  0.022000  0.420200  0.138800  1
  O  O1401  1  0.522000  0.079800  0.861200  1
  O  O1402  1  0.478000  0.920200  0.861200  1
  O  O1403  1  0.443500  0.917000  0.706300  1
  O  O1404  1  0.556500  0.083000  0.706300  1
  O  O1405  1  0.056500  0.417000  0.293700  1
  O  O1406  1  0.943500  0.583000  0.293700  1
  O  O1407  1  0.933300  0.898500  0.474400  1
  O  O1408  1  0.066700  0.101500  0.474400  1
  O  O1409  1  0.566700  0.398500  0.525600  1
  O  O1410  1  0.433300  0.601500  0.525600  1
  O  O1411  1  0.870000  0.777800  0.851800  1
  O  O1412  1  0.130000  0.222200  0.851800  1
  O  O1413  1  0.630000  0.277800  0.148200  1
  O  O1414  1  0.370000  0.722200  0.148200  1
  O  O1415  1  0.573300  0.833700  0.534800  1
  O  O1416  1  0.426700  0.166300  0.534800  1
  O  O1417  1  0.926700  0.333700  0.465200  1
  O  O1418  1  0.073300  0.666300  0.465200  1
  O  O1419  1  0.602100  0.811300  0.469000  1
  O  O1420  1  0.397900  0.188700  0.469000  1
  O  O1421  1  0.897900  0.311300  0.531000  1
  O  O1422  1  0.102100  0.688700  0.531000  1
  O  O1423  1  0.616100  0.755600  0.524300  1
  O  O1424  1  0.383900  0.244400  0.524300  1
  O  O1425  1  0.883900  0.255600  0.475700  1
  O  O1426  1  0.116100  0.744400  0.475700  1
  O  O1427  1  0.617800  0.930900  0.532300  1
  O  O1428  1  0.382200  0.069100  0.532300  1
  O  O1429  1  0.882200  0.430900  0.467700  1
  O  O1430  1  0.117800  0.569100  0.467700  1
  O  O1431  1  0.342600  0.582200  0.616400  1
  O  O1432  1  0.657400  0.417800  0.616400  1
  O  O1433  1  0.157400  0.082200  0.383600  1
  O  O1434  1  0.842600  0.917800  0.383600  1
  O  O1435  1  0.271200  0.607000  0.636900  1
  O  O1436  1  0.728800  0.393000  0.636900  1
  O  O1437  1  0.228800  0.107000  0.363100  1
  O  O1438  1  0.771200  0.893000  0.363100  1
  O  O1439  1  0.272800  0.537900  0.578800  1
  O  O1440  1  0.727200  0.462100  0.578800  1
  O  O1441  1  0.227200  0.037900  0.421200  1
  O  O1442  1  0.772800  0.962100  0.421200  1
  O  O1443  1  0.857000  0.630800  0.768500  1
  O  O1444  1  0.143000  0.369200  0.768500  1
  O  O1445  1  0.643000  0.130800  0.231500  1
  O  O1446  1  0.357000  0.869200  0.231500  1
  O  O1447  1  0.838400  0.443500  0.586700  1
  O  O1448  1  0.161600  0.556500  0.586700  1
  O  O1449  1  0.661600  0.943500  0.413300  1
  O  O1450  1  0.338400  0.056500  0.413300  1
  O  O1451  1  0.939400  0.519000  0.684800  1
  O  O1452  1  0.060600  0.481000  0.684800  1
  O  O1453  1  0.560600  0.019000  0.315200  1
  O  O1454  1  0.439400  0.981000  0.315200  1
  O  O1455  1  0.449100  0.742100  0.744300  1
  O  O1456  1  0.550900  0.257900  0.744300  1
  O  O1457  1  0.050900  0.242100  0.255700  1
  O  O1458  1  0.949100  0.757900  0.255700  1
  O  O1459  1  0.512700  0.830900  0.748500  1
  O  O1460  1  0.487300  0.169100  0.748500  1
  O  O1461  1  0.987300  0.330900  0.251500  1
  O  O1462  1  0.012700  0.669100  0.251500  1
  O  O1463  1  0.823700  0.670600  0.672400  1
  O  O1464  1  0.176300  0.329400  0.672400  1
  O  O1465  1  0.676300  0.170600  0.327600  1
  O  O1466  1  0.323700  0.829400  0.327600  1
  O  O1467  1  0.106100  0.089800  0.869500  1
  O  O1468  1  0.893900  0.910200  0.869500  1
  O  O1469  1  0.393900  0.589800  0.130500  1
  O  O1470  1  0.606100  0.410200  0.130500  1
  O  O1471  1  0.133200  0.038200  0.955200  1
  O  O1472  1  0.866800  0.961800  0.955200  1
  O  O1473  1  0.366800  0.538200  0.044800  1
  O  O1474  1  0.633200  0.461800  0.044800  1
  O  O1475  1  0.637100  0.779000  0.632500  1
  O  O1476  1  0.362900  0.221000  0.632500  1
  O  O1477  1  0.862900  0.279000  0.367500  1
  O  O1478  1  0.137100  0.721000  0.367500  1
  O  O1479  1  0.941700  0.500600  0.884200  1
  O  O1480  1  0.058300  0.499400  0.884200  1
  O  O1481  1  0.558300  0.000600  0.115800  1
  O  O1482  1  0.441700  0.999400  0.115800  1
  O  O1483  1  0.707300  0.677700  0.658900  1
  O  O1484  1  0.292700  0.322300  0.658900  1
  O  O1485  1  0.792700  0.177700  0.341100  1
  O  O1486  1  0.207300  0.822300  0.341100  1
  O  O1487  1  0.136400  0.541000  0.812700  1
  O  O1488  1  0.863600  0.459000  0.812700  1
  O  O1489  1  0.363600  0.041000  0.187300  1
  O  O1490  1  0.636400  0.959000  0.187300  1
  O  O1491  1  0.899300  0.910900  0.043000  1
  O  O1492  1  0.100700  0.089100  0.043000  1
  O  O1493  1  0.600700  0.410900  0.957000  1
  O  O1494  1  0.399300  0.589100  0.957000  1
  O  O1495  1  0.419300  0.145500  0.672000  1
  O  O1496  1  0.580700  0.854500  0.672000  1
  O  O1497  1  0.080700  0.645500  0.328000  1
  O  O1498  1  0.919300  0.354500  0.328000  1
  O  O1499  1  0.183700  0.032700  0.520700  1
  O  O1500  1  0.816300  0.967300  0.520700  1
  O  O1501  1  0.316300  0.532700  0.479300  1
  O  O1502  1  0.683700  0.467300  0.479300  1
  O  O1503  1  0.000900  0.944100  0.062600  1
  O  O1504  1  0.999100  0.055900  0.062600  1
  O  O1505  1  0.499100  0.444100  0.937400  1
  O  O1506  1  0.500900  0.555900  0.937400  1
  O  O1507  1  0.658700  0.431800  0.869800  1
  O  O1508  1  0.341300  0.568200  0.869800  1
  O  O1509  1  0.841300  0.931800  0.130200  1
  O  O1510  1  0.158700  0.068200  0.130200  1
  O  O1511  1  0.779100  0.437700  0.879200  1
  O  O1512  1  0.220900  0.562300  0.879200  1
  O  O1513  1  0.720900  0.937700  0.120800  1
  O  O1514  1  0.279100  0.062300  0.120800  1
  O  O1515  1  0.000000  0.500000  0.069600  1
  O  O1516  1  0.500000  0.000000  0.930400  1
  O  O1517  1  0.060500  0.561200  0.554800  1
  O  O1518  1  0.939500  0.438800  0.554800  1
  O  O1519  1  0.439500  0.061200  0.445200  1
  O  O1520  1  0.560500  0.938800  0.445200  1
  O  O1521  1  0.549100  0.071900  0.617100  1
  O  O1522  1  0.450900  0.928100  0.617100  1
  O  O1523  1  0.950900  0.571900  0.382900  1
  O  O1524  1  0.049100  0.428100  0.382900  1
  O  O1525  1  0.500000  0.500000  0.770400  1
  O  O1526  1  0.000000  0.000000  0.229600  1
  O  O1527  1  0.484800  0.543800  0.831700  1
  O  O1528  1  0.515200  0.456200  0.831700  1
  O  O1529  1  0.015200  0.043800  0.168300  1
  O  O1530  1  0.984800  0.956200  0.168300  1
  O  O1531  1  0.498300  0.460300  0.840100  1
  O  O1532  1  0.501700  0.539700  0.840100  1
  O  O1533  1  0.001700  0.960300  0.159900  1
  O  O1534  1  0.998300  0.039700  0.159900  1
  O  O1535  1  0.498500  0.525800  0.648200  1
  O  O1536  1  0.501500  0.474200  0.648200  1
  O  O1537  1  0.001500  0.025800  0.351800  1
  O  O1538  1  0.998500  0.974200  0.351800  1
  O  O1539  1  0.525000  0.452400  0.641200  1
  O  O1540  1  0.475000  0.547600  0.641200  1
  O  O1541  1  0.975000  0.952400  0.358800  1
  O  O1542  1  0.025000  0.047600  0.358800  1
  O  O1543  1  0.592300  0.519200  0.627300  1
  O  O1544  1  0.407700  0.480800  0.627300  1
  O  O1545  1  0.907700  0.019200  0.372700  1
  O  O1546  1  0.092300  0.980800  0.372700  1
  O  O1547  1  0.035800  0.851300  0.694700  1
  O  O1548  1  0.964200  0.148700  0.694700  1
  O  O1549  1  0.464200  0.351300  0.305300  1
  O  O1550  1  0.535800  0.648700  0.305300  1
  O  O1551  1  0.022200  0.869500  0.892700  1
  O  O1552  1  0.977800  0.130500  0.892700  1
  O  O1553  1  0.477800  0.369500  0.107300  1
  O  O1554  1  0.522200  0.630500  0.107300  1
  O  O1555  1  0.055500  0.965400  0.905100  1
  O  O1556  1  0.944500  0.034600  0.905100  1
  O  O1557  1  0.444500  0.465400  0.094900  1
  O  O1558  1  0.555500  0.534600  0.094900  1
  O  O1559  1  0.969400  0.840500  0.979800  1
  O  O1560  1  0.030600  0.159500  0.979800  1
  O  O1561  1  0.530600  0.340500  0.020200  1
  O  O1562  1  0.469400  0.659500  0.020200  1
  O  O1563  1  0.990000  0.814900  0.809100  1
  O  O1564  1  0.010000  0.185100  0.809100  1
  O  O1565  1  0.510000  0.314900  0.190900  1
  O  O1566  1  0.490000  0.685100  0.190900  1
  O  O1567  1  0.247300  0.226600  0.787600  1
  O  O1568  1  0.752700  0.773400  0.787600  1
  O  O1569  1  0.252700  0.726600  0.212400  1
  O  O1570  1  0.747300  0.273400  0.212400  1
  O  O1571  1  0.237700  0.231600  0.712300  1
  O  O1572  1  0.762300  0.768400  0.712300  1
  O  O1573  1  0.262300  0.731600  0.287700  1
  O  O1574  1  0.737700  0.268400  0.287700  1
  O  O1575  1  0.299600  0.280500  0.751400  1
  O  O1576  1  0.700400  0.719500  0.751400  1
  O  O1577  1  0.200400  0.780500  0.248600  1
  O  O1578  1  0.799600  0.219500  0.248600  1
  O  O1579  1  0.921400  0.808100  0.728200  1
  O  O1580  1  0.078600  0.191900  0.728200  1
  O  O1581  1  0.578600  0.308100  0.271800  1
  O  O1582  1  0.421400  0.691900  0.271800  1
  O  O1583  1  0.929400  0.963000  0.694000  1
  O  O1584  1  0.070600  0.037000  0.694000  1
  O  O1585  1  0.570600  0.463000  0.306000  1
  O  O1586  1  0.429400  0.537000  0.306000  1
  O  O1587  1  0.836100  0.446100  0.971800  1
  O  O1588  1  0.163900  0.553900  0.971800  1
  O  O1589  1  0.663900  0.946100  0.028200  1
  O  O1590  1  0.336100  0.053900  0.028200  1
  O  O1591  1  0.876300  0.453700  0.042200  1
  O  O1592  1  0.123700  0.546300  0.042200  1
  O  O1593  1  0.623700  0.953700  0.957800  1
  O  O1594  1  0.376300  0.046300  0.957800  1
  O  O1595  1  0.925600  0.457500  0.987400  1
  O  O1596  1  0.074400  0.542500  0.987400  1
  O  O1597  1  0.574400  0.957500  0.012600  1
  O  O1598  1  0.425600  0.042500  0.012600  1
  O  O1599  1  0.356000  0.560500  0.573700  1.0
  O  O1600  1  0.644000  0.439500  0.573700  1.0
  O  O1601  1  0.144000  0.060500  0.426300  1.0
  O  O1602  1  0.856000  0.939500  0.426300  1.0
