
#######################################################################
#
#                 Cambridge Crystallographic Data Centre
#                                CCDC 
#
#######################################################################
#
# If this CIF has been generated from an entry in the Cambridge 
# Structural Database, then it will include bibliographic, chemical, 
# crystal, experimental, refinement or atomic coordinate data resulting 
# from the CCDC's data processing and validation procedures.
#
#######################################################################

data_OKOLEG
_chemical_formula_moiety         
'C84 H120 N30 Pt6 12+,C10 H13 N5 O5,C9 H14 N3 O5,17.9(H2 O1),12(N1 O3 1-)'
_chemical_name_systematic        
"bis(\m~3~-2,4,6-tris(4-pyridyl)-1,3,5-triazine)-tris(\m~2~-pyrazine)-hexakis(1,2-diaminocyclohexane)-hexa-platinum(ii) 5'-cytidine 5'-guanosine nitrate monohydrate clathrate undecanitrate hydrate"
_symmetry_cell_setting           orthorhombic
_symmetry_space_group_name_H-M   'P 21 21 2'
_symmetry_Int_Tables_number      18
_space_group_name_Hall           'P 2 2ab'
loop_
_symmetry_equiv_pos_site_id
_symmetry_equiv_pos_as_xyz
1 x,y,z
2 -x,-y,z
3 1/2-x,1/2+y,-z
4 1/2+x,1/2-y,-z
_cell_length_a                   23.601(4)
_cell_length_b                   25.572(5)
_cell_length_c                   27.944(5)
_cell_angle_alpha                90
_cell_angle_beta                 90
_cell_angle_gamma                90
_cell_volume                     16864.9
_exptl_crystal_colour            yellow
_exptl_crystal_description       plate
_cell_formula_units_Z            4
loop_
_atom_site_label
_atom_site_type_symbol
_atom_site_fract_x
_atom_site_fract_y
_atom_site_fract_z
Pt1 Pt 0.560368(14) 0.665235(13) 0.862056(12)
Pt2 Pt 0.003429(15) 0.653058(14) 0.880689(14)
Pt3 Pt 0.545099(15) 0.666042(16) 0.618875(13)
Pt4 Pt 0.252022(16) 1.099962(12) 0.874192(11)
Pt5 Pt -0.007063(17) 0.655792(16) 0.636885(15)
Pt6 Pt 0.25590(2) 1.106717(14) 0.631862(12)
C1 C 0.6221(5) 0.6426(5) 0.9485(4)
H1 H 0.6484 0.6731 0.9461
C2 C 0.6410(5) 0.6031(4) 0.9137(4)
H2 H 0.6148 0.5725 0.9159
C3 C 0.7008(5) 0.5841(5) 0.9253(5)
H3 H 0.7277 0.6136 0.9227
H4 H 0.7122 0.5569 0.9019
C4 C 0.7027(6) 0.5610(6) 0.9768(5)
H5 H 0.6765 0.5309 0.9793
H6 H 0.7415 0.5488 0.9843
C5 C 0.6859(7) 0.6018(7) 1.0100(5)
H7 H 0.7130 0.6312 1.0076
H8 H 0.6879 0.5879 1.0430
C6 C 0.6236(7) 0.6231(7) 1.0004(5)
H9 H 0.5955 0.5949 1.0051
H10 H 0.6147 0.6521 1.0227
C7 C -0.0379(5) 0.6215(4) 0.9739(4)
H11 H -0.0247 0.5844 0.9722
C8 C -0.0910(5) 0.6278(5) 0.9424(5)
H12 H -0.1047 0.6647 0.9443
C9 C -0.1361(5) 0.5919(6) 0.9610(5)
H13 H -0.1222 0.5554 0.9604
H14 H -0.1700 0.5941 0.9403
C10 C -0.1515(6) 0.6069(7) 1.0112(6)
H15 H -0.1655 0.6433 1.0118
H16 H -0.1821 0.5838 1.0231
C11 C -0.1007(6) 0.6019(6) 1.0427(5)
H17 H -0.0891 0.5647 1.0440
H18 H -0.1110 0.6128 1.0755
C12 C -0.0496(6) 0.6353(5) 1.0254(4)
H19 H -0.0586 0.6730 1.0283
H20 H -0.0158 0.6278 1.0453
C13 C 0.5767(6) 0.6255(6) 0.5269(4)
H21 H 0.5623 0.5892 0.5327
C14 C 0.6324(5) 0.6334(7) 0.5539(4)
H22 H 0.6412 0.6715 0.5505
C15 C 0.6821(18) 0.6065(16) 0.5356(11)
H23 H 0.6771 0.5685 0.5406
H24 H 0.7154 0.6177 0.5545
C16 C 0.6945(16) 0.6163(15) 0.4817(11)
H25 H 0.7254 0.5930 0.4707
H26 H 0.7065 0.6530 0.4767
C17 C 0.6390(13) 0.6049(14) 0.4527(12)
H27 H 0.6450 0.6154 0.4190
H28 H 0.6316 0.5668 0.4532
C18 C 0.5856(7) 0.6340(7) 0.4725(4)
H29 H 0.5896 0.6720 0.4662
H30 H 0.5516 0.6216 0.4551
C19 C 0.2235(5) 1.1408(4) 0.9667(4)
H31 H 0.1818 1.1429 0.9609
C20 C 0.2526(6) 1.1859(4) 0.9409(3)
H32 H 0.2941 1.1846 0.9478
C21 C 0.2295(6) 1.2382(5) 0.9573(5)
H33 H 0.1894 1.2418 0.9476
H34 H 0.2514 1.2670 0.9425
C22 C 0.2347(8) 1.2410(5) 1.0142(4)
H35 H 0.2753 1.2418 1.0232
H36 H 0.2171 1.2739 1.0256
C23 C 0.2069(8) 1.1959(5) 1.0384(5)
H37 H 0.1660 1.1956 1.0307
H38 H 0.2110 1.1994 1.0735
C24 C 0.2347(7) 1.1430(5) 1.0214(4)
H39 H 0.2759 1.1429 1.0282
H40 H 0.2170 1.1128 1.0378
C25 C -0.0709(6) 0.6418(5) 0.5503(4)
H41 H -0.0969 0.6719 0.5565
C26 C -0.0890(5) 0.5972(5) 0.5813(5)
H42 H -0.0631 0.5672 0.5744
C27 C -0.1497(7) 0.5792(6) 0.5702(6)
H43 H -0.1588 0.5477 0.5893
H44 H -0.1768 0.6072 0.5790
C28 C -0.1551(8) 0.5667(8) 0.5170(7)
H45 H -0.1326 0.5351 0.5097
H46 H -0.1953 0.5589 0.5096
C29 C -0.1361(9) 0.6091(9) 0.4867(7)
H47 H -0.1622 0.6392 0.4905
H48 H -0.1379 0.5977 0.4529
C30 C -0.0761(8) 0.6268(7) 0.4979(5)
H49 H -0.0663 0.6572 0.4776
H50 H -0.0492 0.5982 0.4905
C31 C 0.2647(8) 1.1582(6) 0.5408(4)
H51 H 0.3053 1.1692 0.5416
C32 C 0.2275(8) 1.1944(6) 0.5744(5)
H52 H 0.1872 1.1828 0.5721
C33 C 0.2311(8) 1.2519(7) 0.5581(7)
H53 H 0.2706 1.2643 0.5615
H54 H 0.2068 1.2736 0.5790
C34 C 0.2116(11) 1.2587(11) 0.5047(8)
H55 H 0.2209 1.2944 0.4935
H56 H 0.1701 1.2539 0.5024
C35 C 0.2429(11) 1.2167(8) 0.4717(7)
H57 H 0.2257 1.2177 0.4394
H58 H 0.2831 1.2270 0.4684
C36 C 0.2406(12) 1.1624(8) 0.4894(6)
H59 H 0.2627 1.1395 0.4678
H60 H 0.2008 1.1501 0.4892
C37 C 0.4692(4) 0.7581(4) 0.6246(3)
H61 H 0.5038 0.7767 0.6209
C38 C 0.4204(4) 0.7860(4) 0.6285(3)
H62 H 0.4208 0.8232 0.6276
C39 C 0.3689(4) 0.7584(4) 0.6338(3)
C40 C 0.3714(4) 0.7041(4) 0.6343(3)
H63 H 0.3375 0.6842 0.6369
C41 C 0.4218(4) 0.6796(4) 0.6312(3)
H64 H 0.4227 0.6425 0.6330
C42 C 0.2132(5) 1.0004(4) 0.6420(3)
H65 H 0.1786 1.0186 0.6470
C43 C 0.2127(4) 0.9463(4) 0.6424(4)
H66 H 0.1781 0.9277 0.6456
C44 C 0.2648(4) 0.9191(3) 0.6379(3)
C45 C 0.3134(4) 0.9484(4) 0.6328(3)
H67 H 0.3494 0.9320 0.6306
C46 C 0.3086(5) 1.0032(4) 0.6310(4)
H68 H 0.3420 1.0234 0.6267
C47 C 0.0634(5) 0.7495(4) 0.6331(4)
H69 H 0.0282 0.7669 0.6291
C48 C 0.1146(4) 0.7787(4) 0.6349(3)
H70 H 0.1131 0.8158 0.6332
C49 C 0.1657(4) 0.7544(4) 0.6389(3)
C50 C 0.1658(5) 0.7010(4) 0.6412(4)
H71 H 0.2009 0.6829 0.6424
C51 C 0.1156(5) 0.6730(4) 0.6416(4)
H72 H 0.1166 0.6360 0.6450
C52 C 0.3136(4) 0.7879(4) 0.6369(3)
C53 C 0.2189(4) 0.7844(3) 0.6395(3)
C54 C 0.2646(4) 0.8615(4) 0.6372(3)
C55 C 0.4354(4) 0.6770(3) 0.8571(3)
H73 H 0.4373 0.6399 0.8547
C56 C 0.3828(4) 0.7002(3) 0.8553(3)
H74 H 0.3493 0.6800 0.8521
C57 C 0.3805(4) 0.7551(3) 0.8584(3)
C58 C 0.4330(4) 0.7833(3) 0.8640(3)
H75 H 0.4329 0.8203 0.8665
C59 C 0.4823(4) 0.7564(3) 0.8657(3)
H76 H 0.5165 0.7754 0.8696
C60 C 0.0776(4) 0.7449(4) 0.8774(4)
H77 H 0.0426 0.7629 0.8806
C61 C 0.1275(4) 0.7733(4) 0.8743(4)
H78 H 0.1268 0.8104 0.8767
C62 C 0.1774(3) 0.7477(3) 0.8680(3)
C63 C 0.1778(4) 0.6937(4) 0.8666(3)
H79 H 0.2122 0.6749 0.8626
C64 C 0.1269(4) 0.6681(4) 0.8711(3)
H80 H 0.1271 0.6309 0.8709
C65 C 0.2148(4) 0.9918(4) 0.8646(3)
H81 H 0.1785 1.0080 0.8647
C66 C 0.2180(4) 0.9380(4) 0.8631(3)
H82 H 0.1845 0.9174 0.8629
C67 C 0.2706(4) 0.9148(3) 0.8621(3)
C68 C 0.3191(4) 0.9464(3) 0.8617(3)
H83 H 0.3560 0.9317 0.8598
C69 C 0.3112(4) 0.9996(4) 0.8642(3)
H84 H 0.3438 1.0215 0.8649
C70 C 0.2751(3) 0.8563(3) 0.8626(3)
C71 C 0.3257(4) 0.7818(3) 0.8588(3)
C72 C 0.2318(4) 0.7787(3) 0.8636(3)
C73 C 0.2068(4) 1.1002(4) 0.7782(4)
H85 H 0.1724 1.0938 0.7949
C74 C 0.2064(5) 1.1016(4) 0.7291(4)
H86 H 0.1718 1.0964 0.7123
C75 C 0.3010(4) 1.1170(4) 0.7780(4)
H87 H 0.3354 1.1221 0.7950
C76 C 0.3017(5) 1.1195(4) 0.7291(4)
H88 H 0.3361 1.1277 0.7131
C77 C 0.0250(7) 0.6166(6) 0.7806(4)
H89 H 0.0453 0.5893 0.7960
C78 C 0.0247(6) 0.6185(5) 0.7327(4)
H90 H 0.0466 0.5939 0.7152
C79 C -0.0296(5) 0.6887(5) 0.7838(5)
H91 H -0.0494 0.7149 0.8011
C80 C -0.0302(5) 0.6905(4) 0.7350(4)
H92 H -0.0489 0.7187 0.7194
C81 C 0.5758(5) 0.7082(4) 0.7655(4)
H93 H 0.5880 0.7387 0.7819
C82 C 0.5742(6) 0.7078(4) 0.7148(4)
H94 H 0.5867 0.7377 0.6976
C83 C 0.5448(4) 0.6234(4) 0.7651(3)
H95 H 0.5349 0.5923 0.7818
C84 C 0.5429(4) 0.6238(4) 0.7161(4)
H96 H 0.5322 0.5928 0.6997
N1 N 0.5645(4) 0.6608(4) 0.9345(3)
H97 H 0.5575 0.6931 0.9476
H98 H 0.5376 0.6378 0.9456
N2 N 0.6347(4) 0.6260(3) 0.8666(3)
H99 H 0.6357 0.6001 0.8438
H100 H 0.6643 0.6486 0.8609
N3 N 0.0073(3) 0.6565(4) 0.9529(3)
H101 H 0.0424 0.6458 0.9632
H102 H 0.0017 0.6904 0.9630
N4 N -0.0722(4) 0.6161(4) 0.8922(4)
H103 H -0.0988 0.6279 0.8707
H104 H -0.0680 0.5806 0.8881
N5 N 0.5361(4) 0.6642(4) 0.5474(3)
H105 H 0.4996 0.6549 0.5397
H106 H 0.5431 0.6968 0.5348
N6 N 0.6179(4) 0.6259(4) 0.6063(3)
H107 H 0.6467 0.6386 0.6253
H108 H 0.6130 0.5910 0.6130
N7 N 0.2453(4) 1.0920(3) 0.9463(2)
H109 H 0.2211 1.0649 0.9534
H110 H 0.2802 1.0845 0.9592
N8 N 0.2434(4) 1.1778(3) 0.8877(3)
H111 H 0.2696 1.1966 0.8705
H112 H 0.2077 1.1889 0.8791
N9 N -0.0119(4) 0.6576(4) 0.5653(3)
H113 H -0.0041 0.6908 0.5544
H114 H 0.0142 0.6350 0.5524
N10 N -0.0793(4) 0.6134(4) 0.6321(3)
H115 H -0.0765 0.5842 0.6512
H116 H -0.1094 0.6331 0.6427
N11 N 0.2582(7) 1.1051(4) 0.5600(3)
H117 H 0.2880 1.0846 0.5500
H118 H 0.2253 1.0905 0.5484
N12 N 0.2475(6) 1.1844(3) 0.6226(3)
H119 H 0.2221 1.1975 0.6444
H120 H 0.2819 1.2006 0.6273
N13 N 0.4713(3) 0.7060(3) 0.6256(3)
N14 N 0.2596(4) 1.0275(3) 0.6349(3)
N15 N 0.0650(3) 0.6976(3) 0.6371(3)
N16 N 0.2680(3) 0.7580(3) 0.6406(3)
N17 N 0.2157(3) 0.8371(3) 0.6376(3)
N18 N 0.3163(3) 0.8389(3) 0.6358(3)
N19 N 0.4850(3) 0.7042(3) 0.8620(3)
N20 N 0.0776(3) 0.6922(3) 0.8758(3)
N21 N 0.2610(3) 1.0219(2) 0.8657(3)
N22 N 0.3264(3) 0.8347(3) 0.8602(2)
N23 N 0.2259(3) 0.8308(3) 0.8653(3)
N24 N 0.2791(3) 0.7531(3) 0.8577(3)
N25 N 0.2538(3) 1.1075(3) 0.8026(2)
N26 N 0.2555(4) 1.1106(3) 0.7038(2)
N27 N -0.0025(3) 0.6520(3) 0.8078(3)
N28 N -0.0056(4) 0.6540(3) 0.7090(3)
N29 N 0.5604(3) 0.6662(3) 0.7902(2)
N30 N 0.5556(3) 0.6664(3) 0.6909(2)
O1 O 0.3313(3) 0.7435(3) 0.7481(3)
N31 N 0.2545(4) 0.6892(3) 0.7497(3)
H121 H 0.2323 0.7169 0.7501
C85 C 0.2295(4) 0.6406(4) 0.7510(4)
N32 N 0.1727(4) 0.6411(3) 0.7537(3)
H122 H 0.1537 0.6115 0.7531
H123 H 0.1545 0.6710 0.7562
N33 N 0.2575(3) 0.5966(3) 0.7474(3)
C86 C 0.3131(4) 0.6031(4) 0.7449(4)
C87 C 0.3439(4) 0.6492(4) 0.7447(3)
C88 C 0.3135(4) 0.6975(4) 0.7478(3)
N34 N 0.4019(3) 0.6402(4) 0.7425(3)
C89 C 0.4058(4) 0.5893(4) 0.7399(4)
H124 H 0.4408 0.5712 0.7376
N35 N 0.3549(3) 0.5650(4) 0.7409(3)
O2 O 0.3107(4) 0.4991(4) 0.6986(3)
C90 C 0.3455(5) 0.5084(4) 0.7387(4)
H125 H 0.3827 0.4902 0.7341
C91 C 0.3157(5) 0.4857(4) 0.7814(4)
H126 H 0.2855 0.5103 0.7927
O3 O 0.3547(4) 0.4748(3) 0.8195(3)
H127 H 0.3686 0.5029 0.8297
C92 C 0.2881(5) 0.4349(5) 0.7602(5)
H128 H 0.2530 0.4245 0.7778
O4 O 0.3297(4) 0.3948(3) 0.7605(4)
H129 H 0.3157 0.3672 0.7492
C93 C 0.2755(6) 0.4528(6) 0.7097(6)
H130 H 0.2875 0.4241 0.6876
C94 C 0.2168(7) 0.4672(6) 0.6966(8)
H131 H 0.2161 0.4821 0.6639
H132 H 0.1924 0.4358 0.6971
O5 O 0.1956(5) 0.5059(5) 0.7310(6)
H133 H 0.2183 0.5311 0.7326
N36 N 0.0968(4) 0.8231(4) 0.7526(3)
C95 C 0.1297(4) 0.7780(4) 0.7543(2)
O6 O 0.1075(3) 0.7352(3) 0.7555(3)
N37 N 0.1873(3) 0.7849(3) 0.7537(3)
C96 C 0.2101(4) 0.8328(4) 0.7523(3)
N38 N 0.2672(3) 0.8359(4) 0.7513(3)
H134 H 0.2877 0.8072 0.7515
H135 H 0.2839 0.8667 0.7503
C97 C 0.1763(5) 0.8793(5) 0.7526(4)
H136 H 0.1929 0.9132 0.7537
C98 C 0.1212(5) 0.8728(4) 0.7513(4)
H137 H 0.0973 0.9026 0.7494
C99 C 0.0351(7) 0.8153(12) 0.7484(8)
H138 H 0.0259 0.7774 0.7523
O7 O 0.0197(6) 0.8321(7) 0.7011(6)
C100 C -0.0030(8) 0.8472(8) 0.7796(7)
H139 H 0.0126 0.8836 0.7796
O8 O -0.0116(8) 0.8331(8) 0.8285(5)
H140 H 0.0197 0.8325 0.8427
C101 C -0.0603(7) 0.8498(8) 0.7537(6)
H141 H -0.0816 0.8827 0.7610
O9 O -0.0914(6) 0.8050(6) 0.7648(6)
H142 H -0.1222 0.8054 0.7498
C102 C -0.0411(7) 0.8470(9) 0.7014(6)
H143 H -0.0638 0.8200 0.6840
C103 C -0.0416(10) 0.8995(11) 0.6725(9)
H144 H -0.0346 0.9295 0.6941
H145 H -0.0120 0.8990 0.6474
O10 O -0.1002(9) 0.9036(12) 0.6500(8)
H146 H -0.1021 0.9309 0.6334
N39 N 0.3172(5) 0.9742(4) 0.7480(4)
O11 O 0.3382(4) 0.9283(3) 0.7460(3)
O12 O 0.3555(6) 1.0112(4) 0.7483(5)
O13 O 0.2666(4) 0.9842(3) 0.7518(3)
N40 N 0.0796(12) 0.0049(12) 0.7774(10)
O14 O 0.0746(13) -0.0086(13) 0.8179(9)
O15 O 0.0500(19) -0.028(2) 0.7485(15)
O16 O 0.1236(12) 0.0120(11) 0.7526(10)
N41 N 0.0968(6) 0.7129(6) 0.0259(6)
O17 O 0.1088(5) 0.6683(5) 0.0116(4)
O18 O 0.1080(6) 0.7236(6) 0.0685(5)
O19 O 0.0713(7) 0.7413(7) 0.0021(6)
N42 N 0.4307(13) 0.7051(11) 0.4331(10)
O20 O 0.4177(13) 0.7288(11) 0.3956(11)
O21 O 0.4146(12) 0.6596(11) 0.4320(10)
O22 O 0.434(2) 0.715(2) 0.4771(14)
O23 O -0.1824(6) 0.7754(6) 0.7071(5)
O24 O 0.3051(18) 1.2433(16) 0.8043(15)
O25 O -0.0220(17) 0.5798(15) 0.1388(14)
O26 O 0.4435(15) 0.9170(13) 0.7063(12)
O27 O 0.9333(16) 0.8985(14) 0.4744(13)
O28 O 0.8700(8) 0.7778(8) 0.8518(8)
N43 N 0.5889(8) 0.7936(7) 0.5088(6)
O29 O 0.5733(17) 0.8337(12) 0.5348(11)
O30 O 0.6021(11) 0.8113(9) 0.4690(7)
O31 O 0.6161(15) 0.7556(10) 0.5243(11)
O32 O 0.6178(13) 0.9309(12) 0.5323(11)
N44 N 0.2924(16) 0.5730(18) 0.6097(17)
O33 O 0.3426(13) 0.5822(11) 0.6164(11)
O34 O 0.2712(15) 0.6070(14) 0.6369(13)
O35 O 0.2728(18) 0.5379(16) 0.5788(15)
O36 O 0.857(2) 0.6308(18) 0.7685(17)
O37 O 0.8384(16) 0.4435(14) 0.5867(13)
O38 O 0.9394(12) 0.5190(11) 0.6848(10)
O39 O 0.4491(3) 0.7421(3) 0.7443(3)
O40 O 0.5127(6) 0.8309(6) 0.7485(5)
O41 O 0.8237(4) 0.6706(4) 0.6724(4)
O42 O 0.1061(6) 0.0898(5) 0.8695(5)
O43 O 0.1332(5) 0.0382(4) 0.9552(4)
O44 O 0.6371(5) 0.7790(5) 0.6325(5)
O45 O 0.9417(6) 0.5006(5) 0.8842(5)
O46 O 0.7073(6) 0.6777(5) 0.6589(5)
O47 O 0.1364(7) 0.5410(6) 0.8127(6)
O48 O 0.8993(8) 0.9109(7) 1.0430(6)
O49 O 0.4193(8) 0.1455(7) 0.6720(7)
O50 O 0.1837(8) 0.0327(7) 0.5207(7)
O51 O 1.0009(8) 0.9441(7) 1.0626(6)
O52 O 0.6587(4) 0.4318(4) -0.1302(4)
O53 O 0.7791(7) 0.4377(6) -0.1208(6)
O54 O 0.0000 0.5000 0.0696(11)
O55 O 0.0605(13) 0.5612(12) 0.5548(10)
O56 O 0.5491(10) 1.0719(10) 0.6171(9)
O57? O 0.3560(12) 0.5605(11) 0.5737(10)
O58? O 0.3560(12) 0.5605(11) 0.5737(10)
O59? O 0.3560(12) 0.5605(11) 0.5737(10)
N45? N 0.5000 0.5000 0.8136(5)
O60? O 0.5000 0.5000 0.7704(4)
O61? O 0.4848(8) 0.5438(7) 0.8317(7)
O62? O 0.4983(9) 0.4603(8) 0.8401(7)
N46? N 0.5432(10) 0.4992(9) 0.6370(10)
O63? O 0.4985(11) 0.5258(9) 0.6482(9)
O64? O 0.5250(10) 0.4524(8) 0.6412(9)
O65? O 0.5923(8) 0.5192(7) 0.6273(7)
C104? C 0.0370(13) 0.827(3) 0.7424(14)
C105? C -0.002(2) 0.855(2) 0.7750(17)
C106? C -0.050(2) 0.8581(17) 0.7369(16)
C107? C -0.0208(15) 0.8743(14) 0.6899(16)
C108? C -0.019(2) 0.9300(14) 0.679(2)
C109? C 0.672(2) 0.5847(16) 0.5381(15)
C110? C 0.6822(19) 0.5919(18) 0.4835(14)
C111? C 0.6243(17) 0.5858(16) 0.4581(16)
H147? H 0.0223 0.7906 0.7387
H148? H 0.0116 0.8889 0.7878
H149? H 0.0187 0.8131 0.8268
H150? H -0.0786 0.8852 0.7464
H151? H -0.1061 0.8127 0.7096
H152? H -0.0406 0.8562 0.6630
H153? H -0.0142 0.9338 0.6439
H154? H 0.0147 0.9451 0.6944
H155? H -0.0653 0.9943 0.6857
H156? H 0.7084 0.5854 0.5557
H157? H 0.6527 0.5511 0.5446
H158? H 0.6982 0.6269 0.4770
H159? H 0.7091 0.5651 0.4717
H160? H 0.6060 0.5527 0.4680
H161? H 0.6297 0.5850 0.4230
N47? N 0.2751(12) 1.2375(12) 0.7480(9)
O66? O 0.0358(13) 0.8513(12) 0.6947(11)
O67? O 0.0222(12) 0.8695(11) 0.8927(10)
O68? O 0.0555(17) 0.9654(15) 0.9051(15)
O69? O -0.0306(14) 0.8405(13) 0.9798(11)
O70? O -0.0100(13) 0.8149(11) 0.8091(11)
O71? O 0.2473(6) 1.2266(5) 0.7876(5)
O72? O 0.2377(17) 1.2316(16) 0.7123(11)
O73? O 0.2996(14) 1.2805(13) 0.7514(12)
O74? O -0.0786(13) 0.8081(12) 0.7282(17)
O75? O -0.0706(16) 0.9630(14) 0.694(2)
N48? N 0.8620(14) 0.4511(12) -0.0014(12)
O76? O 0.8361(16) 0.4461(14) -0.0282(13)
O77? O 0.8763(10) 0.4537(8) 0.0422(9)
O78? O 0.9256(9) 0.4575(8) -0.0126(7)
loop_
_geom_bond_atom_site_label_1
_geom_bond_atom_site_label_2
_geom_bond_site_symmetry_1
_geom_bond_site_symmetry_2
Pt1 N1 1_555 1_555
Pt2 N3 1_555 1_555
Pt3 N5 1_555 1_555
Pt4 N7 1_555 1_555
Pt5 N9 1_555 1_555
Pt6 N11 1_555 1_555
C1 H1 1_555 1_555
C2 C1 1_555 1_555
H2 C2 1_555 1_555
C3 C2 1_555 1_555
H3 C3 1_555 1_555
H4 C3 1_555 1_555
C4 C3 1_555 1_555
H5 C4 1_555 1_555
H6 C4 1_555 1_555
C5 C4 1_555 1_555
H7 C5 1_555 1_555
H8 C5 1_555 1_555
C6 C1 1_555 1_555
H9 C6 1_555 1_555
H10 C6 1_555 1_555
C7 H11 1_555 1_555
C8 C7 1_555 1_555
H12 C8 1_555 1_555
C9 C8 1_555 1_555
H13 C9 1_555 1_555
H14 C9 1_555 1_555
C10 C9 1_555 1_555
H15 C10 1_555 1_555
H16 C10 1_555 1_555
C11 C10 1_555 1_555
H17 C11 1_555 1_555
H18 C11 1_555 1_555
C12 C7 1_555 1_555
H19 C12 1_555 1_555
H20 C12 1_555 1_555
C13 H21 1_555 1_555
C14 C13 1_555 1_555
H22 C14 1_555 1_555
C15 C14 1_555 1_555
H23 C15 1_555 1_555
H24 C15 1_555 1_555
C16 C15 1_555 1_555
H25 C16 1_555 1_555
H26 C16 1_555 1_555
C17 C16 1_555 1_555
H27 C17 1_555 1_555
H28 C17 1_555 1_555
C18 C13 1_555 1_555
H29 C18 1_555 1_555
H30 C18 1_555 1_555
C19 H31 1_555 1_555
C20 C19 1_555 1_555
H32 C20 1_555 1_555
C21 C20 1_555 1_555
H33 C21 1_555 1_555
H34 C21 1_555 1_555
C22 C21 1_555 1_555
H35 C22 1_555 1_555
H36 C22 1_555 1_555
C23 C22 1_555 1_555
H37 C23 1_555 1_555
H38 C23 1_555 1_555
C24 C19 1_555 1_555
H39 C24 1_555 1_555
H40 C24 1_555 1_555
C25 H41 1_555 1_555
C26 C25 1_555 1_555
H42 C26 1_555 1_555
C27 C26 1_555 1_555
H43 C27 1_555 1_555
H44 C27 1_555 1_555
C28 C27 1_555 1_555
H45 C28 1_555 1_555
H46 C28 1_555 1_555
C29 C28 1_555 1_555
H47 C29 1_555 1_555
H48 C29 1_555 1_555
C30 C25 1_555 1_555
H49 C30 1_555 1_555
H50 C30 1_555 1_555
C31 H51 1_555 1_555
C32 C31 1_555 1_555
H52 C32 1_555 1_555
C33 C32 1_555 1_555
H53 C33 1_555 1_555
H54 C33 1_555 1_555
C34 C33 1_555 1_555
H55 C34 1_555 1_555
H56 C34 1_555 1_555
C35 C34 1_555 1_555
H57 C35 1_555 1_555
H58 C35 1_555 1_555
C36 C31 1_555 1_555
H59 C36 1_555 1_555
H60 C36 1_555 1_555
C37 H61 1_555 1_555
C38 C37 1_555 1_555
H62 C38 1_555 1_555
C39 C38 1_555 1_555
C40 C39 1_555 1_555
H63 C40 1_555 1_555
C41 C40 1_555 1_555
H64 C41 1_555 1_555
C42 H65 1_555 1_555
C43 C42 1_555 1_555
H66 C43 1_555 1_555
C44 C43 1_555 1_555
C45 C44 1_555 1_555
H67 C45 1_555 1_555
C46 C45 1_555 1_555
H68 C46 1_555 1_555
C47 H69 1_555 1_555
C48 C47 1_555 1_555
H70 C48 1_555 1_555
C49 C48 1_555 1_555
C50 C49 1_555 1_555
H71 C50 1_555 1_555
C51 C50 1_555 1_555
H72 C51 1_555 1_555
C52 C39 1_555 1_555
C53 C49 1_555 1_555
C54 C44 1_555 1_555
C55 H73 1_555 1_555
C56 C55 1_555 1_555
H74 C56 1_555 1_555
C57 C56 1_555 1_555
C58 C57 1_555 1_555
H75 C58 1_555 1_555
C59 C58 1_555 1_555
H76 C59 1_555 1_555
C60 H77 1_555 1_555
C61 C60 1_555 1_555
H78 C61 1_555 1_555
C62 C61 1_555 1_555
C63 C62 1_555 1_555
H79 C63 1_555 1_555
C64 C63 1_555 1_555
H80 C64 1_555 1_555
C65 H81 1_555 1_555
C66 C65 1_555 1_555
H82 C66 1_555 1_555
C67 C66 1_555 1_555
C68 C67 1_555 1_555
H83 C68 1_555 1_555
C69 C68 1_555 1_555
H84 C69 1_555 1_555
C70 C67 1_555 1_555
C71 C57 1_555 1_555
C72 C62 1_555 1_555
C73 H85 1_555 1_555
C74 C73 1_555 1_555
H86 C74 1_555 1_555
C75 H87 1_555 1_555
C76 C75 1_555 1_555
H88 C76 1_555 1_555
C77 H89 1_555 1_555
C78 C77 1_555 1_555
H90 C78 1_555 1_555
C79 H91 1_555 1_555
C80 C79 1_555 1_555
H92 C80 1_555 1_555
C81 H93 1_555 1_555
C82 C81 1_555 1_555
H94 C82 1_555 1_555
C83 H95 1_555 1_555
C84 C83 1_555 1_555
H96 C84 1_555 1_555
N1 C1 1_555 1_555
H97 N1 1_555 1_555
H98 N1 1_555 1_555
N2 Pt1 1_555 1_555
H99 N2 1_555 1_555
H100 N2 1_555 1_555
N3 C7 1_555 1_555
H101 N3 1_555 1_555
H102 N3 1_555 1_555
N4 Pt2 1_555 1_555
H103 N4 1_555 1_555
H104 N4 1_555 1_555
N5 C13 1_555 1_555
H105 N5 1_555 1_555
H106 N5 1_555 1_555
N6 Pt3 1_555 1_555
H107 N6 1_555 1_555
H108 N6 1_555 1_555
N7 C19 1_555 1_555
H109 N7 1_555 1_555
H110 N7 1_555 1_555
N8 Pt4 1_555 1_555
H111 N8 1_555 1_555
H112 N8 1_555 1_555
N9 C25 1_555 1_555
H113 N9 1_555 1_555
H114 N9 1_555 1_555
N10 Pt5 1_555 1_555
H115 N10 1_555 1_555
H116 N10 1_555 1_555
N11 C31 1_555 1_555
H117 N11 1_555 1_555
H118 N11 1_555 1_555
N12 Pt6 1_555 1_555
H119 N12 1_555 1_555
H120 N12 1_555 1_555
N13 Pt3 1_555 1_555
N14 Pt6 1_555 1_555
N15 Pt5 1_555 1_555
N16 C52 1_555 1_555
N17 C53 1_555 1_555
N18 C52 1_555 1_555
N19 Pt1 1_555 1_555
N20 Pt2 1_555 1_555
N21 Pt4 1_555 1_555
N22 C70 1_555 1_555
N23 C70 1_555 1_555
N24 C71 1_555 1_555
N25 Pt4 1_555 1_555
N26 Pt6 1_555 1_555
N27 Pt2 1_555 1_555
N28 Pt5 1_555 1_555
N29 Pt1 1_555 1_555
N30 Pt3 1_555 1_555
O1 C88 1_555 1_555
N31 H121 1_555 1_555
C85 N31 1_555 1_555
N32 C85 1_555 1_555
H122 N32 1_555 1_555
H123 N32 1_555 1_555
N33 C85 1_555 1_555
C86 N33 1_555 1_555
C87 C86 1_555 1_555
C88 N31 1_555 1_555
N34 C87 1_555 1_555
C89 N34 1_555 1_555
H124 C89 1_555 1_555
N35 C86 1_555 1_555
O2 C90 1_555 1_555
C90 N35 1_555 1_555
H125 C90 1_555 1_555
C91 C90 1_555 1_555
H126 C91 1_555 1_555
O3 C91 1_555 1_555
H127 O3 1_555 1_555
C92 C91 1_555 1_555
H128 C92 1_555 1_555
O4 C92 1_555 1_555
H129 O4 1_555 1_555
C93 O2 1_555 1_555
H130 C93 1_555 1_555
C94 C93 1_555 1_555
H131 C94 1_555 1_555
H132 C94 1_555 1_555
O5 C94 1_555 1_555
H133 O5 1_555 1_555
N36 C95 1_555 1_555
C95 O6 1_555 1_555
N37 C95 1_555 1_555
C96 N37 1_555 1_555
N38 C96 1_555 1_555
H134 N38 1_555 1_555
H135 N38 1_555 1_555
C97 C96 1_555 1_555
H136 C97 1_555 1_555
C98 N36 1_555 1_555
H137 C98 1_555 1_555
C99 N36 1_555 1_555
H138 C99 1_555 1_555
O7 C99 1_555 1_555
C100 C99 1_555 1_555
H139 C100 1_555 1_555
O8 C100 1_555 1_555
H140 O8 1_555 1_555
C101 C100 1_555 1_555
H141 C101 1_555 1_555
O9 C101 1_555 1_555
H142 O9 1_555 1_555
C102 O7 1_555 1_555
H143 C102 1_555 1_555
C103 C102 1_555 1_555
H144 C103 1_555 1_555
H145 C103 1_555 1_555
O10 C103 1_555 1_555
H146 O10 1_555 1_555
N39 O11 1_555 1_555
O12 N39 1_555 1_555
O13 N39 1_555 1_555
N40 O14 1_555 1_555
O15 N40 1_555 1_555
O16 N40 1_555 1_555
N41 O17 1_555 1_555
O18 N41 1_555 1_555
O19 N41 1_555 1_555
N42 O20 1_555 1_555
O21 N42 1_555 1_555
O22 N42 1_555 1_555
N43 O29 1_555 1_555
O30 N43 1_555 1_555
O31 N43 1_555 1_555
N44 O33 1_555 1_555
O34 N44 1_555 1_555
O35 N44 1_555 1_555
C2 N2 1_555 1_555
C5 C6 1_555 1_555
C8 N4 1_555 1_555
C11 C12 1_555 1_555
C14 N6 1_555 1_555
C17 C18 1_555 1_555
C20 N8 1_555 1_555
C23 C24 1_555 1_555
C26 N10 1_555 1_555
C29 C30 1_555 1_555
C32 N12 1_555 1_555
C35 C36 1_555 1_555
C37 N13 1_555 1_555
C41 N13 1_555 1_555
C42 N14 1_555 1_555
C46 N14 1_555 1_555
C47 N15 1_555 1_555
C51 N15 1_555 1_555
C53 N16 1_555 1_555
C54 N17 1_555 1_555
C54 N18 1_555 1_555
C55 N19 1_555 1_555
C59 N19 1_555 1_555
C60 N20 1_555 1_555
C64 N20 1_555 1_555
C65 N21 1_555 1_555
C69 N21 1_555 1_555
C71 N22 1_555 1_555
C72 N23 1_555 1_555
C72 N24 1_555 1_555
C73 N25 1_555 1_555
C74 N26 1_555 1_555
C75 N25 1_555 1_555
C76 N26 1_555 1_555
C77 N27 1_555 1_555
C78 N28 1_555 1_555
C79 N27 1_555 1_555
C80 N28 1_555 1_555
C81 N29 1_555 1_555
C82 N30 1_555 1_555
C83 N29 1_555 1_555
C84 N30 1_555 1_555
C87 C88 1_555 1_555
C89 N35 1_555 1_555
C92 C93 1_555 1_555
C97 C98 1_555 1_555
C101 C102 1_555 1_555

#END
