
#######################################################################
#
#                 Cambridge Crystallographic Data Centre
#                                CCDC 
#
#######################################################################
#
# If this CIF has been generated from an entry in the Cambridge 
# Structural Database, then it will include bibliographic, chemical, 
# crystal, experimental, refinement or atomic coordinate data resulting 
# from the CCDC's data processing and validation procedures.
#
#######################################################################

data_OMEXAG
_chemical_formula_moiety         'C36 H34 Dy2 N8 O24,8(H2 O1)'
_chemical_name_systematic        
'bis(\m~2~-1H-benzimidazole-5,6-dicarboxylato)-bis(1H-benzimidazole-5-carboxylato-6-carboxylic acid)-octaaqua-di-dysprosium octahydrate'
_symmetry_cell_setting           triclinic
_symmetry_space_group_name_H-M   'P -1'
_symmetry_Int_Tables_number      2
_space_group_name_Hall           '-P 1'
loop_
_symmetry_equiv_pos_site_id
_symmetry_equiv_pos_as_xyz
1 x,y,z
2 -x,-y,-z
_cell_length_a                   7.3886(19)
_cell_length_b                   12.288(3)
_cell_length_c                   13.785(4)
_cell_angle_alpha                71.548(3)
_cell_angle_beta                 82.546(4)
_cell_angle_gamma                78.960(4)
_cell_volume                     1162.03
_cell_formula_units_Z            1
loop_
_atom_site_label
_atom_site_type_symbol
_atom_site_fract_x
_atom_site_fract_y
_atom_site_fract_z
C1 C 0.7009(9) 0.3914(5) 0.4198(5)
H1 H 0.6542 0.3799 0.4876
C2 C 0.5477(9) 0.2328(5) -0.0188(4)
C3 C 0.7624(8) 0.2423(5) 0.2138(4)
C4 C 0.7092(8) 0.3090(5) 0.3730(4)
C5 C 0.5853(8) 0.3134(5) -0.1213(4)
C6 C 0.6156(8) 0.2748(5) -0.2086(4)
C7 C 0.5724(8) 0.1617(5) -0.2065(4)
C8 C 0.8229(8) 0.5144(5) 0.2607(4)
C9 C 0.6736(8) 0.3467(5) -0.3018(4)
H2 H 0.6960 0.3209 -0.3594
C10 C 0.7518(9) 0.6303(5) -0.3544(5)
H3 H 0.7817 0.7021 -0.3940
C11 C 0.7640(9) 0.4935(5) 0.3635(5)
C12 C 0.7700(8) 0.3290(5) 0.2694(4)
C13 C 0.6628(8) 0.4954(5) -0.2225(5)
C14 C 0.6074(8) 0.4238(5) -0.1277(5)
H4 H 0.5859 0.4498 -0.0701
C15 C 0.6573(9) 0.1938(5) 0.4403(5)
C16 C 0.8274(8) 0.4315(5) 0.2129(4)
H5 H 0.8683 0.4445 0.1441
C17 C 0.8440(9) 0.6653(5) 0.3068(5)
H6 H 0.8674 0.7378 0.3045
C18 C 0.6981(8) 0.4580(5) -0.3085(4)
Dy1 Dy 0.49784(4) 0.06541(2) 0.17666(2)
N1 N 0.7557(8) 0.5458(4) -0.3914(4)
N2 N 0.7013(7) 0.6060(4) -0.2542(4)
H7 H 0.6943 0.6513 -0.2169
N3 N 0.8683(7) 0.6253(4) 0.2282(4)
N4 N 0.7817(7) 0.5894(4) 0.3901(4)
H8 H 0.7568 0.5985 0.4501
O1 O 0.6125(5) 0.2067(3) 0.2227(3)
O2 O 0.9029(6) 0.2133(4) 0.1611(3)
O3 O 0.4230(6) 0.2617(3) 0.0425(3)
O4 O 0.6508(6) 0.1348(3) 0.0083(3)
O5 O 0.4370(6) 0.1231(3) -0.1505(3)
O6 O 0.6683(6) 0.1058(3) -0.2617(3)
O7 O 0.7578(6) 0.1035(3) 0.4273(3)
O8 O 0.5267(7) 0.1956(4) 0.5057(4)
H9 H 0.4919 0.2624 0.5076
O9 O 0.5421(6) -0.0059(4) 0.3506(3)
H10 H 0.5984 0.0321 0.3752
H11 H 0.5334 -0.0720 0.3938
O10 O 0.2322(6) 0.1647(3) 0.2404(3)
H12 H 0.2196 0.1620 0.3033
H13 H 0.1481 0.2038 0.2008
O11 O 0.8280(5) 0.0002(3) 0.1829(3)
H14 H 0.8800 -0.0096 0.2372
H15 H 0.8920 -0.0129 0.1307
O12 O 0.2736(6) 0.0585(4) 0.0682(3)
H16 H 0.1597 0.0639 0.0889
H17 H 0.3080 0.0506 0.0092
C1A C 0.2991(9) -0.3914(5) -0.4198(5)
H1A H 0.3458 -0.3799 -0.4876
C2A C 0.4523(9) -0.2328(5) 0.0188(4)
C3A C 0.2376(8) -0.2423(5) -0.2138(4)
C4A C 0.2908(8) -0.3090(5) -0.3730(4)
C5A C 0.4147(8) -0.3134(5) 0.1213(4)
C6A C 0.3844(8) -0.2748(5) 0.2086(4)
C7A C 0.4276(8) -0.1617(5) 0.2065(4)
C8A C 0.1771(8) -0.5144(5) -0.2607(4)
C9A C 0.3264(8) -0.3467(5) 0.3018(4)
H2A H 0.3040 -0.3209 0.3594
C10A C 0.2482(9) -0.6303(5) 0.3544(5)
H3A H 0.2183 -0.7021 0.3940
C11A C 0.2360(9) -0.4935(5) -0.3635(5)
C12A C 0.2300(8) -0.3290(5) -0.2694(4)
C13A C 0.3372(8) -0.4954(5) 0.2225(5)
C14A C 0.3926(8) -0.4238(5) 0.1277(5)
H4A H 0.4141 -0.4498 0.0701
C15A C 0.3427(9) -0.1938(5) -0.4403(5)
C16A C 0.1726(8) -0.4315(5) -0.2129(4)
H5A H 0.1317 -0.4445 -0.1441
C17A C 0.1560(9) -0.6653(5) -0.3068(5)
H6A H 0.1326 -0.7378 -0.3045
C18A C 0.3019(8) -0.4580(5) 0.3085(4)
Dy1A Dy 0.50216(4) -0.06541(2) -0.17666(2)
N1A N 0.2443(8) -0.5458(4) 0.3914(4)
N2A N 0.2987(7) -0.6060(4) 0.2542(4)
H7A H 0.3057 -0.6513 0.2169
N3A N 0.1317(7) -0.6253(4) -0.2282(4)
N4A N 0.2183(7) -0.5894(4) -0.3901(4)
H8A H 0.2432 -0.5985 -0.4501
O1A O 0.3875(5) -0.2067(3) -0.2227(3)
O2A O 0.0971(6) -0.2133(4) -0.1611(3)
O3A O 0.5770(6) -0.2617(3) -0.0425(3)
O4A O 0.3492(6) -0.1348(3) -0.0083(3)
O5A O 0.5630(6) -0.1231(3) 0.1505(3)
O6A O 0.3317(6) -0.1058(3) 0.2617(3)
O7A O 0.2422(6) -0.1035(3) -0.4273(3)
O8A O 0.4733(7) -0.1956(4) -0.5057(4)
H9A H 0.5081 -0.2624 -0.5076
O9A O 0.4579(6) 0.0059(4) -0.3506(3)
H10A H 0.4016 -0.0321 -0.3752
H11A H 0.4666 0.0720 -0.3938
O10A O 0.7678(6) -0.1647(3) -0.2404(3)
H12A H 0.7804 -0.1620 -0.3033
H13A H 0.8519 -0.2038 -0.2008
O11A O 0.1720(5) -0.0002(3) -0.1829(3)
H14A H 0.1200 0.0096 -0.2372
H15A H 0.1080 0.0129 -0.1307
O12A O 0.7264(6) -0.0585(4) -0.0682(3)
H16A H 0.8403 -0.0639 -0.0889
H17A H 0.6920 -0.0506 -0.0092
O13 O 0.9348(9) 0.6305(5) 0.0169(4)
H18 H 0.8356 0.6786 0.0177
H19 H 1.0087 0.6685 -0.0276
O14 O 0.0186(7) 0.1651(4) 0.9186(4)
H20 H 0.0113 0.2182 0.9468
H21 H 0.1326 0.1502 0.9000
O15 O 1.0099(6) 0.1382(4) 0.6449(3)
H22 H 0.8969 0.1349 0.6656
H23 H 1.0321 0.1236 0.5877
O16 O 0.1209(6) 0.1088(3) 0.4401(3)
H24 H 0.1674 0.0561 0.4913
H25 H 0.0118 0.1004 0.4355
loop_
_geom_bond_atom_site_label_1
_geom_bond_atom_site_label_2
_geom_bond_site_symmetry_1
_geom_bond_site_symmetry_2
C1 H1 1_555 1_555
C2 C5 1_555 1_555
C3 C12 1_555 1_555
C4 C1 1_555 1_555
C5 C6 1_555 1_555
C6 C7 1_555 1_555
C7 O5 1_555 1_555
C8 C11 1_555 1_555
C9 C6 1_555 1_555
H2 C9 1_555 1_555
C10 H3 1_555 1_555
C11 C1 1_555 1_555
C12 C4 1_555 1_555
C13 C14 1_555 1_555
C14 C5 1_555 1_555
H4 C14 1_555 1_555
C15 C4 1_555 1_555
C16 C8 1_555 1_555
H5 C16 1_555 1_555
C17 H6 1_555 1_555
C18 C9 1_555 1_555
Dy1 O1 1_555 1_555
N1 C10 1_555 1_555
N2 C10 1_555 1_555
H7 N2 1_555 1_555
N3 C8 1_555 1_555
N4 C11 1_555 1_555
H8 N4 1_555 1_555
O1 C3 1_555 1_555
O2 C3 1_555 1_555
O3 C2 1_555 1_555
O4 C2 1_555 1_555
O5 Dy1A 1_555 1_555
O6 C7 1_555 1_555
O7 C15 1_555 1_555
O8 C15 1_555 1_555
H9 O8 1_555 1_555
O9 Dy1 1_555 1_555
H10 O9 1_555 1_555
H11 O9 1_555 1_555
O10 Dy1 1_555 1_555
H12 O10 1_555 1_555
H13 O10 1_555 1_555
O11 Dy1 1_555 1_555
H14 O11 1_555 1_555
H15 O11 1_555 1_555
O12 Dy1 1_555 1_555
H16 O12 1_555 1_555
H17 O12 1_555 1_555
O13 H18 1_555 1_555
H19 O13 1_555 1_555
O14 H20 1_555 1_555
H21 O14 1_555 1_555
O15 H22 1_555 1_555
H23 O15 1_555 1_555
O16 H24 1_555 1_555
H25 O16 1_555 1_555
C1A H1A 1_555 1_555
C2A C5A 1_555 1_555
C3A C12A 1_555 1_555
C4A C1A 1_555 1_555
C5A C6A 1_555 1_555
C6A C7A 1_555 1_555
C7A O5A 1_555 1_555
C8A C11A 1_555 1_555
C9A C6A 1_555 1_555
H2A C9A 1_555 1_555
C10A H3A 1_555 1_555
C11A C1A 1_555 1_555
C12A C4A 1_555 1_555
C13A C14A 1_555 1_555
C14A C5A 1_555 1_555
H4A C14A 1_555 1_555
C15A C4A 1_555 1_555
C16A C8A 1_555 1_555
H5A C16A 1_555 1_555
C17A H6A 1_555 1_555
C18A C9A 1_555 1_555
Dy1A O6 1_555 1_555
N1A C10A 1_555 1_555
N2A C10A 1_555 1_555
H7A N2A 1_555 1_555
N3A C8A 1_555 1_555
N4A C11A 1_555 1_555
H8A N4A 1_555 1_555
O1A C3A 1_555 1_555
O2A C3A 1_555 1_555
O3A C2A 1_555 1_555
O4A C2A 1_555 1_555
O5A Dy1 1_555 1_555
O6A Dy1 1_555 1_555
O7A C15A 1_555 1_555
O8A C15A 1_555 1_555
H9A O8A 1_555 1_555
O9A Dy1A 1_555 1_555
H10A O9A 1_555 1_555
H11A O9A 1_555 1_555
O10A Dy1A 1_555 1_555
H12A O10A 1_555 1_555
H13A O10A 1_555 1_555
O11A Dy1A 1_555 1_555
H14A O11A 1_555 1_555
H15A O11A 1_555 1_555
O12A Dy1A 1_555 1_555
H16A O12A 1_555 1_555
H17A O12A 1_555 1_555
C12 C16 1_555 1_555
C13 C18 1_555 1_555
C13 N2 1_555 1_555
C17 N3 1_555 1_555
C17 N4 1_555 1_555
C18 N1 1_555 1_555
Dy1 O3 1_555 1_555
Dy1 O4 1_555 1_555
C7A O6A 1_555 1_555
C12A C16A 1_555 1_555
C13A C18A 1_555 1_555
C13A N2A 1_555 1_555
C17A N3A 1_555 1_555
C17A N4A 1_555 1_555
C18A N1A 1_555 1_555
Dy1A O1A 1_555 1_555
Dy1A O3A 1_555 1_555
Dy1A O4A 1_555 1_555

#END
