
#######################################################################
#
#                 Cambridge Crystallographic Data Centre
#                                CCDC 
#
#######################################################################
#
# If this CIF has been generated from an entry in the Cambridge 
# Structural Database, then it will include bibliographic, chemical, 
# crystal, experimental, refinement or atomic coordinate data resulting 
# from the CCDC's data processing and validation procedures.
#
#######################################################################

data_OQIPOU
_chemical_formula_moiety         
'C144 H126 N6 O12 Ru6 6+,6(C1 F3 O3 S1 1-),C4 H10 O1'
_chemical_name_systematic        
"bis(\m~3~-4,4',4''-(Benzene-1,3,5-triyltriethyne-2,1-diyl)tripyridine)-tris(\m~2~-naphthalene-1,4,5,8-tetraoxy)-hexakis(\h^6^-p-cymene)-hexa-ruthenium hexakis(trifluoromethanesulfonate) diethyl ether solvate"
_chemical_properties_biological  'strongly cytotoxic'
_symmetry_cell_setting           monoclinic
_symmetry_space_group_name_H-M   'P 21/n'
_symmetry_Int_Tables_number      14
_space_group_name_Hall           '-P 2yn'
loop_
_symmetry_equiv_pos_site_id
_symmetry_equiv_pos_as_xyz
1 x,y,z
2 1/2-x,1/2+y,1/2-z
3 -x,-y,-z
4 1/2+x,1/2-y,1/2+z
_cell_length_a                   14.548(3)
_cell_length_b                   34.324(7)
_cell_length_c                   34.518(7)
_cell_angle_alpha                90
_cell_angle_beta                 99.43(3)
_cell_angle_gamma                90
_cell_volume                     17003.5
_exptl_crystal_colour            colorless
_exptl_crystal_description       needle
_cell_formula_units_Z            4
loop_
_atom_site_label
_atom_site_type_symbol
_atom_site_fract_x
_atom_site_fract_y
_atom_site_fract_z
Ru1 Ru 0.83742(6) 0.33976(3) 0.15831(3)
Ru2 Ru -0.07916(7) 0.71859(3) 0.10201(3)
Ru3 Ru 0.29918(7) 0.28209(5) 0.18863(4)
Ru4 Ru 0.11777(8) 0.38711(4) -0.32132(3)
Ru5 Ru 0.64920(9) 0.47725(4) -0.31731(3)
Ru6 Ru 0.41874(8) 0.82540(3) 0.07043(4)
O1 O 0.2486(7) 0.3708(3) -0.3024(3)
O2 O 0.1735(9) 0.4407(3) -0.3358(2)
O3 O 0.5928(7) 0.4272(3) -0.3024(2)
O4 O 0.5202(8) 0.4979(3) -0.3374(2)
O5 O 0.3975(6) 0.3203(3) 0.2133(2)
O6 O 0.3946(5) 0.2605(3) 0.1606(3)
O7 O 0.7490(5) 0.3574(2) 0.1943(2)
O8 O 0.7308(5) 0.3052(2) 0.1306(2)
O9 O -0.0386(6) 0.7568(2) 0.0629(2)
O10 O 0.0548(6) 0.7202(2) 0.1315(2)
O11 O 0.2902(7) 0.8223(3) 0.0396(3)
O12 O 0.3723(7) 0.7944(3) 0.1118(3)
N1 N 0.1309(8) 0.4115(4) -0.2644(3)
N2 N 0.2816(7) 0.3223(4) 0.1405(4)
N3 N -0.0258(6) 0.6767(3) 0.0670(3)
N4 N 0.7728(6) 0.3829(3) 0.1200(2)
N5 N 0.4373(7) 0.7700(3) 0.0459(3)
N6 N 0.6205(8) 0.4961(4) -0.2622(3)
C1 C 0.1734(9) 0.3920(4) -0.2345(4)
H1 H 0.1975 0.3670 -0.2392
C2 C 0.0813(12) 0.4444(4) -0.2579(4)
H2 H 0.0407 0.4566 -0.2788
C3 C 0.0922(11) 0.4594(4) -0.2201(4)
H3 H 0.0681 0.4845 -0.2160
C4 C 0.1860(8) 0.4054(3) -0.1957(3)
H4 H 0.2263 0.3923 -0.1754
C5 C 0.1378(9) 0.4384(3) -0.1880(3)
C6 C 0.1367(8) 0.4516(3) -0.1496(3)
C7 C 0.1378(7) 0.4612(3) -0.1156(4)
C8 C 0.2748(9) 0.3089(4) 0.1050(5)
H5 H 0.2825 0.2818 0.1008
C9 C 0.2729(8) 0.3609(5) 0.1482(4)
H6 H 0.2802 0.3694 0.1747
C10 C 0.2554(8) 0.3350(4) 0.0719(4)
H7 H 0.2506 0.3259 0.0456
C11 C 0.2537(8) 0.3877(4) 0.1185(4)
H8 H 0.2474 0.4146 0.1241
C12 C 0.2439(8) 0.3746(4) 0.0805(4)
C13 C 0.2187(7) 0.4029(3) 0.0477(3)
C14 C 0.1979(7) 0.4251(3) 0.0224(3)
C15 C 0.0179(8) 0.6462(3) 0.0848(3)
H9 H 0.0292 0.6452 0.1127
C16 C -0.0442(7) 0.6779(3) 0.0283(3)
H10 H -0.0761 0.6999 0.0159
C17 C 0.0475(7) 0.6156(3) 0.0639(3)
H11 H 0.0797 0.5942 0.0773
C18 C -0.0180(7) 0.6475(3) 0.0045(3)
H12 H -0.0331 0.6487 -0.0234
C19 C 0.0296(7) 0.6166(3) 0.0227(3)
C20 C 0.0558(7) 0.5845(3) 0.0016(3)
C21 C 0.0777(7) 0.5539(4) -0.0129(3)
C22 C 0.1669(6) 0.4529(3) -0.0076(3)
C23 C 0.1683(6) 0.4448(3) -0.0474(3)
H13 H 0.1908 0.4203 -0.0547
C24 C 0.1381(6) 0.4888(3) 0.0026(3)
H14 H 0.1387 0.4947 0.0296
C25 C 0.1383(7) 0.4713(3) -0.0749(3)
C26 C 0.1080(6) 0.5169(3) -0.0258(3)
C27 C 0.1090(6) 0.5078(3) -0.0641(3)
H15 H 0.0892 0.5266 -0.0839
C28 C 0.7536(7) 0.4200(3) 0.1349(3)
H16 H 0.7664 0.4241 0.1625
C29 C 0.7506(6) 0.3757(3) 0.0823(3)
H17 H 0.7600 0.3503 0.0728
C30 C 0.7179(7) 0.4497(3) 0.1116(3)
H18 H 0.7084 0.4746 0.1223
C31 C 0.7118(7) 0.4059(3) 0.0549(3)
H19 H 0.6989 0.4004 0.0276
C32 C 0.6937(7) 0.4422(4) 0.0683(3)
C33 C 0.6608(7) 0.4718(3) 0.0426(3)
C34 C 0.6329(7) 0.4971(3) 0.0198(3)
C35 C 0.4851(8) 0.7421(4) 0.0704(3)
H20 H 0.5053 0.7475 0.0974
C36 C 0.4078(8) 0.7620(4) 0.0083(4)
H21 H 0.3730 0.7809 -0.0080
C37 C 0.5028(7) 0.7066(3) 0.0550(3)
H22 H 0.5343 0.6875 0.0721
C38 C 0.4274(8) 0.7261(4) -0.0075(4)
H23 H 0.4069 0.7209 -0.0346
C39 C 0.4773(8) 0.6977(4) 0.0164(3)
C40 C 0.4988(7) 0.6615(4) 0.0007(3)
C41 C 0.5156(7) 0.6298(4) -0.0122(3)
C42 C 0.6420(11) 0.4724(5) -0.2317(4)
H24 H 0.6685 0.4475 -0.2348
C43 C 0.5836(12) 0.5307(5) -0.2580(4)
H25 H 0.5713 0.5474 -0.2802
C44 C 0.6248(9) 0.4848(4) -0.1951(4)
H26 H 0.6407 0.4674 -0.1736
C45 C 0.5617(11) 0.5441(4) -0.2217(4)
H27 H 0.5314 0.5684 -0.2198
C46 C 0.5875(9) 0.5193(4) -0.1876(3)
C47 C 0.5734(9) 0.5298(3) -0.1512(4)
C48 C 0.5655(8) 0.5379(3) -0.1165(4)
C49 C 0.5996(7) 0.5266(3) -0.0079(4)
C50 C 0.5705(7) 0.5643(4) 0.0028(3)
H28 H 0.5715 0.5703 0.0297
C51 C 0.5412(6) 0.5919(3) -0.0251(3)
C52 C 0.5377(6) 0.5839(3) -0.0641(3)
H29 H 0.5179 0.6035 -0.0830
C53 C 0.5956(7) 0.5189(3) -0.0487(3)
H30 H 0.6154 0.4943 -0.0569
C54 C 0.5633(7) 0.5469(4) -0.0766(3)
C55 C 0.4813(9) 0.3257(4) 0.2055(4)
C56 C 0.5347(11) 0.3538(4) 0.2298(4)
H31 H 0.5079 0.3660 0.2500
C57 C 0.6205(8) 0.3637(4) 0.2254(4)
H32 H 0.6528 0.3831 0.2419
C58 C 0.6653(9) 0.3455(3) 0.1960(3)
C59 C 0.6161(7) 0.3176(3) 0.1708(3)
C60 C 0.5229(8) 0.3060(4) 0.1760(4)
C61 C 0.4793(9) 0.2757(4) 0.1559(5)
C62 C 0.5253(10) 0.2555(4) 0.1256(5)
H33 H 0.4948 0.2341 0.1114
C63 C 0.6060(8) 0.2666(4) 0.1186(4)
H34 H 0.6317 0.2547 0.0980
C64 C 0.6572(8) 0.2971(3) 0.1415(3)
C65 C 0.3218(11) 0.3880(4) -0.3040(3)
C66 C 0.4057(13) 0.3680(5) -0.2882(4)
H35 H 0.3984 0.3427 -0.2780
C67 C 0.4922(11) 0.3805(4) -0.2861(4)
H36 H 0.5431 0.3654 -0.2734
C68 C 0.5075(10) 0.4168(5) -0.3031(4)
C69 C 0.4295(10) 0.4410(4) -0.3179(3)
C70 C 0.3360(10) 0.4266(4) -0.3187(4)
C71 C 0.2607(11) 0.4486(5) -0.3332(4)
C72 C 0.2769(13) 0.4860(6) -0.3525(4)
H37 H 0.2251 0.5004 -0.3656
C73 C 0.3590(13) 0.4994(4) -0.3519(4)
H38 H 0.3667 0.5238 -0.3640
C74 C 0.4407(12) 0.4783(5) -0.3334(5)
C75 C 0.0464(11) 0.7705(4) 0.0612(5)
C76 C 0.1276(9) 0.7641(3) 0.0892(4)
C77 C 0.0489(12) 0.7951(4) 0.0269(4)
H39 H -0.0057 0.8013 0.0089
C78 C 0.1318(12) 0.8079(4) 0.0225(5)
H40 H 0.1361 0.8206 -0.0016
C79 C 0.2139(11) 0.8048(4) 0.0494(4)
C80 C 0.2115(10) 0.7822(4) 0.0828(4)
C81 C 0.1243(9) 0.7393(4) 0.1225(3)
C82 C 0.2869(9) 0.7533(5) 0.1457(4)
H41 H 0.3409 0.7493 0.1649
C83 C 0.2116(10) 0.7361(4) 0.1518(3)
H42 H 0.2118 0.7213 0.1750
C84 C 0.2969(10) 0.7768(4) 0.1145(4)
C85 C 0.9709(8) 0.3496(4) 0.1368(3)
C86 C 0.9411(8) 0.3106(4) 0.1334(3)
H43 H 0.9243 0.2990 0.1066
C87 C 0.9723(8) 0.3673(3) 0.1749(3)
H44 H 0.9749 0.3963 0.1767
C88 C 0.9239(8) 0.2893(3) 0.1659(3)
H45 H 0.8940 0.2631 0.1614
C89 C 0.9507(8) 0.3464(3) 0.2066(3)
H46 H 0.9395 0.3610 0.2305
C90 C 0.9277(7) 0.3072(3) 0.2033(3)
C91 C 0.9031(9) 0.2860(4) 0.2410(3)
H47 H 0.8618 0.3029 0.2544
C92 C 0.8482(10) 0.2452(4) 0.2252(4)
H48 H 0.8319 0.2308 0.2476
H49 H 0.8890 0.2292 0.2117
H50 H 0.7913 0.2516 0.2069
C93 C 0.9961(10) 0.2782(5) 0.2685(4)
H51 H 1.0243 0.3030 0.2781
H52 H 1.0385 0.2642 0.2540
H53 H 0.9845 0.2624 0.2908
C94 C 0.9853(8) 0.3748(4) 0.1035(4)
H54 H 1.0508 0.3737 0.1001
H55 H 0.9686 0.4017 0.1088
H56 H 0.9459 0.3657 0.0794
C95 C 0.5580(15) 0.8390(7) 0.1073(6)
C96 C 0.5643(13) 0.8418(6) 0.0682(6)
H57 H 0.6035 0.8219 0.0575
C97 C 0.4824(14) 0.8619(6) 0.1197(6)
H58 H 0.4658 0.8571 0.1463
C98 C 0.4938(14) 0.8599(6) 0.0407(6)
H59 H 0.4921 0.8559 0.0119
C99 C 0.4280(15) 0.8862(6) 0.0944(7)
H60 H 0.3708 0.8966 0.1035
C100 C 0.4260(16) 0.8849(6) 0.0545(7)
C101 C 0.3421(17) 0.9078(6) 0.0273(7)
H61 H 0.2786 0.9031 0.0339
C102 C 0.361(2) 0.8893(9) -0.0168(8)
H62 H 0.3154 0.9006 -0.0380
H63 H 0.3533 0.8610 -0.0168
H64 H 0.4239 0.8959 -0.0210
C103 C 0.377(3) 0.9518(6) 0.0314(10)
H65 H 0.3674 0.9622 0.0568
H66 H 0.3416 0.9674 0.0103
H67 H 0.4434 0.9529 0.0295
C104 C 0.6236(19) 0.8186(8) 0.1382(7)
H68 H 0.6788 0.8349 0.1462
H69 H 0.6425 0.7938 0.1279
H70 H 0.5929 0.8137 0.1610
C105 C 0.0499(13) 0.3310(5) -0.3161(5)
C106 C -0.0120(12) 0.3609(6) -0.3137(5)
H71 H -0.0352 0.3651 -0.2883
C107 C 0.0953(13) 0.3315(5) -0.3508(5)
H72 H 0.1503 0.3141 -0.3511
C108 C -0.0282(13) 0.3898(6) -0.3422(5)
H73 H -0.0625 0.4137 -0.3361
C109 C 0.0772(13) 0.3603(6) -0.3796(5)
H74 H 0.1204 0.3628 -0.3991
C110 C 0.0203(14) 0.3912(6) -0.3746(5)
C111 C 0.0122(17) 0.4254(7) -0.4068(6)
H75 H 0.0719 0.4313 -0.4165
C112 C -0.0339(19) 0.4638(7) -0.3868(7)
H76 H 0.0145 0.4768 -0.3682
H77 H -0.0839 0.4549 -0.3731
H78 H -0.0594 0.4822 -0.4076
C113 C -0.0665(18) 0.4072(7) -0.4392(6)
H79 H -0.0868 0.4268 -0.4596
H80 H -0.1196 0.3993 -0.4270
H81 H -0.0414 0.3845 -0.4512
C114 C 0.0751(15) 0.3027(5) -0.2831(5)
H82 H 0.0328 0.2803 -0.2870
H83 H 0.0696 0.3154 -0.2581
H84 H 0.1394 0.2938 -0.2824
C115 C -0.2235(9) 0.6939(3) 0.0876(4)
C116 C -0.1721(9) 0.6761(4) 0.1227(3)
H85 H -0.1564 0.6477 0.1225
C117 C -0.2279(9) 0.7358(3) 0.0852(4)
H86 H -0.2511 0.7495 0.0600
C118 C -0.1336(9) 0.6987(4) 0.1538(4)
H87 H -0.0884 0.6857 0.1748
C119 C -0.1809(9) 0.7570(4) 0.1204(4)
H88 H -0.1717 0.7857 0.1184
C120 C -0.1388(10) 0.7373(4) 0.1556(4)
C121 C -0.0889(12) 0.7633(5) 0.1886(4)
H89 H -0.0409 0.7457 0.2035
C122 C -0.1668(13) 0.7667(6) 0.2167(5)
H90 H -0.1426 0.7826 0.2397
H91 H -0.1823 0.7407 0.2253
H92 H -0.2229 0.7790 0.2022
C123 C -0.0320(15) 0.7970(5) 0.1764(6)
H93 H 0.0147 0.7869 0.1615
H94 H -0.0008 0.8105 0.1999
H95 H -0.0733 0.8151 0.1600
C124 C -0.2585(9) 0.6695(3) 0.0522(3)
H96 H -0.3234 0.6622 0.0526
H97 H -0.2202 0.6460 0.0526
H98 H -0.2546 0.6845 0.0284
C125 C 0.2317(12) 0.2850(6) 0.2369(5)
C126 C 0.2844(12) 0.2494(6) 0.2418(5)
H99 H 0.3383 0.2465 0.2637
C127 C 0.1597(10) 0.2904(5) 0.2017(5)
H100 H 0.1255 0.3156 0.1962
C128 C 0.2699(12) 0.2231(5) 0.2117(6)
H101 H 0.3212 0.2037 0.2117
C129 C 0.1623(10) 0.2614(5) 0.1714(5)
H102 H 0.1296 0.2669 0.1441
C130 C 0.2134(11) 0.2258(5) 0.1789(5)
C131 C 0.2000(12) 0.1990(5) 0.1432(6)
H103 H 0.1965 0.2162 0.1196
C132 C 0.2901(12) 0.1720(6) 0.1438(6)
H104 H 0.3458 0.1884 0.1461
H105 H 0.2837 0.1569 0.1195
H106 H 0.2957 0.1542 0.1663
C133 C 0.1041(12) 0.1758(6) 0.1385(7)
H107 H 0.0526 0.1942 0.1384
H108 H 0.1055 0.1576 0.1604
H109 H 0.0951 0.1613 0.1137
C134 C 0.2356(13) 0.3204(6) 0.2619(6)
H110 H 0.2003 0.3159 0.2833
H111 H 0.2086 0.3425 0.2460
H112 H 0.3007 0.3262 0.2728
C135 C 0.7926(13) 0.4857(8) -0.3013(7)
C136 C 0.7548(12) 0.5215(7) -0.3198(6)
H113 H 0.7562 0.5469 -0.3056
C137 C 0.7918(13) 0.4466(7) -0.3154(6)
H114 H 0.8126 0.4236 -0.2984
C138 C 0.7051(15) 0.5157(8) -0.3591(7)
H115 H 0.6646 0.5373 -0.3716
C139 C 0.7290(14) 0.4438(8) -0.3541(6)
H116 H 0.7055 0.4177 -0.3639
C140 C 0.6870(18) 0.4782(10) -0.3734(7)
C141 C 0.6258(18) 0.4677(8) -0.4145(6)
H117 H 0.5753 0.4877 -0.4200
C142 C 0.5784(19) 0.4273(8) -0.4112(7)
H118 H 0.5437 0.4277 -0.3892
H119 H 0.6262 0.4070 -0.4069
H120 H 0.5354 0.4219 -0.4356
C143 C 0.686(2) 0.4703(10) -0.4480(7)
H121 H 0.7133 0.4964 -0.4482
H122 H 0.6466 0.4653 -0.4734
H123 H 0.7360 0.4509 -0.4435
C144 C 0.8355(17) 0.4899(7) -0.2563(6)
H124 H 0.9028 0.4942 -0.2536
H125 H 0.8236 0.4660 -0.2424
H126 H 0.8066 0.5120 -0.2450
S1 S 0.6108(2) 0.67937(10) 0.16593(9)
F1 F 0.4958(8) 0.6258(3) 0.1837(3)
F2 F 0.4333(7) 0.6731(3) 0.1464(3)
F3 F 0.4748(5) 0.6844(3) 0.2060(2)
O13 O 0.6231(6) 0.6550(2) 0.1326(2)
O14 O 0.6729(6) 0.6717(3) 0.2016(2)
O15 O 0.5935(7) 0.7207(2) 0.1546(2)
C145 C 0.4964(11) 0.6636(7) 0.1773(5)
S2 S 0.0133(15) 0.9005(6) 0.1476(6)
F4 F -0.049(2) 0.8464(10) 0.1017(10)
F5 F 0.101(2) 0.8594(10) 0.1024(10)
F6 F 0.075(3) 0.8315(9) 0.1529(10)
O16 O -0.066(2) 0.8933(11) 0.1694(10)
O17 O -0.018(3) 0.9206(10) 0.1094(9)
O18 O 0.110(2) 0.9027(11) 0.1711(10)
C146 C 0.033(2) 0.8524(9) 0.1236(9)
S3 S -0.2890(4) 0.77462(15) -0.02356(16)
F7 F -0.1804(9) 0.8182(3) 0.0236(4)
F8 F -0.1637(10) 0.8243(3) -0.0352(4)
F9 F -0.2875(9) 0.8517(4) -0.0119(6)
O19 O -0.2118(8) 0.7452(3) -0.0187(3)
O20 O -0.3383(10) 0.7800(5) -0.0610(4)
O21 O -0.3487(8) 0.7715(3) 0.0074(3)
C147 C -0.2297(16) 0.8179(8) -0.0129(7)
S4 S -0.1822(4) 0.20068(13) 0.09326(14)
F10 F -0.1279(12) 0.1401(3) 0.0593(3)
F11 F -0.0866(10) 0.1388(3) 0.1182(3)
F12 F -0.2159(8) 0.1253(3) 0.1018(3)
O22 O -0.1013(9) 0.2218(4) 0.0818(4)
O23 O -0.1957(8) 0.2072(3) 0.1331(3)
O24 O -0.2613(9) 0.1984(3) 0.0668(4)
C148 C -0.1510(19) 0.1492(7) 0.0904(8)
S5 S 0.8942(3) 0.36922(17) -0.21072(13)
F13 F 0.7334(10) 0.3448(5) -0.2160(5)
F14 F 0.7456(11) 0.3999(4) -0.1902(4)
F15 F 0.7907(6) 0.3528(3) -0.1581(3)
O25 O 0.9629(8) 0.3812(4) -0.1768(4)
O26 O 0.8805(9) 0.3959(4) -0.2416(3)
O27 O 0.9040(13) 0.3268(5) -0.2213(4)
C149 C 0.7877(12) 0.3691(7) -0.1892(5)
S6 S 1.0148(14) 0.5787(6) -0.2858(6)
F16 F 1.1569(19) 0.5561(10) -0.2908(9)
F17 F 1.079(2) 0.5574(10) -0.3479(8)
F18 F 1.049(2) 0.5126(8) -0.3108(10)
O28 O 1.033(3) 0.5563(10) -0.2490(8)
O29 O 0.934(2) 0.5952(10) -0.3039(10)
O30 O 1.095(2) 0.6110(10) -0.2818(11)
C150 C 1.073(2) 0.5457(9) -0.3150(9)
O31 O 0.7357(7) 0.3497(3) -0.0265(3)
C151 C 0.7726(13) 0.3118(5) -0.0285(6)
H127 H 0.8233 0.3121 -0.0445
H128 H 0.7233 0.2939 -0.0412
C152 C 0.8119(10) 0.2971(4) 0.0150(5)
H129 H 0.8374 0.2708 0.0138
H130 H 0.7613 0.2968 0.0305
H131 H 0.8612 0.3148 0.0272
C153 C 0.6993(11) 0.3664(7) -0.0639(4)
H132 H 0.6435 0.3516 -0.0760
H133 H 0.7465 0.3643 -0.0814
C154 C 0.6725(13) 0.4102(4) -0.0597(5)
H134 H 0.6492 0.4211 -0.0857
H135 H 0.7276 0.4249 -0.0476
H136 H 0.6240 0.4122 -0.0432
loop_
_geom_bond_atom_site_label_1
_geom_bond_atom_site_label_2
_geom_bond_site_symmetry_1
_geom_bond_site_symmetry_2
Ru1 O7 1_555 1_555
Ru2 O9 1_555 1_555
Ru3 O5 1_555 1_555
Ru4 O1 1_555 1_555
Ru5 O3 1_555 1_555
Ru6 O11 1_555 1_555
O1 C65 1_555 1_555
O2 Ru4 1_555 1_555
O3 C68 1_555 1_555
O4 Ru5 1_555 1_555
O5 C55 1_555 1_555
O6 Ru3 1_555 1_555
O7 C58 1_555 1_555
O8 Ru1 1_555 1_555
O9 C75 1_555 1_555
O10 Ru2 1_555 1_555
O11 C79 1_555 1_555
O12 Ru6 1_555 1_555
N1 Ru4 1_555 1_555
N2 Ru3 1_555 1_555
N3 Ru2 1_555 1_555
N4 Ru1 1_555 1_555
N5 Ru6 1_555 1_555
N6 Ru5 1_555 1_555
C1 N1 1_555 1_555
H1 C1 1_555 1_555
C2 N1 1_555 1_555
H2 C2 1_555 1_555
C3 C2 1_555 1_555
H3 C3 1_555 1_555
C4 C1 1_555 1_555
H4 C4 1_555 1_555
C5 C3 1_555 1_555
C6 C5 1_555 1_555
C7 C6 1_555 1_555
C8 N2 1_555 1_555
H5 C8 1_555 1_555
C9 N2 1_555 1_555
H6 C9 1_555 1_555
C10 C8 1_555 1_555
H7 C10 1_555 1_555
C11 C9 1_555 1_555
H8 C11 1_555 1_555
C12 C10 1_555 1_555
C13 C12 1_555 1_555
C14 C13 1_555 1_555
C15 N3 1_555 1_555
H9 C15 1_555 1_555
C16 N3 1_555 1_555
H10 C16 1_555 1_555
C17 C15 1_555 1_555
H11 C17 1_555 1_555
C18 C16 1_555 1_555
H12 C18 1_555 1_555
C19 C17 1_555 1_555
C20 C19 1_555 1_555
C21 C20 1_555 1_555
C22 C14 1_555 1_555
C23 C22 1_555 1_555
H13 C23 1_555 1_555
C24 C22 1_555 1_555
H14 C24 1_555 1_555
C25 C7 1_555 1_555
C26 C21 1_555 1_555
C27 C25 1_555 1_555
H15 C27 1_555 1_555
C28 N4 1_555 1_555
H16 C28 1_555 1_555
C29 N4 1_555 1_555
H17 C29 1_555 1_555
C30 C28 1_555 1_555
H18 C30 1_555 1_555
C31 C29 1_555 1_555
H19 C31 1_555 1_555
C32 C30 1_555 1_555
C33 C32 1_555 1_555
C34 C33 1_555 1_555
C35 N5 1_555 1_555
H20 C35 1_555 1_555
C36 N5 1_555 1_555
H21 C36 1_555 1_555
C37 C35 1_555 1_555
H22 C37 1_555 1_555
C38 C36 1_555 1_555
H23 C38 1_555 1_555
C39 C37 1_555 1_555
C40 C39 1_555 1_555
C41 C40 1_555 1_555
C42 N6 1_555 1_555
H24 C42 1_555 1_555
C43 N6 1_555 1_555
H25 C43 1_555 1_555
C44 C42 1_555 1_555
H26 C44 1_555 1_555
C45 C43 1_555 1_555
H27 C45 1_555 1_555
C46 C44 1_555 1_555
C47 C46 1_555 1_555
C48 C47 1_555 1_555
C49 C34 1_555 1_555
C50 C49 1_555 1_555
H28 C50 1_555 1_555
C51 C41 1_555 1_555
C52 C51 1_555 1_555
H29 C52 1_555 1_555
C53 C49 1_555 1_555
H30 C53 1_555 1_555
C54 C48 1_555 1_555
C55 C56 1_555 1_555
C56 H31 1_555 1_555
C57 C56 1_555 1_555
H32 C57 1_555 1_555
C58 C57 1_555 1_555
C59 C58 1_555 1_555
C60 C55 1_555 1_555
C61 O6 1_555 1_555
C62 C61 1_555 1_555
H33 C62 1_555 1_555
C63 C62 1_555 1_555
H34 C63 1_555 1_555
C64 O8 1_555 1_555
C65 C66 1_555 1_555
C66 H35 1_555 1_555
C67 C66 1_555 1_555
H36 C67 1_555 1_555
C68 C67 1_555 1_555
C69 C68 1_555 1_555
C70 C65 1_555 1_555
C71 O2 1_555 1_555
C72 C71 1_555 1_555
H37 C72 1_555 1_555
C73 C72 1_555 1_555
H38 C73 1_555 1_555
C74 O4 1_555 1_555
C75 C76 1_555 1_555
C76 C80 1_555 1_555
C77 C75 1_555 1_555
H39 C77 1_555 1_555
C78 C77 1_555 1_555
H40 C78 1_555 1_555
C79 C78 1_555 1_555
C80 C79 1_555 1_555
C81 O10 1_555 1_555
C82 H41 1_555 1_555
C83 C81 1_555 1_555
H42 C83 1_555 1_555
C84 O12 1_555 1_555
C85 Ru1 1_555 1_555
C86 Ru1 1_555 1_555
H43 C86 1_555 1_555
C87 Ru1 1_555 1_555
H44 C87 1_555 1_555
C88 Ru1 1_555 1_555
H45 C88 1_555 1_555
C89 Ru1 1_555 1_555
H46 C89 1_555 1_555
C90 Ru1 1_555 1_555
C91 C90 1_555 1_555
H47 C91 1_555 1_555
C92 C91 1_555 1_555
H48 C92 1_555 1_555
H49 C92 1_555 1_555
H50 C92 1_555 1_555
C93 C91 1_555 1_555
H51 C93 1_555 1_555
H52 C93 1_555 1_555
H53 C93 1_555 1_555
C94 C85 1_555 1_555
H54 C94 1_555 1_555
H55 C94 1_555 1_555
H56 C94 1_555 1_555
C95 Ru6 1_555 1_555
C96 Ru6 1_555 1_555
H57 C96 1_555 1_555
C97 Ru6 1_555 1_555
H58 C97 1_555 1_555
C98 Ru6 1_555 1_555
H59 C98 1_555 1_555
C99 Ru6 1_555 1_555
H60 C99 1_555 1_555
C100 Ru6 1_555 1_555
C101 C100 1_555 1_555
H61 C101 1_555 1_555
C102 C101 1_555 1_555
H62 C102 1_555 1_555
H63 C102 1_555 1_555
H64 C102 1_555 1_555
C103 C101 1_555 1_555
H65 C103 1_555 1_555
H66 C103 1_555 1_555
H67 C103 1_555 1_555
C104 C95 1_555 1_555
H68 C104 1_555 1_555
H69 C104 1_555 1_555
H70 C104 1_555 1_555
C105 Ru4 1_555 1_555
C106 Ru4 1_555 1_555
H71 C106 1_555 1_555
C107 Ru4 1_555 1_555
H72 C107 1_555 1_555
C108 Ru4 1_555 1_555
H73 C108 1_555 1_555
C109 Ru4 1_555 1_555
H74 C109 1_555 1_555
C110 Ru4 1_555 1_555
C111 C110 1_555 1_555
H75 C111 1_555 1_555
C112 C111 1_555 1_555
H76 C112 1_555 1_555
H77 C112 1_555 1_555
H78 C112 1_555 1_555
C113 C111 1_555 1_555
H79 C113 1_555 1_555
H80 C113 1_555 1_555
H81 C113 1_555 1_555
C114 C105 1_555 1_555
H82 C114 1_555 1_555
H83 C114 1_555 1_555
H84 C114 1_555 1_555
C115 Ru2 1_555 1_555
C116 Ru2 1_555 1_555
H85 C116 1_555 1_555
C117 Ru2 1_555 1_555
H86 C117 1_555 1_555
C118 Ru2 1_555 1_555
H87 C118 1_555 1_555
C119 Ru2 1_555 1_555
H88 C119 1_555 1_555
C120 Ru2 1_555 1_555
C121 C120 1_555 1_555
H89 C121 1_555 1_555
C122 C121 1_555 1_555
H90 C122 1_555 1_555
H91 C122 1_555 1_555
H92 C122 1_555 1_555
C123 C121 1_555 1_555
H93 C123 1_555 1_555
H94 C123 1_555 1_555
H95 C123 1_555 1_555
C124 C115 1_555 1_555
H96 C124 1_555 1_555
H97 C124 1_555 1_555
H98 C124 1_555 1_555
C125 Ru3 1_555 1_555
C126 Ru3 1_555 1_555
H99 C126 1_555 1_555
C127 Ru3 1_555 1_555
H100 C127 1_555 1_555
C128 Ru3 1_555 1_555
H101 C128 1_555 1_555
C129 Ru3 1_555 1_555
H102 C129 1_555 1_555
C130 Ru3 1_555 1_555
C131 C130 1_555 1_555
H103 C131 1_555 1_555
C132 C131 1_555 1_555
H104 C132 1_555 1_555
H105 C132 1_555 1_555
H106 C132 1_555 1_555
C133 C131 1_555 1_555
H107 C133 1_555 1_555
H108 C133 1_555 1_555
H109 C133 1_555 1_555
C134 C125 1_555 1_555
H110 C134 1_555 1_555
H111 C134 1_555 1_555
H112 C134 1_555 1_555
C135 Ru5 1_555 1_555
C136 Ru5 1_555 1_555
H113 C136 1_555 1_555
C137 Ru5 1_555 1_555
H114 C137 1_555 1_555
C138 Ru5 1_555 1_555
H115 C138 1_555 1_555
C139 Ru5 1_555 1_555
H116 C139 1_555 1_555
C140 Ru5 1_555 1_555
C141 C140 1_555 1_555
H117 C141 1_555 1_555
C142 C141 1_555 1_555
H118 C142 1_555 1_555
H119 C142 1_555 1_555
H120 C142 1_555 1_555
C143 C141 1_555 1_555
H121 C143 1_555 1_555
H122 C143 1_555 1_555
H123 C143 1_555 1_555
C144 C135 1_555 1_555
H124 C144 1_555 1_555
H125 C144 1_555 1_555
H126 C144 1_555 1_555
S1 O13 1_555 1_555
F1 C145 1_555 1_555
F2 C145 1_555 1_555
F3 C145 1_555 1_555
O14 S1 1_555 1_555
O15 S1 1_555 1_555
C145 S1 1_555 1_555
S2 O16 1_555 1_555
F4 C146 1_555 1_555
F5 C146 1_555 1_555
F6 C146 1_555 1_555
O17 S2 1_555 1_555
O18 S2 1_555 1_555
C146 S2 1_555 1_555
S3 O19 1_555 1_555
F7 C147 1_555 1_555
F8 C147 1_555 1_555
F9 C147 1_555 1_555
O20 S3 1_555 1_555
O21 S3 1_555 1_555
C147 S3 1_555 1_555
S4 O22 1_555 1_555
F10 C148 1_555 1_555
F11 C148 1_555 1_555
F12 C148 1_555 1_555
O23 S4 1_555 1_555
O24 S4 1_555 1_555
C148 S4 1_555 1_555
S5 O25 1_555 1_555
F13 C149 1_555 1_555
F14 C149 1_555 1_555
F15 C149 1_555 1_555
O26 S5 1_555 1_555
O27 S5 1_555 1_555
C149 S5 1_555 1_555
S6 O28 1_555 1_555
F16 C150 1_555 1_555
F17 C150 1_555 1_555
F18 C150 1_555 1_555
O29 S6 1_555 1_555
O30 S6 1_555 1_555
C150 S6 1_555 1_555
O31 C151 1_555 1_555
C151 H127 1_555 1_555
H128 C151 1_555 1_555
C152 C151 1_555 1_555
H129 C152 1_555 1_555
H130 C152 1_555 1_555
H131 C152 1_555 1_555
C153 O31 1_555 1_555
H132 C153 1_555 1_555
H133 C153 1_555 1_555
C154 C153 1_555 1_555
H134 C154 1_555 1_555
H135 C154 1_555 1_555
H136 C154 1_555 1_555
C4 C5 1_555 1_555
C11 C12 1_555 1_555
C18 C19 1_555 1_555
C23 C25 1_555 1_555
C24 C26 1_555 1_555
C26 C27 1_555 1_555
C31 C32 1_555 1_555
C38 C39 1_555 1_555
C45 C46 1_555 1_555
C50 C51 1_555 1_555
C52 C54 1_555 1_555
C53 C54 1_555 1_555
C59 C60 1_555 1_555
C59 C64 1_555 1_555
C60 C61 1_555 1_555
C63 C64 1_555 1_555
C69 C70 1_555 1_555
C69 C74 1_555 1_555
C70 C71 1_555 1_555
C73 C74 1_555 1_555
C76 C81 1_555 1_555
C80 C84 1_555 1_555
C82 C83 1_555 1_555
C82 C84 1_555 1_555
C85 C86 1_555 1_555
C85 C87 1_555 1_555
C86 C88 1_555 1_555
C87 C89 1_555 1_555
C88 C90 1_555 1_555
C89 C90 1_555 1_555
C95 C96 1_555 1_555
C95 C97 1_555 1_555
C96 C98 1_555 1_555
C97 C99 1_555 1_555
C98 C100 1_555 1_555
C99 C100 1_555 1_555
C105 C106 1_555 1_555
C105 C107 1_555 1_555
C106 C108 1_555 1_555
C107 C109 1_555 1_555
C108 C110 1_555 1_555
C109 C110 1_555 1_555
C115 C116 1_555 1_555
C115 C117 1_555 1_555
C116 C118 1_555 1_555
C117 C119 1_555 1_555
C118 C120 1_555 1_555
C119 C120 1_555 1_555
C125 C126 1_555 1_555
C125 C127 1_555 1_555
C126 C128 1_555 1_555
C127 C129 1_555 1_555
C128 C130 1_555 1_555
C129 C130 1_555 1_555
C135 C136 1_555 1_555
C135 C137 1_555 1_555
C136 C138 1_555 1_555
C137 C139 1_555 1_555
C138 C140 1_555 1_555
C139 C140 1_555 1_555

#END
