# generated using pymatgen
data_H136Ru6C154S6N6O31F18
_symmetry_space_group_name_H-M   'P 1'
_cell_length_a   14.54800000
_cell_length_b   34.32400000
_cell_length_c   34.51800000
_cell_angle_alpha   90.00000000
_cell_angle_beta   99.43000000
_cell_angle_gamma   90.00000000
_symmetry_Int_Tables_number   1
_chemical_formula_structural   H136Ru6C154S6N6O31F18
_chemical_formula_sum   'H544 Ru24 C616 S24 N24 O124 F72'
_cell_volume   17003.48569744
_cell_formula_units_Z   4
loop_
 _symmetry_equiv_pos_site_id
 _symmetry_equiv_pos_as_xyz
  1  'x, y, z'
loop_
 _atom_site_type_symbol
 _atom_site_label
 _atom_site_symmetry_multiplicity
 _atom_site_fract_x
 _atom_site_fract_y
 _atom_site_fract_z
 _atom_site_occupancy
  H  H1  1  0.197500  0.367000  0.760800  1
  H  H2  1  0.302500  0.867000  0.739200  1
  H  H3  1  0.802500  0.633000  0.239200  1
  H  H4  1  0.697500  0.133000  0.260800  1
  H  H5  1  0.040700  0.456600  0.721200  1
  H  H6  1  0.459300  0.956600  0.778800  1
  H  H7  1  0.959300  0.543400  0.278800  1
  H  H8  1  0.540700  0.043400  0.221200  1
  H  H9  1  0.068100  0.484500  0.784000  1
  H  H10  1  0.431900  0.984500  0.716000  1
  H  H11  1  0.931900  0.515500  0.216000  1
  H  H12  1  0.568100  0.015500  0.284000  1
  H  H13  1  0.226300  0.392300  0.824600  1
  H  H14  1  0.273700  0.892300  0.675400  1
  H  H15  1  0.773700  0.607700  0.175400  1
  H  H16  1  0.726300  0.107700  0.324600  1
  H  H17  1  0.282500  0.281800  0.100800  1
  H  H18  1  0.217500  0.781800  0.399200  1
  H  H19  1  0.717500  0.718200  0.899200  1
  H  H20  1  0.782500  0.218200  0.600800  1
  H  H21  1  0.280200  0.369400  0.174700  1
  H  H22  1  0.219800  0.869400  0.325300  1
  H  H23  1  0.719800  0.630600  0.825300  1
  H  H24  1  0.780200  0.130600  0.674700  1
  H  H25  1  0.250600  0.325900  0.045600  1
  H  H26  1  0.249400  0.825900  0.454400  1
  H  H27  1  0.749400  0.674100  0.954400  1
  H  H28  1  0.750600  0.174100  0.545600  1
  H  H29  1  0.247400  0.414600  0.124100  1
  H  H30  1  0.252600  0.914600  0.375900  1
  H  H31  1  0.752600  0.585400  0.875900  1
  H  H32  1  0.747400  0.085400  0.624100  1
  H  H33  1  0.029200  0.645200  0.112700  1
  H  H34  1  0.470800  0.145200  0.387300  1
  H  H35  1  0.970800  0.354800  0.887300  1
  H  H36  1  0.529200  0.854800  0.612700  1
  H  H37  1  0.923900  0.699900  0.015900  1
  H  H38  1  0.576100  0.199900  0.484100  1
  H  H39  1  0.076100  0.300100  0.984100  1
  H  H40  1  0.423900  0.800100  0.515900  1
  H  H41  1  0.079700  0.594200  0.077300  1
  H  H42  1  0.420300  0.094200  0.422700  1
  H  H43  1  0.920300  0.405800  0.922700  1
  H  H44  1  0.579700  0.905800  0.577300  1
  H  H45  1  0.966900  0.648700  0.976600  1
  H  H46  1  0.533100  0.148700  0.523400  1
  H  H47  1  0.033100  0.351300  0.023400  1
  H  H48  1  0.466900  0.851300  0.476600  1
  H  H49  1  0.190800  0.420300  0.945300  1
  H  H50  1  0.309200  0.920300  0.554700  1
  H  H51  1  0.809200  0.579700  0.054700  1
  H  H52  1  0.690800  0.079700  0.445300  1
  H  H53  1  0.138700  0.494700  0.029600  1
  H  H54  1  0.361300  0.994700  0.470400  1
  H  H55  1  0.861300  0.505300  0.970400  1
  H  H56  1  0.638700  0.005300  0.529600  1
  H  H57  1  0.089200  0.526600  0.916100  1
  H  H58  1  0.410800  0.026600  0.583900  1
  H  H59  1  0.910800  0.473400  0.083900  1
  H  H60  1  0.589200  0.973400  0.416100  1
  H  H61  1  0.766400  0.424100  0.162500  1
  H  H62  1  0.733600  0.924100  0.337500  1
  H  H63  1  0.233600  0.575900  0.837500  1
  H  H64  1  0.266400  0.075900  0.662500  1
  H  H65  1  0.760000  0.350300  0.072800  1
  H  H66  1  0.740000  0.850300  0.427200  1
  H  H67  1  0.240000  0.649700  0.927200  1
  H  H68  1  0.260000  0.149700  0.572800  1
  H  H69  1  0.708400  0.474600  0.122300  1
  H  H70  1  0.791600  0.974600  0.377700  1
  H  H71  1  0.291600  0.525400  0.877700  1
  H  H72  1  0.208400  0.025400  0.622300  1
  H  H73  1  0.698900  0.400400  0.027600  1
  H  H74  1  0.801100  0.900400  0.472400  1
  H  H75  1  0.301100  0.599600  0.972400  1
  H  H76  1  0.198900  0.099600  0.527600  1
  H  H77  1  0.505300  0.747500  0.097400  1
  H  H78  1  0.994700  0.247500  0.402600  1
  H  H79  1  0.494700  0.252500  0.902600  1
  H  H80  1  0.005300  0.752500  0.597400  1
  H  H81  1  0.373000  0.780900  0.992000  1
  H  H82  1  0.127000  0.280900  0.508000  1
  H  H83  1  0.627000  0.219100  0.008000  1
  H  H84  1  0.873000  0.719100  0.492000  1
  H  H85  1  0.534300  0.687500  0.072100  1
  H  H86  1  0.965700  0.187500  0.427900  1
  H  H87  1  0.465700  0.312500  0.927900  1
  H  H88  1  0.034300  0.812500  0.572100  1
  H  H89  1  0.406900  0.720900  0.965400  1
  H  H90  1  0.093100  0.220900  0.534600  1
  H  H91  1  0.593100  0.279100  0.034600  1
  H  H92  1  0.906900  0.779100  0.465400  1
  H  H93  1  0.668500  0.447500  0.765200  1
  H  H94  1  0.831500  0.947500  0.734800  1
  H  H95  1  0.331500  0.552500  0.234800  1
  H  H96  1  0.168500  0.052500  0.265200  1
  H  H97  1  0.571300  0.547400  0.719800  1
  H  H98  1  0.928700  0.047400  0.780200  1
  H  H99  1  0.428700  0.452600  0.280200  1
  H  H100  1  0.071300  0.952600  0.219800  1
  H  H101  1  0.640700  0.467400  0.826400  1
  H  H102  1  0.859300  0.967400  0.673600  1
  H  H103  1  0.359300  0.532600  0.173600  1
  H  H104  1  0.140700  0.032600  0.326400  1
  H  H105  1  0.531400  0.568400  0.780200  1
  H  H106  1  0.968600  0.068400  0.719800  1
  H  H107  1  0.468600  0.431600  0.219800  1
  H  H108  1  0.031400  0.931600  0.280200  1
  H  H109  1  0.571500  0.570300  0.029700  1
  H  H110  1  0.928500  0.070300  0.470300  1
  H  H111  1  0.428500  0.429700  0.970300  1
  H  H112  1  0.071500  0.929700  0.529700  1
  H  H113  1  0.517900  0.603500  0.917000  1
  H  H114  1  0.982100  0.103500  0.583000  1
  H  H115  1  0.482100  0.396500  0.083000  1
  H  H116  1  0.017900  0.896500  0.417000  1
  H  H117  1  0.615400  0.494300  0.943100  1
  H  H118  1  0.884600  0.994300  0.556900  1
  H  H119  1  0.384600  0.505700  0.056900  1
  H  H120  1  0.115400  0.005700  0.443100  1
  H  H121  1  0.507900  0.366000  0.250000  1
  H  H122  1  0.992100  0.866000  0.250000  1
  H  H123  1  0.492100  0.634000  0.750000  1
  H  H124  1  0.007900  0.134000  0.750000  1
  H  H125  1  0.652800  0.383100  0.241900  1
  H  H126  1  0.847200  0.883100  0.258100  1
  H  H127  1  0.347200  0.616900  0.758100  1
  H  H128  1  0.152800  0.116900  0.741900  1
  H  H129  1  0.494800  0.234100  0.111400  1
  H  H130  1  0.005200  0.734100  0.388600  1
  H  H131  1  0.505200  0.765900  0.888600  1
  H  H132  1  0.994800  0.265900  0.611400  1
  H  H133  1  0.631700  0.254700  0.098000  1
  H  H134  1  0.868300  0.754700  0.402000  1
  H  H135  1  0.368300  0.745300  0.902000  1
  H  H136  1  0.131700  0.245300  0.598000  1
  H  H137  1  0.398400  0.342700  0.722000  1
  H  H138  1  0.101600  0.842700  0.778000  1
  H  H139  1  0.601600  0.657300  0.278000  1
  H  H140  1  0.898400  0.157300  0.222000  1
  H  H141  1  0.543100  0.365400  0.726600  1
  H  H142  1  0.956900  0.865400  0.773400  1
  H  H143  1  0.456900  0.634600  0.273400  1
  H  H144  1  0.043100  0.134600  0.226600  1
  H  H145  1  0.225100  0.500400  0.634400  1
  H  H146  1  0.274900  0.000400  0.865600  1
  H  H147  1  0.774900  0.499600  0.365600  1
  H  H148  1  0.725100  0.999600  0.134400  1
  H  H149  1  0.366700  0.523800  0.636000  1
  H  H150  1  0.133300  0.023800  0.864000  1
  H  H151  1  0.633300  0.476200  0.364000  1
  H  H152  1  0.866700  0.976200  0.136000  1
  H  H153  1  0.994300  0.801300  0.008900  1
  H  H154  1  0.505700  0.301300  0.491100  1
  H  H155  1  0.005700  0.198700  0.991100  1
  H  H156  1  0.494300  0.698700  0.508900  1
  H  H157  1  0.136100  0.820600  0.998400  1
  H  H158  1  0.363900  0.320600  0.501600  1
  H  H159  1  0.863900  0.179400  0.001600  1
  H  H160  1  0.636100  0.679400  0.498400  1
  H  H161  1  0.340900  0.749300  0.164900  1
  H  H162  1  0.159100  0.249300  0.335100  1
  H  H163  1  0.659100  0.250700  0.835100  1
  H  H164  1  0.840900  0.750700  0.664900  1
  H  H165  1  0.211800  0.721300  0.175000  1
  H  H166  1  0.288200  0.221300  0.325000  1
  H  H167  1  0.788200  0.278700  0.825000  1
  H  H168  1  0.711800  0.778700  0.675000  1
  H  H169  1  0.924300  0.299000  0.106600  1
  H  H170  1  0.575700  0.799000  0.393400  1
  H  H171  1  0.075700  0.701000  0.893400  1
  H  H172  1  0.424300  0.201000  0.606600  1
  H  H173  1  0.974900  0.396300  0.176700  1
  H  H174  1  0.525100  0.896300  0.323300  1
  H  H175  1  0.025100  0.603700  0.823300  1
  H  H176  1  0.474900  0.103700  0.676700  1
  H  H177  1  0.894000  0.263100  0.161400  1
  H  H178  1  0.606000  0.763100  0.338600  1
  H  H179  1  0.106000  0.736900  0.838600  1
  H  H180  1  0.394000  0.236900  0.661400  1
  H  H181  1  0.939500  0.361000  0.230500  1
  H  H182  1  0.560500  0.861000  0.269500  1
  H  H183  1  0.060500  0.639000  0.769500  1
  H  H184  1  0.439500  0.139000  0.730500  1
  H  H185  1  0.861800  0.302900  0.254400  1
  H  H186  1  0.638200  0.802900  0.245600  1
  H  H187  1  0.138200  0.697100  0.745600  1
  H  H188  1  0.361800  0.197100  0.754400  1
  H  H189  1  0.831900  0.230800  0.247600  1
  H  H190  1  0.668100  0.730800  0.252400  1
  H  H191  1  0.168100  0.769200  0.752400  1
  H  H192  1  0.331900  0.269200  0.747600  1
  H  H193  1  0.889000  0.229200  0.211700  1
  H  H194  1  0.611000  0.729200  0.288300  1
  H  H195  1  0.111000  0.770800  0.788300  1
  H  H196  1  0.389000  0.270800  0.711700  1
  H  H197  1  0.791300  0.251600  0.206900  1
  H  H198  1  0.708700  0.751600  0.293100  1
  H  H199  1  0.208700  0.748400  0.793100  1
  H  H200  1  0.291300  0.248400  0.706900  1
  H  H201  1  0.024300  0.303000  0.278100  1
  H  H202  1  0.475700  0.803000  0.221900  1
  H  H203  1  0.975700  0.697000  0.721900  1
  H  H204  1  0.524300  0.197000  0.778100  1
  H  H205  1  0.038500  0.264200  0.254000  1
  H  H206  1  0.461500  0.764200  0.246000  1
  H  H207  1  0.961500  0.735800  0.746000  1
  H  H208  1  0.538500  0.235800  0.754000  1
  H  H209  1  0.984500  0.262400  0.290800  1
  H  H210  1  0.515500  0.762400  0.209200  1
  H  H211  1  0.015500  0.737600  0.709200  1
  H  H212  1  0.484500  0.237600  0.790800  1
  H  H213  1  0.050800  0.373700  0.100100  1
  H  H214  1  0.449200  0.873700  0.399900  1
  H  H215  1  0.949200  0.626300  0.899900  1
  H  H216  1  0.550800  0.126300  0.600100  1
  H  H217  1  0.968600  0.401700  0.108800  1
  H  H218  1  0.531400  0.901700  0.391200  1
  H  H219  1  0.031400  0.598300  0.891200  1
  H  H220  1  0.468600  0.098300  0.608800  1
  H  H221  1  0.945900  0.365700  0.079400  1
  H  H222  1  0.554100  0.865700  0.420600  1
  H  H223  1  0.054100  0.634300  0.920600  1
  H  H224  1  0.445900  0.134300  0.579400  1
  H  H225  1  0.603500  0.821900  0.057500  1
  H  H226  1  0.896500  0.321900  0.442500  1
  H  H227  1  0.396500  0.178100  0.942500  1
  H  H228  1  0.103500  0.678100  0.557500  1
  H  H229  1  0.465800  0.857100  0.146300  1
  H  H230  1  0.034200  0.357100  0.353700  1
  H  H231  1  0.534200  0.142900  0.853700  1
  H  H232  1  0.965800  0.642900  0.646300  1
  H  H233  1  0.492100  0.855900  0.011900  1
  H  H234  1  0.007900  0.355900  0.488100  1
  H  H235  1  0.507900  0.144100  0.988100  1
  H  H236  1  0.992100  0.644100  0.511900  1
  H  H237  1  0.370800  0.896600  0.103500  1
  H  H238  1  0.129200  0.396600  0.396500  1
  H  H239  1  0.629200  0.103400  0.896500  1
  H  H240  1  0.870800  0.603400  0.603500  1
  H  H241  1  0.278600  0.903100  0.033900  1
  H  H242  1  0.221400  0.403100  0.466100  1
  H  H243  1  0.721400  0.096900  0.966100  1
  H  H244  1  0.778600  0.596900  0.533900  1
  H  H245  1  0.315400  0.900600  0.962000  1
  H  H246  1  0.184600  0.400600  0.538000  1
  H  H247  1  0.684600  0.099400  0.038000  1
  H  H248  1  0.815400  0.599400  0.462000  1
  H  H249  1  0.353300  0.861000  0.983200  1
  H  H250  1  0.146700  0.361000  0.516800  1
  H  H251  1  0.646700  0.139000  0.016800  1
  H  H252  1  0.853300  0.639000  0.483200  1
  H  H253  1  0.423900  0.895900  0.979000  1
  H  H254  1  0.076100  0.395900  0.521000  1
  H  H255  1  0.576100  0.104100  0.021000  1
  H  H256  1  0.923900  0.604100  0.479000  1
  H  H257  1  0.367400  0.962200  0.056800  1
  H  H258  1  0.132600  0.462200  0.443200  1
  H  H259  1  0.632600  0.037800  0.943200  1
  H  H260  1  0.867400  0.537800  0.556800  1
  H  H261  1  0.341600  0.967400  0.010300  1
  H  H262  1  0.158400  0.467400  0.489700  1
  H  H263  1  0.658400  0.032600  0.989700  1
  H  H264  1  0.841600  0.532600  0.510300  1
  H  H265  1  0.443400  0.952900  0.029500  1
  H  H266  1  0.056600  0.452900  0.470500  1
  H  H267  1  0.556600  0.047100  0.970500  1
  H  H268  1  0.943400  0.547100  0.529500  1
  H  H269  1  0.678800  0.834900  0.146200  1
  H  H270  1  0.821200  0.334900  0.353800  1
  H  H271  1  0.321200  0.165100  0.853800  1
  H  H272  1  0.178800  0.665100  0.646200  1
  H  H273  1  0.642500  0.793800  0.127900  1
  H  H274  1  0.857500  0.293800  0.372100  1
  H  H275  1  0.357500  0.206200  0.872100  1
  H  H276  1  0.142500  0.706200  0.627900  1
  H  H277  1  0.592900  0.813700  0.161000  1
  H  H278  1  0.907100  0.313700  0.339000  1
  H  H279  1  0.407100  0.186300  0.839000  1
  H  H280  1  0.092900  0.686300  0.661000  1
  H  H281  1  0.964800  0.365100  0.711700  1
  H  H282  1  0.535200  0.865100  0.788300  1
  H  H283  1  0.035200  0.634900  0.288300  1
  H  H284  1  0.464800  0.134900  0.211700  1
  H  H285  1  0.150300  0.314100  0.648900  1
  H  H286  1  0.349700  0.814100  0.851100  1
  H  H287  1  0.849700  0.685900  0.351100  1
  H  H288  1  0.650300  0.185900  0.148900  1
  H  H289  1  0.937500  0.413700  0.663900  1
  H  H290  1  0.562500  0.913700  0.836100  1
  H  H291  1  0.062500  0.586300  0.336100  1
  H  H292  1  0.437500  0.086300  0.163900  1
  H  H293  1  0.120400  0.362800  0.600900  1
  H  H294  1  0.379600  0.862800  0.899100  1
  H  H295  1  0.879600  0.637200  0.399100  1
  H  H296  1  0.620400  0.137200  0.100900  1
  H  H297  1  0.071900  0.431300  0.583500  1
  H  H298  1  0.428100  0.931300  0.916500  1
  H  H299  1  0.928100  0.568700  0.416500  1
  H  H300  1  0.571900  0.068700  0.083500  1
  H  H301  1  0.014500  0.476800  0.631800  1
  H  H302  1  0.485500  0.976800  0.868200  1
  H  H303  1  0.985500  0.523200  0.368200  1
  H  H304  1  0.514500  0.023200  0.131800  1
  H  H305  1  0.916100  0.454900  0.626900  1
  H  H306  1  0.583900  0.954900  0.873100  1
  H  H307  1  0.083900  0.545100  0.373100  1
  H  H308  1  0.416100  0.045100  0.126900  1
  H  H309  1  0.940600  0.482200  0.592400  1
  H  H310  1  0.559400  0.982200  0.907600  1
  H  H311  1  0.059400  0.517800  0.407600  1
  H  H312  1  0.440600  0.017800  0.092400  1
  H  H313  1  0.913200  0.426800  0.540400  1
  H  H314  1  0.586800  0.926800  0.959600  1
  H  H315  1  0.086800  0.573200  0.459600  1
  H  H316  1  0.413200  0.073200  0.040400  1
  H  H317  1  0.880400  0.399300  0.573000  1
  H  H318  1  0.619600  0.899300  0.927000  1
  H  H319  1  0.119600  0.600700  0.427000  1
  H  H320  1  0.380400  0.100700  0.073000  1
  H  H321  1  0.958600  0.384500  0.548800  1
  H  H322  1  0.541400  0.884500  0.951200  1
  H  H323  1  0.041400  0.615500  0.451200  1
  H  H324  1  0.458600  0.115500  0.048800  1
  H  H325  1  0.032800  0.280300  0.713000  1
  H  H326  1  0.467200  0.780300  0.787000  1
  H  H327  1  0.967200  0.719700  0.287000  1
  H  H328  1  0.532800  0.219700  0.213000  1
  H  H329  1  0.069600  0.315400  0.741900  1
  H  H330  1  0.430400  0.815400  0.758100  1
  H  H331  1  0.930400  0.684600  0.258100  1
  H  H332  1  0.569600  0.184600  0.241900  1
  H  H333  1  0.139400  0.293800  0.717600  1
  H  H334  1  0.360600  0.793800  0.782400  1
  H  H335  1  0.860600  0.706200  0.282400  1
  H  H336  1  0.639400  0.206200  0.217600  1
  H  H337  1  0.843600  0.647700  0.122500  1
  H  H338  1  0.656400  0.147700  0.377500  1
  H  H339  1  0.156400  0.352300  0.877500  1
  H  H340  1  0.343600  0.852300  0.622500  1
  H  H341  1  0.748900  0.749500  0.060000  1
  H  H342  1  0.751100  0.249500  0.440000  1
  H  H343  1  0.251100  0.250500  0.940000  1
  H  H344  1  0.248900  0.750500  0.560000  1
  H  H345  1  0.911600  0.685700  0.174800  1
  H  H346  1  0.588400  0.185700  0.325200  1
  H  H347  1  0.088400  0.314300  0.825200  1
  H  H348  1  0.411600  0.814300  0.674800  1
  H  H349  1  0.828300  0.785700  0.118400  1
  H  H350  1  0.671700  0.285700  0.381600  1
  H  H351  1  0.171700  0.214300  0.881600  1
  H  H352  1  0.328300  0.714300  0.618400  1
  H  H353  1  0.959100  0.745700  0.203500  1
  H  H354  1  0.540900  0.245700  0.296500  1
  H  H355  1  0.040900  0.254300  0.796500  1
  H  H356  1  0.459100  0.754300  0.703500  1
  H  H357  1  0.857400  0.782600  0.239700  1
  H  H358  1  0.642600  0.282600  0.260300  1
  H  H359  1  0.142600  0.217400  0.760300  1
  H  H360  1  0.357400  0.717400  0.739700  1
  H  H361  1  0.817700  0.740700  0.225300  1
  H  H362  1  0.682300  0.240700  0.274700  1
  H  H363  1  0.182300  0.259300  0.774700  1
  H  H364  1  0.317700  0.759300  0.725300  1
  H  H365  1  0.777100  0.779000  0.202200  1
  H  H366  1  0.722900  0.279000  0.297800  1
  H  H367  1  0.222900  0.221000  0.797800  1
  H  H368  1  0.277100  0.721000  0.702200  1
  H  H369  1  0.014700  0.786900  0.161500  1
  H  H370  1  0.485300  0.286900  0.338500  1
  H  H371  1  0.985300  0.213100  0.838500  1
  H  H372  1  0.514700  0.713100  0.661500  1
  H  H373  1  0.999200  0.810500  0.199900  1
  H  H374  1  0.500800  0.310500  0.300100  1
  H  H375  1  0.000800  0.189500  0.800100  1
  H  H376  1  0.499200  0.689500  0.699900  1
  H  H377  1  0.926700  0.815100  0.160000  1
  H  H378  1  0.573300  0.315100  0.340000  1
  H  H379  1  0.073300  0.184900  0.840000  1
  H  H380  1  0.426700  0.684900  0.660000  1
  H  H381  1  0.676600  0.662200  0.052600  1
  H  H382  1  0.823400  0.162200  0.447400  1
  H  H383  1  0.323400  0.337800  0.947400  1
  H  H384  1  0.176600  0.837800  0.552600  1
  H  H385  1  0.779800  0.646000  0.052600  1
  H  H386  1  0.720200  0.146000  0.447400  1
  H  H387  1  0.220200  0.354000  0.947400  1
  H  H388  1  0.279800  0.854000  0.552600  1
  H  H389  1  0.745400  0.684500  0.028400  1
  H  H390  1  0.754600  0.184500  0.471600  1
  H  H391  1  0.254600  0.315500  0.971600  1
  H  H392  1  0.245400  0.815500  0.528400  1
  H  H393  1  0.338300  0.246500  0.263700  1
  H  H394  1  0.161700  0.746500  0.236300  1
  H  H395  1  0.661700  0.753500  0.736300  1
  H  H396  1  0.838300  0.253500  0.763700  1
  H  H397  1  0.125500  0.315600  0.196200  1
  H  H398  1  0.374500  0.815600  0.303800  1
  H  H399  1  0.874500  0.684400  0.803800  1
  H  H400  1  0.625500  0.184400  0.696200  1
  H  H401  1  0.321200  0.203700  0.211700  1
  H  H402  1  0.178800  0.703700  0.288300  1
  H  H403  1  0.678800  0.796300  0.788300  1
  H  H404  1  0.821200  0.296300  0.711700  1
  H  H405  1  0.129600  0.266900  0.144100  1
  H  H406  1  0.370400  0.766900  0.355900  1
  H  H407  1  0.870400  0.733100  0.855900  1
  H  H408  1  0.629600  0.233100  0.644100  1
  H  H409  1  0.196500  0.216200  0.119600  1
  H  H410  1  0.303500  0.716200  0.380400  1
  H  H411  1  0.803500  0.783800  0.880400  1
  H  H412  1  0.696500  0.283800  0.619600  1
  H  H413  1  0.345800  0.188400  0.146100  1
  H  H414  1  0.154200  0.688400  0.353900  1
  H  H415  1  0.654200  0.811600  0.853900  1
  H  H416  1  0.845800  0.311600  0.646100  1
  H  H417  1  0.283700  0.156900  0.119500  1
  H  H418  1  0.216300  0.656900  0.380500  1
  H  H419  1  0.716300  0.843100  0.880500  1
  H  H420  1  0.783700  0.343100  0.619500  1
  H  H421  1  0.295700  0.154200  0.166300  1
  H  H422  1  0.204300  0.654200  0.333700  1
  H  H423  1  0.704300  0.845800  0.833700  1
  H  H424  1  0.795700  0.345800  0.666300  1
  H  H425  1  0.052600  0.194200  0.138400  1
  H  H426  1  0.447400  0.694200  0.361600  1
  H  H427  1  0.947400  0.805800  0.861600  1
  H  H428  1  0.552600  0.305800  0.638400  1
  H  H429  1  0.105500  0.157600  0.160400  1
  H  H430  1  0.394500  0.657600  0.339600  1
  H  H431  1  0.894500  0.842400  0.839600  1
  H  H432  1  0.605500  0.342400  0.660400  1
  H  H433  1  0.095100  0.161300  0.113700  1
  H  H434  1  0.404900  0.661300  0.386300  1
  H  H435  1  0.904900  0.838700  0.886300  1
  H  H436  1  0.595100  0.338700  0.613700  1
  H  H437  1  0.200300  0.315900  0.283300  1
  H  H438  1  0.299700  0.815900  0.216700  1
  H  H439  1  0.799700  0.684100  0.716700  1
  H  H440  1  0.700300  0.184100  0.783300  1
  H  H441  1  0.208600  0.342500  0.246000  1
  H  H442  1  0.291400  0.842500  0.254000  1
  H  H443  1  0.791400  0.657500  0.754000  1
  H  H444  1  0.708600  0.157500  0.746000  1
  H  H445  1  0.300700  0.326200  0.272800  1
  H  H446  1  0.199300  0.826200  0.227200  1
  H  H447  1  0.699300  0.673800  0.727200  1
  H  H448  1  0.800700  0.173800  0.772800  1
  H  H449  1  0.756200  0.546900  0.694400  1
  H  H450  1  0.743800  0.046900  0.805600  1
  H  H451  1  0.243800  0.453100  0.305600  1
  H  H452  1  0.256200  0.953100  0.194400  1
  H  H453  1  0.812600  0.423600  0.701600  1
  H  H454  1  0.687400  0.923600  0.798400  1
  H  H455  1  0.187400  0.576400  0.298400  1
  H  H456  1  0.312600  0.076400  0.201600  1
  H  H457  1  0.664600  0.537300  0.628400  1
  H  H458  1  0.835400  0.037300  0.871600  1
  H  H459  1  0.335400  0.462700  0.371600  1
  H  H460  1  0.164600  0.962700  0.128400  1
  H  H461  1  0.705500  0.417700  0.636100  1
  H  H462  1  0.794500  0.917700  0.863900  1
  H  H463  1  0.294500  0.582300  0.363900  1
  H  H464  1  0.205500  0.082300  0.136100  1
  H  H465  1  0.575300  0.487700  0.580000  1
  H  H466  1  0.924700  0.987700  0.920000  1
  H  H467  1  0.424700  0.512300  0.420000  1
  H  H468  1  0.075300  0.012300  0.080000  1
  H  H469  1  0.543700  0.427700  0.610800  1
  H  H470  1  0.956300  0.927700  0.889200  1
  H  H471  1  0.456300  0.572300  0.389200  1
  H  H472  1  0.043700  0.072300  0.110800  1
  H  H473  1  0.626200  0.407000  0.593100  1
  H  H474  1  0.873800  0.907000  0.906900  1
  H  H475  1  0.373800  0.593000  0.406900  1
  H  H476  1  0.126200  0.093000  0.093100  1
  H  H477  1  0.535400  0.421900  0.564400  1
  H  H478  1  0.964600  0.921900  0.935600  1
  H  H479  1  0.464600  0.578100  0.435600  1
  H  H480  1  0.035400  0.078100  0.064400  1
  H  H481  1  0.713300  0.496400  0.551800  1
  H  H482  1  0.786700  0.996400  0.948200  1
  H  H483  1  0.286700  0.503600  0.448200  1
  H  H484  1  0.213300  0.003600  0.051800  1
  H  H485  1  0.646600  0.465300  0.526600  1
  H  H486  1  0.853400  0.965300  0.973400  1
  H  H487  1  0.353400  0.534700  0.473400  1
  H  H488  1  0.146600  0.034700  0.026600  1
  H  H489  1  0.736000  0.450900  0.556500  1
  H  H490  1  0.764000  0.950900  0.943500  1
  H  H491  1  0.264000  0.549100  0.443500  1
  H  H492  1  0.236000  0.049100  0.056500  1
  H  H493  1  0.902800  0.494200  0.746400  1
  H  H494  1  0.597200  0.994200  0.753600  1
  H  H495  1  0.097200  0.505800  0.253600  1
  H  H496  1  0.402800  0.005800  0.246400  1
  H  H497  1  0.823600  0.466000  0.757600  1
  H  H498  1  0.676400  0.966000  0.742400  1
  H  H499  1  0.176400  0.534000  0.242400  1
  H  H500  1  0.323600  0.034000  0.257600  1
  H  H501  1  0.806600  0.512000  0.755000  1
  H  H502  1  0.693400  0.012000  0.745000  1
  H  H503  1  0.193400  0.488000  0.245000  1
  H  H504  1  0.306600  0.988000  0.255000  1
  H  H505  1  0.823300  0.312100  0.955500  1
  H  H506  1  0.676700  0.812100  0.544500  1
  H  H507  1  0.176700  0.687900  0.044500  1
  H  H508  1  0.323300  0.187900  0.455500  1
  H  H509  1  0.723300  0.293900  0.958800  1
  H  H510  1  0.776700  0.793900  0.541200  1
  H  H511  1  0.276700  0.706100  0.041200  1
  H  H512  1  0.223300  0.206100  0.458800  1
  H  H513  1  0.837400  0.270800  0.013800  1
  H  H514  1  0.662600  0.770800  0.486200  1
  H  H515  1  0.162600  0.729200  0.986200  1
  H  H516  1  0.337400  0.229200  0.513800  1
  H  H517  1  0.761300  0.296800  0.030500  1
  H  H518  1  0.738700  0.796800  0.469500  1
  H  H519  1  0.238700  0.703200  0.969500  1
  H  H520  1  0.261300  0.203200  0.530500  1
  H  H521  1  0.861200  0.314800  0.027200  1
  H  H522  1  0.638800  0.814800  0.472800  1
  H  H523  1  0.138800  0.685200  0.972800  1
  H  H524  1  0.361200  0.185200  0.527200  1
  H  H525  1  0.643500  0.351600  0.924000  1
  H  H526  1  0.856500  0.851600  0.576000  1
  H  H527  1  0.356500  0.648400  0.076000  1
  H  H528  1  0.143500  0.148400  0.424000  1
  H  H529  1  0.746500  0.364300  0.918600  1
  H  H530  1  0.753500  0.864300  0.581400  1
  H  H531  1  0.253500  0.635700  0.081400  1
  H  H532  1  0.246500  0.135700  0.418600  1
  H  H533  1  0.649200  0.421100  0.914300  1
  H  H534  1  0.850800  0.921100  0.585700  1
  H  H535  1  0.350800  0.578900  0.085700  1
  H  H536  1  0.149200  0.078900  0.414300  1
  H  H537  1  0.727600  0.424900  0.952400  1
  H  H538  1  0.772400  0.924900  0.547600  1
  H  H539  1  0.272400  0.575100  0.047600  1
  H  H540  1  0.227600  0.075100  0.452400  1
  H  H541  1  0.624000  0.412200  0.956800  1
  H  H542  1  0.876000  0.912200  0.543200  1
  H  H543  1  0.376000  0.587800  0.043200  1
  H  H544  1  0.124000  0.087800  0.456800  1
  Ru  Ru545  1  0.837420  0.339760  0.158310  1
  Ru  Ru546  1  0.662580  0.839760  0.341690  1
  Ru  Ru547  1  0.162580  0.660240  0.841690  1
  Ru  Ru548  1  0.337420  0.160240  0.658310  1
  Ru  Ru549  1  0.920840  0.718590  0.102010  1
  Ru  Ru550  1  0.579160  0.218590  0.397990  1
  Ru  Ru551  1  0.079160  0.281410  0.897990  1
  Ru  Ru552  1  0.420840  0.781410  0.602010  1
  Ru  Ru553  1  0.299180  0.282090  0.188630  1
  Ru  Ru554  1  0.200820  0.782090  0.311370  1
  Ru  Ru555  1  0.700820  0.717910  0.811370  1
  Ru  Ru556  1  0.799180  0.217910  0.688630  1
  Ru  Ru557  1  0.117770  0.387110  0.678680  1
  Ru  Ru558  1  0.382230  0.887110  0.821320  1
  Ru  Ru559  1  0.882230  0.612890  0.321320  1
  Ru  Ru560  1  0.617770  0.112890  0.178680  1
  Ru  Ru561  1  0.649200  0.477250  0.682690  1
  Ru  Ru562  1  0.850800  0.977250  0.817310  1
  Ru  Ru563  1  0.350800  0.522750  0.317310  1
  Ru  Ru564  1  0.149200  0.022750  0.182690  1
  Ru  Ru565  1  0.418740  0.825400  0.070430  1
  Ru  Ru566  1  0.081260  0.325400  0.429570  1
  Ru  Ru567  1  0.581260  0.174600  0.929570  1
  Ru  Ru568  1  0.918740  0.674600  0.570430  1
  C  C569  1  0.173400  0.392000  0.765500  1
  C  C570  1  0.326600  0.892000  0.734500  1
  C  C571  1  0.826600  0.608000  0.234500  1
  C  C572  1  0.673400  0.108000  0.265500  1
  C  C573  1  0.081300  0.444400  0.742100  1
  C  C574  1  0.418700  0.944400  0.757900  1
  C  C575  1  0.918700  0.555600  0.257900  1
  C  C576  1  0.581300  0.055600  0.242100  1
  C  C577  1  0.092200  0.459400  0.779900  1
  C  C578  1  0.407800  0.959400  0.720100  1
  C  C579  1  0.907800  0.540600  0.220100  1
  C  C580  1  0.592200  0.040600  0.279900  1
  C  C581  1  0.186000  0.405400  0.804300  1
  C  C582  1  0.314000  0.905400  0.695700  1
  C  C583  1  0.814000  0.594600  0.195700  1
  C  C584  1  0.686000  0.094600  0.304300  1
  C  C585  1  0.137800  0.438400  0.812000  1
  C  C586  1  0.362200  0.938400  0.688000  1
  C  C587  1  0.862200  0.561600  0.188000  1
  C  C588  1  0.637800  0.061600  0.312000  1
  C  C589  1  0.136700  0.451600  0.850400  1
  C  C590  1  0.363300  0.951600  0.649600  1
  C  C591  1  0.863300  0.548400  0.149600  1
  C  C592  1  0.636700  0.048400  0.350400  1
  C  C593  1  0.137800  0.461200  0.884400  1
  C  C594  1  0.362200  0.961200  0.615600  1
  C  C595  1  0.862200  0.538800  0.115600  1
  C  C596  1  0.637800  0.038800  0.384400  1
  C  C597  1  0.274800  0.308900  0.105000  1
  C  C598  1  0.225200  0.808900  0.395000  1
  C  C599  1  0.725200  0.691100  0.895000  1
  C  C600  1  0.774800  0.191100  0.605000  1
  C  C601  1  0.272900  0.360900  0.148200  1
  C  C602  1  0.227100  0.860900  0.351800  1
  C  C603  1  0.727100  0.639100  0.851800  1
  C  C604  1  0.772900  0.139100  0.648200  1
  C  C605  1  0.255400  0.335000  0.071900  1
  C  C606  1  0.244600  0.835000  0.428100  1
  C  C607  1  0.744600  0.665000  0.928100  1
  C  C608  1  0.755400  0.165000  0.571900  1
  C  C609  1  0.253700  0.387700  0.118500  1
  C  C610  1  0.246300  0.887700  0.381500  1
  C  C611  1  0.746300  0.612300  0.881500  1
  C  C612  1  0.753700  0.112300  0.618500  1
  C  C613  1  0.243900  0.374600  0.080500  1
  C  C614  1  0.256100  0.874600  0.419500  1
  C  C615  1  0.756100  0.625400  0.919500  1
  C  C616  1  0.743900  0.125400  0.580500  1
  C  C617  1  0.218700  0.402900  0.047700  1
  C  C618  1  0.281300  0.902900  0.452300  1
  C  C619  1  0.781300  0.597100  0.952300  1
  C  C620  1  0.718700  0.097100  0.547700  1
  C  C621  1  0.197900  0.425100  0.022400  1
  C  C622  1  0.302100  0.925100  0.477600  1
  C  C623  1  0.802100  0.574900  0.977600  1
  C  C624  1  0.697900  0.074900  0.522400  1
  C  C625  1  0.017900  0.646200  0.084800  1
  C  C626  1  0.482100  0.146200  0.415200  1
  C  C627  1  0.982100  0.353800  0.915200  1
  C  C628  1  0.517900  0.853800  0.584800  1
  C  C629  1  0.955800  0.677900  0.028300  1
  C  C630  1  0.544200  0.177900  0.471700  1
  C  C631  1  0.044200  0.322100  0.971700  1
  C  C632  1  0.455800  0.822100  0.528300  1
  C  C633  1  0.047500  0.615600  0.063900  1
  C  C634  1  0.452500  0.115600  0.436100  1
  C  C635  1  0.952500  0.384400  0.936100  1
  C  C636  1  0.547500  0.884400  0.563900  1
  C  C637  1  0.982000  0.647500  0.004500  1
  C  C638  1  0.518000  0.147500  0.495500  1
  C  C639  1  0.018000  0.352500  0.995500  1
  C  C640  1  0.482000  0.852500  0.504500  1
  C  C641  1  0.029600  0.616600  0.022700  1
  C  C642  1  0.470400  0.116600  0.477300  1
  C  C643  1  0.970400  0.383400  0.977300  1
  C  C644  1  0.529600  0.883400  0.522700  1
  C  C645  1  0.055800  0.584500  0.001600  1
  C  C646  1  0.444200  0.084500  0.498400  1
  C  C647  1  0.944200  0.415500  0.998400  1
  C  C648  1  0.555800  0.915500  0.501600  1
  C  C649  1  0.077700  0.553900  0.987100  1
  C  C650  1  0.422300  0.053900  0.512900  1
  C  C651  1  0.922300  0.446100  0.012900  1
  C  C652  1  0.577700  0.946100  0.487100  1
  C  C653  1  0.166900  0.452900  0.992400  1
  C  C654  1  0.333100  0.952900  0.507600  1
  C  C655  1  0.833100  0.547100  0.007600  1
  C  C656  1  0.666900  0.047100  0.492400  1
  C  C657  1  0.168300  0.444800  0.952600  1
  C  C658  1  0.331700  0.944800  0.547400  1
  C  C659  1  0.831700  0.555200  0.047400  1
  C  C660  1  0.668300  0.055200  0.452600  1
  C  C661  1  0.138100  0.488800  0.002600  1
  C  C662  1  0.361900  0.988800  0.497400  1
  C  C663  1  0.861900  0.511200  0.997400  1
  C  C664  1  0.638100  0.011200  0.502600  1
  C  C665  1  0.138300  0.471300  0.925100  1
  C  C666  1  0.361700  0.971300  0.574900  1
  C  C667  1  0.861700  0.528700  0.074900  1
  C  C668  1  0.638300  0.028700  0.425100  1
  C  C669  1  0.108000  0.516900  0.974200  1
  C  C670  1  0.392000  0.016900  0.525800  1
  C  C671  1  0.892000  0.483100  0.025800  1
  C  C672  1  0.608000  0.983100  0.474200  1
  C  C673  1  0.109000  0.507800  0.935900  1
  C  C674  1  0.391000  0.007800  0.564100  1
  C  C675  1  0.891000  0.492200  0.064100  1
  C  C676  1  0.609000  0.992200  0.435900  1
  C  C677  1  0.753600  0.420000  0.134900  1
  C  C678  1  0.746400  0.920000  0.365100  1
  C  C679  1  0.246400  0.580000  0.865100  1
  C  C680  1  0.253600  0.080000  0.634900  1
  C  C681  1  0.750600  0.375700  0.082300  1
  C  C682  1  0.749400  0.875700  0.417700  1
  C  C683  1  0.249400  0.624300  0.917700  1
  C  C684  1  0.250600  0.124300  0.582300  1
  C  C685  1  0.717900  0.449700  0.111600  1
  C  C686  1  0.782100  0.949700  0.388400  1
  C  C687  1  0.282100  0.550300  0.888400  1
  C  C688  1  0.217900  0.050300  0.611600  1
  C  C689  1  0.711800  0.405900  0.054900  1
  C  C690  1  0.788200  0.905900  0.445100  1
  C  C691  1  0.288200  0.594100  0.945100  1
  C  C692  1  0.211800  0.094100  0.554900  1
  C  C693  1  0.693700  0.442200  0.068300  1
  C  C694  1  0.806300  0.942200  0.431700  1
  C  C695  1  0.306300  0.557800  0.931700  1
  C  C696  1  0.193700  0.057800  0.568300  1
  C  C697  1  0.660800  0.471800  0.042600  1
  C  C698  1  0.839200  0.971800  0.457400  1
  C  C699  1  0.339200  0.528200  0.957400  1
  C  C700  1  0.160800  0.028200  0.542600  1
  C  C701  1  0.632900  0.497100  0.019800  1
  C  C702  1  0.867100  0.997100  0.480200  1
  C  C703  1  0.367100  0.502900  0.980200  1
  C  C704  1  0.132900  0.002900  0.519800  1
  C  C705  1  0.485100  0.742100  0.070400  1
  C  C706  1  0.014900  0.242100  0.429600  1
  C  C707  1  0.514900  0.257900  0.929600  1
  C  C708  1  0.985100  0.757900  0.570400  1
  C  C709  1  0.407800  0.762000  0.008300  1
  C  C710  1  0.092200  0.262000  0.491700  1
  C  C711  1  0.592200  0.238000  0.991700  1
  C  C712  1  0.907800  0.738000  0.508300  1
  C  C713  1  0.502800  0.706600  0.055000  1
  C  C714  1  0.997200  0.206600  0.445000  1
  C  C715  1  0.497200  0.293400  0.945000  1
  C  C716  1  0.002800  0.793400  0.555000  1
  C  C717  1  0.427400  0.726100  0.992500  1
  C  C718  1  0.072600  0.226100  0.507500  1
  C  C719  1  0.572600  0.273900  0.007500  1
  C  C720  1  0.927400  0.773900  0.492500  1
  C  C721  1  0.477300  0.697700  0.016400  1
  C  C722  1  0.022700  0.197700  0.483600  1
  C  C723  1  0.522700  0.302300  0.983600  1
  C  C724  1  0.977300  0.802300  0.516400  1
  C  C725  1  0.498800  0.661500  0.000700  1
  C  C726  1  0.001200  0.161500  0.499300  1
  C  C727  1  0.501200  0.338500  0.999300  1
  C  C728  1  0.998800  0.838500  0.500700  1
  C  C729  1  0.515600  0.629800  0.987800  1
  C  C730  1  0.984400  0.129800  0.512200  1
  C  C731  1  0.484400  0.370200  0.012200  1
  C  C732  1  0.015600  0.870200  0.487800  1
  C  C733  1  0.642000  0.472400  0.768300  1
  C  C734  1  0.858000  0.972400  0.731700  1
  C  C735  1  0.358000  0.527600  0.231700  1
  C  C736  1  0.142000  0.027600  0.268300  1
  C  C737  1  0.583600  0.530700  0.742000  1
  C  C738  1  0.916400  0.030700  0.758000  1
  C  C739  1  0.416400  0.469300  0.258000  1
  C  C740  1  0.083600  0.969300  0.242000  1
  C  C741  1  0.624800  0.484800  0.804900  1
  C  C742  1  0.875200  0.984800  0.695100  1
  C  C743  1  0.375200  0.515200  0.195100  1
  C  C744  1  0.124800  0.015200  0.304900  1
  C  C745  1  0.561700  0.544100  0.778300  1
  C  C746  1  0.938300  0.044100  0.721700  1
  C  C747  1  0.438300  0.455900  0.221700  1
  C  C748  1  0.061700  0.955900  0.278300  1
  C  C749  1  0.587500  0.519300  0.812400  1
  C  C750  1  0.912500  0.019300  0.687600  1
  C  C751  1  0.412500  0.480700  0.187600  1
  C  C752  1  0.087500  0.980700  0.312400  1
  C  C753  1  0.573400  0.529800  0.848800  1
  C  C754  1  0.926600  0.029800  0.651200  1
  C  C755  1  0.426600  0.470200  0.151200  1
  C  C756  1  0.073400  0.970200  0.348800  1
  C  C757  1  0.565500  0.537900  0.883500  1
  C  C758  1  0.934500  0.037900  0.616500  1
  C  C759  1  0.434500  0.462100  0.116500  1
  C  C760  1  0.065500  0.962100  0.383500  1
  C  C761  1  0.599600  0.526600  0.992100  1
  C  C762  1  0.900400  0.026600  0.507900  1
  C  C763  1  0.400400  0.473400  0.007900  1
  C  C764  1  0.099600  0.973400  0.492100  1
  C  C765  1  0.570500  0.564300  0.002800  1
  C  C766  1  0.929500  0.064300  0.497200  1
  C  C767  1  0.429500  0.435700  0.997200  1
  C  C768  1  0.070500  0.935700  0.502800  1
  C  C769  1  0.541200  0.591900  0.974900  1
  C  C770  1  0.958800  0.091900  0.525100  1
  C  C771  1  0.458800  0.408100  0.025100  1
  C  C772  1  0.041200  0.908100  0.474900  1
  C  C773  1  0.537700  0.583900  0.935900  1
  C  C774  1  0.962300  0.083900  0.564100  1
  C  C775  1  0.462300  0.416100  0.064100  1
  C  C776  1  0.037700  0.916100  0.435900  1
  C  C777  1  0.595600  0.518900  0.951300  1
  C  C778  1  0.904400  0.018900  0.548700  1
  C  C779  1  0.404400  0.481100  0.048700  1
  C  C780  1  0.095600  0.981100  0.451300  1
  C  C781  1  0.563300  0.546900  0.923400  1
  C  C782  1  0.936700  0.046900  0.576600  1
  C  C783  1  0.436700  0.453100  0.076600  1
  C  C784  1  0.063300  0.953100  0.423400  1
  C  C785  1  0.481300  0.325700  0.205500  1
  C  C786  1  0.018700  0.825700  0.294500  1
  C  C787  1  0.518700  0.674300  0.794500  1
  C  C788  1  0.981300  0.174300  0.705500  1
  C  C789  1  0.534700  0.353800  0.229800  1
  C  C790  1  0.965300  0.853800  0.270200  1
  C  C791  1  0.465300  0.646200  0.770200  1
  C  C792  1  0.034700  0.146200  0.729800  1
  C  C793  1  0.620500  0.363700  0.225400  1
  C  C794  1  0.879500  0.863700  0.274600  1
  C  C795  1  0.379500  0.636300  0.774600  1
  C  C796  1  0.120500  0.136300  0.725400  1
  C  C797  1  0.665300  0.345500  0.196000  1
  C  C798  1  0.834700  0.845500  0.304000  1
  C  C799  1  0.334700  0.654500  0.804000  1
  C  C800  1  0.165300  0.154500  0.696000  1
  C  C801  1  0.616100  0.317600  0.170800  1
  C  C802  1  0.883900  0.817600  0.329200  1
  C  C803  1  0.383900  0.682400  0.829200  1
  C  C804  1  0.116100  0.182400  0.670800  1
  C  C805  1  0.522900  0.306000  0.176000  1
  C  C806  1  0.977100  0.806000  0.324000  1
  C  C807  1  0.477100  0.694000  0.824000  1
  C  C808  1  0.022900  0.194000  0.676000  1
  C  C809  1  0.479300  0.275700  0.155900  1
  C  C810  1  0.020700  0.775700  0.344100  1
  C  C811  1  0.520700  0.724300  0.844100  1
  C  C812  1  0.979300  0.224300  0.655900  1
  C  C813  1  0.525300  0.255500  0.125600  1
  C  C814  1  0.974700  0.755500  0.374400  1
  C  C815  1  0.474700  0.744500  0.874400  1
  C  C816  1  0.025300  0.244500  0.625600  1
  C  C817  1  0.606000  0.266600  0.118600  1
  C  C818  1  0.894000  0.766600  0.381400  1
  C  C819  1  0.394000  0.733400  0.881400  1
  C  C820  1  0.106000  0.233400  0.618600  1
  C  C821  1  0.657200  0.297100  0.141500  1
  C  C822  1  0.842800  0.797100  0.358500  1
  C  C823  1  0.342800  0.702900  0.858500  1
  C  C824  1  0.157200  0.202900  0.641500  1
  C  C825  1  0.321800  0.388000  0.696000  1
  C  C826  1  0.178200  0.888000  0.804000  1
  C  C827  1  0.678200  0.612000  0.304000  1
  C  C828  1  0.821800  0.112000  0.196000  1
  C  C829  1  0.405700  0.368000  0.711800  1
  C  C830  1  0.094300  0.868000  0.788200  1
  C  C831  1  0.594300  0.632000  0.288200  1
  C  C832  1  0.905700  0.132000  0.211800  1
  C  C833  1  0.492200  0.380500  0.713900  1
  C  C834  1  0.007800  0.880500  0.786100  1
  C  C835  1  0.507800  0.619500  0.286100  1
  C  C836  1  0.992200  0.119500  0.213900  1
  C  C837  1  0.507500  0.416800  0.696900  1
  C  C838  1  0.992500  0.916800  0.803100  1
  C  C839  1  0.492500  0.583200  0.303100  1
  C  C840  1  0.007500  0.083200  0.196900  1
  C  C841  1  0.429500  0.441000  0.682100  1
  C  C842  1  0.070500  0.941000  0.817900  1
  C  C843  1  0.570500  0.559000  0.317900  1
  C  C844  1  0.929500  0.059000  0.182100  1
  C  C845  1  0.336000  0.426600  0.681300  1
  C  C846  1  0.164000  0.926600  0.818700  1
  C  C847  1  0.664000  0.573400  0.318700  1
  C  C848  1  0.836000  0.073400  0.181300  1
  C  C849  1  0.260700  0.448600  0.666800  1
  C  C850  1  0.239300  0.948600  0.833200  1
  C  C851  1  0.739300  0.551400  0.333200  1
  C  C852  1  0.760700  0.051400  0.166800  1
  C  C853  1  0.276900  0.486000  0.647500  1
  C  C854  1  0.223100  0.986000  0.852500  1
  C  C855  1  0.723100  0.514000  0.352500  1
  C  C856  1  0.776900  0.014000  0.147500  1
  C  C857  1  0.359000  0.499400  0.648100  1
  C  C858  1  0.141000  0.999400  0.851900  1
  C  C859  1  0.641000  0.500600  0.351900  1
  C  C860  1  0.859000  0.000600  0.148100  1
  C  C861  1  0.440700  0.478300  0.666600  1
  C  C862  1  0.059300  0.978300  0.833400  1
  C  C863  1  0.559300  0.521700  0.333400  1
  C  C864  1  0.940700  0.021700  0.166600  1
  C  C865  1  0.046400  0.770500  0.061200  1
  C  C866  1  0.453600  0.270500  0.438800  1
  C  C867  1  0.953600  0.229500  0.938800  1
  C  C868  1  0.546400  0.729500  0.561200  1
  C  C869  1  0.127600  0.764100  0.089200  1
  C  C870  1  0.372400  0.264100  0.410800  1
  C  C871  1  0.872400  0.235900  0.910800  1
  C  C872  1  0.627600  0.735900  0.589200  1
  C  C873  1  0.048900  0.795100  0.026900  1
  C  C874  1  0.451100  0.295100  0.473100  1
  C  C875  1  0.951100  0.204900  0.973100  1
  C  C876  1  0.548900  0.704900  0.526900  1
  C  C877  1  0.131800  0.807900  0.022500  1
  C  C878  1  0.368200  0.307900  0.477500  1
  C  C879  1  0.868200  0.192100  0.977500  1
  C  C880  1  0.631800  0.692100  0.522500  1
  C  C881  1  0.213900  0.804800  0.049400  1
  C  C882  1  0.286100  0.304800  0.450600  1
  C  C883  1  0.786100  0.195200  0.950600  1
  C  C884  1  0.713900  0.695200  0.549400  1
  C  C885  1  0.211500  0.782200  0.082800  1
  C  C886  1  0.288500  0.282200  0.417200  1
  C  C887  1  0.788500  0.217800  0.917200  1
  C  C888  1  0.711500  0.717800  0.582800  1
  C  C889  1  0.124300  0.739300  0.122500  1
  C  C890  1  0.375700  0.239300  0.377500  1
  C  C891  1  0.875700  0.260700  0.877500  1
  C  C892  1  0.624300  0.760700  0.622500  1
  C  C893  1  0.286900  0.753300  0.145700  1
  C  C894  1  0.213100  0.253300  0.354300  1
  C  C895  1  0.713100  0.246700  0.854300  1
  C  C896  1  0.786900  0.746700  0.645700  1
  C  C897  1  0.211600  0.736100  0.151800  1
  C  C898  1  0.288400  0.236100  0.348200  1
  C  C899  1  0.788400  0.263900  0.848200  1
  C  C900  1  0.711600  0.763900  0.651800  1
  C  C901  1  0.296900  0.776800  0.114500  1
  C  C902  1  0.203100  0.276800  0.385500  1
  C  C903  1  0.703100  0.223200  0.885500  1
  C  C904  1  0.796900  0.723200  0.614500  1
  C  C905  1  0.970900  0.349600  0.136800  1
  C  C906  1  0.529100  0.849600  0.363200  1
  C  C907  1  0.029100  0.650400  0.863200  1
  C  C908  1  0.470900  0.150400  0.636800  1
  C  C909  1  0.941100  0.310600  0.133400  1
  C  C910  1  0.558900  0.810600  0.366600  1
  C  C911  1  0.058900  0.689400  0.866600  1
  C  C912  1  0.441100  0.189400  0.633400  1
  C  C913  1  0.972300  0.367300  0.174900  1
  C  C914  1  0.527700  0.867300  0.325100  1
  C  C915  1  0.027700  0.632700  0.825100  1
  C  C916  1  0.472300  0.132700  0.674900  1
  C  C917  1  0.923900  0.289300  0.165900  1
  C  C918  1  0.576100  0.789300  0.334100  1
  C  C919  1  0.076100  0.710700  0.834100  1
  C  C920  1  0.423900  0.210700  0.665900  1
  C  C921  1  0.950700  0.346400  0.206600  1
  C  C922  1  0.549300  0.846400  0.293400  1
  C  C923  1  0.049300  0.653600  0.793400  1
  C  C924  1  0.450700  0.153600  0.706600  1
  C  C925  1  0.927700  0.307200  0.203300  1
  C  C926  1  0.572300  0.807200  0.296700  1
  C  C927  1  0.072300  0.692800  0.796700  1
  C  C928  1  0.427700  0.192800  0.703300  1
  C  C929  1  0.903100  0.286000  0.241000  1
  C  C930  1  0.596900  0.786000  0.259000  1
  C  C931  1  0.096900  0.714000  0.759000  1
  C  C932  1  0.403100  0.214000  0.741000  1
  C  C933  1  0.848200  0.245200  0.225200  1
  C  C934  1  0.651800  0.745200  0.274800  1
  C  C935  1  0.151800  0.754800  0.774800  1
  C  C936  1  0.348200  0.254800  0.725200  1
  C  C937  1  0.996100  0.278200  0.268500  1
  C  C938  1  0.503900  0.778200  0.231500  1
  C  C939  1  0.003900  0.721800  0.731500  1
  C  C940  1  0.496100  0.221800  0.768500  1
  C  C941  1  0.985300  0.374800  0.103500  1
  C  C942  1  0.514700  0.874800  0.396500  1
  C  C943  1  0.014700  0.625200  0.896500  1
  C  C944  1  0.485300  0.125200  0.603500  1
  C  C945  1  0.558000  0.839000  0.107300  1
  C  C946  1  0.942000  0.339000  0.392700  1
  C  C947  1  0.442000  0.161000  0.892700  1
  C  C948  1  0.058000  0.661000  0.607300  1
  C  C949  1  0.564300  0.841800  0.068200  1
  C  C950  1  0.935700  0.341800  0.431800  1
  C  C951  1  0.435700  0.158200  0.931800  1
  C  C952  1  0.064300  0.658200  0.568200  1
  C  C953  1  0.482400  0.861900  0.119700  1
  C  C954  1  0.017600  0.361900  0.380300  1
  C  C955  1  0.517600  0.138100  0.880300  1
  C  C956  1  0.982400  0.638100  0.619700  1
  C  C957  1  0.493800  0.859900  0.040700  1
  C  C958  1  0.006200  0.359900  0.459300  1
  C  C959  1  0.506200  0.140100  0.959300  1
  C  C960  1  0.993800  0.640100  0.540700  1
  C  C961  1  0.428000  0.886200  0.094400  1
  C  C962  1  0.072000  0.386200  0.405600  1
  C  C963  1  0.572000  0.113800  0.905600  1
  C  C964  1  0.928000  0.613800  0.594400  1
  C  C965  1  0.426000  0.884900  0.054500  1
  C  C966  1  0.074000  0.384900  0.445500  1
  C  C967  1  0.574000  0.115100  0.945500  1
  C  C968  1  0.926000  0.615100  0.554500  1
  C  C969  1  0.342100  0.907800  0.027300  1
  C  C970  1  0.157900  0.407800  0.472700  1
  C  C971  1  0.657900  0.092200  0.972700  1
  C  C972  1  0.842100  0.592200  0.527300  1
  C  C973  1  0.361000  0.889300  0.983200  1
  C  C974  1  0.139000  0.389300  0.516800  1
  C  C975  1  0.639000  0.110700  0.016800  1
  C  C976  1  0.861000  0.610700  0.483200  1
  C  C977  1  0.377000  0.951800  0.031400  1
  C  C978  1  0.123000  0.451800  0.468600  1
  C  C979  1  0.623000  0.048200  0.968600  1
  C  C980  1  0.877000  0.548200  0.531400  1
  C  C981  1  0.623600  0.818600  0.138200  1
  C  C982  1  0.876400  0.318600  0.361800  1
  C  C983  1  0.376400  0.181400  0.861800  1
  C  C984  1  0.123600  0.681400  0.638200  1
  C  C985  1  0.049900  0.331000  0.683900  1
  C  C986  1  0.450100  0.831000  0.816100  1
  C  C987  1  0.950100  0.669000  0.316100  1
  C  C988  1  0.549900  0.169000  0.183900  1
  C  C989  1  0.988000  0.360900  0.686300  1
  C  C990  1  0.512000  0.860900  0.813700  1
  C  C991  1  0.012000  0.639100  0.313700  1
  C  C992  1  0.488000  0.139100  0.186300  1
  C  C993  1  0.095300  0.331500  0.649200  1
  C  C994  1  0.404700  0.831500  0.850800  1
  C  C995  1  0.904700  0.668500  0.350800  1
  C  C996  1  0.595300  0.168500  0.149200  1
  C  C997  1  0.971800  0.389800  0.657800  1
  C  C998  1  0.528200  0.889800  0.842200  1
  C  C999  1  0.028200  0.610200  0.342200  1
  C  C1000  1  0.471800  0.110200  0.157800  1
  C  C1001  1  0.077200  0.360300  0.620400  1
  C  C1002  1  0.422800  0.860300  0.879600  1
  C  C1003  1  0.922800  0.639700  0.379600  1
  C  C1004  1  0.577200  0.139700  0.120400  1
  C  C1005  1  0.020300  0.391200  0.625400  1
  C  C1006  1  0.479700  0.891200  0.874600  1
  C  C1007  1  0.979700  0.608800  0.374600  1
  C  C1008  1  0.520300  0.108800  0.125400  1
  C  C1009  1  0.012200  0.425400  0.593200  1
  C  C1010  1  0.487800  0.925400  0.906800  1
  C  C1011  1  0.987800  0.574600  0.406800  1
  C  C1012  1  0.512200  0.074600  0.093200  1
  C  C1013  1  0.966100  0.463800  0.613200  1
  C  C1014  1  0.533900  0.963800  0.886800  1
  C  C1015  1  0.033900  0.536200  0.386800  1
  C  C1016  1  0.466100  0.036200  0.113200  1
  C  C1017  1  0.933500  0.407200  0.560800  1
  C  C1018  1  0.566500  0.907200  0.939200  1
  C  C1019  1  0.066500  0.592800  0.439200  1
  C  C1020  1  0.433500  0.092800  0.060800  1
  C  C1021  1  0.075100  0.302700  0.716900  1
  C  C1022  1  0.424900  0.802700  0.783100  1
  C  C1023  1  0.924900  0.697300  0.283100  1
  C  C1024  1  0.575100  0.197300  0.216900  1
  C  C1025  1  0.776500  0.693900  0.087600  1
  C  C1026  1  0.723500  0.193900  0.412400  1
  C  C1027  1  0.223500  0.306100  0.912400  1
  C  C1028  1  0.276500  0.806100  0.587600  1
  C  C1029  1  0.827900  0.676100  0.122700  1
  C  C1030  1  0.672100  0.176100  0.377300  1
  C  C1031  1  0.172100  0.323900  0.877300  1
  C  C1032  1  0.327900  0.823900  0.622700  1
  C  C1033  1  0.772100  0.735800  0.085200  1
  C  C1034  1  0.727900  0.235800  0.414800  1
  C  C1035  1  0.227900  0.264200  0.914800  1
  C  C1036  1  0.272100  0.764200  0.585200  1
  C  C1037  1  0.866400  0.698700  0.153800  1
  C  C1038  1  0.633600  0.198700  0.346200  1
  C  C1039  1  0.133600  0.301300  0.846200  1
  C  C1040  1  0.366400  0.801300  0.653800  1
  C  C1041  1  0.819100  0.757000  0.120400  1
  C  C1042  1  0.680900  0.257000  0.379600  1
  C  C1043  1  0.180900  0.243000  0.879600  1
  C  C1044  1  0.319100  0.743000  0.620400  1
  C  C1045  1  0.861200  0.737300  0.155600  1
  C  C1046  1  0.638800  0.237300  0.344400  1
  C  C1047  1  0.138800  0.262700  0.844400  1
  C  C1048  1  0.361200  0.762700  0.655600  1
  C  C1049  1  0.911100  0.763300  0.188600  1
  C  C1050  1  0.588900  0.263300  0.311400  1
  C  C1051  1  0.088900  0.236700  0.811400  1
  C  C1052  1  0.411100  0.736700  0.688600  1
  C  C1053  1  0.833200  0.766700  0.216700  1
  C  C1054  1  0.666800  0.266700  0.283300  1
  C  C1055  1  0.166800  0.233300  0.783300  1
  C  C1056  1  0.333200  0.733300  0.716700  1
  C  C1057  1  0.968000  0.797000  0.176400  1
  C  C1058  1  0.532000  0.297000  0.323600  1
  C  C1059  1  0.032000  0.203000  0.823600  1
  C  C1060  1  0.468000  0.703000  0.676400  1
  C  C1061  1  0.741500  0.669500  0.052200  1
  C  C1062  1  0.758500  0.169500  0.447800  1
  C  C1063  1  0.258500  0.330500  0.947800  1
  C  C1064  1  0.241500  0.830500  0.552200  1
  C  C1065  1  0.231700  0.285000  0.236900  1
  C  C1066  1  0.268300  0.785000  0.263100  1
  C  C1067  1  0.768300  0.715000  0.763100  1
  C  C1068  1  0.731700  0.215000  0.736900  1
  C  C1069  1  0.284400  0.249400  0.241800  1
  C  C1070  1  0.215600  0.749400  0.258200  1
  C  C1071  1  0.715600  0.750600  0.758200  1
  C  C1072  1  0.784400  0.250600  0.741800  1
  C  C1073  1  0.159700  0.290400  0.201700  1
  C  C1074  1  0.340300  0.790400  0.298300  1
  C  C1075  1  0.840300  0.709600  0.798300  1
  C  C1076  1  0.659700  0.209600  0.701700  1
  C  C1077  1  0.269900  0.223100  0.211700  1
  C  C1078  1  0.230100  0.723100  0.288300  1
  C  C1079  1  0.730100  0.776900  0.788300  1
  C  C1080  1  0.769900  0.276900  0.711700  1
  C  C1081  1  0.162300  0.261400  0.171400  1
  C  C1082  1  0.337700  0.761400  0.328600  1
  C  C1083  1  0.837700  0.738600  0.828600  1
  C  C1084  1  0.662300  0.238600  0.671400  1
  C  C1085  1  0.213400  0.225800  0.178900  1
  C  C1086  1  0.286600  0.725800  0.321100  1
  C  C1087  1  0.786600  0.774200  0.821100  1
  C  C1088  1  0.713400  0.274200  0.678900  1
  C  C1089  1  0.200000  0.199000  0.143200  1
  C  C1090  1  0.300000  0.699000  0.356800  1
  C  C1091  1  0.800000  0.801000  0.856800  1
  C  C1092  1  0.700000  0.301000  0.643200  1
  C  C1093  1  0.290100  0.172000  0.143800  1
  C  C1094  1  0.209900  0.672000  0.356200  1
  C  C1095  1  0.709900  0.828000  0.856200  1
  C  C1096  1  0.790100  0.328000  0.643800  1
  C  C1097  1  0.104100  0.175800  0.138500  1
  C  C1098  1  0.395900  0.675800  0.361500  1
  C  C1099  1  0.895900  0.824200  0.861500  1
  C  C1100  1  0.604100  0.324200  0.638500  1
  C  C1101  1  0.235600  0.320400  0.261900  1
  C  C1102  1  0.264400  0.820400  0.238100  1
  C  C1103  1  0.764400  0.679600  0.738100  1
  C  C1104  1  0.735600  0.179600  0.761900  1
  C  C1105  1  0.792600  0.485700  0.698700  1
  C  C1106  1  0.707400  0.985700  0.801300  1
  C  C1107  1  0.207400  0.514300  0.301300  1
  C  C1108  1  0.292600  0.014300  0.198700  1
  C  C1109  1  0.754800  0.521500  0.680200  1
  C  C1110  1  0.745200  0.021500  0.819800  1
  C  C1111  1  0.245200  0.478500  0.319800  1
  C  C1112  1  0.254800  0.978500  0.180200  1
  C  C1113  1  0.791800  0.446600  0.684600  1
  C  C1114  1  0.708200  0.946600  0.815400  1
  C  C1115  1  0.208200  0.553400  0.315400  1
  C  C1116  1  0.291800  0.053400  0.184600  1
  C  C1117  1  0.705100  0.515700  0.640900  1
  C  C1118  1  0.794900  0.015700  0.859100  1
  C  C1119  1  0.294900  0.484300  0.359100  1
  C  C1120  1  0.205100  0.984300  0.140900  1
  C  C1121  1  0.729000  0.443800  0.645900  1
  C  C1122  1  0.771000  0.943800  0.854100  1
  C  C1123  1  0.271000  0.556200  0.354100  1
  C  C1124  1  0.229000  0.056200  0.145900  1
  C  C1125  1  0.687000  0.478200  0.626600  1
  C  C1126  1  0.813000  0.978200  0.873400  1
  C  C1127  1  0.313000  0.521800  0.373400  1
  C  C1128  1  0.187000  0.021800  0.126600  1
  C  C1129  1  0.625800  0.467700  0.585500  1
  C  C1130  1  0.874200  0.967700  0.914500  1
  C  C1131  1  0.374200  0.532300  0.414500  1
  C  C1132  1  0.125800  0.032300  0.085500  1
  C  C1133  1  0.578400  0.427300  0.588800  1
  C  C1134  1  0.921600  0.927300  0.911200  1
  C  C1135  1  0.421600  0.572700  0.411200  1
  C  C1136  1  0.078400  0.072700  0.088800  1
  C  C1137  1  0.686000  0.470300  0.552000  1
  C  C1138  1  0.814000  0.970300  0.948000  1
  C  C1139  1  0.314000  0.529700  0.448000  1
  C  C1140  1  0.186000  0.029700  0.052000  1
  C  C1141  1  0.835500  0.489900  0.743700  1
  C  C1142  1  0.664500  0.989900  0.756300  1
  C  C1143  1  0.164500  0.510100  0.256300  1
  C  C1144  1  0.335500  0.010100  0.243700  1
  C  C1145  1  0.496400  0.663600  0.177300  1
  C  C1146  1  0.003600  0.163600  0.322700  1
  C  C1147  1  0.503600  0.336400  0.822700  1
  C  C1148  1  0.996400  0.836400  0.677300  1
  C  C1149  1  0.033000  0.852400  0.123600  1
  C  C1150  1  0.467000  0.352400  0.376400  1
  C  C1151  1  0.967000  0.147600  0.876400  1
  C  C1152  1  0.533000  0.647600  0.623600  1
  C  C1153  1  0.770300  0.817900  0.987100  1
  C  C1154  1  0.729700  0.317900  0.512900  1
  C  C1155  1  0.229700  0.182100  0.012900  1
  C  C1156  1  0.270300  0.682100  0.487100  1
  C  C1157  1  0.849000  0.149200  0.090400  1
  C  C1158  1  0.651000  0.649200  0.409600  1
  C  C1159  1  0.151000  0.850800  0.909600  1
  C  C1160  1  0.349000  0.350800  0.590400  1
  C  C1161  1  0.787700  0.369100  0.810800  1
  C  C1162  1  0.712300  0.869100  0.689200  1
  C  C1163  1  0.212300  0.630900  0.189200  1
  C  C1164  1  0.287700  0.130900  0.310800  1
  C  C1165  1  0.073000  0.545700  0.685000  1
  C  C1166  1  0.427000  0.045700  0.815000  1
  C  C1167  1  0.927000  0.454300  0.315000  1
  C  C1168  1  0.573000  0.954300  0.185000  1
  C  C1169  1  0.772600  0.311800  0.971500  1
  C  C1170  1  0.727400  0.811800  0.528500  1
  C  C1171  1  0.227400  0.688200  0.028500  1
  C  C1172  1  0.272600  0.188200  0.471500  1
  C  C1173  1  0.811900  0.297100  0.015000  1
  C  C1174  1  0.688100  0.797100  0.485000  1
  C  C1175  1  0.188100  0.702900  0.985000  1
  C  C1176  1  0.311900  0.202900  0.515000  1
  C  C1177  1  0.699300  0.366400  0.936100  1
  C  C1178  1  0.800700  0.866400  0.563900  1
  C  C1179  1  0.300700  0.633600  0.063900  1
  C  C1180  1  0.199300  0.133600  0.436100  1
  C  C1181  1  0.672500  0.410200  0.940300  1
  C  C1182  1  0.827500  0.910200  0.559700  1
  C  C1183  1  0.327500  0.589800  0.059700  1
  C  C1184  1  0.172500  0.089800  0.440300  1
  S  S1185  1  0.610800  0.679370  0.165930  1
  S  S1186  1  0.889200  0.179370  0.334070  1
  S  S1187  1  0.389200  0.320630  0.834070  1
  S  S1188  1  0.110800  0.820630  0.665930  1
  S  S1189  1  0.013300  0.900500  0.147600  1
  S  S1190  1  0.486700  0.400500  0.352400  1
  S  S1191  1  0.986700  0.099500  0.852400  1
  S  S1192  1  0.513300  0.599500  0.647600  1
  S  S1193  1  0.711000  0.774620  0.976440  1
  S  S1194  1  0.789000  0.274620  0.523560  1
  S  S1195  1  0.289000  0.225380  0.023560  1
  S  S1196  1  0.211000  0.725380  0.476440  1
  S  S1197  1  0.817800  0.200680  0.093260  1
  S  S1198  1  0.682200  0.700680  0.406740  1
  S  S1199  1  0.182200  0.799320  0.906740  1
  S  S1200  1  0.317800  0.299320  0.593260  1
  S  S1201  1  0.894200  0.369220  0.789280  1
  S  S1202  1  0.605800  0.869220  0.710720  1
  S  S1203  1  0.105800  0.630780  0.210720  1
  S  S1204  1  0.394200  0.130780  0.289280  1
  S  S1205  1  0.014800  0.578700  0.714200  1
  S  S1206  1  0.485200  0.078700  0.785800  1
  S  S1207  1  0.985200  0.421300  0.285800  1
  S  S1208  1  0.514800  0.921300  0.214200  1
  N  N1209  1  0.130900  0.411500  0.735600  1
  N  N1210  1  0.369100  0.911500  0.764400  1
  N  N1211  1  0.869100  0.588500  0.264400  1
  N  N1212  1  0.630900  0.088500  0.235600  1
  N  N1213  1  0.281600  0.322300  0.140500  1
  N  N1214  1  0.218400  0.822300  0.359500  1
  N  N1215  1  0.718400  0.677700  0.859500  1
  N  N1216  1  0.781600  0.177700  0.640500  1
  N  N1217  1  0.974200  0.676700  0.067000  1
  N  N1218  1  0.525800  0.176700  0.433000  1
  N  N1219  1  0.025800  0.323300  0.933000  1
  N  N1220  1  0.474200  0.823300  0.567000  1
  N  N1221  1  0.772800  0.382900  0.120000  1
  N  N1222  1  0.727200  0.882900  0.380000  1
  N  N1223  1  0.227200  0.617100  0.880000  1
  N  N1224  1  0.272800  0.117100  0.620000  1
  N  N1225  1  0.437300  0.770000  0.045900  1
  N  N1226  1  0.062700  0.270000  0.454100  1
  N  N1227  1  0.562700  0.230000  0.954100  1
  N  N1228  1  0.937300  0.730000  0.545900  1
  N  N1229  1  0.620500  0.496100  0.737800  1
  N  N1230  1  0.879500  0.996100  0.762200  1
  N  N1231  1  0.379500  0.503900  0.262200  1
  N  N1232  1  0.120500  0.003900  0.237800  1
  O  O1233  1  0.248600  0.370800  0.697600  1
  O  O1234  1  0.251400  0.870800  0.802400  1
  O  O1235  1  0.751400  0.629200  0.302400  1
  O  O1236  1  0.748600  0.129200  0.197600  1
  O  O1237  1  0.173500  0.440700  0.664200  1
  O  O1238  1  0.326500  0.940700  0.835800  1
  O  O1239  1  0.826500  0.559300  0.335800  1
  O  O1240  1  0.673500  0.059300  0.164200  1
  O  O1241  1  0.592800  0.427200  0.697600  1
  O  O1242  1  0.907200  0.927200  0.802400  1
  O  O1243  1  0.407200  0.572800  0.302400  1
  O  O1244  1  0.092800  0.072800  0.197600  1
  O  O1245  1  0.520200  0.497900  0.662600  1
  O  O1246  1  0.979800  0.997900  0.837400  1
  O  O1247  1  0.479800  0.502100  0.337400  1
  O  O1248  1  0.020200  0.002100  0.162600  1
  O  O1249  1  0.397500  0.320300  0.213300  1
  O  O1250  1  0.102500  0.820300  0.286700  1
  O  O1251  1  0.602500  0.679700  0.786700  1
  O  O1252  1  0.897500  0.179700  0.713300  1
  O  O1253  1  0.394600  0.260500  0.160600  1
  O  O1254  1  0.105400  0.760500  0.339400  1
  O  O1255  1  0.605400  0.739500  0.839400  1
  O  O1256  1  0.894600  0.239500  0.660600  1
  O  O1257  1  0.749000  0.357400  0.194300  1
  O  O1258  1  0.751000  0.857400  0.305700  1
  O  O1259  1  0.251000  0.642600  0.805700  1
  O  O1260  1  0.249000  0.142600  0.694300  1
  O  O1261  1  0.730800  0.305200  0.130600  1
  O  O1262  1  0.769200  0.805200  0.369400  1
  O  O1263  1  0.269200  0.694800  0.869400  1
  O  O1264  1  0.230800  0.194800  0.630600  1
  O  O1265  1  0.961400  0.756800  0.062900  1
  O  O1266  1  0.538600  0.256800  0.437100  1
  O  O1267  1  0.038600  0.243200  0.937100  1
  O  O1268  1  0.461400  0.743200  0.562900  1
  O  O1269  1  0.054800  0.720200  0.131500  1
  O  O1270  1  0.445200  0.220200  0.368500  1
  O  O1271  1  0.945200  0.279800  0.868500  1
  O  O1272  1  0.554800  0.779800  0.631500  1
  O  O1273  1  0.290200  0.822300  0.039600  1
  O  O1274  1  0.209800  0.322300  0.460400  1
  O  O1275  1  0.709800  0.177700  0.960400  1
  O  O1276  1  0.790200  0.677700  0.539600  1
  O  O1277  1  0.372300  0.794400  0.111800  1
  O  O1278  1  0.127700  0.294400  0.388200  1
  O  O1279  1  0.627700  0.205600  0.888200  1
  O  O1280  1  0.872300  0.705600  0.611800  1
  O  O1281  1  0.623100  0.655000  0.132600  1
  O  O1282  1  0.876900  0.155000  0.367400  1
  O  O1283  1  0.376900  0.345000  0.867400  1
  O  O1284  1  0.123100  0.845000  0.632600  1
  O  O1285  1  0.672900  0.671700  0.201600  1
  O  O1286  1  0.827100  0.171700  0.298400  1
  O  O1287  1  0.327100  0.328300  0.798400  1
  O  O1288  1  0.172900  0.828300  0.701600  1
  O  O1289  1  0.593500  0.720700  0.154600  1
  O  O1290  1  0.906500  0.220700  0.345400  1
  O  O1291  1  0.406500  0.279300  0.845400  1
  O  O1292  1  0.093500  0.779300  0.654600  1
  O  O1293  1  0.934000  0.893300  0.169400  1
  O  O1294  1  0.566000  0.393300  0.330600  1
  O  O1295  1  0.066000  0.106700  0.830600  1
  O  O1296  1  0.434000  0.606700  0.669400  1
  O  O1297  1  0.982000  0.920600  0.109400  1
  O  O1298  1  0.518000  0.420600  0.390600  1
  O  O1299  1  0.018000  0.079400  0.890600  1
  O  O1300  1  0.482000  0.579400  0.609400  1
  O  O1301  1  0.110000  0.902700  0.171100  1
  O  O1302  1  0.390000  0.402700  0.328900  1
  O  O1303  1  0.890000  0.097300  0.828900  1
  O  O1304  1  0.610000  0.597300  0.671100  1
  O  O1305  1  0.788200  0.745200  0.981300  1
  O  O1306  1  0.711800  0.245200  0.518700  1
  O  O1307  1  0.211800  0.254800  0.018700  1
  O  O1308  1  0.288200  0.754800  0.481300  1
  O  O1309  1  0.661700  0.780000  0.939000  1
  O  O1310  1  0.838300  0.280000  0.561000  1
  O  O1311  1  0.338300  0.220000  0.061000  1
  O  O1312  1  0.161700  0.720000  0.439000  1
  O  O1313  1  0.651300  0.771500  0.007400  1
  O  O1314  1  0.848700  0.271500  0.492600  1
  O  O1315  1  0.348700  0.228500  0.992600  1
  O  O1316  1  0.151300  0.728500  0.507400  1
  O  O1317  1  0.898700  0.221800  0.081800  1
  O  O1318  1  0.601300  0.721800  0.418200  1
  O  O1319  1  0.101300  0.778200  0.918200  1
  O  O1320  1  0.398700  0.278200  0.581800  1
  O  O1321  1  0.804300  0.207200  0.133100  1
  O  O1322  1  0.695700  0.707200  0.366900  1
  O  O1323  1  0.195700  0.792800  0.866900  1
  O  O1324  1  0.304300  0.292800  0.633100  1
  O  O1325  1  0.738700  0.198400  0.066800  1
  O  O1326  1  0.761300  0.698400  0.433200  1
  O  O1327  1  0.261300  0.801600  0.933200  1
  O  O1328  1  0.238700  0.301600  0.566800  1
  O  O1329  1  0.962900  0.381200  0.823200  1
  O  O1330  1  0.537100  0.881200  0.676800  1
  O  O1331  1  0.037100  0.618800  0.176800  1
  O  O1332  1  0.462900  0.118800  0.323200  1
  O  O1333  1  0.880500  0.395900  0.758400  1
  O  O1334  1  0.619500  0.895900  0.741600  1
  O  O1335  1  0.119500  0.604100  0.241600  1
  O  O1336  1  0.380500  0.104100  0.258400  1
  O  O1337  1  0.904000  0.326800  0.778700  1
  O  O1338  1  0.596000  0.826800  0.721300  1
  O  O1339  1  0.096000  0.673200  0.221300  1
  O  O1340  1  0.404000  0.173200  0.278700  1
  O  O1341  1  0.033000  0.556300  0.751000  1
  O  O1342  1  0.467000  0.056300  0.749000  1
  O  O1343  1  0.967000  0.443700  0.249000  1
  O  O1344  1  0.533000  0.943700  0.251000  1
  O  O1345  1  0.934000  0.595200  0.696100  1
  O  O1346  1  0.566000  0.095200  0.803900  1
  O  O1347  1  0.066000  0.404800  0.303900  1
  O  O1348  1  0.434000  0.904800  0.196100  1
  O  O1349  1  0.095000  0.611000  0.718200  1
  O  O1350  1  0.405000  0.111000  0.781800  1
  O  O1351  1  0.905000  0.389000  0.281800  1
  O  O1352  1  0.595000  0.889000  0.218200  1
  O  O1353  1  0.735700  0.349700  0.973500  1
  O  O1354  1  0.764300  0.849700  0.526500  1
  O  O1355  1  0.264300  0.650300  0.026500  1
  O  O1356  1  0.235700  0.150300  0.473500  1
  F  F1357  1  0.495800  0.625800  0.183700  1
  F  F1358  1  0.004200  0.125800  0.316300  1
  F  F1359  1  0.504200  0.374200  0.816300  1
  F  F1360  1  0.995800  0.874200  0.683700  1
  F  F1361  1  0.433300  0.673100  0.146400  1
  F  F1362  1  0.066700  0.173100  0.353600  1
  F  F1363  1  0.566700  0.326900  0.853600  1
  F  F1364  1  0.933300  0.826900  0.646400  1
  F  F1365  1  0.474800  0.684400  0.206000  1
  F  F1366  1  0.025200  0.184400  0.294000  1
  F  F1367  1  0.525200  0.315600  0.794000  1
  F  F1368  1  0.974800  0.815600  0.706000  1
  F  F1369  1  0.951000  0.846400  0.101700  1
  F  F1370  1  0.549000  0.346400  0.398300  1
  F  F1371  1  0.049000  0.153600  0.898300  1
  F  F1372  1  0.451000  0.653600  0.601700  1
  F  F1373  1  0.101000  0.859400  0.102400  1
  F  F1374  1  0.399000  0.359400  0.397600  1
  F  F1375  1  0.899000  0.140600  0.897600  1
  F  F1376  1  0.601000  0.640600  0.602400  1
  F  F1377  1  0.075000  0.831500  0.152900  1
  F  F1378  1  0.425000  0.331500  0.347100  1
  F  F1379  1  0.925000  0.168500  0.847100  1
  F  F1380  1  0.575000  0.668500  0.652900  1
  F  F1381  1  0.819600  0.818200  0.023600  1
  F  F1382  1  0.680400  0.318200  0.476400  1
  F  F1383  1  0.180400  0.181800  0.976400  1
  F  F1384  1  0.319600  0.681800  0.523600  1
  F  F1385  1  0.836300  0.824300  0.964800  1
  F  F1386  1  0.663700  0.324300  0.535200  1
  F  F1387  1  0.163700  0.175700  0.035200  1
  F  F1388  1  0.336300  0.675700  0.464800  1
  F  F1389  1  0.712500  0.851700  0.988100  1
  F  F1390  1  0.787500  0.351700  0.511900  1
  F  F1391  1  0.287500  0.148300  0.011900  1
  F  F1392  1  0.212500  0.648300  0.488100  1
  F  F1393  1  0.872100  0.140100  0.059300  1
  F  F1394  1  0.627900  0.640100  0.440700  1
  F  F1395  1  0.127900  0.859900  0.940700  1
  F  F1396  1  0.372100  0.359900  0.559300  1
  F  F1397  1  0.913400  0.138800  0.118200  1
  F  F1398  1  0.586600  0.638800  0.381800  1
  F  F1399  1  0.086600  0.861200  0.881800  1
  F  F1400  1  0.413400  0.361200  0.618200  1
  F  F1401  1  0.784100  0.125300  0.101800  1
  F  F1402  1  0.715900  0.625300  0.398200  1
  F  F1403  1  0.215900  0.874700  0.898200  1
  F  F1404  1  0.284100  0.374700  0.601800  1
  F  F1405  1  0.733400  0.344800  0.784000  1
  F  F1406  1  0.766600  0.844800  0.716000  1
  F  F1407  1  0.266600  0.655200  0.216000  1
  F  F1408  1  0.233400  0.155200  0.284000  1
  F  F1409  1  0.745600  0.399900  0.809800  1
  F  F1410  1  0.754400  0.899900  0.690200  1
  F  F1411  1  0.254400  0.600100  0.190200  1
  F  F1412  1  0.245600  0.100100  0.309800  1
  F  F1413  1  0.790700  0.352800  0.841900  1
  F  F1414  1  0.709300  0.852800  0.658100  1
  F  F1415  1  0.209300  0.647200  0.158100  1
  F  F1416  1  0.290700  0.147200  0.341900  1
  F  F1417  1  0.156900  0.556100  0.709200  1
  F  F1418  1  0.343100  0.056100  0.790800  1
  F  F1419  1  0.843100  0.443900  0.290800  1
  F  F1420  1  0.656900  0.943900  0.209200  1
  F  F1421  1  0.079000  0.557400  0.652100  1
  F  F1422  1  0.421000  0.057400  0.847900  1
  F  F1423  1  0.921000  0.442600  0.347900  1
  F  F1424  1  0.579000  0.942600  0.152100  1
  F  F1425  1  0.049000  0.512600  0.689200  1
  F  F1426  1  0.451000  0.012600  0.810800  1
  F  F1427  1  0.951000  0.487400  0.310800  1
  F  F1428  1  0.549000  0.987400  0.189200  1
