# generated using pymatgen
data_Fe20B155.9952H732C1010N142O60F275.9952
_symmetry_space_group_name_H-M   'P 1'
_cell_length_a   29.00700000
_cell_length_b   35.47600000
_cell_length_c   44.20600000
_cell_angle_alpha   100.82800000
_cell_angle_beta   96.64500000
_cell_angle_gamma   96.07000000
_symmetry_Int_Tables_number   1
_chemical_formula_structural   Fe20B155.9952H732C1010N142O60F275.9952
_chemical_formula_sum
'Fe20 B155.9952 H732 C1010 N142 O60 F275.9952'
_cell_volume   43999.67907439
_cell_formula_units_Z   1
loop_
 _symmetry_equiv_pos_site_id
 _symmetry_equiv_pos_as_xyz
  1  'x, y, z'
loop_
 _atom_site_type_symbol
 _atom_site_label
 _atom_site_symmetry_multiplicity
 _atom_site_fract_x
 _atom_site_fract_y
 _atom_site_fract_z
 _atom_site_occupancy
  Fe  Fe1  1  0.212800  0.236900  0.543440  1.0
  Fe  Fe2  1  0.787200  0.763100  0.456560  1.0
  Fe  Fe3  1  0.303840  0.542780  0.421380  1.0
  Fe  Fe4  1  0.696160  0.457220  0.578620  1.0
  Fe  Fe5  1  0.505300  0.458620  0.183020  1.0
  Fe  Fe6  1  0.494700  0.541380  0.816980  1.0
  Fe  Fe7  1  0.537300  0.096820  0.171440  1.0
  Fe  Fe8  1  0.462700  0.903180  0.828560  1.0
  Fe  Fe9  1  0.344220  0.948940  0.380850  1.0
  Fe  Fe10  1  0.655780  0.051060  0.619150  1.0
  Fe  Fe11  1  0.846620  0.179460  0.390900  1.0
  Fe  Fe12  1  0.153380  0.820540  0.609100  1.0
  Fe  Fe13  1  0.934640  0.475300  0.272120  1.0
  Fe  Fe14  1  0.065360  0.524700  0.727880  1.0
  Fe  Fe15  1  0.124000  0.372280  0.031120  1.0
  Fe  Fe16  1  0.876000  0.627720  0.968880  1.0
  Fe  Fe17  1  0.179400  0.007650  0.024460  1.0
  Fe  Fe18  1  0.820600  0.992350  0.975540  1.0
  Fe  Fe19  1  0.975630  0.873790  0.222760  1.0
  Fe  Fe20  1  0.024370  0.126210  0.777240  1.0
  B  B21  1  0.150900  0.293900  0.753300  1.0
  B  B22  1  0.849100  0.706100  0.246700  1.0
  B  B23  1  0.182300  0.334500  0.694800  1.0
  B  B24  1  0.817700  0.665500  0.305200  1.0
  B  B25  1  0.203800  0.292200  0.740900  1.0
  B  B26  1  0.796200  0.707800  0.259100  1.0
  B  B27  1  0.192100  0.336300  0.760000  1.0
  B  B28  1  0.807900  0.663700  0.240000  1.0
  B  B29  1  0.133600  0.337500  0.746300  1.0
  B  B30  1  0.866400  0.662500  0.253700  1.0
  B  B31  1  0.110000  0.293900  0.721800  1.0
  B  B32  1  0.890000  0.706100  0.278200  1.0
  B  B33  1  0.158800  0.265700  0.718900  1.0
  B  B34  1  0.841200  0.734300  0.281100  1.0
  B  B35  1  0.202500  0.290100  0.701800  1.0
  B  B36  1  0.797500  0.709900  0.298200  1.0
  B  B37  1  0.222800  0.335100  0.727800  1.0
  B  B38  1  0.777200  0.664900  0.272200  1.0
  B  B39  1  0.173000  0.362200  0.730700  1.0
  B  B40  1  0.827000  0.637800  0.269300  1.0
  B  B41  1  0.126900  0.335800  0.708000  1.0
  B  B42  1  0.873100  0.664200  0.292000  1.0
  B  B43  1  0.143300  0.292300  0.689200  1.0
  B  B44  1  0.856700  0.707700  0.310800  1.0
  B  B45  1  0.624800  0.190000  0.529500  1.0
  B  B46  1  0.375200  0.810000  0.470500  1.0
  B  B47  1  0.707500  0.257000  0.517500  1.0
  B  B48  1  0.292500  0.743000  0.482500  1.0
  B  B49  1  0.621400  0.210400  0.497800  1.0
  B  B50  1  0.378600  0.789600  0.502200  1.0
  B  B51  1  0.615800  0.239200  0.532700  1.0
  B  B52  1  0.384200  0.760800  0.467300  1.0
  B  B53  1  0.656800  0.225500  0.559300  1.0
  B  B54  1  0.343200  0.774500  0.440700  1.0
  B  B55  1  0.682900  0.187200  0.541000  1.0
  B  B56  1  0.317100  0.812800  0.459000  1.0
  B  B57  1  0.658300  0.179000  0.500300  1.0
  B  B58  1  0.341700  0.821000  0.499700  1.0
  B  B59  1  0.674200  0.221500  0.485700  1.0
  B  B60  1  0.325800  0.778500  0.514300  1.0
  B  B61  1  0.647900  0.259500  0.506600  1.0
  B  B62  1  0.352100  0.740500  0.493400  1.0
  B  B63  1  0.672300  0.265900  0.547500  1.0
  B  B64  1  0.327700  0.734100  0.452500  1.0
  B  B65  1  0.710700  0.234900  0.550400  1.0
  B  B66  1  0.289300  0.765100  0.449600  1.0
  B  B67  1  0.714100  0.208300  0.513300  1.0
  B  B68  1  0.285900  0.791700  0.486700  1.0
  B  B69  1  0.077800  0.202000  0.074000  1.0
  B  B70  1  0.922200  0.798000  0.926000  1.0
  B  B71  1  0.975500  0.149000  0.076100  1.0
  B  B72  1  0.024500  0.851000  0.923900  1.0
  B  B73  1  0.039800  0.180700  0.042000  1.0
  B  B74  1  0.960200  0.819300  0.958000  1.0
  B  B75  1  0.023600  0.219400  0.066200  1.0
  B  B76  1  0.976400  0.780600  0.933800  1.0
  B  B77  1  0.043100  0.212700  0.103300  1.0
  B  B78  1  0.956900  0.787300  0.896700  1.0
  B  B79  1  0.074100  0.173500  0.101300  1.0
  B  B80  1  0.925900  0.826500  0.898700  1.0
  B  B81  1  0.069600  0.153200  0.059700  1.0
  B  B82  1  0.930400  0.846800  0.940300  1.0
  B  B83  1  0.009500  0.137800  0.044600  1.0
  B  B84  1  0.990500  0.862200  0.955400  1.0
  B  B85  1  0.980300  0.179800  0.049100  1.0
  B  B86  1  0.019700  0.820200  0.950900  1.0
  B  B87  1  0.986800  0.199500  0.090900  1.0
  B  B88  1  0.013200  0.800500  0.909100  1.0
  B  B89  1  0.016200  0.171300  0.109300  1.0
  B  B90  1  0.983800  0.828700  0.890700  1.0
  B  B91  1  0.029500  0.132700  0.082400  1.0
  B  B92  1  0.970500  0.867300  0.917600  1.0
  B  B93  1  0.036300  0.984500  0.475100  1.0
  B  B94  1  0.963700  0.015500  0.524900  1.0
  B  B95  1  0.989600  0.001900  0.462800  1.0
  B  B96  1  0.010400  0.998100  0.537200  1.0
  B  B97  1  0.033900  0.033500  0.486600  1.0
  B  B98  1  0.966100  0.966500  0.513400  1.0
  B  B99  1  0.056300  0.007300  0.512200  1.0
  B  B100  1  0.943700  0.992700  0.487800  1.0
  B  B101  1  0.025900  0.960500  0.506100  1.0
  B  B102  1  0.974100  0.039500  0.493900  1.0
  B  B103  1  0.986400  0.953900  0.473900  1.0
  B  B104  1  0.013600  0.046100  0.526100  1.0
  B  B105  1  0.011100  0.478900  0.529100  1.0
  B  B106  1  0.988900  0.521100  0.470900  1.0
  B  B107  1  0.990000  0.450000  0.490200  1.0
  B  B108  1  0.010000  0.550000  0.509800  1.0
  B  B109  1  0.044000  0.471800  0.502300  1.0
  B  B110  1  0.956000  0.528200  0.497700  1.0
  B  B111  1  0.041400  0.517400  0.525900  1.0
  B  B112  1  0.958600  0.482600  0.474100  1.0
  B  B113  1  0.985200  0.517900  0.534400  1.0
  B  B114  1  0.014800  0.482100  0.465600  1.0
  B  B115  1  0.950800  0.479800  0.509200  1.0
  B  B116  1  0.049200  0.520200  0.490800  1.0
  B  B117  1  0.875300  0.078100  0.263090  0.3333
  B  B118  1  0.124700  0.921900  0.736910  0.3333
  B  B119  1  0.870700  0.054800  0.184550  0.3333
  B  B120  1  0.129300  0.945200  0.815450  0.3333
  B  B121  1  0.822260  0.075800  0.237740  0.3333
  B  B122  1  0.177740  0.924200  0.762260  0.3333
  B  B123  1  0.869130  0.113500  0.239410  0.3333
  B  B124  1  0.130870  0.886500  0.760590  0.3333
  B  B125  1  0.923130  0.093200  0.243940  0.3333
  B  B126  1  0.076870  0.906800  0.756060  0.3333
  B  B127  1  0.909560  0.043300  0.245240  0.3333
  B  B128  1  0.090440  0.956700  0.754760  0.3333
  B  B129  1  0.847540  0.032200  0.241390  0.3333
  B  B130  1  0.152460  0.967800  0.758610  0.3333
  B  B131  1  0.823250  0.039300  0.203900  0.3333
  B  B132  1  0.176750  0.960700  0.796100  0.3333
  B  B133  1  0.836770  0.089500  0.202710  0.3333
  B  B134  1  0.163230  0.910500  0.797290  0.3333
  B  B135  1  0.899300  0.100400  0.206760  0.3333
  B  B136  1  0.100700  0.899600  0.793240  0.3333
  B  B137  1  0.924200  0.057100  0.210060  0.3333
  B  B138  1  0.075800  0.942900  0.789940  0.3333
  B  B139  1  0.877400  0.019300  0.208380  0.3333
  B  B140  1  0.122600  0.980700  0.791620  0.3333
  B  B141  1  0.894110  0.088800  0.266850  0.3333
  B  B142  1  0.105890  0.911200  0.733150  0.3333
  B  B143  1  0.917360  0.078500  0.192360  0.3333
  B  B144  1  0.082640  0.921500  0.807640  0.3333
  B  B145  1  0.849830  0.089300  0.235560  0.3333
  B  B146  1  0.150170  0.910700  0.764440  0.3333
  B  B147  1  0.896380  0.128600  0.247280  0.3333
  B  B148  1  0.103620  0.871400  0.752720  0.3333
  B  B149  1  0.949010  0.108640  0.257740  0.3333
  B  B150  1  0.050990  0.891360  0.742260  0.3333
  B  B151  1  0.934830  0.057410  0.252690  0.3333
  B  B152  1  0.065170  0.942590  0.747310  0.3333
  B  B153  1  0.873870  0.045200  0.238990  0.3333
  B  B154  1  0.126130  0.954800  0.761010  0.3333
  B  B155  1  0.862800  0.058200  0.201670  0.3333
  B  B156  1  0.137200  0.941800  0.798330  0.3333
  B  B157  1  0.876890  0.109600  0.206850  0.3333
  B  B158  1  0.123110  0.890400  0.793150  0.3333
  B  B159  1  0.938300  0.121700  0.220800  0.3333
  B  B160  1  0.061700  0.878300  0.779200  0.3333
  B  B161  1  0.962080  0.077900  0.223870  0.3333
  B  B162  1  0.037920  0.922100  0.776130  0.3333
  B  B163  1  0.915600  0.038600  0.212150  0.3333
  B  B164  1  0.084400  0.961400  0.787850  0.3333
  B  B165  1  0.537630  0.271500  0.246660  0.3333
  B  B166  1  0.462370  0.728500  0.753340  0.3333
  B  B167  1  0.565600  0.340300  0.312920  0.3333
  B  B168  1  0.434400  0.659700  0.687080  0.3333
  B  B169  1  0.591700  0.302600  0.254600  0.3333
  B  B170  1  0.408300  0.697400  0.745400  0.3333
  B  B171  1  0.538200  0.321800  0.246260  0.3333
  B  B172  1  0.461800  0.678200  0.753740  0.3333
  B  B173  1  0.494300  0.297390  0.263890  0.3333
  B  B174  1  0.505700  0.702610  0.736110  0.3333
  B  B175  1  0.520600  0.263130  0.282810  0.3333
  B  B176  1  0.479400  0.736870  0.717190  0.3333
  B  B177  1  0.580640  0.266200  0.277260  0.3333
  B  B178  1  0.419360  0.733800  0.722740  0.3333
  B  B179  1  0.608720  0.313800  0.295850  0.3333
  B  B180  1  0.391280  0.686200  0.704150  0.3333
  B  B181  1  0.582300  0.348100  0.276720  0.3333
  B  B182  1  0.417700  0.651900  0.723280  0.3333
  B  B183  1  0.521800  0.344780  0.282270  0.3333
  B  B184  1  0.478200  0.655220  0.717730  0.3333
  B  B185  1  0.511060  0.308900  0.305000  0.3333
  B  B186  1  0.488940  0.691100  0.695000  0.3333
  B  B187  1  0.564590  0.289700  0.313380  0.3333
  B  B188  1  0.435410  0.710300  0.686620  0.3333
  B  B189  1  0.412160  0.124110  0.329400  0.3333
  B  B190  1  0.587840  0.875890  0.670600  0.3333
  B  B191  1  0.530820  0.142870  0.343980  0.3333
  B  B192  1  0.469180  0.857130  0.656020  0.3333
  B  B193  1  0.447870  0.109840  0.300220  0.3333
  B  B194  1  0.552130  0.890160  0.699780  0.3333
  B  B195  1  0.443970  0.160070  0.313640  0.3333
  B  B196  1  0.556030  0.839930  0.686360  0.3333
  B  B197  1  0.441290  0.167670  0.354740  0.3333
  B  B198  1  0.558710  0.832330  0.645260  0.3333
  B  B199  1  0.443220  0.122310  0.366500  0.3333
  B  B200  1  0.556780  0.877690  0.633500  0.3333
  B  B201  1  0.447300  0.086520  0.333120  0.3333
  B  B202  1  0.552700  0.913480  0.666880  0.3333
  B  B203  1  0.501500  0.099040  0.319070  0.3333
  B  B204  1  0.498500  0.900960  0.680930  0.3333
  B  B205  1  0.499340  0.144530  0.307160  0.3333
  B  B206  1  0.500660  0.855470  0.692840  0.3333
  B  B207  1  0.494950  0.180390  0.340880  0.3333
  B  B208  1  0.505050  0.819610  0.659120  0.3333
  B  B209  1  0.494900  0.157240  0.373480  0.3333
  B  B210  1  0.505100  0.842760  0.626520  0.3333
  B  B211  1  0.498800  0.107010  0.360110  0.3333
  B  B212  1  0.501200  0.892990  0.639890  0.3333
  B  B213  1  0.290660  0.228150  0.362220  0.3333
  B  B214  1  0.709340  0.771850  0.637780  0.3333
  B  B215  1  0.291160  0.174160  0.290150  0.3333
  B  B216  1  0.708840  0.825840  0.709850  0.3333
  B  B217  1  0.237760  0.206140  0.337940  0.3333
  B  B218  1  0.762240  0.793860  0.662060  0.3333
  B  B219  1  0.272550  0.245400  0.327810  0.3333
  B  B220  1  0.727450  0.754600  0.672190  0.3333
  B  B221  1  0.333030  0.240090  0.337920  0.3333
  B  B222  1  0.666970  0.759910  0.662080  0.3333
  B  B223  1  0.335420  0.197920  0.354370  0.3333
  B  B224  1  0.664580  0.802080  0.645630  0.3333
  B  B225  1  0.276940  0.176770  0.354430  0.3333
  B  B226  1  0.723060  0.823230  0.645570  0.3333
  B  B227  1  0.249360  0.161980  0.314780  0.3333
  B  B228  1  0.750640  0.838020  0.685220  0.3333
  B  B229  1  0.246840  0.204400  0.298380  0.3333
  B  B230  1  0.753160  0.795600  0.701620  0.3333
  B  B231  1  0.305860  0.225660  0.298530  0.3333
  B  B232  1  0.694140  0.774340  0.701470  0.3333
  B  B233  1  0.344590  0.196260  0.314610  0.3333
  B  B234  1  0.655410  0.803740  0.685390  0.3333
  B  B235  1  0.309860  0.156970  0.324740  0.3333
  B  B236  1  0.690140  0.843030  0.675260  0.3333
  B  B237  1  0.458200  0.192000  0.946420  0.3333
  B  B238  1  0.541800  0.808000  0.053580  0.3333
  B  B239  1  0.402700  0.185700  0.009250  0.3333
  B  B240  1  0.597300  0.814300  0.990750  0.3333
  B  B241  1  0.447100  0.147400  0.958770  0.3333
  B  B242  1  0.552900  0.852600  0.041230  0.3333
  B  B243  1  0.488800  0.185500  0.982170  0.3333
  B  B244  1  0.511200  0.814500  0.017830  0.3333
  B  B245  1  0.466700  0.230500  0.980000  0.3333
  B  B246  1  0.533300  0.769500  0.020000  0.3333
  B  B247  1  0.411800  0.220200  0.955240  0.3333
  B  B248  1  0.588200  0.779800  0.044760  0.3333
  B  B249  1  0.399400  0.169100  0.942090  0.3333
  B  B250  1  0.600600  0.830900  0.057910  0.3333
  B  B251  1  0.393600  0.147500  0.975380  0.3333
  B  B252  1  0.606400  0.852500  0.024620  0.3333
  B  B253  1  0.448900  0.157800  0.000120  0.3333
  B  B254  1  0.551100  0.842200  0.999880  0.3333
  B  B255  1  0.461300  0.209400  0.013160  0.3333
  B  B256  1  0.538700  0.790600  0.986840  0.3333
  B  B257  1  0.413700  0.230700  0.996820  0.3333
  B  B258  1  0.586300  0.769300  0.003180  0.3333
  B  B259  1  0.371900  0.192700  0.973430  0.3333
  B  B260  1  0.628100  0.807300  0.026570  0.3333
  B  B261  1  0.344100  0.384850  0.454350  0.5
  B  B262  1  0.655900  0.615150  0.545650  0.5
  B  B263  1  0.393600  0.301580  0.447830  0.5
  B  B264  1  0.606400  0.698420  0.552170  0.5
  B  B265  1  0.356400  0.362790  0.486860  0.5
  B  B266  1  0.643600  0.637210  0.513140  0.5
  B  B267  1  0.311300  0.339790  0.455790  0.5
  B  B268  1  0.688700  0.660210  0.544210  0.5
  B  B269  1  0.330700  0.347490  0.420000  0.5
  B  B270  1  0.669300  0.652510  0.580000  0.5
  B  B271  1  0.387400  0.375300  0.429020  0.5
  B  B272  1  0.612600  0.624700  0.570980  0.5
  B  B273  1  0.403500  0.384820  0.470130  0.5
  B  B274  1  0.596500  0.615180  0.529870  0.5
  B  B275  1  0.407500  0.339340  0.481920  0.5
  B  B276  1  0.592500  0.660660  0.518080  0.5
  B  B277  1  0.350500  0.311550  0.472950  0.5
  B  B278  1  0.649500  0.688450  0.527050  0.5
  B  B279  1  0.334400  0.302250  0.431520  0.5
  B  B280  1  0.665600  0.697750  0.568480  0.5
  B  B281  1  0.381400  0.323800  0.415010  0.5
  B  B282  1  0.618600  0.676200  0.584990  0.5
  B  B283  1  0.426500  0.346800  0.446040  0.5
  B  B284  1  0.573500  0.653200  0.553960  0.5
  H  H285  1  0.964500  0.593600  0.307400  1.0
  H  H286  1  0.035500  0.406400  0.692600  1.0
  H  H287  1  0.993600  0.645100  0.286300  1.0
  H  H288  1  0.006400  0.354900  0.713700  1.0
  H  H289  1  0.071700  0.575000  0.236600  1.0
  H  H290  1  0.928300  0.425000  0.763400  1.0
  H  H291  1  0.042500  0.523900  0.257900  1.0
  H  H292  1  0.957500  0.476100  0.742100  1.0
  H  H293  1  0.059200  0.701100  0.250400  1.0
  H  H294  1  0.940800  0.298900  0.749600  1.0
  H  H295  1  0.028000  0.684800  0.273800  1.0
  H  H296  1  0.972000  0.315200  0.726200  1.0
  H  H297  1  0.006900  0.680500  0.238100  1.0
  H  H298  1  0.993100  0.319500  0.761900  1.0
  H  H299  1  0.999700  0.547400  0.340200  1.0
  H  H300  1  0.000300  0.452600  0.659800  1.0
  H  H301  1  0.978000  0.512900  0.384000  1.0
  H  H302  1  0.022000  0.487100  0.616000  1.0
  H  H303  1  0.936700  0.459900  0.398400  1.0
  H  H304  1  0.063300  0.540100  0.601600  1.0
  H  H305  1  0.897800  0.413400  0.307500  1.0
  H  H306  1  0.102200  0.586600  0.692500  1.0
  H  H307  1  0.867000  0.258800  0.375000  1.0
  H  H308  1  0.133000  0.741200  0.625000  1.0
  H  H309  1  0.770900  0.320900  0.411500  1.0
  H  H310  1  0.229100  0.679100  0.588500  1.0
  H  H311  1  0.738800  0.265600  0.427800  1.0
  H  H312  1  0.261200  0.734400  0.572200  1.0
  H  H313  1  0.740200  0.191700  0.428400  1.0
  H  H314  1  0.259800  0.808300  0.571600  1.0
  H  H315  1  0.761700  0.151200  0.460000  1.0
  H  H316  1  0.238300  0.848800  0.540000  1.0
  H  H317  1  0.739200  0.091800  0.473000  1.0
  H  H318  1  0.260800  0.908200  0.527000  1.0
  H  H319  1  0.753700  0.036200  0.386400  1.0
  H  H320  1  0.246300  0.963800  0.613600  1.0
  H  H321  1  0.776700  0.096000  0.373700  1.0
  H  H322  1  0.223300  0.904000  0.626300  1.0
  H  H323  1  0.722800  0.993800  0.397600  1.0
  H  H324  1  0.277200  0.006200  0.602400  1.0
  H  H325  1  0.708700  0.969800  0.423100  1.0
  H  H326  1  0.291300  0.030200  0.576900  1.0
  H  H327  1  0.762700  0.980900  0.420200  1.0
  H  H328  1  0.237300  0.019100  0.579800  1.0
  H  H329  1  0.841100  0.201600  0.487300  1.0
  H  H330  1  0.158900  0.798400  0.512700  1.0
  H  H331  1  0.836600  0.257500  0.523800  1.0
  H  H332  1  0.163400  0.742500  0.476200  1.0
  H  H333  1  0.904000  0.321700  0.471500  1.0
  H  H334  1  0.096000  0.678300  0.528500  1.0
  H  H335  1  0.909400  0.265600  0.435700  1.0
  H  H336  1  0.090600  0.734400  0.564300  1.0
  H  H337  1  0.903700  0.167700  0.466700  1.0
  H  H338  1  0.096300  0.832300  0.533300  1.0
  H  H339  1  0.919000  0.096100  0.451200  1.0
  H  H340  1  0.081000  0.903900  0.548800  1.0
  H  H341  1  0.917100  0.041200  0.411700  1.0
  H  H342  1  0.082900  0.958800  0.588300  1.0
  H  H343  1  0.858900  0.100100  0.350800  1.0
  H  H344  1  0.141100  0.899900  0.649200  1.0
  H  H345  1  0.940300  0.941100  0.264000  1.0
  H  H346  1  0.059700  0.058900  0.736000  1.0
  H  H347  1  0.834800  0.892200  0.301200  1.0
  H  H348  1  0.165200  0.107800  0.698800  1.0
  H  H349  1  0.840500  0.832600  0.268800  1.0
  H  H350  1  0.159500  0.167400  0.731200  1.0
  H  H351  1  0.882300  0.793900  0.226200  1.0
  H  H352  1  0.117700  0.206100  0.773800  1.0
  H  H353  1  0.952800  0.755900  0.227500  1.0
  H  H354  1  0.047200  0.244100  0.772500  1.0
  H  H355  1  0.976200  0.701400  0.198000  1.0
  H  H356  1  0.023800  0.298600  0.802000  1.0
  H  H357  1  0.975400  0.753800  0.124100  1.0
  H  H358  1  0.024600  0.246200  0.875900  1.0
  H  H359  1  0.952100  0.808700  0.153700  1.0
  H  H360  1  0.047900  0.191300  0.846300  1.0
  H  H361  1  0.981800  0.703700  0.103500  1.0
  H  H362  1  0.018200  0.296300  0.896500  1.0
  H  H363  1  0.976800  0.657800  0.100900  1.0
  H  H364  1  0.023200  0.342200  0.899100  1.0
  H  H365  1  0.027400  0.682900  0.109500  1.0
  H  H366  1  0.972600  0.317100  0.890500  1.0
  H  H367  1  0.003800  0.907300  0.302500  1.0
  H  H368  1  0.996200  0.092700  0.697500  1.0
  H  H369  1  0.977800  0.904300  0.350100  1.0
  H  H370  1  0.022200  0.095700  0.649900  1.0
  H  H371  1  0.963700  0.787600  0.328400  1.0
  H  H372  1  0.036300  0.212400  0.671600  1.0
  H  H373  1  0.986800  0.789900  0.280000  1.0
  H  H374  1  0.013200  0.210100  0.720000  1.0
  H  H375  1  0.914600  0.795700  0.364500  1.0
  H  H376  1  0.085400  0.204300  0.635500  1.0
  H  H377  1  0.927500  0.815900  0.400400  1.0
  H  H378  1  0.072500  0.184100  0.599600  1.0
  H  H379  1  0.966400  0.796900  0.382000  1.0
  H  H380  1  0.033600  0.203100  0.618000  1.0
  H  H381  1  0.061900  0.820400  0.260900  1.0
  H  H382  1  0.938100  0.179600  0.739100  1.0
  H  H383  1  0.110700  0.805000  0.215500  1.0
  H  H384  1  0.889300  0.195000  0.784500  1.0
  H  H385  1  0.131700  0.820400  0.168800  1.0
  H  H386  1  0.868300  0.179600  0.831200  1.0
  H  H387  1  0.020900  0.879400  0.164200  1.0
  H  H388  1  0.979100  0.120600  0.835800  1.0
  H  H389  1  0.146100  0.957300  0.070600  1.0
  H  H390  1  0.853900  0.042700  0.929400  1.0
  H  H391  1  0.112700  0.849300  0.019200  1.0
  H  H392  1  0.887300  0.150700  0.980800  1.0
  H  H393  1  0.131200  0.873900  0.975700  1.0
  H  H394  1  0.868800  0.126100  0.024300  1.0
  H  H395  1  0.160600  0.933000  0.953100  1.0
  H  H396  1  0.839400  0.067000  0.046900  1.0
  H  H397  1  0.245300  0.978000  0.950900  1.0
  H  H398  1  0.754700  0.022000  0.049100  1.0
  H  H399  1  0.266300  0.005400  0.909400  1.0
  H  H400  1  0.733700  0.994600  0.090600  1.0
  H  H401  1  0.151600  0.061200  0.910300  1.0
  H  H402  1  0.848400  0.938800  0.089700  1.0
  H  H403  1  0.131800  0.034800  0.952400  1.0
  H  H404  1  0.868200  0.965200  0.047600  1.0
  H  H405  1  0.204000  0.079800  0.849100  1.0
  H  H406  1  0.796000  0.920200  0.150900  1.0
  H  H407  1  0.160900  0.056200  0.859900  1.0
  H  H408  1  0.839100  0.943800  0.140100  1.0
  H  H409  1  0.188600  0.094500  0.882400  1.0
  H  H410  1  0.811400  0.905500  0.117600  1.0
  H  H411  1  0.235700  0.953900  0.072500  1.0
  H  H412  1  0.764300  0.046100  0.927500  1.0
  H  H413  1  0.267400  0.897900  0.079100  1.0
  H  H414  1  0.732600  0.102100  0.920900  1.0
  H  H415  1  0.320900  0.894000  0.998200  1.0
  H  H416  1  0.679100  0.106000  0.001800  1.0
  H  H417  1  0.289200  0.950000  0.991700  1.0
  H  H418  1  0.710800  0.050000  0.008300  1.0
  H  H419  1  0.347300  0.824200  0.064500  1.0
  H  H420  1  0.652700  0.175800  0.935500  1.0
  H  H421  1  0.346800  0.866900  0.084100  1.0
  H  H422  1  0.653200  0.133100  0.915900  1.0
  H  H423  1  0.299100  0.837800  0.073900  1.0
  H  H424  1  0.700900  0.162200  0.926100  1.0
  H  H425  1  0.303900  0.016400  0.022800  1.0
  H  H426  1  0.696100  0.983600  0.977200  1.0
  H  H427  1  0.318200  0.086100  0.012400  1.0
  H  H428  1  0.681800  0.913900  0.987600  1.0
  H  H429  1  0.285800  0.141900  0.003900  1.0
  H  H430  1  0.714200  0.858100  0.996100  1.0
  H  H431  1  0.160100  0.090500  0.014900  1.0
  H  H432  1  0.839900  0.909500  0.985100  1.0
  H  H433  1  0.143000  0.288900  0.027700  1.0
  H  H434  1  0.857000  0.711100  0.972300  1.0
  H  H435  1  0.135800  0.242500  0.936500  1.0
  H  H436  1  0.864200  0.757500  0.063500  1.0
  H  H437  1  0.113700  0.300900  0.925400  1.0
  H  H438  1  0.886300  0.699100  0.074600  1.0
  H  H439  1  0.099600  0.371700  0.946300  1.0
  H  H440  1  0.900400  0.628300  0.053700  1.0
  H  H441  1  0.139800  0.437400  0.958900  1.0
  H  H442  1  0.860200  0.562600  0.041100  1.0
  H  H443  1  0.128100  0.501900  0.958700  1.0
  H  H444  1  0.871900  0.498100  0.041300  1.0
  H  H445  1  0.030300  0.494200  0.016400  1.0
  H  H446  1  0.969700  0.505800  0.983600  1.0
  H  H447  1  0.043300  0.430600  0.017700  1.0
  H  H448  1  0.956700  0.569400  0.982300  1.0
  H  H449  1  0.098400  0.582600  0.965300  1.0
  H  H450  1  0.901600  0.417400  0.034700  1.0
  H  H451  1  0.136200  0.555500  0.974400  1.0
  H  H452  1  0.863800  0.444500  0.025600  1.0
  H  H453  1  0.096700  0.540000  0.944900  1.0
  H  H454  1  0.903300  0.460000  0.055100  1.0
  H  H455  1  0.226200  0.333333  0.025000  1.0
  H  H456  1  0.773800  0.666667  0.975000  1.0
  H  H457  1  0.275300  0.305800  0.991100  1.0
  H  H458  1  0.724700  0.694200  0.008900  1.0
  H  H459  1  0.273700  0.397400  0.948600  1.0
  H  H460  1  0.726300  0.602600  0.051400  1.0
  H  H461  1  0.225400  0.425100  0.982700  1.0
  H  H462  1  0.774600  0.574900  0.017300  1.0
  H  H463  1  0.287900  0.278500  0.947000  1.0
  H  H464  1  0.712100  0.721500  0.053000  1.0
  H  H465  1  0.340500  0.295400  0.962200  1.0
  H  H466  1  0.659500  0.704600  0.037800  1.0
  H  H467  1  0.327200  0.284900  0.925200  1.0
  H  H468  1  0.672800  0.715100  0.074800  1.0
  H  H469  1  0.226400  0.447500  0.039800  1.0
  H  H470  1  0.773600  0.552500  0.960200  1.0
  H  H471  1  0.199300  0.501200  0.079300  1.0
  H  H472  1  0.800700  0.498800  0.920700  1.0
  H  H473  1  0.144500  0.519300  0.112900  1.0
  H  H474  1  0.855500  0.480700  0.887100  1.0
  H  H475  1  0.068800  0.414700  0.079800  1.0
  H  H476  1  0.931200  0.585300  0.920200  1.0
  H  H477  1  0.983000  0.464100  0.213300  1.0
  H  H478  1  0.017000  0.535900  0.786700  1.0
  H  H479  1  0.935400  0.540700  0.164700  1.0
  H  H480  1  0.064600  0.459300  0.835300  1.0
  H  H481  1  0.886600  0.558300  0.202400  1.0
  H  H482  1  0.113400  0.441700  0.797600  1.0
  H  H483  1  0.859200  0.548600  0.255200  1.0
  H  H484  1  0.140800  0.451400  0.744800  1.0
  H  H485  1  0.879700  0.576400  0.314600  1.0
  H  H486  1  0.120300  0.423600  0.685400  1.0
  H  H487  1  0.833900  0.588900  0.354000  1.0
  H  H488  1  0.166100  0.411100  0.646000  1.0
  H  H489  1  0.784600  0.474900  0.338800  1.0
  H  H490  1  0.215400  0.525100  0.661200  1.0
  H  H491  1  0.830400  0.462500  0.299100  1.0
  H  H492  1  0.169600  0.537500  0.700900  1.0
  H  H493  1  0.713900  0.507400  0.356600  1.0
  H  H494  1  0.286100  0.492600  0.643400  1.0
  H  H495  1  0.723200  0.524200  0.393300  1.0
  H  H496  1  0.276800  0.475800  0.606700  1.0
  H  H497  1  0.752100  0.491200  0.378200  1.0
  H  H498  1  0.247900  0.508800  0.621800  1.0
  H  H499  1  0.362100  0.831600  0.383300  1.0
  H  H500  1  0.637900  0.168400  0.616700  1.0
  H  H501  1  0.394800  0.788400  0.348300  1.0
  H  H502  1  0.605200  0.211600  0.651700  1.0
  H  H503  1  0.482600  0.876500  0.332300  1.0
  H  H504  1  0.517400  0.123500  0.667700  1.0
  H  H505  1  0.450500  0.920000  0.367600  1.0
  H  H506  1  0.549500  0.080000  0.632400  1.0
  H  H507  1  0.380800  0.883100  0.432300  1.0
  H  H508  1  0.619200  0.116900  0.567700  1.0
  H  H509  1  0.345200  0.913100  0.481900  1.0
  H  H510  1  0.654800  0.086900  0.518100  1.0
  H  H511  1  0.304500  0.962000  0.505700  1.0
  H  H512  1  0.695500  0.038000  0.494300  1.0
  H  H513  1  0.293000  0.001800  0.425800  1.0
  H  H514  1  0.707000  0.998200  0.574200  1.0
  H  H515  1  0.242500  0.155700  0.519700  1.0
  H  H516  1  0.757500  0.844300  0.480300  1.0
  H  H517  1  0.132500  0.077400  0.522000  1.0
  H  H518  1  0.867500  0.922600  0.478000  1.0
  H  H519  1  0.090200  0.129400  0.537200  1.0
  H  H520  1  0.909800  0.870600  0.462800  1.0
  H  H521  1  0.086600  0.203000  0.547800  1.0
  H  H522  1  0.913400  0.797000  0.452200  1.0
  H  H523  1  0.107300  0.257000  0.598500  1.0
  H  H524  1  0.892700  0.743000  0.401500  1.0
  H  H525  1  0.076800  0.313600  0.617600  1.0
  H  H526  1  0.923200  0.686400  0.382400  1.0
  H  H527  1  0.100400  0.354100  0.540700  1.0
  H  H528  1  0.899600  0.645900  0.459300  1.0
  H  H529  1  0.130400  0.297800  0.521000  1.0
  H  H530  1  0.869600  0.702200  0.479000  1.0
  H  H531  1  0.024600  0.394300  0.618600  1.0
  H  H532  1  0.975400  0.605700  0.381400  1.0
  H  H533  1  0.073000  0.387300  0.636700  1.0
  H  H534  1  0.927000  0.612700  0.363300  1.0
  H  H535  1  0.034000  0.351300  0.621300  1.0
  H  H536  1  0.966000  0.648700  0.378700  1.0
  H  H537  1  0.264800  0.178600  0.582400  1.0
  H  H538  1  0.735200  0.821400  0.417600  1.0
  H  H539  1  0.262000  0.128000  0.609000  1.0
  H  H540  1  0.738000  0.872000  0.391000  1.0
  H  H541  1  0.163300  0.173900  0.656300  1.0
  H  H542  1  0.836700  0.826100  0.343700  1.0
  H  H543  1  0.168200  0.226000  0.631400  1.0
  H  H544  1  0.831800  0.774000  0.368600  1.0
  H  H545  1  0.235300  0.073100  0.631000  1.0
  H  H546  1  0.764700  0.926900  0.369000  1.0
  H  H547  1  0.243600  0.077500  0.668000  1.0
  H  H548  1  0.756400  0.922500  0.332000  1.0
  H  H549  1  0.275000  0.105400  0.651700  1.0
  H  H550  1  0.725000  0.894600  0.348300  1.0
  H  H551  1  0.222600  0.280100  0.626500  1.0
  H  H552  1  0.777400  0.719900  0.373500  1.0
  H  H553  1  0.229500  0.352400  0.623000  1.0
  H  H554  1  0.770500  0.647600  0.377000  1.0
  H  H555  1  0.234100  0.398800  0.591200  1.0
  H  H556  1  0.765900  0.601200  0.408800  1.0
  H  H557  1  0.230800  0.311900  0.517600  1.0
  H  H558  1  0.769200  0.688100  0.482400  1.0
  H  H559  1  0.288100  0.478500  0.460300  1.0
  H  H560  1  0.711900  0.521500  0.539700  1.0
  H  H561  1  0.156100  0.479900  0.480300  1.0
  H  H562  1  0.843900  0.520100  0.519700  1.0
  H  H563  1  0.146400  0.527200  0.450300  1.0
  H  H564  1  0.853600  0.472800  0.549700  1.0
  H  H565  1  0.183500  0.572400  0.416700  1.0
  H  H566  1  0.816500  0.427600  0.583300  1.0
  H  H567  1  0.263500  0.566200  0.350400  1.0
  H  H568  1  0.736500  0.433800  0.649600  1.0
  H  H569  1  0.262500  0.614200  0.321000  1.0
  H  H570  1  0.737500  0.385800  0.679000  1.0
  H  H571  1  0.225600  0.687300  0.393300  1.0
  H  H572  1  0.774400  0.312700  0.606700  1.0
  H  H573  1  0.227300  0.639600  0.422900  1.0
  H  H574  1  0.772700  0.360400  0.577100  1.0
  H  H575  1  0.258200  0.730300  0.368400  1.0
  H  H576  1  0.741800  0.269700  0.631600  1.0
  H  H577  1  0.204300  0.719300  0.353600  1.0
  H  H578  1  0.795700  0.280700  0.646400  1.0
  H  H579  1  0.241500  0.737100  0.334300  1.0
  H  H580  1  0.758500  0.262900  0.665700  1.0
  H  H581  1  0.629400  0.152900  0.153400  1.0
  H  H582  1  0.370600  0.847100  0.846600  1.0
  H  H583  1  0.665100  0.175800  0.114400  1.0
  H  H584  1  0.334900  0.824200  0.885600  1.0
  H  H585  1  0.642600  0.068100  0.061200  1.0
  H  H586  1  0.357400  0.931900  0.938800  1.0
  H  H587  1  0.609100  0.044600  0.100700  1.0
  H  H588  1  0.390900  0.955400  0.899300  1.0
  H  H589  1  0.718100  0.176700  0.049000  1.0
  H  H590  1  0.281900  0.823300  0.951000  1.0
  H  H591  1  0.714100  0.182600  0.085300  1.0
  H  H592  1  0.285900  0.817400  0.914700  1.0
  H  H593  1  0.672400  0.191400  0.061700  1.0
  H  H594  1  0.327600  0.808600  0.938300  1.0
  H  H595  1  0.626300  0.040100  0.152100  1.0
  H  H596  1  0.373700  0.959900  0.847900  1.0
  H  H597  1  0.613200  0.990400  0.187400  1.0
  H  H598  1  0.386800  0.009600  0.812600  1.0
  H  H599  1  0.570000  0.969100  0.224300  1.0
  H  H600  1  0.430000  0.030900  0.775700  1.0
  H  H601  1  0.496100  0.058700  0.222700  1.0
  H  H602  1  0.503900  0.941300  0.777300  1.0
  H  H603  1  0.407300  0.974700  0.335500  1.0
  H  H604  1  0.592700  0.025300  0.664500  1.0
  H  H605  1  0.376400  0.892400  0.257200  1.0
  H  H606  1  0.623600  0.107600  0.742800  1.0
  H  H607  1  0.318800  0.861200  0.280800  1.0
  H  H608  1  0.681200  0.138800  0.719200  1.0
  H  H609  1  0.270900  0.865400  0.327500  1.0
  H  H610  1  0.729100  0.134600  0.672500  1.0
  H  H611  1  0.269100  0.835900  0.370500  1.0
  H  H612  1  0.730900  0.164100  0.629500  1.0
  H  H613  1  0.212500  0.810000  0.397300  1.0
  H  H614  1  0.787500  0.190000  0.602700  1.0
  H  H615  1  0.173600  0.916400  0.422600  1.0
  H  H616  1  0.826400  0.083600  0.577400  1.0
  H  H617  1  0.230600  0.942600  0.396600  1.0
  H  H618  1  0.769400  0.057400  0.603400  1.0
  H  H619  1  0.146300  0.793200  0.413500  1.0
  H  H620  1  0.853700  0.206800  0.586500  1.0
  H  H621  1  0.119700  0.806300  0.442700  1.0
  H  H622  1  0.880300  0.193700  0.557300  1.0
  H  H623  1  0.175300  0.807000  0.447600  1.0
  H  H624  1  0.824700  0.193000  0.552400  1.0
  H  H625  1  0.279500  0.647400  0.477200  1.0
  H  H626  1  0.720500  0.352600  0.522800  1.0
  H  H627  1  0.235700  0.656300  0.518300  1.0
  H  H628  1  0.764300  0.343700  0.481700  1.0
  H  H629  1  0.272700  0.557400  0.541700  1.0
  H  H630  1  0.727300  0.442600  0.458300  1.0
  H  H631  1  0.318400  0.549600  0.501500  1.0
  H  H632  1  0.681600  0.450400  0.498500  1.0
  H  H633  1  0.201000  0.557500  0.556800  1.0
  H  H634  1  0.799000  0.442500  0.443200  1.0
  H  H635  1  0.179600  0.587400  0.581500  1.0
  H  H636  1  0.820400  0.412600  0.418500  1.0
  H  H637  1  0.234300  0.583700  0.586300  1.0
  H  H638  1  0.765700  0.416300  0.413700  1.0
  H  H639  1  0.354800  0.643500  0.461900  1.0
  H  H640  1  0.645200  0.356500  0.538100  1.0
  H  H641  1  0.405400  0.660100  0.420100  1.0
  H  H642  1  0.594600  0.339900  0.579900  1.0
  H  H643  1  0.427200  0.641700  0.370300  1.0
  H  H644  1  0.572800  0.358300  0.629700  1.0
  H  H645  1  0.349600  0.538200  0.361600  1.0
  H  H646  1  0.650400  0.461800  0.638400  1.0
  H  H647  1  0.475400  0.504300  0.241600  1.0
  H  H648  1  0.524600  0.495700  0.758400  1.0
  H  H649  1  0.388700  0.576600  0.214200  1.0
  H  H650  1  0.611300  0.423400  0.785800  1.0
  H  H651  1  0.393900  0.549200  0.162300  1.0
  H  H652  1  0.606100  0.450800  0.837700  1.0
  H  H653  1  0.425800  0.496800  0.123300  1.0
  H  H654  1  0.574200  0.503200  0.876700  1.0
  H  H655  1  0.487100  0.489600  0.091400  1.0
  H  H656  1  0.512900  0.510400  0.908600  1.0
  H  H657  1  0.502600  0.457300  0.043400  1.0
  H  H658  1  0.497400  0.542700  0.956600  1.0
  H  H659  1  0.478600  0.354600  0.070200  1.0
  H  H660  1  0.521400  0.645400  0.929800  1.0
  H  H661  1  0.463600  0.387200  0.118200  1.0
  H  H662  1  0.536400  0.612800  0.881800  1.0
  H  H663  1  0.497600  0.339000  0.991300  1.0
  H  H664  1  0.502400  0.661000  0.008700  1.0
  H  H665  1  0.513000  0.334800  0.026300  1.0
  H  H666  1  0.487000  0.665200  0.973700  1.0
  H  H667  1  0.459100  0.335900  0.014200  1.0
  H  H668  1  0.540900  0.664100  0.985800  1.0
  H  H669  1  0.446900  0.017300  0.161000  1.0
  H  H670  1  0.553100  0.982700  0.839000  1.0
  H  H671  1  0.429700  0.950700  0.156800  1.0
  H  H672  1  0.570300  0.049300  0.843200  1.0
  H  H673  1  0.520900  0.932300  0.094500  1.0
  H  H674  1  0.479100  0.067700  0.905500  1.0
  H  H675  1  0.536300  0.999000  0.097400  1.0
  H  H676  1  0.463700  0.001000  0.902600  1.0
  H  H677  1  0.476100  0.054400  0.092900  1.0
  H  H678  1  0.523900  0.945600  0.907100  1.0
  H  H679  1  0.477300  0.116300  0.070600  1.0
  H  H680  1  0.522700  0.883700  0.929400  1.0
  H  H681  1  0.494000  0.184100  0.079200  1.0
  H  H682  1  0.506000  0.815900  0.920800  1.0
  H  H683  1  0.550000  0.183500  0.166800  1.0
  H  H684  1  0.450000  0.816500  0.833200  1.0
  H  H685  1  0.517200  0.373200  0.172600  1.0
  H  H686  1  0.482800  0.626800  0.827400  1.0
  H  H687  1  0.624300  0.359600  0.123100  1.0
  H  H688  1  0.375700  0.640400  0.876900  1.0
  H  H689  1  0.638100  0.427400  0.128500  1.0
  H  H690  1  0.361900  0.572600  0.871500  1.0
  H  H691  1  0.610300  0.494800  0.148700  1.0
  H  H692  1  0.389700  0.505200  0.851300  1.0
  H  H693  1  0.561800  0.546600  0.225900  1.0
  H  H694  1  0.438200  0.453400  0.774100  1.0
  H  H695  1  0.550700  0.611700  0.233600  1.0
  H  H696  1  0.449300  0.388300  0.766400  1.0
  H  H697  1  0.542200  0.607000  0.141000  1.0
  H  H698  1  0.457800  0.393000  0.859000  1.0
  H  H699  1  0.554400  0.542000  0.133400  1.0
  H  H700  1  0.445600  0.458000  0.866600  1.0
  H  H701  1  0.536300  0.697900  0.170300  1.0
  H  H702  1  0.463700  0.302100  0.829700  1.0
  H  H703  1  0.565500  0.665800  0.154200  1.0
  H  H704  1  0.434500  0.334200  0.845800  1.0
  H  H705  1  0.509800  0.656900  0.151400  1.0
  H  H706  1  0.490200  0.343100  0.848600  1.0
  H  H707  1  0.410900  0.576700  0.458500  1.0
  H  H708  1  0.589100  0.423300  0.541500  1.0
  H  H709  1  0.468800  0.592000  0.501500  1.0
  H  H710  1  0.531200  0.408000  0.498500  1.0
  H  H711  1  0.432600  0.487700  0.522100  1.0
  H  H712  1  0.567400  0.512300  0.477900  1.0
  H  H713  1  0.378200  0.470400  0.476800  1.0
  H  H714  1  0.621800  0.529600  0.523200  1.0
  H  H715  1  0.469900  0.511500  0.559000  1.0
  H  H716  1  0.530100  0.488500  0.441000  1.0
  H  H717  1  0.507600  0.543900  0.581500  1.0
  H  H718  1  0.492400  0.456100  0.418500  1.0
  H  H719  1  0.524200  0.513100  0.555000  1.0
  H  H720  1  0.475800  0.486900  0.445000  1.0
  H  H721  1  0.381400  0.464400  0.418800  1.0
  H  H722  1  0.618600  0.535600  0.581200  1.0
  H  H723  1  0.338900  0.418300  0.368500  1.0
  H  H724  1  0.661100  0.581700  0.631500  1.0
  H  H725  1  0.270400  0.401300  0.331800  1.0
  H  H726  1  0.729600  0.598700  0.668200  1.0
  H  H727  1  0.231200  0.505300  0.364900  1.0
  H  H728  1  0.768800  0.494700  0.635100  1.0
  H  H729  1  0.040200  0.470000  0.288100  1.0
  H  H730  1  0.959800  0.530000  0.711900  1.0
  H  H731  1  0.058500  0.361400  0.250400  1.0
  H  H732  1  0.941500  0.638600  0.749600  1.0
  H  H733  1  0.978100  0.349200  0.232000  1.0
  H  H734  1  0.021900  0.650800  0.768000  1.0
  H  H735  1  0.897300  0.374500  0.229200  1.0
  H  H736  1  0.102700  0.625500  0.770800  1.0
  H  H737  1  0.839800  0.462600  0.215200  1.0
  H  H738  1  0.160200  0.537400  0.784800  1.0
  H  H739  1  0.759500  0.452300  0.199700  1.0
  H  H740  1  0.240500  0.547700  0.800300  1.0
  H  H741  1  0.746400  0.371500  0.252800  1.0
  H  H742  1  0.253600  0.628500  0.747200  1.0
  H  H743  1  0.827500  0.378900  0.265400  1.0
  H  H744  1  0.172500  0.621100  0.734600  1.0
  H  H745  1  0.636800  0.377300  0.217800  1.0
  H  H746  1  0.363200  0.622700  0.782200  1.0
  H  H747  1  0.667000  0.395600  0.250900  1.0
  H  H748  1  0.333000  0.604400  0.749100  1.0
  H  H749  1  0.681400  0.358300  0.229500  1.0
  H  H750  1  0.318600  0.641700  0.770500  1.0
  H  H751  1  0.073000  0.959700  0.986100  1.0
  H  H752  1  0.927000  0.040300  0.013900  1.0
  H  H753  1  0.014400  0.952300  0.943900  1.0
  H  H754  1  0.985600  0.047700  0.056100  1.0
  H  H755  1  0.016700  0.068900  0.958400  1.0
  H  H756  1  0.983300  0.931100  0.041600  1.0
  H  H757  1  0.076600  0.076300  0.000100  1.0
  H  H758  1  0.923400  0.923700  0.999900  1.0
  H  H759  1  0.981300  0.050900  0.907500  1.0
  H  H760  1  0.018700  0.949100  0.092500  1.0
  H  H761  1  0.943900  0.049500  0.931300  1.0
  H  H762  1  0.056100  0.950500  0.068700  1.0
  H  H763  1  0.931200  0.025500  0.896300  1.0
  H  H764  1  0.068800  0.974500  0.103700  1.0
  H  H765  1  0.074400  0.048600  0.051900  1.0
  H  H766  1  0.925600  0.951400  0.948100  1.0
  H  H767  1  0.108000  0.075300  0.110300  1.0
  H  H768  1  0.892000  0.924700  0.889700  1.0
  H  H769  1  0.174600  0.088800  0.148200  1.0
  H  H770  1  0.825400  0.911200  0.851800  1.0
  H  H771  1  0.247400  0.031800  0.086100  1.0
  H  H772  1  0.752600  0.968200  0.913900  1.0
  H  H773  1  0.430000  0.077800  0.161800  1.0
  H  H774  1  0.570000  0.922200  0.838200  1.0
  H  H775  1  0.385900  0.144900  0.233800  1.0
  H  H776  1  0.614100  0.855100  0.766200  1.0
  H  H777  1  0.464500  0.168700  0.252900  1.0
  H  H778  1  0.535500  0.831300  0.747100  1.0
  H  H779  1  0.551300  0.172700  0.243400  1.0
  H  H780  1  0.448700  0.827300  0.756600  1.0
  H  H781  1  0.645100  0.106800  0.222300  1.0
  H  H782  1  0.354900  0.893200  0.777700  1.0
  H  H783  1  0.722800  0.136000  0.233200  1.0
  H  H784  1  0.277200  0.864000  0.766800  1.0
  H  H785  1  0.680700  0.239000  0.223400  1.0
  H  H786  1  0.319300  0.761000  0.776600  1.0
  H  H787  1  0.602700  0.209700  0.213300  1.0
  H  H788  1  0.397300  0.790300  0.786700  1.0
  H  H789  1  0.781200  0.159500  0.229300  1.0
  H  H790  1  0.218800  0.840500  0.770700  1.0
  H  H791  1  0.794900  0.186000  0.263400  1.0
  H  H792  1  0.205100  0.814000  0.736600  1.0
  H  H793  1  0.818600  0.197500  0.234900  1.0
  H  H794  1  0.181400  0.802500  0.765100  1.0
  H  H795  1  0.861200  0.849800  0.184200  1.0
  H  H796  1  0.138800  0.150200  0.815800  1.0
  H  H797  1  0.808000  0.823600  0.139700  1.0
  H  H798  1  0.192000  0.176400  0.860300  1.0
  H  H799  1  0.896400  0.870200  0.087700  1.0
  H  H800  1  0.103600  0.129800  0.912300  1.0
  H  H801  1  0.947900  0.898400  0.132700  1.0
  H  H802  1  0.052100  0.101600  0.867300  1.0
  H  H803  1  0.756400  0.827900  0.095200  1.0
  H  H804  1  0.243600  0.172100  0.904800  1.0
  H  H805  1  0.778000  0.788000  0.093700  1.0
  H  H806  1  0.222000  0.212000  0.906300  1.0
  H  H807  1  0.757800  0.800300  0.062200  1.0
  H  H808  1  0.242200  0.199700  0.937800  1.0
  H  H809  1  0.941100  0.945700  0.178500  1.0
  H  H810  1  0.058900  0.054300  0.821500  1.0
  H  H811  1  0.996700  0.006200  0.211000  1.0
  H  H812  1  0.003300  0.993800  0.789000  1.0
  H  H813  1  0.062100  0.029600  0.249100  1.0
  H  H814  1  0.937900  0.970400  0.750900  1.0
  H  H815  1  0.060700  0.922100  0.266800  1.0
  H  H816  1  0.939300  0.077900  0.733200  1.0
  H  H817  1  0.248600  0.962000  0.348000  1.0
  H  H818  1  0.751400  0.038000  0.652000  1.0
  H  H819  1  0.264000  0.074300  0.341000  1.0
  H  H820  1  0.736000  0.925700  0.659000  1.0
  H  H821  1  0.340200  0.081000  0.368000  1.0
  H  H822  1  0.659800  0.919000  0.632000  1.0
  H  H823  1  0.406400  0.047300  0.392000  1.0
  H  H824  1  0.593600  0.952700  0.608000  1.0
  H  H825  1  0.469600  0.022500  0.374600  1.0
  H  H826  1  0.530400  0.977500  0.625400  1.0
  H  H827  1  0.548500  0.023100  0.392800  1.0
  H  H828  1  0.451500  0.976900  0.607200  1.0
  H  H829  1  0.511500  0.966000  0.459300  1.0
  H  H830  1  0.488500  0.034000  0.540700  1.0
  H  H831  1  0.432400  0.964800  0.440800  1.0
  H  H832  1  0.567600  0.035200  0.559200  1.0
  H  H833  1  0.615500  0.011000  0.408600  1.0
  H  H834  1  0.384500  0.989000  0.591400  1.0
  H  H835  1  0.649000  0.007400  0.439100  1.0
  H  H836  1  0.351000  0.992600  0.560900  1.0
  H  H837  1  0.619500  0.043100  0.439900  1.0
  H  H838  1  0.380500  0.956900  0.560100  1.0
  H  H839  1  0.312600  0.275600  0.593000  1.0
  H  H840  1  0.687400  0.724400  0.407000  1.0
  H  H841  1  0.375800  0.269000  0.628300  1.0
  H  H842  1  0.624200  0.731000  0.371700  1.0
  H  H843  1  0.398400  0.172500  0.570200  1.0
  H  H844  1  0.601600  0.827500  0.429800  1.0
  H  H845  1  0.336600  0.179800  0.534400  1.0
  H  H846  1  0.663400  0.820200  0.465600  1.0
  H  H847  1  0.465600  0.237000  0.665100  1.0
  H  H848  1  0.534400  0.763000  0.334900  1.0
  H  H849  1  0.446200  0.269000  0.647500  1.0
  H  H850  1  0.553800  0.731000  0.352500  1.0
  H  H851  1  0.411300  0.242400  0.662700  1.0
  H  H852  1  0.588700  0.757600  0.337300  1.0
  H  H853  1  0.317300  0.227100  0.503600  1.0
  H  H854  1  0.682700  0.772900  0.496400  1.0
  H  H855  1  0.279900  0.228500  0.447000  1.0
  H  H856  1  0.720100  0.771500  0.553000  1.0
  H  H857  1  0.211600  0.230700  0.413400  1.0
  H  H858  1  0.788400  0.769300  0.586600  1.0
  H  H859  1  0.139700  0.237200  0.486500  1.0
  H  H860  1  0.860300  0.762800  0.513500  1.0
  H  H861  1  0.952000  0.212100  0.408900  1.0
  H  H862  1  0.048000  0.787900  0.591100  1.0
  H  H863  1  0.004200  0.208700  0.328000  1.0
  H  H864  1  0.995800  0.791300  0.672000  1.0
  H  H865  1  0.927900  0.187300  0.301600  1.0
  H  H866  1  0.072100  0.812700  0.698400  1.0
  H  H867  1  0.841500  0.163900  0.305400  1.0
  H  H868  1  0.158500  0.836100  0.694600  1.0
  H  H869  1  0.739600  0.188600  0.355600  1.0
  H  H870  1  0.260400  0.811400  0.644400  1.0
  H  H871  1  0.664000  0.161700  0.333200  1.0
  H  H872  1  0.336000  0.838300  0.666800  1.0
  H  H873  1  0.716400  0.071700  0.284200  1.0
  H  H874  1  0.283600  0.928300  0.715800  1.0
  H  H875  1  0.792200  0.099200  0.306400  1.0
  H  H876  1  0.207800  0.900800  0.693600  1.0
  H  H877  1  0.620200  0.459200  0.210500  1.0
  H  H878  1  0.379800  0.540800  0.789500  1.0
  H  H879  1  0.687800  0.495600  0.239600  1.0
  H  H880  1  0.312200  0.504400  0.760400  1.0
  H  H881  1  0.613200  0.534100  0.308400  1.0
  H  H882  1  0.386800  0.465900  0.691600  1.0
  H  H883  1  0.545500  0.499000  0.278700  1.0
  H  H884  1  0.454500  0.501000  0.721300  1.0
  H  H885  1  0.740500  0.506800  0.269300  1.0
  H  H886  1  0.259500  0.493200  0.730700  1.0
  H  H887  1  0.765800  0.548400  0.287600  1.0
  H  H888  1  0.234200  0.451600  0.712400  1.0
  H  H889  1  0.731200  0.544700  0.256000  1.0
  H  H890  1  0.268800  0.455300  0.744000  1.0
  H  H891  1  0.521900  0.422700  0.255800  1.0
  H  H892  1  0.478100  0.577300  0.744200  1.0
  H  H893  1  0.447300  0.371400  0.246500  1.0
  H  H894  1  0.552700  0.628600  0.753500  1.0
  H  H895  1  0.374800  0.346000  0.216700  1.0
  H  H896  1  0.625200  0.654000  0.783300  1.0
  H  H897  1  0.406600  0.410700  0.154500  1.0
  H  H898  1  0.593400  0.589300  0.845500  1.0
  H  H899  1  0.211600  0.366100  0.076600  1.0
  H  H900  1  0.788400  0.633900  0.923400  1.0
  H  H901  1  0.163300  0.304000  0.136500  1.0
  H  H902  1  0.836700  0.696000  0.863500  1.0
  H  H903  1  0.087400  0.301000  0.110400  1.0
  H  H904  1  0.912600  0.699000  0.889600  1.0
  H  H905  1  0.034000  0.318600  0.065300  1.0
  H  H906  1  0.966000  0.681400  0.934700  1.0
  H  H907  1  0.031400  0.324200  0.977800  1.0
  H  H908  1  0.968600  0.675800  0.022200  1.0
  H  H909  1  0.960000  0.326100  0.948400  1.0
  H  H910  1  0.040000  0.673900  0.051600  1.0
  H  H911  1  0.910200  0.372400  0.027000  1.0
  H  H912  1  0.089800  0.627600  0.973000  1.0
  H  H913  1  0.981900  0.370400  0.056200  1.0
  H  H914  1  0.018100  0.629600  0.943800  1.0
  H  H915  1  0.856400  0.338100  0.922200  1.0
  H  H916  1  0.143600  0.661900  0.077800  1.0
  H  H917  1  0.911500  0.351700  0.925800  1.0
  H  H918  1  0.088500  0.648300  0.074200  1.0
  H  H919  1  0.892700  0.309200  0.929900  1.0
  H  H920  1  0.107300  0.690800  0.070100  1.0
  H  H921  1  0.838000  0.038400  0.485900  1.0
  H  H922  1  0.162000  0.961600  0.514100  1.0
  H  H923  1  0.799500  0.056300  0.505400  1.0
  H  H924  1  0.200500  0.943700  0.494600  1.0
  H  H925  1  0.849300  0.051500  0.522900  1.0
  H  H926  1  0.150700  0.948500  0.477100  1.0
  H  H927  1  0.931200  0.141600  0.578100  1.0
  H  H928  1  0.068800  0.858400  0.421900  1.0
  H  H929  1  0.972100  0.115100  0.581800  1.0
  H  H930  1  0.027900  0.884900  0.418200  1.0
  H  H931  1  0.935200  0.106000  0.550700  1.0
  H  H932  1  0.064800  0.894000  0.449300  1.0
  H  H933  1  0.019000  0.271500  0.537800  1.0
  H  H934  1  0.981000  0.728500  0.462200  1.0
  H  H935  1  0.975500  0.238600  0.534500  1.0
  H  H936  1  0.024500  0.761400  0.465500  1.0
  H  H937  1  0.969500  0.275700  0.519400  1.0
  H  H938  1  0.030500  0.724300  0.480600  1.0
  H  H939  1  0.868400  0.258200  0.251100  1.0
  H  H940  1  0.131600  0.741800  0.748900  1.0
  H  H941  1  0.873400  0.253700  0.286700  1.0
  H  H942  1  0.126600  0.746300  0.713300  1.0
  H  H943  1  0.919000  0.258000  0.269800  1.0
  H  H944  1  0.081000  0.742000  0.730200  1.0
  H  H945  1  0.103100  0.093300  0.589300  1.0
  H  H946  1  0.896900  0.906700  0.410700  1.0
  H  H947  1  0.110500  0.100200  0.626400  1.0
  H  H948  1  0.889500  0.899800  0.373600  1.0
  H  H949  1  0.069100  0.068700  0.606600  1.0
  H  H950  1  0.930900  0.931300  0.393400  1.0
  H  H951  1  0.023700  0.349600  0.345700  1.0
  H  H952  1  0.976300  0.650400  0.654300  1.0
  H  H953  1  0.981700  0.347000  0.318300  1.0
  H  H954  1  0.018300  0.653000  0.681700  1.0
  H  H955  1  0.018500  0.316500  0.315000  1.0
  H  H956  1  0.981500  0.683500  0.685000  1.0
  H  H957  1  0.144700  0.448000  0.596600  1.0
  H  H958  1  0.855300  0.552000  0.403400  1.0
  H  H959  1  0.125500  0.425400  0.561900  1.0
  H  H960  1  0.874500  0.574600  0.438100  1.0
  H  H961  1  0.106000  0.464600  0.575800  1.0
  H  H962  1  0.894000  0.535400  0.424200  1.0
  H  H963  1  0.504300  0.394500  0.581000  1.0
  H  H964  1  0.495700  0.605500  0.419000  1.0
  H  H965  1  0.489500  0.412200  0.551100  1.0
  H  H966  1  0.510500  0.587800  0.448900  1.0
  H  H967  1  0.459800  0.417600  0.579600  1.0
  H  H968  1  0.540200  0.582400  0.420400  1.0
  H  H969  1  0.076400  0.342900  0.379800  1.0
  H  H970  1  0.923600  0.657100  0.620200  1.0
  H  H971  1  0.084400  0.306400  0.395200  1.0
  H  H972  1  0.915600  0.693600  0.604800  1.0
  H  H973  1  0.121700  0.344700  0.404700  1.0
  H  H974  1  0.878300  0.655300  0.595300  1.0
  H  H975  1  0.192300  0.198900  0.084700  1.0
  H  H976  1  0.807700  0.801100  0.915300  1.0
  H  H977  1  0.239900  0.211200  0.108400  1.0
  H  H978  1  0.760100  0.788800  0.891600  1.0
  H  H979  1  0.194100  0.191900  0.119500  1.0
  H  H980  1  0.805900  0.808100  0.880500  1.0
  H  H981  1  0.848900  0.346200  0.565000  0.39
  H  H982  1  0.151100  0.653800  0.435000  0.39
  H  H983  1  0.819200  0.306000  0.547000  0.39
  H  H984  1  0.180800  0.694000  0.453000  0.39
  H  H985  1  0.872600  0.307100  0.561500  0.39
  H  H986  1  0.127400  0.692900  0.438500  0.39
  H  H987  1  0.425900  0.856500  0.141100  0.41
  H  H988  1  0.574100  0.143500  0.858900  0.41
  H  H989  1  0.441500  0.896400  0.165700  0.41
  H  H990  1  0.558500  0.103600  0.834300  0.41
  H  H991  1  0.400300  0.893600  0.137600  0.41
  H  H992  1  0.599700  0.106400  0.862400  0.41
  H  H993  1  0.571200  0.102800  0.288500  0.42
  H  H994  1  0.428800  0.897200  0.711500  0.42
  H  H995  1  0.598700  0.118500  0.322800  0.42
  H  H996  1  0.401300  0.881500  0.677200  0.42
  H  H997  1  0.603500  0.143800  0.296600  0.42
  H  H998  1  0.396500  0.856200  0.703400  0.42
  H  H999  1  0.509300  0.798300  0.287900  0.5
  H  H1000  1  0.490700  0.201700  0.712100  0.5
  H  H1001  1  0.487300  0.838100  0.290200  0.5
  H  H1002  1  0.512700  0.161900  0.709800  0.5
  H  H1003  1  0.524600  0.832200  0.318000  0.5
  H  H1004  1  0.475400  0.167800  0.682000  0.5
  H  H1005  1  0.452500  0.752000  0.289100  0.5
  H  H1006  1  0.547500  0.248000  0.710900  0.5
  H  H1007  1  0.428900  0.753600  0.320200  0.5
  H  H1008  1  0.571100  0.246400  0.679800  0.5
  H  H1009  1  0.405200  0.771000  0.292300  0.5
  H  H1010  1  0.594800  0.229000  0.707700  0.5
  H  H1011  1  0.584000  0.180100  0.303600  0.5
  H  H1012  1  0.416000  0.819900  0.696400  0.5
  H  H1013  1  0.591100  0.152600  0.328200  0.5
  H  H1014  1  0.408900  0.847400  0.671800  0.5
  H  H1015  1  0.548600  0.177900  0.328600  0.5
  H  H1016  1  0.451400  0.822100  0.671400  0.5
  H  H1017  1  0.450300  0.232600  0.184800  0.5
  H  H1018  1  0.549700  0.767400  0.815200  0.5
  H  H1019  1  0.400000  0.221800  0.194900  0.5
  H  H1020  1  0.600000  0.778200  0.805100  0.5
  H  H1021  1  0.404100  0.241800  0.165500  0.5
  H  H1022  1  0.595900  0.758200  0.834500  0.5
  H  H1023  1  0.463200  0.671300  0.302800  0.5
  H  H1024  1  0.536800  0.328700  0.697200  0.5
  H  H1025  1  0.487700  0.712900  0.351100  0.5
  H  H1026  1  0.512300  0.287100  0.648900  0.5
  H  H1027  1  0.432300  0.734900  0.382400  0.5
  H  H1028  1  0.567700  0.265100  0.617600  0.5
  H  H1029  1  0.352400  0.715300  0.365400  0.5
  H  H1030  1  0.647600  0.284700  0.634600  0.5
  H  H1031  1  0.327900  0.673700  0.317100  0.5
  H  H1032  1  0.672100  0.326300  0.682900  0.5
  H  H1033  1  0.383300  0.651700  0.285900  0.5
  H  H1034  1  0.616700  0.348300  0.714100  0.5
  H  H1035  1  0.600400  0.050200  0.271700  0.58
  H  H1036  1  0.399600  0.949800  0.728300  0.58
  H  H1037  1  0.653900  0.052800  0.265700  0.58
  H  H1038  1  0.346100  0.947200  0.734300  0.58
  H  H1039  1  0.640400  0.046400  0.298700  0.58
  H  H1040  1  0.359600  0.953600  0.701300  0.58
  H  H1041  1  0.481900  0.852300  0.143900  0.59
  H  H1042  1  0.518100  0.147700  0.856100  0.59
  H  H1043  1  0.525200  0.884200  0.143700  0.59
  H  H1044  1  0.474800  0.115800  0.856300  0.59
  H  H1045  1  0.488900  0.892900  0.168000  0.59
  H  H1046  1  0.511100  0.107100  0.832000  0.59
  H  H1047  1  0.876000  0.385700  0.531400  0.61
  H  H1048  1  0.124000  0.614300  0.468600  0.61
  H  H1049  1  0.913000  0.366100  0.511500  0.61
  H  H1050  1  0.087000  0.633900  0.488500  0.61
  H  H1051  1  0.860900  0.366900  0.495300  0.61
  H  H1052  1  0.139100  0.633100  0.504700  0.61
  C  C1053  1  0.000000  0.553400  0.284300  1.0
  C  C1054  1  0.000000  0.446600  0.715700  1.0
  C  C1055  1  0.986100  0.589800  0.292800  1.0
  C  C1056  1  0.013900  0.410200  0.707200  1.0
  C  C1057  1  0.003400  0.620300  0.280400  1.0
  C  C1058  1  0.996600  0.379700  0.719600  1.0
  C  C1059  1  0.035100  0.615000  0.259200  1.0
  C  C1060  1  0.964900  0.385000  0.740800  1.0
  C  C1061  1  0.049700  0.578800  0.250900  1.0
  C  C1062  1  0.950300  0.421200  0.749100  1.0
  C  C1063  1  0.032300  0.548500  0.263500  1.0
  C  C1064  1  0.967700  0.451500  0.736500  1.0
  C  C1065  1  0.035300  0.680500  0.252400  1.0
  C  C1066  1  0.964700  0.319500  0.747600  1.0
  C  C1067  1  0.982900  0.525300  0.326200  1.0
  C  C1068  1  0.017100  0.474700  0.673800  1.0
  C  C1069  1  0.959400  0.492900  0.337400  1.0
  C  C1070  1  0.040600  0.507100  0.662600  1.0
  C  C1071  1  0.960900  0.492300  0.368700  1.0
  C  C1072  1  0.039100  0.507700  0.631300  1.0
  C  C1073  1  0.937000  0.460800  0.377100  1.0
  C  C1074  1  0.063000  0.539200  0.622900  1.0
  C  C1075  1  0.913100  0.430400  0.353900  1.0
  C  C1076  1  0.086900  0.569600  0.646100  1.0
  C  C1077  1  0.913900  0.434000  0.323400  1.0
  C  C1078  1  0.086100  0.566000  0.676600  1.0
  C  C1079  1  0.889700  0.395500  0.362800  1.0
  C  C1080  1  0.110300  0.604500  0.637200  1.0
  C  C1081  1  0.843200  0.380900  0.351800  1.0
  C  C1082  1  0.156800  0.619100  0.648200  1.0
  C  C1083  1  0.821700  0.348900  0.360700  1.0
  C  C1084  1  0.178300  0.651100  0.639300  1.0
  C  C1085  1  0.845100  0.330200  0.381500  1.0
  C  C1086  1  0.154900  0.669800  0.618500  1.0
  C  C1087  1  0.891400  0.345100  0.392700  1.0
  C  C1088  1  0.108600  0.654900  0.607300  1.0
  C  C1089  1  0.913000  0.376700  0.383400  1.0
  C  C1090  1  0.087000  0.623300  0.616600  1.0
  C  C1091  1  0.840600  0.260400  0.385800  1.0
  C  C1092  1  0.159400  0.739600  0.614200  1.0
  C  C1093  1  0.822600  0.295500  0.391100  1.0
  C  C1094  1  0.177400  0.704500  0.608900  1.0
  C  C1095  1  0.784100  0.297400  0.407200  1.0
  C  C1096  1  0.215900  0.702600  0.592800  1.0
  C  C1097  1  0.765000  0.264800  0.416900  1.0
  C  C1098  1  0.235000  0.735200  0.583100  1.0
  C  C1099  1  0.785300  0.231000  0.410100  1.0
  C  C1100  1  0.214700  0.769000  0.589900  1.0
  C  C1101  1  0.766700  0.194200  0.417800  1.0
  C  C1102  1  0.233300  0.805800  0.582200  1.0
  C  C1103  1  0.772500  0.129400  0.415800  1.0
  C  C1104  1  0.227500  0.870600  0.584200  1.0
  C  C1105  1  0.760600  0.127900  0.445100  1.0
  C  C1106  1  0.239400  0.872100  0.554900  1.0
  C  C1107  1  0.747300  0.092700  0.452900  1.0
  C  C1108  1  0.252700  0.907300  0.547100  1.0
  C  C1109  1  0.745800  0.058800  0.431100  1.0
  C  C1110  1  0.254200  0.941200  0.568900  1.0
  C  C1111  1  0.755900  0.059500  0.401400  1.0
  C  C1112  1  0.244100  0.940500  0.598600  1.0
  C  C1113  1  0.769400  0.095100  0.394000  1.0
  C  C1114  1  0.230600  0.904900  0.606000  1.0
  C  C1115  1  0.731700  0.989600  0.418600  1.0
  C  C1116  1  0.268300  0.010400  0.581400  1.0
  C  C1117  1  0.875000  0.228400  0.457900  1.0
  C  C1118  1  0.125000  0.771600  0.542100  1.0
  C  C1119  1  0.853700  0.226100  0.484100  1.0
  C  C1120  1  0.146300  0.773900  0.515900  1.0
  C  C1121  1  0.850800  0.259300  0.505700  1.0
  C  C1122  1  0.149200  0.740700  0.494300  1.0
  C  C1123  1  0.868800  0.295100  0.500700  1.0
  C  C1124  1  0.131200  0.704900  0.499300  1.0
  C  C1125  1  0.891000  0.297300  0.474700  1.0
  C  C1126  1  0.109000  0.702700  0.525300  1.0
  C  C1127  1  0.894100  0.264000  0.453400  1.0
  C  C1128  1  0.105900  0.736000  0.546600  1.0
  C  C1129  1  0.891800  0.165500  0.445500  1.0
  C  C1130  1  0.108200  0.834500  0.554500  1.0
  C  C1131  1  0.890500  0.129300  0.422800  1.0
  C  C1132  1  0.109500  0.870700  0.577200  1.0
  C  C1133  1  0.907000  0.096400  0.430300  1.0
  C  C1134  1  0.093000  0.903600  0.569700  1.0
  C  C1135  1  0.905800  0.063900  0.407000  1.0
  C  C1136  1  0.094200  0.936100  0.593000  1.0
  C  C1137  1  0.887900  0.065200  0.376500  1.0
  C  C1138  1  0.112100  0.934800  0.623500  1.0
  C  C1139  1  0.871400  0.099200  0.371400  1.0
  C  C1140  1  0.128600  0.900800  0.628600  1.0
  C  C1141  1  0.887200  0.031000  0.350900  1.0
  C  C1142  1  0.112800  0.969000  0.649100  1.0
  C  C1143  1  0.846500  0.011500  0.332900  1.0
  C  C1144  1  0.153500  0.988500  0.667100  1.0
  C  C1145  1  0.846100  0.977100  0.312000  1.0
  C  C1146  1  0.153900  0.022900  0.688000  1.0
  C  C1147  1  0.886800  0.961000  0.307600  1.0
  C  C1148  1  0.113200  0.039000  0.692400  1.0
  C  C1149  1  0.927800  0.981700  0.324800  1.0
  C  C1150  1  0.072200  0.018300  0.675200  1.0
  C  C1151  1  0.928100  0.015600  0.345900  1.0
  C  C1152  1  0.071900  0.984400  0.654100  1.0
  C  C1153  1  0.920300  0.918700  0.265600  1.0
  C  C1154  1  0.079700  0.081300  0.734400  1.0
  C  C1155  1  0.888000  0.923000  0.286400  1.0
  C  C1156  1  0.112000  0.077000  0.713600  1.0
  C  C1157  1  0.857700  0.890400  0.287500  1.0
  C  C1158  1  0.142300  0.109600  0.712500  1.0
  C  C1159  1  0.861300  0.855100  0.268500  1.0
  C  C1160  1  0.138700  0.144900  0.731500  1.0
  C  C1161  1  0.895300  0.853200  0.249200  1.0
  C  C1162  1  0.104700  0.146800  0.750800  1.0
  C  C1163  1  0.902300  0.817500  0.228200  1.0
  C  C1164  1  0.097700  0.182500  0.771800  1.0
  C  C1165  1  0.950100  0.787400  0.193400  1.0
  C  C1166  1  0.049900  0.212600  0.806600  1.0
  C  C1167  1  0.957300  0.755500  0.206500  1.0
  C  C1168  1  0.042700  0.244500  0.793500  1.0
  C  C1169  1  0.971100  0.723100  0.189000  1.0
  C  C1170  1  0.028900  0.276900  0.811000  1.0
  C  C1171  1  0.977400  0.722500  0.158400  1.0
  C  C1172  1  0.022600  0.277500  0.841600  1.0
  C  C1173  1  0.970600  0.754300  0.145100  1.0
  C  C1174  1  0.029400  0.245700  0.854900  1.0
  C  C1175  1  0.956900  0.786800  0.162600  1.0
  C  C1176  1  0.043100  0.213200  0.837400  1.0
  C  C1177  1  0.994200  0.682600  0.112000  1.0
  C  C1178  1  0.005800  0.317400  0.888000  1.0
  C  C1179  1  0.997100  0.848900  0.286400  1.0
  C  C1180  1  0.002900  0.151100  0.713600  1.0
  C  C1181  1  0.995000  0.882900  0.307600  1.0
  C  C1182  1  0.005000  0.117100  0.692400  1.0
  C  C1183  1  0.980000  0.881100  0.335900  1.0
  C  C1184  1  0.020000  0.118900  0.664100  1.0
  C  C1185  1  0.968100  0.845700  0.343600  1.0
  C  C1186  1  0.031900  0.154300  0.656400  1.0
  C  C1187  1  0.971200  0.811900  0.322900  1.0
  C  C1188  1  0.028800  0.188100  0.677100  1.0
  C  C1189  1  0.985200  0.813200  0.294300  1.0
  C  C1190  1  0.014800  0.186800  0.705700  1.0
  C  C1191  1  0.939300  0.811100  0.380400  1.0
  C  C1192  1  0.060700  0.188900  0.619600  1.0
  C  C1193  1  0.044600  0.834100  0.247900  1.0
  C  C1194  1  0.955400  0.165900  0.752100  1.0
  C  C1195  1  0.055400  0.836000  0.216600  1.0
  C  C1196  1  0.944600  0.164000  0.783400  1.0
  C  C1197  1  0.093300  0.821000  0.204800  1.0
  C  C1198  1  0.906700  0.179000  0.795200  1.0
  C  C1199  1  0.105300  0.829700  0.177100  1.0
  C  C1200  1  0.894700  0.170300  0.822900  1.0
  C  C1201  1  0.078200  0.852200  0.161600  1.0
  C  C1202  1  0.921800  0.147800  0.838400  1.0
  C  C1203  1  0.039900  0.864500  0.175000  1.0
  C  C1204  1  0.960100  0.135500  0.825000  1.0
  C  C1205  1  0.090600  0.863600  0.132400  1.0
  C  C1206  1  0.909400  0.136400  0.867600  1.0
  C  C1207  1  0.057900  0.860200  0.106200  1.0
  C  C1208  1  0.942100  0.139800  0.893800  1.0
  C  C1209  1  0.069400  0.871800  0.079600  1.0
  C  C1210  1  0.930600  0.128200  0.920400  1.0
  C  C1211  1  0.114800  0.887700  0.078100  1.0
  C  C1212  1  0.885200  0.112300  0.921900  1.0
  C  C1213  1  0.147600  0.891200  0.104200  1.0
  C  C1214  1  0.852400  0.108800  0.895800  1.0
  C  C1215  1  0.135700  0.879500  0.130600  1.0
  C  C1216  1  0.864300  0.120500  0.869400  1.0
  C  C1217  1  0.142700  0.940000  0.051000  1.0
  C  C1218  1  0.857300  0.060000  0.949000  1.0
  C  C1219  1  0.127100  0.901400  0.049800  1.0
  C  C1220  1  0.872900  0.098600  0.950200  1.0
  C  C1221  1  0.122900  0.876100  0.021100  1.0
  C  C1222  1  0.877100  0.123900  0.978900  1.0
  C  C1223  1  0.133900  0.890600  0.995400  1.0
  C  C1224  1  0.866100  0.109400  0.004600  1.0
  C  C1225  1  0.148700  0.929800  0.999000  1.0
  C  C1226  1  0.851300  0.070200  0.001000  1.0
  C  C1227  1  0.161700  0.948000  0.973400  1.0
  C  C1228  1  0.838300  0.052000  0.026600  1.0
  C  C1229  1  0.186200  0.003600  0.955100  1.0
  C  C1230  1  0.813800  0.996400  0.044900  1.0
  C  C1231  1  0.226200  0.994900  0.942600  1.0
  C  C1232  1  0.773800  0.005100  0.057400  1.0
  C  C1233  1  0.238600  0.011000  0.917900  1.0
  C  C1234  1  0.761400  0.989000  0.082100  1.0
  C  C1235  1  0.210300  0.035100  0.905700  1.0
  C  C1236  1  0.789700  0.964900  0.094300  1.0
  C  C1237  1  0.170600  0.044300  0.918500  1.0
  C  C1238  1  0.829400  0.955700  0.081500  1.0
  C  C1239  1  0.158900  0.028500  0.943400  1.0
  C  C1240  1  0.841100  0.971500  0.056600  1.0
  C  C1241  1  0.191700  0.071700  0.866900  1.0
  C  C1242  1  0.808300  0.928300  0.133100  1.0
  C  C1243  1  0.259300  0.957800  0.031500  1.0
  C  C1244  1  0.740700  0.042200  0.968500  1.0
  C  C1245  1  0.253100  0.941800  0.057400  1.0
  C  C1246  1  0.746900  0.058200  0.942600  1.0
  C  C1247  1  0.271800  0.908500  0.061300  1.0
  C  C1248  1  0.728200  0.091500  0.938700  1.0
  C  C1249  1  0.296800  0.890500  0.039300  1.0
  C  C1250  1  0.703200  0.109500  0.960700  1.0
  C  C1251  1  0.303500  0.906100  0.013300  1.0
  C  C1252  1  0.696500  0.093900  0.986700  1.0
  C  C1253  1  0.284700  0.939500  0.009500  1.0
  C  C1254  1  0.715300  0.060500  0.990500  1.0
  C  C1255  1  0.329300  0.846100  0.067700  1.0
  C  C1256  1  0.670700  0.153900  0.932300  1.0
  C  C1257  1  0.271900  0.019900  0.022600  1.0
  C  C1258  1  0.728100  0.980100  0.977400  1.0
  C  C1259  1  0.256200  0.056600  0.017900  1.0
  C  C1260  1  0.743800  0.943400  0.982100  1.0
  C  C1261  1  0.285700  0.087500  0.012700  1.0
  C  C1262  1  0.714300  0.912500  0.987300  1.0
  C  C1263  1  0.266400  0.120500  0.007800  1.0
  C  C1264  1  0.733600  0.879500  0.992200  1.0
  C  C1265  1  0.218900  0.122300  0.008800  1.0
  C  C1266  1  0.781100  0.877700  0.991200  1.0
  C  C1267  1  0.192600  0.089800  0.014200  1.0
  C  C1268  1  0.807400  0.910200  0.985800  1.0
  C  C1269  1  0.196900  0.157200  0.004100  1.0
  C  C1270  1  0.803100  0.842800  0.995900  1.0
  C  C1271  1  0.155500  0.155000  0.984300  1.0
  C  C1272  1  0.844500  0.845000  0.015700  1.0
  C  C1273  1  0.137600  0.187700  0.978500  1.0
  C  C1274  1  0.862400  0.812300  0.021500  1.0
  C  C1275  1  0.159900  0.224600  0.992100  1.0
  C  C1276  1  0.840100  0.775400  0.007900  1.0
  C  C1277  1  0.200200  0.226900  0.012900  1.0
  C  C1278  1  0.799800  0.773100  0.987100  1.0
  C  C1279  1  0.217900  0.194100  0.018700  1.0
  C  C1280  1  0.782100  0.805900  0.981300  1.0
  C  C1281  1  0.137200  0.291300  0.006600  1.0
  C  C1282  1  0.862800  0.708700  0.993400  1.0
  C  C1283  1  0.142400  0.259900  0.983800  1.0
  C  C1284  1  0.857600  0.740100  0.016200  1.0
  C  C1285  1  0.133200  0.263400  0.952900  1.0
  C  C1286  1  0.866800  0.736600  0.047100  1.0
  C  C1287  1  0.120100  0.297900  0.946300  1.0
  C  C1288  1  0.879900  0.702100  0.053700  1.0
  C  C1289  1  0.116500  0.327700  0.970800  1.0
  C  C1290  1  0.883500  0.672300  0.029200  1.0
  C  C1291  1  0.105200  0.365900  0.966400  1.0
  C  C1292  1  0.894800  0.634100  0.033600  1.0
  C  C1293  1  0.093300  0.428500  0.988800  1.0
  C  C1294  1  0.906700  0.571500  0.011200  1.0
  C  C1295  1  0.118100  0.449200  0.970900  1.0
  C  C1296  1  0.881900  0.550800  0.029100  1.0
  C  C1297  1  0.110900  0.487200  0.970500  1.0
  C  C1298  1  0.889100  0.512800  0.029500  1.0
  C  C1299  1  0.078300  0.503300  0.987700  1.0
  C  C1300  1  0.921700  0.496700  0.012300  1.0
  C  C1301  1  0.052900  0.482700  0.005000  1.0
  C  C1302  1  0.947100  0.517300  0.995000  1.0
  C  C1303  1  0.060500  0.445100  0.005700  1.0
  C  C1304  1  0.939500  0.554900  0.994300  1.0
  C  C1305  1  0.103500  0.555900  0.966000  1.0
  C  C1306  1  0.896500  0.444100  0.034000  1.0
  C  C1307  1  0.220400  0.381300  0.006700  1.0
  C  C1308  1  0.779600  0.618700  0.993300  1.0
  C  C1309  1  0.235700  0.346200  0.009300  1.0
  C  C1310  1  0.764300  0.653800  0.990700  1.0
  C  C1311  1  0.264900  0.329900  0.989300  1.0
  C  C1312  1  0.735100  0.670100  0.010700  1.0
  C  C1313  1  0.278700  0.349000  0.966600  1.0
  C  C1314  1  0.721300  0.651000  0.033400  1.0
  C  C1315  1  0.264000  0.384400  0.964100  1.0
  C  C1316  1  0.736000  0.615600  0.035900  1.0
  C  C1317  1  0.235100  0.400700  0.984200  1.0
  C  C1318  1  0.764900  0.599300  0.015800  1.0
  C  C1319  1  0.316100  0.295000  0.944800  1.0
  C  C1320  1  0.683900  0.705000  0.055200  1.0
  C  C1321  1  0.198200  0.432100  0.041200  1.0
  C  C1322  1  0.801800  0.567900  0.958800  1.0
  C  C1323  1  0.164300  0.447200  0.060900  1.0
  C  C1324  1  0.835700  0.552800  0.939100  1.0
  C  C1325  1  0.172200  0.483800  0.079800  1.0
  C  C1326  1  0.827800  0.516200  0.920200  1.0
  C  C1327  1  0.139800  0.494500  0.099600  1.0
  C  C1328  1  0.860200  0.505500  0.900400  1.0
  C  C1329  1  0.100300  0.468400  0.099600  1.0
  C  C1330  1  0.899700  0.531600  0.900400  1.0
  C  C1331  1  0.095500  0.432700  0.079800  1.0
  C  C1332  1  0.904500  0.567300  0.920200  1.0
  C  C1333  1  0.065400  0.478600  0.121000  1.0
  C  C1334  1  0.934600  0.521400  0.879000  1.0
  C  C1335  1  0.018100  0.476200  0.111000  1.0
  C  C1336  1  0.981900  0.523800  0.889000  1.0
  C  C1337  1  0.986300  0.483300  0.131400  1.0
  C  C1338  1  0.013700  0.516700  0.868600  1.0
  C  C1339  1  0.000100  0.493200  0.163300  1.0
  C  C1340  1  0.999900  0.506800  0.836700  1.0
  C  C1341  1  0.047500  0.495800  0.173700  1.0
  C  C1342  1  0.952500  0.504200  0.826300  1.0
  C  C1343  1  0.079200  0.488800  0.153000  1.0
  C  C1344  1  0.920800  0.511200  0.847000  1.0
  C  C1345  1  0.963900  0.483900  0.211100  1.0
  C  C1346  1  0.036100  0.516100  0.788900  1.0
  C  C1347  1  0.965900  0.501400  0.185600  1.0
  C  C1348  1  0.034100  0.498600  0.814400  1.0
  C  C1349  1  0.935900  0.528900  0.182300  1.0
  C  C1350  1  0.064100  0.471100  0.817700  1.0
  C  C1351  1  0.906800  0.539300  0.204400  1.0
  C  C1352  1  0.093200  0.460700  0.795600  1.0
  C  C1353  1  0.908100  0.521100  0.229500  1.0
  C  C1354  1  0.091900  0.478900  0.770500  1.0
  C  C1355  1  0.879600  0.529300  0.254700  1.0
  C  C1356  1  0.120400  0.470700  0.745300  1.0
  C  C1357  1  0.858100  0.518400  0.301800  1.0
  C  C1358  1  0.141900  0.481600  0.698200  1.0
  C  C1359  1  0.859600  0.555800  0.319000  1.0
  C  C1360  1  0.140400  0.444200  0.681000  1.0
  C  C1361  1  0.832400  0.563300  0.342400  1.0
  C  C1362  1  0.167600  0.436700  0.657600  1.0
  C  C1363  1  0.802400  0.533300  0.349000  1.0
  C  C1364  1  0.197600  0.466700  0.651000  1.0
  C  C1365  1  0.803000  0.495700  0.333400  1.0
  C  C1366  1  0.197000  0.504300  0.666600  1.0
  C  C1367  1  0.830400  0.488300  0.309800  1.0
  C  C1368  1  0.169600  0.511700  0.690200  1.0
  C  C1369  1  0.737800  0.514200  0.375000  1.0
  C  C1370  1  0.262200  0.485800  0.625000  1.0
  C  C1371  1  0.402000  0.880400  0.378200  1.0
  C  C1372  1  0.598000  0.119600  0.621800  1.0
  C  C1373  1  0.386300  0.840800  0.372800  1.0
  C  C1374  1  0.613700  0.159200  0.627200  1.0
  C  C1375  1  0.405900  0.815300  0.352100  1.0
  C  C1376  1  0.594100  0.184700  0.647900  1.0
  C  C1377  1  0.441500  0.828500  0.337000  1.0
  C  C1378  1  0.558500  0.171500  0.663000  1.0
  C  C1379  1  0.458000  0.867400  0.342700  1.0
  C  C1380  1  0.542000  0.132600  0.657300  1.0
  C  C1381  1  0.438700  0.893300  0.363400  1.0
  C  C1382  1  0.561300  0.106700  0.636600  1.0
  C  C1383  1  0.369700  0.903400  0.423500  1.0
  C  C1384  1  0.630300  0.096600  0.576500  1.0
  C  C1385  1  0.342900  0.931000  0.440500  1.0
  C  C1386  1  0.657100  0.069000  0.559500  1.0
  C  C1387  1  0.334600  0.931800  0.470900  1.0
  C  C1388  1  0.665400  0.068200  0.529100  1.0
  C  C1389  1  0.310300  0.960600  0.484800  1.0
  C  C1390  1  0.689700  0.039400  0.515200  1.0
  C  C1391  1  0.294600  0.987400  0.468100  1.0
  C  C1392  1  0.705400  0.012600  0.531900  1.0
  C  C1393  1  0.304100  0.984000  0.437600  1.0
  C  C1394  1  0.695900  0.016000  0.562400  1.0
  C  C1395  1  0.267700  0.018500  0.481800  1.0
  C  C1396  1  0.732300  0.981500  0.518200  1.0
  C  C1397  1  0.286600  0.046700  0.507800  1.0
  C  C1398  1  0.713400  0.953300  0.492200  1.0
  C  C1399  1  0.262800  0.076500  0.519300  1.0
  C  C1400  1  0.737200  0.923500  0.480700  1.0
  C  C1401  1  0.218000  0.079300  0.505400  1.0
  C  C1402  1  0.782000  0.920700  0.494600  1.0
  C  C1403  1  0.198600  0.050800  0.479700  1.0
  C  C1404  1  0.801400  0.949200  0.520300  1.0
  C  C1405  1  0.223000  0.021200  0.468100  1.0
  C  C1406  1  0.777000  0.978800  0.531900  1.0
  C  C1407  1  0.211000  0.150200  0.523200  1.0
  C  C1408  1  0.789000  0.849800  0.476800  1.0
  C  C1409  1  0.192100  0.111500  0.518200  1.0
  C  C1410  1  0.807900  0.888500  0.481800  1.0
  C  C1411  1  0.146400  0.103400  0.524100  1.0
  C  C1412  1  0.853600  0.896600  0.475900  1.0
  C  C1413  1  0.121600  0.134100  0.533300  1.0
  C  C1414  1  0.878400  0.865900  0.466700  1.0
  C  C1415  1  0.143500  0.171700  0.536600  1.0
  C  C1416  1  0.856500  0.828300  0.463400  1.0
  C  C1417  1  0.118500  0.205300  0.544600  1.0
  C  C1418  1  0.881500  0.794700  0.455400  1.0
  C  C1419  1  0.122500  0.272000  0.558000  1.0
  C  C1420  1  0.877500  0.728000  0.442000  1.0
  C  C1421  1  0.106100  0.276800  0.586700  1.0
  C  C1422  1  0.893900  0.723200  0.413300  1.0
  C  C1423  1  0.088200  0.310400  0.598100  1.0
  C  C1424  1  0.911800  0.689600  0.401900  1.0
  C  C1425  1  0.086800  0.339300  0.581100  1.0
  C  C1426  1  0.913200  0.660700  0.418900  1.0
  C  C1427  1  0.102100  0.334400  0.552500  1.0
  C  C1428  1  0.897900  0.665600  0.447500  1.0
  C  C1429  1  0.119900  0.301000  0.540700  1.0
  C  C1430  1  0.880100  0.699000  0.459300  1.0
  C  C1431  1  0.048400  0.376700  0.619000  1.0
  C  C1432  1  0.951600  0.623300  0.381000  1.0
  C  C1433  1  0.217400  0.207800  0.604700  1.0
  C  C1434  1  0.782600  0.792200  0.395300  1.0
  C  C1435  1  0.244700  0.178100  0.597900  1.0
  C  C1436  1  0.755300  0.821900  0.402100  1.0
  C  C1437  1  0.242800  0.147800  0.613500  1.0
  C  C1438  1  0.757200  0.852200  0.386500  1.0
  C  C1439  1  0.212900  0.146300  0.635800  1.0
  C  C1440  1  0.787100  0.853700  0.364200  1.0
  C  C1441  1  0.184700  0.175300  0.641700  1.0
  C  C1442  1  0.815300  0.824700  0.358300  1.0
  C  C1443  1  0.187200  0.206100  0.626700  1.0
  C  C1444  1  0.812800  0.793900  0.373300  1.0
  C  C1445  1  0.243700  0.091500  0.650900  1.0
  C  C1446  1  0.756300  0.908500  0.349100  1.0
  C  C1447  1  0.223400  0.274600  0.604700  1.0
  C  C1448  1  0.776600  0.725400  0.395300  1.0
  C  C1449  1  0.227000  0.305700  0.587100  1.0
  C  C1450  1  0.773000  0.694300  0.412900  1.0
  C  C1451  1  0.229600  0.344700  0.601200  1.0
  C  C1452  1  0.770400  0.655300  0.398800  1.0
  C  C1453  1  0.232400  0.372000  0.582400  1.0
  C  C1454  1  0.767600  0.628000  0.417600  1.0
  C  C1455  1  0.232600  0.359600  0.550700  1.0
  C  C1456  1  0.767400  0.640400  0.449300  1.0
  C  C1457  1  0.230300  0.320200  0.539200  1.0
  C  C1458  1  0.769700  0.679800  0.460800  1.0
  C  C1459  1  0.233400  0.387700  0.529500  1.0
  C  C1460  1  0.766600  0.612300  0.470500  1.0
  C  C1461  1  0.266300  0.420500  0.535000  1.0
  C  C1462  1  0.733700  0.579500  0.465000  1.0
  C  C1463  1  0.264100  0.447200  0.516000  1.0
  C  C1464  1  0.735900  0.552800  0.484000  1.0
  C  C1465  1  0.229200  0.443000  0.491300  1.0
  C  C1466  1  0.770800  0.557000  0.508700  1.0
  C  C1467  1  0.197400  0.409600  0.485100  1.0
  C  C1468  1  0.802600  0.590400  0.514900  1.0
  C  C1469  1  0.199700  0.382200  0.503500  1.0
  C  C1470  1  0.800300  0.617800  0.496500  1.0
  C  C1471  1  0.259200  0.488800  0.458800  1.0
  C  C1472  1  0.740800  0.511200  0.541200  1.0
  C  C1473  1  0.223600  0.474100  0.473200  1.0
  C  C1474  1  0.776400  0.525900  0.526800  1.0
  C  C1475  1  0.181100  0.489000  0.470300  1.0
  C  C1476  1  0.818900  0.511000  0.529700  1.0
  C  C1477  1  0.175500  0.517300  0.452900  1.0
  C  C1478  1  0.824500  0.482700  0.547100  1.0
  C  C1479  1  0.213300  0.530800  0.439400  1.0
  C  C1480  1  0.786700  0.469200  0.560600  1.0
  C  C1481  1  0.210900  0.560400  0.420200  1.0
  C  C1482  1  0.789100  0.439600  0.579800  1.0
  C  C1483  1  0.246200  0.598100  0.389800  1.0
  C  C1484  1  0.753800  0.401900  0.610200  1.0
  C  C1485  1  0.256100  0.591000  0.359300  1.0
  C  C1486  1  0.743900  0.409000  0.640700  1.0
  C  C1487  1  0.255400  0.619400  0.341800  1.0
  C  C1488  1  0.744600  0.380600  0.658200  1.0
  C  C1489  1  0.244400  0.655500  0.354700  1.0
  C  C1490  1  0.755600  0.344500  0.645300  1.0
  C  C1491  1  0.233700  0.662700  0.384700  1.0
  C  C1492  1  0.766300  0.337300  0.615300  1.0
  C  C1493  1  0.234600  0.634300  0.402300  1.0
  C  C1494  1  0.765400  0.365700  0.597700  1.0
  C  C1495  1  0.236700  0.720200  0.349200  1.0
  C  C1496  1  0.763300  0.279800  0.650800  1.0
  C  C1497  1  0.614200  0.096800  0.130300  1.0
  C  C1498  1  0.385800  0.903200  0.869700  1.0
  C  C1499  1  0.631800  0.135600  0.134600  1.0
  C  C1500  1  0.368200  0.864400  0.865400  1.0
  C  C1501  1  0.652800  0.149300  0.111400  1.0
  C  C1502  1  0.347200  0.850700  0.888600  1.0
  C  C1503  1  0.655700  0.124200  0.083900  1.0
  C  C1504  1  0.344300  0.875800  0.916100  1.0
  C  C1505  1  0.639700  0.085300  0.079900  1.0
  C  C1506  1  0.360300  0.914700  0.920100  1.0
  C  C1507  1  0.619500  0.071500  0.103200  1.0
  C  C1508  1  0.380500  0.928500  0.896800  1.0
  C  C1509  1  0.696700  0.174600  0.064300  1.0
  C  C1510  1  0.303300  0.825400  0.935700  1.0
  C  C1511  1  0.601700  0.052100  0.160700  1.0
  C  C1512  1  0.398300  0.947900  0.839300  1.0
  C  C1513  1  0.577400  0.036400  0.183800  1.0
  C  C1514  1  0.422600  0.963600  0.816200  1.0
  C  C1515  1  0.588600  0.003800  0.194700  1.0
  C  C1516  1  0.411400  0.996200  0.805300  1.0
  C  C1517  1  0.563100  0.991300  0.216500  1.0
  C  C1518  1  0.436900  0.008700  0.783500  1.0
  C  C1519  1  0.527400  0.011500  0.226700  1.0
  C  C1520  1  0.472600  0.988500  0.773300  1.0
  C  C1521  1  0.519600  0.044200  0.215100  1.0
  C  C1522  1  0.480400  0.955800  0.784900  1.0
  C  C1523  1  0.495300  0.995400  0.246500  1.0
  C  C1524  1  0.504700  0.004600  0.753500  1.0
  C  C1525  1  0.510000  0.984500  0.274000  1.0
  C  C1526  1  0.490000  0.015500  0.726000  1.0
  C  C1527  1  0.478100  0.967200  0.289700  1.0
  C  C1528  1  0.521900  0.032800  0.710300  1.0
  C  C1529  1  0.430800  0.959600  0.278500  1.0
  C  C1530  1  0.569200  0.040400  0.721500  1.0
  C  C1531  1  0.416000  0.971600  0.251300  1.0
  C  C1532  1  0.584000  0.028400  0.748700  1.0
  C  C1533  1  0.447700  0.989400  0.236000  1.0
  C  C1534  1  0.552300  0.010600  0.764000  1.0
  C  C1535  1  0.389300  0.951300  0.324200  1.0
  C  C1536  1  0.610700  0.048700  0.675800  1.0
  C  C1537  1  0.397000  0.937800  0.294000  1.0
  C  C1538  1  0.603000  0.062200  0.706000  1.0
  C  C1539  1  0.371100  0.903200  0.277700  1.0
  C  C1540  1  0.628900  0.096800  0.722300  1.0
  C  C1541  1  0.337300  0.884600  0.291600  1.0
  C  C1542  1  0.662700  0.115400  0.708400  1.0
  C  C1543  1  0.331300  0.901200  0.321600  1.0
  C  C1544  1  0.668700  0.098800  0.678400  1.0
  C  C1545  1  0.292900  0.887300  0.337300  1.0
  C  C1546  1  0.707100  0.112700  0.662700  1.0
  C  C1547  1  0.254900  0.891600  0.380900  1.0
  C  C1548  1  0.745100  0.108400  0.619100  1.0
  C  C1549  1  0.249700  0.852200  0.381200  1.0
  C  C1550  1  0.750300  0.147800  0.618800  1.0
  C  C1551  1  0.216200  0.836800  0.397000  1.0
  C  C1552  1  0.783800  0.163200  0.603000  1.0
  C  C1553  1  0.188000  0.861100  0.412300  1.0
  C  C1554  1  0.812000  0.138900  0.587700  1.0
  C  C1555  1  0.193200  0.900200  0.412000  1.0
  C  C1556  1  0.806800  0.099800  0.588000  1.0
  C  C1557  1  0.226700  0.915700  0.396600  1.0
  C  C1558  1  0.773300  0.084300  0.603400  1.0
  C  C1559  1  0.148400  0.811100  0.433600  1.0
  C  C1560  1  0.851600  0.188900  0.566400  1.0
  C  C1561  1  0.301100  0.596600  0.484300  1.0
  C  C1562  1  0.698900  0.403400  0.515700  1.0
  C  C1563  1  0.277500  0.628800  0.490100  1.0
  C  C1564  1  0.722500  0.371200  0.509900  1.0
  C  C1565  1  0.251300  0.634100  0.514300  1.0
  C  C1566  1  0.748700  0.365900  0.485700  1.0
  C  C1567  1  0.248100  0.606300  0.532900  1.0
  C  C1568  1  0.751900  0.393700  0.467100  1.0
  C  C1569  1  0.273600  0.575400  0.528300  1.0
  C  C1570  1  0.726400  0.424600  0.471700  1.0
  C  C1571  1  0.300500  0.570600  0.504300  1.0
  C  C1572  1  0.699500  0.429400  0.495700  1.0
  C  C1573  1  0.207000  0.582900  0.570800  1.0
  C  C1574  1  0.793000  0.417100  0.429200  1.0
  C  C1575  1  0.347300  0.618600  0.448700  1.0
  C  C1576  1  0.652700  0.381400  0.551300  1.0
  C  C1577  1  0.363800  0.609300  0.418300  1.0
  C  C1578  1  0.636200  0.390700  0.581700  1.0
  C  C1579  1  0.393900  0.635300  0.407600  1.0
  C  C1580  1  0.606100  0.364700  0.592400  1.0
  C  C1581  1  0.406800  0.624300  0.378200  1.0
  C  C1582  1  0.593200  0.375700  0.621800  1.0
  C  C1583  1  0.389700  0.587900  0.360400  1.0
  C  C1584  1  0.610300  0.412100  0.639600  1.0
  C  C1585  1  0.360700  0.563500  0.373400  1.0
  C  C1586  1  0.639300  0.436500  0.626600  1.0
  C  C1587  1  0.401000  0.576300  0.328100  1.0
  C  C1588  1  0.599000  0.423700  0.671900  1.0
  C  C1589  1  0.446700  0.577100  0.321500  1.0
  C  C1590  1  0.553300  0.422900  0.678500  1.0
  C  C1591  1  0.456200  0.566600  0.291400  1.0
  C  C1592  1  0.543800  0.433400  0.708600  1.0
  C  C1593  1  0.421200  0.554800  0.266500  1.0
  C  C1594  1  0.578800  0.445200  0.733500  1.0
  C  C1595  1  0.375600  0.554300  0.273100  1.0
  C  C1596  1  0.624400  0.445700  0.726900  1.0
  C  C1597  1  0.365600  0.564700  0.303100  1.0
  C  C1598  1  0.634400  0.435300  0.696900  1.0
  C  C1599  1  0.458200  0.513400  0.225400  1.0
  C  C1600  1  0.541800  0.486600  0.774600  1.0
  C  C1601  1  0.430400  0.542100  0.233700  1.0
  C  C1602  1  0.569600  0.457900  0.766300  1.0
  C  C1603  1  0.407000  0.556100  0.209600  1.0
  C  C1604  1  0.593000  0.443900  0.790400  1.0
  C  C1605  1  0.410200  0.540200  0.178800  1.0
  C  C1606  1  0.589800  0.459800  0.821200  1.0
  C  C1607  1  0.437800  0.510600  0.172800  1.0
  C  C1608  1  0.562200  0.489400  0.827200  1.0
  C  C1609  1  0.441700  0.490100  0.141200  1.0
  C  C1610  1  0.558300  0.509900  0.858800  1.0
  C  C1611  1  0.474000  0.441400  0.109500  1.0
  C  C1612  1  0.526000  0.558600  0.890500  1.0
  C  C1613  1  0.485400  0.462200  0.087100  1.0
  C  C1614  1  0.514600  0.537800  0.912900  1.0
  C  C1615  1  0.494300  0.443000  0.058600  1.0
  C  C1616  1  0.505700  0.557000  0.941400  1.0
  C  C1617  1  0.491100  0.402900  0.052100  1.0
  C  C1618  1  0.508900  0.597100  0.947900  1.0
  C  C1619  1  0.480100  0.382000  0.074500  1.0
  C  C1620  1  0.519900  0.618000  0.925500  1.0
  C  C1621  1  0.471400  0.401400  0.102900  1.0
  C  C1622  1  0.528600  0.598600  0.897100  1.0
  C  C1623  1  0.491400  0.346000  0.012800  1.0
  C  C1624  1  0.508600  0.654000  0.987200  1.0
  C  C1625  1  0.494300  0.014400  0.130500  1.0
  C  C1626  1  0.505700  0.985600  0.869500  1.0
  C  C1627  1  0.462100  0.000000  0.147600  1.0
  C  C1628  1  0.537900  0.000000  0.852400  1.0
  C  C1629  1  0.452000  0.960600  0.145200  1.0
  C  C1630  1  0.548000  0.039400  0.854800  1.0
  C  C1631  1  0.474200  0.935400  0.125700  1.0
  C  C1632  1  0.525800  0.064600  0.874300  1.0
  C  C1633  1  0.505900  0.949700  0.108000  1.0
  C  C1634  1  0.494100  0.050300  0.892000  1.0
  C  C1635  1  0.515400  0.989100  0.110000  1.0
  C  C1636  1  0.484600  0.010900  0.890000  1.0
  C  C1637  1  0.492400  0.070100  0.111600  1.0
  C  C1638  1  0.507600  0.929900  0.888400  1.0
  C  C1639  1  0.503600  0.112100  0.114500  1.0
  C  C1640  1  0.496400  0.887900  0.885500  1.0
  C  C1641  1  0.491900  0.130700  0.090300  1.0
  C  C1642  1  0.508100  0.869300  0.909700  1.0
  C  C1643  1  0.501800  0.170800  0.095400  1.0
  C  C1644  1  0.498200  0.829200  0.904600  1.0
  C  C1645  1  0.523300  0.191200  0.124600  1.0
  C  C1646  1  0.476700  0.808800  0.875400  1.0
  C  C1647  1  0.534700  0.169900  0.147000  1.0
  C  C1648  1  0.465300  0.830100  0.853000  1.0
  C  C1649  1  0.533500  0.234300  0.130800  1.0
  C  C1650  1  0.466500  0.765700  0.869200  1.0
  C  C1651  1  0.577700  0.252900  0.143600  1.0
  C  C1652  1  0.422300  0.747100  0.856400  1.0
  C  C1653  1  0.588200  0.292600  0.148600  1.0
  C  C1654  1  0.411800  0.707400  0.851400  1.0
  C  C1655  1  0.555100  0.316100  0.141200  1.0
  C  C1656  1  0.444900  0.683900  0.858800  1.0
  C  C1657  1  0.510800  0.297400  0.128600  1.0
  C  C1658  1  0.489200  0.702600  0.871400  1.0
  C  C1659  1  0.500100  0.257600  0.123700  1.0
  C  C1660  1  0.499900  0.742400  0.876300  1.0
  C  C1661  1  0.541800  0.384100  0.163200  1.0
  C  C1662  1  0.458200  0.615900  0.836800  1.0
  C  C1663  1  0.567800  0.359000  0.146600  1.0
  C  C1664  1  0.432200  0.641000  0.853400  1.0
  C  C1665  1  0.604800  0.375600  0.134000  1.0
  C  C1666  1  0.395200  0.624400  0.866000  1.0
  C  C1667  1  0.613200  0.415700  0.137300  1.0
  C  C1668  1  0.386800  0.584300  0.862700  1.0
  C  C1669  1  0.584200  0.438200  0.153600  1.0
  C  C1670  1  0.415800  0.561800  0.846400  1.0
  C  C1671  1  0.588000  0.480600  0.157800  1.0
  C  C1672  1  0.412000  0.519400  0.842200  1.0
  C  C1673  1  0.558300  0.537800  0.178900  1.0
  C  C1674  1  0.441700  0.462200  0.821100  1.0
  C  C1675  1  0.557800  0.558800  0.208600  1.0
  C  C1676  1  0.442200  0.441200  0.791400  1.0
  C  C1677  1  0.551500  0.597600  0.213200  1.0
  C  C1678  1  0.448500  0.402400  0.786800  1.0
  C  C1679  1  0.546300  0.615600  0.188200  1.0
  C  C1680  1  0.453700  0.384400  0.811800  1.0
  C  C1681  1  0.546600  0.594700  0.158300  1.0
  C  C1682  1  0.453400  0.405300  0.841700  1.0
  C  C1683  1  0.553300  0.556100  0.153800  1.0
  C  C1684  1  0.446700  0.443900  0.846200  1.0
  C  C1685  1  0.538300  0.670000  0.165000  1.0
  C  C1686  1  0.461700  0.330000  0.835000  1.0
  C  C1687  1  0.389400  0.521900  0.462900  1.0
  C  C1688  1  0.610600  0.478100  0.537100  1.0
  C  C1689  1  0.416100  0.558100  0.471000  1.0
  C  C1690  1  0.583900  0.441900  0.529000  1.0
  C  C1691  1  0.449900  0.567500  0.496800  1.0
  C  C1692  1  0.550100  0.432500  0.503200  1.0
  C  C1693  1  0.456300  0.541200  0.515600  1.0
  C  C1694  1  0.543700  0.458800  0.484400  1.0
  C  C1695  1  0.428900  0.505400  0.508700  1.0
  C  C1696  1  0.571100  0.494600  0.491300  1.0
  C  C1697  1  0.396100  0.495300  0.482000  1.0
  C  C1698  1  0.603900  0.504700  0.518000  1.0
  C  C1699  1  0.499200  0.528600  0.560300  1.0
  C  C1700  1  0.500800  0.471400  0.439700  1.0
  C  C1701  1  0.358100  0.480700  0.415700  1.0
  C  C1702  1  0.641900  0.519300  0.584300  1.0
  C  C1703  1  0.321100  0.470400  0.388900  1.0
  C  C1704  1  0.678900  0.529600  0.611100  1.0
  C  C1705  1  0.315800  0.435300  0.367900  1.0
  C  C1706  1  0.684200  0.564700  0.632100  1.0
  C  C1707  1  0.275600  0.425600  0.346000  1.0
  C  C1708  1  0.724400  0.574400  0.654000  1.0
  C  C1709  1  0.243200  0.451700  0.344900  1.0
  C  C1710  1  0.756800  0.548300  0.655100  1.0
  C  C1711  1  0.252600  0.487000  0.366000  1.0
  C  C1712  1  0.747400  0.513000  0.634000  1.0
  C  C1713  1  0.198100  0.441600  0.323500  1.0
  C  C1714  1  0.801900  0.558400  0.676500  1.0
  C  C1715  1  0.180900  0.466600  0.305600  1.0
  C  C1716  1  0.819100  0.533400  0.694400  1.0
  C  C1717  1  0.137100  0.458100  0.288200  1.0
  C  C1718  1  0.862900  0.541900  0.711800  1.0
  C  C1719  1  0.107600  0.424600  0.288300  1.0
  C  C1720  1  0.892400  0.575400  0.711700  1.0
  C  C1721  1  0.125000  0.399500  0.306100  1.0
  C  C1722  1  0.875000  0.600500  0.693900  1.0
  C  C1723  1  0.169200  0.407500  0.322800  1.0
  C  C1724  1  0.830800  0.592500  0.677200  1.0
  C  C1725  1  0.027500  0.444900  0.276600  1.0
  C  C1726  1  0.972500  0.555100  0.723400  1.0
  C  C1727  1  0.058100  0.417500  0.272400  1.0
  C  C1728  1  0.941900  0.582500  0.727600  1.0
  C  C1729  1  0.039000  0.381100  0.254800  1.0
  C  C1730  1  0.961000  0.618900  0.745200  1.0
  C  C1731  1  0.991600  0.373900  0.243700  1.0
  C  C1732  1  0.008400  0.626100  0.756300  1.0
  C  C1733  1  0.964200  0.403400  0.250000  1.0
  C  C1734  1  0.035800  0.596600  0.750000  1.0
  C  C1735  1  0.913500  0.398400  0.241000  1.0
  C  C1736  1  0.086500  0.601600  0.759000  1.0
  C  C1737  1  0.841700  0.421600  0.241600  1.0
  C  C1738  1  0.158300  0.578400  0.758400  1.0
  C  C1739  1  0.820900  0.443500  0.222400  1.0
  C  C1740  1  0.179100  0.556500  0.777600  1.0
  C  C1741  1  0.773100  0.437900  0.213600  1.0
  C  C1742  1  0.226900  0.562100  0.786400  1.0
  C  C1743  1  0.744900  0.411200  0.225000  1.0
  C  C1744  1  0.255100  0.588800  0.775000  1.0
  C  C1745  1  0.765400  0.389600  0.244700  1.0
  C  C1746  1  0.234600  0.610400  0.755300  1.0
  C  C1747  1  0.813500  0.394400  0.252500  1.0
  C  C1748  1  0.186500  0.605600  0.747500  1.0
  C  C1749  1  0.668400  0.382600  0.229400  1.0
  C  C1750  1  0.331600  0.617400  0.770600  1.0
  C  C1751  1  0.079600  0.018600  0.997400  1.0
  C  C1752  1  0.920400  0.981400  0.002600  1.0
  C  C1753  1  0.061500  0.981900  0.980500  1.0
  C  C1754  1  0.938500  0.018100  0.019500  1.0
  C  C1755  1  0.026700  0.977400  0.955600  1.0
  C  C1756  1  0.973300  0.022600  0.044400  1.0
  C  C1757  1  0.010000  0.009900  0.947600  1.0
  C  C1758  1  0.990000  0.990100  0.052400  1.0
  C  C1759  1  0.028300  0.046800  0.964100  1.0
  C  C1760  1  0.971700  0.953200  0.035900  1.0
  C  C1761  1  0.063500  0.051200  0.988900  1.0
  C  C1762  1  0.936500  0.948800  0.011100  1.0
  C  C1763  1  0.956400  0.034500  0.913800  1.0
  C  C1764  1  0.043600  0.965500  0.086200  1.0
  C  C1765  1  0.104200  0.040400  0.049900  1.0
  C  C1766  1  0.895800  0.959600  0.950100  1.0
  C  C1767  1  0.141700  0.046900  0.076200  1.0
  C  C1768  1  0.858300  0.953100  0.923800  1.0
  C  C1769  1  0.137000  0.067100  0.105700  1.0
  C  C1770  1  0.863000  0.932900  0.894300  1.0
  C  C1771  1  0.176400  0.074800  0.127900  1.0
  C  C1772  1  0.823600  0.925200  0.872100  1.0
  C  C1773  1  0.218100  0.062200  0.120900  1.0
  C  C1774  1  0.781900  0.937800  0.879100  1.0
  C  C1775  1  0.219100  0.041100  0.091100  1.0
  C  C1776  1  0.780900  0.958900  0.908900  1.0
  C  C1777  1  0.261700  0.073100  0.143600  1.0
  C  C1778  1  0.738300  0.926900  0.856400  1.0
  C  C1779  1  0.292200  0.046600  0.148000  1.0
  C  C1780  1  0.707800  0.953400  0.852000  1.0
  C  C1781  1  0.335300  0.058000  0.165800  1.0
  C  C1782  1  0.664700  0.942000  0.834200  1.0
  C  C1783  1  0.350200  0.096700  0.179800  1.0
  C  C1784  1  0.649800  0.903300  0.820200  1.0
  C  C1785  1  0.318700  0.122800  0.176300  1.0
  C  C1786  1  0.681300  0.877200  0.823700  1.0
  C  C1787  1  0.275400  0.111500  0.158800  1.0
  C  C1788  1  0.724600  0.888500  0.841200  1.0
  C  C1789  1  0.437000  0.097000  0.180400  1.0
  C  C1790  1  0.563000  0.903000  0.819600  1.0
  C  C1791  1  0.399500  0.109200  0.194600  1.0
  C  C1792  1  0.600500  0.890800  0.805400  1.0
  C  C1793  1  0.410200  0.136300  0.222600  1.0
  C  C1794  1  0.589800  0.863700  0.777400  1.0
  C  C1795  1  0.456500  0.150400  0.233800  1.0
  C  C1796  1  0.543500  0.849600  0.766200  1.0
  C  C1797  1  0.491100  0.137500  0.216800  1.0
  C  C1798  1  0.508900  0.862500  0.783200  1.0
  C  C1799  1  0.540700  0.153000  0.225500  1.0
  C  C1800  1  0.459300  0.847000  0.774500  1.0
  C  C1801  1  0.616900  0.155200  0.216000  1.0
  C  C1802  1  0.383100  0.844800  0.784000  1.0
  C  C1803  1  0.652400  0.133500  0.222300  1.0
  C  C1804  1  0.347600  0.866500  0.777700  1.0
  C  C1805  1  0.698400  0.150800  0.228800  1.0
  C  C1806  1  0.301600  0.849200  0.771200  1.0
  C  C1807  1  0.708500  0.189600  0.228700  1.0
  C  C1808  1  0.291500  0.810400  0.771300  1.0
  C  C1809  1  0.673300  0.212100  0.223000  1.0
  C  C1810  1  0.326700  0.787900  0.777000  1.0
  C  C1811  1  0.627200  0.194700  0.216900  1.0
  C  C1812  1  0.372800  0.805300  0.783100  1.0
  C  C1813  1  0.789800  0.186100  0.241100  1.0
  C  C1814  1  0.210200  0.813900  0.758900  1.0
  C  C1815  1  0.909600  0.876400  0.162800  1.0
  C  C1816  1  0.090400  0.123600  0.837200  1.0
  C  C1817  1  0.868200  0.854200  0.164600  1.0
  C  C1818  1  0.131800  0.145800  0.835400  1.0
  C  C1819  1  0.836700  0.838200  0.138200  1.0
  C  C1820  1  0.163300  0.161800  0.861800  1.0
  C  C1821  1  0.847900  0.843800  0.109400  1.0
  C  C1822  1  0.152100  0.156200  0.890600  1.0
  C  C1823  1  0.889300  0.866300  0.107400  1.0
  C  C1824  1  0.110700  0.133700  0.892600  1.0
  C  C1825  1  0.919800  0.882700  0.134000  1.0
  C  C1826  1  0.080200  0.117300  0.866000  1.0
  C  C1827  1  0.774400  0.809900  0.083400  1.0
  C  C1828  1  0.225600  0.190100  0.916600  1.0
  C  C1829  1  0.956100  0.931300  0.192000  1.0
  C  C1830  1  0.043900  0.068700  0.808000  1.0
  C  C1831  1  0.993100  0.950400  0.217400  1.0
  C  C1832  1  0.006900  0.049600  0.782600  1.0
  C  C1833  1  0.010800  0.989400  0.222600  1.0
  C  C1834  1  0.989200  0.010600  0.777400  1.0
  C  C1835  1  0.049300  0.003100  0.245100  1.0
  C  C1836  1  0.950700  0.996900  0.754900  1.0
  C  C1837  1  0.069300  0.977800  0.261800  1.0
  C  C1838  1  0.930700  0.022200  0.738200  1.0
  C  C1839  1  0.047800  0.939600  0.255400  1.0
  C  C1840  1  0.952200  0.060400  0.744600  1.0
  C  C1841  1  0.113900  0.989800  0.283500  1.0
  C  C1842  1  0.886100  0.010200  0.716500  1.0
  C  C1843  1  0.151600  0.011000  0.275200  1.0
  C  C1844  1  0.848400  0.989000  0.724800  1.0
  C  C1845  1  0.194000  0.020700  0.293900  1.0
  C  C1846  1  0.806000  0.979300  0.706100  1.0
  C  C1847  1  0.201200  0.009600  0.322400  1.0
  C  C1848  1  0.798800  0.990400  0.677600  1.0
  C  C1849  1  0.163200  0.989500  0.331200  1.0
  C  C1850  1  0.836800  0.010500  0.668800  1.0
  C  C1851  1  0.120700  0.979900  0.312400  1.0
  C  C1852  1  0.879300  0.020100  0.687600  1.0
  C  C1853  1  0.267300  0.986600  0.352200  1.0
  C  C1854  1  0.732700  0.013400  0.647800  1.0
  C  C1855  1  0.248400  0.016800  0.341200  1.0
  C  C1856  1  0.751600  0.983200  0.658800  1.0
  C  C1857  1  0.275900  0.052800  0.347600  1.0
  C  C1858  1  0.724100  0.947200  0.652400  1.0
  C  C1859  1  0.320700  0.056800  0.363600  1.0
  C  C1860  1  0.679300  0.943200  0.636400  1.0
  C  C1861  1  0.336400  0.024700  0.372800  1.0
  C  C1862  1  0.663600  0.975300  0.627200  1.0
  C  C1863  1  0.384400  0.024500  0.387500  1.0
  C  C1864  1  0.615600  0.975500  0.612500  1.0
  C  C1865  1  0.443600  0.993900  0.406200  1.0
  C  C1866  1  0.556400  0.006100  0.593800  1.0
  C  C1867  1  0.478200  0.011000  0.391800  1.0
  C  C1868  1  0.521800  0.989000  0.608200  1.0
  C  C1869  1  0.524900  0.011400  0.402600  1.0
  C  C1870  1  0.475100  0.988600  0.597400  1.0
  C  C1871  1  0.537100  0.994500  0.427500  1.0
  C  C1872  1  0.462900  0.005500  0.572500  1.0
  C  C1873  1  0.502800  0.977400  0.442000  1.0
  C  C1874  1  0.497200  0.022600  0.558000  1.0
  C  C1875  1  0.456000  0.976800  0.431100  1.0
  C  C1876  1  0.544000  0.023200  0.568900  1.0
  C  C1877  1  0.619400  0.015500  0.431400  1.0
  C  C1878  1  0.380600  0.984500  0.568600  1.0
  C  C1879  1  0.318000  0.228500  0.560000  1.0
  C  C1880  1  0.682000  0.771500  0.440000  1.0
  C  C1881  1  0.330200  0.254600  0.588200  1.0
  C  C1882  1  0.669800  0.745400  0.411800  1.0
  C  C1883  1  0.367600  0.250700  0.609200  1.0
  C  C1884  1  0.632400  0.749300  0.390800  1.0
  C  C1885  1  0.393000  0.220000  0.602600  1.0
  C  C1886  1  0.607000  0.780000  0.397400  1.0
  C  C1887  1  0.381100  0.193600  0.574800  1.0
  C  C1888  1  0.618900  0.806400  0.425200  1.0
  C  C1889  1  0.344200  0.197900  0.553600  1.0
  C  C1890  1  0.655800  0.802100  0.446400  1.0
  C  C1891  1  0.438900  0.243100  0.651900  1.0
  C  C1892  1  0.561100  0.756900  0.348100  1.0
  C  C1893  1  0.287100  0.230300  0.509400  1.0
  C  C1894  1  0.712900  0.769700  0.490600  1.0
  C  C1895  1  0.247900  0.233000  0.486100  1.0
  C  C1896  1  0.752100  0.767000  0.513900  1.0
  C  C1897  1  0.250800  0.230700  0.454700  1.0
  C  C1898  1  0.749200  0.769300  0.545300  1.0
  C  C1899  1  0.210300  0.231500  0.434900  1.0
  C  C1900  1  0.789700  0.768500  0.565100  1.0
  C  C1901  1  0.167700  0.233400  0.446400  1.0
  C  C1902  1  0.832300  0.766600  0.553600  1.0
  C  C1903  1  0.168400  0.235800  0.478300  1.0
  C  C1904  1  0.831600  0.764200  0.521700  1.0
  C  C1905  1  0.122900  0.231200  0.425700  1.0
  C  C1906  1  0.877100  0.768800  0.574300  1.0
  C  C1907  1  0.088700  0.254300  0.433400  1.0
  C  C1908  1  0.911300  0.745700  0.566600  1.0
  C  C1909  1  0.045000  0.248800  0.416000  1.0
  C  C1910  1  0.955000  0.751200  0.584000  1.0
  C  C1911  1  0.034000  0.219900  0.389300  1.0
  C  C1912  1  0.966000  0.780100  0.610700  1.0
  C  C1913  1  0.068800  0.197800  0.380600  1.0
  C  C1914  1  0.931200  0.802200  0.619400  1.0
  C  C1915  1  0.111900  0.203300  0.398500  1.0
  C  C1916  1  0.888100  0.796700  0.601500  1.0
  C  C1917  1  0.947200  0.206600  0.386800  1.0
  C  C1918  1  0.052800  0.793400  0.613200  1.0
  C  C1919  1  0.985900  0.211200  0.371700  1.0
  C  C1920  1  0.014100  0.788800  0.628300  1.0
  C  C1921  1  0.978700  0.204700  0.339300  1.0
  C  C1922  1  0.021300  0.795300  0.660700  1.0
  C  C1923  1  0.933800  0.192100  0.323700  1.0
  C  C1924  1  0.066200  0.807900  0.676300  1.0
  C  C1925  1  0.897800  0.186700  0.341100  1.0
  C  C1926  1  0.102200  0.813300  0.658900  1.0
  C  C1927  1  0.849800  0.170300  0.327400  1.0
  C  C1928  1  0.150200  0.829700  0.672600  1.0
  C  C1929  1  0.773200  0.147400  0.332700  1.0
  C  C1930  1  0.226800  0.852600  0.667300  1.0
  C  C1931  1  0.734900  0.165000  0.340700  1.0
  C  C1932  1  0.265100  0.835000  0.659300  1.0
  C  C1933  1  0.690000  0.149100  0.327500  1.0
  C  C1934  1  0.310000  0.850900  0.672500  1.0
  C  C1935  1  0.683200  0.114300  0.305800  1.0
  C  C1936  1  0.316800  0.885700  0.694200  1.0
  C  C1937  1  0.721200  0.095900  0.298500  1.0
  C  C1938  1  0.278800  0.904100  0.701500  1.0
  C  C1939  1  0.766200  0.112100  0.311600  1.0
  C  C1940  1  0.233800  0.887900  0.688400  1.0
  C  C1941  1  0.575700  0.475500  0.241700  1.0
  C  C1942  1  0.424300  0.524500  0.758300  1.0
  C  C1943  1  0.618600  0.474700  0.230300  1.0
  C  C1944  1  0.381400  0.525300  0.769700  1.0
  C  C1945  1  0.658800  0.496100  0.247700  1.0
  C  C1946  1  0.341200  0.503900  0.752300  1.0
  C  C1947  1  0.657000  0.518200  0.276700  1.0
  C  C1948  1  0.343000  0.481800  0.723300  1.0
  C  C1949  1  0.614600  0.519100  0.288400  1.0
  C  C1950  1  0.385400  0.480900  0.711600  1.0
  C  C1951  1  0.574500  0.498100  0.270700  1.0
  C  C1952  1  0.425500  0.501900  0.729300  1.0
  C  C1953  1  0.737000  0.534300  0.274900  1.0
  C  C1954  1  0.263000  0.465700  0.725100  1.0
  C  C1955  1  0.510800  0.427900  0.236100  1.0
  C  C1956  1  0.489200  0.572100  0.763900  1.0
  C  C1957  1  0.467400  0.406600  0.217500  1.0
  C  C1958  1  0.532600  0.593400  0.782500  1.0
  C  C1959  1  0.438100  0.379500  0.227700  1.0
  C  C1960  1  0.561900  0.620500  0.772300  1.0
  C  C1961  1  0.395200  0.364500  0.210000  1.0
  C  C1962  1  0.604800  0.635500  0.790000  1.0
  C  C1963  1  0.381900  0.376600  0.182300  1.0
  C  C1964  1  0.618100  0.623400  0.817700  1.0
  C  C1965  1  0.414500  0.402700  0.173600  1.0
  C  C1966  1  0.585500  0.597300  0.826400  1.0
  C  C1967  1  0.334200  0.363800  0.164300  1.0
  C  C1968  1  0.665800  0.636200  0.835700  1.0
  C  C1969  1  0.327500  0.351000  0.132300  1.0
  C  C1970  1  0.672500  0.649000  0.867700  1.0
  C  C1971  1  0.283700  0.341500  0.115200  1.0
  C  C1972  1  0.716300  0.658500  0.884800  1.0
  C  C1973  1  0.243200  0.344200  0.128700  1.0
  C  C1974  1  0.756800  0.655800  0.871300  1.0
  C  C1975  1  0.249500  0.356100  0.161000  1.0
  C  C1976  1  0.750500  0.643900  0.839000  1.0
  C  C1977  1  0.293500  0.365300  0.178100  1.0
  C  C1978  1  0.706500  0.634700  0.821900  1.0
  C  C1979  1  0.186200  0.352800  0.083800  1.0
  C  C1980  1  0.813800  0.647200  0.916200  1.0
  C  C1981  1  0.195900  0.336900  0.110000  1.0
  C  C1982  1  0.804100  0.663100  0.890000  1.0
  C  C1983  1  0.158300  0.316400  0.119300  1.0
  C  C1984  1  0.841700  0.683600  0.880700  1.0
  C  C1985  1  0.113400  0.314200  0.103700  1.0
  C  C1986  1  0.886600  0.685800  0.896300  1.0
  C  C1987  1  0.107200  0.331500  0.077900  1.0
  C  C1988  1  0.892800  0.668500  0.922100  1.0
  C  C1989  1  0.061500  0.331100  0.059800  1.0
  C  C1990  1  0.938500  0.668900  0.940200  1.0
  C  C1991  1  0.014100  0.347900  0.019600  1.0
  C  C1992  1  0.985900  0.652100  0.980400  1.0
  C  C1993  1  0.006800  0.334300  0.987800  1.0
  C  C1994  1  0.993200  0.665700  0.012200  1.0
  C  C1995  1  0.964400  0.335300  0.970300  1.0
  C  C1996  1  0.035600  0.664700  0.029700  1.0
  C  C1997  1  0.928500  0.349900  0.984900  1.0
  C  C1998  1  0.071500  0.650100  0.015100  1.0
  C  C1999  1  0.935100  0.362800  0.017000  1.0
  C  C2000  1  0.064900  0.637200  0.983000  1.0
  C  C2001  1  0.977600  0.361700  0.034300  1.0
  C  C2002  1  0.022400  0.638300  0.965700  1.0
  C  C2003  1  0.887000  0.336300  0.933400  1.0
  C  C2004  1  0.113000  0.663700  0.066600  1.0
  C  C2005  1  0.851500  0.096200  0.500700  1.0
  C  C2006  1  0.148500  0.903800  0.499300  1.0
  C  C2007  1  0.833000  0.057400  0.504000  1.0
  C  C2008  1  0.167000  0.942600  0.496000  1.0
  C  C2009  1  0.983100  0.151900  0.553300  1.0
  C  C2010  1  0.016900  0.848100  0.446700  1.0
  C  C2011  1  0.953000  0.126600  0.567100  1.0
  C  C2012  1  0.047000  0.873400  0.432900  1.0
  C  C2013  1  0.004600  0.237100  0.495300  1.0
  C  C2014  1  0.995400  0.762900  0.504700  1.0
  C  C2015  1  0.991000  0.257400  0.524100  1.0
  C  C2016  1  0.009000  0.742600  0.475900  1.0
  C  C2017  1  0.892500  0.307700  0.281400  1.0
  C  C2018  1  0.107500  0.692300  0.718600  1.0
  C  C2019  1  0.887900  0.266000  0.271500  1.0
  C  C2020  1  0.112100  0.734000  0.728500  1.0
  C  C2021  1  0.132300  0.051700  0.605900  1.0
  C  C2022  1  0.867700  0.948300  0.394100  1.0
  C  C2023  1  0.101300  0.080800  0.607100  1.0
  C  C2024  1  0.898700  0.919200  0.392900  1.0
  C  C2025  1  0.972200  0.306500  0.343900  1.0
  C  C2026  1  0.027800  0.693500  0.656100  1.0
  C  C2027  1  0.001400  0.332000  0.329600  1.0
  C  C2028  1  0.998600  0.668000  0.670400  1.0
  C  C2029  1  0.170100  0.473000  0.564100  1.0
  C  C2030  1  0.829900  0.527000  0.435900  1.0
  C  C2031  1  0.133600  0.451000  0.575500  1.0
  C  C2032  1  0.866400  0.549000  0.424500  1.0
  C  C2033  1  0.521300  0.452200  0.588100  1.0
  C  C2034  1  0.478700  0.547800  0.411900  1.0
  C  C2035  1  0.491300  0.416200  0.573800  1.0
  C  C2036  1  0.508700  0.583800  0.426200  1.0
  C  C2037  1  0.062000  0.350000  0.424100  1.0
  C  C2038  1  0.938000  0.650000  0.575900  1.0
  C  C2039  1  0.088400  0.334700  0.398800  1.0
  C  C2040  1  0.911600  0.665300  0.601200  1.0
  C  C2041  1  0.225800  0.153100  0.091800  1.0
  C  C2042  1  0.774200  0.846900  0.908200  1.0
  C  C2043  1  0.211800  0.192100  0.102000  1.0
  C  C2044  1  0.788200  0.807900  0.898000  1.0
  C  C2045  1  0.850000  0.321300  0.551300  0.39
  C  C2046  1  0.150000  0.678700  0.448700  0.39
  C  C2047  1  0.430000  0.884800  0.143800  0.41
  C  C2048  1  0.570000  0.115200  0.856200  0.41
  C  C2049  1  0.600100  0.117400  0.300600  0.42
  C  C2050  1  0.399900  0.882600  0.699400  0.42
  C  C2051  1  0.498600  0.819300  0.302000  0.5
  C  C2052  1  0.501400  0.180700  0.698000  0.5
  C  C2053  1  0.435000  0.767300  0.303500  0.5
  C  C2054  1  0.565000  0.232700  0.696500  0.5
  C  C2055  1  0.539000  0.131600  0.293700  0.5
  C  C2056  1  0.461000  0.868400  0.706300  0.5
  C  C2057  1  0.567900  0.163100  0.315300  0.5
  C  C2058  1  0.432100  0.836900  0.684700  0.5
  C  C2059  1  0.413000  0.185000  0.156800  0.5
  C  C2060  1  0.587000  0.815000  0.843200  0.5
  C  C2061  1  0.417000  0.224000  0.177200  0.5
  C  C2062  1  0.583000  0.776000  0.822800  0.5
  C  C2063  1  0.440700  0.680200  0.315500  0.5
  C  C2064  1  0.559300  0.319800  0.684500  0.5
  C  C2065  1  0.455300  0.704900  0.344200  0.5
  C  C2066  1  0.544700  0.295100  0.655800  0.5
  C  C2067  1  0.422400  0.718000  0.362800  0.5
  C  C2068  1  0.577600  0.282000  0.637200  0.5
  C  C2069  1  0.374900  0.706400  0.352700  0.5
  C  C2070  1  0.625100  0.293600  0.647300  0.5
  C  C2071  1  0.360400  0.681600  0.324000  0.5
  C  C2072  1  0.639600  0.318400  0.676000  0.5
  C  C2073  1  0.393300  0.668600  0.305500  0.5
  C  C2074  1  0.606700  0.331400  0.694500  0.5
  C  C2075  1  0.633000  0.059100  0.281200  0.58
  C  C2076  1  0.367000  0.940900  0.718800  0.58
  C  C2077  1  0.492000  0.880100  0.146900  0.59
  C  C2078  1  0.508000  0.119900  0.853100  0.59
  C  C2079  1  0.880000  0.364600  0.514500  0.61
  C  C2080  1  0.120000  0.635400  0.485500  0.61
  N  N2081  1  0.979700  0.522000  0.296500  1.0
  N  N2082  1  0.020300  0.478000  0.703500  1.0
  N  N2083  1  0.935800  0.464300  0.314500  1.0
  N  N2084  1  0.064200  0.535700  0.685500  1.0
  N  N2085  1  0.822900  0.228700  0.395000  1.0
  N  N2086  1  0.177100  0.771300  0.605000  1.0
  N  N2087  1  0.789700  0.165400  0.408800  1.0
  N  N2088  1  0.210300  0.834600  0.591200  1.0
  N  N2089  1  0.876200  0.194200  0.435500  1.0
  N  N2090  1  0.123800  0.805800  0.564500  1.0
  N  N2091  1  0.871900  0.130600  0.393700  1.0
  N  N2092  1  0.128100  0.869400  0.606300  1.0
  N  N2093  1  0.924800  0.884600  0.247500  1.0
  N  N2094  1  0.075200  0.115400  0.752500  1.0
  N  N2095  1  0.937100  0.820100  0.212700  1.0
  N  N2096  1  0.062900  0.179900  0.787300  1.0
  N  N2097  1  0.010500  0.851900  0.257000  1.0
  N  N2098  1  0.989500  0.148100  0.743000  1.0
  N  N2099  1  0.027800  0.857000  0.201800  1.0
  N  N2100  1  0.972200  0.143000  0.798200  1.0
  N  N2101  1  0.153200  0.954800  0.026600  1.0
  N  N2102  1  0.846800  0.045200  0.973400  1.0
  N  N2103  1  0.174500  0.984500  0.979100  1.0
  N  N2104  1  0.825500  0.015500  0.020900  1.0
  N  N2105  1  0.241500  0.992400  0.026500  1.0
  N  N2106  1  0.758500  0.007600  0.973500  1.0
  N  N2107  1  0.210100  0.057600  0.018500  1.0
  N  N2108  1  0.789900  0.942400  0.981500  1.0
  N  N2109  1  0.124500  0.324700  0.000900  1.0
  N  N2110  1  0.875500  0.675300  0.999100  1.0
  N  N2111  1  0.103100  0.391000  0.991200  1.0
  N  N2112  1  0.896900  0.609000  0.008800  1.0
  N  N2113  1  0.188300  0.397000  0.025700  1.0
  N  N2114  1  0.811700  0.603000  0.974300  1.0
  N  N2115  1  0.126200  0.421900  0.060400  1.0
  N  N2116  1  0.873800  0.578100  0.939600  1.0
  N  N2117  1  0.936300  0.493700  0.232700  1.0
  N  N2118  1  0.063700  0.506300  0.767300  1.0
  N  N2119  1  0.883300  0.509300  0.276200  1.0
  N  N2120  1  0.116700  0.490700  0.723800  1.0
  N  N2121  1  0.378000  0.907500  0.396100  1.0
  N  N2122  1  0.622000  0.092500  0.603900  1.0
  N  N2123  1  0.328000  0.956900  0.424200  1.0
  N  N2124  1  0.672000  0.043100  0.575800  1.0
  N  N2125  1  0.188100  0.180200  0.532500  1.0
  N  N2126  1  0.811900  0.819800  0.467500  1.0
  N  N2127  1  0.143500  0.238300  0.546800  1.0
  N  N2128  1  0.856500  0.761700  0.453200  1.0
  N  N2129  1  0.221500  0.239600  0.589500  1.0
  N  N2130  1  0.778500  0.760400  0.410500  1.0
  N  N2131  1  0.227500  0.293300  0.556500  1.0
  N  N2132  1  0.772500  0.706700  0.443500  1.0
  N  N2133  1  0.254700  0.517000  0.442600  1.0
  N  N2134  1  0.745300  0.483000  0.557400  1.0
  N  N2135  1  0.248800  0.569300  0.408300  1.0
  N  N2136  1  0.751200  0.430700  0.591700  1.0
  N  N2137  1  0.588500  0.082900  0.152500  1.0
  N  N2138  1  0.411500  0.917100  0.847500  1.0
  N  N2139  1  0.543500  0.056500  0.193900  1.0
  N  N2140  1  0.456500  0.943500  0.806100  1.0
  N  N2141  1  0.358000  0.933200  0.338400  1.0
  N  N2142  1  0.642000  0.066800  0.661600  1.0
  N  N2143  1  0.290100  0.905800  0.364700  1.0
  N  N2144  1  0.709900  0.094200  0.635300  1.0
  N  N2145  1  0.321700  0.590500  0.456400  1.0
  N  N2146  1  0.678300  0.409500  0.543600  1.0
  N  N2147  1  0.347600  0.573500  0.401600  1.0
  N  N2148  1  0.652400  0.426500  0.598400  1.0
  N  N2149  1  0.462200  0.497900  0.195800  1.0
  N  N2150  1  0.537800  0.502100  0.804200  1.0
  N  N2151  1  0.467300  0.462700  0.138900  1.0
  N  N2152  1  0.532700  0.537300  0.861100  1.0
  N  N2153  1  0.505100  0.055300  0.135100  1.0
  N  N2154  1  0.494900  0.944700  0.864900  1.0
  N  N2155  1  0.525500  0.131200  0.142600  1.0
  N  N2156  1  0.474500  0.868800  0.857400  1.0
  N  N2157  1  0.549000  0.422600  0.166800  1.0
  N  N2158  1  0.451000  0.577400  0.833200  1.0
  N  N2159  1  0.559600  0.497600  0.174500  1.0
  N  N2160  1  0.440400  0.502400  0.825500  1.0
  N  N2161  1  0.357400  0.513000  0.435000  1.0
  N  N2162  1  0.642600  0.487000  0.565000  1.0
  N  N2163  1  0.290400  0.496200  0.387600  1.0
  N  N2164  1  0.709600  0.503800  0.612400  1.0
  N  N2165  1  0.982000  0.439200  0.266000  1.0
  N  N2166  1  0.018000  0.560800  0.734000  1.0
  N  N2167  1  0.891200  0.427500  0.249400  1.0
  N  N2168  1  0.108800  0.572500  0.750600  1.0
  N  N2169  1  0.114500  0.022400  0.023300  1.0
  N  N2170  1  0.885500  0.977600  0.976700  1.0
  N  N2171  1  0.181600  0.033400  0.069300  1.0
  N  N2172  1  0.818400  0.966600  0.930700  1.0
  N  N2173  1  0.481800  0.109900  0.190600  1.0
  N  N2174  1  0.518200  0.890100  0.809400  1.0
  N  N2175  1  0.569700  0.138300  0.207300  1.0
  N  N2176  1  0.430300  0.861700  0.792700  1.0
  N  N2177  1  0.944200  0.894400  0.188300  1.0
  N  N2178  1  0.055800  0.105600  0.811700  1.0
  N  N2179  1  0.010300  0.925900  0.234200  1.0
  N  N2180  1  0.989700  0.074100  0.765800  1.0
  N  N2181  1  0.309900  0.989900  0.368200  1.0
  N  N2182  1  0.690100  0.010100  0.631800  1.0
  N  N2183  1  0.395800  0.992500  0.394100  1.0
  N  N2184  1  0.604200  0.007500  0.605900  1.0
  N  N2185  1  0.279600  0.232200  0.538000  1.0
  N  N2186  1  0.720400  0.767800  0.462000  1.0
  N  N2187  1  0.207100  0.236200  0.497900  1.0
  N  N2188  1  0.792900  0.763800  0.502100  1.0
  N  N2189  1  0.903700  0.194900  0.372500  1.0
  N  N2190  1  0.096300  0.805100  0.627500  1.0
  N  N2191  1  0.819400  0.164700  0.345000  1.0
  N  N2192  1  0.180600  0.835300  0.655000  1.0
  N  N2193  1  0.533600  0.454500  0.224200  1.0
  N  N2194  1  0.466400  0.545500  0.775800  1.0
  N  N2195  1  0.456200  0.417400  0.190200  1.0
  N  N2196  1  0.543800  0.582600  0.809800  1.0
  N  N2197  1  0.143600  0.350400  0.068200  1.0
  N  N2198  1  0.856400  0.649600  0.931800  1.0
  N  N2199  1  0.058900  0.348000  0.036300  1.0
  N  N2200  1  0.941100  0.652000  0.963700  1.0
  N  N2201  1  0.869400  0.127100  0.501400  1.0
  N  N2202  1  0.130600  0.872900  0.498600  1.0
  N  N2203  1  0.004300  0.171800  0.540100  1.0
  N  N2204  1  0.995700  0.828200  0.459900  1.0
  N  N2205  1  0.004000  0.216500  0.471200  1.0
  N  N2206  1  0.996000  0.783500  0.528800  1.0
  N  N2207  1  0.893600  0.341000  0.286400  1.0
  N  N2208  1  0.106400  0.659000  0.713600  1.0
  N  N2209  1  0.156700  0.027400  0.603900  1.0
  N  N2210  1  0.843300  0.972600  0.396100  1.0
  N  N2211  1  0.942200  0.288200  0.352500  1.0
  N  N2212  1  0.057800  0.711800  0.647500  1.0
  N  N2213  1  0.201200  0.487700  0.554200  1.0
  N  N2214  1  0.798800  0.512300  0.445800  1.0
  N  N2215  1  0.546000  0.477700  0.604500  1.0
  N  N2216  1  0.454000  0.522300  0.395500  1.0
  N  N2217  1  0.046300  0.364000  0.446400  1.0
  N  N2218  1  0.953700  0.636000  0.553600  1.0
  N  N2219  1  0.255800  0.132900  0.086700  1.0
  N  N2220  1  0.744200  0.867100  0.913300  1.0
  N  N2221  1  0.516400  0.102800  0.279500  0.5
  N  N2222  1  0.483600  0.897200  0.720500  0.5
  N  N2223  1  0.402000  0.162000  0.133200  0.5
  N  N2224  1  0.598000  0.838000  0.866800  0.5
  O  O2225  1  0.052400  0.643900  0.245200  1.0
  O  O2226  1  0.947600  0.356100  0.754800  1.0
  O  O2227  1  0.732900  0.025100  0.440700  1.0
  O  O2228  1  0.267100  0.974900  0.559300  1.0
  O  O2229  1  0.865300  0.327900  0.522400  1.0
  O  O2230  1  0.134700  0.672100  0.477600  1.0
  O  O2231  1  0.989600  0.687600  0.144100  1.0
  O  O2232  1  0.010400  0.312400  0.855900  1.0
  O  O2233  1  0.952800  0.846700  0.371900  1.0
  O  O2234  1  0.047200  0.153300  0.628100  1.0
  O  O2235  1  0.223100  0.048800  0.880300  1.0
  O  O2236  1  0.776900  0.951200  0.119700  1.0
  O  O2237  1  0.321500  0.859700  0.039700  1.0
  O  O2238  1  0.678500  0.140300  0.960300  1.0
  O  O2239  1  0.073100  0.540800  0.985600  1.0
  O  O2240  1  0.926900  0.459200  0.014400  1.0
  O  O2241  1  0.305400  0.333200  0.945000  1.0
  O  O2242  1  0.694600  0.666800  0.055000  1.0
  O  O2243  1  0.773000  0.543300  0.370500  1.0
  O  O2244  1  0.227000  0.456700  0.629500  1.0
  O  O2245  1  0.461600  0.803900  0.316400  1.0
  O  O2246  1  0.538400  0.196100  0.683600  1.0
  O  O2247  1  0.068300  0.372800  0.590900  1.0
  O  O2248  1  0.931700  0.627200  0.409100  1.0
  O  O2249  1  0.210100  0.118900  0.653900  1.0
  O  O2250  1  0.789900  0.881100  0.346100  1.0
  O  O2251  1  0.245300  0.682400  0.336200  1.0
  O  O2252  1  0.754700  0.317600  0.663800  1.0
  O  O2253  1  0.675400  0.135500  0.059900  1.0
  O  O2254  1  0.324600  0.864500  0.940100  1.0
  O  O2255  1  0.154200  0.850000  0.429100  1.0
  O  O2256  1  0.845800  0.150000  0.570900  1.0
  O  O2257  1  0.215600  0.612200  0.553300  1.0
  O  O2258  1  0.784400  0.387800  0.446700  1.0
  O  O2259  1  0.497900  0.386700  0.022500  1.0
  O  O2260  1  0.502100  0.613300  0.977500  1.0
  O  O2261  1  0.464000  0.896300  0.124700  1.0
  O  O2262  1  0.536000  0.103700  0.875300  1.0
  O  O2263  1  0.543100  0.654700  0.193100  1.0
  O  O2264  1  0.456900  0.345300  0.806900  1.0
  O  O2265  1  0.493300  0.553900  0.539100  1.0
  O  O2266  1  0.506700  0.446100  0.460900  1.0
  O  O2267  1  0.697400  0.407100  0.215200  1.0
  O  O2268  1  0.302600  0.592900  0.784800  1.0
  O  O2269  1  0.974700  0.002000  0.923000  1.0
  O  O2270  1  0.025300  0.998000  0.077000  1.0
  O  O2271  1  0.753000  0.208400  0.234900  1.0
  O  O2272  1  0.247000  0.791600  0.765100  1.0
  O  O2273  1  0.819400  0.829300  0.081900  1.0
  O  O2274  1  0.180600  0.170700  0.918100  1.0
  O  O2275  1  0.581800  0.993800  0.441000  1.0
  O  O2276  1  0.418200  0.006200  0.559000  1.0
  O  O2277  1  0.429600  0.215300  0.623400  1.0
  O  O2278  1  0.570400  0.784700  0.376600  1.0
  O  O2279  1  0.638400  0.099200  0.292000  1.0
  O  O2280  1  0.361600  0.900800  0.708000  1.0
  O  O2281  1  0.698400  0.538900  0.292300  1.0
  O  O2282  1  0.301600  0.461100  0.707700  1.0
  O  O2283  1  0.887400  0.350700  0.966000  1.0
  O  O2284  1  0.112600  0.649300  0.034000  1.0
  F  F2285  1  0.819000  0.398100  0.331800  1.0
  F  F2286  1  0.181000  0.601900  0.668200  1.0
  F  F2287  1  0.776400  0.337400  0.349400  1.0
  F  F2288  1  0.223600  0.662600  0.650600  1.0
  F  F2289  1  0.916300  0.328600  0.413000  1.0
  F  F2290  1  0.083700  0.671400  0.587000  1.0
  F  F2291  1  0.958000  0.389400  0.395100  1.0
  F  F2292  1  0.042000  0.610600  0.604900  1.0
  F  F2293  1  0.805500  0.025100  0.336800  1.0
  F  F2294  1  0.194500  0.974900  0.663200  1.0
  F  F2295  1  0.805100  0.958400  0.296000  1.0
  F  F2296  1  0.194900  0.041600  0.704000  1.0
  F  F2297  1  0.968800  0.967700  0.321700  1.0
  F  F2298  1  0.031200  0.032300  0.678300  1.0
  F  F2299  1  0.969000  0.032100  0.362900  1.0
  F  F2300  1  0.031000  0.967900  0.637100  1.0
  F  F2301  1  0.012800  0.846400  0.106200  1.0
  F  F2302  1  0.987200  0.153600  0.893800  1.0
  F  F2303  1  0.036200  0.868600  0.054900  1.0
  F  F2304  1  0.963800  0.131400  0.945100  1.0
  F  F2305  1  0.192200  0.906200  0.103800  1.0
  F  F2306  1  0.807800  0.093800  0.896200  1.0
  F  F2307  1  0.169500  0.884100  0.155100  1.0
  F  F2308  1  0.830500  0.115900  0.844900  1.0
  F  F2309  1  0.131600  0.120500  0.969700  1.0
  F  F2310  1  0.868400  0.879500  0.030300  1.0
  F  F2311  1  0.096900  0.183000  0.959500  1.0
  F  F2312  1  0.903100  0.817000  0.040500  1.0
  F  F2313  1  0.223200  0.261000  0.029100  1.0
  F  F2314  1  0.776800  0.739000  0.970900  1.0
  F  F2315  1  0.256800  0.198400  0.039200  1.0
  F  F2316  1  0.743200  0.801600  0.960800  1.0
  F  F2317  1  0.001900  0.466100  0.080400  1.0
  F  F2318  1  0.998100  0.533900  0.919600  1.0
  F  F2319  1  0.940600  0.480300  0.120100  1.0
  F  F2320  1  0.059400  0.519700  0.879900  1.0
  F  F2321  1  0.064200  0.504500  0.204400  1.0
  F  F2322  1  0.935800  0.495500  0.795600  1.0
  F  F2323  1  0.124600  0.490800  0.164500  1.0
  F  F2324  1  0.875400  0.509200  0.835500  1.0
  F  F2325  1  0.329400  0.044800  0.522400  1.0
  F  F2326  1  0.670600  0.955200  0.477600  1.0
  F  F2327  1  0.283500  0.103700  0.544200  1.0
  F  F2328  1  0.716500  0.896300  0.455800  1.0
  F  F2329  1  0.156000  0.052200  0.464700  1.0
  F  F2330  1  0.844000  0.947800  0.535300  1.0
  F  F2331  1  0.203800  0.994600  0.442600  1.0
  F  F2332  1  0.796200  0.005400  0.557400  1.0
  F  F2333  1  0.301500  0.426800  0.558800  1.0
  F  F2334  1  0.698500  0.573200  0.441200  1.0
  F  F2335  1  0.296700  0.478500  0.522600  1.0
  F  F2336  1  0.703300  0.521500  0.477400  1.0
  F  F2337  1  0.162300  0.403700  0.461400  1.0
  F  F2338  1  0.837700  0.596300  0.538600  1.0
  F  F2339  1  0.167400  0.350600  0.495700  1.0
  F  F2340  1  0.832600  0.649400  0.504300  1.0
  F  F2341  1  0.555700  0.988900  0.285700  1.0
  F  F2342  1  0.444300  0.011100  0.714300  1.0
  F  F2343  1  0.493600  0.956500  0.316200  1.0
  F  F2344  1  0.506400  0.043500  0.683800  1.0
  F  F2345  1  0.370300  0.966100  0.239400  1.0
  F  F2346  1  0.629700  0.033900  0.760600  1.0
  F  F2347  1  0.431600  0.002300  0.210400  1.0
  F  F2348  1  0.568400  0.997700  0.789600  1.0
  F  F2349  1  0.482300  0.587100  0.345100  1.0
  F  F2350  1  0.517700  0.412900  0.654900  1.0
  F  F2351  1  0.501200  0.566200  0.286900  1.0
  F  F2352  1  0.498800  0.433800  0.713100  1.0
  F  F2353  1  0.339400  0.543300  0.250200  1.0
  F  F2354  1  0.660600  0.456700  0.749800  1.0
  F  F2355  1  0.320700  0.564600  0.308400  1.0
  F  F2356  1  0.679300  0.435400  0.691600  1.0
  F  F2357  1  0.611800  0.232400  0.151600  1.0
  F  F2358  1  0.388200  0.767600  0.848400  1.0
  F  F2359  1  0.632600  0.307900  0.160400  1.0
  F  F2360  1  0.367400  0.692100  0.839600  1.0
  F  F2361  1  0.475700  0.317200  0.120500  1.0
  F  F2362  1  0.524300  0.682800  0.879500  1.0
  F  F2363  1  0.455600  0.242100  0.112700  1.0
  F  F2364  1  0.544400  0.757900  0.887300  1.0
  F  F2365  1  0.206900  0.500700  0.306300  1.0
  F  F2366  1  0.793100  0.499300  0.693700  1.0
  F  F2367  1  0.121200  0.484000  0.272300  1.0
  F  F2368  1  0.878800  0.516000  0.727700  1.0
  F  F2369  1  0.098600  0.366600  0.308000  1.0
  F  F2370  1  0.901400  0.633400  0.692000  1.0
  F  F2371  1  0.184000  0.382200  0.339700  1.0
  F  F2372  1  0.816000  0.617800  0.660300  1.0
  F  F2373  1  0.279800  0.008800  0.134900  1.0
  F  F2374  1  0.720200  0.991200  0.865100  1.0
  F  F2375  1  0.363800  0.031200  0.169200  1.0
  F  F2376  1  0.636200  0.968800  0.830800  1.0
  F  F2377  1  0.329400  0.160500  0.189900  1.0
  F  F2378  1  0.670600  0.839500  0.810100  1.0
  F  F2379  1  0.246800  0.138600  0.155900  1.0
  F  F2380  1  0.753200  0.861400  0.844100  1.0
  F  F2381  1  0.146900  0.021700  0.247500  1.0
  F  F2382  1  0.853100  0.978300  0.752500  1.0
  F  F2383  1  0.228800  0.041200  0.283900  1.0
  F  F2384  1  0.771200  0.958800  0.716100  1.0
  F  F2385  1  0.167100  0.978200  0.358800  1.0
  F  F2386  1  0.832900  0.021800  0.641200  1.0
  F  F2387  1  0.084600  0.961500  0.322800  1.0
  F  F2388  1  0.915400  0.038500  0.677200  1.0
  F  F2389  1  0.097400  0.282900  0.458800  1.0
  F  F2390  1  0.902600  0.717100  0.541200  1.0
  F  F2391  1  0.012900  0.271700  0.424900  1.0
  F  F2392  1  0.987100  0.728300  0.575100  1.0
  F  F2393  1  0.060400  0.169700  0.354800  1.0
  F  F2394  1  0.939600  0.830300  0.645200  1.0
  F  F2395  1  0.142900  0.179200  0.389500  1.0
  F  F2396  1  0.857100  0.820800  0.610500  1.0
  F  F2397  1  0.364700  0.348200  0.116800  1.0
  F  F2398  1  0.635300  0.651800  0.883200  1.0
  F  F2399  1  0.281900  0.329800  0.084100  1.0
  F  F2400  1  0.718100  0.670200  0.915900  1.0
  F  F2401  1  0.211900  0.358800  0.176300  1.0
  F  F2402  1  0.788100  0.641200  0.823700  1.0
  F  F2403  1  0.296300  0.376100  0.209300  1.0
  F  F2404  1  0.703700  0.623900  0.790700  1.0
  F  F2405  1  0.139300  0.276400  0.778300  1.0
  F  F2406  1  0.860700  0.723600  0.221700  1.0
  F  F2407  1  0.194200  0.349300  0.668900  1.0
  F  F2408  1  0.805800  0.650700  0.331100  1.0
  F  F2409  1  0.242300  0.273900  0.755900  1.0
  F  F2410  1  0.757700  0.726100  0.244100  1.0
  F  F2411  1  0.213100  0.355700  0.790300  1.0
  F  F2412  1  0.786900  0.644300  0.209700  1.0
  F  F2413  1  0.102500  0.358400  0.765400  1.0
  F  F2414  1  0.897500  0.641600  0.234600  1.0
  F  F2415  1  0.062800  0.277400  0.718400  1.0
  F  F2416  1  0.937200  0.722600  0.281600  1.0
  F  F2417  1  0.148800  0.224600  0.711400  1.0
  F  F2418  1  0.851200  0.775400  0.288600  1.0
  F  F2419  1  0.228700  0.270000  0.681100  1.0
  F  F2420  1  0.771300  0.730000  0.318900  1.0
  F  F2421  1  0.268100  0.351900  0.730300  1.0
  F  F2422  1  0.731900  0.648100  0.269700  1.0
  F  F2423  1  0.183800  0.403800  0.735800  1.0
  F  F2424  1  0.816200  0.596200  0.264200  1.0
  F  F2425  1  0.091900  0.353400  0.690800  1.0
  F  F2426  1  0.908100  0.646600  0.309200  1.0
  F  F2427  1  0.117700  0.271900  0.659600  1.0
  F  F2428  1  0.882300  0.728100  0.340400  1.0
  F  F2429  1  0.589200  0.162600  0.534800  1.0
  F  F2430  1  0.410800  0.837400  0.465200  1.0
  F  F2431  1  0.744000  0.284900  0.513700  1.0
  F  F2432  1  0.256000  0.715100  0.486300  1.0
  F  F2433  1  0.580000  0.200800  0.473400  1.0
  F  F2434  1  0.420000  0.799200  0.526600  1.0
  F  F2435  1  0.574800  0.253700  0.541900  1.0
  F  F2436  1  0.425200  0.746300  0.458100  1.0
  F  F2437  1  0.649300  0.226100  0.591900  1.0
  F  F2438  1  0.350700  0.773900  0.408100  1.0
  F  F2439  1  0.697900  0.157600  0.554900  1.0
  F  F2440  1  0.302100  0.842400  0.445100  1.0
  F  F2441  1  0.655400  0.141000  0.482300  1.0
  F  F2442  1  0.344600  0.859000  0.517700  1.0
  F  F2443  1  0.683600  0.220000  0.455200  1.0
  F  F2444  1  0.316400  0.780000  0.544800  1.0
  F  F2445  1  0.635000  0.288600  0.492400  1.0
  F  F2446  1  0.365000  0.711400  0.507600  1.0
  F  F2447  1  0.676300  0.304400  0.564800  1.0
  F  F2448  1  0.323700  0.695600  0.435200  1.0
  F  F2449  1  0.753300  0.244600  0.572500  1.0
  F  F2450  1  0.246700  0.755400  0.427500  1.0
  F  F2451  1  0.756900  0.193000  0.506800  1.0
  F  F2452  1  0.243100  0.807000  0.493200  1.0
  F  F2453  1  0.119700  0.224700  0.071300  1.0
  F  F2454  1  0.880300  0.775300  0.928700  1.0
  F  F2455  1  0.933700  0.124800  0.077300  1.0
  F  F2456  1  0.066300  0.875200  0.922700  1.0
  F  F2457  1  0.047900  0.185200  0.010000  1.0
  F  F2458  1  0.952100  0.814800  0.990000  1.0
  F  F2459  1  0.020700  0.256800  0.060000  1.0
  F  F2460  1  0.979300  0.743200  0.940000  1.0
  F  F2461  1  0.057500  0.246400  0.129400  1.0
  F  F2462  1  0.942500  0.753600  0.870600  1.0
  F  F2463  1  0.111100  0.167900  0.122700  1.0
  F  F2464  1  0.888900  0.832100  0.877300  1.0
  F  F2465  1  0.105200  0.131600  0.049100  1.0
  F  F2466  1  0.894800  0.868400  0.950900  1.0
  F  F2467  1  0.995700  0.104500  0.021500  1.0
  F  F2468  1  0.004300  0.895500  0.978500  1.0
  F  F2469  1  0.942600  0.183500  0.028600  1.0
  F  F2470  1  0.057400  0.816500  0.971400  1.0
  F  F2471  1  0.948100  0.218700  0.100200  1.0
  F  F2472  1  0.051900  0.781300  0.899800  1.0
  F  F2473  1  0.007900  0.164400  0.139900  1.0
  F  F2474  1  0.992100  0.835600  0.860100  1.0
  F  F2475  1  0.036300  0.096100  0.090500  1.0
  F  F2476  1  0.963700  0.903900  0.909500  1.0
  F  F2477  1  0.067900  0.969800  0.455100  1.0
  F  F2478  1  0.932100  0.030200  0.544900  1.0
  F  F2479  1  0.974200  0.003100  0.430300  1.0
  F  F2480  1  0.025800  0.996900  0.569700  1.0
  F  F2481  1  0.059400  0.062800  0.476400  1.0
  F  F2482  1  0.940600  0.937200  0.523600  1.0
  F  F2483  1  0.105800  0.014400  0.524900  1.0
  F  F2484  1  0.894200  0.985600  0.475100  1.0
  F  F2485  1  0.046300  0.928200  0.510600  1.0
  F  F2486  1  0.953700  0.071800  0.489400  1.0
  F  F2487  1  0.965100  0.922900  0.453400  1.0
  F  F2488  1  0.034900  0.077100  0.546600  1.0
  F  F2489  1  0.017900  0.458400  0.555100  1.0
  F  F2490  1  0.982100  0.541600  0.444900  1.0
  F  F2491  1  0.978500  0.412000  0.484500  1.0
  F  F2492  1  0.021500  0.588000  0.515500  1.0
  F  F2493  1  0.085100  0.454400  0.500300  1.0
  F  F2494  1  0.914900  0.545600  0.499700  1.0
  F  F2495  1  0.085200  0.533400  0.550000  1.0
  F  F2496  1  0.914800  0.466600  0.450000  1.0
  F  F2497  1  0.973200  0.536200  0.562200  1.0
  F  F2498  1  0.026800  0.463800  0.437800  1.0
  F  F2499  1  0.913700  0.462400  0.521800  1.0
  F  F2500  1  0.086300  0.537600  0.478200  1.0
  F  F2501  1  0.877330  0.088200  0.295320  0.3333
  F  F2502  1  0.122670  0.911800  0.704680  0.3333
  F  F2503  1  0.868400  0.045500  0.152650  0.3333
  F  F2504  1  0.131600  0.954500  0.847350  0.3333
  F  F2505  1  0.780850  0.083300  0.248890  0.3333
  F  F2506  1  0.219150  0.916700  0.751110  0.3333
  F  F2507  1  0.866330  0.151700  0.251900  0.3333
  F  F2508  1  0.133670  0.848300  0.748100  0.3333
  F  F2509  1  0.964010  0.114340  0.260350  0.3333
  F  F2510  1  0.035990  0.885660  0.739650  0.3333
  F  F2511  1  0.939300  0.025210  0.262780  0.3333
  F  F2512  1  0.060700  0.974790  0.737220  0.3333
  F  F2513  1  0.826400  0.004800  0.255640  0.3333
  F  F2514  1  0.173600  0.995200  0.744360  0.3333
  F  F2515  1  0.783000  0.017100  0.187990  0.3333
  F  F2516  1  0.217000  0.982900  0.812010  0.3333
  F  F2517  1  0.807580  0.108000  0.185270  0.3333
  F  F2518  1  0.192420  0.892000  0.814730  0.3333
  F  F2519  1  0.920340  0.128800  0.193170  0.3333
  F  F2520  1  0.079660  0.871200  0.806830  0.3333
  F  F2521  1  0.965500  0.049210  0.198850  0.3333
  F  F2522  1  0.034500  0.950790  0.801150  0.3333
  F  F2523  1  0.881300  0.981600  0.195120  0.3333
  F  F2524  1  0.118700  0.018400  0.804880  0.3333
  F  F2525  1  0.884700  0.093500  0.297480  0.3333
  F  F2526  1  0.115300  0.906500  0.702520  0.3333
  F  F2527  1  0.926400  0.074500  0.162060  0.3333
  F  F2528  1  0.073600  0.925500  0.837940  0.3333
  F  F2529  1  0.804260  0.094000  0.240220  0.3333
  F  F2530  1  0.195740  0.906000  0.759780  0.3333
  F  F2531  1  0.889180  0.165100  0.261500  0.3333
  F  F2532  1  0.110820  0.834900  0.738500  0.3333
  F  F2533  1  0.984280  0.128370  0.280640  0.3333
  F  F2534  1  0.015720  0.871630  0.719360  0.3333
  F  F2535  1  0.958500  0.036870  0.271630  0.3333
  F  F2536  1  0.041500  0.963130  0.728370  0.3333
  F  F2537  1  0.847500  0.014400  0.246540  0.3333
  F  F2538  1  0.152500  0.985600  0.753460  0.3333
  F  F2539  1  0.828000  0.037400  0.179250  0.3333
  F  F2540  1  0.172000  0.962600  0.820750  0.3333
  F  F2541  1  0.853780  0.130700  0.188120  0.3333
  F  F2542  1  0.146220  0.869300  0.811880  0.3333
  F  F2543  1  0.964320  0.153410  0.213900  0.3333
  F  F2544  1  0.035680  0.846590  0.786100  0.3333
  F  F2545  1  0.007560  0.072920  0.219110  0.3333
  F  F2546  1  0.992440  0.927080  0.780890  0.3333
  F  F2547  1  0.924200  0.002700  0.197410  0.3333
  F  F2548  1  0.075800  0.997300  0.802590  0.3333
  F  F2549  1  0.525900  0.243600  0.219270  0.3333
  F  F2550  1  0.474100  0.756400  0.780730  0.3333
  F  F2551  1  0.577300  0.368400  0.339690  0.3333
  F  F2552  1  0.422700  0.631600  0.660310  0.3333
  F  F2553  1  0.624600  0.300200  0.234180  0.3333
  F  F2554  1  0.375400  0.699800  0.765820  0.3333
  F  F2555  1  0.527000  0.334900  0.219230  0.3333
  F  F2556  1  0.473000  0.665100  0.780770  0.3333
  F  F2557  1  0.447700  0.290020  0.251210  0.3333
  F  F2558  1  0.552300  0.709980  0.748790  0.3333
  F  F2559  1  0.495110  0.228790  0.284810  0.3333
  F  F2560  1  0.504890  0.771210  0.715190  0.3333
  F  F2561  1  0.604550  0.234200  0.274960  0.3333
  F  F2562  1  0.395450  0.765800  0.725040  0.3333
  F  F2563  1  0.654910  0.319900  0.308760  0.3333
  F  F2564  1  0.345090  0.680100  0.691240  0.3333
  F  F2565  1  0.607200  0.382700  0.274540  0.3333
  F  F2566  1  0.392800  0.617300  0.725460  0.3333
  F  F2567  1  0.497600  0.376670  0.283660  0.3333
  F  F2568  1  0.502400  0.623330  0.716340  0.3333
  F  F2569  1  0.478470  0.311220  0.325580  0.3333
  F  F2570  1  0.521530  0.688780  0.674420  0.3333
  F  F2571  1  0.574820  0.277600  0.341010  0.3333
  F  F2572  1  0.425180  0.722400  0.658990  0.3333
  F  F2573  1  0.363440  0.116840  0.323300  0.3333
  F  F2574  1  0.636560  0.883160  0.676700  0.3333
  F  F2575  1  0.579000  0.150400  0.349630  0.3333
  F  F2576  1  0.421000  0.849600  0.650370  0.3333
  F  F2577  1  0.428900  0.090630  0.270460  0.3333
  F  F2578  1  0.571100  0.909370  0.729540  0.3333
  F  F2579  1  0.421910  0.181900  0.295140  0.3333
  F  F2580  1  0.578090  0.818100  0.704860  0.3333
  F  F2581  1  0.416700  0.195050  0.369710  0.3333
  F  F2582  1  0.583300  0.804950  0.630290  0.3333
  F  F2583  1  0.420000  0.113780  0.390410  0.3333
  F  F2584  1  0.580000  0.886220  0.609590  0.3333
  F  F2585  1  0.427700  0.048440  0.329750  0.3333
  F  F2586  1  0.572300  0.951560  0.670250  0.3333
  F  F2587  1  0.525400  0.071000  0.304860  0.3333
  F  F2588  1  0.474600  0.929000  0.695140  0.3333
  F  F2589  1  0.522420  0.153660  0.283380  0.3333
  F  F2590  1  0.477580  0.846340  0.716620  0.3333
  F  F2591  1  0.513520  0.218810  0.343730  0.3333
  F  F2592  1  0.486480  0.781190  0.656270  0.3333
  F  F2593  1  0.513990  0.176200  0.403300  0.3333
  F  F2594  1  0.486010  0.823800  0.596700  0.3333
  F  F2595  1  0.522000  0.086400  0.379190  0.3333
  F  F2596  1  0.478000  0.913600  0.620810  0.3333
  F  F2597  1  0.290420  0.250720  0.391650  0.3333
  F  F2598  1  0.709580  0.749280  0.608350  0.3333
  F  F2599  1  0.290970  0.152280  0.260820  0.3333
  F  F2600  1  0.709030  0.847720  0.739180  0.3333
  F  F2601  1  0.194350  0.210120  0.347320  0.3333
  F  F2602  1  0.805650  0.789880  0.652680  0.3333
  F  F2603  1  0.257960  0.281310  0.328940  0.3333
  F  F2604  1  0.742040  0.718690  0.671060  0.3333
  F  F2605  1  0.367570  0.271340  0.347690  0.3333
  F  F2606  1  0.632430  0.728660  0.652310  0.3333
  F  F2607  1  0.371370  0.196010  0.377150  0.3333
  F  F2608  1  0.628630  0.803990  0.622850  0.3333
  F  F2609  1  0.264980  0.157180  0.377250  0.3333
  F  F2610  1  0.735020  0.842820  0.622750  0.3333
  F  F2611  1  0.215800  0.130250  0.305820  0.3333
  F  F2612  1  0.784200  0.869750  0.694180  0.3333
  F  F2613  1  0.211290  0.206860  0.275530  0.3333
  F  F2614  1  0.788710  0.793140  0.724470  0.3333
  F  F2615  1  0.317430  0.246270  0.276100  0.3333
  F  F2616  1  0.682570  0.753730  0.723900  0.3333
  F  F2617  1  0.387980  0.191980  0.305260  0.3333
  F  F2618  1  0.612020  0.808020  0.694740  0.3333
  F  F2619  1  0.325380  0.121250  0.322680  0.3333
  F  F2620  1  0.674620  0.878750  0.677320  0.3333
  F  F2621  1  0.481500  0.194700  0.920870  0.3333
  F  F2622  1  0.518500  0.805300  0.079130  0.3333
  F  F2623  1  0.380300  0.182800  0.034770  0.3333
  F  F2624  1  0.619700  0.817200  0.965230  0.3333
  F  F2625  1  0.460600  0.113500  0.943400  0.3333
  F  F2626  1  0.539400  0.886500  0.056600  0.3333
  F  F2627  1  0.536200  0.183000  0.985920  0.3333
  F  F2628  1  0.463800  0.817000  0.014080  0.3333
  F  F2629  1  0.495700  0.264500  0.981480  0.3333
  F  F2630  1  0.504300  0.735500  0.018520  0.3333
  F  F2631  1  0.397700  0.245700  0.937090  0.3333
  F  F2632  1  0.602300  0.754300  0.062910  0.3333
  F  F2633  1  0.374600  0.152600  0.913140  0.3333
  F  F2634  1  0.625400  0.847400  0.086860  0.3333
  F  F2635  1  0.363800  0.114100  0.973120  0.3333
  F  F2636  1  0.636200  0.885900  0.026880  0.3333
  F  F2637  1  0.463600  0.132800  0.018500  0.3333
  F  F2638  1  0.536400  0.867200  0.981500  0.3333
  F  F2639  1  0.487400  0.225700  0.041860  0.3333
  F  F2640  1  0.512600  0.774300  0.958140  0.3333
  F  F2641  1  0.399900  0.264500  0.012090  0.3333
  F  F2642  1  0.600100  0.735500  0.987910  0.3333
  F  F2643  1  0.324800  0.196100  0.970800  0.3333
  F  F2644  1  0.675200  0.803900  0.029200  0.3333
  F  F2645  1  0.323200  0.418760  0.456940  0.5
  F  F2646  1  0.676800  0.581240  0.543060  0.5
  F  F2647  1  0.413600  0.267720  0.445420  0.5
  F  F2648  1  0.586400  0.732280  0.554580  0.5
  F  F2649  1  0.346200  0.378500  0.516030  0.5
  F  F2650  1  0.653800  0.621500  0.483970  0.5
  F  F2651  1  0.264500  0.336740  0.459370  0.5
  F  F2652  1  0.735500  0.663260  0.540630  0.5
  F  F2653  1  0.300300  0.351300  0.394660  0.5
  F  F2654  1  0.699700  0.648700  0.605340  0.5
  F  F2655  1  0.401500  0.401140  0.411100  0.5
  F  F2656  1  0.598500  0.598860  0.588900  0.5
  F  F2657  1  0.431200  0.418470  0.485920  0.5
  F  F2658  1  0.568800  0.581530  0.514080  0.5
  F  F2659  1  0.438800  0.336500  0.506880  0.5
  F  F2660  1  0.561200  0.663500  0.493120  0.5
  F  F2661  1  0.335800  0.285500  0.490510  0.5
  F  F2662  1  0.664200  0.714500  0.509490  0.5
  F  F2663  1  0.305380  0.268950  0.415890  0.5
  F  F2664  1  0.694620  0.731050  0.584110  0.5
  F  F2665  1  0.391890  0.308170  0.385900  0.5
  F  F2666  1  0.608110  0.691830  0.614100  0.5
  F  F2667  1  0.473000  0.348540  0.441640  0.5
  F  F2668  1  0.527000  0.651460  0.558360  0.5
