# generated using pymatgen
data_Fe20P35.5H630C1018S2N148O4F399.0
_symmetry_space_group_name_H-M   'P 1'
_cell_length_a   31.49000000
_cell_length_b   32.93300000
_cell_length_c   41.01600000
_cell_angle_alpha   86.68500000
_cell_angle_beta   80.46800000
_cell_angle_gamma   65.45200000
_symmetry_Int_Tables_number   1
_chemical_formula_structural   Fe20P35.5H630C1018S2N148O4F399.0
_chemical_formula_sum   'Fe20 P35.5 H630 C1018 S2 N148 O4 F399.0'
_cell_volume   38154.31954894
_cell_formula_units_Z   1
loop_
 _symmetry_equiv_pos_site_id
 _symmetry_equiv_pos_as_xyz
  1  'x, y, z'
loop_
 _atom_site_type_symbol
 _atom_site_label
 _atom_site_symmetry_multiplicity
 _atom_site_fract_x
 _atom_site_fract_y
 _atom_site_fract_z
 _atom_site_occupancy
  Fe  Fe1  1  0.562520  0.684350  0.791380  1.0
  Fe  Fe2  1  0.437480  0.315650  0.208620  1.0
  Fe  Fe3  1  0.558870  0.288620  0.795630  1.0
  Fe  Fe4  1  0.441130  0.711380  0.204370  1.0
  Fe  Fe5  1  0.339510  0.286890  0.576150  1.0
  Fe  Fe6  1  0.660490  0.713110  0.423850  1.0
  Fe  Fe7  1  0.211550  0.667400  0.431380  1.0
  Fe  Fe8  1  0.788450  0.332600  0.568620  1.0
  Fe  Fe9  1  0.340900  0.920600  0.573440  1.0
  Fe  Fe10  1  0.659100  0.079400  0.426560  1.0
  Fe  Fe11  1  0.204540  0.813940  0.978980  1.0
  Fe  Fe12  1  0.795460  0.186060  0.021020  1.0
  Fe  Fe13  1  0.203260  0.414920  0.982480  1.0
  Fe  Fe14  1  0.796740  0.585080  0.017520  1.0
  Fe  Fe15  1  0.990790  0.400830  0.756350  1.0
  Fe  Fe16  1  0.009210  0.599170  0.243650  1.0
  Fe  Fe17  1  0.849280  0.794220  0.625670  1.0
  Fe  Fe18  1  0.150720  0.205780  0.374330  1.0
  Fe  Fe19  1  0.999130  0.041350  0.757230  1.0
  Fe  Fe20  1  0.000870  0.958650  0.242770  1.0
  P  P21  1  0.066600  0.460900  0.874900  1.0
  P  P22  1  0.933400  0.539100  0.125100  1.0
  P  P23  1  0.066800  0.901500  0.874900  1.0
  P  P24  1  0.933200  0.098500  0.125100  1.0
  P  P25  1  0.653300  0.132300  0.923700  1.0
  P  P26  1  0.346700  0.867700  0.076300  1.0
  P  P27  1  0.930700  0.266200  0.701600  1.0
  P  P28  1  0.069300  0.733800  0.298400  1.0
  P  P29  1  0.284400  0.144400  0.511800  1.0
  P  P30  1  0.715600  0.855600  0.488200  1.0
  P  P31  1  0.349600  0.234800  0.084100  1.0
  P  P32  1  0.650400  0.765200  0.915900  1.0
  P  P33  1  0.446600  0.966200  0.430700  1.0
  P  P34  1  0.553400  0.033800  0.569300  1.0
  P  P35  1  0.410400  0.321500  0.918400  1.0
  P  P36  1  0.589600  0.678500  0.081600  1.0
  P  P37  1  0.324700  0.736700  0.512900  1.0
  P  P38  1  0.675300  0.263300  0.487100  1.0
  P  P39  1  0.361900  0.175700  0.867600  1.0
  P  P40  1  0.638100  0.824300  0.132400  1.0
  P  P41  1  0.789500  0.194700  0.786800  1.0
  P  P42  1  0.210500  0.805300  0.213200  1.0
  P  P43  1  0.879100  0.589400  0.858800  1.0
  P  P44  1  0.120900  0.410600  0.141200  1.0
  P  P45  1  0.551800  0.502300  0.742200  0.25
  P  P46  1  0.448200  0.497700  0.257800  0.25
  P  P47  1  0.318900  0.475600  0.539400  0.25
  P  P48  1  0.681100  0.524400  0.460600  0.25
  P  P49  1  0.960300  0.612600  0.724100  0.25
  P  P50  1  0.039700  0.387400  0.275900  0.25
  P  P51  1  0.160000  0.666667  0.939300  0.25
  P  P52  1  0.840000  0.333333  0.060700  0.25
  P  P53  1  0.148800  0.027100  0.643200  0.331
  P  P54  1  0.851200  0.972900  0.356800  0.331
  P  P55  1  0.476200  0.310400  0.656600  0.333
  P  P56  1  0.523800  0.689600  0.343400  0.333
  P  P57  1  0.410200  0.742000  0.914600  0.375
  P  P58  1  0.589800  0.258000  0.085400  0.375
  P  P59  1  0.412300  0.766900  0.911700  0.375
  P  P60  1  0.587700  0.233100  0.088300  0.375
  P  P61  1  0.448900  0.752300  0.661500  0.413
  P  P62  1  0.551100  0.247700  0.338500  0.413
  P  P63  1  0.936500  0.867000  0.723200  0.5
  P  P64  1  0.063500  0.133000  0.276800  0.5
  P  P65  1  0.899800  0.700500  0.403500  0.5
  P  P66  1  0.100200  0.299500  0.596500  0.5
  P  P67  1  0.483300  0.757400  0.657000  0.587
  P  P68  1  0.516700  0.242600  0.343000  0.587
  P  P69  1  0.481700  0.305500  0.640100  0.667
  P  P70  1  0.518300  0.694500  0.359900  0.667
  P  P71  1  0.168300  0.115700  0.663300  0.669
  P  P72  1  0.831700  0.884300  0.336700  0.669
  H  H73  1  0.471200  0.791400  0.809600  1.0
  H  H74  1  0.528800  0.208600  0.190400  1.0
  H  H75  1  0.454900  0.867200  0.814300  1.0
  H  H76  1  0.545100  0.132800  0.185700  1.0
  H  H77  1  0.558300  0.836100  0.870400  1.0
  H  H78  1  0.441700  0.163900  0.129600  1.0
  H  H79  1  0.576000  0.760000  0.864800  1.0
  H  H80  1  0.424000  0.240000  0.135200  1.0
  H  H81  1  0.523400  0.712100  0.879800  1.0
  H  H82  1  0.476600  0.287900  0.120200  1.0
  H  H83  1  0.537600  0.635100  0.902900  1.0
  H  H84  1  0.462400  0.364900  0.097100  1.0
  H  H85  1  0.558500  0.559000  0.893000  1.0
  H  H86  1  0.441500  0.441000  0.107000  1.0
  H  H87  1  0.577700  0.582700  0.795300  1.0
  H  H88  1  0.422300  0.417300  0.204700  1.0
  H  H89  1  0.563000  0.380200  0.801600  1.0
  H  H90  1  0.437000  0.619800  0.198400  1.0
  H  H91  1  0.686800  0.351900  0.832400  1.0
  H  H92  1  0.313200  0.648100  0.167600  1.0
  H  H93  1  0.701700  0.276000  0.830600  1.0
  H  H94  1  0.298300  0.724000  0.169400  1.0
  H  H95  1  0.674600  0.215200  0.817600  1.0
  H  H96  1  0.325400  0.784800  0.182400  1.0
  H  H97  1  0.606200  0.189600  0.752800  1.0
  H  H98  1  0.393800  0.810400  0.247200  1.0
  H  H99  1  0.608200  0.118100  0.751700  1.0
  H  H100  1  0.391800  0.881900  0.248300  1.0
  H  H101  1  0.635700  0.098200  0.845500  1.0
  H  H102  1  0.364300  0.901800  0.154500  1.0
  H  H103  1  0.635400  0.169100  0.846300  1.0
  H  H104  1  0.364600  0.830900  0.153700  1.0
  H  H105  1  0.587300  0.230300  0.888100  1.0
  H  H106  1  0.412700  0.769700  0.111900  1.0
  H  H107  1  0.614200  0.250100  0.932100  1.0
  H  H108  1  0.385800  0.749900  0.067900  1.0
  H  H109  1  0.556100  0.379700  0.907200  1.0
  H  H110  1  0.443900  0.620300  0.092800  1.0
  H  H111  1  0.528000  0.360500  0.863600  1.0
  H  H112  1  0.472000  0.639500  0.136400  1.0
  H  H113  1  0.504500  0.251000  0.872200  1.0
  H  H114  1  0.495500  0.749000  0.127800  1.0
  H  H115  1  0.459500  0.213900  0.845500  1.0
  H  H116  1  0.540500  0.786100  0.154500  1.0
  H  H117  1  0.439000  0.197000  0.796900  1.0
  H  H118  1  0.561000  0.803000  0.203100  1.0
  H  H119  1  0.517200  0.256400  0.744500  1.0
  H  H120  1  0.482800  0.743600  0.255500  1.0
  H  H121  1  0.391200  0.265200  0.635400  1.0
  H  H122  1  0.608800  0.734800  0.364600  1.0
  H  H123  1  0.468400  0.132000  0.630600  1.0
  H  H124  1  0.531600  0.868000  0.369400  1.0
  H  H125  1  0.442100  0.131000  0.580400  1.0
  H  H126  1  0.557900  0.869000  0.419600  1.0
  H  H127  1  0.395900  0.176100  0.533600  1.0
  H  H128  1  0.604100  0.823900  0.466400  1.0
  H  H129  1  0.409900  0.247400  0.485100  1.0
  H  H130  1  0.590100  0.752600  0.514900  1.0
  H  H131  1  0.391100  0.264500  0.431600  1.0
  H  H132  1  0.608900  0.735500  0.568400  1.0
  H  H133  1  0.260100  0.272100  0.464500  1.0
  H  H134  1  0.739900  0.727900  0.535500  1.0
  H  H135  1  0.278500  0.255300  0.518100  1.0
  H  H136  1  0.721500  0.744700  0.481900  1.0
  H  H137  1  0.275600  0.196500  0.582700  1.0
  H  H138  1  0.724400  0.803500  0.417300  1.0
  H  H139  1  0.284800  0.131200  0.612100  1.0
  H  H140  1  0.715200  0.868800  0.387900  1.0
  H  H141  1  0.327600  0.175900  0.684900  1.0
  H  H142  1  0.672400  0.824100  0.315100  1.0
  H  H143  1  0.313800  0.243100  0.656900  1.0
  H  H144  1  0.686200  0.756900  0.343100  1.0
  H  H145  1  0.222800  0.279100  0.594400  1.0
  H  H146  1  0.777200  0.720900  0.405600  1.0
  H  H147  1  0.174400  0.346800  0.560900  1.0
  H  H148  1  0.825600  0.653200  0.439100  1.0
  H  H149  1  0.175100  0.402700  0.523000  1.0
  H  H150  1  0.824900  0.597300  0.477000  1.0
  H  H151  1  0.312800  0.366300  0.528900  1.0
  H  H152  1  0.687200  0.633700  0.471100  1.0
  H  H153  1  0.229800  0.576500  0.461300  1.0
  H  H154  1  0.770200  0.423500  0.538700  1.0
  H  H155  1  0.256300  0.492500  0.385500  1.0
  H  H156  1  0.743700  0.507500  0.614500  1.0
  H  H157  1  0.246800  0.552800  0.349300  1.0
  H  H158  1  0.753200  0.447200  0.650700  1.0
  H  H159  1  0.227700  0.638500  0.342200  1.0
  H  H160  1  0.772300  0.361500  0.657800  1.0
  H  H161  1  0.158600  0.715200  0.341700  1.0
  H  H162  1  0.841400  0.284800  0.658300  1.0
  H  H163  1  0.140700  0.786100  0.318800  1.0
  H  H164  1  0.859300  0.213900  0.681200  1.0
  H  H165  1  0.241000  0.799000  0.361800  1.0
  H  H166  1  0.759000  0.201000  0.638200  1.0
  H  H167  1  0.260100  0.727600  0.384000  1.0
  H  H168  1  0.739900  0.272400  0.616000  1.0
  H  H169  1  0.095400  0.695000  0.380200  1.0
  H  H170  1  0.904600  0.305000  0.619800  1.0
  H  H171  1  0.060700  0.649800  0.365100  1.0
  H  H172  1  0.939300  0.350200  0.634900  1.0
  H  H173  1  0.100200  0.570200  0.442900  1.0
  H  H174  1  0.899800  0.429800  0.557100  1.0
  H  H175  1  0.136100  0.614400  0.458000  1.0
  H  H176  1  0.863900  0.385600  0.542000  1.0
  H  H177  1  0.084600  0.740900  0.428400  1.0
  H  H178  1  0.915400  0.259100  0.571600  1.0
  H  H179  1  0.084800  0.817100  0.441100  1.0
  H  H180  1  0.915200  0.182900  0.558900  1.0
  H  H181  1  0.128600  0.856800  0.451900  1.0
  H  H182  1  0.871400  0.143200  0.548100  1.0
  H  H183  1  0.241700  0.739200  0.450800  1.0
  H  H184  1  0.758300  0.260800  0.549200  1.0
  H  H185  1  0.302700  0.870800  0.533700  1.0
  H  H186  1  0.697300  0.129200  0.466300  1.0
  H  H187  1  0.307600  0.921300  0.442100  1.0
  H  H188  1  0.692400  0.078700  0.557900  1.0
  H  H189  1  0.344400  0.964000  0.459300  1.0
  H  H190  1  0.655600  0.036000  0.540700  1.0
  H  H191  1  0.372900  0.988600  0.507500  1.0
  H  H192  1  0.627100  0.011400  0.492500  1.0
  H  H193  1  0.344900  0.048900  0.548500  1.0
  H  H194  1  0.655100  0.951100  0.451500  1.0
  H  H195  1  0.371100  0.091700  0.576700  1.0
  H  H196  1  0.628900  0.908300  0.423300  1.0
  H  H197  1  0.457100  0.980400  0.618400  1.0
  H  H198  1  0.542900  0.019600  0.381600  1.0
  H  H199  1  0.432800  0.936900  0.589200  1.0
  H  H200  1  0.567200  0.063100  0.410800  1.0
  H  H201  1  0.223300  0.948700  0.560200  1.0
  H  H202  1  0.776700  0.051300  0.439800  1.0
  H  H203  1  0.174000  0.982300  0.520400  1.0
  H  H204  1  0.826000  0.017700  0.479600  1.0
  H  H205  1  0.209700  0.087000  0.516700  1.0
  H  H206  1  0.790300  0.913000  0.483300  1.0
  H  H207  1  0.260800  0.052700  0.555300  1.0
  H  H208  1  0.739200  0.947300  0.444700  1.0
  H  H209  1  0.250200  0.025100  0.617100  1.0
  H  H210  1  0.749800  0.974900  0.382900  1.0
  H  H211  1  0.286800  0.017400  0.671000  1.0
  H  H212  1  0.713200  0.982600  0.329000  1.0
  H  H213  1  0.347600  0.974900  0.701400  1.0
  H  H214  1  0.652400  0.025100  0.298600  1.0
  H  H215  1  0.402900  0.883700  0.627500  1.0
  H  H216  1  0.597100  0.116300  0.372500  1.0
  H  H217  1  0.507700  0.756000  0.743600  1.0
  H  H218  1  0.492300  0.244000  0.256400  1.0
  H  H219  1  0.572600  0.840000  0.731600  1.0
  H  H220  1  0.427400  0.160000  0.268400  1.0
  H  H221  1  0.629500  0.790900  0.762700  1.0
  H  H222  1  0.370500  0.209100  0.237300  1.0
  H  H223  1  0.656900  0.719300  0.797500  1.0
  H  H224  1  0.343100  0.280700  0.202500  1.0
  H  H225  1  0.662100  0.696200  0.848000  1.0
  H  H226  1  0.337900  0.303800  0.152000  1.0
  H  H227  1  0.704900  0.646900  0.886300  1.0
  H  H228  1  0.295100  0.353100  0.113700  1.0
  H  H229  1  0.694600  0.544400  0.844000  1.0
  H  H230  1  0.305400  0.455600  0.156000  1.0
  H  H231  1  0.652300  0.593300  0.805500  1.0
  H  H232  1  0.347700  0.406700  0.194500  1.0
  H  H233  1  0.301700  0.855600  0.010300  1.0
  H  H234  1  0.698300  0.144400  0.989700  1.0
  H  H235  1  0.314000  0.920900  0.000600  1.0
  H  H236  1  0.686000  0.079100  0.999400  1.0
  H  H237  1  0.274400  0.931500  0.910700  1.0
  H  H238  1  0.725600  0.068500  0.089300  1.0
  H  H239  1  0.261000  0.866900  0.920300  1.0
  H  H240  1  0.739000  0.133100  0.079700  1.0
  H  H241  1  0.331400  0.777200  0.983100  1.0
  H  H242  1  0.668600  0.222800  0.016900  1.0
  H  H243  1  0.351000  0.696200  0.999600  1.0
  H  H244  1  0.649000  0.303800  0.000400  1.0
  H  H245  1  0.326700  0.638000  0.010700  1.0
  H  H246  1  0.673300  0.362000  0.989300  1.0
  H  H247  1  0.197400  0.722800  0.993300  1.0
  H  H248  1  0.802600  0.277200  0.006700  1.0
  H  H249  1  0.211200  0.505200  0.986400  1.0
  H  H250  1  0.788800  0.494800  0.013600  1.0
  H  H251  1  0.200500  0.529000  0.083200  1.0
  H  H252  1  0.799500  0.471000  0.916800  1.0
  H  H253  1  0.192300  0.461400  0.094600  1.0
  H  H254  1  0.807700  0.538600  0.905400  1.0
  H  H255  1  0.189800  0.390400  0.071400  1.0
  H  H256  1  0.810200  0.609600  0.928600  1.0
  H  H257  1  0.243900  0.313100  0.053400  1.0
  H  H258  1  0.756100  0.686900  0.946600  1.0
  H  H259  1  0.245900  0.241500  0.053700  1.0
  H  H260  1  0.754100  0.758500  0.946300  1.0
  H  H261  1  0.136700  0.285900  0.002300  1.0
  H  H262  1  0.863300  0.714100  0.997700  1.0
  H  H263  1  0.136900  0.356800  0.999300  1.0
  H  H264  1  0.863100  0.643200  0.000700  1.0
  H  H265  1  0.257100  0.830800  0.063300  1.0
  H  H266  1  0.742900  0.169200  0.936700  1.0
  H  H267  1  0.284700  0.781100  0.106100  1.0
  H  H268  1  0.715300  0.218900  0.893900  1.0
  H  H269  1  0.197900  0.722600  0.093500  1.0
  H  H270  1  0.802100  0.277400  0.906500  1.0
  H  H271  1  0.170800  0.772100  0.050500  1.0
  H  H272  1  0.829200  0.227900  0.949500  1.0
  H  H273  1  0.188300  0.888700  0.047800  1.0
  H  H274  1  0.811700  0.111300  0.952200  1.0
  H  H275  1  0.159000  0.964400  0.016200  1.0
  H  H276  1  0.841000  0.035600  0.983800  1.0
  H  H277  1  0.137700  0.001400  0.966700  1.0
  H  H278  1  0.862300  0.998600  0.033300  1.0
  H  H279  1  0.162400  0.883100  0.926700  1.0
  H  H280  1  0.837600  0.116900  0.073300  1.0
  H  H281  1  0.050500  0.011200  0.816200  1.0
  H  H282  1  0.949500  0.988800  0.183800  1.0
  H  H283  1  0.162600  0.043000  0.798600  1.0
  H  H284  1  0.837400  0.957000  0.201400  1.0
  H  H285  1  0.141300  0.069000  0.746400  1.0
  H  H286  1  0.858700  0.931000  0.253600  1.0
  H  H287  1  0.080100  0.085900  0.705300  1.0
  H  H288  1  0.919900  0.914100  0.294700  1.0
  H  H289  1  0.010900  0.022100  0.672500  1.0
  H  H290  1  0.989100  0.977900  0.327500  1.0
  H  H291  1  0.976700  0.050300  0.625200  1.0
  H  H292  1  0.023300  0.949700  0.374800  1.0
  H  H293  1  0.961800  0.173600  0.647600  1.0
  H  H294  1  0.038200  0.826400  0.352400  1.0
  H  H295  1  0.997600  0.145300  0.694400  1.0
  H  H296  1  0.002400  0.854700  0.305600  1.0
  H  H297  1  0.963400  0.184000  0.752000  1.0
  H  H298  1  0.036600  0.816000  0.248000  1.0
  H  H299  1  0.994400  0.225300  0.777000  1.0
  H  H300  1  0.005600  0.774700  0.223000  1.0
  H  H301  1  0.018800  0.138200  0.852200  1.0
  H  H302  1  0.981200  0.861800  0.147800  1.0
  H  H303  1  0.992200  0.094300  0.825800  1.0
  H  H304  1  0.007800  0.905700  0.174200  1.0
  H  H305  1  0.903800  0.155600  0.757500  1.0
  H  H306  1  0.096200  0.844400  0.242500  1.0
  H  H307  1  0.849800  0.138300  0.724500  1.0
  H  H308  1  0.150200  0.861700  0.275500  1.0
  H  H309  1  0.839300  0.086100  0.693500  1.0
  H  H310  1  0.160700  0.913900  0.306500  1.0
  H  H311  1  0.958900  0.991700  0.719800  1.0
  H  H312  1  0.041100  0.008300  0.280200  1.0
  H  H313  1  0.865900  0.869500  0.652700  1.0
  H  H314  1  0.134100  0.130500  0.347300  1.0
  H  H315  1  0.900900  0.935200  0.574200  1.0
  H  H316  1  0.099100  0.064800  0.425800  1.0
  H  H317  1  0.898100  0.881900  0.539400  1.0
  H  H318  1  0.101900  0.118100  0.460600  1.0
  H  H319  1  0.882700  0.809800  0.534900  1.0
  H  H320  1  0.117300  0.190200  0.465100  1.0
  H  H321  1  0.817100  0.790000  0.528900  1.0
  H  H322  1  0.182900  0.210000  0.471100  1.0
  H  H323  1  0.810200  0.734400  0.500000  1.0
  H  H324  1  0.189800  0.265600  0.500000  1.0
  H  H325  1  0.898700  0.639300  0.553200  1.0
  H  H326  1  0.101300  0.360700  0.446800  1.0
  H  H327  1  0.905200  0.694600  0.582400  1.0
  H  H328  1  0.094800  0.305400  0.417600  1.0
  H  H329  1  0.743900  0.863100  0.562600  1.0
  H  H330  1  0.256100  0.136900  0.437400  1.0
  H  H331  1  0.712000  0.938800  0.548300  1.0
  H  H332  1  0.288000  0.061200  0.451700  1.0
  H  H333  1  0.738500  0.972000  0.633900  1.0
  H  H334  1  0.261500  0.028000  0.366100  1.0
  H  H335  1  0.771700  0.896300  0.647700  1.0
  H  H336  1  0.228300  0.103700  0.352300  1.0
  H  H337  1  0.732900  0.811600  0.605600  1.0
  H  H338  1  0.267100  0.188400  0.394400  1.0
  H  H339  1  0.737400  0.731500  0.617900  1.0
  H  H340  1  0.262600  0.268500  0.382100  1.0
  H  H341  1  0.782000  0.658000  0.633900  1.0
  H  H342  1  0.218000  0.342000  0.366100  1.0
  H  H343  1  0.882800  0.697500  0.648700  1.0
  H  H344  1  0.117200  0.302500  0.351300  1.0
  H  H345  1  0.939400  0.491300  0.722400  1.0
  H  H346  1  0.060600  0.508700  0.277600  1.0
  H  H347  1  0.986900  0.468500  0.624800  1.0
  H  H348  1  0.013100  0.531500  0.375200  1.0
  H  H349  1  0.033000  0.393700  0.636800  1.0
  H  H350  1  0.967000  0.606300  0.363200  1.0
  H  H351  1  0.059500  0.333333  0.681500  1.0
  H  H352  1  0.940500  0.666667  0.318500  1.0
  H  H353  1  0.026600  0.278100  0.713100  1.0
  H  H354  1  0.973400  0.721900  0.286900  1.0
  H  H355  1  0.064500  0.203900  0.728700  1.0
  H  H356  1  0.935500  0.796100  0.271300  1.0
  H  H357  1  0.140600  0.239900  0.782100  1.0
  H  H358  1  0.859400  0.760100  0.217900  1.0
  H  H359  1  0.103400  0.314000  0.765600  1.0
  H  H360  1  0.896600  0.686000  0.234400  1.0
  H  H361  1  0.318800  0.323900  0.029100  1.0
  H  H362  1  0.681200  0.676100  0.970900  1.0
  H  H363  1  0.369000  0.334400  0.060800  1.0
  H  H364  1  0.631000  0.665600  0.939200  1.0
  H  H365  1  0.347500  0.453000  0.016700  1.0
  H  H366  1  0.652500  0.547000  0.983300  1.0
  H  H367  1  0.296700  0.442800  0.985600  1.0
  H  H368  1  0.703300  0.557200  0.014400  1.0
  H  H369  1  0.318100  0.316000  0.969400  1.0
  H  H370  1  0.681900  0.684000  0.030600  1.0
  H  H371  1  0.298200  0.270700  0.929900  1.0
  H  H372  1  0.701800  0.729300  0.070100  1.0
  H  H373  1  0.241300  0.264200  0.902400  1.0
  H  H374  1  0.758700  0.735800  0.097600  1.0
  H  H375  1  0.150900  0.387100  0.936500  1.0
  H  H376  1  0.849100  0.612900  0.063500  1.0
  H  H377  1  0.051300  0.381200  0.811400  1.0
  H  H378  1  0.948700  0.618800  0.188600  1.0
  H  H379  1  0.027200  0.284800  0.865900  1.0
  H  H380  1  0.972800  0.715200  0.134100  1.0
  H  H381  1  0.971900  0.289200  0.832000  1.0
  H  H382  1  0.028100  0.710800  0.168000  1.0
  H  H383  1  0.924500  0.331200  0.785200  1.0
  H  H384  1  0.075500  0.668800  0.214800  1.0
  H  H385  1  0.856800  0.386200  0.783000  1.0
  H  H386  1  0.143200  0.613800  0.217000  1.0
  H  H387  1  0.787900  0.412600  0.759000  1.0
  H  H388  1  0.212100  0.587400  0.241000  1.0
  H  H389  1  0.863700  0.421200  0.671400  1.0
  H  H390  1  0.136300  0.578800  0.328600  1.0
  H  H391  1  0.932900  0.393200  0.694900  1.0
  H  H392  1  0.067100  0.606800  0.305100  1.0
  H  H393  1  0.102800  0.757300  0.008800  1.0
  H  H394  1  0.897200  0.242700  0.991200  1.0
  H  H395  1  0.043000  0.769700  0.054900  1.0
  H  H396  1  0.957000  0.230300  0.945100  1.0
  H  H397  1  0.033700  0.894500  0.065700  1.0
  H  H398  1  0.966300  0.105500  0.934300  1.0
  H  H399  1  0.096500  0.881000  0.021700  1.0
  H  H400  1  0.903500  0.119000  0.978300  1.0
  H  H401  1  0.100900  0.802400  0.954000  1.0
  H  H402  1  0.899100  0.197600  0.046000  1.0
  H  H403  1  0.134300  0.781000  0.892500  1.0
  H  H404  1  0.865700  0.219000  0.107500  1.0
  H  H405  1  0.199100  0.764500  0.849300  1.0
  H  H406  1  0.800900  0.235500  0.150700  1.0
  H  H407  1  0.271600  0.788300  0.912300  1.0
  H  H408  1  0.728400  0.211700  0.087700  1.0
  H  H409  1  0.453800  0.723100  0.816400  1.0
  H  H410  1  0.546200  0.276900  0.183600  1.0
  H  H411  1  0.398700  0.692300  0.744600  1.0
  H  H412  1  0.601300  0.307700  0.255400  1.0
  H  H413  1  0.475200  0.660100  0.713800  1.0
  H  H414  1  0.524800  0.339900  0.286200  1.0
  H  H415  1  0.564900  0.631200  0.713700  1.0
  H  H416  1  0.435100  0.368800  0.286300  1.0
  H  H417  1  0.621600  0.560600  0.741400  1.0
  H  H418  1  0.378400  0.439400  0.258600  1.0
  H  H419  1  0.699300  0.507400  0.726900  1.0
  H  H420  1  0.300700  0.492600  0.273100  1.0
  H  H421  1  0.745400  0.605700  0.722600  1.0
  H  H422  1  0.254600  0.394300  0.277400  1.0
  H  H423  1  0.667200  0.659200  0.736400  1.0
  H  H424  1  0.332800  0.340800  0.263600  1.0
  H  H425  1  0.067000  0.440500  0.955600  1.0
  H  H426  1  0.933000  0.559500  0.044400  1.0
  H  H427  1  0.001200  0.431000  0.984500  1.0
  H  H428  1  0.998800  0.569000  0.015500  1.0
  H  H429  1  0.038100  0.447400  0.071100  1.0
  H  H430  1  0.961900  0.552600  0.928900  1.0
  H  H431  1  0.104400  0.455900  0.042200  1.0
  H  H432  1  0.895600  0.544100  0.957800  1.0
  H  H433  1  0.098500  0.503300  0.952600  1.0
  H  H434  1  0.901500  0.496700  0.047400  1.0
  H  H435  1  0.142000  0.532100  0.904200  1.0
  H  H436  1  0.858000  0.467900  0.095800  1.0
  H  H437  1  0.213500  0.522800  0.870200  1.0
  H  H438  1  0.786500  0.477200  0.129800  1.0
  H  H439  1  0.281300  0.423600  0.929400  1.0
  H  H440  1  0.718700  0.576400  0.070600  1.0
  H  H441  1  0.464000  0.360000  0.833500  1.0
  H  H442  1  0.536000  0.640000  0.166500  1.0
  H  H443  1  0.412900  0.454700  0.766200  1.0
  H  H444  1  0.587100  0.545300  0.233800  1.0
  H  H445  1  0.480800  0.414400  0.728000  1.0
  H  H446  1  0.519200  0.585600  0.272000  1.0
  H  H447  1  0.554900  0.341200  0.714000  1.0
  H  H448  1  0.445100  0.658800  0.286000  1.0
  H  H449  1  0.667000  0.251600  0.746800  1.0
  H  H450  1  0.333000  0.748400  0.253200  1.0
  H  H451  1  0.722600  0.195800  0.710000  1.0
  H  H452  1  0.277400  0.804200  0.290000  1.0
  H  H453  1  0.621600  0.211000  0.655300  1.0
  H  H454  1  0.378400  0.789000  0.344700  1.0
  H  H455  1  0.565500  0.266000  0.692600  1.0
  H  H456  1  0.434500  0.734000  0.307400  1.0
  H  H457  1  0.918000  0.421700  0.837500  1.0
  H  H458  1  0.082000  0.578300  0.162500  1.0
  H  H459  1  0.841600  0.431800  0.862000  1.0
  H  H460  1  0.158400  0.568200  0.138000  1.0
  H  H461  1  0.788600  0.513900  0.787800  1.0
  H  H462  1  0.211400  0.486100  0.212200  1.0
  H  H463  1  0.865100  0.503100  0.762900  1.0
  H  H464  1  0.134900  0.496900  0.237100  1.0
  H  H465  1  0.946600  0.505600  0.803900  1.0
  H  H466  1  0.053400  0.494400  0.196100  1.0
  H  H467  1  0.024900  0.517100  0.797700  1.0
  H  H468  1  0.975100  0.482900  0.202300  1.0
  H  H469  1  0.104800  0.493100  0.773500  1.0
  H  H470  1  0.895200  0.506900  0.226500  1.0
  H  H471  1  0.094700  0.390100  0.732500  1.0
  H  H472  1  0.905300  0.609900  0.267500  1.0
  H  H473  1  0.270700  0.330200  0.641500  1.0
  H  H474  1  0.729300  0.669800  0.358500  1.0
  H  H475  1  0.307800  0.426000  0.666800  1.0
  H  H476  1  0.692200  0.574000  0.333200  1.0
  H  H477  1  0.368800  0.405300  0.621000  1.0
  H  H478  1  0.631200  0.594700  0.379000  1.0
  H  H479  1  0.409700  0.354700  0.569200  1.0
  H  H480  1  0.590300  0.645300  0.430800  1.0
  H  H481  1  0.393200  0.361000  0.506400  1.0
  H  H482  1  0.606800  0.639000  0.493600  1.0
  H  H483  1  0.449100  0.343000  0.458100  1.0
  H  H484  1  0.550900  0.657000  0.541900  1.0
  H  H485  1  0.519800  0.220600  0.493800  1.0
  H  H486  1  0.480200  0.779400  0.506200  1.0
  H  H487  1  0.463200  0.237900  0.541800  1.0
  H  H488  1  0.536800  0.762100  0.458200  1.0
  H  H489  1  0.822800  0.874900  0.712000  1.0
  H  H490  1  0.177200  0.125100  0.288000  1.0
  H  H491  1  0.753900  0.926600  0.742900  1.0
  H  H492  1  0.246100  0.073400  0.257100  1.0
  H  H493  1  0.678800  0.864900  0.714300  1.0
  H  H494  1  0.321200  0.135100  0.285700  1.0
  H  H495  1  0.747700  0.813000  0.683100  1.0
  H  H496  1  0.252300  0.187000  0.316900  1.0
  H  H497  1  0.866400  0.788300  0.713700  1.0
  H  H498  1  0.133600  0.211700  0.286300  1.0
  H  H499  1  0.954500  0.734300  0.707000  1.0
  H  H500  1  0.045500  0.265700  0.293000  1.0
  H  H501  1  0.025900  0.696400  0.671100  1.0
  H  H502  1  0.974100  0.303600  0.328900  1.0
  H  H503  1  0.953000  0.738400  0.594500  1.0
  H  H504  1  0.047000  0.261600  0.405500  1.0
  H  H505  1  0.140000  0.674100  0.494400  1.0
  H  H506  1  0.860000  0.325900  0.505600  1.0
  H  H507  1  0.218500  0.632400  0.567800  1.0
  H  H508  1  0.781500  0.367600  0.432200  1.0
  H  H509  1  0.286100  0.621700  0.528600  1.0
  H  H510  1  0.713900  0.378300  0.471400  1.0
  H  H511  1  0.320300  0.631600  0.468100  1.0
  H  H512  1  0.679700  0.368400  0.531900  1.0
  H  H513  1  0.329900  0.699400  0.429000  1.0
  H  H514  1  0.670100  0.300600  0.571000  1.0
  H  H515  1  0.392400  0.695900  0.387200  1.0
  H  H516  1  0.607600  0.304100  0.612800  1.0
  H  H517  1  0.379700  0.597200  0.341300  1.0
  H  H518  1  0.620300  0.402800  0.658700  1.0
  H  H519  1  0.316800  0.601000  0.382500  1.0
  H  H520  1  0.683200  0.399000  0.617500  1.0
  H  H521  1  0.988200  0.000500  0.858300  1.0
  H  H522  1  0.011800  0.999500  0.141700  1.0
  H  H523  1  0.947000  0.044700  0.905800  1.0
  H  H524  1  0.053000  0.955300  0.094200  1.0
  H  H525  1  0.849000  0.128300  0.852900  1.0
  H  H526  1  0.151000  0.871700  0.147100  1.0
  H  H527  1  0.890200  0.085200  0.805200  1.0
  H  H528  1  0.109800  0.914800  0.194800  1.0
  H  H529  1  0.973700  0.958800  0.814400  1.0
  H  H530  1  0.026300  0.041200  0.185600  1.0
  H  H531  1  0.024200  0.887100  0.779000  1.0
  H  H532  1  0.975800  0.112900  0.221000  1.0
  H  H533  1  0.081900  0.853100  0.732500  1.0
  H  H534  1  0.918100  0.146900  0.267500  1.0
  H  H535  1  0.073700  0.975200  0.704900  1.0
  H  H536  1  0.926300  0.024800  0.295100  1.0
  H  H537  1  0.250100  0.914400  0.610500  1.0
  H  H538  1  0.749900  0.085600  0.389500  1.0
  H  H539  1  0.283400  0.783200  0.622800  1.0
  H  H540  1  0.716600  0.216800  0.377200  1.0
  H  H541  1  0.359800  0.768800  0.594900  1.0
  H  H542  1  0.640200  0.231200  0.405100  1.0
  H  H543  1  0.421800  0.800300  0.571800  1.0
  H  H544  1  0.578200  0.199700  0.428200  1.0
  H  H545  1  0.476300  0.830900  0.596100  1.0
  H  H546  1  0.523700  0.169100  0.403900  1.0
  H  H547  1  0.552000  0.827800  0.576600  1.0
  H  H548  1  0.448000  0.172200  0.423400  1.0
  H  H549  1  0.509500  0.888500  0.492300  1.0
  H  H550  1  0.490500  0.111500  0.507700  1.0
  H  H551  1  0.434400  0.890000  0.510800  1.0
  H  H552  1  0.565600  0.110000  0.489200  1.0
  H  H553  1  0.314300  0.225100  0.307500  1.0
  H  H554  1  0.685700  0.774900  0.692500  1.0
  H  H555  1  0.311400  0.212200  0.345800  1.0
  H  H556  1  0.688600  0.787800  0.654200  1.0
  H  H557  1  0.358800  0.186400  0.320500  1.0
  H  H558  1  0.641200  0.813600  0.679500  1.0
  H  H559  1  0.193800  0.442500  0.819100  1.0
  H  H560  1  0.806200  0.557500  0.180900  1.0
  H  H561  1  0.190900  0.399300  0.835500  1.0
  H  H562  1  0.809100  0.600700  0.164500  1.0
  H  H563  1  0.164500  0.420500  0.805400  1.0
  H  H564  1  0.835500  0.579500  0.194600  1.0
  H  H565  1  0.856800  0.752100  0.327100  1.0
  H  H566  1  0.143200  0.247900  0.672900  1.0
  H  H567  1  0.803200  0.771800  0.342700  1.0
  H  H568  1  0.196800  0.228200  0.657300  1.0
  H  H569  1  0.817900  0.765700  0.304200  1.0
  H  H570  1  0.182100  0.234300  0.695800  1.0
  H  H571  1  0.994000  0.925300  0.951200  1.0
  H  H572  1  0.006000  0.074700  0.048800  1.0
  H  H573  1  0.987400  0.926100  0.990700  1.0
  H  H574  1  0.012600  0.073900  0.009300  1.0
  H  H575  1  0.032100  0.931500  0.969400  1.0
  H  H576  1  0.967900  0.068500  0.030600  1.0
  H  H577  1  0.807300  0.715500  0.749300  1.0
  H  H578  1  0.192700  0.284500  0.250700  1.0
  H  H579  1  0.815900  0.709100  0.710000  1.0
  H  H580  1  0.184100  0.290900  0.290000  1.0
  H  H581  1  0.780800  0.756500  0.726500  1.0
  H  H582  1  0.219200  0.243500  0.273500  1.0
  H  H583  1  0.359700  0.334000  0.824100  1.0
  H  H584  1  0.640300  0.666000  0.175900  1.0
  H  H585  1  0.332200  0.303600  0.820300  1.0
  H  H586  1  0.667800  0.696400  0.179700  1.0
  H  H587  1  0.362700  0.294500  0.849600  1.0
  H  H588  1  0.637300  0.705500  0.150400  1.0
  H  H589  1  0.130900  0.927600  0.748600  1.0
  H  H590  1  0.869100  0.072400  0.251400  1.0
  H  H591  1  0.130400  0.964500  0.772600  1.0
  H  H592  1  0.869600  0.035500  0.227400  1.0
  H  H593  1  0.167800  0.913700  0.774100  1.0
  H  H594  1  0.832200  0.086300  0.225900  1.0
  H  H595  1  0.125000  0.980800  0.460100  1.0
  H  H596  1  0.875000  0.019200  0.539900  1.0
  H  H597  1  0.095000  0.941800  0.431500  1.0
  H  H598  1  0.905000  0.058200  0.568500  1.0
  H  H599  1  0.137900  0.904500  0.381900  1.0
  H  H600  1  0.862100  0.095500  0.618100  1.0
  H  H601  1  0.210900  0.906200  0.360900  1.0
  H  H602  1  0.789100  0.093800  0.639100  1.0
  H  H603  1  0.241000  0.945200  0.389500  1.0
  H  H604  1  0.759000  0.054800  0.610500  1.0
  H  H605  1  0.198000  0.982500  0.439100  1.0
  H  H606  1  0.802000  0.017500  0.560900  1.0
  H  H607  1  0.809200  0.527300  0.642600  1.0
  H  H608  1  0.190800  0.472700  0.357400  1.0
  H  H609  1  0.732600  0.583800  0.647900  1.0
  H  H610  1  0.267400  0.416200  0.352100  1.0
  H  H611  1  0.710800  0.636500  0.606100  1.0
  H  H612  1  0.289200  0.363500  0.393900  1.0
  H  H613  1  0.765600  0.632700  0.559000  1.0
  H  H614  1  0.234400  0.367300  0.441000  1.0
  H  H615  1  0.842300  0.576200  0.553700  1.0
  H  H616  1  0.157700  0.423800  0.446300  1.0
  H  H617  1  0.864100  0.523500  0.595500  1.0
  H  H618  1  0.135900  0.476500  0.404500  1.0
  H  H619  1  0.011300  0.518100  0.720200  0.41
  H  H620  1  0.988700  0.481900  0.279800  0.41
  H  H621  1  0.044500  0.542900  0.705600  0.41
  H  H622  1  0.955500  0.457100  0.294400  0.41
  H  H623  1  0.006600  0.541200  0.684700  0.41
  H  H624  1  0.993400  0.458800  0.315300  0.41
  H  H625  1  0.119500  0.527300  0.005800  0.49
  H  H626  1  0.880500  0.472700  0.994200  0.49
  H  H627  1  0.115800  0.566000  0.029500  0.49
  H  H628  1  0.884200  0.434000  0.970500  0.49
  H  H629  1  0.069300  0.567300  0.017700  0.49
  H  H630  1  0.930700  0.432700  0.982300  0.49
  H  H631  1  0.259300  0.548200  0.748300  0.5
  H  H632  1  0.740700  0.451800  0.251700  0.5
  H  H633  1  0.248700  0.529700  0.717600  0.5
  H  H634  1  0.751300  0.470300  0.282400  0.5
  H  H635  1  0.277000  0.496600  0.743200  0.5
  H  H636  1  0.723000  0.503400  0.256800  0.5
  H  H637  1  0.484600  0.103800  0.697000  0.5
  H  H638  1  0.515400  0.896200  0.303000  0.5
  H  H639  1  0.475800  0.062400  0.714100  0.5
  H  H640  1  0.524200  0.937600  0.285900  0.5
  H  H641  1  0.439800  0.112400  0.725000  0.5
  H  H642  1  0.560200  0.887600  0.275000  0.5
  H  H643  1  0.531800  0.972900  0.661300  0.5
  H  H644  1  0.468200  0.027100  0.338700  0.5
  H  H645  1  0.588600  0.931000  0.694400  0.5
  H  H646  1  0.411400  0.069000  0.305600  0.5
  H  H647  1  0.564900  0.912800  0.748300  0.5
  H  H648  1  0.435100  0.087200  0.251700  0.5
  H  H649  1  0.484500  0.936600  0.769200  0.5
  H  H650  1  0.515500  0.063400  0.230800  0.5
  H  H651  1  0.427700  0.978600  0.736100  0.5
  H  H652  1  0.572300  0.021400  0.263900  0.5
  H  H653  1  0.451400  0.996700  0.682200  0.5
  H  H654  1  0.548600  0.003300  0.317800  0.5
  H  H655  1  0.935300  0.552600  0.729100  0.5
  H  H656  1  0.064700  0.447400  0.270900  0.5
  H  H657  1  0.921300  0.600400  0.745300  0.5
  H  H658  1  0.078700  0.399600  0.254700  0.5
  H  H659  1  0.933900  0.557000  0.768000  0.5
  H  H660  1  0.066100  0.443000  0.232000  0.5
  H  H661  1  0.087300  0.587600  0.590400  0.5
  H  H662  1  0.912700  0.412400  0.409600  0.5
  H  H663  1  0.094100  0.567600  0.625800  0.5
  H  H664  1  0.905900  0.432400  0.374200  0.5
  H  H665  1  0.096000  0.537500  0.596900  0.5
  H  H666  1  0.904000  0.462500  0.403100  0.5
  H  H667  1  0.617200  0.076800  0.635200  0.5
  H  H668  1  0.382800  0.923200  0.364800  0.5
  H  H669  1  0.601100  0.023500  0.668900  0.5
  H  H670  1  0.398900  0.976500  0.331100  0.5
  H  H671  1  0.642500  0.993200  0.713100  0.5
  H  H672  1  0.357500  0.006800  0.286900  0.5
  H  H673  1  0.700100  0.016100  0.723500  0.5
  H  H674  1  0.299900  0.983900  0.276500  0.5
  H  H675  1  0.716300  0.069400  0.689800  0.5
  H  H676  1  0.283700  0.930600  0.310200  0.5
  H  H677  1  0.674800  0.099700  0.645600  0.5
  H  H678  1  0.325200  0.900300  0.354400  0.5
  H  H679  1  0.370800  0.539600  0.526100  0.5
  H  H680  1  0.629200  0.460400  0.473900  0.5
  H  H681  1  0.418700  0.577200  0.506700  0.5
  H  H682  1  0.581300  0.422800  0.493300  0.5
  H  H683  1  0.432900  0.590400  0.450100  0.5
  H  H684  1  0.567100  0.409600  0.549900  0.5
  H  H685  1  0.399300  0.566100  0.412900  0.5
  H  H686  1  0.600700  0.433900  0.587100  0.5
  H  H687  1  0.351400  0.528500  0.432300  0.5
  H  H688  1  0.648600  0.471500  0.567700  0.5
  H  H689  1  0.337200  0.515200  0.488800  0.5
  H  H690  1  0.662800  0.484800  0.511200  0.5
  H  H691  1  0.102300  0.143900  0.869400  0.5
  H  H692  1  0.897700  0.856100  0.130600  0.5
  H  H693  1  0.107100  0.114700  0.922800  0.5
  H  H694  1  0.892900  0.885300  0.077200  0.5
  H  H695  1  0.173600  0.051300  0.932800  0.5
  H  H696  1  0.826400  0.948700  0.067200  0.5
  H  H697  1  0.235400  0.017000  0.889500  0.5
  H  H698  1  0.764600  0.983000  0.110500  0.5
  H  H699  1  0.230700  0.046200  0.836200  0.5
  H  H700  1  0.769300  0.953800  0.163800  0.5
  H  H701  1  0.164100  0.109700  0.826200  0.5
  H  H702  1  0.835900  0.890300  0.173800  0.5
  H  H703  1  0.455700  0.131700  0.990800  0.5
  H  H704  1  0.544300  0.868300  0.009200  0.5
  H  H705  1  0.433300  0.166700  0.020700  0.5
  H  H706  1  0.566700  0.833300  0.979300  0.5
  H  H707  1  0.381600  0.218400  0.988300  0.5
  H  H708  1  0.618400  0.781600  0.011700  0.5
  H  H709  1  0.405500  0.185400  0.956900  0.5
  H  H710  1  0.594500  0.814600  0.043100  0.5
  H  H711  1  0.380600  0.132500  0.984400  0.5
  H  H712  1  0.619400  0.867500  0.015600  0.5
  H  H713  1  0.358100  0.164200  0.016500  0.5
  H  H714  1  0.641900  0.835800  0.983500  0.5
  H  H715  1  0.325100  0.185700  0.954600  0.5
  H  H716  1  0.674900  0.814300  0.045400  0.5
  H  H717  1  0.302400  0.217000  0.986800  0.5
  H  H718  1  0.697600  0.783000  0.013200  0.5
  H  H719  1  0.299000  0.169900  0.986300  0.5
  H  H720  1  0.701000  0.830100  0.013700  0.5
  H  H721  1  0.461200  0.207100  0.942300  0.5
  H  H722  1  0.538800  0.792900  0.057700  0.5
  H  H723  1  0.515100  0.196100  0.943900  0.5
  H  H724  1  0.484900  0.803900  0.056100  0.5
  H  H725  1  0.533400  0.119000  0.936500  0.5
  H  H726  1  0.466600  0.881000  0.063500  0.5
  H  H727  1  0.479800  0.132900  0.931500  0.5
  H  H728  1  0.520200  0.867100  0.068500  0.5
  H  H729  1  0.548400  0.154000  0.889400  0.5
  H  H730  1  0.451600  0.846000  0.110600  0.5
  H  H731  1  0.493600  0.178600  0.886300  0.5
  H  H732  1  0.506400  0.821400  0.113700  0.5
  H  H733  1  0.531800  0.120700  0.847700  0.5
  H  H734  1  0.468200  0.879300  0.152300  0.5
  H  H735  1  0.548500  0.085600  0.876600  0.5
  H  H736  1  0.451500  0.914400  0.123400  0.5
  H  H737  1  0.493600  0.110300  0.873400  0.5
  H  H738  1  0.506400  0.889700  0.126600  0.5
  H  H739  1  0.435800  0.246300  0.992600  0.5
  H  H740  1  0.564200  0.753700  0.007400  0.5
  H  H741  1  0.455900  0.224600  0.025600  0.5
  H  H742  1  0.544100  0.775400  0.974400  0.5
  H  H743  1  0.525900  0.231200  0.007000  0.5
  H  H744  1  0.474100  0.768800  0.993000  0.5
  H  H745  1  0.509500  0.249100  0.972200  0.5
  H  H746  1  0.490500  0.750900  0.027800  0.5
  H  H747  1  0.466400  0.294700  0.032400  0.5
  H  H748  1  0.533600  0.705300  0.967600  0.5
  H  H749  1  0.450900  0.312400  0.997500  0.5
  H  H750  1  0.549100  0.687600  0.002500  0.5
  H  H751  1  0.540800  0.301500  0.997900  0.5
  H  H752  1  0.459200  0.698500  0.002100  0.5
  H  H753  1  0.504800  0.334100  0.027200  0.5
  H  H754  1  0.495200  0.665900  0.972800  0.5
  H  H755  1  0.496500  0.345200  0.989600  0.5
  H  H756  1  0.503500  0.654800  0.010400  0.5
  H  H757  1  0.525500  0.118200  0.000700  0.5
  H  H758  1  0.474500  0.881800  0.999300  0.5
  H  H759  1  0.553000  0.147700  0.985200  0.5
  H  H760  1  0.447000  0.852300  0.014800  0.5
  H  H761  1  0.557400  0.167100  0.033000  0.5
  H  H762  1  0.442600  0.832900  0.967000  0.5
  H  H763  1  0.501900  0.182800  0.045000  0.5
  H  H764  1  0.498100  0.817200  0.955000  0.5
  H  H765  1  0.510200  0.119300  0.069300  0.5
  H  H766  1  0.489800  0.880700  0.930700  0.5
  H  H767  1  0.556100  0.090600  0.043900  0.5
  H  H768  1  0.443900  0.909400  0.956100  0.5
  H  H769  1  0.575600  0.088600  0.096300  0.5
  H  H770  1  0.424400  0.911400  0.903700  0.5
  H  H771  1  0.602100  0.113100  0.071600  0.5
  H  H772  1  0.397900  0.886900  0.928400  0.5
  H  H773  1  0.556100  0.141900  0.097100  0.5
  H  H774  1  0.443900  0.858100  0.902900  0.5
  H  H775  1  0.045800  0.532800  0.100200  0.51
  H  H776  1  0.954200  0.467200  0.899800  0.51
  H  H777  1  0.091100  0.541600  0.103800  0.51
  H  H778  1  0.908900  0.458400  0.896200  0.51
  H  H779  1  0.041300  0.582800  0.102200  0.51
  H  H780  1  0.958700  0.417200  0.897800  0.51
  H  H781  1  0.128200  0.411700  0.647500  0.59
  H  H782  1  0.871800  0.588300  0.352500  0.59
  H  H783  1  0.114000  0.464300  0.645800  0.59
  H  H784  1  0.886000  0.535700  0.354200  0.59
  H  H785  1  0.109100  0.438900  0.615500  0.59
  H  H786  1  0.890900  0.561100  0.384500  0.59
  C  C787  1  0.525400  0.768400  0.836600  1.0
  C  C788  1  0.474600  0.231600  0.163400  1.0
  C  C789  1  0.489100  0.800400  0.821800  1.0
  C  C790  1  0.510900  0.199600  0.178200  1.0
  C  C791  1  0.479100  0.845100  0.824700  1.0
  C  C792  1  0.520900  0.154900  0.175300  1.0
  C  C793  1  0.505100  0.856900  0.842900  1.0
  C  C794  1  0.494900  0.143100  0.157100  1.0
  C  C795  1  0.541000  0.826600  0.858100  1.0
  C  C796  1  0.459000  0.173400  0.141900  1.0
  C  C797  1  0.551200  0.781800  0.854700  1.0
  C  C798  1  0.448800  0.218200  0.145300  1.0
  C  C799  1  0.533800  0.698900  0.858300  1.0
  C  C800  1  0.466200  0.301100  0.141700  1.0
  C  C801  1  0.547700  0.650900  0.854200  1.0
  C  C802  1  0.452300  0.349100  0.145800  1.0
  C  C803  1  0.546400  0.623400  0.881000  1.0
  C  C804  1  0.453600  0.376600  0.119000  1.0
  C  C805  1  0.558400  0.578700  0.875100  1.0
  C  C806  1  0.441600  0.421300  0.124900  1.0
  C  C807  1  0.570500  0.562900  0.842500  1.0
  C  C808  1  0.429500  0.437100  0.157500  1.0
  C  C809  1  0.570300  0.593200  0.817600  1.0
  C  C810  1  0.429700  0.406800  0.182400  1.0
  C  C811  1  0.583400  0.515000  0.835700  1.0
  C  C812  1  0.416600  0.485000  0.164300  1.0
  C  C813  1  0.627100  0.487900  0.818300  1.0
  C  C814  1  0.372900  0.512100  0.181700  1.0
  C  C815  1  0.638800  0.443600  0.812500  1.0
  C  C816  1  0.361200  0.556400  0.187500  1.0
  C  C817  1  0.608700  0.423100  0.823000  1.0
  C  C818  1  0.391300  0.576900  0.177000  1.0
  C  C819  1  0.564600  0.450800  0.840200  1.0
  C  C820  1  0.435400  0.549200  0.159800  1.0
  C  C821  1  0.552700  0.494800  0.846200  1.0
  C  C822  1  0.447300  0.505200  0.153800  1.0
  C  C823  1  0.591600  0.358800  0.807800  1.0
  C  C824  1  0.408400  0.641200  0.192200  1.0
  C  C825  1  0.621400  0.374800  0.818100  1.0
  C  C826  1  0.378600  0.625200  0.181900  1.0
  C  C827  1  0.664300  0.342900  0.826100  1.0
  C  C828  1  0.335700  0.657100  0.173900  1.0
  C  C829  1  0.673200  0.298100  0.824700  1.0
  C  C830  1  0.326800  0.701900  0.175300  1.0
  C  C831  1  0.640400  0.285700  0.814600  1.0
  C  C832  1  0.359600  0.714300  0.185400  1.0
  C  C833  1  0.647100  0.239100  0.812100  1.0
  C  C834  1  0.352900  0.760900  0.187900  1.0
  C  C835  1  0.619600  0.186900  0.800000  1.0
  C  C836  1  0.380400  0.813100  0.200000  1.0
  C  C837  1  0.612200  0.171200  0.771700  1.0
  C  C838  1  0.387800  0.828800  0.228300  1.0
  C  C839  1  0.613500  0.128800  0.771000  1.0
  C  C840  1  0.386500  0.871200  0.229000  1.0
  C  C841  1  0.622400  0.102700  0.798200  1.0
  C  C842  1  0.377600  0.897300  0.201800  1.0
  C  C843  1  0.630100  0.116800  0.826700  1.0
  C  C844  1  0.369900  0.883200  0.173300  1.0
  C  C845  1  0.629300  0.158900  0.827100  1.0
  C  C846  1  0.370700  0.841100  0.172900  1.0
  C  C847  1  0.554400  0.293900  0.871700  1.0
  C  C848  1  0.445600  0.706100  0.128300  1.0
  C  C849  1  0.580600  0.260700  0.892000  1.0
  C  C850  1  0.419400  0.739300  0.108000  1.0
  C  C851  1  0.596800  0.272300  0.917900  1.0
  C  C852  1  0.403200  0.727700  0.082100  1.0
  C  C853  1  0.587300  0.315800  0.922500  1.0
  C  C854  1  0.412700  0.684200  0.077500  1.0
  C  C855  1  0.562100  0.349500  0.903200  1.0
  C  C856  1  0.437900  0.650500  0.096800  1.0
  C  C857  1  0.545700  0.337900  0.877500  1.0
  C  C858  1  0.454300  0.662100  0.122500  1.0
  C  C859  1  0.513400  0.259100  0.850300  1.0
  C  C860  1  0.486600  0.740900  0.149700  1.0
  C  C861  1  0.499100  0.245800  0.821800  1.0
  C  C862  1  0.500900  0.754200  0.178200  1.0
  C  C863  1  0.470700  0.222600  0.824500  1.0
  C  C864  1  0.529300  0.777400  0.175500  1.0
  C  C865  1  0.458800  0.212300  0.795800  1.0
  C  C866  1  0.541200  0.787700  0.204200  1.0
  C  C867  1  0.476600  0.224900  0.765400  1.0
  C  C868  1  0.523400  0.775100  0.234600  1.0
  C  C869  1  0.505000  0.247800  0.765200  1.0
  C  C870  1  0.495000  0.752200  0.234800  1.0
  C  C871  1  0.466000  0.214400  0.733700  1.0
  C  C872  1  0.534000  0.785600  0.266300  1.0
  C  C873  1  0.501000  0.191700  0.707700  1.0
  C  C874  1  0.499000  0.808300  0.292300  1.0
  C  C875  1  0.490300  0.186100  0.677500  1.0
  C  C876  1  0.509700  0.813900  0.322500  1.0
  C  C877  1  0.443900  0.202500  0.671800  1.0
  C  C878  1  0.556100  0.797500  0.328200  1.0
  C  C879  1  0.408900  0.224600  0.698000  1.0
  C  C880  1  0.591100  0.775400  0.302000  1.0
  C  C881  1  0.419600  0.230400  0.728100  1.0
  C  C882  1  0.580400  0.769600  0.271900  1.0
  C  C883  1  0.401700  0.237400  0.624200  1.0
  C  C884  1  0.598300  0.762600  0.375800  1.0
  C  C885  1  0.431600  0.199200  0.638800  1.0
  C  C886  1  0.568400  0.800800  0.361200  1.0
  C  C887  1  0.447400  0.158900  0.621900  1.0
  C  C888  1  0.552600  0.841100  0.378100  1.0
  C  C889  1  0.432300  0.158300  0.592000  1.0
  C  C890  1  0.567700  0.841700  0.408000  1.0
  C  C891  1  0.402700  0.198100  0.579500  1.0
  C  C892  1  0.597300  0.801900  0.420500  1.0
  C  C893  1  0.386700  0.201600  0.547200  1.0
  C  C894  1  0.613300  0.798400  0.452800  1.0
  C  C895  1  0.346100  0.249600  0.506800  1.0
  C  C896  1  0.653900  0.750400  0.493200  1.0
  C  C897  1  0.379400  0.252400  0.481000  1.0
  C  C898  1  0.620600  0.747600  0.519000  1.0
  C  C899  1  0.368600  0.262300  0.449200  1.0
  C  C900  1  0.631400  0.737700  0.550800  1.0
  C  C901  1  0.324500  0.268700  0.444300  1.0
  C  C902  1  0.675500  0.731300  0.555700  1.0
  C  C903  1  0.290700  0.266800  0.469000  1.0
  C  C904  1  0.709300  0.733200  0.531000  1.0
  C  C905  1  0.301600  0.257000  0.500600  1.0
  C  C906  1  0.698400  0.743000  0.499400  1.0
  C  C907  1  0.294300  0.225900  0.616800  1.0
  C  C908  1  0.705700  0.774100  0.383200  1.0
  C  C909  1  0.285700  0.192500  0.603700  1.0
  C  C910  1  0.714300  0.807500  0.396300  1.0
  C  C911  1  0.291500  0.153700  0.620700  1.0
  C  C912  1  0.708500  0.846300  0.379300  1.0
  C  C913  1  0.307500  0.148700  0.650600  1.0
  C  C914  1  0.692500  0.851300  0.349400  1.0
  C  C915  1  0.316400  0.180700  0.664300  1.0
  C  C916  1  0.683600  0.819300  0.335700  1.0
  C  C917  1  0.308900  0.220000  0.647400  1.0
  C  C918  1  0.691100  0.780000  0.352600  1.0
  C  C919  1  0.248900  0.286700  0.587400  1.0
  C  C920  1  0.751100  0.713300  0.412600  1.0
  C  C921  1  0.244400  0.324300  0.565300  1.0
  C  C922  1  0.755600  0.675700  0.434700  1.0
  C  C923  1  0.202500  0.351100  0.553800  1.0
  C  C924  1  0.797500  0.648900  0.446200  1.0
  C  C925  1  0.203000  0.384300  0.531700  1.0
  C  C926  1  0.797000  0.615700  0.468300  1.0
  C  C927  1  0.244400  0.390600  0.522100  1.0
  C  C928  1  0.755600  0.609400  0.477900  1.0
  C  C929  1  0.284400  0.362300  0.535200  1.0
  C  C930  1  0.715600  0.637700  0.464800  1.0
  C  C931  1  0.244900  0.426600  0.498500  1.0
  C  C932  1  0.755100  0.573400  0.501500  1.0
  C  C933  1  0.281500  0.418600  0.472300  1.0
  C  C934  1  0.718500  0.581400  0.527700  1.0
  C  C935  1  0.281300  0.451300  0.449800  1.0
  C  C936  1  0.718700  0.548700  0.550200  1.0
  C  C937  1  0.244400  0.493100  0.452200  1.0
  C  C938  1  0.755600  0.506900  0.547800  1.0
  C  C939  1  0.208100  0.501200  0.478700  1.0
  C  C940  1  0.791900  0.498800  0.521300  1.0
  C  C941  1  0.208000  0.468900  0.501400  1.0
  C  C942  1  0.792000  0.531100  0.498600  1.0
  C  C943  1  0.233700  0.571300  0.438200  1.0
  C  C944  1  0.766300  0.428700  0.561800  1.0
  C  C945  1  0.242900  0.528800  0.427800  1.0
  C  C946  1  0.757100  0.471200  0.572200  1.0
  C  C947  1  0.248900  0.521300  0.393800  1.0
  C  C948  1  0.751100  0.478700  0.606200  1.0
  C  C949  1  0.243800  0.556800  0.372400  1.0
  C  C950  1  0.756200  0.443200  0.627600  1.0
  C  C951  1  0.234400  0.598100  0.385400  1.0
  C  C952  1  0.765600  0.401900  0.614600  1.0
  C  C953  1  0.227100  0.638400  0.365500  1.0
  C  C954  1  0.772900  0.361600  0.634500  1.0
  C  C955  1  0.211000  0.714700  0.365300  1.0
  C  C956  1  0.789000  0.285300  0.634700  1.0
  C  C957  1  0.175400  0.732000  0.345700  1.0
  C  C958  1  0.824600  0.268000  0.654300  1.0
  C  C959  1  0.164800  0.773900  0.332300  1.0
  C  C960  1  0.835200  0.226100  0.667700  1.0
  C  C961  1  0.189500  0.797300  0.338600  1.0
  C  C962  1  0.810500  0.202700  0.661400  1.0
  C  C963  1  0.224700  0.781600  0.357700  1.0
  C  C964  1  0.775300  0.218400  0.642300  1.0
  C  C965  1  0.235500  0.739600  0.370900  1.0
  C  C966  1  0.764500  0.260400  0.629100  1.0
  C  C967  1  0.119900  0.658400  0.420400  1.0
  C  C968  1  0.880100  0.341600  0.579600  1.0
  C  C969  1  0.096900  0.669400  0.392800  1.0
  C  C970  1  0.903100  0.330600  0.607200  1.0
  C  C971  1  0.076200  0.642900  0.383900  1.0
  C  C972  1  0.923800  0.357100  0.616100  1.0
  C  C973  1  0.078300  0.606800  0.402500  1.0
  C  C974  1  0.921700  0.393200  0.597500  1.0
  C  C975  1  0.099800  0.595400  0.430200  1.0
  C  C976  1  0.900200  0.404600  0.569800  1.0
  C  C977  1  0.120900  0.621600  0.439000  1.0
  C  C978  1  0.879100  0.378400  0.561000  1.0
  C  C979  1  0.116900  0.728100  0.431100  1.0
  C  C980  1  0.883100  0.271900  0.568900  1.0
  C  C981  1  0.140300  0.756000  0.438700  1.0
  C  C982  1  0.859700  0.244000  0.561300  1.0
  C  C983  1  0.117500  0.801800  0.442800  1.0
  C  C984  1  0.882500  0.198200  0.557200  1.0
  C  C985  1  0.143200  0.825200  0.449400  1.0
  C  C986  1  0.856800  0.174800  0.550600  1.0
  C  C987  1  0.190800  0.801300  0.452400  1.0
  C  C988  1  0.809200  0.198700  0.547600  1.0
  C  C989  1  0.209400  0.755400  0.448400  1.0
  C  C990  1  0.790600  0.244600  0.551600  1.0
  C  C991  1  0.219300  0.824600  0.460700  1.0
  C  C992  1  0.780700  0.175400  0.539300  1.0
  C  C993  1  0.260400  0.822000  0.440900  1.0
  C  C994  1  0.739600  0.178000  0.559100  1.0
  C  C995  1  0.286400  0.843800  0.448800  1.0
  C  C996  1  0.713600  0.156200  0.551200  1.0
  C  C997  1  0.272300  0.868800  0.477900  1.0
  C  C998  1  0.727700  0.131200  0.522100  1.0
  C  C999  1  0.231400  0.871300  0.497900  1.0
  C  C1000  1  0.768600  0.128700  0.502100  1.0
  C  C1001  1  0.205100  0.850100  0.489500  1.0
  C  C1002  1  0.794900  0.149900  0.510500  1.0
  C  C1003  1  0.310600  0.890400  0.518500  1.0
  C  C1004  1  0.689400  0.109600  0.481500  1.0
  C  C1005  1  0.299900  0.892600  0.486900  1.0
  C  C1006  1  0.700100  0.107400  0.513100  1.0
  C  C1007  1  0.313300  0.919900  0.464200  1.0
  C  C1008  1  0.686700  0.080100  0.535800  1.0
  C  C1009  1  0.335000  0.945100  0.474300  1.0
  C  C1010  1  0.665000  0.054900  0.525700  1.0
  C  C1011  1  0.342500  0.941800  0.506900  1.0
  C  C1012  1  0.657500  0.058200  0.493100  1.0
  C  C1013  1  0.363400  0.968200  0.520700  1.0
  C  C1014  1  0.636600  0.031800  0.479300  1.0
  C  C1015  1  0.385600  0.988800  0.566600  1.0
  C  C1016  1  0.614400  0.011200  0.433400  1.0
  C  C1017  1  0.367700  0.034800  0.562800  1.0
  C  C1018  1  0.632300  0.965200  0.437200  1.0
  C  C1019  1  0.382800  0.060300  0.579500  1.0
  C  C1020  1  0.617200  0.939700  0.420500  1.0
  C  C1021  1  0.415100  0.039200  0.600300  1.0
  C  C1022  1  0.584900  0.960800  0.399700  1.0
  C  C1023  1  0.434100  0.994100  0.604100  1.0
  C  C1024  1  0.565900  0.005900  0.395900  1.0
  C  C1025  1  0.419600  0.968400  0.587000  1.0
  C  C1026  1  0.580400  0.031600  0.413000  1.0
  C  C1027  1  0.247100  0.997200  0.561100  1.0
  C  C1028  1  0.752900  0.002800  0.438900  1.0
  C  C1029  1  0.221000  0.976600  0.551000  1.0
  C  C1030  1  0.779000  0.023400  0.449000  1.0
  C  C1031  1  0.191600  0.996400  0.527800  1.0
  C  C1032  1  0.808400  0.003600  0.472200  1.0
  C  C1033  1  0.188700  0.036800  0.515700  1.0
  C  C1034  1  0.811300  0.963200  0.484300  1.0
  C  C1035  1  0.213200  0.058700  0.525400  1.0
  C  C1036  1  0.786800  0.941300  0.474600  1.0
  C  C1037  1  0.243100  0.038500  0.548300  1.0
  C  C1038  1  0.756900  0.961500  0.451700  1.0
  C  C1039  1  0.275300  0.996900  0.610900  1.0
  C  C1040  1  0.724700  0.003100  0.389100  1.0
  C  C1041  1  0.311400  0.973500  0.632000  1.0
  C  C1042  1  0.688600  0.026500  0.368000  1.0
  C  C1043  1  0.311100  0.989800  0.662600  1.0
  C  C1044  1  0.688900  0.010200  0.337400  1.0
  C  C1045  1  0.346900  0.964700  0.680400  1.0
  C  C1046  1  0.653100  0.035300  0.319600  1.0
  C  C1047  1  0.382000  0.924500  0.667300  1.0
  C  C1048  1  0.618000  0.075500  0.332700  1.0
  C  C1049  1  0.379100  0.911200  0.636500  1.0
  C  C1050  1  0.620900  0.088800  0.363500  1.0
  C  C1051  1  0.420700  0.895300  0.685600  1.0
  C  C1052  1  0.579300  0.104700  0.314400  1.0
  C  C1053  1  0.467700  0.882200  0.671500  1.0
  C  C1054  1  0.532300  0.117800  0.328500  1.0
  C  C1055  1  0.503600  0.853100  0.687300  1.0
  C  C1056  1  0.496400  0.146900  0.312700  1.0
  C  C1057  1  0.494800  0.835200  0.717700  1.0
  C  C1058  1  0.505200  0.164800  0.282300  1.0
  C  C1059  1  0.447700  0.848400  0.731800  1.0
  C  C1060  1  0.552300  0.151600  0.268200  1.0
  C  C1061  1  0.411800  0.877900  0.716200  1.0
  C  C1062  1  0.588200  0.122100  0.283800  1.0
  C  C1063  1  0.532400  0.763500  0.747700  1.0
  C  C1064  1  0.467600  0.236500  0.252300  1.0
  C  C1065  1  0.533300  0.803300  0.735000  1.0
  C  C1066  1  0.466700  0.196700  0.265000  1.0
  C  C1067  1  0.570300  0.813500  0.740400  1.0
  C  C1068  1  0.429700  0.186500  0.259600  1.0
  C  C1069  1  0.604000  0.784500  0.758600  1.0
  C  C1070  1  0.396000  0.215500  0.241400  1.0
  C  C1071  1  0.599400  0.746100  0.770700  1.0
  C  C1072  1  0.400600  0.253900  0.229300  1.0
  C  C1073  1  0.631600  0.714200  0.791500  1.0
  C  C1074  1  0.368400  0.285800  0.208500  1.0
  C  C1075  1  0.652800  0.649400  0.823200  1.0
  C  C1076  1  0.347200  0.350600  0.176800  1.0
  C  C1077  1  0.668600  0.665400  0.847200  1.0
  C  C1078  1  0.331400  0.334600  0.152800  1.0
  C  C1079  1  0.693800  0.636400  0.869900  1.0
  C  C1080  1  0.306200  0.363600  0.130100  1.0
  C  C1081  1  0.702200  0.592500  0.868100  1.0
  C  C1082  1  0.297800  0.407500  0.131900  1.0
  C  C1083  1  0.687700  0.575300  0.844700  1.0
  C  C1084  1  0.312300  0.424700  0.155300  1.0
  C  C1085  1  0.662800  0.604300  0.822000  1.0
  C  C1086  1  0.337200  0.395700  0.178000  1.0
  C  C1087  1  0.279700  0.855100  0.966300  1.0
  C  C1088  1  0.720300  0.144900  0.033700  1.0
  C  C1089  1  0.295900  0.871100  0.990100  1.0
  C  C1090  1  0.704100  0.128900  0.009900  1.0
  C  C1091  1  0.303400  0.909400  0.984400  1.0
  C  C1092  1  0.696600  0.090600  0.015600  1.0
  C  C1093  1  0.295300  0.930600  0.955200  1.0
  C  C1094  1  0.704700  0.069400  0.044800  1.0
  C  C1095  1  0.279600  0.915900  0.930900  1.0
  C  C1096  1  0.720400  0.084100  0.069100  1.0
  C  C1097  1  0.271800  0.877800  0.936700  1.0
  C  C1098  1  0.728200  0.122200  0.063300  1.0
  C  C1099  1  0.300400  0.780200  0.981800  1.0
  C  C1100  1  0.699600  0.219800  0.018200  1.0
  C  C1101  1  0.287300  0.742600  0.989900  1.0
  C  C1102  1  0.712700  0.257400  0.010100  1.0
  C  C1103  1  0.319500  0.700900  0.998300  1.0
  C  C1104  1  0.680500  0.299100  0.001700  1.0
  C  C1105  1  0.305200  0.666500  0.004700  1.0
  C  C1106  1  0.694800  0.333500  0.995300  1.0
  C  C1107  1  0.258600  0.674300  0.002300  1.0
  C  C1108  1  0.741400  0.325700  0.997700  1.0
  C  C1109  1  0.229300  0.717100  0.994300  1.0
  C  C1110  1  0.770700  0.282900  0.005700  1.0
  C  C1111  1  0.243300  0.637000  0.008300  1.0
  C  C1112  1  0.756700  0.363000  0.991700  1.0
  C  C1113  1  0.203500  0.640500  0.030700  1.0
  C  C1114  1  0.796500  0.359500  0.969300  1.0
  C  C1115  1  0.192200  0.604700  0.038200  1.0
  C  C1116  1  0.807800  0.395300  0.961800  1.0
  C  C1117  1  0.219400  0.562900  0.023700  1.0
  C  C1118  1  0.780600  0.437100  0.976300  1.0
  C  C1119  1  0.258000  0.559900  0.000300  1.0
  C  C1120  1  0.742000  0.440100  0.999700  1.0
  C  C1121  1  0.269800  0.595500  0.993000  1.0
  C  C1122  1  0.730200  0.404500  0.007000  1.0
  C  C1123  1  0.207500  0.496200  0.008700  1.0
  C  C1124  1  0.792500  0.503800  0.991300  1.0
  C  C1125  1  0.208600  0.523400  0.032800  1.0
  C  C1126  1  0.791400  0.476600  0.967200  1.0
  C  C1127  1  0.201600  0.510700  0.065700  1.0
  C  C1128  1  0.798400  0.489300  0.934300  1.0
  C  C1129  1  0.196300  0.471100  0.072500  1.0
  C  C1130  1  0.803700  0.528900  0.927500  1.0
  C  C1131  1  0.196900  0.446000  0.046100  1.0
  C  C1132  1  0.803100  0.554000  0.953900  1.0
  C  C1133  1  0.192400  0.403400  0.050300  1.0
  C  C1134  1  0.807600  0.596600  0.949700  1.0
  C  C1135  1  0.190700  0.341900  0.026000  1.0
  C  C1136  1  0.809300  0.658100  0.974000  1.0
  C  C1137  1  0.222600  0.307400  0.042400  1.0
  C  C1138  1  0.777400  0.692600  0.957600  1.0
  C  C1139  1  0.223600  0.265200  0.043000  1.0
  C  C1140  1  0.776400  0.734800  0.957000  1.0
  C  C1141  1  0.191700  0.258400  0.027700  1.0
  C  C1142  1  0.808300  0.741600  0.972300  1.0
  C  C1143  1  0.159000  0.291600  0.012000  1.0
  C  C1144  1  0.841000  0.708400  0.988000  1.0
  C  C1145  1  0.158800  0.333600  0.010700  1.0
  C  C1146  1  0.841200  0.666400  0.989300  1.0
  C  C1147  1  0.211700  0.805700  0.052800  1.0
  C  C1148  1  0.788300  0.194300  0.947200  1.0
  C  C1149  1  0.245300  0.808800  0.069300  1.0
  C  C1150  1  0.754700  0.191200  0.930700  1.0
  C  C1151  1  0.261500  0.779500  0.094600  1.0
  C  C1152  1  0.738500  0.220500  0.905400  1.0
  C  C1153  1  0.243400  0.748400  0.102600  1.0
  C  C1154  1  0.756600  0.251600  0.897400  1.0
  C  C1155  1  0.209800  0.744500  0.087100  1.0
  C  C1156  1  0.790200  0.255500  0.912900  1.0
  C  C1157  1  0.194000  0.773800  0.061800  1.0
  C  C1158  1  0.806000  0.226200  0.938200  1.0
  C  C1159  1  0.186800  0.875800  0.028100  1.0
  C  C1160  1  0.813200  0.124200  0.971900  1.0
  C  C1161  1  0.172700  0.902700  0.998800  1.0
  C  C1162  1  0.827300  0.097300  0.001200  1.0
  C  C1163  1  0.159600  0.948300  0.997500  1.0
  C  C1164  1  0.840400  0.051700  0.002500  1.0
  C  C1165  1  0.147200  0.970000  0.968200  1.0
  C  C1166  1  0.852800  0.030000  0.031800  1.0
  C  C1167  1  0.148700  0.945600  0.941000  1.0
  C  C1168  1  0.851300  0.054400  0.059000  1.0
  C  C1169  1  0.161900  0.900000  0.944900  1.0
  C  C1170  1  0.838100  0.100000  0.055100  1.0
  C  C1171  1  0.138300  0.967700  0.908800  1.0
  C  C1172  1  0.861700  0.032300  0.091200  1.0
  C  C1173  1  0.096500  0.004300  0.905300  1.0
  C  C1174  1  0.903500  0.995700  0.094700  1.0
  C  C1175  1  0.087000  0.023200  0.874900  1.0
  C  C1176  1  0.913000  0.976800  0.125100  1.0
  C  C1177  1  0.119200  0.006400  0.846300  1.0
  C  C1178  1  0.880800  0.993600  0.153700  1.0
  C  C1179  1  0.161200  0.970400  0.849800  1.0
  C  C1180  1  0.838800  0.029600  0.150200  1.0
  C  C1181  1  0.170500  0.951400  0.879900  1.0
  C  C1182  1  0.829500  0.048600  0.120100  1.0
  C  C1183  1  0.069200  0.023200  0.801900  1.0
  C  C1184  1  0.930800  0.976800  0.198100  1.0
  C  C1185  1  0.107900  0.024500  0.813200  1.0
  C  C1186  1  0.892100  0.975500  0.186800  1.0
  C  C1187  1  0.135600  0.041700  0.792100  1.0
  C  C1188  1  0.864400  0.958300  0.207900  1.0
  C  C1189  1  0.122900  0.057200  0.761300  1.0
  C  C1190  1  0.877100  0.942800  0.238700  1.0
  C  C1191  1  0.083300  0.054900  0.752700  1.0
  C  C1192  1  0.916700  0.945100  0.247300  1.0
  C  C1193  1  0.065800  0.071500  0.721300  1.0
  C  C1194  1  0.934200  0.928500  0.278700  1.0
  C  C1195  1  0.008100  0.081100  0.688100  1.0
  C  C1196  1  0.991900  0.918900  0.311900  1.0
  C  C1197  1  0.001300  0.052900  0.667400  1.0
  C  C1198  1  0.998700  0.947100  0.332600  1.0
  C  C1199  1  0.980700  0.069500  0.639700  1.0
  C  C1200  1  0.019300  0.930500  0.360300  1.0
  C  C1201  1  0.966000  0.114000  0.633400  1.0
  C  C1202  1  0.034000  0.886000  0.366600  1.0
  C  C1203  1  0.971900  0.142900  0.652800  1.0
  C  C1204  1  0.028100  0.857100  0.347200  1.0
  C  C1205  1  0.993100  0.125900  0.680400  1.0
  C  C1206  1  0.006900  0.874100  0.319600  1.0
  C  C1207  1  0.975200  0.134800  0.786200  1.0
  C  C1208  1  0.024800  0.865200  0.213800  1.0
  C  C1209  1  0.975500  0.174100  0.772100  1.0
  C  C1210  1  0.024500  0.825900  0.227900  1.0
  C  C1211  1  0.993100  0.199000  0.787000  1.0
  C  C1212  1  0.006900  0.801000  0.213000  1.0
  C  C1213  1  0.008800  0.184900  0.816700  1.0
  C  C1214  1  0.991200  0.815100  0.183300  1.0
  C  C1215  1  0.008200  0.146900  0.831500  1.0
  C  C1216  1  0.991800  0.853100  0.168500  1.0
  C  C1217  1  0.991900  0.121200  0.816100  1.0
  C  C1218  1  0.008100  0.878800  0.183900  1.0
  C  C1219  1  0.923100  0.124400  0.756200  1.0
  C  C1220  1  0.076900  0.875600  0.243800  1.0
  C  C1221  1  0.911900  0.093900  0.738200  1.0
  C  C1222  1  0.088100  0.906100  0.261800  1.0
  C  C1223  1  0.872300  0.108000  0.722700  1.0
  C  C1224  1  0.127700  0.892000  0.277300  1.0
  C  C1225  1  0.866000  0.077200  0.704500  1.0
  C  C1226  1  0.134000  0.922800  0.295500  1.0
  C  C1227  1  0.899500  0.033000  0.702700  1.0
  C  C1228  1  0.100500  0.967000  0.297300  1.0
  C  C1229  1  0.936900  0.022100  0.720100  1.0
  C  C1230  1  0.063100  0.977900  0.279900  1.0
  C  C1231  1  0.895500  0.000000  0.681500  1.0
  C  C1232  1  0.104500  0.000000  0.318500  1.0
  C  C1233  1  0.853800  0.994400  0.683700  1.0
  C  C1234  1  0.146200  0.005600  0.316300  1.0
  C  C1235  1  0.850300  0.964200  0.663700  1.0
  C  C1236  1  0.149700  0.035800  0.336300  1.0
  C  C1237  1  0.887600  0.938800  0.640200  1.0
  C  C1238  1  0.112400  0.061200  0.359800  1.0
  C  C1239  1  0.929200  0.944500  0.637600  1.0
  C  C1240  1  0.070800  0.055500  0.362400  1.0
  C  C1241  1  0.932900  0.974200  0.658100  1.0
  C  C1242  1  0.067100  0.025800  0.341900  1.0
  C  C1243  1  0.872300  0.872300  0.629400  1.0
  C  C1244  1  0.127700  0.127700  0.370600  1.0
  C  C1245  1  0.883700  0.907200  0.617400  1.0
  C  C1246  1  0.116300  0.092800  0.382600  1.0
  C  C1247  1  0.893200  0.911400  0.583300  1.0
  C  C1248  1  0.106800  0.088600  0.416700  1.0
  C  C1249  1  0.891300  0.880200  0.562700  1.0
  C  C1250  1  0.108700  0.119800  0.437300  1.0
  C  C1251  1  0.879300  0.846600  0.577200  1.0
  C  C1252  1  0.120700  0.153400  0.422800  1.0
  C  C1253  1  0.876700  0.811300  0.558300  1.0
  C  C1254  1  0.123300  0.188700  0.441700  1.0
  C  C1255  1  0.862100  0.747700  0.558600  1.0
  C  C1256  1  0.137900  0.252300  0.441400  1.0
  C  C1257  1  0.833700  0.759500  0.534000  1.0
  C  C1258  1  0.166300  0.240500  0.466000  1.0
  C  C1259  1  0.829500  0.726700  0.516800  1.0
  C  C1260  1  0.170500  0.273300  0.483200  1.0
  C  C1261  1  0.853800  0.683000  0.524500  1.0
  C  C1262  1  0.146200  0.317000  0.475500  1.0
  C  C1263  1  0.882200  0.670000  0.548500  1.0
  C  C1264  1  0.117800  0.330000  0.451500  1.0
  C  C1265  1  0.885900  0.702800  0.565600  1.0
  C  C1266  1  0.114100  0.297200  0.434400  1.0
  C  C1267  1  0.761400  0.872700  0.606300  1.0
  C  C1268  1  0.238600  0.127300  0.393700  1.0
  C  C1269  1  0.743200  0.885100  0.576900  1.0
  C  C1270  1  0.256800  0.114900  0.423100  1.0
  C  C1271  1  0.724100  0.929800  0.568500  1.0
  C  C1272  1  0.275900  0.070200  0.431500  1.0
  C  C1273  1  0.723300  0.960500  0.590000  1.0
  C  C1274  1  0.276700  0.039500  0.410000  1.0
  C  C1275  1  0.740100  0.949700  0.619500  1.0
  C  C1276  1  0.259900  0.050300  0.380500  1.0
  C  C1277  1  0.759500  0.905000  0.627500  1.0
  C  C1278  1  0.240500  0.095000  0.372500  1.0
  C  C1279  1  0.762200  0.801300  0.613600  1.0
  C  C1280  1  0.237800  0.198700  0.386400  1.0
  C  C1281  1  0.786100  0.755000  0.623900  1.0
  C  C1282  1  0.213900  0.245000  0.376100  1.0
  C  C1283  1  0.767600  0.723600  0.624000  1.0
  C  C1284  1  0.232400  0.276400  0.376000  1.0
  C  C1285  1  0.794000  0.680200  0.633400  1.0
  C  C1286  1  0.206000  0.319800  0.366600  1.0
  C  C1287  1  0.838200  0.669900  0.642200  1.0
  C  C1288  1  0.161800  0.330100  0.357800  1.0
  C  C1289  1  0.853100  0.704200  0.642000  1.0
  C  C1290  1  0.146900  0.295800  0.358000  1.0
  C  C1291  1  0.868700  0.623500  0.650700  1.0
  C  C1292  1  0.131300  0.376500  0.349300  1.0
  C  C1293  1  0.851600  0.597600  0.671800  1.0
  C  C1294  1  0.148400  0.402400  0.328200  1.0
  C  C1295  1  0.879900  0.554600  0.679100  1.0
  C  C1296  1  0.120100  0.445400  0.320900  1.0
  C  C1297  1  0.927400  0.534900  0.665600  1.0
  C  C1298  1  0.072600  0.465100  0.334400  1.0
  C  C1299  1  0.944700  0.560700  0.644400  1.0
  C  C1300  1  0.055300  0.439300  0.355600  1.0
  C  C1301  1  0.916300  0.603700  0.637100  1.0
  C  C1302  1  0.083700  0.396300  0.362900  1.0
  C  C1303  1  0.958500  0.471400  0.704700  1.0
  C  C1304  1  0.041500  0.528600  0.295300  1.0
  C  C1305  1  0.957800  0.487900  0.672800  1.0
  C  C1306  1  0.042200  0.512100  0.327200  1.0
  C  C1307  1  0.986300  0.458500  0.647000  1.0
  C  C1308  1  0.013700  0.541500  0.353000  1.0
  C  C1309  1  0.013700  0.414400  0.654100  1.0
  C  C1310  1  0.986300  0.585600  0.345900  1.0
  C  C1311  1  0.012100  0.401400  0.686800  1.0
  C  C1312  1  0.987900  0.598600  0.313200  1.0
  C  C1313  1  0.039900  0.356100  0.697300  1.0
  C  C1314  1  0.960100  0.643900  0.302700  1.0
  C  C1315  1  0.060900  0.303100  0.738100  1.0
  C  C1316  1  0.939100  0.696900  0.261900  1.0
  C  C1317  1  0.049900  0.270300  0.727200  1.0
  C  C1318  1  0.950100  0.729700  0.272800  1.0
  C  C1319  1  0.072100  0.226400  0.736300  1.0
  C  C1320  1  0.927900  0.773600  0.263700  1.0
  C  C1321  1  0.105500  0.216500  0.756700  1.0
  C  C1322  1  0.894500  0.783500  0.243300  1.0
  C  C1323  1  0.117500  0.247900  0.767900  1.0
  C  C1324  1  0.882500  0.752100  0.232100  1.0
  C  C1325  1  0.095200  0.291700  0.758300  1.0
  C  C1326  1  0.904800  0.708300  0.241700  1.0
  C  C1327  1  0.302900  0.382500  0.004300  1.0
  C  C1328  1  0.697100  0.617500  0.995700  1.0
  C  C1329  1  0.324500  0.350200  0.026600  1.0
  C  C1330  1  0.675500  0.649800  0.973400  1.0
  C  C1331  1  0.354200  0.356300  0.045400  1.0
  C  C1332  1  0.645800  0.643700  0.954600  1.0
  C  C1333  1  0.361600  0.394400  0.041200  1.0
  C  C1334  1  0.638400  0.605600  0.958800  1.0
  C  C1335  1  0.341300  0.427000  0.019200  1.0
  C  C1336  1  0.658700  0.573000  0.980800  1.0
  C  C1337  1  0.311500  0.420700  0.000800  1.0
  C  C1338  1  0.688500  0.579300  0.999200  1.0
  C  C1339  1  0.287400  0.338800  0.968700  1.0
  C  C1340  1  0.712600  0.661200  0.031300  1.0
  C  C1341  1  0.255100  0.332400  0.949600  1.0
  C  C1342  1  0.744900  0.667600  0.050400  1.0
  C  C1343  1  0.267400  0.294000  0.931200  1.0
  C  C1344  1  0.732600  0.706000  0.068800  1.0
  C  C1345  1  0.233900  0.290400  0.914800  1.0
  C  C1346  1  0.766100  0.709600  0.085200  1.0
  C  C1347  1  0.189300  0.325600  0.916800  1.0
  C  C1348  1  0.810700  0.674400  0.083200  1.0
  C  C1349  1  0.181000  0.362700  0.935400  1.0
  C  C1350  1  0.819000  0.637300  0.064600  1.0
  C  C1351  1  0.152800  0.325100  0.898300  1.0
  C  C1352  1  0.847200  0.674900  0.101700  1.0
  C  C1353  1  0.107500  0.332400  0.913800  1.0
  C  C1354  1  0.892500  0.667600  0.086200  1.0
  C  C1355  1  0.072700  0.334500  0.896500  1.0
  C  C1356  1  0.927300  0.665500  0.103500  1.0
  C  C1357  1  0.081600  0.329400  0.862400  1.0
  C  C1358  1  0.918400  0.670600  0.137600  1.0
  C  C1359  1  0.126800  0.322400  0.846900  1.0
  C  C1360  1  0.873200  0.677600  0.153100  1.0
  C  C1361  1  0.161400  0.320400  0.864200  1.0
  C  C1362  1  0.838600  0.679600  0.135800  1.0
  C  C1363  1  0.035400  0.362100  0.815600  1.0
  C  C1364  1  0.964600  0.637900  0.184400  1.0
  C  C1365  1  0.045400  0.332600  0.841900  1.0
  C  C1366  1  0.954600  0.667400  0.158100  1.0
  C  C1367  1  0.021300  0.305200  0.848100  1.0
  C  C1368  1  0.978700  0.694800  0.151900  1.0
  C  C1369  1  0.988500  0.307800  0.828300  1.0
  C  C1370  1  0.011500  0.692200  0.171700  1.0
  C  C1371  1  0.980900  0.338400  0.802800  1.0
  C  C1372  1  0.019100  0.661600  0.197200  1.0
  C  C1373  1  0.944300  0.346800  0.782000  1.0
  C  C1374  1  0.055700  0.653200  0.218000  1.0
  C  C1375  1  0.901200  0.388600  0.741700  1.0
  C  C1376  1  0.098800  0.611400  0.258300  1.0
  C  C1377  1  0.858100  0.393600  0.760300  1.0
  C  C1378  1  0.141900  0.606400  0.239700  1.0
  C  C1379  1  0.817300  0.409300  0.746300  1.0
  C  C1380  1  0.182700  0.590700  0.253700  1.0
  C  C1381  1  0.820800  0.419800  0.713300  1.0
  C  C1382  1  0.179200  0.580200  0.286700  1.0
  C  C1383  1  0.862600  0.414100  0.694200  1.0
  C  C1384  1  0.137400  0.585900  0.305800  1.0
  C  C1385  1  0.903500  0.397900  0.708200  1.0
  C  C1386  1  0.096500  0.602100  0.291800  1.0
  C  C1387  1  0.105000  0.818000  0.011100  1.0
  C  C1388  1  0.895000  0.182000  0.988900  1.0
  C  C1389  1  0.089300  0.784900  0.020600  1.0
  C  C1390  1  0.910700  0.215100  0.979400  1.0
  C  C1391  1  0.053500  0.792200  0.047400  1.0
  C  C1392  1  0.946500  0.207800  0.952600  1.0
  C  C1393  1  0.034200  0.833200  0.062800  1.0
  C  C1394  1  0.965800  0.166800  0.937200  1.0
  C  C1395  1  0.048400  0.866600  0.054200  1.0
  C  C1396  1  0.951600  0.133400  0.945800  1.0
  C  C1397  1  0.085100  0.858700  0.028000  1.0
  C  C1398  1  0.914900  0.141300  0.972000  1.0
  C  C1399  1  0.130800  0.802300  0.955600  1.0
  C  C1400  1  0.869200  0.197700  0.044400  1.0
  C  C1401  1  0.168200  0.793000  0.926900  1.0
  C  C1402  1  0.831800  0.207000  0.073100  1.0
  C  C1403  1  0.162900  0.781900  0.896100  1.0
  C  C1404  1  0.837100  0.218100  0.103900  1.0
  C  C1405  1  0.201300  0.772100  0.870700  1.0
  C  C1406  1  0.798700  0.227900  0.129300  1.0
  C  C1407  1  0.242700  0.773500  0.876900  1.0
  C  C1408  1  0.757300  0.226500  0.123100  1.0
  C  C1409  1  0.243800  0.786100  0.908300  1.0
  C  C1410  1  0.756200  0.213900  0.091700  1.0
  C  C1411  1  0.286400  0.758300  0.851600  1.0
  C  C1412  1  0.713600  0.241700  0.148400  1.0
  C  C1413  1  0.312000  0.783900  0.844200  1.0
  C  C1414  1  0.688000  0.216100  0.155800  1.0
  C  C1415  1  0.353600  0.769000  0.822000  1.0
  C  C1416  1  0.646400  0.231000  0.178000  1.0
  C  C1417  1  0.371100  0.728000  0.806100  1.0
  C  C1418  1  0.628900  0.272000  0.193900  1.0
  C  C1419  1  0.344800  0.702800  0.813300  1.0
  C  C1420  1  0.655200  0.297200  0.186700  1.0
  C  C1421  1  0.303400  0.717500  0.835600  1.0
  C  C1422  1  0.696600  0.282500  0.164400  1.0
  C  C1423  1  0.458000  0.709400  0.795700  1.0
  C  C1424  1  0.542000  0.290600  0.204300  1.0
  C  C1425  1  0.418300  0.710400  0.784500  1.0
  C  C1426  1  0.581700  0.289600  0.215500  1.0
  C  C1427  1  0.424900  0.691800  0.753400  1.0
  C  C1428  1  0.575100  0.308200  0.246600  1.0
  C  C1429  1  0.470200  0.672300  0.735300  1.0
  C  C1430  1  0.529800  0.327700  0.264700  1.0
  C  C1431  1  0.507700  0.671300  0.749400  1.0
  C  C1432  1  0.492300  0.328700  0.250600  1.0
  C  C1433  1  0.557200  0.646100  0.734500  1.0
  C  C1434  1  0.442800  0.353900  0.265500  1.0
  C  C1435  1  0.637200  0.614600  0.740300  1.0
  C  C1436  1  0.362800  0.385400  0.259700  1.0
  C  C1437  1  0.646800  0.569800  0.737500  1.0
  C  C1438  1  0.353200  0.430200  0.262500  1.0
  C  C1439  1  0.692600  0.538200  0.729000  1.0
  C  C1440  1  0.307400  0.461800  0.271000  1.0
  C  C1441  1  0.727800  0.553100  0.723800  1.0
  C  C1442  1  0.272200  0.446900  0.276200  1.0
  C  C1443  1  0.719800  0.596900  0.726400  1.0
  C  C1444  1  0.280200  0.403100  0.273600  1.0
  C  C1445  1  0.673700  0.628400  0.734600  1.0
  C  C1446  1  0.326300  0.371600  0.265400  1.0
  C  C1447  1  0.092400  0.448800  0.996100  1.0
  C  C1448  1  0.907600  0.551200  0.003900  1.0
  C  C1449  1  0.061300  0.441600  0.979100  1.0
  C  C1450  1  0.938700  0.558400  0.020900  1.0
  C  C1451  1  0.022400  0.436200  0.996100  1.0
  C  C1452  1  0.977600  0.563800  0.003900  1.0
  C  C1453  1  0.014900  0.438400  0.029900  1.0
  C  C1454  1  0.985100  0.561600  0.970100  1.0
  C  C1455  1  0.044400  0.445800  0.047600  1.0
  C  C1456  1  0.955600  0.554200  0.952400  1.0
  C  C1457  1  0.083400  0.450900  0.030400  1.0
  C  C1458  1  0.916600  0.549100  0.969600  1.0
  C  C1459  1  0.128800  0.481800  0.956000  1.0
  C  C1460  1  0.871200  0.518200  0.044000  1.0
  C  C1461  1  0.172000  0.481500  0.935400  1.0
  C  C1462  1  0.828000  0.518500  0.064600  1.0
  C  C1463  1  0.171100  0.509500  0.908700  1.0
  C  C1464  1  0.828900  0.490500  0.091300  1.0
  C  C1465  1  0.213300  0.504000  0.888700  1.0
  C  C1466  1  0.786700  0.496000  0.111300  1.0
  C  C1467  1  0.255500  0.470400  0.896000  1.0
  C  C1468  1  0.744500  0.529600  0.104000  1.0
  C  C1469  1  0.252600  0.445600  0.923800  1.0
  C  C1470  1  0.747400  0.554400  0.076200  1.0
  C  C1471  1  0.300400  0.459600  0.872300  1.0
  C  C1472  1  0.699600  0.540400  0.127700  1.0
  C  C1473  1  0.343100  0.450500  0.882600  1.0
  C  C1474  1  0.656900  0.549500  0.117400  1.0
  C  C1475  1  0.385000  0.436400  0.860800  1.0
  C  C1476  1  0.615000  0.563600  0.139200  1.0
  C  C1477  1  0.385900  0.430800  0.827500  1.0
  C  C1478  1  0.614100  0.569200  0.172500  1.0
  C  C1479  1  0.343000  0.441500  0.816800  1.0
  C  C1480  1  0.657000  0.558500  0.183200  1.0
  C  C1481  1  0.301400  0.455600  0.838700  1.0
  C  C1482  1  0.698600  0.544400  0.161300  1.0
  C  C1483  1  0.466800  0.370800  0.811600  1.0
  C  C1484  1  0.533200  0.629200  0.188400  1.0
  C  C1485  1  0.430900  0.410100  0.803800  1.0
  C  C1486  1  0.569100  0.589900  0.196200  1.0
  C  C1487  1  0.436300  0.427200  0.772200  1.0
  C  C1488  1  0.563700  0.572800  0.227800  1.0
  C  C1489  1  0.476200  0.403400  0.749600  1.0
  C  C1490  1  0.523800  0.596600  0.250400  1.0
  C  C1491  1  0.509300  0.363100  0.759400  1.0
  C  C1492  1  0.490700  0.636900  0.240600  1.0
  C  C1493  1  0.549200  0.332800  0.736300  1.0
  C  C1494  1  0.450800  0.667200  0.263700  1.0
  C  C1495  1  0.611000  0.263500  0.723400  1.0
  C  C1496  1  0.389000  0.736500  0.276600  1.0
  C  C1497  1  0.657600  0.243100  0.728400  1.0
  C  C1498  1  0.342400  0.756900  0.271600  1.0
  C  C1499  1  0.690500  0.210300  0.706700  1.0
  C  C1500  1  0.309500  0.789700  0.293300  1.0
  C  C1501  1  0.675800  0.199300  0.680300  1.0
  C  C1502  1  0.324200  0.800700  0.319700  1.0
  C  C1503  1  0.630400  0.219200  0.674100  1.0
  C  C1504  1  0.369600  0.780800  0.325900  1.0
  C  C1505  1  0.597500  0.251700  0.696100  1.0
  C  C1506  1  0.402500  0.748300  0.303900  1.0
  C  C1507  1  0.898900  0.461500  0.797800  1.0
  C  C1508  1  0.101100  0.538500  0.202200  1.0
  C  C1509  1  0.891600  0.440400  0.827300  1.0
  C  C1510  1  0.108400  0.559600  0.172700  1.0
  C  C1511  1  0.846600  0.446200  0.841900  1.0
  C  C1512  1  0.153400  0.553800  0.158100  1.0
  C  C1513  1  0.809500  0.473600  0.826400  1.0
  C  C1514  1  0.190500  0.526400  0.173600  1.0
  C  C1515  1  0.815200  0.495000  0.797600  1.0
  C  C1516  1  0.184800  0.505000  0.202400  1.0
  C  C1517  1  0.860500  0.488700  0.783000  1.0
  C  C1518  1  0.139500  0.511300  0.217000  1.0
  C  C1519  1  0.964700  0.479200  0.790900  1.0
  C  C1520  1  0.035300  0.520800  0.209100  1.0
  C  C1521  1  0.015000  0.466700  0.778000  1.0
  C  C1522  1  0.985000  0.533300  0.222000  1.0
  C  C1523  1  0.039800  0.491200  0.784000  1.0
  C  C1524  1  0.960200  0.508800  0.216000  1.0
  C  C1525  1  0.087000  0.477100  0.769600  1.0
  C  C1526  1  0.913000  0.522900  0.230400  1.0
  C  C1527  1  0.107800  0.439200  0.749300  1.0
  C  C1528  1  0.892200  0.560800  0.250700  1.0
  C  C1529  1  0.080400  0.416500  0.745700  1.0
  C  C1530  1  0.919600  0.583500  0.254300  1.0
  C  C1531  1  0.156100  0.424800  0.729800  1.0
  C  C1532  1  0.843900  0.575200  0.270200  1.0
  C  C1533  1  0.187300  0.380300  0.727000  1.0
  C  C1534  1  0.812700  0.619700  0.273000  1.0
  C  C1535  1  0.228900  0.365800  0.704900  1.0
  C  C1536  1  0.771100  0.634200  0.295100  1.0
  C  C1537  1  0.240800  0.396000  0.684900  1.0
  C  C1538  1  0.759200  0.604000  0.315100  1.0
  C  C1539  1  0.210700  0.440900  0.688600  1.0
  C  C1540  1  0.789300  0.559100  0.311400  1.0
  C  C1541  1  0.169100  0.455100  0.710700  1.0
  C  C1542  1  0.830900  0.544900  0.289300  1.0
  C  C1543  1  0.290300  0.346000  0.637100  1.0
  C  C1544  1  0.709700  0.654000  0.362900  1.0
  C  C1545  1  0.282300  0.380900  0.658100  1.0
  C  C1546  1  0.717700  0.619100  0.341900  1.0
  C  C1547  1  0.312100  0.402700  0.652300  1.0
  C  C1548  1  0.687900  0.597300  0.347700  1.0
  C  C1549  1  0.348000  0.390800  0.625400  1.0
  C  C1550  1  0.652000  0.609200  0.374600  1.0
  C  C1551  1  0.352200  0.356400  0.605000  1.0
  C  C1552  1  0.647800  0.643600  0.395000  1.0
  C  C1553  1  0.387400  0.342000  0.575200  1.0
  C  C1554  1  0.612600  0.658000  0.424800  1.0
  C  C1555  1  0.422200  0.300800  0.528500  1.0
  C  C1556  1  0.577800  0.699200  0.471500  1.0
  C  C1557  1  0.418600  0.332200  0.503700  1.0
  C  C1558  1  0.581400  0.667800  0.496300  1.0
  C  C1559  1  0.451600  0.321800  0.475300  1.0
  C  C1560  1  0.548400  0.678200  0.524700  1.0
  C  C1561  1  0.488100  0.280200  0.472500  1.0
  C  C1562  1  0.511900  0.719800  0.527500  1.0
  C  C1563  1  0.493600  0.248900  0.496500  1.0
  C  C1564  1  0.506400  0.751100  0.503500  1.0
  C  C1565  1  0.460200  0.259300  0.524800  1.0
  C  C1566  1  0.539800  0.740700  0.475200  1.0
  C  C1567  1  0.791900  0.839000  0.694600  1.0
  C  C1568  1  0.208100  0.161000  0.305400  1.0
  C  C1569  1  0.793600  0.872800  0.712400  1.0
  C  C1570  1  0.206400  0.127200  0.287600  1.0
  C  C1571  1  0.753100  0.903400  0.730700  1.0
  C  C1572  1  0.246900  0.096600  0.269300  1.0
  C  C1573  1  0.711700  0.899200  0.730800  1.0
  C  C1574  1  0.288300  0.100800  0.269200  1.0
  C  C1575  1  0.708300  0.866600  0.713700  1.0
  C  C1576  1  0.291700  0.133400  0.286300  1.0
  C  C1577  1  0.749100  0.836000  0.695300  1.0
  C  C1578  1  0.250900  0.164000  0.304700  1.0
  C  C1579  1  0.869100  0.786500  0.690400  1.0
  C  C1580  1  0.130900  0.213500  0.309600  1.0
  C  C1581  1  0.914100  0.758600  0.670300  1.0
  C  C1582  1  0.085900  0.241400  0.329700  1.0
  C  C1583  1  0.955200  0.735100  0.683700  1.0
  C  C1584  1  0.044800  0.264900  0.316300  1.0
  C  C1585  1  0.997300  0.712900  0.662600  1.0
  C  C1586  1  0.002700  0.287100  0.337400  1.0
  C  C1587  1  0.996700  0.715300  0.628500  1.0
  C  C1588  1  0.003300  0.284700  0.371500  1.0
  C  C1589  1  0.953600  0.738100  0.617600  1.0
  C  C1590  1  0.046400  0.261900  0.382400  1.0
  C  C1591  1  0.041700  0.697900  0.604700  1.0
  C  C1592  1  0.958300  0.302100  0.395300  1.0
  C  C1593  1  0.078900  0.707800  0.609500  1.0
  C  C1594  1  0.921100  0.292200  0.390500  1.0
  C  C1595  1  0.120300  0.693700  0.587500  1.0
  C  C1596  1  0.879700  0.306300  0.412500  1.0
  C  C1597  1  0.127000  0.668600  0.559600  1.0
  C  C1598  1  0.873000  0.331400  0.440400  1.0
  C  C1599  1  0.090300  0.657700  0.555200  1.0
  C  C1600  1  0.909700  0.342300  0.444800  1.0
  C  C1601  1  0.048600  0.672000  0.577200  1.0
  C  C1602  1  0.951400  0.328000  0.422800  1.0
  C  C1603  1  0.169800  0.663900  0.501700  1.0
  C  C1604  1  0.830200  0.336100  0.498300  1.0
  C  C1605  1  0.171500  0.656500  0.535300  1.0
  C  C1606  1  0.828500  0.343500  0.464700  1.0
  C  C1607  1  0.215700  0.639500  0.545200  1.0
  C  C1608  1  0.784300  0.360500  0.454800  1.0
  C  C1609  1  0.255700  0.632800  0.522100  1.0
  C  C1610  1  0.744300  0.367200  0.477900  1.0
  C  C1611  1  0.250000  0.642900  0.489400  1.0
  C  C1612  1  0.750000  0.357100  0.510600  1.0
  C  C1613  1  0.289100  0.641000  0.463400  1.0
  C  C1614  1  0.710900  0.359000  0.536600  1.0
  C  C1615  1  0.317500  0.650600  0.409500  1.0
  C  C1616  1  0.682500  0.349400  0.590500  1.0
  C  C1617  1  0.339900  0.678700  0.411100  1.0
  C  C1618  1  0.660100  0.321300  0.588900  1.0
  C  C1619  1  0.376900  0.676700  0.386600  1.0
  C  C1620  1  0.623100  0.323300  0.613400  1.0
  C  C1621  1  0.390100  0.646300  0.361700  1.0
  C  C1622  1  0.609900  0.353700  0.638300  1.0
  C  C1623  1  0.369200  0.617900  0.359200  1.0
  C  C1624  1  0.630800  0.382100  0.640800  1.0
  C  C1625  1  0.332200  0.620300  0.383500  1.0
  C  C1626  1  0.667800  0.379700  0.616500  1.0
  C  C1627  1  0.943600  0.039500  0.827100  1.0
  C  C1628  1  0.056400  0.960500  0.172900  1.0
  C  C1629  1  0.960300  0.026800  0.857100  1.0
  C  C1630  1  0.039700  0.973200  0.142900  1.0
  C  C1631  1  0.936000  0.052700  0.885200  1.0
  C  C1632  1  0.064000  0.947300  0.114800  1.0
  C  C1633  1  0.895600  0.090300  0.882400  1.0
  C  C1634  1  0.104400  0.909700  0.117600  1.0
  C  C1635  1  0.877700  0.102600  0.853600  1.0
  C  C1636  1  0.122300  0.897400  0.146400  1.0
  C  C1637  1  0.902000  0.077000  0.825500  1.0
  C  C1638  1  0.098000  0.923000  0.174500  1.0
  C  C1639  1  0.984400  0.974100  0.796900  1.0
  C  C1640  1  0.015600  0.025900  0.203100  1.0
  C  C1641  1  0.017500  0.950600  0.767400  1.0
  C  C1642  1  0.982500  0.049400  0.232600  1.0
  C  C1643  1  0.035300  0.904500  0.763500  1.0
  C  C1644  1  0.964700  0.095500  0.236500  1.0
  C  C1645  1  0.069600  0.884300  0.736300  1.0
  C  C1646  1  0.930400  0.115700  0.263700  1.0
  C  C1647  1  0.085300  0.911300  0.714900  1.0
  C  C1648  1  0.914700  0.088700  0.285100  1.0
  C  C1649  1  0.063900  0.957000  0.720500  1.0
  C  C1650  1  0.936100  0.043000  0.279500  1.0
  C  C1651  1  0.128000  0.891800  0.689100  1.0
  C  C1652  1  0.872000  0.108200  0.310900  1.0
  C  C1653  1  0.169700  0.858400  0.696800  1.0
  C  C1654  1  0.830300  0.141600  0.303200  1.0
  C  C1655  1  0.211100  0.843900  0.674500  1.0
  C  C1656  1  0.788900  0.156100  0.325500  1.0
  C  C1657  1  0.213000  0.862200  0.643100  1.0
  C  C1658  1  0.787000  0.137800  0.356900  1.0
  C  C1659  1  0.170600  0.893700  0.634800  1.0
  C  C1660  1  0.829400  0.106300  0.365200  1.0
  C  C1661  1  0.129400  0.908200  0.657200  1.0
  C  C1662  1  0.870600  0.091800  0.342800  1.0
  C  C1663  1  0.272900  0.884400  0.607800  1.0
  C  C1664  1  0.727100  0.115600  0.392200  1.0
  C  C1665  1  0.259200  0.851200  0.620900  1.0
  C  C1666  1  0.740800  0.148800  0.379100  1.0
  C  C1667  1  0.291800  0.807100  0.615400  1.0
  C  C1668  1  0.708200  0.192900  0.384600  1.0
  C  C1669  1  0.336900  0.798700  0.598900  1.0
  C  C1670  1  0.663100  0.201300  0.401100  1.0
  C  C1671  1  0.347800  0.834200  0.588200  1.0
  C  C1672  1  0.652200  0.165800  0.411800  1.0
  C  C1673  1  0.396000  0.828800  0.574400  1.0
  C  C1674  1  0.604000  0.171200  0.425600  1.0
  C  C1675  1  0.448000  0.861400  0.555100  1.0
  C  C1676  1  0.552000  0.138600  0.444900  1.0
  C  C1677  1  0.482900  0.842500  0.575000  1.0
  C  C1678  1  0.517100  0.157500  0.425000  1.0
  C  C1679  1  0.527400  0.841000  0.563600  1.0
  C  C1680  1  0.472600  0.159000  0.436400  1.0
  C  C1681  1  0.535700  0.858500  0.533800  1.0
  C  C1682  1  0.464300  0.141500  0.466200  1.0
  C  C1683  1  0.502500  0.876900  0.513200  1.0
  C  C1684  1  0.497500  0.123100  0.486800  1.0
  C  C1685  1  0.458300  0.877800  0.524400  1.0
  C  C1686  1  0.541700  0.122200  0.475600  1.0
  C  C1687  1  0.350000  0.248000  0.332600  1.0
  C  C1688  1  0.650000  0.752000  0.667400  1.0
  C  C1689  1  0.332100  0.215200  0.326100  1.0
  C  C1690  1  0.667900  0.784800  0.673900  1.0
  C  C1691  1  0.234200  0.387100  0.792500  1.0
  C  C1692  1  0.765800  0.612900  0.207500  1.0
  C  C1693  1  0.192200  0.414700  0.815100  1.0
  C  C1694  1  0.807800  0.585300  0.184900  1.0
  C  C1695  1  0.827900  0.708300  0.327600  1.0
  C  C1696  1  0.172100  0.291700  0.672400  1.0
  C  C1697  1  0.826300  0.753300  0.325200  1.0
  C  C1698  1  0.173700  0.246700  0.674800  1.0
  C  C1699  1  0.972000  0.986700  0.970500  1.0
  C  C1700  1  0.028000  0.013300  0.029500  1.0
  C  C1701  1  0.998000  0.938500  0.970400  1.0
  C  C1702  1  0.002000  0.061500  0.029600  1.0
  C  C1703  1  0.753000  0.711000  0.732100  1.0
  C  C1704  1  0.247000  0.289000  0.267900  1.0
  C  C1705  1  0.793000  0.724000  0.729200  1.0
  C  C1706  1  0.207000  0.276000  0.270800  1.0
  C  C1707  1  0.020000  0.811000  0.577100  1.0
  C  C1708  1  0.980000  0.189000  0.422900  1.0
  C  C1709  1  0.048000  0.810000  0.545400  1.0
  C  C1710  1  0.952000  0.190000  0.454600  1.0
  C  C1711  1  0.300800  0.348400  0.857500  1.0
  C  C1712  1  0.699200  0.651600  0.142500  1.0
  C  C1713  1  0.342200  0.317600  0.836100  1.0
  C  C1714  1  0.657800  0.682400  0.163900  1.0
  C  C1715  1  0.184000  0.946000  0.734600  1.0
  C  C1716  1  0.816000  0.054000  0.265400  1.0
  C  C1717  1  0.150600  0.937300  0.759500  1.0
  C  C1718  1  0.849400  0.062700  0.240500  1.0
  C  C1719  1  0.142400  0.965700  0.440000  1.0
  C  C1720  1  0.857600  0.034300  0.560000  1.0
  C  C1721  1  0.124600  0.942500  0.423000  1.0
  C  C1722  1  0.875400  0.057500  0.577000  1.0
  C  C1723  1  0.150100  0.920400  0.393500  1.0
  C  C1724  1  0.849900  0.079600  0.606500  1.0
  C  C1725  1  0.193500  0.921400  0.381000  1.0
  C  C1726  1  0.806500  0.078600  0.619000  1.0
  C  C1727  1  0.211300  0.944500  0.398000  1.0
  C  C1728  1  0.788700  0.055500  0.602000  1.0
  C  C1729  1  0.185800  0.966700  0.427500  1.0
  C  C1730  1  0.814200  0.033300  0.572500  1.0
  C  C1731  1  0.800000  0.548700  0.625600  1.0
  C  C1732  1  0.200000  0.451300  0.374400  1.0
  C  C1733  1  0.754800  0.582300  0.628800  1.0
  C  C1734  1  0.245200  0.417700  0.371200  1.0
  C  C1735  1  0.741900  0.613600  0.604000  1.0
  C  C1736  1  0.258100  0.386400  0.396000  1.0
  C  C1737  1  0.774000  0.611300  0.576000  1.0
  C  C1738  1  0.226000  0.388700  0.424000  1.0
  C  C1739  1  0.820000  0.577800  0.572800  1.0
  C  C1740  1  0.180000  0.422200  0.427200  1.0
  C  C1741  1  0.832900  0.546500  0.597600  1.0
  C  C1742  1  0.167100  0.453500  0.402400  1.0
  C  C1743  1  0.064000  0.482700  0.684100  0.41
  C  C1744  1  0.936000  0.517300  0.315900  0.41
  C  C1745  1  0.029000  0.525000  0.700000  0.41
  C  C1746  1  0.971000  0.475000  0.300000  0.41
  C  C1747  1  0.111000  0.585000  0.982100  0.49
  C  C1748  1  0.889000  0.415000  0.017900  0.49
  C  C1749  1  0.103000  0.559000  0.011200  0.49
  C  C1750  1  0.897000  0.441000  0.988800  0.49
  C  C1751  1  0.212000  0.515000  0.756000  0.5
  C  C1752  1  0.788000  0.485000  0.244000  0.5
  C  C1753  1  0.252000  0.525000  0.741000  0.5
  C  C1754  1  0.748000  0.475000  0.259000  0.5
  C  C1755  1  0.501000  0.092000  0.743000  0.5
  C  C1756  1  0.499000  0.908000  0.257000  0.5
  C  C1757  1  0.473000  0.093000  0.718000  0.5
  C  C1758  1  0.527000  0.907000  0.282000  0.5
  C  C1759  1  0.522000  0.966000  0.683000  0.5
  C  C1760  1  0.478000  0.034000  0.317000  0.5
  C  C1761  1  0.556000  0.941000  0.703000  0.5
  C  C1762  1  0.444000  0.059000  0.297000  0.5
  C  C1763  1  0.542000  0.930000  0.735000  0.5
  C  C1764  1  0.458000  0.070000  0.265000  0.5
  C  C1765  1  0.494000  0.944000  0.747000  0.5
  C  C1766  1  0.506000  0.056000  0.253000  0.5
  C  C1767  1  0.460000  0.969000  0.728000  0.5
  C  C1768  1  0.540000  0.031000  0.272000  0.5
  C  C1769  1  0.474000  0.980000  0.696000  0.5
  C  C1770  1  0.526000  0.020000  0.304000  0.5
  C  C1771  1  0.573000  0.177000  0.557100  0.5
  C  C1772  1  0.427000  0.823000  0.442900  0.5
  C  C1773  1  0.587000  0.171300  0.521600  0.5
  C  C1774  1  0.413000  0.828700  0.478400  0.5
  C  C1775  1  0.869000  0.579000  0.754800  0.5
  C  C1776  1  0.131000  0.421000  0.245200  0.5
  C  C1777  1  0.919000  0.572000  0.749000  0.5
  C  C1778  1  0.081000  0.428000  0.251000  0.5
  C  C1779  1  0.155000  0.548000  0.595000  0.5
  C  C1780  1  0.845000  0.452000  0.405000  0.5
  C  C1781  1  0.104000  0.561000  0.603000  0.5
  C  C1782  1  0.896000  0.439000  0.397000  0.5
  C  C1783  1  0.176000  0.780000  0.548000  0.5
  C  C1784  1  0.824000  0.220000  0.452000  0.5
  C  C1785  1  0.149000  0.766000  0.528500  0.5
  C  C1786  1  0.851000  0.234000  0.471500  0.5
  C  C1787  1  0.634000  0.064000  0.653100  0.5
  C  C1788  1  0.366000  0.936000  0.346900  0.5
  C  C1789  1  0.624500  0.033000  0.673100  0.5
  C  C1790  1  0.375500  0.967000  0.326900  0.5
  C  C1791  1  0.649000  0.014800  0.699400  0.5
  C  C1792  1  0.351000  0.985200  0.300600  0.5
  C  C1793  1  0.683300  0.028400  0.705600  0.5
  C  C1794  1  0.316700  0.971600  0.294400  0.5
  C  C1795  1  0.692900  0.060100  0.685600  0.5
  C  C1796  1  0.307100  0.939900  0.314400  0.5
  C  C1797  1  0.668000  0.078100  0.659300  0.5
  C  C1798  1  0.332000  0.921900  0.340700  0.5
  C  C1799  1  0.377000  0.545000  0.503100  0.5
  C  C1800  1  0.623000  0.455000  0.496900  0.5
  C  C1801  1  0.405000  0.567000  0.492000  0.5
  C  C1802  1  0.595000  0.433000  0.508000  0.5
  C  C1803  1  0.413000  0.575000  0.458000  0.5
  C  C1804  1  0.587000  0.425000  0.542000  0.5
  C  C1805  1  0.394000  0.561000  0.435900  0.5
  C  C1806  1  0.606000  0.439000  0.564100  0.5
  C  C1807  1  0.365000  0.538000  0.447000  0.5
  C  C1808  1  0.635000  0.462000  0.553000  0.5
  C  C1809  1  0.357000  0.531000  0.481000  0.5
  C  C1810  1  0.643000  0.469000  0.519000  0.5
  C  C1811  1  0.129300  0.118200  0.873500  0.5
  C  C1812  1  0.870700  0.881800  0.126500  0.5
  C  C1813  1  0.132200  0.101000  0.905200  0.5
  C  C1814  1  0.867800  0.899000  0.094800  0.5
  C  C1815  1  0.172000  0.063000  0.911100  0.5
  C  C1816  1  0.828000  0.937000  0.088900  0.5
  C  C1817  1  0.208400  0.042800  0.885400  0.5
  C  C1818  1  0.791600  0.957200  0.114600  0.5
  C  C1819  1  0.205600  0.060000  0.853800  0.5
  C  C1820  1  0.794400  0.940000  0.146200  0.5
  C  C1821  1  0.166000  0.098000  0.847800  0.5
  C  C1822  1  0.834000  0.902000  0.152200  0.5
  C  C1823  1  0.985900  0.711900  0.481200  0.5
  C  C1824  1  0.014100  0.288100  0.518800  0.5
  C  C1825  1  0.977200  0.876700  0.468400  0.5
  C  C1826  1  0.022800  0.123300  0.531600  0.5
  C  C1827  1  0.442200  0.163900  0.996400  0.5
  C  C1828  1  0.557800  0.836100  0.003600  0.5
  C  C1829  1  0.397500  0.187000  0.981300  0.5
  C  C1830  1  0.602500  0.813000  0.018700  0.5
  C  C1831  1  0.364700  0.164000  0.992000  0.5
  C  C1832  1  0.635300  0.836000  0.008000  0.5
  C  C1833  1  0.318800  0.186000  0.978800  0.5
  C  C1834  1  0.681200  0.814000  0.021200  0.5
  C  C1835  1  0.490000  0.184400  0.949200  0.5
  C  C1836  1  0.510000  0.815600  0.050800  0.5
  C  C1837  1  0.506000  0.143000  0.928600  0.5
  C  C1838  1  0.494000  0.857000  0.071400  0.5
  C  C1839  1  0.518000  0.150000  0.892800  0.5
  C  C1840  1  0.482000  0.850000  0.107200  0.5
  C  C1841  1  0.524000  0.114000  0.870700  0.5
  C  C1842  1  0.476000  0.886000  0.129300  0.5
  C  C1843  1  0.464900  0.226500  0.001400  0.5
  C  C1844  1  0.535100  0.773500  0.998600  0.5
  C  C1845  1  0.498000  0.249200  0.996200  0.5
  C  C1846  1  0.502000  0.750800  0.003800  0.5
  C  C1847  1  0.479000  0.295200  0.009000  0.5
  C  C1848  1  0.521000  0.704800  0.991000  0.5
  C  C1849  1  0.508000  0.321200  0.005600  0.5
  C  C1850  1  0.492000  0.678800  0.994400  0.5
  C  C1851  1  0.525000  0.148500  0.000700  0.5
  C  C1852  1  0.475000  0.851500  0.999300  0.5
  C  C1853  1  0.531000  0.158000  0.034900  0.5
  C  C1854  1  0.469000  0.842000  0.965100  0.5
  C  C1855  1  0.541000  0.118000  0.057600  0.5
  C  C1856  1  0.459000  0.882000  0.942400  0.5
  C  C1857  1  0.571000  0.115000  0.082800  0.5
  C  C1858  1  0.429000  0.885000  0.917200  0.5
  C  C1859  1  0.074000  0.553000  0.058500  0.51
  C  C1860  1  0.926000  0.447000  0.941500  0.51
  C  C1861  1  0.062000  0.553000  0.094000  0.51
  C  C1862  1  0.938000  0.447000  0.906000  0.51
  C  C1863  1  0.175800  0.428100  0.618000  0.59
  C  C1864  1  0.824200  0.571900  0.382000  0.59
  C  C1865  1  0.127900  0.436400  0.632900  0.59
  C  C1866  1  0.872100  0.563600  0.367100  0.59
  S  S1867  1  0.997900  0.754500  0.499900  0.5
  S  S1868  1  0.002100  0.245500  0.500100  0.5
  S  S1869  1  0.964300  0.830400  0.457600  0.5
  S  S1870  1  0.035700  0.169600  0.542400  0.5
  N  N1871  1  0.535700  0.722700  0.833000  1.0
  N  N1872  1  0.464300  0.277300  0.167000  1.0
  N  N1873  1  0.560200  0.636200  0.822500  1.0
  N  N1874  1  0.439800  0.363800  0.177500  1.0
  N  N1875  1  0.599400  0.315900  0.805900  1.0
  N  N1876  1  0.400600  0.684100  0.194100  1.0
  N  N1877  1  0.614100  0.231800  0.802100  1.0
  N  N1878  1  0.385900  0.768200  0.197900  1.0
  N  N1879  1  0.538400  0.282200  0.844900  1.0
  N  N1880  1  0.461600  0.717800  0.155100  1.0
  N  N1881  1  0.516300  0.258300  0.792600  1.0
  N  N1882  1  0.483700  0.741700  0.207400  1.0
  N  N1883  1  0.387100  0.237500  0.595600  1.0
  N  N1884  1  0.612900  0.762500  0.404400  1.0
  N  N1885  1  0.359900  0.240600  0.538400  1.0
  N  N1886  1  0.640100  0.759400  0.461600  1.0
  N  N1887  1  0.288700  0.264200  0.597000  1.0
  N  N1888  1  0.711300  0.735800  0.403000  1.0
  N  N1889  1  0.284600  0.329900  0.556300  1.0
  N  N1890  1  0.715400  0.670100  0.443700  1.0
  N  N1891  1  0.230100  0.605500  0.418100  1.0
  N  N1892  1  0.769900  0.394500  0.581900  1.0
  N  N1893  1  0.220000  0.673600  0.381700  1.0
  N  N1894  1  0.780000  0.326400  0.618300  1.0
  N  N1895  1  0.142000  0.685500  0.428100  1.0
  N  N1896  1  0.858000  0.314500  0.571900  1.0
  N  N1897  1  0.186200  0.732200  0.441400  1.0
  N  N1898  1  0.813800  0.267800  0.558600  1.0
  N  N1899  1  0.331300  0.914400  0.528800  1.0
  N  N1900  1  0.668700  0.085600  0.471200  1.0
  N  N1901  1  0.368300  0.962200  0.551800  1.0
  N  N1902  1  0.631700  0.037800  0.448200  1.0
  N  N1903  1  0.279200  0.977100  0.583600  1.0
  N  N1904  1  0.720800  0.022900  0.416400  1.0
  N  N1905  1  0.345100  0.934700  0.618900  1.0
  N  N1906  1  0.654900  0.065300  0.381100  1.0
  N  N1907  1  0.564500  0.735200  0.765300  1.0
  N  N1908  1  0.435500  0.264800  0.234700  1.0
  N  N1909  1  0.624800  0.679600  0.801400  1.0
  N  N1910  1  0.375200  0.320400  0.198600  1.0
  N  N1911  1  0.269700  0.817100  0.972900  1.0
  N  N1912  1  0.730300  0.182900  0.027100  1.0
  N  N1913  1  0.242100  0.751100  0.987800  1.0
  N  N1914  1  0.757900  0.248900  0.012200  1.0
  N  N1915  1  0.201500  0.458400  0.014300  1.0
  N  N1916  1  0.798500  0.541600  0.985700  1.0
  N  N1917  1  0.192100  0.384200  0.023500  1.0
  N  N1918  1  0.807900  0.615800  0.976500  1.0
  N  N1919  1  0.196900  0.834000  0.025700  1.0
  N  N1920  1  0.803100  0.166000  0.974300  1.0
  N  N1921  1  0.173800  0.878600  0.973000  1.0
  N  N1922  1  0.826200  0.121400  0.027000  1.0
  N  N1923  1  0.056400  0.037700  0.772600  1.0
  N  N1924  1  0.943600  0.962300  0.227400  1.0
  N  N1925  1  0.028900  0.064700  0.717100  1.0
  N  N1926  1  0.971100  0.935300  0.282900  1.0
  N  N1927  1  0.960500  0.107000  0.770300  1.0
  N  N1928  1  0.039500  0.893000  0.229700  1.0
  N  N1929  1  0.944100  0.051200  0.737400  1.0
  N  N1930  1  0.055900  0.948800  0.262600  1.0
  N  N1931  1  0.869700  0.842200  0.610100  1.0
  N  N1932  1  0.130300  0.157800  0.389900  1.0
  N  N1933  1  0.865500  0.781900  0.576300  1.0
  N  N1934  1  0.134500  0.218100  0.423700  1.0
  N  N1935  1  0.782800  0.827400  0.615800  1.0
  N  N1936  1  0.217200  0.172600  0.384200  1.0
  N  N1937  1  0.828300  0.745900  0.633200  1.0
  N  N1938  1  0.171700  0.254100  0.366800  1.0
  N  N1939  1  0.984300  0.429200  0.712100  1.0
  N  N1940  1  0.015700  0.570800  0.287900  1.0
  N  N1941  1  0.037200  0.348000  0.728400  1.0
  N  N1942  1  0.962800  0.652000  0.271600  1.0
  N  N1943  1  0.273300  0.375900  0.984400  1.0
  N  N1944  1  0.726700  0.624100  0.015600  1.0
  N  N1945  1  0.212100  0.366700  0.952100  1.0
  N  N1946  1  0.787900  0.633300  0.047900  1.0
  N  N1947  1  0.004300  0.364800  0.795900  1.0
  N  N1948  1  0.995700  0.635200  0.204100  1.0
  N  N1949  1  0.939900  0.376400  0.759100  1.0
  N  N1950  1  0.060100  0.623600  0.240900  1.0
  N  N1951  1  0.140700  0.810200  0.983100  1.0
  N  N1952  1  0.859300  0.189800  0.016900  1.0
  N  N1953  1  0.207700  0.795400  0.933200  1.0
  N  N1954  1  0.792300  0.204600  0.066800  1.0
  N  N1955  1  0.501900  0.690400  0.778800  1.0
  N  N1956  1  0.498100  0.309600  0.221200  1.0
  N  N1957  1  0.589500  0.644600  0.750100  1.0
  N  N1958  1  0.410500  0.355400  0.249900  1.0
  N  N1959  1  0.133300  0.452400  0.978500  1.0
  N  N1960  1  0.866700  0.547600  0.021500  1.0
  N  N1961  1  0.212600  0.450100  0.943700  1.0
  N  N1962  1  0.787400  0.549900  0.056300  1.0
  N  N1963  1  0.505300  0.347100  0.790200  1.0
  N  N1964  1  0.494700  0.652900  0.209800  1.0
  N  N1965  1  0.576100  0.294900  0.746500  1.0
  N  N1966  1  0.423900  0.705100  0.253500  1.0
  N  N1967  1  0.946100  0.453600  0.784100  1.0
  N  N1968  1  0.053900  0.546400  0.215900  1.0
  N  N1969  1  0.035200  0.429100  0.759600  1.0
  N  N1970  1  0.964800  0.570900  0.240400  1.0
  N  N1971  1  0.324600  0.333900  0.611100  1.0
  N  N1972  1  0.675400  0.666100  0.388900  1.0
  N  N1973  1  0.386900  0.311100  0.557300  1.0
  N  N1974  1  0.613100  0.688900  0.442700  1.0
  N  N1975  1  0.833700  0.808100  0.675600  1.0
  N  N1976  1  0.166300  0.191900  0.324400  1.0
  N  N1977  1  0.912700  0.759700  0.637600  1.0
  N  N1978  1  0.087300  0.240300  0.362400  1.0
  N  N1979  1  0.207700  0.657500  0.479200  1.0
  N  N1980  1  0.792300  0.342500  0.520800  1.0
  N  N1981  1  0.279400  0.652400  0.434200  1.0
  N  N1982  1  0.720600  0.347600  0.565800  1.0
  N  N1983  1  0.970900  0.016700  0.797400  1.0
  N  N1984  1  0.029100  0.983300  0.202600  1.0
  N  N1985  1  0.030500  0.977500  0.746100  1.0
  N  N1986  1  0.969500  0.022500  0.253900  1.0
  N  N1987  1  0.316200  0.877200  0.591400  1.0
  N  N1988  1  0.683800  0.122800  0.408600  1.0
  N  N1989  1  0.401500  0.864600  0.565900  1.0
  N  N1990  1  0.598500  0.135400  0.434100  1.0
  N  N1991  1  0.365000  0.275000  0.330500  1.0
  N  N1992  1  0.635000  0.725000  0.669500  1.0
  N  N1993  1  0.268500  0.367200  0.774200  1.0
  N  N1994  1  0.731500  0.632800  0.225800  1.0
  N  N1995  1  0.838100  0.670900  0.333600  1.0
  N  N1996  1  0.161900  0.329100  0.666400  1.0
  N  N1997  1  0.957300  0.025300  0.966400  1.0
  N  N1998  1  0.042700  0.974700  0.033600  1.0
  N  N1999  1  0.720800  0.704200  0.728100  1.0
  N  N2000  1  0.279200  0.295800  0.271900  1.0
  N  N2001  1  0.996000  0.816000  0.602700  1.0
  N  N2002  1  0.004000  0.184000  0.397300  1.0
  N  N2003  1  0.264700  0.376500  0.868800  1.0
  N  N2004  1  0.735300  0.623500  0.131200  1.0
  N  N2005  1  0.215000  0.953000  0.718600  1.0
  N  N2006  1  0.785000  0.047000  0.281400  1.0
  N  N2007  1  0.095000  0.461100  0.663300  0.41
  N  N2008  1  0.905000  0.538900  0.336700  0.41
  N  N2009  1  0.106300  0.618000  0.967500  0.49
  N  N2010  1  0.893700  0.382000  0.032500  0.49
  N  N2011  1  0.178000  0.517000  0.774000  0.5
  N  N2012  1  0.822000  0.483000  0.226000  0.5
  N  N2013  1  0.514000  0.086000  0.769000  0.5
  N  N2014  1  0.486000  0.914000  0.231000  0.5
  N  N2015  1  0.568000  0.171000  0.585600  0.5
  N  N2016  1  0.432000  0.829000  0.414400  0.5
  N  N2017  1  0.830000  0.594000  0.768900  0.5
  N  N2018  1  0.170000  0.406000  0.231100  0.5
  N  N2019  1  0.196000  0.528000  0.590000  0.5
  N  N2020  1  0.804000  0.472000  0.410000  0.5
  N  N2021  1  0.191000  0.792000  0.567900  0.5
  N  N2022  1  0.809000  0.208000  0.432100  0.5
  N  N2023  1  0.959100  0.801600  0.490300  0.5
  N  N2024  1  0.040900  0.198400  0.509700  0.5
  N  N2025  1  0.481200  0.180300  0.986600  0.5
  N  N2026  1  0.518800  0.819700  0.013400  0.5
  N  N2027  1  0.085000  0.557000  0.030600  0.51
  N  N2028  1  0.915000  0.443000  0.969400  0.51
  N  N2029  1  0.211000  0.428000  0.603400  0.59
  N  N2030  1  0.789000  0.572000  0.396600  0.59
  O  O2031  1  0.981600  0.750400  0.534500  0.5
  O  O2032  1  0.018400  0.249600  0.465500  0.5
  O  O2033  1  0.047200  0.741700  0.491600  0.5
  O  O2034  1  0.952800  0.258300  0.508400  0.5
  O  O2035  1  0.006600  0.801300  0.436400  0.5
  O  O2036  1  0.993400  0.198700  0.563600  0.5
  O  O2037  1  0.924200  0.850600  0.441000  0.5
  O  O2038  1  0.075800  0.149400  0.559000  0.5
  F  F2039  1  0.438900  0.360100  0.667500  0.333
  F  F2040  1  0.561100  0.639900  0.332500  0.333
  F  F2041  1  0.514600  0.261000  0.644900  0.333
  F  F2042  1  0.485400  0.739000  0.355100  0.333
  F  F2043  1  0.434900  0.292600  0.661000  0.333
  F  F2044  1  0.565100  0.707400  0.339000  0.333
  F  F2045  1  0.482000  0.298900  0.694800  0.333
  F  F2046  1  0.518000  0.701100  0.305200  0.333
  F  F2047  1  0.471000  0.319000  0.618000  0.333
  F  F2048  1  0.529000  0.681000  0.382000  0.333
  F  F2049  1  0.518500  0.327000  0.652000  0.333
  F  F2050  1  0.481500  0.673000  0.348000  0.333
  F  F2051  1  0.223300  0.106700  0.658700  0.669
  F  F2052  1  0.776700  0.893300  0.341300  0.669
  F  F2053  1  0.114500  0.124200  0.664700  0.669
  F  F2054  1  0.885500  0.875800  0.335300  0.669
  F  F2055  1  0.152700  0.134200  0.701400  0.669
  F  F2056  1  0.847300  0.865800  0.298600  0.669
  F  F2057  1  0.180100  0.069200  0.676300  0.669
  F  F2058  1  0.819900  0.930800  0.323700  0.669
  F  F2059  1  0.180100  0.098900  0.624600  0.669
  F  F2060  1  0.819900  0.901100  0.375400  0.669
  F  F2061  1  0.155200  0.165100  0.648700  0.669
  F  F2062  1  0.844800  0.834900  0.351300  0.669
  F  F2063  1  0.657600  0.506100  0.806400  1.0
  F  F2064  1  0.342400  0.493900  0.193600  1.0
  F  F2065  1  0.682000  0.419900  0.795500  1.0
  F  F2066  1  0.318000  0.580100  0.204500  1.0
  F  F2067  1  0.533500  0.432900  0.851100  1.0
  F  F2068  1  0.466500  0.567100  0.148900  1.0
  F  F2069  1  0.510100  0.519700  0.863400  1.0
  F  F2070  1  0.489900  0.480300  0.136600  1.0
  F  F2071  1  0.495800  0.900500  0.844900  1.0
  F  F2072  1  0.504200  0.099500  0.155100  1.0
  F  F2073  1  0.625100  0.060400  0.797000  1.0
  F  F2074  1  0.374900  0.939600  0.203000  1.0
  F  F2075  1  0.546400  0.174300  0.712500  1.0
  F  F2076  1  0.453600  0.825700  0.287500  1.0
  F  F2077  1  0.525400  0.163400  0.653100  1.0
  F  F2078  1  0.474600  0.836600  0.346900  1.0
  F  F2079  1  0.362900  0.243000  0.694200  1.0
  F  F2080  1  0.637100  0.757000  0.305800  1.0
  F  F2081  1  0.384300  0.253100  0.752200  1.0
  F  F2082  1  0.615700  0.746900  0.247800  1.0
  F  F2083  1  0.603600  0.327700  0.947900  1.0
  F  F2084  1  0.396400  0.672300  0.052100  1.0
  F  F2085  1  0.313800  0.276200  0.412900  1.0
  F  F2086  1  0.686200  0.723800  0.587100  1.0
  F  F2087  1  0.318100  0.378300  0.467800  1.0
  F  F2088  1  0.681900  0.621700  0.532200  1.0
  F  F2089  1  0.318500  0.442300  0.425300  1.0
  F  F2090  1  0.681500  0.557700  0.574700  1.0
  F  F2091  1  0.172200  0.542000  0.482600  1.0
  F  F2092  1  0.827800  0.458000  0.517400  1.0
  F  F2093  1  0.172100  0.479400  0.526700  1.0
  F  F2094  1  0.827900  0.520600  0.473300  1.0
  F  F2095  1  0.313700  0.110200  0.667200  1.0
  F  F2096  1  0.686300  0.889800  0.332800  1.0
  F  F2097  1  0.179400  0.838200  0.325200  1.0
  F  F2098  1  0.820600  0.161800  0.674800  1.0
  F  F2099  1  0.276600  0.796300  0.413300  1.0
  F  F2100  1  0.723400  0.203700  0.586700  1.0
  F  F2101  1  0.326100  0.839600  0.428100  1.0
  F  F2102  1  0.673900  0.160400  0.571900  1.0
  F  F2103  1  0.215600  0.894700  0.526600  1.0
  F  F2104  1  0.784400  0.105300  0.473400  1.0
  F  F2105  1  0.164900  0.853700  0.509400  1.0
  F  F2106  1  0.835100  0.146300  0.490600  1.0
  F  F2107  1  0.057700  0.580800  0.394100  1.0
  F  F2108  1  0.942300  0.419200  0.605900  1.0
  F  F2109  1  0.427500  0.065000  0.618000  1.0
  F  F2110  1  0.572500  0.935000  0.382000  1.0
  F  F2111  1  0.478400  0.897600  0.641600  1.0
  F  F2112  1  0.521600  0.102400  0.358400  1.0
  F  F2113  1  0.548400  0.841200  0.672200  1.0
  F  F2114  1  0.451600  0.158800  0.327800  1.0
  F  F2115  1  0.436700  0.831500  0.761000  1.0
  F  F2116  1  0.563300  0.168500  0.239000  1.0
  F  F2117  1  0.367100  0.889400  0.731400  1.0
  F  F2118  1  0.632900  0.110600  0.268600  1.0
  F  F2119  1  0.160500  0.056700  0.492400  1.0
  F  F2120  1  0.839500  0.943300  0.507600  1.0
  F  F2121  1  0.726500  0.564100  0.890700  1.0
  F  F2122  1  0.273500  0.435900  0.109300  1.0
  F  F2123  1  0.174900  0.680900  0.044500  1.0
  F  F2124  1  0.825100  0.319100  0.955500  1.0
  F  F2125  1  0.153200  0.610100  0.060100  1.0
  F  F2126  1  0.846800  0.389900  0.939900  1.0
  F  F2127  1  0.283800  0.521800  0.982800  1.0
  F  F2128  1  0.716200  0.478200  0.017200  1.0
  F  F2129  1  0.309200  0.589700  0.971400  1.0
  F  F2130  1  0.690800  0.410300  0.028600  1.0
  F  F2131  1  0.303500  0.968000  0.949500  1.0
  F  F2132  1  0.696500  0.032000  0.050500  1.0
  F  F2133  1  0.191800  0.216900  0.028400  1.0
  F  F2134  1  0.808200  0.783100  0.971600  1.0
  F  F2135  1  0.063400  0.022000  0.931900  1.0
  F  F2136  1  0.936600  0.978000  0.068100  1.0
  F  F2137  1  0.044500  0.057300  0.873100  1.0
  F  F2138  1  0.955500  0.942700  0.126900  1.0
  F  F2139  1  0.193900  0.952100  0.823100  1.0
  F  F2140  1  0.806100  0.047900  0.176900  1.0
  F  F2141  1  0.211600  0.915800  0.881300  1.0
  F  F2142  1  0.788400  0.084200  0.118700  1.0
  F  F2143  1  0.259400  0.718900  0.127000  1.0
  F  F2144  1  0.740600  0.281100  0.873000  1.0
  F  F2145  1  0.941400  0.130900  0.607900  1.0
  F  F2146  1  0.058600  0.869100  0.392100  1.0
  F  F2147  1  0.815000  0.019200  0.704900  1.0
  F  F2148  1  0.185000  0.980800  0.295100  1.0
  F  F2149  1  0.809700  0.958800  0.667200  1.0
  F  F2150  1  0.190300  0.041200  0.332800  1.0
  F  F2151  1  0.965800  0.922200  0.614100  1.0
  F  F2152  1  0.034200  0.077800  0.385900  1.0
  F  F2153  1  0.974800  0.977200  0.655100  1.0
  F  F2154  1  0.025200  0.022800  0.344900  1.0
  F  F2155  1  0.027700  0.208500  0.831200  1.0
  F  F2156  1  0.972300  0.791500  0.168800  1.0
  F  F2157  1  0.849800  0.650700  0.507600  1.0
  F  F2158  1  0.150200  0.349300  0.492400  1.0
  F  F2159  1  0.805700  0.615000  0.685900  1.0
  F  F2160  1  0.194300  0.385000  0.314100  1.0
  F  F2161  1  0.861600  0.530300  0.699400  1.0
  F  F2162  1  0.138400  0.469700  0.300600  1.0
  F  F2163  1  0.990200  0.543400  0.630100  1.0
  F  F2164  1  0.009800  0.456600  0.369900  1.0
  F  F2165  1  0.934600  0.627800  0.616700  1.0
  F  F2166  1  0.065400  0.372200  0.383300  1.0
  F  F2167  1  0.706200  0.004400  0.581500  1.0
  F  F2168  1  0.293800  0.995600  0.418500  1.0
  F  F2169  1  0.126600  0.173300  0.766100  1.0
  F  F2170  1  0.873400  0.826700  0.233900  1.0
  F  F2171  1  0.097100  0.338700  0.946800  1.0
  F  F2172  1  0.902900  0.661300  0.053200  1.0
  F  F2173  1  0.029500  0.341300  0.913000  1.0
  F  F2174  1  0.970500  0.658700  0.087000  1.0
  F  F2175  1  0.136500  0.320300  0.813600  1.0
  F  F2176  1  0.863500  0.679700  0.186400  1.0
  F  F2177  1  0.204200  0.314100  0.847400  1.0
  F  F2178  1  0.795800  0.685900  0.152600  1.0
  F  F2179  1  0.389900  0.401000  0.060400  1.0
  F  F2180  1  0.610100  0.599000  0.939600  1.0
  F  F2181  1  0.780900  0.436900  0.699200  1.0
  F  F2182  1  0.219100  0.563100  0.300800  1.0
  F  F2183  1  0.296800  0.824500  0.858100  1.0
  F  F2184  1  0.703200  0.175500  0.141900  1.0
  F  F2185  1  0.377100  0.795400  0.816400  1.0
  F  F2186  1  0.622900  0.204600  0.183600  1.0
  F  F2187  1  0.360300  0.662100  0.799500  1.0
  F  F2188  1  0.639700  0.337900  0.200500  1.0
  F  F2189  1  0.279400  0.691500  0.841700  1.0
  F  F2190  1  0.720600  0.308500  0.158300  1.0
  F  F2191  1  0.997300  0.840700  0.087900  1.0
  F  F2192  1  0.002700  0.159300  0.912100  1.0
  F  F2193  1  0.773400  0.521700  0.716700  1.0
  F  F2194  1  0.226600  0.478300  0.283300  1.0
  F  F2195  1  0.344400  0.455300  0.914500  1.0
  F  F2196  1  0.655600  0.544700  0.085500  1.0
  F  F2197  1  0.425300  0.427300  0.872700  1.0
  F  F2198  1  0.574700  0.572700  0.127300  1.0
  F  F2199  1  0.342300  0.436700  0.784500  1.0
  F  F2200  1  0.657700  0.563300  0.215500  1.0
  F  F2201  1  0.261300  0.464700  0.826600  1.0
  F  F2202  1  0.738700  0.535300  0.173400  1.0
  F  F2203  1  0.976900  0.432900  0.047400  1.0
  F  F2204  1  0.023100  0.567100  0.952600  1.0
  F  F2205  1  0.707600  0.165600  0.660000  1.0
  F  F2206  1  0.292400  0.834400  0.340000  1.0
  F  F2207  1  0.177400  0.349100  0.745100  1.0
  F  F2208  1  0.822600  0.650900  0.254900  1.0
  F  F2209  1  0.256800  0.321700  0.703400  1.0
  F  F2210  1  0.743200  0.678300  0.296600  1.0
  F  F2211  1  0.219600  0.471300  0.668500  1.0
  F  F2212  1  0.780400  0.528700  0.331500  1.0
  F  F2213  1  0.138800  0.498500  0.711200  1.0
  F  F2214  1  0.861200  0.501500  0.288800  1.0
  F  F2215  1  0.765600  0.477600  0.840500  1.0
  F  F2216  1  0.234400  0.522400  0.159500  1.0
  F  F2217  1  0.519900  0.270200  0.444400  1.0
  F  F2218  1  0.480100  0.729800  0.555600  1.0
  F  F2219  1  0.074800  0.733100  0.635400  1.0
  F  F2220  1  0.925200  0.266900  0.364600  1.0
  F  F2221  1  0.152900  0.707900  0.593000  1.0
  F  F2222  1  0.847100  0.292100  0.407000  1.0
  F  F2223  1  0.094400  0.632800  0.529000  1.0
  F  F2224  1  0.905600  0.367200  0.471000  1.0
  F  F2225  1  0.014200  0.660200  0.572000  1.0
  F  F2226  1  0.985800  0.339800  0.428000  1.0
  F  F2227  1  0.671600  0.929400  0.748800  1.0
  F  F2228  1  0.328400  0.070600  0.251200  1.0
  F  F2229  1  0.428400  0.642200  0.338400  1.0
  F  F2230  1  0.571600  0.357800  0.661600  1.0
  F  F2231  1  0.169900  0.840200  0.727000  1.0
  F  F2232  1  0.830100  0.159800  0.273000  1.0
  F  F2233  1  0.250200  0.812200  0.684100  1.0
  F  F2234  1  0.749800  0.187800  0.315900  1.0
  F  F2235  1  0.169800  0.912200  0.604600  1.0
  F  F2236  1  0.830200  0.087800  0.395400  1.0
  F  F2237  1  0.089700  0.940300  0.648200  1.0
  F  F2238  1  0.910300  0.059700  0.351800  1.0
  F  F2239  1  0.872400  0.116800  0.910000  1.0
  F  F2240  1  0.127600  0.883200  0.090000  1.0
  F  F2241  1  0.579300  0.858200  0.523100  1.0
  F  F2242  1  0.420700  0.141800  0.476900  1.0
  F  F2243  1  0.116000  0.433800  0.886900  1.0
  F  F2244  1  0.884000  0.566200  0.113100  1.0
  F  F2245  1  0.044600  0.431200  0.900600  1.0
  F  F2246  1  0.955400  0.568800  0.099400  1.0
  F  F2247  1  0.078900  0.424900  0.845800  1.0
  F  F2248  1  0.921100  0.575100  0.154200  1.0
  F  F2249  1  0.056100  0.498900  0.901800  1.0
  F  F2250  1  0.943900  0.501100  0.098200  1.0
  F  F2251  1  0.017300  0.488500  0.863100  1.0
  F  F2252  1  0.982700  0.511500  0.136900  1.0
  F  F2253  1  0.089500  0.487600  0.848500  1.0
  F  F2254  1  0.910500  0.512400  0.151500  1.0
  F  F2255  1  0.060900  0.874800  0.907900  1.0
  F  F2256  1  0.939100  0.125200  0.092100  1.0
  F  F2257  1  0.072000  0.932100  0.844400  1.0
  F  F2258  1  0.928000  0.067900  0.155600  1.0
  F  F2259  1  0.017200  0.912800  0.867800  1.0
  F  F2260  1  0.982800  0.087200  0.132200  1.0
  F  F2261  1  0.085500  0.859600  0.853500  1.0
  F  F2262  1  0.914500  0.140400  0.146500  1.0
  F  F2263  1  0.118400  0.889900  0.881900  1.0
  F  F2264  1  0.881600  0.110100  0.118100  1.0
  F  F2265  1  0.046300  0.946800  0.896800  1.0
  F  F2266  1  0.953700  0.053200  0.103200  1.0
  F  F2267  1  0.603300  0.155900  0.911200  1.0
  F  F2268  1  0.396700  0.844100  0.088800  1.0
  F  F2269  1  0.641700  0.170700  0.950300  1.0
  F  F2270  1  0.358300  0.829300  0.049700  1.0
  F  F2271  1  0.673800  0.158500  0.895600  1.0
  F  F2272  1  0.326200  0.841500  0.104400  1.0
  F  F2273  1  0.667900  0.091400  0.896900  1.0
  F  F2274  1  0.332100  0.908600  0.103100  1.0
  F  F2275  1  0.704200  0.106700  0.935500  1.0
  F  F2276  1  0.295800  0.893300  0.064500  1.0
  F  F2277  1  0.633400  0.104500  0.951800  1.0
  F  F2278  1  0.366600  0.895500  0.048200  1.0
  F  F2279  1  0.880700  0.304900  0.699200  1.0
  F  F2280  1  0.119300  0.695100  0.300800  1.0
  F  F2281  1  0.907700  0.231300  0.716000  1.0
  F  F2282  1  0.092300  0.768700  0.284000  1.0
  F  F2283  1  0.930600  0.251800  0.665000  1.0
  F  F2284  1  0.069400  0.748200  0.335000  1.0
  F  F2285  1  0.981100  0.226400  0.702500  1.0
  F  F2286  1  0.018900  0.773600  0.297500  1.0
  F  F2287  1  0.954800  0.298700  0.686600  1.0
  F  F2288  1  0.045200  0.701300  0.313400  1.0
  F  F2289  1  0.933800  0.278800  0.737300  1.0
  F  F2290  1  0.066200  0.721200  0.262700  1.0
  F  F2291  1  0.275400  0.125800  0.546100  1.0
  F  F2292  1  0.724600  0.874200  0.453900  1.0
  F  F2293  1  0.312400  0.092400  0.499400  1.0
  F  F2294  1  0.687600  0.907600  0.500600  1.0
  F  F2295  1  0.238400  0.145600  0.499400  1.0
  F  F2296  1  0.761600  0.854400  0.500600  1.0
  F  F2297  1  0.298500  0.162600  0.476700  1.0
  F  F2298  1  0.701500  0.837400  0.523300  1.0
  F  F2299  1  0.331200  0.143600  0.523800  1.0
  F  F2300  1  0.668800  0.856400  0.476200  1.0
  F  F2301  1  0.253200  0.194800  0.526100  1.0
  F  F2302  1  0.746800  0.805200  0.473900  1.0
  F  F2303  1  0.305900  0.282500  0.089700  1.0
  F  F2304  1  0.694100  0.717500  0.910300  1.0
  F  F2305  1  0.385800  0.257200  0.084000  1.0
  F  F2306  1  0.614200  0.742800  0.916000  1.0
  F  F2307  1  0.350700  0.226500  0.123600  1.0
  F  F2308  1  0.649300  0.773500  0.876400  1.0
  F  F2309  1  0.349900  0.242600  0.045100  1.0
  F  F2310  1  0.650100  0.757400  0.954900  1.0
  F  F2311  1  0.316100  0.209400  0.086600  1.0
  F  F2312  1  0.683900  0.790600  0.913400  1.0
  F  F2313  1  0.394400  0.187100  0.078000  1.0
  F  F2314  1  0.605600  0.812900  0.922000  1.0
  F  F2315  1  0.436000  0.928100  0.452300  1.0
  F  F2316  1  0.564000  0.071900  0.547700  1.0
  F  F2317  1  0.457500  0.007600  0.415500  1.0
  F  F2318  1  0.542500  0.992400  0.584500  1.0
  F  F2319  1  0.394000  0.988600  0.421500  1.0
  F  F2320  1  0.606000  0.011400  0.578500  1.0
  F  F2321  1  0.498500  0.941400  0.440900  1.0
  F  F2322  1  0.501500  0.058600  0.559100  1.0
  F  F2323  1  0.465100  0.937900  0.396600  1.0
  F  F2324  1  0.534900  0.062100  0.603400  1.0
  F  F2325  1  0.427600  0.992800  0.465500  1.0
  F  F2326  1  0.572400  0.007200  0.534500  1.0
  F  F2327  1  0.462000  0.298400  0.923800  1.0
  F  F2328  1  0.538000  0.701600  0.076200  1.0
  F  F2329  1  0.407100  0.279000  0.906400  1.0
  F  F2330  1  0.592900  0.721000  0.093600  1.0
  F  F2331  1  0.397400  0.310000  0.955800  1.0
  F  F2332  1  0.602600  0.690000  0.044200  1.0
  F  F2333  1  0.358700  0.355200  0.915600  1.0
  F  F2334  1  0.641300  0.644800  0.084400  1.0
  F  F2335  1  0.422600  0.336100  0.882600  1.0
  F  F2336  1  0.577400  0.663900  0.117400  1.0
  F  F2337  1  0.417200  0.364700  0.932100  1.0
  F  F2338  1  0.582800  0.635300  0.067900  1.0
  F  F2339  1  0.279500  0.739200  0.496100  1.0
  F  F2340  1  0.720500  0.260800  0.503900  1.0
  F  F2341  1  0.352800  0.684700  0.498700  1.0
  F  F2342  1  0.647200  0.315300  0.501300  1.0
  F  F2343  1  0.305100  0.721900  0.549600  1.0
  F  F2344  1  0.694900  0.278100  0.450400  1.0
  F  F2345  1  0.341400  0.753000  0.476000  1.0
  F  F2346  1  0.658600  0.247000  0.524000  1.0
  F  F2347  1  0.301000  0.791300  0.519100  1.0
  F  F2348  1  0.699000  0.208700  0.480900  1.0
  F  F2349  1  0.374600  0.738600  0.518800  1.0
  F  F2350  1  0.625400  0.261400  0.481200  1.0
  F  F2351  1  0.315700  0.193000  0.894800  1.0
  F  F2352  1  0.684300  0.807000  0.105200  1.0
  F  F2353  1  0.369800  0.215500  0.881700  1.0
  F  F2354  1  0.630200  0.784500  0.118300  1.0
  F  F2355  1  0.350300  0.203400  0.834700  1.0
  F  F2356  1  0.649700  0.796600  0.165300  1.0
  F  F2357  1  0.413300  0.156800  0.846200  1.0
  F  F2358  1  0.586700  0.843200  0.153800  1.0
  F  F2359  1  0.357300  0.135600  0.850800  1.0
  F  F2360  1  0.642700  0.864400  0.149200  1.0
  F  F2361  1  0.387300  0.144900  0.896100  1.0
  F  F2362  1  0.612700  0.855100  0.103900  1.0
  F  F2363  1  0.739100  0.217000  0.774700  1.0
  F  F2364  1  0.260900  0.783000  0.225300  1.0
  F  F2365  1  0.815500  0.205900  0.752900  1.0
  F  F2366  1  0.184500  0.794100  0.247100  1.0
  F  F2367  1  0.815100  0.143400  0.786900  1.0
  F  F2368  1  0.184900  0.856600  0.213100  1.0
  F  F2369  1  0.838400  0.190100  0.802100  1.0
  F  F2370  1  0.161600  0.809900  0.197900  1.0
  F  F2371  1  0.772900  0.251100  0.795300  1.0
  F  F2372  1  0.227100  0.748900  0.204700  1.0
  F  F2373  1  0.766500  0.193100  0.822800  1.0
  F  F2374  1  0.233500  0.806900  0.177200  1.0
  F  F2375  1  0.866100  0.626200  0.829700  1.0
  F  F2376  1  0.133900  0.373800  0.170300  1.0
  F  F2377  1  0.873500  0.553800  0.837900  1.0
  F  F2378  1  0.126500  0.446200  0.162100  1.0
  F  F2379  1  0.891200  0.552700  0.887000  1.0
  F  F2380  1  0.108800  0.447300  0.113000  1.0
  F  F2381  1  0.819400  0.607500  0.868400  1.0
  F  F2382  1  0.180600  0.392500  0.131600  1.0
  F  F2383  1  0.932300  0.567200  0.841300  1.0
  F  F2384  1  0.067700  0.432800  0.158700  1.0
  F  F2385  1  0.885600  0.629600  0.873700  1.0
  F  F2386  1  0.114400  0.370400  0.126300  1.0
  F  F2387  1  0.535000  0.477700  0.773700  0.25
  F  F2388  1  0.465000  0.522300  0.226300  0.25
  F  F2389  1  0.606900  0.474300  0.744800  0.25
  F  F2390  1  0.393100  0.525700  0.255200  0.25
  F  F2391  1  0.496000  0.524000  0.740300  0.25
  F  F2392  1  0.504000  0.476000  0.259700  0.25
  F  F2393  1  0.547700  0.542800  0.764500  0.25
  F  F2394  1  0.452300  0.457200  0.235500  0.25
  F  F2395  1  0.562000  0.461800  0.717500  0.25
  F  F2396  1  0.438000  0.538200  0.282500  0.25
  F  F2397  1  0.564000  0.525600  0.708300  0.25
  F  F2398  1  0.436000  0.474400  0.291700  0.25
  F  F2399  1  0.298000  0.522300  0.559800  0.25
  F  F2400  1  0.702000  0.477700  0.440200  0.25
  F  F2401  1  0.277000  0.498000  0.519000  0.25
  F  F2402  1  0.723000  0.502000  0.481000  0.25
  F  F2403  1  0.361000  0.458000  0.559800  0.25
  F  F2404  1  0.639000  0.542000  0.440200  0.25
  F  F2405  1  0.289000  0.459000  0.565400  0.25
  F  F2406  1  0.711000  0.541000  0.434600  0.25
  F  F2407  1  0.348000  0.497000  0.513600  0.25
  F  F2408  1  0.652000  0.503000  0.486400  0.25
  F  F2409  1  0.340000  0.434000  0.519000  0.25
  F  F2410  1  0.660000  0.566000  0.481000  0.25
  F  F2411  1  0.943000  0.597000  0.759500  0.25
  F  F2412  1  0.057000  0.403000  0.240500  0.25
  F  F2413  1  0.910100  0.653400  0.725800  0.25
  F  F2414  1  0.089900  0.346600  0.274200  0.25
  F  F2415  1  0.010300  0.573300  0.722800  0.25
  F  F2416  1  0.989700  0.426700  0.277200  0.25
  F  F2417  1  0.940000  0.585000  0.706900  0.25
  F  F2418  1  0.060000  0.415000  0.293100  0.25
  F  F2419  1  0.978000  0.643000  0.741800  0.25
  F  F2420  1  0.022000  0.357000  0.258200  0.25
  F  F2421  1  0.977000  0.629000  0.689000  0.25
  F  F2422  1  0.023000  0.371000  0.311000  0.25
  F  F2423  1  0.120000  0.651000  0.954800  0.25
  F  F2424  1  0.880000  0.349000  0.045200  0.25
  F  F2425  1  0.171000  0.636000  0.907900  0.25
  F  F2426  1  0.829000  0.364000  0.092100  0.25
  F  F2427  1  0.148000  0.698000  0.969800  0.25
  F  F2428  1  0.852000  0.302000  0.030200  0.25
  F  F2429  1  0.198000  0.625600  0.955100  0.25
  F  F2430  1  0.802000  0.374400  0.044900  0.25
  F  F2431  1  0.122000  0.706000  0.921900  0.25
  F  F2432  1  0.878000  0.294000  0.078100  0.25
  F  F2433  1  0.200000  0.682000  0.922800  0.25
  F  F2434  1  0.800000  0.318000  0.077200  0.25
  F  F2435  1  0.176700  0.048400  0.616200  0.331
  F  F2436  1  0.823300  0.951600  0.383800  0.331
  F  F2437  1  0.121100  0.005600  0.668900  0.331
  F  F2438  1  0.878900  0.994400  0.331100  0.331
  F  F2439  1  0.173600  0.031300  0.674200  0.331
  F  F2440  1  0.826400  0.968700  0.325800  0.331
  F  F2441  1  0.187900  0.981300  0.635300  0.331
  F  F2442  1  0.812100  0.018700  0.364700  0.331
  F  F2443  1  0.121000  0.025800  0.613300  0.331
  F  F2444  1  0.879000  0.974200  0.386700  0.331
  F  F2445  1  0.105100  0.075300  0.651700  0.331
  F  F2446  1  0.894900  0.924700  0.348300  0.331
  F  F2447  1  0.396800  0.717300  0.947400  0.375
  F  F2448  1  0.603200  0.282700  0.052600  0.375
  F  F2449  1  0.385800  0.790800  0.932200  0.375
  F  F2450  1  0.614200  0.209200  0.067800  0.375
  F  F2451  1  0.420500  0.766200  0.880600  0.375
  F  F2452  1  0.579500  0.233800  0.119400  0.375
  F  F2453  1  0.460700  0.736900  0.922600  0.375
  F  F2454  1  0.539300  0.263100  0.077400  0.375
  F  F2455  1  0.360000  0.750600  0.903700  0.375
  F  F2456  1  0.640000  0.249400  0.096300  0.375
  F  F2457  1  0.425100  0.696700  0.893600  0.375
  F  F2458  1  0.574900  0.303300  0.106400  0.375
  F  F2459  1  0.429500  0.715800  0.924100  0.375
  F  F2460  1  0.570500  0.284200  0.075900  0.375
  F  F2461  1  0.395000  0.787400  0.948900  0.375
  F  F2462  1  0.605000  0.212600  0.051100  0.375
  F  F2463  1  0.391800  0.817700  0.898600  0.375
  F  F2464  1  0.608200  0.182300  0.101400  0.375
  F  F2465  1  0.462000  0.770600  0.911500  0.375
  F  F2466  1  0.538000  0.229400  0.088500  0.375
  F  F2467  1  0.360300  0.768600  0.911600  0.375
  F  F2468  1  0.639700  0.231400  0.088400  0.375
  F  F2469  1  0.418500  0.749400  0.874400  0.375
  F  F2470  1  0.581500  0.250600  0.125600  0.375
  F  F2471  1  0.407600  0.739200  0.669100  0.413
  F  F2472  1  0.592400  0.260800  0.330900  0.413
  F  F2473  1  0.449000  0.760000  0.700000  0.413
  F  F2474  1  0.551000  0.240000  0.300000  0.413
  F  F2475  1  0.496400  0.764700  0.648600  0.413
  F  F2476  1  0.503600  0.235300  0.351400  0.413
  F  F2477  1  0.448000  0.746500  0.624100  0.413
  F  F2478  1  0.552000  0.253500  0.375900  0.413
  F  F2479  1  0.417000  0.802200  0.652600  0.413
  F  F2480  1  0.583000  0.197800  0.347400  0.413
  F  F2481  1  0.487100  0.701600  0.664800  0.413
  F  F2482  1  0.512900  0.298400  0.335200  0.413
  F  F2483  1  0.957000  0.902800  0.709600  0.5
  F  F2484  1  0.043000  0.097200  0.290400  0.5
  F  F2485  1  0.915800  0.830900  0.735800  0.5
  F  F2486  1  0.084200  0.169100  0.264200  0.5
  F  F2487  1  0.919200  0.863200  0.689400  0.5
  F  F2488  1  0.080800  0.136800  0.310600  0.5
  F  F2489  1  0.988900  0.828300  0.718200  0.5
  F  F2490  1  0.011100  0.171700  0.281800  0.5
  F  F2491  1  0.934000  0.879100  0.760900  0.5
  F  F2492  1  0.066000  0.120900  0.239100  0.5
  F  F2493  1  0.884300  0.905900  0.729800  0.5
  F  F2494  1  0.115700  0.094100  0.270200  0.5
  F  F2495  1  0.884500  0.685100  0.440900  0.5
  F  F2496  1  0.115500  0.314900  0.559100  0.5
  F  F2497  1  0.843600  0.734900  0.411900  0.5
  F  F2498  1  0.156400  0.265100  0.588100  0.5
  F  F2499  1  0.882700  0.666667  0.386700  0.5
  F  F2500  1  0.117300  0.333333  0.613300  0.5
  F  F2501  1  0.912900  0.738100  0.418900  0.5
  F  F2502  1  0.087100  0.261900  0.581100  0.5
  F  F2503  1  0.932800  0.708500  0.370500  0.5
  F  F2504  1  0.067200  0.291500  0.629500  0.5
  F  F2505  1  0.955300  0.665000  0.402300  0.5
  F  F2506  1  0.044700  0.335000  0.597700  0.5
  F  F2507  1  0.939500  0.726700  0.485500  0.5
  F  F2508  1  0.060500  0.273300  0.514500  0.5
  F  F2509  1  0.002300  0.709700  0.449400  0.5
  F  F2510  1  0.997700  0.290300  0.550600  0.5
  F  F2511  1  0.003900  0.673500  0.495700  0.5
  F  F2512  1  0.996100  0.326500  0.504300  0.5
  F  F2513  1  0.939500  0.905200  0.487300  0.5
  F  F2514  1  0.060500  0.094800  0.512700  0.5
  F  F2515  1  0.983000  0.900400  0.442700  0.5
  F  F2516  1  0.017000  0.099600  0.557300  0.5
  F  F2517  1  0.014600  0.862200  0.483400  0.5
  F  F2518  1  0.985400  0.137800  0.516600  0.5
  F  F2519  1  0.451200  0.733200  0.662400  0.587
  F  F2520  1  0.548800  0.266800  0.337600  0.587
  F  F2521  1  0.471300  0.771600  0.695700  0.587
  F  F2522  1  0.528700  0.228400  0.304300  0.587
  F  F2523  1  0.520600  0.783400  0.648600  0.587
  F  F2524  1  0.479400  0.216600  0.351400  0.587
  F  F2525  1  0.494000  0.746100  0.619200  0.587
  F  F2526  1  0.506000  0.253900  0.380800  0.587
  F  F2527  1  0.444300  0.801500  0.643800  0.587
  F  F2528  1  0.555700  0.198500  0.356200  0.587
  F  F2529  1  0.528700  0.713800  0.664200  0.587
  F  F2530  1  0.471300  0.286200  0.335800  0.587
  F  F2531  1  0.432300  0.307000  0.659900  0.667
  F  F2532  1  0.567700  0.693000  0.340100  0.667
  F  F2533  1  0.530700  0.302700  0.618700  0.667
  F  F2534  1  0.469300  0.697300  0.381300  0.667
  F  F2535  1  0.454000  0.353700  0.624600  0.667
  F  F2536  1  0.546000  0.646300  0.375400  0.667
  F  F2537  1  0.488200  0.329700  0.670800  0.667
  F  F2538  1  0.511800  0.670300  0.329200  0.667
  F  F2539  1  0.477900  0.281400  0.608200  0.667
  F  F2540  1  0.522100  0.718600  0.391800  0.667
  F  F2541  1  0.509700  0.257400  0.655700  0.667
  F  F2542  1  0.490300  0.742600  0.344300  0.667
