
#######################################################################
#
#                 Cambridge Crystallographic Data Centre
#                                CCDC 
#
#######################################################################
#
# If this CIF has been generated from an entry in the Cambridge 
# Structural Database, then it will include bibliographic, chemical, 
# crystal, experimental, refinement or atomic coordinate data resulting 
# from the CCDC's data processing and validation procedures.
#
#######################################################################

data_OQOKIQ
_chemical_formula_moiety         'C384 H264 F48 Fe8 N48 O24 16+,16(F6 P1 1-)'
_chemical_name_systematic        
'dodecakis(\m-((2,3,5,6-tetrafluoro-1,4-phenylene)dipyridine-5,2-diyl)bis(N-(4-methoxyphenyl)methanimine))-octa-iron(ii) hexadecakis(hexafluorophosphate) unknown solvate'
_symmetry_cell_setting           cubic
_symmetry_space_group_name_H-M   'P 4 3 2'
_symmetry_Int_Tables_number      207
_space_group_name_Hall           'P 4 2 3'
loop_
_symmetry_equiv_pos_site_id
_symmetry_equiv_pos_as_xyz
1 x,y,z
2 -x,-y,z
3 -x,y,-z
4 x,-y,-z
5 z,x,y
6 z,-x,-y
7 -z,-x,y
8 -z,x,-y
9 y,z,x
10 -y,z,-x
11 y,-z,-x
12 -y,-z,x
13 y,x,-z
14 -y,-x,-z
15 y,-x,z
16 -y,x,z
17 x,z,-y
18 -x,z,y
19 -x,-z,-y
20 x,-z,y
21 z,y,-x
22 z,-y,x
23 -z,y,x
24 -z,-y,-x
_cell_length_a                   38.410(6)
_cell_length_b                   38.410(6)
_cell_length_c                   38.410(6)
_cell_angle_alpha                90
_cell_angle_beta                 90
_cell_angle_gamma                90
_cell_volume                     56667.4
_exptl_crystal_colour            purple
_exptl_crystal_description       block
_cell_formula_units_Z            3
_exptl_crystal_recrystallization_method acetonitrile/benzene
loop_
_atom_site_label
_atom_site_type_symbol
_atom_site_fract_x
_atom_site_fract_y
_atom_site_fract_z
Fe1 Fe 0.31086(19) 0.62038(18) 0.15355(19)
N1 N 0.2845(10) 0.6481(8) 0.1146(10)
N2 N 0.2826(9) 0.5817(5) 0.1313(8)
O1 O 0.3025(9) 0.7893(8) 0.1060(10)
C1 C 0.2853(9) 0.6822(6) 0.1047(9)
C2 C 0.3180(8) 0.6965(8) 0.0990(9)
H1 H 0.3371 0.6817 0.0934
C3 C 0.3229(7) 0.7322(8) 0.1014(9)
H2 H 0.3453 0.7420 0.0974
C4 C 0.2950(9) 0.7538(6) 0.1095(9)
C5 C 0.2622(8) 0.7395(8) 0.1153(9)
H3 H 0.2431 0.7543 0.1209
C6 C 0.2574(7) 0.7038(9) 0.1129(9)
H4 H 0.2350 0.6940 0.1169
C7 C 0.2805(15) 0.8158(12) 0.1224(16)
H5 H 0.2560 0.8095 0.1194
H6 H 0.2848 0.8384 0.1114
H7 H 0.2860 0.8172 0.1473
C8 C 0.2608(12) 0.6280(9) 0.0959(11)
H8 H 0.2458 0.6376 0.0788
C9 C 0.2607(11) 0.5896(5) 0.1051(10)
C10 C 0.2425(10) 0.5650(6) 0.0862(8)
H9 H 0.2271 0.5717 0.0680
C11 C 0.2475(10) 0.5305(5) 0.0944(8)
H10 H 0.2388 0.5126 0.0796
C12 C 0.2653(9) 0.5221(4) 0.1247(7)
C13 C 0.2851(10) 0.5480(6) 0.1406(9)
H11 H 0.3008 0.5417 0.1586
C14 C 0.2686(7) 0.4848(4) 0.1360(5)
C15 C 0.2792(7) 0.4604(5) 0.1115(4)
C16 C 0.2892(6) 0.4273(5) 0.1220(5)
C17 C 0.2886(7) 0.4185(4) 0.1571(6)
C18 C 0.2779(7) 0.4429(5) 0.1817(4)
C19 C 0.2679(6) 0.4761(5) 0.1711(5)
F1 F 0.2585(5) 0.5004(5) 0.1949(5)
F2 F 0.2753(6) 0.4371(7) 0.2166(5)
F3 F 0.2857(6) 0.4663(7) 0.0779(5)
F4 F 0.3004(7) 0.4026(6) 0.1013(6)
N3 N 0.3636(8) 0.2730(7) 0.1854(9)
N4 N 0.3400(5) 0.3360(5) 0.1692(6)
O2 O 0.4182(8) 0.1405(7) 0.1981(9)
C20 C 0.3755(8) 0.2398(6) 0.1874(9)
C21 C 0.4105(7) 0.2341(6) 0.1949(9)
H12 H 0.4257 0.2533 0.1983
C22 C 0.4232(6) 0.2003(8) 0.1972(9)
H13 H 0.4471 0.1964 0.2023
C23 C 0.4009(8) 0.1722(6) 0.1922(9)
C24 C 0.3660(8) 0.1779(6) 0.1848(9)
H14 H 0.3508 0.1588 0.1813
C25 C 0.3533(6) 0.2118(8) 0.1824(9)
H15 H 0.3294 0.2157 0.1773
C26 C 0.4556(11) 0.1400(14) 0.2054(16)
H16 H 0.4685 0.1459 0.1842
H17 H 0.4624 0.1167 0.2133
H18 H 0.4609 0.1571 0.2236
C27 C 0.3291(9) 0.2799(8) 0.1931(10)
H19 H 0.3143 0.2625 0.2025
C28 C 0.3161(6) 0.3165(4) 0.1859(8)
C29 C 0.2850(6) 0.3299(5) 0.1982(7)
H20 H 0.2709 0.3171 0.2140
C30 C 0.2752(5) 0.3624(5) 0.1869(7)
H21 H 0.2536 0.3721 0.1941
C31 C 0.2970(5) 0.3808(4) 0.1648(6)
C32 C 0.3299(5) 0.3678(5) 0.1581(7)
H22 H 0.3459 0.3816 0.1453
N5 N 0.3327(9) 0.5939(9) 0.1915(8)
N6 N 0.3510(7) 0.6019(9) 0.1251(5)
O3 O 0.2854(8) 0.5497(8) 0.3199(7)
C33 C 0.3202(8) 0.5828(8) 0.2228(6)
C34 C 0.3073(8) 0.6060(6) 0.2475(8)
H23 H 0.3057 0.6301 0.2422
C35 C 0.2969(8) 0.5939(7) 0.2799(7)
H24 H 0.2881 0.6097 0.2968
C36 C 0.2993(8) 0.5586(8) 0.2877(6)
C37 C 0.3121(8) 0.5354(6) 0.2631(8)
H25 H 0.3138 0.5114 0.2684
C38 C 0.3226(8) 0.5476(8) 0.2306(7)
H26 H 0.3314 0.5317 0.2137
C39 C 0.2766(13) 0.5738(12) 0.3475(11)
H27 H 0.2879 0.5963 0.3431
H28 H 0.2847 0.5645 0.3698
H29 H 0.2513 0.5770 0.3482
C40 C 0.3631(11) 0.5766(12) 0.1808(8)
H30 H 0.3772 0.5638 0.1966
C41 C 0.3722(9) 0.5797(10) 0.1423(5)
C42 C 0.4044(8) 0.5699(11) 0.1293(5)
H31 H 0.4221 0.5609 0.1441
C43 C 0.4098(8) 0.5735(11) 0.0940(5)
H32 H 0.4293 0.5629 0.0832
C44 C 0.3865(7) 0.5929(9) 0.0745(3)
C45 C 0.3565(8) 0.6054(11) 0.0906(5)
H33 H 0.3394 0.6169 0.0769
C46 C 0.3904(8) 0.5976(7) 0.0363(3)
C47 C 0.3880(7) 0.5696(6) 0.0130(4)
C48 C 0.3975(8) 0.6298(6) 0.0212(4)
C49 C 0.3916(8) 0.5736(6) -0.0224(4)
C50 C 0.3982(9) 0.6060(7) -0.0369(3)
C51 C 0.4016(8) 0.6339(6) -0.0142(4)
F5 F 0.3816(10) 0.5375(7) 0.0253(7)
F6 F 0.4008(11) 0.6585(7) 0.0409(6)
F7 F 0.3884(12) 0.5458(7) -0.0431(6)
F8 F 0.4091(12) 0.6655(7) -0.0268(7)
N5M N 0.4061(9) 0.6673(9) -0.1915(8)
N6M N 0.3981(9) 0.6490(7) -0.1251(5)
O3M O 0.4503(8) 0.7146(8) -0.3199(7)
C33M C 0.4172(8) 0.6798(8) -0.2228(6)
C34M C 0.3940(6) 0.6927(8) -0.2475(8)
H23M H 0.3699 0.6943 -0.2422
C35M C 0.4061(7) 0.7031(8) -0.2799(7)
H24M H 0.3903 0.7119 -0.2968
C36M C 0.4414(8) 0.7007(8) -0.2877(6)
C37M C 0.4646(6) 0.6879(8) -0.2631(8)
H25M H 0.4886 0.6862 -0.2684
C38M C 0.4524(8) 0.6774(8) -0.2306(7)
H26M H 0.4683 0.6686 -0.2137
C39M C 0.4262(12) 0.7234(13) -0.3475(11)
H27M H 0.4037 0.7121 -0.3431
H28M H 0.4355 0.7153 -0.3698
H29M H 0.4230 0.7487 -0.3482
C40M C 0.4234(12) 0.6369(11) -0.1808(8)
H30M H 0.4362 0.6228 -0.1966
C41M C 0.4203(10) 0.6278(9) -0.1423(5)
C42M C 0.4301(11) 0.5956(8) -0.1293(5)
H31M H 0.4391 0.5779 -0.1441
C43M C 0.4265(11) 0.5902(8) -0.0940(5)
H32M H 0.4371 0.5707 -0.0832
C44M C 0.4071(9) 0.6135(7) -0.0745(3)
C45M C 0.3946(11) 0.6435(8) -0.0906(5)
H33M H 0.3831 0.6606 -0.0769
C46M C 0.4024(7) 0.6096(8) -0.0363(3)
C47M C 0.4304(6) 0.6120(7) -0.0130(4)
C48M C 0.3702(6) 0.6025(8) -0.0212(4)
C49M C 0.4264(6) 0.6084(8) 0.0224(4)
C50M C 0.3940(7) 0.6018(9) 0.0369(3)
C51M C 0.3661(6) 0.5984(8) 0.0142(4)
F5M F 0.4625(7) 0.6184(10) -0.0253(7)
F6M F 0.3415(7) 0.5992(11) -0.0409(6)
F7M F 0.4542(7) 0.6116(12) 0.0431(6)
F8M F 0.3345(7) 0.5909(12) 0.0268(7)
Fe1M Fe 0.37962(18) 0.68914(19) -0.15355(19)
N1M N 0.3519(8) 0.7155(10) -0.1146(10)
N2M N 0.4183(5) 0.7174(9) -0.1313(8)
O1M O 0.2107(8) 0.6975(9) -0.1060(10)
C1M C 0.3178(6) 0.7147(9) -0.1047(9)
C2M C 0.3035(8) 0.6820(8) -0.0990(9)
H1M H 0.3183 0.6629 -0.0934
C3M C 0.2678(8) 0.6771(7) -0.1014(9)
H2M H 0.2580 0.6547 -0.0974
C4M C 0.2462(6) 0.7050(9) -0.1095(9)
C5M C 0.2605(8) 0.7378(8) -0.1153(9)
H3M H 0.2457 0.7569 -0.1209
C6M C 0.2962(9) 0.7426(7) -0.1129(9)
H4M H 0.3060 0.7650 -0.1169
C7M C 0.1842(12) 0.7195(15) -0.1224(16)
H5M H 0.1905 0.7440 -0.1194
H6M H 0.1616 0.7152 -0.1114
H7M H 0.1828 0.7140 -0.1473
C8M C 0.3720(9) 0.7392(12) -0.0959(11)
H8M H 0.3624 0.7542 -0.0788
C9M C 0.4104(5) 0.7393(11) -0.1051(10)
C10M C 0.4350(6) 0.7575(10) -0.0862(8)
H9M H 0.4283 0.7729 -0.0680
C11M C 0.4695(5) 0.7525(10) -0.0944(8)
H10M H 0.4874 0.7612 -0.0796
C12M C 0.4779(4) 0.7347(9) -0.1247(7)
C13M C 0.4520(6) 0.7149(10) -0.1406(9)
H11M H 0.4583 0.6992 -0.1586
C14M C 0.5152(4) 0.7314(7) -0.1360(5)
C15M C 0.5396(5) 0.7208(7) -0.1115(4)
C16M C 0.5727(5) 0.7108(6) -0.1220(5)
C17M C 0.5815(4) 0.7114(7) -0.1571(6)
C18M C 0.5571(5) 0.7221(7) -0.1817(4)
C19M C 0.5239(5) 0.7321(6) -0.1711(5)
F1M F 0.4996(5) 0.7415(5) -0.1949(5)
F2M F 0.5629(7) 0.7247(6) -0.2166(5)
F3M F 0.5337(7) 0.7143(6) -0.0779(5)
F4M F 0.5974(6) 0.6996(7) -0.1013(6)
N3M N 0.7270(7) 0.6364(8) -0.1854(9)
N4M N 0.6640(5) 0.6600(5) -0.1692(6)
O2M O 0.8595(7) 0.5818(8) -0.1981(9)
C20M C 0.7602(6) 0.6245(8) -0.1874(9)
C21M C 0.7659(6) 0.5895(7) -0.1949(9)
H12M H 0.7467 0.5743 -0.1983
C22M C 0.7997(8) 0.5768(6) -0.1972(9)
H13M H 0.8036 0.5529 -0.2023
C23M C 0.8278(6) 0.5991(8) -0.1922(9)
C24M C 0.8221(6) 0.6340(8) -0.1848(9)
H14M H 0.8412 0.6492 -0.1813
C25M C 0.7882(8) 0.6467(6) -0.1824(9)
H15M H 0.7843 0.6706 -0.1773
C26M C 0.8600(14) 0.5444(11) -0.2054(16)
H16M H 0.8541 0.5315 -0.1842
H17M H 0.8833 0.5376 -0.2133
H18M H 0.8429 0.5391 -0.2236
C27M C 0.7201(8) 0.6709(9) -0.1931(10)
H19M H 0.7375 0.6857 -0.2025
C28M C 0.6835(4) 0.6839(6) -0.1859(8)
C29M C 0.6701(5) 0.7150(6) -0.1982(7)
H20M H 0.6829 0.7291 -0.2140
C30M C 0.6376(5) 0.7248(5) -0.1869(7)
H21M H 0.6279 0.7464 -0.1941
C31M C 0.6192(4) 0.7030(5) -0.1648(6)
C32M C 0.6322(5) 0.6701(5) -0.1581(7)
H22M H 0.6184 0.6541 -0.1453
Fe1N Fe 0.62038(18) 0.68914(19) 0.15355(19)
N1N N 0.6481(8) 0.7155(10) 0.1146(10)
N2N N 0.5817(5) 0.7174(9) 0.1313(8)
O1N O 0.7893(8) 0.6975(9) 0.1060(10)
C1N C 0.6822(6) 0.7147(9) 0.1047(9)
C2N C 0.6965(8) 0.6820(8) 0.0990(9)
H1N H 0.6817 0.6629 0.0934
C3N C 0.7322(8) 0.6771(7) 0.1014(9)
H2N H 0.7420 0.6547 0.0974
C4N C 0.7538(6) 0.7050(9) 0.1095(9)
C5N C 0.7395(8) 0.7378(8) 0.1153(9)
H3N H 0.7543 0.7569 0.1209
C6N C 0.7038(9) 0.7426(7) 0.1129(9)
H4N H 0.6940 0.7650 0.1169
C7N C 0.8158(12) 0.7195(15) 0.1224(16)
H5N H 0.8095 0.7440 0.1194
H6N H 0.8384 0.7152 0.1114
H7N H 0.8172 0.7140 0.1473
C8N C 0.6280(9) 0.7392(12) 0.0959(11)
H8N H 0.6376 0.7542 0.0788
C9N C 0.5896(5) 0.7393(11) 0.1051(10)
C10N C 0.5650(6) 0.7575(10) 0.0862(8)
H9N H 0.5717 0.7729 0.0680
C11N C 0.5305(5) 0.7525(10) 0.0944(8)
H10N H 0.5126 0.7612 0.0796
C12N C 0.5221(4) 0.7347(9) 0.1247(7)
C13N C 0.5480(6) 0.7149(10) 0.1406(9)
H11N H 0.5417 0.6992 0.1586
C14N C 0.4848(4) 0.7314(7) 0.1360(5)
C15N C 0.4604(5) 0.7208(7) 0.1115(4)
C16N C 0.4273(5) 0.7108(6) 0.1220(5)
C17N C 0.4185(4) 0.7114(7) 0.1571(6)
C18N C 0.4429(5) 0.7221(7) 0.1817(4)
C19N C 0.4761(5) 0.7321(6) 0.1711(5)
F1N F 0.5004(5) 0.7415(5) 0.1949(5)
F2N F 0.4371(7) 0.7247(6) 0.2166(5)
F3N F 0.4663(7) 0.7143(6) 0.0779(5)
F4N F 0.4026(6) 0.6996(7) 0.1013(6)
N3N N 0.2730(7) 0.6364(8) 0.1854(9)
N4N N 0.3360(5) 0.6600(5) 0.1692(6)
O2N O 0.1405(7) 0.5818(8) 0.1981(9)
C20N C 0.2398(6) 0.6245(8) 0.1874(9)
C21N C 0.2341(6) 0.5895(7) 0.1949(9)
H12N H 0.2533 0.5743 0.1983
C22N C 0.2003(8) 0.5768(6) 0.1972(9)
H13N H 0.1964 0.5529 0.2023
C23N C 0.1722(6) 0.5991(8) 0.1922(9)
C24N C 0.1779(6) 0.6340(8) 0.1848(9)
H14N H 0.1588 0.6492 0.1813
C25N C 0.2118(8) 0.6467(6) 0.1824(9)
H15N H 0.2157 0.6706 0.1773
C26N C 0.1400(14) 0.5444(11) 0.2054(16)
H16N H 0.1459 0.5315 0.1842
H17N H 0.1167 0.5376 0.2133
H18N H 0.1571 0.5391 0.2236
C27N C 0.2799(8) 0.6709(9) 0.1931(10)
H19N H 0.2625 0.6857 0.2025
C28N C 0.3165(4) 0.6839(6) 0.1859(8)
C29N C 0.3299(5) 0.7150(6) 0.1982(7)
H20N H 0.3171 0.7291 0.2140
C30N C 0.3624(5) 0.7248(5) 0.1869(7)
H21N H 0.3721 0.7464 0.1941
C31N C 0.3808(4) 0.7030(5) 0.1648(6)
C32N C 0.3678(5) 0.6701(5) 0.1581(7)
H22N H 0.3816 0.6541 0.1453
N5N N 0.5939(9) 0.6673(9) 0.1915(8)
N6N N 0.6019(9) 0.6490(7) 0.1251(5)
O3N O 0.5497(8) 0.7146(8) 0.3199(7)
C33N C 0.5828(8) 0.6798(8) 0.2228(6)
C34N C 0.6060(6) 0.6927(8) 0.2475(8)
H23N H 0.6301 0.6943 0.2422
C35N C 0.5939(7) 0.7031(8) 0.2799(7)
H24N H 0.6097 0.7119 0.2968
C36N C 0.5586(8) 0.7007(8) 0.2877(6)
C37N C 0.5354(6) 0.6879(8) 0.2631(8)
H25N H 0.5114 0.6862 0.2684
C38N C 0.5476(8) 0.6774(8) 0.2306(7)
H26N H 0.5317 0.6686 0.2137
C39N C 0.5738(12) 0.7234(13) 0.3475(11)
H27N H 0.5963 0.7121 0.3431
H28N H 0.5645 0.7153 0.3698
H29N H 0.5770 0.7487 0.3482
C40N C 0.5766(12) 0.6369(11) 0.1808(8)
H30N H 0.5638 0.6228 0.1966
C41N C 0.5797(10) 0.6278(9) 0.1423(5)
C42N C 0.5699(11) 0.5956(8) 0.1293(5)
H31N H 0.5609 0.5779 0.1441
C43N C 0.5735(11) 0.5902(8) 0.0940(5)
H32N H 0.5629 0.5707 0.0832
C44N C 0.5929(9) 0.6135(7) 0.0745(3)
C45N C 0.6054(11) 0.6435(8) 0.0906(5)
H33N H 0.6169 0.6606 0.0769
C46N C 0.5976(7) 0.6096(8) 0.0363(3)
C47N C 0.5696(6) 0.6120(7) 0.0130(4)
C48N C 0.6298(6) 0.6025(8) 0.0212(4)
C49N C 0.5736(6) 0.6084(8) -0.0224(4)
C50N C 0.6060(7) 0.6018(9) -0.0369(3)
C51N C 0.6339(6) 0.5984(8) -0.0142(4)
F5N F 0.5375(7) 0.6184(10) 0.0253(7)
F6N F 0.6585(7) 0.5992(11) 0.0409(6)
F7N F 0.5458(7) 0.6116(12) -0.0431(6)
F8N F 0.6655(7) 0.5909(12) -0.0268(7)
N5B N 0.6673(9) 0.5939(9) -0.1915(8)
N6B N 0.6490(7) 0.6019(9) -0.1251(5)
O3B O 0.7146(8) 0.5497(8) -0.3199(7)
C33B C 0.6798(8) 0.5828(8) -0.2228(6)
C34B C 0.6927(8) 0.6060(6) -0.2475(8)
H23B H 0.6943 0.6301 -0.2422
C35B C 0.7031(8) 0.5939(7) -0.2799(7)
H24B H 0.7119 0.6097 -0.2968
C36B C 0.7007(8) 0.5586(8) -0.2877(6)
C37B C 0.6879(8) 0.5354(6) -0.2631(8)
H25B H 0.6862 0.5114 -0.2684
C38B C 0.6774(8) 0.5476(8) -0.2306(7)
H26B H 0.6686 0.5317 -0.2137
C39B C 0.7234(13) 0.5738(12) -0.3475(11)
H27B H 0.7121 0.5963 -0.3431
H28B H 0.7153 0.5645 -0.3698
H29B H 0.7487 0.5770 -0.3482
C40B C 0.6369(11) 0.5766(12) -0.1808(8)
H30B H 0.6228 0.5638 -0.1966
C41B C 0.6278(9) 0.5797(10) -0.1423(5)
C42B C 0.5956(8) 0.5699(11) -0.1293(5)
H31B H 0.5779 0.5609 -0.1441
C43B C 0.5902(8) 0.5735(11) -0.0940(5)
H32B H 0.5707 0.5629 -0.0832
C44B C 0.6135(7) 0.5929(9) -0.0745(3)
C45B C 0.6435(8) 0.6054(11) -0.0906(5)
H33B H 0.6606 0.6169 -0.0769
C46B C 0.6096(8) 0.5976(7) -0.0363(3)
C47B C 0.6120(7) 0.5696(6) -0.0130(4)
C48B C 0.6025(8) 0.6298(6) -0.0212(4)
C49B C 0.6084(8) 0.5736(6) 0.0224(4)
C50B C 0.6018(9) 0.6060(7) 0.0369(3)
C51B C 0.5984(8) 0.6339(6) 0.0142(4)
F5B F 0.6184(10) 0.5375(7) -0.0253(7)
F6B F 0.5992(11) 0.6585(7) -0.0409(6)
F7B F 0.6116(12) 0.5458(7) 0.0431(6)
F8B F 0.5909(12) 0.6655(7) 0.0268(7)
Fe1O Fe 0.37962(18) 0.31086(19) 0.15355(19)
N1O N 0.3519(8) 0.2845(10) 0.1146(10)
N2O N 0.4183(5) 0.2826(9) 0.1313(8)
O1O O 0.2107(8) 0.3025(9) 0.1060(10)
C1O C 0.3178(6) 0.2853(9) 0.1047(9)
C2O C 0.3035(8) 0.3180(8) 0.0990(9)
H1O H 0.3183 0.3371 0.0934
C3O C 0.2678(8) 0.3229(7) 0.1014(9)
H2O H 0.2580 0.3453 0.0974
C4O C 0.2462(6) 0.2950(9) 0.1095(9)
C5O C 0.2605(8) 0.2622(8) 0.1153(9)
H3O H 0.2457 0.2431 0.1209
C6O C 0.2962(9) 0.2574(7) 0.1129(9)
H4O H 0.3060 0.2350 0.1169
C7O C 0.1842(12) 0.2805(15) 0.1224(16)
H5O H 0.1905 0.2560 0.1194
H6O H 0.1616 0.2848 0.1114
H7O H 0.1828 0.2860 0.1473
C8O C 0.3720(9) 0.2608(12) 0.0959(11)
H8O H 0.3624 0.2458 0.0788
C9O C 0.4104(5) 0.2607(11) 0.1051(10)
C10O C 0.4350(6) 0.2425(10) 0.0862(8)
H9O H 0.4283 0.2271 0.0680
C11O C 0.4695(5) 0.2475(10) 0.0944(8)
H10O H 0.4874 0.2388 0.0796
C12O C 0.4779(4) 0.2653(9) 0.1247(7)
C13O C 0.4520(6) 0.2851(10) 0.1406(9)
H11O H 0.4583 0.3008 0.1586
C14O C 0.5152(4) 0.2686(7) 0.1360(5)
C15O C 0.5396(5) 0.2792(7) 0.1115(4)
C16O C 0.5727(5) 0.2892(6) 0.1220(5)
C17O C 0.5815(4) 0.2886(7) 0.1571(6)
C18O C 0.5571(5) 0.2779(7) 0.1817(4)
C19O C 0.5239(5) 0.2679(6) 0.1711(5)
F1O F 0.4996(5) 0.2585(5) 0.1949(5)
F2O F 0.5629(7) 0.2753(6) 0.2166(5)
F3O F 0.5337(7) 0.2857(6) 0.0779(5)
F4O F 0.5974(6) 0.3004(7) 0.1013(6)
N3O N 0.7270(7) 0.3636(8) 0.1854(9)
N4O N 0.6640(5) 0.3400(5) 0.1692(6)
O2O O 0.8595(7) 0.4182(8) 0.1981(9)
C20O C 0.7602(6) 0.3755(8) 0.1874(9)
C21O C 0.7659(6) 0.4105(7) 0.1949(9)
H12O H 0.7467 0.4257 0.1983
C22O C 0.7997(8) 0.4232(6) 0.1972(9)
H13O H 0.8036 0.4471 0.2023
C23O C 0.8278(6) 0.4009(8) 0.1922(9)
C24O C 0.8221(6) 0.3660(8) 0.1848(9)
H14O H 0.8412 0.3508 0.1813
C25O C 0.7882(8) 0.3533(6) 0.1824(9)
H15O H 0.7843 0.3294 0.1773
C26O C 0.8600(14) 0.4556(11) 0.2054(16)
H16O H 0.8541 0.4685 0.1842
H17O H 0.8833 0.4624 0.2133
H18O H 0.8429 0.4609 0.2236
C27O C 0.7201(8) 0.3291(9) 0.1931(10)
H19O H 0.7375 0.3143 0.2025
C28O C 0.6835(4) 0.3161(6) 0.1859(8)
C29O C 0.6701(5) 0.2850(6) 0.1982(7)
H20O H 0.6829 0.2709 0.2140
C30O C 0.6376(5) 0.2752(5) 0.1869(7)
H21O H 0.6279 0.2536 0.1941
C31O C 0.6192(4) 0.2970(5) 0.1648(6)
C32O C 0.6322(5) 0.3299(5) 0.1581(7)
H22O H 0.6184 0.3459 0.1453
N5O N 0.4061(9) 0.3327(9) 0.1915(8)
N6O N 0.3981(9) 0.3510(7) 0.1251(5)
O3O O 0.4503(8) 0.2854(8) 0.3199(7)
C33O C 0.4172(8) 0.3202(8) 0.2228(6)
C34O C 0.3940(6) 0.3073(8) 0.2475(8)
H23O H 0.3699 0.3057 0.2422
C35O C 0.4061(7) 0.2969(8) 0.2799(7)
H24O H 0.3903 0.2881 0.2968
C36O C 0.4414(8) 0.2993(8) 0.2877(6)
C37O C 0.4646(6) 0.3121(8) 0.2631(8)
H25O H 0.4886 0.3138 0.2684
C38O C 0.4524(8) 0.3226(8) 0.2306(7)
H26O H 0.4683 0.3314 0.2137
C39O C 0.4262(12) 0.2766(13) 0.3475(11)
H27O H 0.4037 0.2879 0.3431
H28O H 0.4355 0.2847 0.3698
H29O H 0.4230 0.2513 0.3482
C40O C 0.4234(12) 0.3631(11) 0.1808(8)
H30O H 0.4362 0.3772 0.1966
C41O C 0.4203(10) 0.3722(9) 0.1423(5)
C42O C 0.4301(11) 0.4044(8) 0.1293(5)
H31O H 0.4391 0.4221 0.1441
C43O C 0.4265(11) 0.4098(8) 0.0940(5)
H32O H 0.4371 0.4293 0.0832
C44O C 0.4071(9) 0.3865(7) 0.0745(3)
C45O C 0.3946(11) 0.3565(8) 0.0906(5)
H33O H 0.3831 0.3394 0.0769
C46O C 0.4024(7) 0.3904(8) 0.0363(3)
C47O C 0.4304(6) 0.3880(7) 0.0130(4)
C48O C 0.3702(6) 0.3975(8) 0.0212(4)
C49O C 0.4264(6) 0.3916(8) -0.0224(4)
C50O C 0.3940(7) 0.3982(9) -0.0369(3)
C51O C 0.3661(6) 0.4016(8) -0.0142(4)
F5O F 0.4625(7) 0.3816(10) 0.0253(7)
F6O F 0.3415(7) 0.4008(11) 0.0409(6)
F7O F 0.4542(7) 0.3884(12) -0.0431(6)
F8O F 0.3345(7) 0.4091(12) -0.0268(7)
N5C N 0.3327(9) 0.4061(9) -0.1915(8)
N6C N 0.3510(7) 0.3981(9) -0.1251(5)
O3C O 0.2854(8) 0.4503(8) -0.3199(7)
C33C C 0.3202(8) 0.4172(8) -0.2228(6)
C34C C 0.3073(8) 0.3940(6) -0.2475(8)
H23C H 0.3057 0.3699 -0.2422
C35C C 0.2969(8) 0.4061(7) -0.2799(7)
H24C H 0.2881 0.3903 -0.2968
C36C C 0.2993(8) 0.4414(8) -0.2877(6)
C37C C 0.3121(8) 0.4646(6) -0.2631(8)
H25C H 0.3138 0.4886 -0.2684
C38C C 0.3226(8) 0.4524(8) -0.2306(7)
H26C H 0.3314 0.4683 -0.2137
C39C C 0.2766(13) 0.4262(12) -0.3475(11)
H27C H 0.2879 0.4037 -0.3431
H28C H 0.2847 0.4355 -0.3698
H29C H 0.2513 0.4230 -0.3482
C40C C 0.3631(11) 0.4234(12) -0.1808(8)
H30C H 0.3772 0.4362 -0.1966
C41C C 0.3722(9) 0.4203(10) -0.1423(5)
C42C C 0.4044(8) 0.4301(11) -0.1293(5)
H31C H 0.4221 0.4391 -0.1441
C43C C 0.4098(8) 0.4265(11) -0.0940(5)
H32C H 0.4293 0.4371 -0.0832
C44C C 0.3865(7) 0.4071(9) -0.0745(3)
C45C C 0.3565(8) 0.3946(11) -0.0906(5)
H33C H 0.3394 0.3831 -0.0769
C46C C 0.3904(8) 0.4024(7) -0.0363(3)
C47C C 0.3880(7) 0.4304(6) -0.0130(4)
C48C C 0.3975(8) 0.3702(6) -0.0212(4)
C49C C 0.3916(8) 0.4264(6) 0.0224(4)
C50C C 0.3982(9) 0.3940(7) 0.0369(3)
C51C C 0.4016(8) 0.3661(6) 0.0142(4)
F5C F 0.3816(10) 0.4625(7) -0.0253(7)
F6C F 0.4008(11) 0.3415(7) -0.0409(6)
F7C F 0.3884(12) 0.4542(7) 0.0431(6)
F8C F 0.4091(12) 0.3345(7) 0.0268(7)
Fe1A Fe 0.68914(19) 0.37962(18) 0.15355(19)
N1A N 0.7155(10) 0.3519(8) 0.1146(10)
N2A N 0.7174(9) 0.4183(5) 0.1313(8)
O1A O 0.6975(9) 0.2107(8) 0.1060(10)
C1A C 0.7147(9) 0.3178(6) 0.1047(9)
C2A C 0.6820(8) 0.3035(8) 0.0990(9)
H1A H 0.6629 0.3183 0.0934
C3A C 0.6771(7) 0.2678(8) 0.1014(9)
H2A H 0.6547 0.2580 0.0974
C4A C 0.7050(9) 0.2462(6) 0.1095(9)
C5A C 0.7378(8) 0.2605(8) 0.1153(9)
H3A H 0.7569 0.2457 0.1209
C6A C 0.7426(7) 0.2962(9) 0.1129(9)
H4A H 0.7650 0.3060 0.1169
C7A C 0.7195(15) 0.1842(12) 0.1224(16)
H5A H 0.7440 0.1905 0.1194
H6A H 0.7152 0.1616 0.1114
H7A H 0.7140 0.1828 0.1473
C8A C 0.7392(12) 0.3720(9) 0.0959(11)
H8A H 0.7542 0.3624 0.0788
C9A C 0.7393(11) 0.4104(5) 0.1051(10)
C10A C 0.7575(10) 0.4350(6) 0.0862(8)
H9A H 0.7729 0.4283 0.0680
C11A C 0.7525(10) 0.4695(5) 0.0944(8)
H10A H 0.7612 0.4874 0.0796
C12A C 0.7347(9) 0.4779(4) 0.1247(7)
C13A C 0.7149(10) 0.4520(6) 0.1406(9)
H11A H 0.6992 0.4583 0.1586
C14A C 0.7314(7) 0.5152(4) 0.1360(5)
C15A C 0.7208(7) 0.5396(5) 0.1115(4)
C16A C 0.7108(6) 0.5727(5) 0.1220(5)
C17A C 0.7114(7) 0.5815(4) 0.1571(6)
C18A C 0.7221(7) 0.5571(5) 0.1817(4)
C19A C 0.7321(6) 0.5239(5) 0.1711(5)
F1A F 0.7415(5) 0.4996(5) 0.1949(5)
F2A F 0.7247(6) 0.5629(7) 0.2166(5)
F3A F 0.7143(6) 0.5337(7) 0.0779(5)
F4A F 0.6996(7) 0.5974(6) 0.1013(6)
N3A N 0.6364(8) 0.7270(7) 0.1854(9)
N4A N 0.6600(5) 0.6640(5) 0.1692(6)
O2A O 0.5818(8) 0.8595(7) 0.1981(9)
C20A C 0.6245(8) 0.7602(6) 0.1874(9)
C21A C 0.5895(7) 0.7659(6) 0.1949(9)
H12A H 0.5743 0.7467 0.1983
C22A C 0.5768(6) 0.7997(8) 0.1972(9)
H13A H 0.5529 0.8036 0.2023
C23A C 0.5991(8) 0.8278(6) 0.1922(9)
C24A C 0.6340(8) 0.8221(6) 0.1848(9)
H14A H 0.6492 0.8412 0.1813
C25A C 0.6467(6) 0.7882(8) 0.1824(9)
H15A H 0.6706 0.7843 0.1773
C26A C 0.5444(11) 0.8600(14) 0.2054(16)
H16A H 0.5315 0.8541 0.1842
H17A H 0.5376 0.8833 0.2133
H18A H 0.5391 0.8429 0.2236
C27A C 0.6709(9) 0.7201(8) 0.1931(10)
H19A H 0.6857 0.7375 0.2025
C28A C 0.6839(6) 0.6835(4) 0.1859(8)
C29A C 0.7150(6) 0.6701(5) 0.1982(7)
H20A H 0.7291 0.6829 0.2140
C30A C 0.7248(5) 0.6376(5) 0.1869(7)
H21A H 0.7464 0.6279 0.1941
C31A C 0.7030(5) 0.6192(4) 0.1648(6)
C32A C 0.6701(5) 0.6322(5) 0.1581(7)
H22A H 0.6541 0.6184 0.1453
N5A N 0.6673(9) 0.4061(9) 0.1915(8)
N6A N 0.6490(7) 0.3981(9) 0.1251(5)
O3A O 0.7146(8) 0.4503(8) 0.3199(7)
C33A C 0.6798(8) 0.4172(8) 0.2228(6)
C34A C 0.6927(8) 0.3940(6) 0.2475(8)
H23A H 0.6943 0.3699 0.2422
C35A C 0.7031(8) 0.4061(7) 0.2799(7)
H24A H 0.7119 0.3903 0.2968
C36A C 0.7007(8) 0.4414(8) 0.2877(6)
C37A C 0.6879(8) 0.4646(6) 0.2631(8)
H25A H 0.6862 0.4886 0.2684
C38A C 0.6774(8) 0.4524(8) 0.2306(7)
H26A H 0.6686 0.4683 0.2137
C39A C 0.7234(13) 0.4262(12) 0.3475(11)
H27A H 0.7121 0.4037 0.3431
H28A H 0.7153 0.4355 0.3698
H29A H 0.7487 0.4230 0.3482
C40A C 0.6369(11) 0.4234(12) 0.1808(8)
H30A H 0.6228 0.4362 0.1966
C41A C 0.6278(9) 0.4203(10) 0.1423(5)
C42A C 0.5956(8) 0.4301(11) 0.1293(5)
H31A H 0.5779 0.4391 0.1441
C43A C 0.5902(8) 0.4265(11) 0.0940(5)
H32A H 0.5707 0.4371 0.0832
C44A C 0.6135(7) 0.4071(9) 0.0745(3)
C45A C 0.6435(8) 0.3946(11) 0.0906(5)
H33A H 0.6606 0.3831 0.0769
C46A C 0.6096(8) 0.4024(7) 0.0363(3)
C47A C 0.6120(7) 0.4304(6) 0.0130(4)
C48A C 0.6025(8) 0.3702(6) 0.0212(4)
C49A C 0.6084(8) 0.4264(6) -0.0224(4)
C50A C 0.6018(9) 0.3940(7) -0.0369(3)
C51A C 0.5984(8) 0.3661(6) -0.0142(4)
F5A F 0.6184(10) 0.4625(7) 0.0253(7)
F6A F 0.5992(11) 0.3415(7) 0.0409(6)
F7A F 0.6116(12) 0.4542(7) -0.0431(6)
F8A F 0.5909(12) 0.3345(7) -0.0268(7)
N5L N 0.5939(9) 0.3327(9) -0.1915(8)
N6L N 0.6019(9) 0.3510(7) -0.1251(5)
O3L O 0.5497(8) 0.2854(8) -0.3199(7)
C33L C 0.5828(8) 0.3202(8) -0.2228(6)
C34L C 0.6060(6) 0.3073(8) -0.2475(8)
H23L H 0.6301 0.3057 -0.2422
C35L C 0.5939(7) 0.2969(8) -0.2799(7)
H24L H 0.6097 0.2881 -0.2968
C36L C 0.5586(8) 0.2993(8) -0.2877(6)
C37L C 0.5354(6) 0.3121(8) -0.2631(8)
H25L H 0.5114 0.3138 -0.2684
C38L C 0.5476(8) 0.3226(8) -0.2306(7)
H26L H 0.5317 0.3314 -0.2137
C39L C 0.5738(12) 0.2766(13) -0.3475(11)
H27L H 0.5963 0.2879 -0.3431
H28L H 0.5645 0.2847 -0.3698
H29L H 0.5770 0.2513 -0.3482
C40L C 0.5766(12) 0.3631(11) -0.1808(8)
H30L H 0.5638 0.3772 -0.1966
C41L C 0.5797(10) 0.3722(9) -0.1423(5)
C42L C 0.5699(11) 0.4044(8) -0.1293(5)
H31L H 0.5609 0.4221 -0.1441
C43L C 0.5735(11) 0.4098(8) -0.0940(5)
H32L H 0.5629 0.4293 -0.0832
C44L C 0.5929(9) 0.3865(7) -0.0745(3)
C45L C 0.6054(11) 0.3565(8) -0.0906(5)
H33L H 0.6169 0.3394 -0.0769
C46L C 0.5976(7) 0.3904(8) -0.0363(3)
C47L C 0.5696(6) 0.3880(7) -0.0130(4)
C48L C 0.6298(6) 0.3975(8) -0.0212(4)
C49L C 0.5736(6) 0.3916(8) 0.0224(4)
C50L C 0.6060(7) 0.3982(9) 0.0369(3)
C51L C 0.6339(6) 0.4016(8) 0.0142(4)
F5L F 0.5375(7) 0.3816(10) -0.0253(7)
F6L F 0.6585(7) 0.4008(11) -0.0409(6)
F7L F 0.5458(7) 0.3884(12) 0.0431(6)
F8L F 0.6655(7) 0.4091(12) 0.0268(7)
Fe1B Fe 0.68914(19) 0.62038(18) -0.15355(19)
N1B N 0.7155(10) 0.6481(8) -0.1146(10)
N2B N 0.7174(9) 0.5817(5) -0.1313(8)
O1B O 0.6975(9) 0.7893(8) -0.1060(10)
C1B C 0.7147(9) 0.6822(6) -0.1047(9)
C2B C 0.6820(8) 0.6965(8) -0.0990(9)
H1B H 0.6629 0.6817 -0.0934
C3B C 0.6771(7) 0.7322(8) -0.1014(9)
H2B H 0.6547 0.7420 -0.0974
C4B C 0.7050(9) 0.7538(6) -0.1095(9)
C5B C 0.7378(8) 0.7395(8) -0.1153(9)
H3B H 0.7569 0.7543 -0.1209
C6B C 0.7426(7) 0.7038(9) -0.1129(9)
H4B H 0.7650 0.6940 -0.1169
C7B C 0.7195(15) 0.8158(12) -0.1224(16)
H5B H 0.7440 0.8095 -0.1194
H6B H 0.7152 0.8384 -0.1114
H7B H 0.7140 0.8172 -0.1473
C8B C 0.7392(12) 0.6280(9) -0.0959(11)
H8B H 0.7542 0.6376 -0.0788
C9B C 0.7393(11) 0.5896(5) -0.1051(10)
C10B C 0.7575(10) 0.5650(6) -0.0862(8)
H9B H 0.7729 0.5717 -0.0680
C11B C 0.7525(10) 0.5305(5) -0.0944(8)
H10B H 0.7612 0.5126 -0.0796
C12B C 0.7347(9) 0.5221(4) -0.1247(7)
C13B C 0.7149(10) 0.5480(6) -0.1406(9)
H11B H 0.6992 0.5417 -0.1586
C14B C 0.7314(7) 0.4848(4) -0.1360(5)
C15B C 0.7208(7) 0.4604(5) -0.1115(4)
C16B C 0.7108(6) 0.4273(5) -0.1220(5)
C17B C 0.7114(7) 0.4185(4) -0.1571(6)
C18B C 0.7221(7) 0.4429(5) -0.1817(4)
C19B C 0.7321(6) 0.4761(5) -0.1711(5)
F1B F 0.7415(5) 0.5004(5) -0.1949(5)
F2B F 0.7247(6) 0.4371(7) -0.2166(5)
F3B F 0.7143(6) 0.4663(7) -0.0779(5)
F4B F 0.6996(7) 0.4026(6) -0.1013(6)
N3B N 0.6364(8) 0.2730(7) -0.1854(9)
N4B N 0.6600(5) 0.3360(5) -0.1692(6)
O2B O 0.5818(8) 0.1405(7) -0.1981(9)
C20B C 0.6245(8) 0.2398(6) -0.1874(9)
C21B C 0.5895(7) 0.2341(6) -0.1949(9)
H12B H 0.5743 0.2533 -0.1983
C22B C 0.5768(6) 0.2003(8) -0.1972(9)
H13B H 0.5529 0.1964 -0.2023
C23B C 0.5991(8) 0.1722(6) -0.1922(9)
C24B C 0.6340(8) 0.1779(6) -0.1848(9)
H14B H 0.6492 0.1588 -0.1813
C25B C 0.6467(6) 0.2118(8) -0.1824(9)
H15B H 0.6706 0.2157 -0.1773
C26B C 0.5444(11) 0.1400(14) -0.2054(16)
H16B H 0.5315 0.1459 -0.1842
H17B H 0.5376 0.1167 -0.2133
H18B H 0.5391 0.1571 -0.2236
C27B C 0.6709(9) 0.2799(8) -0.1931(10)
H19B H 0.6857 0.2625 -0.2025
C28B C 0.6839(6) 0.3165(4) -0.1859(8)
C29B C 0.7150(6) 0.3299(5) -0.1982(7)
H20B H 0.7291 0.3171 -0.2140
C30B C 0.7248(5) 0.3624(5) -0.1869(7)
H21B H 0.7464 0.3721 -0.1941
C31B C 0.7030(5) 0.3808(4) -0.1648(6)
C32B C 0.6701(5) 0.3678(5) -0.1581(7)
H22B H 0.6541 0.3816 -0.1453
Fe1C Fe 0.31086(19) 0.37962(18) -0.15355(19)
N1C N 0.2845(10) 0.3519(8) -0.1146(10)
N2C N 0.2826(9) 0.4183(5) -0.1313(8)
O1C O 0.3025(9) 0.2107(8) -0.1060(10)
C1C C 0.2853(9) 0.3178(6) -0.1047(9)
C2C C 0.3180(8) 0.3035(8) -0.0990(9)
H1C H 0.3371 0.3183 -0.0934
C3C C 0.3229(7) 0.2678(8) -0.1014(9)
H2C H 0.3453 0.2580 -0.0974
C4C C 0.2950(9) 0.2462(6) -0.1095(9)
C5C C 0.2622(8) 0.2605(8) -0.1153(9)
H3C H 0.2431 0.2457 -0.1209
C6C C 0.2574(7) 0.2962(9) -0.1129(9)
H4C H 0.2350 0.3060 -0.1169
C7C C 0.2805(15) 0.1842(12) -0.1224(16)
H5C H 0.2560 0.1905 -0.1194
H6C H 0.2848 0.1616 -0.1114
H7C H 0.2860 0.1828 -0.1473
C8C C 0.2608(12) 0.3720(9) -0.0959(11)
H8C H 0.2458 0.3624 -0.0788
C9C C 0.2607(11) 0.4104(5) -0.1051(10)
C10C C 0.2425(10) 0.4350(6) -0.0862(8)
H9C H 0.2271 0.4283 -0.0680
C11C C 0.2475(10) 0.4695(5) -0.0944(8)
H10C H 0.2388 0.4874 -0.0796
C12C C 0.2653(9) 0.4779(4) -0.1247(7)
C13C C 0.2851(10) 0.4520(6) -0.1406(9)
H11C H 0.3008 0.4583 -0.1586
C14C C 0.2686(7) 0.5152(4) -0.1360(5)
C15C C 0.2792(7) 0.5396(5) -0.1115(4)
C16C C 0.2892(6) 0.5727(5) -0.1220(5)
C17C C 0.2886(7) 0.5815(4) -0.1571(6)
C18C C 0.2779(7) 0.5571(5) -0.1817(4)
C19C C 0.2679(6) 0.5239(5) -0.1711(5)
F1C F 0.2585(5) 0.4996(5) -0.1949(5)
F2C F 0.2753(6) 0.5629(7) -0.2166(5)
F3C F 0.2857(6) 0.5337(7) -0.0779(5)
F4C F 0.3004(7) 0.5974(6) -0.1013(6)
N3C N 0.3636(8) 0.7270(7) -0.1854(9)
N4C N 0.3400(5) 0.6640(5) -0.1692(6)
O2C O 0.4182(8) 0.8595(7) -0.1981(9)
C20C C 0.3755(8) 0.7602(6) -0.1874(9)
C21C C 0.4105(7) 0.7659(6) -0.1949(9)
H12C H 0.4257 0.7467 -0.1983
C22C C 0.4232(6) 0.7997(8) -0.1972(9)
H13C H 0.4471 0.8036 -0.2023
C23C C 0.4009(8) 0.8278(6) -0.1922(9)
C24C C 0.3660(8) 0.8221(6) -0.1848(9)
H14C H 0.3508 0.8412 -0.1813
C25C C 0.3533(6) 0.7882(8) -0.1824(9)
H15C H 0.3294 0.7843 -0.1773
C26C C 0.4556(11) 0.8600(14) -0.2054(16)
H16C H 0.4685 0.8541 -0.1842
H17C H 0.4624 0.8833 -0.2133
H18C H 0.4609 0.8429 -0.2236
C27C C 0.3291(9) 0.7201(8) -0.1931(10)
H19C H 0.3143 0.7375 -0.2025
C28C C 0.3161(6) 0.6835(4) -0.1859(8)
C29C C 0.2850(6) 0.6701(5) -0.1982(7)
H20C H 0.2709 0.6829 -0.2140
C30C C 0.2752(5) 0.6376(5) -0.1869(7)
H21C H 0.2536 0.6279 -0.1941
C31C C 0.2970(5) 0.6192(4) -0.1648(6)
C32C C 0.3299(5) 0.6322(5) -0.1581(7)
H22C H 0.3459 0.6184 -0.1453
Fe1L Fe 0.62038(18) 0.31086(19) -0.15355(19)
N1L N 0.6481(8) 0.2845(10) -0.1146(10)
N2L N 0.5817(5) 0.2826(9) -0.1313(8)
O1L O 0.7893(8) 0.3025(9) -0.1060(10)
C1L C 0.6822(6) 0.2853(9) -0.1047(9)
C2L C 0.6965(8) 0.3180(8) -0.0990(9)
H1L H 0.6817 0.3371 -0.0934
C3L C 0.7322(8) 0.3229(7) -0.1014(9)
H2L H 0.7420 0.3453 -0.0974
C4L C 0.7538(6) 0.2950(9) -0.1095(9)
C5L C 0.7395(8) 0.2622(8) -0.1153(9)
H3L H 0.7543 0.2431 -0.1209
C6L C 0.7038(9) 0.2574(7) -0.1129(9)
H4L H 0.6940 0.2350 -0.1169
C7L C 0.8158(12) 0.2805(15) -0.1224(16)
H5L H 0.8095 0.2560 -0.1194
H6L H 0.8384 0.2848 -0.1114
H7L H 0.8172 0.2860 -0.1473
C8L C 0.6280(9) 0.2608(12) -0.0959(11)
H8L H 0.6376 0.2458 -0.0788
C9L C 0.5896(5) 0.2607(11) -0.1051(10)
C10L C 0.5650(6) 0.2425(10) -0.0862(8)
H9L H 0.5717 0.2271 -0.0680
C11L C 0.5305(5) 0.2475(10) -0.0944(8)
H10L H 0.5126 0.2388 -0.0796
C12L C 0.5221(4) 0.2653(9) -0.1247(7)
C13L C 0.5480(6) 0.2851(10) -0.1406(9)
H11L H 0.5417 0.3008 -0.1586
C14L C 0.4848(4) 0.2686(7) -0.1360(5)
C15L C 0.4604(5) 0.2792(7) -0.1115(4)
C16L C 0.4273(5) 0.2892(6) -0.1220(5)
C17L C 0.4185(4) 0.2886(7) -0.1571(6)
C18L C 0.4429(5) 0.2779(7) -0.1817(4)
C19L C 0.4761(5) 0.2679(6) -0.1711(5)
F1L F 0.5004(5) 0.2585(5) -0.1949(5)
F2L F 0.4371(7) 0.2753(6) -0.2166(5)
F3L F 0.4663(7) 0.2857(6) -0.0779(5)
F4L F 0.4026(6) 0.3004(7) -0.1013(6)
N3L N 0.2730(7) 0.3636(8) -0.1854(9)
N4L N 0.3360(5) 0.3400(5) -0.1692(6)
O2L O 0.1405(7) 0.4182(8) -0.1981(9)
C20L C 0.2398(6) 0.3755(8) -0.1874(9)
C21L C 0.2341(6) 0.4105(7) -0.1949(9)
H12L H 0.2533 0.4257 -0.1983
C22L C 0.2003(8) 0.4232(6) -0.1972(9)
H13L H 0.1964 0.4471 -0.2023
C23L C 0.1722(6) 0.4009(8) -0.1922(9)
C24L C 0.1779(6) 0.3660(8) -0.1848(9)
H14L H 0.1588 0.3508 -0.1813
C25L C 0.2118(8) 0.3533(6) -0.1824(9)
H15L H 0.2157 0.3294 -0.1773
C26L C 0.1400(14) 0.4556(11) -0.2054(16)
H16L H 0.1459 0.4685 -0.1842
H17L H 0.1167 0.4624 -0.2133
H18L H 0.1571 0.4609 -0.2236
C27L C 0.2799(8) 0.3291(9) -0.1931(10)
H19L H 0.2625 0.3143 -0.2025
C28L C 0.3165(4) 0.3161(6) -0.1859(8)
C29L C 0.3299(5) 0.2850(6) -0.1982(7)
H20L H 0.3171 0.2709 -0.2140
C30L C 0.3624(5) 0.2752(5) -0.1869(7)
H21L H 0.3721 0.2536 -0.1941
C31L C 0.3808(4) 0.2970(5) -0.1648(6)
C32L C 0.3678(5) 0.3299(5) -0.1581(7)
H22L H 0.3816 0.3459 -0.1453
P1 P 0.4718(4) 0.6189(4) 0.1721(4)
F9 F 0.4979(7) 0.6460(6) 0.1534(7)
F10 F 0.4360(8) 0.6324(7) 0.1476(8)
F11 F 0.4457(7) 0.5945(8) 0.1916(8)
F12 F 0.4650(8) 0.6486(8) 0.2015(8)
F13 F 0.4979(7) 0.6030(7) 0.1952(7)
F14 F 0.4808(8) 0.5898(7) 0.1428(8)
loop_
_geom_bond_atom_site_label_1
_geom_bond_atom_site_label_2
_geom_bond_site_symmetry_1
_geom_bond_site_symmetry_2
Fe1 N1 1_555 1_555
N1 C1 1_555 1_555
N2 Fe1 1_555 1_555
O1 C4 1_555 1_555
C1 C2 1_555 1_555
C2 H1 1_555 1_555
C3 C2 1_555 1_555
H2 C3 1_555 1_555
C4 C3 1_555 1_555
C5 C4 1_555 1_555
H3 C5 1_555 1_555
C6 C1 1_555 1_555
H4 C6 1_555 1_555
C7 O1 1_555 1_555
H5 C7 1_555 1_555
H6 C7 1_555 1_555
H7 C7 1_555 1_555
C8 N1 1_555 1_555
H8 C8 1_555 1_555
C9 N2 1_555 1_555
C10 C9 1_555 1_555
H9 C10 1_555 1_555
C11 C10 1_555 1_555
H10 C11 1_555 1_555
C12 C11 1_555 1_555
C13 N2 1_555 1_555
H11 C13 1_555 1_555
C14 C12 1_555 1_555
C15 C14 1_555 1_555
C16 C15 1_555 1_555
C17 C16 1_555 1_555
C18 C17 1_555 1_555
C19 C14 1_555 1_555
F1 C19 1_555 1_555
F2 C18 1_555 1_555
F3 C15 1_555 1_555
F4 C16 1_555 1_555
N3 C20 1_555 1_555
N4 C28 1_555 1_555
O2 C23 1_555 1_555
C20 C21 1_555 1_555
C21 H12 1_555 1_555
C22 C21 1_555 1_555
H13 C22 1_555 1_555
C23 C22 1_555 1_555
C24 C23 1_555 1_555
H14 C24 1_555 1_555
C25 C20 1_555 1_555
H15 C25 1_555 1_555
C26 O2 1_555 1_555
H16 C26 1_555 1_555
H17 C26 1_555 1_555
H18 C26 1_555 1_555
C27 N3 1_555 1_555
H19 C27 1_555 1_555
C28 C27 1_555 1_555
C29 C28 1_555 1_555
H20 C29 1_555 1_555
C30 C29 1_555 1_555
H21 C30 1_555 1_555
C31 C17 1_555 1_555
C32 N4 1_555 1_555
H22 C32 1_555 1_555
N5 Fe1 1_555 1_555
N6 Fe1 1_555 1_555
O3 C36 1_555 1_555
C33 N5 1_555 1_555
C34 C33 1_555 1_555
H23 C34 1_555 1_555
C35 C34 1_555 1_555
H24 C35 1_555 1_555
C36 C35 1_555 1_555
C37 C36 1_555 1_555
H25 C37 1_555 1_555
C38 C33 1_555 1_555
H26 C38 1_555 1_555
C39 O3 1_555 1_555
H27 C39 1_555 1_555
H28 C39 1_555 1_555
H29 C39 1_555 1_555
C40 N5 1_555 1_555
H30 C40 1_555 1_555
C41 N6 1_555 1_555
C42 C41 1_555 1_555
H31 C42 1_555 1_555
C43 C42 1_555 1_555
H32 C43 1_555 1_555
C44 C43 1_555 1_555
C45 N6 1_555 1_555
H33 C45 1_555 1_555
C46 C44 1_555 1_555
C47 C46 1_555 1_555
C48 C46 1_555 1_555
C49 C47 1_555 1_555
C50 C49 1_555 1_555
C51 C48 1_555 1_555
F5 C47 1_555 1_555
F6 C48 1_555 1_555
F7 C49 1_555 1_555
F8 C51 1_555 1_555
P1 F9 1_555 1_555
F10 P1 1_555 1_555
F11 P1 1_555 1_555
F12 P1 1_555 1_555
F13 P1 1_555 1_555
F14 P1 1_555 1_555
N5M C33M 1_555 1_555
N6M C41M 1_555 1_555
O3M C36M 1_555 1_555
C33M C34M 1_555 1_555
C34M H23M 1_555 1_555
C35M C34M 1_555 1_555
H24M C35M 1_555 1_555
C36M C35M 1_555 1_555
C37M C36M 1_555 1_555
H25M C37M 1_555 1_555
C38M C33M 1_555 1_555
H26M C38M 1_555 1_555
C39M O3M 1_555 1_555
H27M C39M 1_555 1_555
H28M C39M 1_555 1_555
H29M C39M 1_555 1_555
C40M N5M 1_555 1_555
H30M C40M 1_555 1_555
C41M C40M 1_555 1_555
C42M C41M 1_555 1_555
H31M C42M 1_555 1_555
C43M C42M 1_555 1_555
H32M C43M 1_555 1_555
C44M C50 1_555 1_555
C45M N6M 1_555 1_555
H33M C45M 1_555 1_555
C46M C49 1_555 1_555
C47M C50 1_555 1_555
C48M C49 1_555 1_555
C49M C46 1_555 1_555
C50M C44 1_555 1_555
C51M C46 1_555 1_555
F5M C47M 1_555 1_555
F6M C48M 1_555 1_555
F7M C49M 1_555 1_555
F8M C51M 1_555 1_555
Fe1M N5M 1_555 1_555
N1M Fe1M 1_555 1_555
N2M Fe1M 1_555 1_555
O1M C4M 1_555 1_555
C1M N1M 1_555 1_555
C2M C1M 1_555 1_555
H1M C2M 1_555 1_555
C3M C2M 1_555 1_555
H2M C3M 1_555 1_555
C4M C3M 1_555 1_555
C5M C4M 1_555 1_555
H3M C5M 1_555 1_555
C6M C1M 1_555 1_555
H4M C6M 1_555 1_555
C7M O1M 1_555 1_555
H5M C7M 1_555 1_555
H6M C7M 1_555 1_555
H7M C7M 1_555 1_555
C8M N1M 1_555 1_555
H8M C8M 1_555 1_555
C9M N2M 1_555 1_555
C10M C9M 1_555 1_555
H9M C10M 1_555 1_555
C11M C10M 1_555 1_555
H10M C11M 1_555 1_555
C12M C11M 1_555 1_555
C13M N2M 1_555 1_555
H11M C13M 1_555 1_555
C14M C12M 1_555 1_555
C15M C14M 1_555 1_555
C16M C15M 1_555 1_555
C17M C16M 1_555 1_555
C18M C17M 1_555 1_555
C19M C14M 1_555 1_555
F1M C19M 1_555 1_555
F2M C18M 1_555 1_555
F3M C15M 1_555 1_555
F4M C16M 1_555 1_555
N3M C20M 1_555 1_555
N4M C28M 1_555 1_555
O2M C23M 1_555 1_555
C20M C21M 1_555 1_555
C21M H12M 1_555 1_555
C22M C21M 1_555 1_555
H13M C22M 1_555 1_555
C23M C22M 1_555 1_555
C24M C23M 1_555 1_555
H14M C24M 1_555 1_555
C25M C20M 1_555 1_555
H15M C25M 1_555 1_555
C26M O2M 1_555 1_555
H16M C26M 1_555 1_555
H17M C26M 1_555 1_555
H18M C26M 1_555 1_555
C27M N3M 1_555 1_555
H19M C27M 1_555 1_555
C28M C27M 1_555 1_555
C29M C28M 1_555 1_555
H20M C29M 1_555 1_555
C30M C29M 1_555 1_555
H21M C30M 1_555 1_555
C31M C17M 1_555 1_555
C32M N4M 1_555 1_555
H22M C32M 1_555 1_555
Fe1N N1N 1_555 1_555
N1N C1N 1_555 1_555
N2N Fe1N 1_555 1_555
O1N C4N 1_555 1_555
C1N C2N 1_555 1_555
C2N H1N 1_555 1_555
C3N C2N 1_555 1_555
H2N C3N 1_555 1_555
C4N C3N 1_555 1_555
C5N C4N 1_555 1_555
H3N C5N 1_555 1_555
C6N C1N 1_555 1_555
H4N C6N 1_555 1_555
C7N O1N 1_555 1_555
H5N C7N 1_555 1_555
H6N C7N 1_555 1_555
H7N C7N 1_555 1_555
C8N N1N 1_555 1_555
H8N C8N 1_555 1_555
C9N N2N 1_555 1_555
C10N C9N 1_555 1_555
H9N C10N 1_555 1_555
C11N C10N 1_555 1_555
H10N C11N 1_555 1_555
C12N C11N 1_555 1_555
C13N N2N 1_555 1_555
H11N C13N 1_555 1_555
C14N C12N 1_555 1_555
C15N C14N 1_555 1_555
C16N C15N 1_555 1_555
C17N C16N 1_555 1_555
C18N C17N 1_555 1_555
C19N C14N 1_555 1_555
F1N C19N 1_555 1_555
F2N C18N 1_555 1_555
F3N C15N 1_555 1_555
F4N C16N 1_555 1_555
N3N Fe1 1_555 1_555
N4N Fe1 1_555 1_555
O2N C23N 1_555 1_555
C20N N3N 1_555 1_555
C21N C20N 1_555 1_555
H12N C21N 1_555 1_555
C22N C21N 1_555 1_555
H13N C22N 1_555 1_555
C23N C22N 1_555 1_555
C24N C23N 1_555 1_555
H14N C24N 1_555 1_555
C25N C20N 1_555 1_555
H15N C25N 1_555 1_555
C26N O2N 1_555 1_555
H16N C26N 1_555 1_555
H17N C26N 1_555 1_555
H18N C26N 1_555 1_555
C27N N3N 1_555 1_555
H19N C27N 1_555 1_555
C28N N4N 1_555 1_555
C29N C28N 1_555 1_555
H20N C29N 1_555 1_555
C30N C29N 1_555 1_555
H21N C30N 1_555 1_555
C31N C17N 1_555 1_555
C32N N4N 1_555 1_555
H22N C32N 1_555 1_555
N5N Fe1N 1_555 1_555
N6N Fe1N 1_555 1_555
O3N C36N 1_555 1_555
C33N N5N 1_555 1_555
C34N C33N 1_555 1_555
H23N C34N 1_555 1_555
C35N C34N 1_555 1_555
H24N C35N 1_555 1_555
C36N C35N 1_555 1_555
C37N C36N 1_555 1_555
H25N C37N 1_555 1_555
C38N C33N 1_555 1_555
H26N C38N 1_555 1_555
C39N O3N 1_555 1_555
H27N C39N 1_555 1_555
H28N C39N 1_555 1_555
H29N C39N 1_555 1_555
C40N N5N 1_555 1_555
H30N C40N 1_555 1_555
C41N N6N 1_555 1_555
C42N C41N 1_555 1_555
H31N C42N 1_555 1_555
C43N C42N 1_555 1_555
H32N C43N 1_555 1_555
C44N C43N 1_555 1_555
C45N N6N 1_555 1_555
H33N C45N 1_555 1_555
C46N C44N 1_555 1_555
C47N C46N 1_555 1_555
C48N C46N 1_555 1_555
C49N C47N 1_555 1_555
C50N C49N 1_555 1_555
C51N C48N 1_555 1_555
F5N C47N 1_555 1_555
F6N C48N 1_555 1_555
F7N C49N 1_555 1_555
F8N C51N 1_555 1_555
N5B C33B 1_555 1_555
N6B C41B 1_555 1_555
O3B C36B 1_555 1_555
C33B C34B 1_555 1_555
C34B H23B 1_555 1_555
C35B C34B 1_555 1_555
H24B C35B 1_555 1_555
C36B C35B 1_555 1_555
C37B C36B 1_555 1_555
H25B C37B 1_555 1_555
C38B C33B 1_555 1_555
H26B C38B 1_555 1_555
C39B O3B 1_555 1_555
H27B C39B 1_555 1_555
H28B C39B 1_555 1_555
H29B C39B 1_555 1_555
C40B N5B 1_555 1_555
H30B C40B 1_555 1_555
C41B C40B 1_555 1_555
C42B C41B 1_555 1_555
H31B C42B 1_555 1_555
C43B C42B 1_555 1_555
H32B C43B 1_555 1_555
C44B C50N 1_555 1_555
C45B N6B 1_555 1_555
H33B C45B 1_555 1_555
C46B C49N 1_555 1_555
C47B C50N 1_555 1_555
C48B C49N 1_555 1_555
C49B C46N 1_555 1_555
C50B C44N 1_555 1_555
C51B C46N 1_555 1_555
F5B C47B 1_555 1_555
F6B C48B 1_555 1_555
F7B C49B 1_555 1_555
F8B C51B 1_555 1_555
Fe1O N3 1_555 1_555
N1O Fe1O 1_555 1_555
N2O Fe1O 1_555 1_555
O1O C4O 1_555 1_555
C1O N1O 1_555 1_555
C2O C1O 1_555 1_555
H1O C2O 1_555 1_555
C3O C2O 1_555 1_555
H2O C3O 1_555 1_555
C4O C3O 1_555 1_555
C5O C4O 1_555 1_555
H3O C5O 1_555 1_555
C6O C1O 1_555 1_555
H4O C6O 1_555 1_555
C7O O1O 1_555 1_555
H5O C7O 1_555 1_555
H6O C7O 1_555 1_555
H7O C7O 1_555 1_555
C8O N1O 1_555 1_555
H8O C8O 1_555 1_555
C9O N2O 1_555 1_555
C10O C9O 1_555 1_555
H9O C10O 1_555 1_555
C11O C10O 1_555 1_555
H10O C11O 1_555 1_555
C12O C11O 1_555 1_555
C13O N2O 1_555 1_555
H11O C13O 1_555 1_555
C14O C12O 1_555 1_555
C15O C14O 1_555 1_555
C16O C15O 1_555 1_555
C17O C16O 1_555 1_555
C18O C17O 1_555 1_555
C19O C14O 1_555 1_555
F1O C19O 1_555 1_555
F2O C18O 1_555 1_555
F3O C15O 1_555 1_555
F4O C16O 1_555 1_555
N3O C20O 1_555 1_555
N4O C28O 1_555 1_555
O2O C23O 1_555 1_555
C20O C21O 1_555 1_555
C21O H12O 1_555 1_555
C22O C21O 1_555 1_555
H13O C22O 1_555 1_555
C23O C22O 1_555 1_555
C24O C23O 1_555 1_555
H14O C24O 1_555 1_555
C25O C20O 1_555 1_555
H15O C25O 1_555 1_555
C26O O2O 1_555 1_555
H16O C26O 1_555 1_555
H17O C26O 1_555 1_555
H18O C26O 1_555 1_555
C27O N3O 1_555 1_555
H19O C27O 1_555 1_555
C28O C27O 1_555 1_555
C29O C28O 1_555 1_555
H20O C29O 1_555 1_555
C30O C29O 1_555 1_555
H21O C30O 1_555 1_555
C31O C17O 1_555 1_555
C32O N4O 1_555 1_555
H22O C32O 1_555 1_555
N5O Fe1O 1_555 1_555
N6O Fe1O 1_555 1_555
O3O C36O 1_555 1_555
C33O N5O 1_555 1_555
C34O C33O 1_555 1_555
H23O C34O 1_555 1_555
C35O C34O 1_555 1_555
H24O C35O 1_555 1_555
C36O C35O 1_555 1_555
C37O C36O 1_555 1_555
H25O C37O 1_555 1_555
C38O C33O 1_555 1_555
H26O C38O 1_555 1_555
C39O O3O 1_555 1_555
H27O C39O 1_555 1_555
H28O C39O 1_555 1_555
H29O C39O 1_555 1_555
C40O N5O 1_555 1_555
H30O C40O 1_555 1_555
C41O N6O 1_555 1_555
C42O C41O 1_555 1_555
H31O C42O 1_555 1_555
C43O C42O 1_555 1_555
H32O C43O 1_555 1_555
C44O C43O 1_555 1_555
C45O N6O 1_555 1_555
H33O C45O 1_555 1_555
C46O C44O 1_555 1_555
C47O C46O 1_555 1_555
C48O C46O 1_555 1_555
C49O C47O 1_555 1_555
C50O C49O 1_555 1_555
C51O C48O 1_555 1_555
F5O C47O 1_555 1_555
F6O C48O 1_555 1_555
F7O C49O 1_555 1_555
F8O C51O 1_555 1_555
N5C C33C 1_555 1_555
N6C C41C 1_555 1_555
O3C C36C 1_555 1_555
C33C C34C 1_555 1_555
C34C H23C 1_555 1_555
C35C C34C 1_555 1_555
H24C C35C 1_555 1_555
C36C C35C 1_555 1_555
C37C C36C 1_555 1_555
H25C C37C 1_555 1_555
C38C C33C 1_555 1_555
H26C C38C 1_555 1_555
C39C O3C 1_555 1_555
H27C C39C 1_555 1_555
H28C C39C 1_555 1_555
H29C C39C 1_555 1_555
C40C N5C 1_555 1_555
H30C C40C 1_555 1_555
C41C C40C 1_555 1_555
C42C C41C 1_555 1_555
H31C C42C 1_555 1_555
C43C C42C 1_555 1_555
H32C C43C 1_555 1_555
C44C C50O 1_555 1_555
C45C N6C 1_555 1_555
H33C C45C 1_555 1_555
C46C C49O 1_555 1_555
C47C C50O 1_555 1_555
C48C C49O 1_555 1_555
C49C C46O 1_555 1_555
C50C C44O 1_555 1_555
C51C C46O 1_555 1_555
F5C C47C 1_555 1_555
F6C C48C 1_555 1_555
F7C C49C 1_555 1_555
F8C C51C 1_555 1_555
Fe1A N3O 1_555 1_555
N1A Fe1A 1_555 1_555
N2A Fe1A 1_555 1_555
O1A C4A 1_555 1_555
C1A N1A 1_555 1_555
C2A C1A 1_555 1_555
H1A C2A 1_555 1_555
C3A C2A 1_555 1_555
H2A C3A 1_555 1_555
C4A C3A 1_555 1_555
C5A C4A 1_555 1_555
H3A C5A 1_555 1_555
C6A C1A 1_555 1_555
H4A C6A 1_555 1_555
C7A O1A 1_555 1_555
H5A C7A 1_555 1_555
H6A C7A 1_555 1_555
H7A C7A 1_555 1_555
C8A N1A 1_555 1_555
H8A C8A 1_555 1_555
C9A N2A 1_555 1_555
C10A C9A 1_555 1_555
H9A C10A 1_555 1_555
C11A C10A 1_555 1_555
H10A C11A 1_555 1_555
C12A C11A 1_555 1_555
C13A N2A 1_555 1_555
H11A C13A 1_555 1_555
C14A C12A 1_555 1_555
C15A C14A 1_555 1_555
C16A C15A 1_555 1_555
C17A C16A 1_555 1_555
C18A C17A 1_555 1_555
C19A C14A 1_555 1_555
F1A C19A 1_555 1_555
F2A C18A 1_555 1_555
F3A C15A 1_555 1_555
F4A C16A 1_555 1_555
N3A Fe1N 1_555 1_555
N4A Fe1N 1_555 1_555
O2A C23A 1_555 1_555
C20A N3A 1_555 1_555
C21A C20A 1_555 1_555
H12A C21A 1_555 1_555
C22A C21A 1_555 1_555
H13A C22A 1_555 1_555
C23A C22A 1_555 1_555
C24A C23A 1_555 1_555
H14A C24A 1_555 1_555
C25A C20A 1_555 1_555
H15A C25A 1_555 1_555
C26A O2A 1_555 1_555
H16A C26A 1_555 1_555
H17A C26A 1_555 1_555
H18A C26A 1_555 1_555
C27A N3A 1_555 1_555
H19A C27A 1_555 1_555
C28A N4A 1_555 1_555
C29A C28A 1_555 1_555
H20A C29A 1_555 1_555
C30A C29A 1_555 1_555
H21A C30A 1_555 1_555
C31A C17A 1_555 1_555
C32A N4A 1_555 1_555
H22A C32A 1_555 1_555
N5A Fe1A 1_555 1_555
N6A Fe1A 1_555 1_555
O3A C36A 1_555 1_555
C33A N5A 1_555 1_555
C34A C33A 1_555 1_555
H23A C34A 1_555 1_555
C35A C34A 1_555 1_555
H24A C35A 1_555 1_555
C36A C35A 1_555 1_555
C37A C36A 1_555 1_555
H25A C37A 1_555 1_555
C38A C33A 1_555 1_555
H26A C38A 1_555 1_555
C39A O3A 1_555 1_555
H27A C39A 1_555 1_555
H28A C39A 1_555 1_555
H29A C39A 1_555 1_555
C40A N5A 1_555 1_555
H30A C40A 1_555 1_555
C41A N6A 1_555 1_555
C42A C41A 1_555 1_555
H31A C42A 1_555 1_555
C43A C42A 1_555 1_555
H32A C43A 1_555 1_555
C44A C43A 1_555 1_555
C45A N6A 1_555 1_555
H33A C45A 1_555 1_555
C46A C44A 1_555 1_555
C47A C46A 1_555 1_555
C48A C46A 1_555 1_555
C49A C47A 1_555 1_555
C50A C49A 1_555 1_555
C51A C48A 1_555 1_555
F5A C47A 1_555 1_555
F6A C48A 1_555 1_555
F7A C49A 1_555 1_555
F8A C51A 1_555 1_555
N5L C33L 1_555 1_555
N6L C41L 1_555 1_555
O3L C36L 1_555 1_555
C33L C34L 1_555 1_555
C34L H23L 1_555 1_555
C35L C34L 1_555 1_555
H24L C35L 1_555 1_555
C36L C35L 1_555 1_555
C37L C36L 1_555 1_555
H25L C37L 1_555 1_555
C38L C33L 1_555 1_555
H26L C38L 1_555 1_555
C39L O3L 1_555 1_555
H27L C39L 1_555 1_555
H28L C39L 1_555 1_555
H29L C39L 1_555 1_555
C40L N5L 1_555 1_555
H30L C40L 1_555 1_555
C41L C40L 1_555 1_555
C42L C41L 1_555 1_555
H31L C42L 1_555 1_555
C43L C42L 1_555 1_555
H32L C43L 1_555 1_555
C44L C50A 1_555 1_555
C45L N6L 1_555 1_555
H33L C45L 1_555 1_555
C46L C49A 1_555 1_555
C47L C50A 1_555 1_555
C48L C49A 1_555 1_555
C49L C46A 1_555 1_555
C50L C44A 1_555 1_555
C51L C46A 1_555 1_555
F5L C47L 1_555 1_555
F6L C48L 1_555 1_555
F7L C49L 1_555 1_555
F8L C51L 1_555 1_555
Fe1B N3M 1_555 1_555
N1B Fe1B 1_555 1_555
N2B Fe1B 1_555 1_555
O1B C4B 1_555 1_555
C1B N1B 1_555 1_555
C2B C1B 1_555 1_555
H1B C2B 1_555 1_555
C3B C2B 1_555 1_555
H2B C3B 1_555 1_555
C4B C3B 1_555 1_555
C5B C4B 1_555 1_555
H3B C5B 1_555 1_555
C6B C1B 1_555 1_555
H4B C6B 1_555 1_555
C7B O1B 1_555 1_555
H5B C7B 1_555 1_555
H6B C7B 1_555 1_555
H7B C7B 1_555 1_555
C8B N1B 1_555 1_555
H8B C8B 1_555 1_555
C9B N2B 1_555 1_555
C10B C9B 1_555 1_555
H9B C10B 1_555 1_555
C11B C10B 1_555 1_555
H10B C11B 1_555 1_555
C12B C11B 1_555 1_555
C13B N2B 1_555 1_555
H11B C13B 1_555 1_555
C14B C12B 1_555 1_555
C15B C14B 1_555 1_555
C16B C15B 1_555 1_555
C17B C16B 1_555 1_555
C18B C17B 1_555 1_555
C19B C14B 1_555 1_555
F1B C19B 1_555 1_555
F2B C18B 1_555 1_555
F3B C15B 1_555 1_555
F4B C16B 1_555 1_555
N3B C20B 1_555 1_555
N4B C28B 1_555 1_555
O2B C23B 1_555 1_555
C20B C21B 1_555 1_555
C21B H12B 1_555 1_555
C22B C21B 1_555 1_555
H13B C22B 1_555 1_555
C23B C22B 1_555 1_555
C24B C23B 1_555 1_555
H14B C24B 1_555 1_555
C25B C20B 1_555 1_555
H15B C25B 1_555 1_555
C26B O2B 1_555 1_555
H16B C26B 1_555 1_555
H17B C26B 1_555 1_555
H18B C26B 1_555 1_555
C27B N3B 1_555 1_555
H19B C27B 1_555 1_555
C28B C27B 1_555 1_555
C29B C28B 1_555 1_555
H20B C29B 1_555 1_555
C30B C29B 1_555 1_555
H21B C30B 1_555 1_555
C31B C17B 1_555 1_555
C32B N4B 1_555 1_555
H22B C32B 1_555 1_555
Fe1C N5C 1_555 1_555
N1C Fe1C 1_555 1_555
N2C Fe1C 1_555 1_555
O1C C4C 1_555 1_555
C1C N1C 1_555 1_555
C2C C1C 1_555 1_555
H1C C2C 1_555 1_555
C3C C2C 1_555 1_555
H2C C3C 1_555 1_555
C4C C3C 1_555 1_555
C5C C4C 1_555 1_555
H3C C5C 1_555 1_555
C6C C1C 1_555 1_555
H4C C6C 1_555 1_555
C7C O1C 1_555 1_555
H5C C7C 1_555 1_555
H6C C7C 1_555 1_555
H7C C7C 1_555 1_555
C8C N1C 1_555 1_555
H8C C8C 1_555 1_555
C9C N2C 1_555 1_555
C10C C9C 1_555 1_555
H9C C10C 1_555 1_555
C11C C10C 1_555 1_555
H10C C11C 1_555 1_555
C12C C11C 1_555 1_555
C13C N2C 1_555 1_555
H11C C13C 1_555 1_555
C14C C12C 1_555 1_555
C15C C14C 1_555 1_555
C16C C15C 1_555 1_555
C17C C16C 1_555 1_555
C18C C17C 1_555 1_555
C19C C14C 1_555 1_555
F1C C19C 1_555 1_555
F2C C18C 1_555 1_555
F3C C15C 1_555 1_555
F4C C16C 1_555 1_555
N3C Fe1M 1_555 1_555
N4C Fe1M 1_555 1_555
O2C C23C 1_555 1_555
C20C N3C 1_555 1_555
C21C C20C 1_555 1_555
H12C C21C 1_555 1_555
C22C C21C 1_555 1_555
H13C C22C 1_555 1_555
C23C C22C 1_555 1_555
C24C C23C 1_555 1_555
H14C C24C 1_555 1_555
C25C C20C 1_555 1_555
H15C C25C 1_555 1_555
C26C O2C 1_555 1_555
H16C C26C 1_555 1_555
H17C C26C 1_555 1_555
H18C C26C 1_555 1_555
C27C N3C 1_555 1_555
H19C C27C 1_555 1_555
C28C N4C 1_555 1_555
C29C C28C 1_555 1_555
H20C C29C 1_555 1_555
C30C C29C 1_555 1_555
H21C C30C 1_555 1_555
C31C C17C 1_555 1_555
C32C N4C 1_555 1_555
H22C C32C 1_555 1_555
Fe1L N5L 1_555 1_555
N1L Fe1L 1_555 1_555
N2L Fe1L 1_555 1_555
O1L C4L 1_555 1_555
C1L N1L 1_555 1_555
C2L C1L 1_555 1_555
H1L C2L 1_555 1_555
C3L C2L 1_555 1_555
H2L C3L 1_555 1_555
C4L C3L 1_555 1_555
C5L C4L 1_555 1_555
H3L C5L 1_555 1_555
C6L C1L 1_555 1_555
H4L C6L 1_555 1_555
C7L O1L 1_555 1_555
H5L C7L 1_555 1_555
H6L C7L 1_555 1_555
H7L C7L 1_555 1_555
C8L N1L 1_555 1_555
H8L C8L 1_555 1_555
C9L N2L 1_555 1_555
C10L C9L 1_555 1_555
H9L C10L 1_555 1_555
C11L C10L 1_555 1_555
H10L C11L 1_555 1_555
C12L C11L 1_555 1_555
C13L N2L 1_555 1_555
H11L C13L 1_555 1_555
C14L C12L 1_555 1_555
C15L C14L 1_555 1_555
C16L C15L 1_555 1_555
C17L C16L 1_555 1_555
C18L C17L 1_555 1_555
C19L C14L 1_555 1_555
F1L C19L 1_555 1_555
F2L C18L 1_555 1_555
F3L C15L 1_555 1_555
F4L C16L 1_555 1_555
N3L Fe1C 1_555 1_555
N4L Fe1C 1_555 1_555
O2L C23L 1_555 1_555
C20L N3L 1_555 1_555
C21L C20L 1_555 1_555
H12L C21L 1_555 1_555
C22L C21L 1_555 1_555
H13L C22L 1_555 1_555
C23L C22L 1_555 1_555
C24L C23L 1_555 1_555
H14L C24L 1_555 1_555
C25L C20L 1_555 1_555
H15L C25L 1_555 1_555
C26L O2L 1_555 1_555
H16L C26L 1_555 1_555
H17L C26L 1_555 1_555
H18L C26L 1_555 1_555
C27L N3L 1_555 1_555
H19L C27L 1_555 1_555
C28L N4L 1_555 1_555
C29L C28L 1_555 1_555
H20L C29L 1_555 1_555
C30L C29L 1_555 1_555
H21L C30L 1_555 1_555
C31L C17L 1_555 1_555
C32L N4L 1_555 1_555
H22L C32L 1_555 1_555
C5 C6 1_555 1_555
C8 C9 1_555 1_555
C12 C13 1_555 1_555
C18 C19 1_555 1_555
N4 Fe1O 1_555 1_555
C24 C25 1_555 1_555
C30 C31 1_555 1_555
C31 C32 1_555 1_555
C37 C38 1_555 1_555
C40 C41 1_555 1_555
C44 C45 1_555 1_555
C47 C50M 1_555 1_555
C47 C51M 1_555 1_555
C48 C49M 1_555 1_555
C48 C50M 1_555 1_555
C48 C51M 1_555 1_555
C50 C51 1_555 1_555
C50 C48M 1_555 1_555
C51 C46M 1_555 1_555
C51 C47M 1_555 1_555
C51 C48M 1_555 1_555
N6M Fe1M 1_555 1_555
C37M C38M 1_555 1_555
C43M C44M 1_555 1_555
C44M C45M 1_555 1_555
C44M C46M 1_555 1_555
C46M C47M 1_555 1_555
C46M C48M 1_555 1_555
C47M C49M 1_555 1_555
C48M C51M 1_555 1_555
C49M C50M 1_555 1_555
C50M C51M 1_555 1_555
C5M C6M 1_555 1_555
C8M C9M 1_555 1_555
C12M C13M 1_555 1_555
C18M C19M 1_555 1_555
N4M Fe1B 1_555 1_555
C24M C25M 1_555 1_555
C30M C31M 1_555 1_555
C31M C32M 1_555 1_555
C5N C6N 1_555 1_555
C8N C9N 1_555 1_555
C12N C13N 1_555 1_555
C18N C19N 1_555 1_555
C24N C25N 1_555 1_555
C27N C28N 1_555 1_555
C30N C31N 1_555 1_555
C31N C32N 1_555 1_555
C37N C38N 1_555 1_555
C40N C41N 1_555 1_555
C44N C45N 1_555 1_555
C47N C50B 1_555 1_555
C47N C51B 1_555 1_555
C48N C49B 1_555 1_555
C48N C50B 1_555 1_555
C48N C51B 1_555 1_555
C50N C51N 1_555 1_555
C50N C48B 1_555 1_555
C51N C46B 1_555 1_555
C51N C47B 1_555 1_555
C51N C48B 1_555 1_555
N5B Fe1B 1_555 1_555
N6B Fe1B 1_555 1_555
C37B C38B 1_555 1_555
C43B C44B 1_555 1_555
C44B C45B 1_555 1_555
C44B C46B 1_555 1_555
C46B C47B 1_555 1_555
C46B C48B 1_555 1_555
C47B C49B 1_555 1_555
C48B C51B 1_555 1_555
C49B C50B 1_555 1_555
C50B C51B 1_555 1_555
C5O C6O 1_555 1_555
C8O C9O 1_555 1_555
C12O C13O 1_555 1_555
C18O C19O 1_555 1_555
N4O Fe1A 1_555 1_555
C24O C25O 1_555 1_555
C30O C31O 1_555 1_555
C31O C32O 1_555 1_555
C37O C38O 1_555 1_555
C40O C41O 1_555 1_555
C44O C45O 1_555 1_555
C47O C50C 1_555 1_555
C47O C51C 1_555 1_555
C48O C49C 1_555 1_555
C48O C50C 1_555 1_555
C48O C51C 1_555 1_555
C50O C51O 1_555 1_555
C50O C48C 1_555 1_555
C51O C46C 1_555 1_555
C51O C47C 1_555 1_555
C51O C48C 1_555 1_555
N6C Fe1C 1_555 1_555
C37C C38C 1_555 1_555
C43C C44C 1_555 1_555
C44C C45C 1_555 1_555
C44C C46C 1_555 1_555
C46C C47C 1_555 1_555
C46C C48C 1_555 1_555
C47C C49C 1_555 1_555
C48C C51C 1_555 1_555
C49C C50C 1_555 1_555
C50C C51C 1_555 1_555
C5A C6A 1_555 1_555
C8A C9A 1_555 1_555
C12A C13A 1_555 1_555
C18A C19A 1_555 1_555
C24A C25A 1_555 1_555
C27A C28A 1_555 1_555
C30A C31A 1_555 1_555
C31A C32A 1_555 1_555
C37A C38A 1_555 1_555
C40A C41A 1_555 1_555
C44A C45A 1_555 1_555
C47A C50L 1_555 1_555
C47A C51L 1_555 1_555
C48A C49L 1_555 1_555
C48A C50L 1_555 1_555
C48A C51L 1_555 1_555
C50A C51A 1_555 1_555
C50A C48L 1_555 1_555
C51A C46L 1_555 1_555
C51A C47L 1_555 1_555
C51A C48L 1_555 1_555
N6L Fe1L 1_555 1_555
C37L C38L 1_555 1_555
C43L C44L 1_555 1_555
C44L C45L 1_555 1_555
C44L C46L 1_555 1_555
C46L C47L 1_555 1_555
C46L C48L 1_555 1_555
C47L C49L 1_555 1_555
C48L C51L 1_555 1_555
C49L C50L 1_555 1_555
C50L C51L 1_555 1_555
C5B C6B 1_555 1_555
C8B C9B 1_555 1_555
C12B C13B 1_555 1_555
C18B C19B 1_555 1_555
N3B Fe1L 1_555 1_555
N4B Fe1L 1_555 1_555
C24B C25B 1_555 1_555
C30B C31B 1_555 1_555
C31B C32B 1_555 1_555
C5C C6C 1_555 1_555
C8C C9C 1_555 1_555
C12C C13C 1_555 1_555
C18C C19C 1_555 1_555
C24C C25C 1_555 1_555
C27C C28C 1_555 1_555
C30C C31C 1_555 1_555
C31C C32C 1_555 1_555
C5L C6L 1_555 1_555
C8L C9L 1_555 1_555
C12L C13L 1_555 1_555
C18L C19L 1_555 1_555
C24L C25L 1_555 1_555
C27L C28L 1_555 1_555
C30L C31L 1_555 1_555
C31L C32L 1_555 1_555

#END
