# generated using pymatgen
data_FePH33C51N6O3F14
_symmetry_space_group_name_H-M   'P 1'
_cell_length_a   38.41000000
_cell_length_b   38.41000000
_cell_length_c   38.41000000
_cell_angle_alpha   90.00000000
_cell_angle_beta   90.00000000
_cell_angle_gamma   90.00000000
_symmetry_Int_Tables_number   1
_chemical_formula_structural   FePH33C51N6O3F14
_chemical_formula_sum   'Fe24 P24 H792 C1224 N144 O72 F336'
_cell_volume   56667.35232100
_cell_formula_units_Z   24
loop_
 _symmetry_equiv_pos_site_id
 _symmetry_equiv_pos_as_xyz
  1  'x, y, z'
loop_
 _atom_site_type_symbol
 _atom_site_label
 _atom_site_symmetry_multiplicity
 _atom_site_fract_x
 _atom_site_fract_y
 _atom_site_fract_z
 _atom_site_occupancy
  Fe  Fe1  1  0.310860  0.620380  0.153550  1.0
  Fe  Fe2  1  0.689140  0.379620  0.153550  1.0
  Fe  Fe3  1  0.689140  0.620380  0.846450  1.0
  Fe  Fe4  1  0.310860  0.379620  0.846450  1.0
  Fe  Fe5  1  0.153550  0.310860  0.620380  1.0
  Fe  Fe6  1  0.153550  0.689140  0.379620  1.0
  Fe  Fe7  1  0.846450  0.689140  0.620380  1.0
  Fe  Fe8  1  0.846450  0.310860  0.379620  1.0
  Fe  Fe9  1  0.620380  0.153550  0.310860  1.0
  Fe  Fe10  1  0.379620  0.153550  0.689140  1.0
  Fe  Fe11  1  0.620380  0.846450  0.689140  1.0
  Fe  Fe12  1  0.379620  0.846450  0.310860  1.0
  Fe  Fe13  1  0.620380  0.310860  0.846450  1.0
  Fe  Fe14  1  0.379620  0.689140  0.846450  1.0
  Fe  Fe15  1  0.620380  0.689140  0.153550  1.0
  Fe  Fe16  1  0.379620  0.310860  0.153550  1.0
  Fe  Fe17  1  0.310860  0.153550  0.379620  1.0
  Fe  Fe18  1  0.689140  0.153550  0.620380  1.0
  Fe  Fe19  1  0.689140  0.846450  0.379620  1.0
  Fe  Fe20  1  0.310860  0.846450  0.620380  1.0
  Fe  Fe21  1  0.153550  0.620380  0.689140  1.0
  Fe  Fe22  1  0.153550  0.379620  0.310860  1.0
  Fe  Fe23  1  0.846450  0.620380  0.310860  1.0
  Fe  Fe24  1  0.846450  0.379620  0.689140  1.0
  P  P25  1  0.471800  0.618900  0.172100  1
  P  P26  1  0.528200  0.381100  0.172100  1
  P  P27  1  0.528200  0.618900  0.827900  1
  P  P28  1  0.471800  0.381100  0.827900  1
  P  P29  1  0.172100  0.471800  0.618900  1
  P  P30  1  0.172100  0.528200  0.381100  1
  P  P31  1  0.827900  0.528200  0.618900  1
  P  P32  1  0.827900  0.471800  0.381100  1
  P  P33  1  0.618900  0.172100  0.471800  1
  P  P34  1  0.381100  0.172100  0.528200  1
  P  P35  1  0.618900  0.827900  0.528200  1
  P  P36  1  0.381100  0.827900  0.471800  1
  P  P37  1  0.618900  0.471800  0.827900  1
  P  P38  1  0.381100  0.528200  0.827900  1
  P  P39  1  0.618900  0.528200  0.172100  1
  P  P40  1  0.381100  0.471800  0.172100  1
  P  P41  1  0.471800  0.172100  0.381100  1
  P  P42  1  0.528200  0.172100  0.618900  1
  P  P43  1  0.528200  0.827900  0.381100  1
  P  P44  1  0.471800  0.827900  0.618900  1
  P  P45  1  0.172100  0.618900  0.528200  1
  P  P46  1  0.172100  0.381100  0.471800  1
  P  P47  1  0.827900  0.618900  0.471800  1
  P  P48  1  0.827900  0.381100  0.528200  1
  H  H49  1  0.337100  0.681700  0.093400  1.0
  H  H50  1  0.662900  0.318300  0.093400  1.0
  H  H51  1  0.662900  0.681700  0.906600  1.0
  H  H52  1  0.337100  0.318300  0.906600  1.0
  H  H53  1  0.093400  0.337100  0.681700  1.0
  H  H54  1  0.093400  0.662900  0.318300  1.0
  H  H55  1  0.906600  0.662900  0.681700  1.0
  H  H56  1  0.906600  0.337100  0.318300  1.0
  H  H57  1  0.681700  0.093400  0.337100  1.0
  H  H58  1  0.318300  0.093400  0.662900  1.0
  H  H59  1  0.681700  0.906600  0.662900  1.0
  H  H60  1  0.318300  0.906600  0.337100  1.0
  H  H61  1  0.681700  0.337100  0.906600  1.0
  H  H62  1  0.318300  0.662900  0.906600  1.0
  H  H63  1  0.681700  0.662900  0.093400  1.0
  H  H64  1  0.318300  0.337100  0.093400  1.0
  H  H65  1  0.337100  0.093400  0.318300  1.0
  H  H66  1  0.662900  0.093400  0.681700  1.0
  H  H67  1  0.662900  0.906600  0.318300  1.0
  H  H68  1  0.337100  0.906600  0.681700  1.0
  H  H69  1  0.093400  0.681700  0.662900  1.0
  H  H70  1  0.093400  0.318300  0.337100  1.0
  H  H71  1  0.906600  0.681700  0.337100  1.0
  H  H72  1  0.906600  0.318300  0.662900  1.0
  H  H73  1  0.345300  0.742000  0.097400  1.0
  H  H74  1  0.654700  0.258000  0.097400  1.0
  H  H75  1  0.654700  0.742000  0.902600  1.0
  H  H76  1  0.345300  0.258000  0.902600  1.0
  H  H77  1  0.097400  0.345300  0.742000  1.0
  H  H78  1  0.097400  0.654700  0.258000  1.0
  H  H79  1  0.902600  0.654700  0.742000  1.0
  H  H80  1  0.902600  0.345300  0.258000  1.0
  H  H81  1  0.742000  0.097400  0.345300  1.0
  H  H82  1  0.258000  0.097400  0.654700  1.0
  H  H83  1  0.742000  0.902600  0.654700  1.0
  H  H84  1  0.258000  0.902600  0.345300  1.0
  H  H85  1  0.742000  0.345300  0.902600  1.0
  H  H86  1  0.258000  0.654700  0.902600  1.0
  H  H87  1  0.742000  0.654700  0.097400  1.0
  H  H88  1  0.258000  0.345300  0.097400  1.0
  H  H89  1  0.345300  0.097400  0.258000  1.0
  H  H90  1  0.654700  0.097400  0.742000  1.0
  H  H91  1  0.654700  0.902600  0.258000  1.0
  H  H92  1  0.345300  0.902600  0.742000  1.0
  H  H93  1  0.097400  0.742000  0.654700  1.0
  H  H94  1  0.097400  0.258000  0.345300  1.0
  H  H95  1  0.902600  0.742000  0.345300  1.0
  H  H96  1  0.902600  0.258000  0.654700  1.0
  H  H97  1  0.243100  0.754300  0.120900  1.0
  H  H98  1  0.756900  0.245700  0.120900  1.0
  H  H99  1  0.756900  0.754300  0.879100  1.0
  H  H100  1  0.243100  0.245700  0.879100  1.0
  H  H101  1  0.120900  0.243100  0.754300  1.0
  H  H102  1  0.120900  0.756900  0.245700  1.0
  H  H103  1  0.879100  0.756900  0.754300  1.0
  H  H104  1  0.879100  0.243100  0.245700  1.0
  H  H105  1  0.754300  0.120900  0.243100  1.0
  H  H106  1  0.245700  0.120900  0.756900  1.0
  H  H107  1  0.754300  0.879100  0.756900  1.0
  H  H108  1  0.245700  0.879100  0.243100  1.0
  H  H109  1  0.754300  0.243100  0.879100  1.0
  H  H110  1  0.245700  0.756900  0.879100  1.0
  H  H111  1  0.754300  0.756900  0.120900  1.0
  H  H112  1  0.245700  0.243100  0.120900  1.0
  H  H113  1  0.243100  0.120900  0.245700  1.0
  H  H114  1  0.756900  0.120900  0.754300  1.0
  H  H115  1  0.756900  0.879100  0.245700  1.0
  H  H116  1  0.243100  0.879100  0.754300  1.0
  H  H117  1  0.120900  0.754300  0.756900  1.0
  H  H118  1  0.120900  0.245700  0.243100  1.0
  H  H119  1  0.879100  0.754300  0.243100  1.0
  H  H120  1  0.879100  0.245700  0.756900  1.0
  H  H121  1  0.235000  0.694000  0.116900  1.0
  H  H122  1  0.765000  0.306000  0.116900  1.0
  H  H123  1  0.765000  0.694000  0.883100  1.0
  H  H124  1  0.235000  0.306000  0.883100  1.0
  H  H125  1  0.116900  0.235000  0.694000  1.0
  H  H126  1  0.116900  0.765000  0.306000  1.0
  H  H127  1  0.883100  0.765000  0.694000  1.0
  H  H128  1  0.883100  0.235000  0.306000  1.0
  H  H129  1  0.694000  0.116900  0.235000  1.0
  H  H130  1  0.306000  0.116900  0.765000  1.0
  H  H131  1  0.694000  0.883100  0.765000  1.0
  H  H132  1  0.306000  0.883100  0.235000  1.0
  H  H133  1  0.694000  0.235000  0.883100  1.0
  H  H134  1  0.306000  0.765000  0.883100  1.0
  H  H135  1  0.694000  0.765000  0.116900  1.0
  H  H136  1  0.306000  0.235000  0.116900  1.0
  H  H137  1  0.235000  0.116900  0.306000  1.0
  H  H138  1  0.765000  0.116900  0.694000  1.0
  H  H139  1  0.765000  0.883100  0.306000  1.0
  H  H140  1  0.235000  0.883100  0.694000  1.0
  H  H141  1  0.116900  0.694000  0.765000  1.0
  H  H142  1  0.116900  0.306000  0.235000  1.0
  H  H143  1  0.883100  0.694000  0.235000  1.0
  H  H144  1  0.883100  0.306000  0.765000  1.0
  H  H145  1  0.256000  0.809500  0.119400  1.0
  H  H146  1  0.744000  0.190500  0.119400  1.0
  H  H147  1  0.744000  0.809500  0.880600  1.0
  H  H148  1  0.256000  0.190500  0.880600  1.0
  H  H149  1  0.119400  0.256000  0.809500  1.0
  H  H150  1  0.119400  0.744000  0.190500  1.0
  H  H151  1  0.880600  0.744000  0.809500  1.0
  H  H152  1  0.880600  0.256000  0.190500  1.0
  H  H153  1  0.809500  0.119400  0.256000  1.0
  H  H154  1  0.190500  0.119400  0.744000  1.0
  H  H155  1  0.809500  0.880600  0.744000  1.0
  H  H156  1  0.190500  0.880600  0.256000  1.0
  H  H157  1  0.809500  0.256000  0.880600  1.0
  H  H158  1  0.190500  0.744000  0.880600  1.0
  H  H159  1  0.809500  0.744000  0.119400  1.0
  H  H160  1  0.190500  0.256000  0.119400  1.0
  H  H161  1  0.256000  0.119400  0.190500  1.0
  H  H162  1  0.744000  0.119400  0.809500  1.0
  H  H163  1  0.744000  0.880600  0.190500  1.0
  H  H164  1  0.256000  0.880600  0.809500  1.0
  H  H165  1  0.119400  0.809500  0.744000  1.0
  H  H166  1  0.119400  0.190500  0.256000  1.0
  H  H167  1  0.880600  0.809500  0.256000  1.0
  H  H168  1  0.880600  0.190500  0.744000  1.0
  H  H169  1  0.284800  0.838400  0.111400  1.0
  H  H170  1  0.715200  0.161600  0.111400  1.0
  H  H171  1  0.715200  0.838400  0.888600  1.0
  H  H172  1  0.284800  0.161600  0.888600  1.0
  H  H173  1  0.111400  0.284800  0.838400  1.0
  H  H174  1  0.111400  0.715200  0.161600  1.0
  H  H175  1  0.888600  0.715200  0.838400  1.0
  H  H176  1  0.888600  0.284800  0.161600  1.0
  H  H177  1  0.838400  0.111400  0.284800  1.0
  H  H178  1  0.161600  0.111400  0.715200  1.0
  H  H179  1  0.838400  0.888600  0.715200  1.0
  H  H180  1  0.161600  0.888600  0.284800  1.0
  H  H181  1  0.838400  0.284800  0.888600  1.0
  H  H182  1  0.161600  0.715200  0.888600  1.0
  H  H183  1  0.838400  0.715200  0.111400  1.0
  H  H184  1  0.161600  0.284800  0.111400  1.0
  H  H185  1  0.284800  0.111400  0.161600  1.0
  H  H186  1  0.715200  0.111400  0.838400  1.0
  H  H187  1  0.715200  0.888600  0.161600  1.0
  H  H188  1  0.284800  0.888600  0.838400  1.0
  H  H189  1  0.111400  0.838400  0.715200  1.0
  H  H190  1  0.111400  0.161600  0.284800  1.0
  H  H191  1  0.888600  0.838400  0.284800  1.0
  H  H192  1  0.888600  0.161600  0.715200  1.0
  H  H193  1  0.286000  0.817200  0.147300  1.0
  H  H194  1  0.714000  0.182800  0.147300  1.0
  H  H195  1  0.714000  0.817200  0.852700  1.0
  H  H196  1  0.286000  0.182800  0.852700  1.0
  H  H197  1  0.147300  0.286000  0.817200  1.0
  H  H198  1  0.147300  0.714000  0.182800  1.0
  H  H199  1  0.852700  0.714000  0.817200  1.0
  H  H200  1  0.852700  0.286000  0.182800  1.0
  H  H201  1  0.817200  0.147300  0.286000  1.0
  H  H202  1  0.182800  0.147300  0.714000  1.0
  H  H203  1  0.817200  0.852700  0.714000  1.0
  H  H204  1  0.182800  0.852700  0.286000  1.0
  H  H205  1  0.817200  0.286000  0.852700  1.0
  H  H206  1  0.182800  0.714000  0.852700  1.0
  H  H207  1  0.817200  0.714000  0.147300  1.0
  H  H208  1  0.182800  0.286000  0.147300  1.0
  H  H209  1  0.286000  0.147300  0.182800  1.0
  H  H210  1  0.714000  0.147300  0.817200  1.0
  H  H211  1  0.714000  0.852700  0.182800  1.0
  H  H212  1  0.286000  0.852700  0.817200  1.0
  H  H213  1  0.147300  0.817200  0.714000  1.0
  H  H214  1  0.147300  0.182800  0.286000  1.0
  H  H215  1  0.852700  0.817200  0.286000  1.0
  H  H216  1  0.852700  0.182800  0.714000  1.0
  H  H217  1  0.245800  0.637600  0.078800  1.0
  H  H218  1  0.754200  0.362400  0.078800  1.0
  H  H219  1  0.754200  0.637600  0.921200  1.0
  H  H220  1  0.245800  0.362400  0.921200  1.0
  H  H221  1  0.078800  0.245800  0.637600  1.0
  H  H222  1  0.078800  0.754200  0.362400  1.0
  H  H223  1  0.921200  0.754200  0.637600  1.0
  H  H224  1  0.921200  0.245800  0.362400  1.0
  H  H225  1  0.637600  0.078800  0.245800  1.0
  H  H226  1  0.362400  0.078800  0.754200  1.0
  H  H227  1  0.637600  0.921200  0.754200  1.0
  H  H228  1  0.362400  0.921200  0.245800  1.0
  H  H229  1  0.637600  0.245800  0.921200  1.0
  H  H230  1  0.362400  0.754200  0.921200  1.0
  H  H231  1  0.637600  0.754200  0.078800  1.0
  H  H232  1  0.362400  0.245800  0.078800  1.0
  H  H233  1  0.245800  0.078800  0.362400  1.0
  H  H234  1  0.754200  0.078800  0.637600  1.0
  H  H235  1  0.754200  0.921200  0.362400  1.0
  H  H236  1  0.245800  0.921200  0.637600  1.0
  H  H237  1  0.078800  0.637600  0.754200  1.0
  H  H238  1  0.078800  0.362400  0.245800  1.0
  H  H239  1  0.921200  0.637600  0.245800  1.0
  H  H240  1  0.921200  0.362400  0.754200  1.0
  H  H241  1  0.227100  0.571700  0.068000  1.0
  H  H242  1  0.772900  0.428300  0.068000  1.0
  H  H243  1  0.772900  0.571700  0.932000  1.0
  H  H244  1  0.227100  0.428300  0.932000  1.0
  H  H245  1  0.068000  0.227100  0.571700  1.0
  H  H246  1  0.068000  0.772900  0.428300  1.0
  H  H247  1  0.932000  0.772900  0.571700  1.0
  H  H248  1  0.932000  0.227100  0.428300  1.0
  H  H249  1  0.571700  0.068000  0.227100  1.0
  H  H250  1  0.428300  0.068000  0.772900  1.0
  H  H251  1  0.571700  0.932000  0.772900  1.0
  H  H252  1  0.428300  0.932000  0.227100  1.0
  H  H253  1  0.571700  0.227100  0.932000  1.0
  H  H254  1  0.428300  0.772900  0.932000  1.0
  H  H255  1  0.571700  0.772900  0.068000  1.0
  H  H256  1  0.428300  0.227100  0.068000  1.0
  H  H257  1  0.227100  0.068000  0.428300  1.0
  H  H258  1  0.772900  0.068000  0.571700  1.0
  H  H259  1  0.772900  0.932000  0.428300  1.0
  H  H260  1  0.227100  0.932000  0.571700  1.0
  H  H261  1  0.068000  0.571700  0.772900  1.0
  H  H262  1  0.068000  0.428300  0.227100  1.0
  H  H263  1  0.932000  0.571700  0.227100  1.0
  H  H264  1  0.932000  0.428300  0.772900  1.0
  H  H265  1  0.238800  0.512600  0.079600  1.0
  H  H266  1  0.761200  0.487400  0.079600  1.0
  H  H267  1  0.761200  0.512600  0.920400  1.0
  H  H268  1  0.238800  0.487400  0.920400  1.0
  H  H269  1  0.079600  0.238800  0.512600  1.0
  H  H270  1  0.079600  0.761200  0.487400  1.0
  H  H271  1  0.920400  0.761200  0.512600  1.0
  H  H272  1  0.920400  0.238800  0.487400  1.0
  H  H273  1  0.512600  0.079600  0.238800  1.0
  H  H274  1  0.487400  0.079600  0.761200  1.0
  H  H275  1  0.512600  0.920400  0.761200  1.0
  H  H276  1  0.487400  0.920400  0.238800  1.0
  H  H277  1  0.512600  0.238800  0.920400  1.0
  H  H278  1  0.487400  0.761200  0.920400  1.0
  H  H279  1  0.512600  0.761200  0.079600  1.0
  H  H280  1  0.487400  0.238800  0.079600  1.0
  H  H281  1  0.238800  0.079600  0.487400  1.0
  H  H282  1  0.761200  0.079600  0.512600  1.0
  H  H283  1  0.761200  0.920400  0.487400  1.0
  H  H284  1  0.238800  0.920400  0.512600  1.0
  H  H285  1  0.079600  0.512600  0.761200  1.0
  H  H286  1  0.079600  0.487400  0.238800  1.0
  H  H287  1  0.920400  0.512600  0.238800  1.0
  H  H288  1  0.920400  0.487400  0.761200  1.0
  H  H289  1  0.300800  0.541700  0.158600  1.0
  H  H290  1  0.699200  0.458300  0.158600  1.0
  H  H291  1  0.699200  0.541700  0.841400  1.0
  H  H292  1  0.300800  0.458300  0.841400  1.0
  H  H293  1  0.158600  0.300800  0.541700  1.0
  H  H294  1  0.158600  0.699200  0.458300  1.0
  H  H295  1  0.841400  0.699200  0.541700  1.0
  H  H296  1  0.841400  0.300800  0.458300  1.0
  H  H297  1  0.541700  0.158600  0.300800  1.0
  H  H298  1  0.458300  0.158600  0.699200  1.0
  H  H299  1  0.541700  0.841400  0.699200  1.0
  H  H300  1  0.458300  0.841400  0.300800  1.0
  H  H301  1  0.541700  0.300800  0.841400  1.0
  H  H302  1  0.458300  0.699200  0.841400  1.0
  H  H303  1  0.541700  0.699200  0.158600  1.0
  H  H304  1  0.458300  0.300800  0.158600  1.0
  H  H305  1  0.300800  0.158600  0.458300  1.0
  H  H306  1  0.699200  0.158600  0.541700  1.0
  H  H307  1  0.699200  0.841400  0.458300  1.0
  H  H308  1  0.300800  0.841400  0.541700  1.0
  H  H309  1  0.158600  0.541700  0.699200  1.0
  H  H310  1  0.158600  0.458300  0.300800  1.0
  H  H311  1  0.841400  0.541700  0.300800  1.0
  H  H312  1  0.841400  0.458300  0.699200  1.0
  H  H313  1  0.425700  0.253300  0.198300  1.0
  H  H314  1  0.574300  0.746700  0.198300  1.0
  H  H315  1  0.574300  0.253300  0.801700  1.0
  H  H316  1  0.425700  0.746700  0.801700  1.0
  H  H317  1  0.198300  0.425700  0.253300  1.0
  H  H318  1  0.198300  0.574300  0.746700  1.0
  H  H319  1  0.801700  0.574300  0.253300  1.0
  H  H320  1  0.801700  0.425700  0.746700  1.0
  H  H321  1  0.253300  0.198300  0.425700  1.0
  H  H322  1  0.746700  0.198300  0.574300  1.0
  H  H323  1  0.253300  0.801700  0.574300  1.0
  H  H324  1  0.746700  0.801700  0.425700  1.0
  H  H325  1  0.253300  0.425700  0.801700  1.0
  H  H326  1  0.746700  0.574300  0.801700  1.0
  H  H327  1  0.253300  0.574300  0.198300  1.0
  H  H328  1  0.746700  0.425700  0.198300  1.0
  H  H329  1  0.425700  0.198300  0.746700  1.0
  H  H330  1  0.574300  0.198300  0.253300  1.0
  H  H331  1  0.574300  0.801700  0.746700  1.0
  H  H332  1  0.425700  0.801700  0.253300  1.0
  H  H333  1  0.198300  0.253300  0.574300  1.0
  H  H334  1  0.198300  0.746700  0.425700  1.0
  H  H335  1  0.801700  0.253300  0.425700  1.0
  H  H336  1  0.801700  0.746700  0.574300  1.0
  H  H337  1  0.447100  0.196400  0.202300  1.0
  H  H338  1  0.552900  0.803600  0.202300  1.0
  H  H339  1  0.552900  0.196400  0.797700  1.0
  H  H340  1  0.447100  0.803600  0.797700  1.0
  H  H341  1  0.202300  0.447100  0.196400  1.0
  H  H342  1  0.202300  0.552900  0.803600  1.0
  H  H343  1  0.797700  0.552900  0.196400  1.0
  H  H344  1  0.797700  0.447100  0.803600  1.0
  H  H345  1  0.196400  0.202300  0.447100  1.0
  H  H346  1  0.803600  0.202300  0.552900  1.0
  H  H347  1  0.196400  0.797700  0.552900  1.0
  H  H348  1  0.803600  0.797700  0.447100  1.0
  H  H349  1  0.196400  0.447100  0.797700  1.0
  H  H350  1  0.803600  0.552900  0.797700  1.0
  H  H351  1  0.196400  0.552900  0.202300  1.0
  H  H352  1  0.803600  0.447100  0.202300  1.0
  H  H353  1  0.447100  0.202300  0.803600  1.0
  H  H354  1  0.552900  0.202300  0.196400  1.0
  H  H355  1  0.552900  0.797700  0.803600  1.0
  H  H356  1  0.447100  0.797700  0.196400  1.0
  H  H357  1  0.202300  0.196400  0.552900  1.0
  H  H358  1  0.202300  0.803600  0.447100  1.0
  H  H359  1  0.797700  0.196400  0.447100  1.0
  H  H360  1  0.797700  0.803600  0.552900  1.0
  H  H361  1  0.350800  0.158800  0.181300  1.0
  H  H362  1  0.649200  0.841200  0.181300  1.0
  H  H363  1  0.649200  0.158800  0.818700  1.0
  H  H364  1  0.350800  0.841200  0.818700  1.0
  H  H365  1  0.181300  0.350800  0.158800  1.0
  H  H366  1  0.181300  0.649200  0.841200  1.0
  H  H367  1  0.818700  0.649200  0.158800  1.0
  H  H368  1  0.818700  0.350800  0.841200  1.0
  H  H369  1  0.158800  0.181300  0.350800  1.0
  H  H370  1  0.841200  0.181300  0.649200  1.0
  H  H371  1  0.158800  0.818700  0.649200  1.0
  H  H372  1  0.841200  0.818700  0.350800  1.0
  H  H373  1  0.158800  0.350800  0.818700  1.0
  H  H374  1  0.841200  0.649200  0.818700  1.0
  H  H375  1  0.158800  0.649200  0.181300  1.0
  H  H376  1  0.841200  0.350800  0.181300  1.0
  H  H377  1  0.350800  0.181300  0.841200  1.0
  H  H378  1  0.649200  0.181300  0.158800  1.0
  H  H379  1  0.649200  0.818700  0.841200  1.0
  H  H380  1  0.350800  0.818700  0.158800  1.0
  H  H381  1  0.181300  0.158800  0.649200  1.0
  H  H382  1  0.181300  0.841200  0.350800  1.0
  H  H383  1  0.818700  0.158800  0.350800  1.0
  H  H384  1  0.818700  0.841200  0.649200  1.0
  H  H385  1  0.329400  0.215700  0.177300  1.0
  H  H386  1  0.670600  0.784300  0.177300  1.0
  H  H387  1  0.670600  0.215700  0.822700  1.0
  H  H388  1  0.329400  0.784300  0.822700  1.0
  H  H389  1  0.177300  0.329400  0.215700  1.0
  H  H390  1  0.177300  0.670600  0.784300  1.0
  H  H391  1  0.822700  0.670600  0.215700  1.0
  H  H392  1  0.822700  0.329400  0.784300  1.0
  H  H393  1  0.215700  0.177300  0.329400  1.0
  H  H394  1  0.784300  0.177300  0.670600  1.0
  H  H395  1  0.215700  0.822700  0.670600  1.0
  H  H396  1  0.784300  0.822700  0.329400  1.0
  H  H397  1  0.215700  0.329400  0.822700  1.0
  H  H398  1  0.784300  0.670600  0.822700  1.0
  H  H399  1  0.215700  0.670600  0.177300  1.0
  H  H400  1  0.784300  0.329400  0.177300  1.0
  H  H401  1  0.329400  0.177300  0.784300  1.0
  H  H402  1  0.670600  0.177300  0.215700  1.0
  H  H403  1  0.670600  0.822700  0.784300  1.0
  H  H404  1  0.329400  0.822700  0.215700  1.0
  H  H405  1  0.177300  0.215700  0.670600  1.0
  H  H406  1  0.177300  0.784300  0.329400  1.0
  H  H407  1  0.822700  0.215700  0.329400  1.0
  H  H408  1  0.822700  0.784300  0.670600  1.0
  H  H409  1  0.468500  0.145900  0.184200  1.0
  H  H410  1  0.531500  0.854100  0.184200  1.0
  H  H411  1  0.531500  0.145900  0.815800  1.0
  H  H412  1  0.468500  0.854100  0.815800  1.0
  H  H413  1  0.184200  0.468500  0.145900  1.0
  H  H414  1  0.184200  0.531500  0.854100  1.0
  H  H415  1  0.815800  0.531500  0.145900  1.0
  H  H416  1  0.815800  0.468500  0.854100  1.0
  H  H417  1  0.145900  0.184200  0.468500  1.0
  H  H418  1  0.854100  0.184200  0.531500  1.0
  H  H419  1  0.145900  0.815800  0.531500  1.0
  H  H420  1  0.854100  0.815800  0.468500  1.0
  H  H421  1  0.145900  0.468500  0.815800  1.0
  H  H422  1  0.854100  0.531500  0.815800  1.0
  H  H423  1  0.145900  0.531500  0.184200  1.0
  H  H424  1  0.854100  0.468500  0.184200  1.0
  H  H425  1  0.468500  0.184200  0.854100  1.0
  H  H426  1  0.531500  0.184200  0.145900  1.0
  H  H427  1  0.531500  0.815800  0.854100  1.0
  H  H428  1  0.468500  0.815800  0.145900  1.0
  H  H429  1  0.184200  0.145900  0.531500  1.0
  H  H430  1  0.184200  0.854100  0.468500  1.0
  H  H431  1  0.815800  0.145900  0.468500  1.0
  H  H432  1  0.815800  0.854100  0.531500  1.0
  H  H433  1  0.462400  0.116700  0.213300  1.0
  H  H434  1  0.537600  0.883300  0.213300  1.0
  H  H435  1  0.537600  0.116700  0.786700  1.0
  H  H436  1  0.462400  0.883300  0.786700  1.0
  H  H437  1  0.213300  0.462400  0.116700  1.0
  H  H438  1  0.213300  0.537600  0.883300  1.0
  H  H439  1  0.786700  0.537600  0.116700  1.0
  H  H440  1  0.786700  0.462400  0.883300  1.0
  H  H441  1  0.116700  0.213300  0.462400  1.0
  H  H442  1  0.883300  0.213300  0.537600  1.0
  H  H443  1  0.116700  0.786700  0.537600  1.0
  H  H444  1  0.883300  0.786700  0.462400  1.0
  H  H445  1  0.116700  0.462400  0.786700  1.0
  H  H446  1  0.883300  0.537600  0.786700  1.0
  H  H447  1  0.116700  0.537600  0.213300  1.0
  H  H448  1  0.883300  0.462400  0.213300  1.0
  H  H449  1  0.462400  0.213300  0.883300  1.0
  H  H450  1  0.537600  0.213300  0.116700  1.0
  H  H451  1  0.537600  0.786700  0.883300  1.0
  H  H452  1  0.462400  0.786700  0.116700  1.0
  H  H453  1  0.213300  0.116700  0.537600  1.0
  H  H454  1  0.213300  0.883300  0.462400  1.0
  H  H455  1  0.786700  0.116700  0.462400  1.0
  H  H456  1  0.786700  0.883300  0.537600  1.0
  H  H457  1  0.460900  0.157100  0.223600  1.0
  H  H458  1  0.539100  0.842900  0.223600  1.0
  H  H459  1  0.539100  0.157100  0.776400  1.0
  H  H460  1  0.460900  0.842900  0.776400  1.0
  H  H461  1  0.223600  0.460900  0.157100  1.0
  H  H462  1  0.223600  0.539100  0.842900  1.0
  H  H463  1  0.776400  0.539100  0.157100  1.0
  H  H464  1  0.776400  0.460900  0.842900  1.0
  H  H465  1  0.157100  0.223600  0.460900  1.0
  H  H466  1  0.842900  0.223600  0.539100  1.0
  H  H467  1  0.157100  0.776400  0.539100  1.0
  H  H468  1  0.842900  0.776400  0.460900  1.0
  H  H469  1  0.157100  0.460900  0.776400  1.0
  H  H470  1  0.842900  0.539100  0.776400  1.0
  H  H471  1  0.157100  0.539100  0.223600  1.0
  H  H472  1  0.842900  0.460900  0.223600  1.0
  H  H473  1  0.460900  0.223600  0.842900  1.0
  H  H474  1  0.539100  0.223600  0.157100  1.0
  H  H475  1  0.539100  0.776400  0.842900  1.0
  H  H476  1  0.460900  0.776400  0.157100  1.0
  H  H477  1  0.223600  0.157100  0.539100  1.0
  H  H478  1  0.223600  0.842900  0.460900  1.0
  H  H479  1  0.776400  0.157100  0.460900  1.0
  H  H480  1  0.776400  0.842900  0.539100  1.0
  H  H481  1  0.314300  0.262500  0.202500  1.0
  H  H482  1  0.685700  0.737500  0.202500  1.0
  H  H483  1  0.685700  0.262500  0.797500  1.0
  H  H484  1  0.314300  0.737500  0.797500  1.0
  H  H485  1  0.202500  0.314300  0.262500  1.0
  H  H486  1  0.202500  0.685700  0.737500  1.0
  H  H487  1  0.797500  0.685700  0.262500  1.0
  H  H488  1  0.797500  0.314300  0.737500  1.0
  H  H489  1  0.262500  0.202500  0.314300  1.0
  H  H490  1  0.737500  0.202500  0.685700  1.0
  H  H491  1  0.262500  0.797500  0.685700  1.0
  H  H492  1  0.737500  0.797500  0.314300  1.0
  H  H493  1  0.262500  0.314300  0.797500  1.0
  H  H494  1  0.737500  0.685700  0.797500  1.0
  H  H495  1  0.262500  0.685700  0.202500  1.0
  H  H496  1  0.737500  0.314300  0.202500  1.0
  H  H497  1  0.314300  0.202500  0.737500  1.0
  H  H498  1  0.685700  0.202500  0.262500  1.0
  H  H499  1  0.685700  0.797500  0.737500  1.0
  H  H500  1  0.314300  0.797500  0.262500  1.0
  H  H501  1  0.202500  0.262500  0.685700  1.0
  H  H502  1  0.202500  0.737500  0.314300  1.0
  H  H503  1  0.797500  0.262500  0.314300  1.0
  H  H504  1  0.797500  0.737500  0.685700  1.0
  H  H505  1  0.270900  0.317100  0.214000  1.0
  H  H506  1  0.729100  0.682900  0.214000  1.0
  H  H507  1  0.729100  0.317100  0.786000  1.0
  H  H508  1  0.270900  0.682900  0.786000  1.0
  H  H509  1  0.214000  0.270900  0.317100  1.0
  H  H510  1  0.214000  0.729100  0.682900  1.0
  H  H511  1  0.786000  0.729100  0.317100  1.0
  H  H512  1  0.786000  0.270900  0.682900  1.0
  H  H513  1  0.317100  0.214000  0.270900  1.0
  H  H514  1  0.682900  0.214000  0.729100  1.0
  H  H515  1  0.317100  0.786000  0.729100  1.0
  H  H516  1  0.682900  0.786000  0.270900  1.0
  H  H517  1  0.317100  0.270900  0.786000  1.0
  H  H518  1  0.682900  0.729100  0.786000  1.0
  H  H519  1  0.317100  0.729100  0.214000  1.0
  H  H520  1  0.682900  0.270900  0.214000  1.0
  H  H521  1  0.270900  0.214000  0.682900  1.0
  H  H522  1  0.729100  0.214000  0.317100  1.0
  H  H523  1  0.729100  0.786000  0.682900  1.0
  H  H524  1  0.270900  0.786000  0.317100  1.0
  H  H525  1  0.214000  0.317100  0.729100  1.0
  H  H526  1  0.214000  0.682900  0.270900  1.0
  H  H527  1  0.786000  0.317100  0.270900  1.0
  H  H528  1  0.786000  0.682900  0.729100  1.0
  H  H529  1  0.253600  0.372100  0.194100  1.0
  H  H530  1  0.746400  0.627900  0.194100  1.0
  H  H531  1  0.746400  0.372100  0.805900  1.0
  H  H532  1  0.253600  0.627900  0.805900  1.0
  H  H533  1  0.194100  0.253600  0.372100  1.0
  H  H534  1  0.194100  0.746400  0.627900  1.0
  H  H535  1  0.805900  0.746400  0.372100  1.0
  H  H536  1  0.805900  0.253600  0.627900  1.0
  H  H537  1  0.372100  0.194100  0.253600  1.0
  H  H538  1  0.627900  0.194100  0.746400  1.0
  H  H539  1  0.372100  0.805900  0.746400  1.0
  H  H540  1  0.627900  0.805900  0.253600  1.0
  H  H541  1  0.372100  0.253600  0.805900  1.0
  H  H542  1  0.627900  0.746400  0.805900  1.0
  H  H543  1  0.372100  0.746400  0.194100  1.0
  H  H544  1  0.627900  0.253600  0.194100  1.0
  H  H545  1  0.253600  0.194100  0.627900  1.0
  H  H546  1  0.746400  0.194100  0.372100  1.0
  H  H547  1  0.746400  0.805900  0.627900  1.0
  H  H548  1  0.253600  0.805900  0.372100  1.0
  H  H549  1  0.194100  0.372100  0.746400  1.0
  H  H550  1  0.194100  0.627900  0.253600  1.0
  H  H551  1  0.805900  0.372100  0.253600  1.0
  H  H552  1  0.805900  0.627900  0.746400  1.0
  H  H553  1  0.345900  0.381600  0.145300  1.0
  H  H554  1  0.654100  0.618400  0.145300  1.0
  H  H555  1  0.654100  0.381600  0.854700  1.0
  H  H556  1  0.345900  0.618400  0.854700  1.0
  H  H557  1  0.145300  0.345900  0.381600  1.0
  H  H558  1  0.145300  0.654100  0.618400  1.0
  H  H559  1  0.854700  0.654100  0.381600  1.0
  H  H560  1  0.854700  0.345900  0.618400  1.0
  H  H561  1  0.381600  0.145300  0.345900  1.0
  H  H562  1  0.618400  0.145300  0.654100  1.0
  H  H563  1  0.381600  0.854700  0.654100  1.0
  H  H564  1  0.618400  0.854700  0.345900  1.0
  H  H565  1  0.381600  0.345900  0.854700  1.0
  H  H566  1  0.618400  0.654100  0.854700  1.0
  H  H567  1  0.381600  0.654100  0.145300  1.0
  H  H568  1  0.618400  0.345900  0.145300  1.0
  H  H569  1  0.345900  0.145300  0.618400  1.0
  H  H570  1  0.654100  0.145300  0.381600  1.0
  H  H571  1  0.654100  0.854700  0.618400  1.0
  H  H572  1  0.345900  0.854700  0.381600  1.0
  H  H573  1  0.145300  0.381600  0.654100  1.0
  H  H574  1  0.145300  0.618400  0.345900  1.0
  H  H575  1  0.854700  0.381600  0.345900  1.0
  H  H576  1  0.854700  0.618400  0.654100  1.0
  H  H577  1  0.305700  0.630100  0.242200  1.0
  H  H578  1  0.694300  0.369900  0.242200  1.0
  H  H579  1  0.694300  0.630100  0.757800  1.0
  H  H580  1  0.305700  0.369900  0.757800  1.0
  H  H581  1  0.242200  0.305700  0.630100  1.0
  H  H582  1  0.242200  0.694300  0.369900  1.0
  H  H583  1  0.757800  0.694300  0.630100  1.0
  H  H584  1  0.757800  0.305700  0.369900  1.0
  H  H585  1  0.630100  0.242200  0.305700  1.0
  H  H586  1  0.369900  0.242200  0.694300  1.0
  H  H587  1  0.630100  0.757800  0.694300  1.0
  H  H588  1  0.369900  0.757800  0.305700  1.0
  H  H589  1  0.630100  0.305700  0.757800  1.0
  H  H590  1  0.369900  0.694300  0.757800  1.0
  H  H591  1  0.630100  0.694300  0.242200  1.0
  H  H592  1  0.369900  0.305700  0.242200  1.0
  H  H593  1  0.305700  0.242200  0.369900  1.0
  H  H594  1  0.694300  0.242200  0.630100  1.0
  H  H595  1  0.694300  0.757800  0.369900  1.0
  H  H596  1  0.305700  0.757800  0.630100  1.0
  H  H597  1  0.242200  0.630100  0.694300  1.0
  H  H598  1  0.242200  0.369900  0.305700  1.0
  H  H599  1  0.757800  0.630100  0.305700  1.0
  H  H600  1  0.757800  0.369900  0.694300  1.0
  H  H601  1  0.288100  0.609700  0.296800  1.0
  H  H602  1  0.711900  0.390300  0.296800  1.0
  H  H603  1  0.711900  0.609700  0.703200  1.0
  H  H604  1  0.288100  0.390300  0.703200  1.0
  H  H605  1  0.296800  0.288100  0.609700  1.0
  H  H606  1  0.296800  0.711900  0.390300  1.0
  H  H607  1  0.703200  0.711900  0.609700  1.0
  H  H608  1  0.703200  0.288100  0.390300  1.0
  H  H609  1  0.609700  0.296800  0.288100  1.0
  H  H610  1  0.390300  0.296800  0.711900  1.0
  H  H611  1  0.609700  0.703200  0.711900  1.0
  H  H612  1  0.390300  0.703200  0.288100  1.0
  H  H613  1  0.609700  0.288100  0.703200  1.0
  H  H614  1  0.390300  0.711900  0.703200  1.0
  H  H615  1  0.609700  0.711900  0.296800  1.0
  H  H616  1  0.390300  0.288100  0.296800  1.0
  H  H617  1  0.288100  0.296800  0.390300  1.0
  H  H618  1  0.711900  0.296800  0.609700  1.0
  H  H619  1  0.711900  0.703200  0.390300  1.0
  H  H620  1  0.288100  0.703200  0.609700  1.0
  H  H621  1  0.296800  0.609700  0.711900  1.0
  H  H622  1  0.296800  0.390300  0.288100  1.0
  H  H623  1  0.703200  0.609700  0.288100  1.0
  H  H624  1  0.703200  0.390300  0.711900  1.0
  H  H625  1  0.313800  0.511400  0.268400  1.0
  H  H626  1  0.686200  0.488600  0.268400  1.0
  H  H627  1  0.686200  0.511400  0.731600  1.0
  H  H628  1  0.313800  0.488600  0.731600  1.0
  H  H629  1  0.268400  0.313800  0.511400  1.0
  H  H630  1  0.268400  0.686200  0.488600  1.0
  H  H631  1  0.731600  0.686200  0.511400  1.0
  H  H632  1  0.731600  0.313800  0.488600  1.0
  H  H633  1  0.511400  0.268400  0.313800  1.0
  H  H634  1  0.488600  0.268400  0.686200  1.0
  H  H635  1  0.511400  0.731600  0.686200  1.0
  H  H636  1  0.488600  0.731600  0.313800  1.0
  H  H637  1  0.511400  0.313800  0.731600  1.0
  H  H638  1  0.488600  0.686200  0.731600  1.0
  H  H639  1  0.511400  0.686200  0.268400  1.0
  H  H640  1  0.488600  0.313800  0.268400  1.0
  H  H641  1  0.313800  0.268400  0.488600  1.0
  H  H642  1  0.686200  0.268400  0.511400  1.0
  H  H643  1  0.686200  0.731600  0.488600  1.0
  H  H644  1  0.313800  0.731600  0.511400  1.0
  H  H645  1  0.268400  0.511400  0.686200  1.0
  H  H646  1  0.268400  0.488600  0.313800  1.0
  H  H647  1  0.731600  0.511400  0.313800  1.0
  H  H648  1  0.731600  0.488600  0.686200  1.0
  H  H649  1  0.331400  0.531700  0.213700  1.0
  H  H650  1  0.668600  0.468300  0.213700  1.0
  H  H651  1  0.668600  0.531700  0.786300  1.0
  H  H652  1  0.331400  0.468300  0.786300  1.0
  H  H653  1  0.213700  0.331400  0.531700  1.0
  H  H654  1  0.213700  0.668600  0.468300  1.0
  H  H655  1  0.786300  0.668600  0.531700  1.0
  H  H656  1  0.786300  0.331400  0.468300  1.0
  H  H657  1  0.531700  0.213700  0.331400  1.0
  H  H658  1  0.468300  0.213700  0.668600  1.0
  H  H659  1  0.531700  0.786300  0.668600  1.0
  H  H660  1  0.468300  0.786300  0.331400  1.0
  H  H661  1  0.531700  0.331400  0.786300  1.0
  H  H662  1  0.468300  0.668600  0.786300  1.0
  H  H663  1  0.531700  0.668600  0.213700  1.0
  H  H664  1  0.468300  0.331400  0.213700  1.0
  H  H665  1  0.331400  0.213700  0.468300  1.0
  H  H666  1  0.668600  0.213700  0.531700  1.0
  H  H667  1  0.668600  0.786300  0.468300  1.0
  H  H668  1  0.331400  0.786300  0.531700  1.0
  H  H669  1  0.213700  0.531700  0.668600  1.0
  H  H670  1  0.213700  0.468300  0.331400  1.0
  H  H671  1  0.786300  0.531700  0.331400  1.0
  H  H672  1  0.786300  0.468300  0.668600  1.0
  H  H673  1  0.287900  0.596300  0.343100  1.0
  H  H674  1  0.712100  0.403700  0.343100  1.0
  H  H675  1  0.712100  0.596300  0.656900  1.0
  H  H676  1  0.287900  0.403700  0.656900  1.0
  H  H677  1  0.343100  0.287900  0.596300  1.0
  H  H678  1  0.343100  0.712100  0.403700  1.0
  H  H679  1  0.656900  0.712100  0.596300  1.0
  H  H680  1  0.656900  0.287900  0.403700  1.0
  H  H681  1  0.596300  0.343100  0.287900  1.0
  H  H682  1  0.403700  0.343100  0.712100  1.0
  H  H683  1  0.596300  0.656900  0.712100  1.0
  H  H684  1  0.403700  0.656900  0.287900  1.0
  H  H685  1  0.596300  0.287900  0.656900  1.0
  H  H686  1  0.403700  0.712100  0.656900  1.0
  H  H687  1  0.596300  0.712100  0.343100  1.0
  H  H688  1  0.403700  0.287900  0.343100  1.0
  H  H689  1  0.287900  0.343100  0.403700  1.0
  H  H690  1  0.712100  0.343100  0.596300  1.0
  H  H691  1  0.712100  0.656900  0.403700  1.0
  H  H692  1  0.287900  0.656900  0.596300  1.0
  H  H693  1  0.343100  0.596300  0.712100  1.0
  H  H694  1  0.343100  0.403700  0.287900  1.0
  H  H695  1  0.656900  0.596300  0.287900  1.0
  H  H696  1  0.656900  0.403700  0.712100  1.0
  H  H697  1  0.284700  0.564500  0.369800  1.0
  H  H698  1  0.715300  0.435500  0.369800  1.0
  H  H699  1  0.715300  0.564500  0.630200  1.0
  H  H700  1  0.284700  0.435500  0.630200  1.0
  H  H701  1  0.369800  0.284700  0.564500  1.0
  H  H702  1  0.369800  0.715300  0.435500  1.0
  H  H703  1  0.630200  0.715300  0.564500  1.0
  H  H704  1  0.630200  0.284700  0.435500  1.0
  H  H705  1  0.564500  0.369800  0.284700  1.0
  H  H706  1  0.435500  0.369800  0.715300  1.0
  H  H707  1  0.564500  0.630200  0.715300  1.0
  H  H708  1  0.435500  0.630200  0.284700  1.0
  H  H709  1  0.564500  0.284700  0.630200  1.0
  H  H710  1  0.435500  0.715300  0.630200  1.0
  H  H711  1  0.564500  0.715300  0.369800  1.0
  H  H712  1  0.435500  0.284700  0.369800  1.0
  H  H713  1  0.284700  0.369800  0.435500  1.0
  H  H714  1  0.715300  0.369800  0.564500  1.0
  H  H715  1  0.715300  0.630200  0.435500  1.0
  H  H716  1  0.284700  0.630200  0.564500  1.0
  H  H717  1  0.369800  0.564500  0.715300  1.0
  H  H718  1  0.369800  0.435500  0.284700  1.0
  H  H719  1  0.630200  0.564500  0.284700  1.0
  H  H720  1  0.630200  0.435500  0.715300  1.0
  H  H721  1  0.251300  0.577000  0.348200  1.0
  H  H722  1  0.748700  0.423000  0.348200  1.0
  H  H723  1  0.748700  0.577000  0.651800  1.0
  H  H724  1  0.251300  0.423000  0.651800  1.0
  H  H725  1  0.348200  0.251300  0.577000  1.0
  H  H726  1  0.348200  0.748700  0.423000  1.0
  H  H727  1  0.651800  0.748700  0.577000  1.0
  H  H728  1  0.651800  0.251300  0.423000  1.0
  H  H729  1  0.577000  0.348200  0.251300  1.0
  H  H730  1  0.423000  0.348200  0.748700  1.0
  H  H731  1  0.577000  0.651800  0.748700  1.0
  H  H732  1  0.423000  0.651800  0.251300  1.0
  H  H733  1  0.577000  0.251300  0.651800  1.0
  H  H734  1  0.423000  0.748700  0.651800  1.0
  H  H735  1  0.577000  0.748700  0.348200  1.0
  H  H736  1  0.423000  0.251300  0.348200  1.0
  H  H737  1  0.251300  0.348200  0.423000  1.0
  H  H738  1  0.748700  0.348200  0.577000  1.0
  H  H739  1  0.748700  0.651800  0.423000  1.0
  H  H740  1  0.251300  0.651800  0.577000  1.0
  H  H741  1  0.348200  0.577000  0.748700  1.0
  H  H742  1  0.348200  0.423000  0.251300  1.0
  H  H743  1  0.651800  0.577000  0.251300  1.0
  H  H744  1  0.651800  0.423000  0.748700  1.0
  H  H745  1  0.377200  0.563800  0.196600  1.0
  H  H746  1  0.622800  0.436200  0.196600  1.0
  H  H747  1  0.622800  0.563800  0.803400  1.0
  H  H748  1  0.377200  0.436200  0.803400  1.0
  H  H749  1  0.196600  0.377200  0.563800  1.0
  H  H750  1  0.196600  0.622800  0.436200  1.0
  H  H751  1  0.803400  0.622800  0.563800  1.0
  H  H752  1  0.803400  0.377200  0.436200  1.0
  H  H753  1  0.563800  0.196600  0.377200  1.0
  H  H754  1  0.436200  0.196600  0.622800  1.0
  H  H755  1  0.563800  0.803400  0.622800  1.0
  H  H756  1  0.436200  0.803400  0.377200  1.0
  H  H757  1  0.563800  0.377200  0.803400  1.0
  H  H758  1  0.436200  0.622800  0.803400  1.0
  H  H759  1  0.563800  0.622800  0.196600  1.0
  H  H760  1  0.436200  0.377200  0.196600  1.0
  H  H761  1  0.377200  0.196600  0.436200  1.0
  H  H762  1  0.622800  0.196600  0.563800  1.0
  H  H763  1  0.622800  0.803400  0.436200  1.0
  H  H764  1  0.377200  0.803400  0.563800  1.0
  H  H765  1  0.196600  0.563800  0.622800  1.0
  H  H766  1  0.196600  0.436200  0.377200  1.0
  H  H767  1  0.803400  0.563800  0.377200  1.0
  H  H768  1  0.803400  0.436200  0.622800  1.0
  H  H769  1  0.422100  0.560900  0.144100  1.0
  H  H770  1  0.577900  0.439100  0.144100  1.0
  H  H771  1  0.577900  0.560900  0.855900  1.0
  H  H772  1  0.422100  0.439100  0.855900  1.0
  H  H773  1  0.144100  0.422100  0.560900  1.0
  H  H774  1  0.144100  0.577900  0.439100  1.0
  H  H775  1  0.855900  0.577900  0.560900  1.0
  H  H776  1  0.855900  0.422100  0.439100  1.0
  H  H777  1  0.560900  0.144100  0.422100  1.0
  H  H778  1  0.439100  0.144100  0.577900  1.0
  H  H779  1  0.560900  0.855900  0.577900  1.0
  H  H780  1  0.439100  0.855900  0.422100  1.0
  H  H781  1  0.560900  0.422100  0.855900  1.0
  H  H782  1  0.439100  0.577900  0.855900  1.0
  H  H783  1  0.560900  0.577900  0.144100  1.0
  H  H784  1  0.439100  0.422100  0.144100  1.0
  H  H785  1  0.422100  0.144100  0.439100  1.0
  H  H786  1  0.577900  0.144100  0.560900  1.0
  H  H787  1  0.577900  0.855900  0.439100  1.0
  H  H788  1  0.422100  0.855900  0.560900  1.0
  H  H789  1  0.144100  0.560900  0.577900  1.0
  H  H790  1  0.144100  0.439100  0.422100  1.0
  H  H791  1  0.855900  0.560900  0.422100  1.0
  H  H792  1  0.855900  0.439100  0.577900  1.0
  H  H793  1  0.429300  0.562900  0.083200  1.0
  H  H794  1  0.570700  0.437100  0.083200  1.0
  H  H795  1  0.570700  0.562900  0.916800  1.0
  H  H796  1  0.429300  0.437100  0.916800  1.0
  H  H797  1  0.083200  0.429300  0.562900  1.0
  H  H798  1  0.083200  0.570700  0.437100  1.0
  H  H799  1  0.916800  0.570700  0.562900  1.0
  H  H800  1  0.916800  0.429300  0.437100  1.0
  H  H801  1  0.562900  0.083200  0.429300  1.0
  H  H802  1  0.437100  0.083200  0.570700  1.0
  H  H803  1  0.562900  0.916800  0.570700  1.0
  H  H804  1  0.437100  0.916800  0.429300  1.0
  H  H805  1  0.562900  0.429300  0.916800  1.0
  H  H806  1  0.437100  0.570700  0.916800  1.0
  H  H807  1  0.562900  0.570700  0.083200  1.0
  H  H808  1  0.437100  0.429300  0.083200  1.0
  H  H809  1  0.429300  0.083200  0.437100  1.0
  H  H810  1  0.570700  0.083200  0.562900  1.0
  H  H811  1  0.570700  0.916800  0.437100  1.0
  H  H812  1  0.429300  0.916800  0.562900  1.0
  H  H813  1  0.083200  0.562900  0.570700  1.0
  H  H814  1  0.083200  0.437100  0.429300  1.0
  H  H815  1  0.916800  0.562900  0.429300  1.0
  H  H816  1  0.916800  0.437100  0.570700  1.0
  H  H817  1  0.339400  0.616900  0.076900  1.0
  H  H818  1  0.660600  0.383100  0.076900  1.0
  H  H819  1  0.660600  0.616900  0.923100  1.0
  H  H820  1  0.339400  0.383100  0.923100  1.0
  H  H821  1  0.076900  0.339400  0.616900  1.0
  H  H822  1  0.076900  0.660600  0.383100  1.0
  H  H823  1  0.923100  0.660600  0.616900  1.0
  H  H824  1  0.923100  0.339400  0.383100  1.0
  H  H825  1  0.616900  0.076900  0.339400  1.0
  H  H826  1  0.383100  0.076900  0.660600  1.0
  H  H827  1  0.616900  0.923100  0.660600  1.0
  H  H828  1  0.383100  0.923100  0.339400  1.0
  H  H829  1  0.616900  0.339400  0.923100  1.0
  H  H830  1  0.383100  0.660600  0.923100  1.0
  H  H831  1  0.616900  0.660600  0.076900  1.0
  H  H832  1  0.383100  0.339400  0.076900  1.0
  H  H833  1  0.339400  0.076900  0.383100  1.0
  H  H834  1  0.660600  0.076900  0.616900  1.0
  H  H835  1  0.660600  0.923100  0.383100  1.0
  H  H836  1  0.339400  0.923100  0.616900  1.0
  H  H837  1  0.076900  0.616900  0.660600  1.0
  H  H838  1  0.076900  0.383100  0.339400  1.0
  H  H839  1  0.923100  0.616900  0.339400  1.0
  H  H840  1  0.923100  0.383100  0.660600  1.0
  C  C841  1  0.285300  0.682200  0.104700  1.0
  C  C842  1  0.714700  0.317800  0.104700  1.0
  C  C843  1  0.714700  0.682200  0.895300  1.0
  C  C844  1  0.285300  0.317800  0.895300  1.0
  C  C845  1  0.104700  0.285300  0.682200  1.0
  C  C846  1  0.104700  0.714700  0.317800  1.0
  C  C847  1  0.895300  0.714700  0.682200  1.0
  C  C848  1  0.895300  0.285300  0.317800  1.0
  C  C849  1  0.682200  0.104700  0.285300  1.0
  C  C850  1  0.317800  0.104700  0.714700  1.0
  C  C851  1  0.682200  0.895300  0.714700  1.0
  C  C852  1  0.317800  0.895300  0.285300  1.0
  C  C853  1  0.682200  0.285300  0.895300  1.0
  C  C854  1  0.317800  0.714700  0.895300  1.0
  C  C855  1  0.682200  0.714700  0.104700  1.0
  C  C856  1  0.317800  0.285300  0.104700  1.0
  C  C857  1  0.285300  0.104700  0.317800  1.0
  C  C858  1  0.714700  0.104700  0.682200  1.0
  C  C859  1  0.714700  0.895300  0.317800  1.0
  C  C860  1  0.285300  0.895300  0.682200  1.0
  C  C861  1  0.104700  0.682200  0.714700  1.0
  C  C862  1  0.104700  0.317800  0.285300  1.0
  C  C863  1  0.895300  0.682200  0.285300  1.0
  C  C864  1  0.895300  0.317800  0.714700  1.0
  C  C865  1  0.318000  0.696500  0.099000  1.0
  C  C866  1  0.682000  0.303500  0.099000  1.0
  C  C867  1  0.682000  0.696500  0.901000  1.0
  C  C868  1  0.318000  0.303500  0.901000  1.0
  C  C869  1  0.099000  0.318000  0.696500  1.0
  C  C870  1  0.099000  0.682000  0.303500  1.0
  C  C871  1  0.901000  0.682000  0.696500  1.0
  C  C872  1  0.901000  0.318000  0.303500  1.0
  C  C873  1  0.696500  0.099000  0.318000  1.0
  C  C874  1  0.303500  0.099000  0.682000  1.0
  C  C875  1  0.696500  0.901000  0.682000  1.0
  C  C876  1  0.303500  0.901000  0.318000  1.0
  C  C877  1  0.696500  0.318000  0.901000  1.0
  C  C878  1  0.303500  0.682000  0.901000  1.0
  C  C879  1  0.696500  0.682000  0.099000  1.0
  C  C880  1  0.303500  0.318000  0.099000  1.0
  C  C881  1  0.318000  0.099000  0.303500  1.0
  C  C882  1  0.682000  0.099000  0.696500  1.0
  C  C883  1  0.682000  0.901000  0.303500  1.0
  C  C884  1  0.318000  0.901000  0.696500  1.0
  C  C885  1  0.099000  0.696500  0.682000  1.0
  C  C886  1  0.099000  0.303500  0.318000  1.0
  C  C887  1  0.901000  0.696500  0.318000  1.0
  C  C888  1  0.901000  0.303500  0.682000  1.0
  C  C889  1  0.322900  0.732200  0.101400  1.0
  C  C890  1  0.677100  0.267800  0.101400  1.0
  C  C891  1  0.677100  0.732200  0.898600  1.0
  C  C892  1  0.322900  0.267800  0.898600  1.0
  C  C893  1  0.101400  0.322900  0.732200  1.0
  C  C894  1  0.101400  0.677100  0.267800  1.0
  C  C895  1  0.898600  0.677100  0.732200  1.0
  C  C896  1  0.898600  0.322900  0.267800  1.0
  C  C897  1  0.732200  0.101400  0.322900  1.0
  C  C898  1  0.267800  0.101400  0.677100  1.0
  C  C899  1  0.732200  0.898600  0.677100  1.0
  C  C900  1  0.267800  0.898600  0.322900  1.0
  C  C901  1  0.732200  0.322900  0.898600  1.0
  C  C902  1  0.267800  0.677100  0.898600  1.0
  C  C903  1  0.732200  0.677100  0.101400  1.0
  C  C904  1  0.267800  0.322900  0.101400  1.0
  C  C905  1  0.322900  0.101400  0.267800  1.0
  C  C906  1  0.677100  0.101400  0.732200  1.0
  C  C907  1  0.677100  0.898600  0.267800  1.0
  C  C908  1  0.322900  0.898600  0.732200  1.0
  C  C909  1  0.101400  0.732200  0.677100  1.0
  C  C910  1  0.101400  0.267800  0.322900  1.0
  C  C911  1  0.898600  0.732200  0.322900  1.0
  C  C912  1  0.898600  0.267800  0.677100  1.0
  C  C913  1  0.295000  0.753800  0.109500  1.0
  C  C914  1  0.705000  0.246200  0.109500  1.0
  C  C915  1  0.705000  0.753800  0.890500  1.0
  C  C916  1  0.295000  0.246200  0.890500  1.0
  C  C917  1  0.109500  0.295000  0.753800  1.0
  C  C918  1  0.109500  0.705000  0.246200  1.0
  C  C919  1  0.890500  0.705000  0.753800  1.0
  C  C920  1  0.890500  0.295000  0.246200  1.0
  C  C921  1  0.753800  0.109500  0.295000  1.0
  C  C922  1  0.246200  0.109500  0.705000  1.0
  C  C923  1  0.753800  0.890500  0.705000  1.0
  C  C924  1  0.246200  0.890500  0.295000  1.0
  C  C925  1  0.753800  0.295000  0.890500  1.0
  C  C926  1  0.246200  0.705000  0.890500  1.0
  C  C927  1  0.753800  0.705000  0.109500  1.0
  C  C928  1  0.246200  0.295000  0.109500  1.0
  C  C929  1  0.295000  0.109500  0.246200  1.0
  C  C930  1  0.705000  0.109500  0.753800  1.0
  C  C931  1  0.705000  0.890500  0.246200  1.0
  C  C932  1  0.295000  0.890500  0.753800  1.0
  C  C933  1  0.109500  0.753800  0.705000  1.0
  C  C934  1  0.109500  0.246200  0.295000  1.0
  C  C935  1  0.890500  0.753800  0.295000  1.0
  C  C936  1  0.890500  0.246200  0.705000  1.0
  C  C937  1  0.262200  0.739500  0.115300  1.0
  C  C938  1  0.737800  0.260500  0.115300  1.0
  C  C939  1  0.737800  0.739500  0.884700  1.0
  C  C940  1  0.262200  0.260500  0.884700  1.0
  C  C941  1  0.115300  0.262200  0.739500  1.0
  C  C942  1  0.115300  0.737800  0.260500  1.0
  C  C943  1  0.884700  0.737800  0.739500  1.0
  C  C944  1  0.884700  0.262200  0.260500  1.0
  C  C945  1  0.739500  0.115300  0.262200  1.0
  C  C946  1  0.260500  0.115300  0.737800  1.0
  C  C947  1  0.739500  0.884700  0.737800  1.0
  C  C948  1  0.260500  0.884700  0.262200  1.0
  C  C949  1  0.739500  0.262200  0.884700  1.0
  C  C950  1  0.260500  0.737800  0.884700  1.0
  C  C951  1  0.739500  0.737800  0.115300  1.0
  C  C952  1  0.260500  0.262200  0.115300  1.0
  C  C953  1  0.262200  0.115300  0.260500  1.0
  C  C954  1  0.737800  0.115300  0.739500  1.0
  C  C955  1  0.737800  0.884700  0.260500  1.0
  C  C956  1  0.262200  0.884700  0.739500  1.0
  C  C957  1  0.115300  0.739500  0.737800  1.0
  C  C958  1  0.115300  0.260500  0.262200  1.0
  C  C959  1  0.884700  0.739500  0.262200  1.0
  C  C960  1  0.884700  0.260500  0.737800  1.0
  C  C961  1  0.257400  0.703800  0.112900  1.0
  C  C962  1  0.742600  0.296200  0.112900  1.0
  C  C963  1  0.742600  0.703800  0.887100  1.0
  C  C964  1  0.257400  0.296200  0.887100  1.0
  C  C965  1  0.112900  0.257400  0.703800  1.0
  C  C966  1  0.112900  0.742600  0.296200  1.0
  C  C967  1  0.887100  0.742600  0.703800  1.0
  C  C968  1  0.887100  0.257400  0.296200  1.0
  C  C969  1  0.703800  0.112900  0.257400  1.0
  C  C970  1  0.296200  0.112900  0.742600  1.0
  C  C971  1  0.703800  0.887100  0.742600  1.0
  C  C972  1  0.296200  0.887100  0.257400  1.0
  C  C973  1  0.703800  0.257400  0.887100  1.0
  C  C974  1  0.296200  0.742600  0.887100  1.0
  C  C975  1  0.703800  0.742600  0.112900  1.0
  C  C976  1  0.296200  0.257400  0.112900  1.0
  C  C977  1  0.257400  0.112900  0.296200  1.0
  C  C978  1  0.742600  0.112900  0.703800  1.0
  C  C979  1  0.742600  0.887100  0.296200  1.0
  C  C980  1  0.257400  0.887100  0.703800  1.0
  C  C981  1  0.112900  0.703800  0.742600  1.0
  C  C982  1  0.112900  0.296200  0.257400  1.0
  C  C983  1  0.887100  0.703800  0.257400  1.0
  C  C984  1  0.887100  0.296200  0.742600  1.0
  C  C985  1  0.280500  0.815800  0.122400  1.0
  C  C986  1  0.719500  0.184200  0.122400  1.0
  C  C987  1  0.719500  0.815800  0.877600  1.0
  C  C988  1  0.280500  0.184200  0.877600  1.0
  C  C989  1  0.122400  0.280500  0.815800  1.0
  C  C990  1  0.122400  0.719500  0.184200  1.0
  C  C991  1  0.877600  0.719500  0.815800  1.0
  C  C992  1  0.877600  0.280500  0.184200  1.0
  C  C993  1  0.815800  0.122400  0.280500  1.0
  C  C994  1  0.184200  0.122400  0.719500  1.0
  C  C995  1  0.815800  0.877600  0.719500  1.0
  C  C996  1  0.184200  0.877600  0.280500  1.0
  C  C997  1  0.815800  0.280500  0.877600  1.0
  C  C998  1  0.184200  0.719500  0.877600  1.0
  C  C999  1  0.815800  0.719500  0.122400  1.0
  C  C1000  1  0.184200  0.280500  0.122400  1.0
  C  C1001  1  0.280500  0.122400  0.184200  1.0
  C  C1002  1  0.719500  0.122400  0.815800  1.0
  C  C1003  1  0.719500  0.877600  0.184200  1.0
  C  C1004  1  0.280500  0.877600  0.815800  1.0
  C  C1005  1  0.122400  0.815800  0.719500  1.0
  C  C1006  1  0.122400  0.184200  0.280500  1.0
  C  C1007  1  0.877600  0.815800  0.280500  1.0
  C  C1008  1  0.877600  0.184200  0.719500  1.0
  C  C1009  1  0.260800  0.628000  0.095900  1.0
  C  C1010  1  0.739200  0.372000  0.095900  1.0
  C  C1011  1  0.739200  0.628000  0.904100  1.0
  C  C1012  1  0.260800  0.372000  0.904100  1.0
  C  C1013  1  0.095900  0.260800  0.628000  1.0
  C  C1014  1  0.095900  0.739200  0.372000  1.0
  C  C1015  1  0.904100  0.739200  0.628000  1.0
  C  C1016  1  0.904100  0.260800  0.372000  1.0
  C  C1017  1  0.628000  0.095900  0.260800  1.0
  C  C1018  1  0.372000  0.095900  0.739200  1.0
  C  C1019  1  0.628000  0.904100  0.739200  1.0
  C  C1020  1  0.372000  0.904100  0.260800  1.0
  C  C1021  1  0.628000  0.260800  0.904100  1.0
  C  C1022  1  0.372000  0.739200  0.904100  1.0
  C  C1023  1  0.628000  0.739200  0.095900  1.0
  C  C1024  1  0.372000  0.260800  0.095900  1.0
  C  C1025  1  0.260800  0.095900  0.372000  1.0
  C  C1026  1  0.739200  0.095900  0.628000  1.0
  C  C1027  1  0.739200  0.904100  0.372000  1.0
  C  C1028  1  0.260800  0.904100  0.628000  1.0
  C  C1029  1  0.095900  0.628000  0.739200  1.0
  C  C1030  1  0.095900  0.372000  0.260800  1.0
  C  C1031  1  0.904100  0.628000  0.260800  1.0
  C  C1032  1  0.904100  0.372000  0.739200  1.0
  C  C1033  1  0.260700  0.589600  0.105100  1.0
  C  C1034  1  0.739300  0.410400  0.105100  1.0
  C  C1035  1  0.739300  0.589600  0.894900  1.0
  C  C1036  1  0.260700  0.410400  0.894900  1.0
  C  C1037  1  0.105100  0.260700  0.589600  1.0
  C  C1038  1  0.105100  0.739300  0.410400  1.0
  C  C1039  1  0.894900  0.739300  0.589600  1.0
  C  C1040  1  0.894900  0.260700  0.410400  1.0
  C  C1041  1  0.589600  0.105100  0.260700  1.0
  C  C1042  1  0.410400  0.105100  0.739300  1.0
  C  C1043  1  0.589600  0.894900  0.739300  1.0
  C  C1044  1  0.410400  0.894900  0.260700  1.0
  C  C1045  1  0.589600  0.260700  0.894900  1.0
  C  C1046  1  0.410400  0.739300  0.894900  1.0
  C  C1047  1  0.589600  0.739300  0.105100  1.0
  C  C1048  1  0.410400  0.260700  0.105100  1.0
  C  C1049  1  0.260700  0.105100  0.410400  1.0
  C  C1050  1  0.739300  0.105100  0.589600  1.0
  C  C1051  1  0.739300  0.894900  0.410400  1.0
  C  C1052  1  0.260700  0.894900  0.589600  1.0
  C  C1053  1  0.105100  0.589600  0.739300  1.0
  C  C1054  1  0.105100  0.410400  0.260700  1.0
  C  C1055  1  0.894900  0.589600  0.260700  1.0
  C  C1056  1  0.894900  0.410400  0.739300  1.0
  C  C1057  1  0.242500  0.565000  0.086200  1.0
  C  C1058  1  0.757500  0.435000  0.086200  1.0
  C  C1059  1  0.757500  0.565000  0.913800  1.0
  C  C1060  1  0.242500  0.435000  0.913800  1.0
  C  C1061  1  0.086200  0.242500  0.565000  1.0
  C  C1062  1  0.086200  0.757500  0.435000  1.0
  C  C1063  1  0.913800  0.757500  0.565000  1.0
  C  C1064  1  0.913800  0.242500  0.435000  1.0
  C  C1065  1  0.565000  0.086200  0.242500  1.0
  C  C1066  1  0.435000  0.086200  0.757500  1.0
  C  C1067  1  0.565000  0.913800  0.757500  1.0
  C  C1068  1  0.435000  0.913800  0.242500  1.0
  C  C1069  1  0.565000  0.242500  0.913800  1.0
  C  C1070  1  0.435000  0.757500  0.913800  1.0
  C  C1071  1  0.565000  0.757500  0.086200  1.0
  C  C1072  1  0.435000  0.242500  0.086200  1.0
  C  C1073  1  0.242500  0.086200  0.435000  1.0
  C  C1074  1  0.757500  0.086200  0.565000  1.0
  C  C1075  1  0.757500  0.913800  0.435000  1.0
  C  C1076  1  0.242500  0.913800  0.565000  1.0
  C  C1077  1  0.086200  0.565000  0.757500  1.0
  C  C1078  1  0.086200  0.435000  0.242500  1.0
  C  C1079  1  0.913800  0.565000  0.242500  1.0
  C  C1080  1  0.913800  0.435000  0.757500  1.0
  C  C1081  1  0.247500  0.530500  0.094400  1.0
  C  C1082  1  0.752500  0.469500  0.094400  1.0
  C  C1083  1  0.752500  0.530500  0.905600  1.0
  C  C1084  1  0.247500  0.469500  0.905600  1.0
  C  C1085  1  0.094400  0.247500  0.530500  1.0
  C  C1086  1  0.094400  0.752500  0.469500  1.0
  C  C1087  1  0.905600  0.752500  0.530500  1.0
  C  C1088  1  0.905600  0.247500  0.469500  1.0
  C  C1089  1  0.530500  0.094400  0.247500  1.0
  C  C1090  1  0.469500  0.094400  0.752500  1.0
  C  C1091  1  0.530500  0.905600  0.752500  1.0
  C  C1092  1  0.469500  0.905600  0.247500  1.0
  C  C1093  1  0.530500  0.247500  0.905600  1.0
  C  C1094  1  0.469500  0.752500  0.905600  1.0
  C  C1095  1  0.530500  0.752500  0.094400  1.0
  C  C1096  1  0.469500  0.247500  0.094400  1.0
  C  C1097  1  0.247500  0.094400  0.469500  1.0
  C  C1098  1  0.752500  0.094400  0.530500  1.0
  C  C1099  1  0.752500  0.905600  0.469500  1.0
  C  C1100  1  0.247500  0.905600  0.530500  1.0
  C  C1101  1  0.094400  0.530500  0.752500  1.0
  C  C1102  1  0.094400  0.469500  0.247500  1.0
  C  C1103  1  0.905600  0.530500  0.247500  1.0
  C  C1104  1  0.905600  0.469500  0.752500  1.0
  C  C1105  1  0.265300  0.522100  0.124700  1.0
  C  C1106  1  0.734700  0.477900  0.124700  1.0
  C  C1107  1  0.734700  0.522100  0.875300  1.0
  C  C1108  1  0.265300  0.477900  0.875300  1.0
  C  C1109  1  0.124700  0.265300  0.522100  1.0
  C  C1110  1  0.124700  0.734700  0.477900  1.0
  C  C1111  1  0.875300  0.734700  0.522100  1.0
  C  C1112  1  0.875300  0.265300  0.477900  1.0
  C  C1113  1  0.522100  0.124700  0.265300  1.0
  C  C1114  1  0.477900  0.124700  0.734700  1.0
  C  C1115  1  0.522100  0.875300  0.734700  1.0
  C  C1116  1  0.477900  0.875300  0.265300  1.0
  C  C1117  1  0.522100  0.265300  0.875300  1.0
  C  C1118  1  0.477900  0.734700  0.875300  1.0
  C  C1119  1  0.522100  0.734700  0.124700  1.0
  C  C1120  1  0.477900  0.265300  0.124700  1.0
  C  C1121  1  0.265300  0.124700  0.477900  1.0
  C  C1122  1  0.734700  0.124700  0.522100  1.0
  C  C1123  1  0.734700  0.875300  0.477900  1.0
  C  C1124  1  0.265300  0.875300  0.522100  1.0
  C  C1125  1  0.124700  0.522100  0.734700  1.0
  C  C1126  1  0.124700  0.477900  0.265300  1.0
  C  C1127  1  0.875300  0.522100  0.265300  1.0
  C  C1128  1  0.875300  0.477900  0.734700  1.0
  C  C1129  1  0.285100  0.548000  0.140600  1.0
  C  C1130  1  0.714900  0.452000  0.140600  1.0
  C  C1131  1  0.714900  0.548000  0.859400  1.0
  C  C1132  1  0.285100  0.452000  0.859400  1.0
  C  C1133  1  0.140600  0.285100  0.548000  1.0
  C  C1134  1  0.140600  0.714900  0.452000  1.0
  C  C1135  1  0.859400  0.714900  0.548000  1.0
  C  C1136  1  0.859400  0.285100  0.452000  1.0
  C  C1137  1  0.548000  0.140600  0.285100  1.0
  C  C1138  1  0.452000  0.140600  0.714900  1.0
  C  C1139  1  0.548000  0.859400  0.714900  1.0
  C  C1140  1  0.452000  0.859400  0.285100  1.0
  C  C1141  1  0.548000  0.285100  0.859400  1.0
  C  C1142  1  0.452000  0.714900  0.859400  1.0
  C  C1143  1  0.548000  0.714900  0.140600  1.0
  C  C1144  1  0.452000  0.285100  0.140600  1.0
  C  C1145  1  0.285100  0.140600  0.452000  1.0
  C  C1146  1  0.714900  0.140600  0.548000  1.0
  C  C1147  1  0.714900  0.859400  0.452000  1.0
  C  C1148  1  0.285100  0.859400  0.548000  1.0
  C  C1149  1  0.140600  0.548000  0.714900  1.0
  C  C1150  1  0.140600  0.452000  0.285100  1.0
  C  C1151  1  0.859400  0.548000  0.285100  1.0
  C  C1152  1  0.859400  0.452000  0.714900  1.0
  C  C1153  1  0.268600  0.484800  0.136000  1.0
  C  C1154  1  0.731400  0.515200  0.136000  1.0
  C  C1155  1  0.731400  0.484800  0.864000  1.0
  C  C1156  1  0.268600  0.515200  0.864000  1.0
  C  C1157  1  0.136000  0.268600  0.484800  1.0
  C  C1158  1  0.136000  0.731400  0.515200  1.0
  C  C1159  1  0.864000  0.731400  0.484800  1.0
  C  C1160  1  0.864000  0.268600  0.515200  1.0
  C  C1161  1  0.484800  0.136000  0.268600  1.0
  C  C1162  1  0.515200  0.136000  0.731400  1.0
  C  C1163  1  0.484800  0.864000  0.731400  1.0
  C  C1164  1  0.515200  0.864000  0.268600  1.0
  C  C1165  1  0.484800  0.268600  0.864000  1.0
  C  C1166  1  0.515200  0.731400  0.864000  1.0
  C  C1167  1  0.484800  0.731400  0.136000  1.0
  C  C1168  1  0.515200  0.268600  0.136000  1.0
  C  C1169  1  0.268600  0.136000  0.515200  1.0
  C  C1170  1  0.731400  0.136000  0.484800  1.0
  C  C1171  1  0.731400  0.864000  0.515200  1.0
  C  C1172  1  0.268600  0.864000  0.484800  1.0
  C  C1173  1  0.136000  0.484800  0.731400  1.0
  C  C1174  1  0.136000  0.515200  0.268600  1.0
  C  C1175  1  0.864000  0.484800  0.268600  1.0
  C  C1176  1  0.864000  0.515200  0.731400  1.0
  C  C1177  1  0.279200  0.460400  0.111500  1.0
  C  C1178  1  0.720800  0.539600  0.111500  1.0
  C  C1179  1  0.720800  0.460400  0.888500  1.0
  C  C1180  1  0.279200  0.539600  0.888500  1.0
  C  C1181  1  0.111500  0.279200  0.460400  1.0
  C  C1182  1  0.111500  0.720800  0.539600  1.0
  C  C1183  1  0.888500  0.720800  0.460400  1.0
  C  C1184  1  0.888500  0.279200  0.539600  1.0
  C  C1185  1  0.460400  0.111500  0.279200  1.0
  C  C1186  1  0.539600  0.111500  0.720800  1.0
  C  C1187  1  0.460400  0.888500  0.720800  1.0
  C  C1188  1  0.539600  0.888500  0.279200  1.0
  C  C1189  1  0.460400  0.279200  0.888500  1.0
  C  C1190  1  0.539600  0.720800  0.888500  1.0
  C  C1191  1  0.460400  0.720800  0.111500  1.0
  C  C1192  1  0.539600  0.279200  0.111500  1.0
  C  C1193  1  0.279200  0.111500  0.539600  1.0
  C  C1194  1  0.720800  0.111500  0.460400  1.0
  C  C1195  1  0.720800  0.888500  0.539600  1.0
  C  C1196  1  0.279200  0.888500  0.460400  1.0
  C  C1197  1  0.111500  0.460400  0.720800  1.0
  C  C1198  1  0.111500  0.539600  0.279200  1.0
  C  C1199  1  0.888500  0.460400  0.279200  1.0
  C  C1200  1  0.888500  0.539600  0.720800  1.0
  C  C1201  1  0.289200  0.427300  0.122000  1.0
  C  C1202  1  0.710800  0.572700  0.122000  1.0
  C  C1203  1  0.710800  0.427300  0.878000  1.0
  C  C1204  1  0.289200  0.572700  0.878000  1.0
  C  C1205  1  0.122000  0.289200  0.427300  1.0
  C  C1206  1  0.122000  0.710800  0.572700  1.0
  C  C1207  1  0.878000  0.710800  0.427300  1.0
  C  C1208  1  0.878000  0.289200  0.572700  1.0
  C  C1209  1  0.427300  0.122000  0.289200  1.0
  C  C1210  1  0.572700  0.122000  0.710800  1.0
  C  C1211  1  0.427300  0.878000  0.710800  1.0
  C  C1212  1  0.572700  0.878000  0.289200  1.0
  C  C1213  1  0.427300  0.289200  0.878000  1.0
  C  C1214  1  0.572700  0.710800  0.878000  1.0
  C  C1215  1  0.427300  0.710800  0.122000  1.0
  C  C1216  1  0.572700  0.289200  0.122000  1.0
  C  C1217  1  0.289200  0.122000  0.572700  1.0
  C  C1218  1  0.710800  0.122000  0.427300  1.0
  C  C1219  1  0.710800  0.878000  0.572700  1.0
  C  C1220  1  0.289200  0.878000  0.427300  1.0
  C  C1221  1  0.122000  0.427300  0.710800  1.0
  C  C1222  1  0.122000  0.572700  0.289200  1.0
  C  C1223  1  0.878000  0.427300  0.289200  1.0
  C  C1224  1  0.878000  0.572700  0.710800  1.0
  C  C1225  1  0.288600  0.418500  0.157100  1.0
  C  C1226  1  0.711400  0.581500  0.157100  1.0
  C  C1227  1  0.711400  0.418500  0.842900  1.0
  C  C1228  1  0.288600  0.581500  0.842900  1.0
  C  C1229  1  0.157100  0.288600  0.418500  1.0
  C  C1230  1  0.157100  0.711400  0.581500  1.0
  C  C1231  1  0.842900  0.711400  0.418500  1.0
  C  C1232  1  0.842900  0.288600  0.581500  1.0
  C  C1233  1  0.418500  0.157100  0.288600  1.0
  C  C1234  1  0.581500  0.157100  0.711400  1.0
  C  C1235  1  0.418500  0.842900  0.711400  1.0
  C  C1236  1  0.581500  0.842900  0.288600  1.0
  C  C1237  1  0.418500  0.288600  0.842900  1.0
  C  C1238  1  0.581500  0.711400  0.842900  1.0
  C  C1239  1  0.418500  0.711400  0.157100  1.0
  C  C1240  1  0.581500  0.288600  0.157100  1.0
  C  C1241  1  0.288600  0.157100  0.581500  1.0
  C  C1242  1  0.711400  0.157100  0.418500  1.0
  C  C1243  1  0.711400  0.842900  0.581500  1.0
  C  C1244  1  0.288600  0.842900  0.418500  1.0
  C  C1245  1  0.157100  0.418500  0.711400  1.0
  C  C1246  1  0.157100  0.581500  0.288600  1.0
  C  C1247  1  0.842900  0.418500  0.288600  1.0
  C  C1248  1  0.842900  0.581500  0.711400  1.0
  C  C1249  1  0.277900  0.442900  0.181700  1.0
  C  C1250  1  0.722100  0.557100  0.181700  1.0
  C  C1251  1  0.722100  0.442900  0.818300  1.0
  C  C1252  1  0.277900  0.557100  0.818300  1.0
  C  C1253  1  0.181700  0.277900  0.442900  1.0
  C  C1254  1  0.181700  0.722100  0.557100  1.0
  C  C1255  1  0.818300  0.722100  0.442900  1.0
  C  C1256  1  0.818300  0.277900  0.557100  1.0
  C  C1257  1  0.442900  0.181700  0.277900  1.0
  C  C1258  1  0.557100  0.181700  0.722100  1.0
  C  C1259  1  0.442900  0.818300  0.722100  1.0
  C  C1260  1  0.557100  0.818300  0.277900  1.0
  C  C1261  1  0.442900  0.277900  0.818300  1.0
  C  C1262  1  0.557100  0.722100  0.818300  1.0
  C  C1263  1  0.442900  0.722100  0.181700  1.0
  C  C1264  1  0.557100  0.277900  0.181700  1.0
  C  C1265  1  0.277900  0.181700  0.557100  1.0
  C  C1266  1  0.722100  0.181700  0.442900  1.0
  C  C1267  1  0.722100  0.818300  0.557100  1.0
  C  C1268  1  0.277900  0.818300  0.442900  1.0
  C  C1269  1  0.181700  0.442900  0.722100  1.0
  C  C1270  1  0.181700  0.557100  0.277900  1.0
  C  C1271  1  0.818300  0.442900  0.277900  1.0
  C  C1272  1  0.818300  0.557100  0.722100  1.0
  C  C1273  1  0.267900  0.476100  0.171100  1.0
  C  C1274  1  0.732100  0.523900  0.171100  1.0
  C  C1275  1  0.732100  0.476100  0.828900  1.0
  C  C1276  1  0.267900  0.523900  0.828900  1.0
  C  C1277  1  0.171100  0.267900  0.476100  1.0
  C  C1278  1  0.171100  0.732100  0.523900  1.0
  C  C1279  1  0.828900  0.732100  0.476100  1.0
  C  C1280  1  0.828900  0.267900  0.523900  1.0
  C  C1281  1  0.476100  0.171100  0.267900  1.0
  C  C1282  1  0.523900  0.171100  0.732100  1.0
  C  C1283  1  0.476100  0.828900  0.732100  1.0
  C  C1284  1  0.523900  0.828900  0.267900  1.0
  C  C1285  1  0.476100  0.267900  0.828900  1.0
  C  C1286  1  0.523900  0.732100  0.828900  1.0
  C  C1287  1  0.476100  0.732100  0.171100  1.0
  C  C1288  1  0.523900  0.267900  0.171100  1.0
  C  C1289  1  0.267900  0.171100  0.523900  1.0
  C  C1290  1  0.732100  0.171100  0.476100  1.0
  C  C1291  1  0.732100  0.828900  0.523900  1.0
  C  C1292  1  0.267900  0.828900  0.476100  1.0
  C  C1293  1  0.171100  0.476100  0.732100  1.0
  C  C1294  1  0.171100  0.523900  0.267900  1.0
  C  C1295  1  0.828900  0.476100  0.267900  1.0
  C  C1296  1  0.828900  0.523900  0.732100  1.0
  C  C1297  1  0.375500  0.239800  0.187400  1.0
  C  C1298  1  0.624500  0.760200  0.187400  1.0
  C  C1299  1  0.624500  0.239800  0.812600  1.0
  C  C1300  1  0.375500  0.760200  0.812600  1.0
  C  C1301  1  0.187400  0.375500  0.239800  1.0
  C  C1302  1  0.187400  0.624500  0.760200  1.0
  C  C1303  1  0.812600  0.624500  0.239800  1.0
  C  C1304  1  0.812600  0.375500  0.760200  1.0
  C  C1305  1  0.239800  0.187400  0.375500  1.0
  C  C1306  1  0.760200  0.187400  0.624500  1.0
  C  C1307  1  0.239800  0.812600  0.624500  1.0
  C  C1308  1  0.760200  0.812600  0.375500  1.0
  C  C1309  1  0.239800  0.375500  0.812600  1.0
  C  C1310  1  0.760200  0.624500  0.812600  1.0
  C  C1311  1  0.239800  0.624500  0.187400  1.0
  C  C1312  1  0.760200  0.375500  0.187400  1.0
  C  C1313  1  0.375500  0.187400  0.760200  1.0
  C  C1314  1  0.624500  0.187400  0.239800  1.0
  C  C1315  1  0.624500  0.812600  0.760200  1.0
  C  C1316  1  0.375500  0.812600  0.239800  1.0
  C  C1317  1  0.187400  0.239800  0.624500  1.0
  C  C1318  1  0.187400  0.760200  0.375500  1.0
  C  C1319  1  0.812600  0.239800  0.375500  1.0
  C  C1320  1  0.812600  0.760200  0.624500  1.0
  C  C1321  1  0.410500  0.234100  0.194900  1.0
  C  C1322  1  0.589500  0.765900  0.194900  1.0
  C  C1323  1  0.589500  0.234100  0.805100  1.0
  C  C1324  1  0.410500  0.765900  0.805100  1.0
  C  C1325  1  0.194900  0.410500  0.234100  1.0
  C  C1326  1  0.194900  0.589500  0.765900  1.0
  C  C1327  1  0.805100  0.589500  0.234100  1.0
  C  C1328  1  0.805100  0.410500  0.765900  1.0
  C  C1329  1  0.234100  0.194900  0.410500  1.0
  C  C1330  1  0.765900  0.194900  0.589500  1.0
  C  C1331  1  0.234100  0.805100  0.589500  1.0
  C  C1332  1  0.765900  0.805100  0.410500  1.0
  C  C1333  1  0.234100  0.410500  0.805100  1.0
  C  C1334  1  0.765900  0.589500  0.805100  1.0
  C  C1335  1  0.234100  0.589500  0.194900  1.0
  C  C1336  1  0.765900  0.410500  0.194900  1.0
  C  C1337  1  0.410500  0.194900  0.765900  1.0
  C  C1338  1  0.589500  0.194900  0.234100  1.0
  C  C1339  1  0.589500  0.805100  0.765900  1.0
  C  C1340  1  0.410500  0.805100  0.234100  1.0
  C  C1341  1  0.194900  0.234100  0.589500  1.0
  C  C1342  1  0.194900  0.765900  0.410500  1.0
  C  C1343  1  0.805100  0.234100  0.410500  1.0
  C  C1344  1  0.805100  0.765900  0.589500  1.0
  C  C1345  1  0.423200  0.200300  0.197200  1.0
  C  C1346  1  0.576800  0.799700  0.197200  1.0
  C  C1347  1  0.576800  0.200300  0.802800  1.0
  C  C1348  1  0.423200  0.799700  0.802800  1.0
  C  C1349  1  0.197200  0.423200  0.200300  1.0
  C  C1350  1  0.197200  0.576800  0.799700  1.0
  C  C1351  1  0.802800  0.576800  0.200300  1.0
  C  C1352  1  0.802800  0.423200  0.799700  1.0
  C  C1353  1  0.200300  0.197200  0.423200  1.0
  C  C1354  1  0.799700  0.197200  0.576800  1.0
  C  C1355  1  0.200300  0.802800  0.576800  1.0
  C  C1356  1  0.799700  0.802800  0.423200  1.0
  C  C1357  1  0.200300  0.423200  0.802800  1.0
  C  C1358  1  0.799700  0.576800  0.802800  1.0
  C  C1359  1  0.200300  0.576800  0.197200  1.0
  C  C1360  1  0.799700  0.423200  0.197200  1.0
  C  C1361  1  0.423200  0.197200  0.799700  1.0
  C  C1362  1  0.576800  0.197200  0.200300  1.0
  C  C1363  1  0.576800  0.802800  0.799700  1.0
  C  C1364  1  0.423200  0.802800  0.200300  1.0
  C  C1365  1  0.197200  0.200300  0.576800  1.0
  C  C1366  1  0.197200  0.799700  0.423200  1.0
  C  C1367  1  0.802800  0.200300  0.423200  1.0
  C  C1368  1  0.802800  0.799700  0.576800  1.0
  C  C1369  1  0.400900  0.172200  0.192200  1.0
  C  C1370  1  0.599100  0.827800  0.192200  1.0
  C  C1371  1  0.599100  0.172200  0.807800  1.0
  C  C1372  1  0.400900  0.827800  0.807800  1.0
  C  C1373  1  0.192200  0.400900  0.172200  1.0
  C  C1374  1  0.192200  0.599100  0.827800  1.0
  C  C1375  1  0.807800  0.599100  0.172200  1.0
  C  C1376  1  0.807800  0.400900  0.827800  1.0
  C  C1377  1  0.172200  0.192200  0.400900  1.0
  C  C1378  1  0.827800  0.192200  0.599100  1.0
  C  C1379  1  0.172200  0.807800  0.599100  1.0
  C  C1380  1  0.827800  0.807800  0.400900  1.0
  C  C1381  1  0.172200  0.400900  0.807800  1.0
  C  C1382  1  0.827800  0.599100  0.807800  1.0
  C  C1383  1  0.172200  0.599100  0.192200  1.0
  C  C1384  1  0.827800  0.400900  0.192200  1.0
  C  C1385  1  0.400900  0.192200  0.827800  1.0
  C  C1386  1  0.599100  0.192200  0.172200  1.0
  C  C1387  1  0.599100  0.807800  0.827800  1.0
  C  C1388  1  0.400900  0.807800  0.172200  1.0
  C  C1389  1  0.192200  0.172200  0.599100  1.0
  C  C1390  1  0.192200  0.827800  0.400900  1.0
  C  C1391  1  0.807800  0.172200  0.400900  1.0
  C  C1392  1  0.807800  0.827800  0.599100  1.0
  C  C1393  1  0.366000  0.177900  0.184800  1.0
  C  C1394  1  0.634000  0.822100  0.184800  1.0
  C  C1395  1  0.634000  0.177900  0.815200  1.0
  C  C1396  1  0.366000  0.822100  0.815200  1.0
  C  C1397  1  0.184800  0.366000  0.177900  1.0
  C  C1398  1  0.184800  0.634000  0.822100  1.0
  C  C1399  1  0.815200  0.634000  0.177900  1.0
  C  C1400  1  0.815200  0.366000  0.822100  1.0
  C  C1401  1  0.177900  0.184800  0.366000  1.0
  C  C1402  1  0.822100  0.184800  0.634000  1.0
  C  C1403  1  0.177900  0.815200  0.634000  1.0
  C  C1404  1  0.822100  0.815200  0.366000  1.0
  C  C1405  1  0.177900  0.366000  0.815200  1.0
  C  C1406  1  0.822100  0.634000  0.815200  1.0
  C  C1407  1  0.177900  0.634000  0.184800  1.0
  C  C1408  1  0.822100  0.366000  0.184800  1.0
  C  C1409  1  0.366000  0.184800  0.822100  1.0
  C  C1410  1  0.634000  0.184800  0.177900  1.0
  C  C1411  1  0.634000  0.815200  0.822100  1.0
  C  C1412  1  0.366000  0.815200  0.177900  1.0
  C  C1413  1  0.184800  0.177900  0.634000  1.0
  C  C1414  1  0.184800  0.822100  0.366000  1.0
  C  C1415  1  0.815200  0.177900  0.366000  1.0
  C  C1416  1  0.815200  0.822100  0.634000  1.0
  C  C1417  1  0.353300  0.211800  0.182400  1.0
  C  C1418  1  0.646700  0.788200  0.182400  1.0
  C  C1419  1  0.646700  0.211800  0.817600  1.0
  C  C1420  1  0.353300  0.788200  0.817600  1.0
  C  C1421  1  0.182400  0.353300  0.211800  1.0
  C  C1422  1  0.182400  0.646700  0.788200  1.0
  C  C1423  1  0.817600  0.646700  0.211800  1.0
  C  C1424  1  0.817600  0.353300  0.788200  1.0
  C  C1425  1  0.211800  0.182400  0.353300  1.0
  C  C1426  1  0.788200  0.182400  0.646700  1.0
  C  C1427  1  0.211800  0.817600  0.646700  1.0
  C  C1428  1  0.788200  0.817600  0.353300  1.0
  C  C1429  1  0.211800  0.353300  0.817600  1.0
  C  C1430  1  0.788200  0.646700  0.817600  1.0
  C  C1431  1  0.211800  0.646700  0.182400  1.0
  C  C1432  1  0.788200  0.353300  0.182400  1.0
  C  C1433  1  0.353300  0.182400  0.788200  1.0
  C  C1434  1  0.646700  0.182400  0.211800  1.0
  C  C1435  1  0.646700  0.817600  0.788200  1.0
  C  C1436  1  0.353300  0.817600  0.211800  1.0
  C  C1437  1  0.182400  0.211800  0.646700  1.0
  C  C1438  1  0.182400  0.788200  0.353300  1.0
  C  C1439  1  0.817600  0.211800  0.353300  1.0
  C  C1440  1  0.817600  0.788200  0.646700  1.0
  C  C1441  1  0.455600  0.140000  0.205400  1.0
  C  C1442  1  0.544400  0.860000  0.205400  1.0
  C  C1443  1  0.544400  0.140000  0.794600  1.0
  C  C1444  1  0.455600  0.860000  0.794600  1.0
  C  C1445  1  0.205400  0.455600  0.140000  1.0
  C  C1446  1  0.205400  0.544400  0.860000  1.0
  C  C1447  1  0.794600  0.544400  0.140000  1.0
  C  C1448  1  0.794600  0.455600  0.860000  1.0
  C  C1449  1  0.140000  0.205400  0.455600  1.0
  C  C1450  1  0.860000  0.205400  0.544400  1.0
  C  C1451  1  0.140000  0.794600  0.544400  1.0
  C  C1452  1  0.860000  0.794600  0.455600  1.0
  C  C1453  1  0.140000  0.455600  0.794600  1.0
  C  C1454  1  0.860000  0.544400  0.794600  1.0
  C  C1455  1  0.140000  0.544400  0.205400  1.0
  C  C1456  1  0.860000  0.455600  0.205400  1.0
  C  C1457  1  0.455600  0.205400  0.860000  1.0
  C  C1458  1  0.544400  0.205400  0.140000  1.0
  C  C1459  1  0.544400  0.794600  0.860000  1.0
  C  C1460  1  0.455600  0.794600  0.140000  1.0
  C  C1461  1  0.205400  0.140000  0.544400  1.0
  C  C1462  1  0.205400  0.860000  0.455600  1.0
  C  C1463  1  0.794600  0.140000  0.455600  1.0
  C  C1464  1  0.794600  0.860000  0.544400  1.0
  C  C1465  1  0.329100  0.279900  0.193100  1.0
  C  C1466  1  0.670900  0.720100  0.193100  1.0
  C  C1467  1  0.670900  0.279900  0.806900  1.0
  C  C1468  1  0.329100  0.720100  0.806900  1.0
  C  C1469  1  0.193100  0.329100  0.279900  1.0
  C  C1470  1  0.193100  0.670900  0.720100  1.0
  C  C1471  1  0.806900  0.670900  0.279900  1.0
  C  C1472  1  0.806900  0.329100  0.720100  1.0
  C  C1473  1  0.279900  0.193100  0.329100  1.0
  C  C1474  1  0.720100  0.193100  0.670900  1.0
  C  C1475  1  0.279900  0.806900  0.670900  1.0
  C  C1476  1  0.720100  0.806900  0.329100  1.0
  C  C1477  1  0.279900  0.329100  0.806900  1.0
  C  C1478  1  0.720100  0.670900  0.806900  1.0
  C  C1479  1  0.279900  0.670900  0.193100  1.0
  C  C1480  1  0.720100  0.329100  0.193100  1.0
  C  C1481  1  0.329100  0.193100  0.720100  1.0
  C  C1482  1  0.670900  0.193100  0.279900  1.0
  C  C1483  1  0.670900  0.806900  0.720100  1.0
  C  C1484  1  0.329100  0.806900  0.279900  1.0
  C  C1485  1  0.193100  0.279900  0.670900  1.0
  C  C1486  1  0.193100  0.720100  0.329100  1.0
  C  C1487  1  0.806900  0.279900  0.329100  1.0
  C  C1488  1  0.806900  0.720100  0.670900  1.0
  C  C1489  1  0.316100  0.316500  0.185900  1.0
  C  C1490  1  0.683900  0.683500  0.185900  1.0
  C  C1491  1  0.683900  0.316500  0.814100  1.0
  C  C1492  1  0.316100  0.683500  0.814100  1.0
  C  C1493  1  0.185900  0.316100  0.316500  1.0
  C  C1494  1  0.185900  0.683900  0.683500  1.0
  C  C1495  1  0.814100  0.683900  0.316500  1.0
  C  C1496  1  0.814100  0.316100  0.683500  1.0
  C  C1497  1  0.316500  0.185900  0.316100  1.0
  C  C1498  1  0.683500  0.185900  0.683900  1.0
  C  C1499  1  0.316500  0.814100  0.683900  1.0
  C  C1500  1  0.683500  0.814100  0.316100  1.0
  C  C1501  1  0.316500  0.316100  0.814100  1.0
  C  C1502  1  0.683500  0.683900  0.814100  1.0
  C  C1503  1  0.316500  0.683900  0.185900  1.0
  C  C1504  1  0.683500  0.316100  0.185900  1.0
  C  C1505  1  0.316100  0.185900  0.683500  1.0
  C  C1506  1  0.683900  0.185900  0.316500  1.0
  C  C1507  1  0.683900  0.814100  0.683500  1.0
  C  C1508  1  0.316100  0.814100  0.316500  1.0
  C  C1509  1  0.185900  0.316500  0.683900  1.0
  C  C1510  1  0.185900  0.683500  0.316100  1.0
  C  C1511  1  0.814100  0.316500  0.316100  1.0
  C  C1512  1  0.814100  0.683500  0.683900  1.0
  C  C1513  1  0.285000  0.329900  0.198200  1.0
  C  C1514  1  0.715000  0.670100  0.198200  1.0
  C  C1515  1  0.715000  0.329900  0.801800  1.0
  C  C1516  1  0.285000  0.670100  0.801800  1.0
  C  C1517  1  0.198200  0.285000  0.329900  1.0
  C  C1518  1  0.198200  0.715000  0.670100  1.0
  C  C1519  1  0.801800  0.715000  0.329900  1.0
  C  C1520  1  0.801800  0.285000  0.670100  1.0
  C  C1521  1  0.329900  0.198200  0.285000  1.0
  C  C1522  1  0.670100  0.198200  0.715000  1.0
  C  C1523  1  0.329900  0.801800  0.715000  1.0
  C  C1524  1  0.670100  0.801800  0.285000  1.0
  C  C1525  1  0.329900  0.285000  0.801800  1.0
  C  C1526  1  0.670100  0.715000  0.801800  1.0
  C  C1527  1  0.329900  0.715000  0.198200  1.0
  C  C1528  1  0.670100  0.285000  0.198200  1.0
  C  C1529  1  0.285000  0.198200  0.670100  1.0
  C  C1530  1  0.715000  0.198200  0.329900  1.0
  C  C1531  1  0.715000  0.801800  0.670100  1.0
  C  C1532  1  0.285000  0.801800  0.329900  1.0
  C  C1533  1  0.198200  0.329900  0.715000  1.0
  C  C1534  1  0.198200  0.670100  0.285000  1.0
  C  C1535  1  0.801800  0.329900  0.285000  1.0
  C  C1536  1  0.801800  0.670100  0.715000  1.0
  C  C1537  1  0.275200  0.362400  0.186900  1.0
  C  C1538  1  0.724800  0.637600  0.186900  1.0
  C  C1539  1  0.724800  0.362400  0.813100  1.0
  C  C1540  1  0.275200  0.637600  0.813100  1.0
  C  C1541  1  0.186900  0.275200  0.362400  1.0
  C  C1542  1  0.186900  0.724800  0.637600  1.0
  C  C1543  1  0.813100  0.724800  0.362400  1.0
  C  C1544  1  0.813100  0.275200  0.637600  1.0
  C  C1545  1  0.362400  0.186900  0.275200  1.0
  C  C1546  1  0.637600  0.186900  0.724800  1.0
  C  C1547  1  0.362400  0.813100  0.724800  1.0
  C  C1548  1  0.637600  0.813100  0.275200  1.0
  C  C1549  1  0.362400  0.275200  0.813100  1.0
  C  C1550  1  0.637600  0.724800  0.813100  1.0
  C  C1551  1  0.362400  0.724800  0.186900  1.0
  C  C1552  1  0.637600  0.275200  0.186900  1.0
  C  C1553  1  0.275200  0.186900  0.637600  1.0
  C  C1554  1  0.724800  0.186900  0.362400  1.0
  C  C1555  1  0.724800  0.813100  0.637600  1.0
  C  C1556  1  0.275200  0.813100  0.362400  1.0
  C  C1557  1  0.186900  0.362400  0.724800  1.0
  C  C1558  1  0.186900  0.637600  0.275200  1.0
  C  C1559  1  0.813100  0.362400  0.275200  1.0
  C  C1560  1  0.813100  0.637600  0.724800  1.0
  C  C1561  1  0.297000  0.380800  0.164800  1.0
  C  C1562  1  0.703000  0.619200  0.164800  1.0
  C  C1563  1  0.703000  0.380800  0.835200  1.0
  C  C1564  1  0.297000  0.619200  0.835200  1.0
  C  C1565  1  0.164800  0.297000  0.380800  1.0
  C  C1566  1  0.164800  0.703000  0.619200  1.0
  C  C1567  1  0.835200  0.703000  0.380800  1.0
  C  C1568  1  0.835200  0.297000  0.619200  1.0
  C  C1569  1  0.380800  0.164800  0.297000  1.0
  C  C1570  1  0.619200  0.164800  0.703000  1.0
  C  C1571  1  0.380800  0.835200  0.703000  1.0
  C  C1572  1  0.619200  0.835200  0.297000  1.0
  C  C1573  1  0.380800  0.297000  0.835200  1.0
  C  C1574  1  0.619200  0.703000  0.835200  1.0
  C  C1575  1  0.380800  0.703000  0.164800  1.0
  C  C1576  1  0.619200  0.297000  0.164800  1.0
  C  C1577  1  0.297000  0.164800  0.619200  1.0
  C  C1578  1  0.703000  0.164800  0.380800  1.0
  C  C1579  1  0.703000  0.835200  0.619200  1.0
  C  C1580  1  0.297000  0.835200  0.380800  1.0
  C  C1581  1  0.164800  0.380800  0.703000  1.0
  C  C1582  1  0.164800  0.619200  0.297000  1.0
  C  C1583  1  0.835200  0.380800  0.297000  1.0
  C  C1584  1  0.835200  0.619200  0.703000  1.0
  C  C1585  1  0.329900  0.367800  0.158100  1.0
  C  C1586  1  0.670100  0.632200  0.158100  1.0
  C  C1587  1  0.670100  0.367800  0.841900  1.0
  C  C1588  1  0.329900  0.632200  0.841900  1.0
  C  C1589  1  0.158100  0.329900  0.367800  1.0
  C  C1590  1  0.158100  0.670100  0.632200  1.0
  C  C1591  1  0.841900  0.670100  0.367800  1.0
  C  C1592  1  0.841900  0.329900  0.632200  1.0
  C  C1593  1  0.367800  0.158100  0.329900  1.0
  C  C1594  1  0.632200  0.158100  0.670100  1.0
  C  C1595  1  0.367800  0.841900  0.670100  1.0
  C  C1596  1  0.632200  0.841900  0.329900  1.0
  C  C1597  1  0.367800  0.329900  0.841900  1.0
  C  C1598  1  0.632200  0.670100  0.841900  1.0
  C  C1599  1  0.367800  0.670100  0.158100  1.0
  C  C1600  1  0.632200  0.329900  0.158100  1.0
  C  C1601  1  0.329900  0.158100  0.632200  1.0
  C  C1602  1  0.670100  0.158100  0.367800  1.0
  C  C1603  1  0.670100  0.841900  0.632200  1.0
  C  C1604  1  0.329900  0.841900  0.367800  1.0
  C  C1605  1  0.158100  0.367800  0.670100  1.0
  C  C1606  1  0.158100  0.632200  0.329900  1.0
  C  C1607  1  0.841900  0.367800  0.329900  1.0
  C  C1608  1  0.841900  0.632200  0.670100  1.0
  C  C1609  1  0.320200  0.582800  0.222800  1.0
  C  C1610  1  0.679800  0.417200  0.222800  1.0
  C  C1611  1  0.679800  0.582800  0.777200  1.0
  C  C1612  1  0.320200  0.417200  0.777200  1.0
  C  C1613  1  0.222800  0.320200  0.582800  1.0
  C  C1614  1  0.222800  0.679800  0.417200  1.0
  C  C1615  1  0.777200  0.679800  0.582800  1.0
  C  C1616  1  0.777200  0.320200  0.417200  1.0
  C  C1617  1  0.582800  0.222800  0.320200  1.0
  C  C1618  1  0.417200  0.222800  0.679800  1.0
  C  C1619  1  0.582800  0.777200  0.679800  1.0
  C  C1620  1  0.417200  0.777200  0.320200  1.0
  C  C1621  1  0.582800  0.320200  0.777200  1.0
  C  C1622  1  0.417200  0.679800  0.777200  1.0
  C  C1623  1  0.582800  0.679800  0.222800  1.0
  C  C1624  1  0.417200  0.320200  0.222800  1.0
  C  C1625  1  0.320200  0.222800  0.417200  1.0
  C  C1626  1  0.679800  0.222800  0.582800  1.0
  C  C1627  1  0.679800  0.777200  0.417200  1.0
  C  C1628  1  0.320200  0.777200  0.582800  1.0
  C  C1629  1  0.222800  0.582800  0.679800  1.0
  C  C1630  1  0.222800  0.417200  0.320200  1.0
  C  C1631  1  0.777200  0.582800  0.320200  1.0
  C  C1632  1  0.777200  0.417200  0.679800  1.0
  C  C1633  1  0.307300  0.606000  0.247500  1.0
  C  C1634  1  0.692700  0.394000  0.247500  1.0
  C  C1635  1  0.692700  0.606000  0.752500  1.0
  C  C1636  1  0.307300  0.394000  0.752500  1.0
  C  C1637  1  0.247500  0.307300  0.606000  1.0
  C  C1638  1  0.247500  0.692700  0.394000  1.0
  C  C1639  1  0.752500  0.692700  0.606000  1.0
  C  C1640  1  0.752500  0.307300  0.394000  1.0
  C  C1641  1  0.606000  0.247500  0.307300  1.0
  C  C1642  1  0.394000  0.247500  0.692700  1.0
  C  C1643  1  0.606000  0.752500  0.692700  1.0
  C  C1644  1  0.394000  0.752500  0.307300  1.0
  C  C1645  1  0.606000  0.307300  0.752500  1.0
  C  C1646  1  0.394000  0.692700  0.752500  1.0
  C  C1647  1  0.606000  0.692700  0.247500  1.0
  C  C1648  1  0.394000  0.307300  0.247500  1.0
  C  C1649  1  0.307300  0.247500  0.394000  1.0
  C  C1650  1  0.692700  0.247500  0.606000  1.0
  C  C1651  1  0.692700  0.752500  0.394000  1.0
  C  C1652  1  0.307300  0.752500  0.606000  1.0
  C  C1653  1  0.247500  0.606000  0.692700  1.0
  C  C1654  1  0.247500  0.394000  0.307300  1.0
  C  C1655  1  0.752500  0.606000  0.307300  1.0
  C  C1656  1  0.752500  0.394000  0.692700  1.0
  C  C1657  1  0.296900  0.593900  0.279900  1.0
  C  C1658  1  0.703100  0.406100  0.279900  1.0
  C  C1659  1  0.703100  0.593900  0.720100  1.0
  C  C1660  1  0.296900  0.406100  0.720100  1.0
  C  C1661  1  0.279900  0.296900  0.593900  1.0
  C  C1662  1  0.279900  0.703100  0.406100  1.0
  C  C1663  1  0.720100  0.703100  0.593900  1.0
  C  C1664  1  0.720100  0.296900  0.406100  1.0
  C  C1665  1  0.593900  0.279900  0.296900  1.0
  C  C1666  1  0.406100  0.279900  0.703100  1.0
  C  C1667  1  0.593900  0.720100  0.703100  1.0
  C  C1668  1  0.406100  0.720100  0.296900  1.0
  C  C1669  1  0.593900  0.296900  0.720100  1.0
  C  C1670  1  0.406100  0.703100  0.720100  1.0
  C  C1671  1  0.593900  0.703100  0.279900  1.0
  C  C1672  1  0.406100  0.296900  0.279900  1.0
  C  C1673  1  0.296900  0.279900  0.406100  1.0
  C  C1674  1  0.703100  0.279900  0.593900  1.0
  C  C1675  1  0.703100  0.720100  0.406100  1.0
  C  C1676  1  0.296900  0.720100  0.593900  1.0
  C  C1677  1  0.279900  0.593900  0.703100  1.0
  C  C1678  1  0.279900  0.406100  0.296900  1.0
  C  C1679  1  0.720100  0.593900  0.296900  1.0
  C  C1680  1  0.720100  0.406100  0.703100  1.0
  C  C1681  1  0.299300  0.558600  0.287700  1.0
  C  C1682  1  0.700700  0.441400  0.287700  1.0
  C  C1683  1  0.700700  0.558600  0.712300  1.0
  C  C1684  1  0.299300  0.441400  0.712300  1.0
  C  C1685  1  0.287700  0.299300  0.558600  1.0
  C  C1686  1  0.287700  0.700700  0.441400  1.0
  C  C1687  1  0.712300  0.700700  0.558600  1.0
  C  C1688  1  0.712300  0.299300  0.441400  1.0
  C  C1689  1  0.558600  0.287700  0.299300  1.0
  C  C1690  1  0.441400  0.287700  0.700700  1.0
  C  C1691  1  0.558600  0.712300  0.700700  1.0
  C  C1692  1  0.441400  0.712300  0.299300  1.0
  C  C1693  1  0.558600  0.299300  0.712300  1.0
  C  C1694  1  0.441400  0.700700  0.712300  1.0
  C  C1695  1  0.558600  0.700700  0.287700  1.0
  C  C1696  1  0.441400  0.299300  0.287700  1.0
  C  C1697  1  0.299300  0.287700  0.441400  1.0
  C  C1698  1  0.700700  0.287700  0.558600  1.0
  C  C1699  1  0.700700  0.712300  0.441400  1.0
  C  C1700  1  0.299300  0.712300  0.558600  1.0
  C  C1701  1  0.287700  0.558600  0.700700  1.0
  C  C1702  1  0.287700  0.441400  0.299300  1.0
  C  C1703  1  0.712300  0.558600  0.299300  1.0
  C  C1704  1  0.712300  0.441400  0.700700  1.0
  C  C1705  1  0.312100  0.535400  0.263100  1.0
  C  C1706  1  0.687900  0.464600  0.263100  1.0
  C  C1707  1  0.687900  0.535400  0.736900  1.0
  C  C1708  1  0.312100  0.464600  0.736900  1.0
  C  C1709  1  0.263100  0.312100  0.535400  1.0
  C  C1710  1  0.263100  0.687900  0.464600  1.0
  C  C1711  1  0.736900  0.687900  0.535400  1.0
  C  C1712  1  0.736900  0.312100  0.464600  1.0
  C  C1713  1  0.535400  0.263100  0.312100  1.0
  C  C1714  1  0.464600  0.263100  0.687900  1.0
  C  C1715  1  0.535400  0.736900  0.687900  1.0
  C  C1716  1  0.464600  0.736900  0.312100  1.0
  C  C1717  1  0.535400  0.312100  0.736900  1.0
  C  C1718  1  0.464600  0.687900  0.736900  1.0
  C  C1719  1  0.535400  0.687900  0.263100  1.0
  C  C1720  1  0.464600  0.312100  0.263100  1.0
  C  C1721  1  0.312100  0.263100  0.464600  1.0
  C  C1722  1  0.687900  0.263100  0.535400  1.0
  C  C1723  1  0.687900  0.736900  0.464600  1.0
  C  C1724  1  0.312100  0.736900  0.535400  1.0
  C  C1725  1  0.263100  0.535400  0.687900  1.0
  C  C1726  1  0.263100  0.464600  0.312100  1.0
  C  C1727  1  0.736900  0.535400  0.312100  1.0
  C  C1728  1  0.736900  0.464600  0.687900  1.0
  C  C1729  1  0.322600  0.547600  0.230600  1.0
  C  C1730  1  0.677400  0.452400  0.230600  1.0
  C  C1731  1  0.677400  0.547600  0.769400  1.0
  C  C1732  1  0.322600  0.452400  0.769400  1.0
  C  C1733  1  0.230600  0.322600  0.547600  1.0
  C  C1734  1  0.230600  0.677400  0.452400  1.0
  C  C1735  1  0.769400  0.677400  0.547600  1.0
  C  C1736  1  0.769400  0.322600  0.452400  1.0
  C  C1737  1  0.547600  0.230600  0.322600  1.0
  C  C1738  1  0.452400  0.230600  0.677400  1.0
  C  C1739  1  0.547600  0.769400  0.677400  1.0
  C  C1740  1  0.452400  0.769400  0.322600  1.0
  C  C1741  1  0.547600  0.322600  0.769400  1.0
  C  C1742  1  0.452400  0.677400  0.769400  1.0
  C  C1743  1  0.547600  0.677400  0.230600  1.0
  C  C1744  1  0.452400  0.322600  0.230600  1.0
  C  C1745  1  0.322600  0.230600  0.452400  1.0
  C  C1746  1  0.677400  0.230600  0.547600  1.0
  C  C1747  1  0.677400  0.769400  0.452400  1.0
  C  C1748  1  0.322600  0.769400  0.547600  1.0
  C  C1749  1  0.230600  0.547600  0.677400  1.0
  C  C1750  1  0.230600  0.452400  0.322600  1.0
  C  C1751  1  0.769400  0.547600  0.322600  1.0
  C  C1752  1  0.769400  0.452400  0.677400  1.0
  C  C1753  1  0.276600  0.573800  0.347500  1.0
  C  C1754  1  0.723400  0.426200  0.347500  1.0
  C  C1755  1  0.723400  0.573800  0.652500  1.0
  C  C1756  1  0.276600  0.426200  0.652500  1.0
  C  C1757  1  0.347500  0.276600  0.573800  1.0
  C  C1758  1  0.347500  0.723400  0.426200  1.0
  C  C1759  1  0.652500  0.723400  0.573800  1.0
  C  C1760  1  0.652500  0.276600  0.426200  1.0
  C  C1761  1  0.573800  0.347500  0.276600  1.0
  C  C1762  1  0.426200  0.347500  0.723400  1.0
  C  C1763  1  0.573800  0.652500  0.723400  1.0
  C  C1764  1  0.426200  0.652500  0.276600  1.0
  C  C1765  1  0.573800  0.276600  0.652500  1.0
  C  C1766  1  0.426200  0.723400  0.652500  1.0
  C  C1767  1  0.573800  0.723400  0.347500  1.0
  C  C1768  1  0.426200  0.276600  0.347500  1.0
  C  C1769  1  0.276600  0.347500  0.426200  1.0
  C  C1770  1  0.723400  0.347500  0.573800  1.0
  C  C1771  1  0.723400  0.652500  0.426200  1.0
  C  C1772  1  0.276600  0.652500  0.573800  1.0
  C  C1773  1  0.347500  0.573800  0.723400  1.0
  C  C1774  1  0.347500  0.426200  0.276600  1.0
  C  C1775  1  0.652500  0.573800  0.276600  1.0
  C  C1776  1  0.652500  0.426200  0.723400  1.0
  C  C1777  1  0.363100  0.576600  0.180800  1.0
  C  C1778  1  0.636900  0.423400  0.180800  1.0
  C  C1779  1  0.636900  0.576600  0.819200  1.0
  C  C1780  1  0.363100  0.423400  0.819200  1.0
  C  C1781  1  0.180800  0.363100  0.576600  1.0
  C  C1782  1  0.180800  0.636900  0.423400  1.0
  C  C1783  1  0.819200  0.636900  0.576600  1.0
  C  C1784  1  0.819200  0.363100  0.423400  1.0
  C  C1785  1  0.576600  0.180800  0.363100  1.0
  C  C1786  1  0.423400  0.180800  0.636900  1.0
  C  C1787  1  0.576600  0.819200  0.636900  1.0
  C  C1788  1  0.423400  0.819200  0.363100  1.0
  C  C1789  1  0.576600  0.363100  0.819200  1.0
  C  C1790  1  0.423400  0.636900  0.819200  1.0
  C  C1791  1  0.576600  0.636900  0.180800  1.0
  C  C1792  1  0.423400  0.363100  0.180800  1.0
  C  C1793  1  0.363100  0.180800  0.423400  1.0
  C  C1794  1  0.636900  0.180800  0.576600  1.0
  C  C1795  1  0.636900  0.819200  0.423400  1.0
  C  C1796  1  0.363100  0.819200  0.576600  1.0
  C  C1797  1  0.180800  0.576600  0.636900  1.0
  C  C1798  1  0.180800  0.423400  0.363100  1.0
  C  C1799  1  0.819200  0.576600  0.363100  1.0
  C  C1800  1  0.819200  0.423400  0.636900  1.0
  C  C1801  1  0.372200  0.579700  0.142300  1.0
  C  C1802  1  0.627800  0.420300  0.142300  1.0
  C  C1803  1  0.627800  0.579700  0.857700  1.0
  C  C1804  1  0.372200  0.420300  0.857700  1.0
  C  C1805  1  0.142300  0.372200  0.579700  1.0
  C  C1806  1  0.142300  0.627800  0.420300  1.0
  C  C1807  1  0.857700  0.627800  0.579700  1.0
  C  C1808  1  0.857700  0.372200  0.420300  1.0
  C  C1809  1  0.579700  0.142300  0.372200  1.0
  C  C1810  1  0.420300  0.142300  0.627800  1.0
  C  C1811  1  0.579700  0.857700  0.627800  1.0
  C  C1812  1  0.420300  0.857700  0.372200  1.0
  C  C1813  1  0.579700  0.372200  0.857700  1.0
  C  C1814  1  0.420300  0.627800  0.857700  1.0
  C  C1815  1  0.579700  0.627800  0.142300  1.0
  C  C1816  1  0.420300  0.372200  0.142300  1.0
  C  C1817  1  0.372200  0.142300  0.420300  1.0
  C  C1818  1  0.627800  0.142300  0.579700  1.0
  C  C1819  1  0.627800  0.857700  0.420300  1.0
  C  C1820  1  0.372200  0.857700  0.579700  1.0
  C  C1821  1  0.142300  0.579700  0.627800  1.0
  C  C1822  1  0.142300  0.420300  0.372200  1.0
  C  C1823  1  0.857700  0.579700  0.372200  1.0
  C  C1824  1  0.857700  0.420300  0.627800  1.0
  C  C1825  1  0.404400  0.569900  0.129300  1.0
  C  C1826  1  0.595600  0.430100  0.129300  1.0
  C  C1827  1  0.595600  0.569900  0.870700  1.0
  C  C1828  1  0.404400  0.430100  0.870700  1.0
  C  C1829  1  0.129300  0.404400  0.569900  1.0
  C  C1830  1  0.129300  0.595600  0.430100  1.0
  C  C1831  1  0.870700  0.595600  0.569900  1.0
  C  C1832  1  0.870700  0.404400  0.430100  1.0
  C  C1833  1  0.569900  0.129300  0.404400  1.0
  C  C1834  1  0.430100  0.129300  0.595600  1.0
  C  C1835  1  0.569900  0.870700  0.595600  1.0
  C  C1836  1  0.430100  0.870700  0.404400  1.0
  C  C1837  1  0.569900  0.404400  0.870700  1.0
  C  C1838  1  0.430100  0.595600  0.870700  1.0
  C  C1839  1  0.569900  0.595600  0.129300  1.0
  C  C1840  1  0.430100  0.404400  0.129300  1.0
  C  C1841  1  0.404400  0.129300  0.430100  1.0
  C  C1842  1  0.595600  0.129300  0.569900  1.0
  C  C1843  1  0.595600  0.870700  0.430100  1.0
  C  C1844  1  0.404400  0.870700  0.569900  1.0
  C  C1845  1  0.129300  0.569900  0.595600  1.0
  C  C1846  1  0.129300  0.430100  0.404400  1.0
  C  C1847  1  0.870700  0.569900  0.404400  1.0
  C  C1848  1  0.870700  0.430100  0.595600  1.0
  C  C1849  1  0.409800  0.573500  0.094000  1.0
  C  C1850  1  0.590200  0.426500  0.094000  1.0
  C  C1851  1  0.590200  0.573500  0.906000  1.0
  C  C1852  1  0.409800  0.426500  0.906000  1.0
  C  C1853  1  0.094000  0.409800  0.573500  1.0
  C  C1854  1  0.094000  0.590200  0.426500  1.0
  C  C1855  1  0.906000  0.590200  0.573500  1.0
  C  C1856  1  0.906000  0.409800  0.426500  1.0
  C  C1857  1  0.573500  0.094000  0.409800  1.0
  C  C1858  1  0.426500  0.094000  0.590200  1.0
  C  C1859  1  0.573500  0.906000  0.590200  1.0
  C  C1860  1  0.426500  0.906000  0.409800  1.0
  C  C1861  1  0.573500  0.409800  0.906000  1.0
  C  C1862  1  0.426500  0.590200  0.906000  1.0
  C  C1863  1  0.573500  0.590200  0.094000  1.0
  C  C1864  1  0.426500  0.409800  0.094000  1.0
  C  C1865  1  0.409800  0.094000  0.426500  1.0
  C  C1866  1  0.590200  0.094000  0.573500  1.0
  C  C1867  1  0.590200  0.906000  0.426500  1.0
  C  C1868  1  0.409800  0.906000  0.573500  1.0
  C  C1869  1  0.094000  0.573500  0.590200  1.0
  C  C1870  1  0.094000  0.426500  0.409800  1.0
  C  C1871  1  0.906000  0.573500  0.409800  1.0
  C  C1872  1  0.906000  0.426500  0.590200  1.0
  C  C1873  1  0.386500  0.592900  0.074500  1.0
  C  C1874  1  0.613500  0.407100  0.074500  1.0
  C  C1875  1  0.613500  0.592900  0.925500  1.0
  C  C1876  1  0.386500  0.407100  0.925500  1.0
  C  C1877  1  0.074500  0.386500  0.592900  1.0
  C  C1878  1  0.074500  0.613500  0.407100  1.0
  C  C1879  1  0.925500  0.613500  0.592900  1.0
  C  C1880  1  0.925500  0.386500  0.407100  1.0
  C  C1881  1  0.592900  0.074500  0.386500  1.0
  C  C1882  1  0.407100  0.074500  0.613500  1.0
  C  C1883  1  0.592900  0.925500  0.613500  1.0
  C  C1884  1  0.407100  0.925500  0.386500  1.0
  C  C1885  1  0.592900  0.386500  0.925500  1.0
  C  C1886  1  0.407100  0.613500  0.925500  1.0
  C  C1887  1  0.592900  0.613500  0.074500  1.0
  C  C1888  1  0.407100  0.386500  0.074500  1.0
  C  C1889  1  0.386500  0.074500  0.407100  1.0
  C  C1890  1  0.613500  0.074500  0.592900  1.0
  C  C1891  1  0.613500  0.925500  0.407100  1.0
  C  C1892  1  0.386500  0.925500  0.592900  1.0
  C  C1893  1  0.074500  0.592900  0.613500  1.0
  C  C1894  1  0.074500  0.407100  0.386500  1.0
  C  C1895  1  0.925500  0.592900  0.386500  1.0
  C  C1896  1  0.925500  0.407100  0.613500  1.0
  C  C1897  1  0.356500  0.605400  0.090600  1.0
  C  C1898  1  0.643500  0.394600  0.090600  1.0
  C  C1899  1  0.643500  0.605400  0.909400  1.0
  C  C1900  1  0.356500  0.394600  0.909400  1.0
  C  C1901  1  0.090600  0.356500  0.605400  1.0
  C  C1902  1  0.090600  0.643500  0.394600  1.0
  C  C1903  1  0.909400  0.643500  0.605400  1.0
  C  C1904  1  0.909400  0.356500  0.394600  1.0
  C  C1905  1  0.605400  0.090600  0.356500  1.0
  C  C1906  1  0.394600  0.090600  0.643500  1.0
  C  C1907  1  0.605400  0.909400  0.643500  1.0
  C  C1908  1  0.394600  0.909400  0.356500  1.0
  C  C1909  1  0.605400  0.356500  0.909400  1.0
  C  C1910  1  0.394600  0.643500  0.909400  1.0
  C  C1911  1  0.605400  0.643500  0.090600  1.0
  C  C1912  1  0.394600  0.356500  0.090600  1.0
  C  C1913  1  0.356500  0.090600  0.394600  1.0
  C  C1914  1  0.643500  0.090600  0.605400  1.0
  C  C1915  1  0.643500  0.909400  0.394600  1.0
  C  C1916  1  0.356500  0.909400  0.605400  1.0
  C  C1917  1  0.090600  0.605400  0.643500  1.0
  C  C1918  1  0.090600  0.394600  0.356500  1.0
  C  C1919  1  0.909400  0.605400  0.356500  1.0
  C  C1920  1  0.909400  0.394600  0.643500  1.0
  C  C1921  1  0.390400  0.597600  0.036300  1.0
  C  C1922  1  0.609600  0.402400  0.036300  1.0
  C  C1923  1  0.609600  0.597600  0.963700  1.0
  C  C1924  1  0.390400  0.402400  0.963700  1.0
  C  C1925  1  0.036300  0.390400  0.597600  1.0
  C  C1926  1  0.036300  0.609600  0.402400  1.0
  C  C1927  1  0.963700  0.609600  0.597600  1.0
  C  C1928  1  0.963700  0.390400  0.402400  1.0
  C  C1929  1  0.597600  0.036300  0.390400  1.0
  C  C1930  1  0.402400  0.036300  0.609600  1.0
  C  C1931  1  0.597600  0.963700  0.609600  1.0
  C  C1932  1  0.402400  0.963700  0.390400  1.0
  C  C1933  1  0.597600  0.390400  0.963700  1.0
  C  C1934  1  0.402400  0.609600  0.963700  1.0
  C  C1935  1  0.597600  0.609600  0.036300  1.0
  C  C1936  1  0.402400  0.390400  0.036300  1.0
  C  C1937  1  0.390400  0.036300  0.402400  1.0
  C  C1938  1  0.609600  0.036300  0.597600  1.0
  C  C1939  1  0.609600  0.963700  0.402400  1.0
  C  C1940  1  0.390400  0.963700  0.597600  1.0
  C  C1941  1  0.036300  0.597600  0.609600  1.0
  C  C1942  1  0.036300  0.402400  0.390400  1.0
  C  C1943  1  0.963700  0.597600  0.390400  1.0
  C  C1944  1  0.963700  0.402400  0.609600  1.0
  C  C1945  1  0.388000  0.569600  0.013000  1.0
  C  C1946  1  0.612000  0.430400  0.013000  1.0
  C  C1947  1  0.612000  0.569600  0.987000  1.0
  C  C1948  1  0.388000  0.430400  0.987000  1.0
  C  C1949  1  0.013000  0.388000  0.569600  1.0
  C  C1950  1  0.013000  0.612000  0.430400  1.0
  C  C1951  1  0.987000  0.612000  0.569600  1.0
  C  C1952  1  0.987000  0.388000  0.430400  1.0
  C  C1953  1  0.569600  0.013000  0.388000  1.0
  C  C1954  1  0.430400  0.013000  0.612000  1.0
  C  C1955  1  0.569600  0.987000  0.612000  1.0
  C  C1956  1  0.430400  0.987000  0.388000  1.0
  C  C1957  1  0.569600  0.388000  0.987000  1.0
  C  C1958  1  0.430400  0.612000  0.987000  1.0
  C  C1959  1  0.569600  0.612000  0.013000  1.0
  C  C1960  1  0.430400  0.388000  0.013000  1.0
  C  C1961  1  0.388000  0.013000  0.430400  1.0
  C  C1962  1  0.612000  0.013000  0.569600  1.0
  C  C1963  1  0.612000  0.987000  0.430400  1.0
  C  C1964  1  0.388000  0.987000  0.569600  1.0
  C  C1965  1  0.013000  0.569600  0.612000  1.0
  C  C1966  1  0.013000  0.430400  0.388000  1.0
  C  C1967  1  0.987000  0.569600  0.388000  1.0
  C  C1968  1  0.987000  0.430400  0.612000  1.0
  C  C1969  1  0.397500  0.629800  0.021200  1.0
  C  C1970  1  0.602500  0.370200  0.021200  1.0
  C  C1971  1  0.602500  0.629800  0.978800  1.0
  C  C1972  1  0.397500  0.370200  0.978800  1.0
  C  C1973  1  0.021200  0.397500  0.629800  1.0
  C  C1974  1  0.021200  0.602500  0.370200  1.0
  C  C1975  1  0.978800  0.602500  0.629800  1.0
  C  C1976  1  0.978800  0.397500  0.370200  1.0
  C  C1977  1  0.629800  0.021200  0.397500  1.0
  C  C1978  1  0.370200  0.021200  0.602500  1.0
  C  C1979  1  0.629800  0.978800  0.602500  1.0
  C  C1980  1  0.370200  0.978800  0.397500  1.0
  C  C1981  1  0.629800  0.397500  0.978800  1.0
  C  C1982  1  0.370200  0.602500  0.978800  1.0
  C  C1983  1  0.629800  0.602500  0.021200  1.0
  C  C1984  1  0.370200  0.397500  0.021200  1.0
  C  C1985  1  0.397500  0.021200  0.370200  1.0
  C  C1986  1  0.602500  0.021200  0.629800  1.0
  C  C1987  1  0.602500  0.978800  0.370200  1.0
  C  C1988  1  0.397500  0.978800  0.629800  1.0
  C  C1989  1  0.021200  0.629800  0.602500  1.0
  C  C1990  1  0.021200  0.370200  0.397500  1.0
  C  C1991  1  0.978800  0.629800  0.397500  1.0
  C  C1992  1  0.978800  0.370200  0.602500  1.0
  C  C1993  1  0.391600  0.573600  0.977600  1.0
  C  C1994  1  0.608400  0.426400  0.977600  1.0
  C  C1995  1  0.608400  0.573600  0.022400  1.0
  C  C1996  1  0.391600  0.426400  0.022400  1.0
  C  C1997  1  0.977600  0.391600  0.573600  1.0
  C  C1998  1  0.977600  0.608400  0.426400  1.0
  C  C1999  1  0.022400  0.608400  0.573600  1.0
  C  C2000  1  0.022400  0.391600  0.426400  1.0
  C  C2001  1  0.573600  0.977600  0.391600  1.0
  C  C2002  1  0.426400  0.977600  0.608400  1.0
  C  C2003  1  0.573600  0.022400  0.608400  1.0
  C  C2004  1  0.426400  0.022400  0.391600  1.0
  C  C2005  1  0.573600  0.391600  0.022400  1.0
  C  C2006  1  0.426400  0.608400  0.022400  1.0
  C  C2007  1  0.573600  0.608400  0.977600  1.0
  C  C2008  1  0.426400  0.391600  0.977600  1.0
  C  C2009  1  0.391600  0.977600  0.426400  1.0
  C  C2010  1  0.608400  0.977600  0.573600  1.0
  C  C2011  1  0.608400  0.022400  0.426400  1.0
  C  C2012  1  0.391600  0.022400  0.573600  1.0
  C  C2013  1  0.977600  0.573600  0.608400  1.0
  C  C2014  1  0.977600  0.426400  0.391600  1.0
  C  C2015  1  0.022400  0.573600  0.391600  1.0
  C  C2016  1  0.022400  0.426400  0.608400  1.0
  C  C2017  1  0.398200  0.606000  0.963100  1.0
  C  C2018  1  0.601800  0.394000  0.963100  1.0
  C  C2019  1  0.601800  0.606000  0.036900  1.0
  C  C2020  1  0.398200  0.394000  0.036900  1.0
  C  C2021  1  0.963100  0.398200  0.606000  1.0
  C  C2022  1  0.963100  0.601800  0.394000  1.0
  C  C2023  1  0.036900  0.601800  0.606000  1.0
  C  C2024  1  0.036900  0.398200  0.394000  1.0
  C  C2025  1  0.606000  0.963100  0.398200  1.0
  C  C2026  1  0.394000  0.963100  0.601800  1.0
  C  C2027  1  0.606000  0.036900  0.601800  1.0
  C  C2028  1  0.394000  0.036900  0.398200  1.0
  C  C2029  1  0.606000  0.398200  0.036900  1.0
  C  C2030  1  0.394000  0.601800  0.036900  1.0
  C  C2031  1  0.606000  0.601800  0.963100  1.0
  C  C2032  1  0.394000  0.398200  0.963100  1.0
  C  C2033  1  0.398200  0.963100  0.394000  1.0
  C  C2034  1  0.601800  0.963100  0.606000  1.0
  C  C2035  1  0.601800  0.036900  0.394000  1.0
  C  C2036  1  0.398200  0.036900  0.606000  1.0
  C  C2037  1  0.963100  0.606000  0.601800  1.0
  C  C2038  1  0.963100  0.394000  0.398200  1.0
  C  C2039  1  0.036900  0.606000  0.398200  1.0
  C  C2040  1  0.036900  0.394000  0.601800  1.0
  C  C2041  1  0.401600  0.633900  0.985800  1.0
  C  C2042  1  0.598400  0.366100  0.985800  1.0
  C  C2043  1  0.598400  0.633900  0.014200  1.0
  C  C2044  1  0.401600  0.366100  0.014200  1.0
  C  C2045  1  0.985800  0.401600  0.633900  1.0
  C  C2046  1  0.985800  0.598400  0.366100  1.0
  C  C2047  1  0.014200  0.598400  0.633900  1.0
  C  C2048  1  0.014200  0.401600  0.366100  1.0
  C  C2049  1  0.633900  0.985800  0.401600  1.0
  C  C2050  1  0.366100  0.985800  0.598400  1.0
  C  C2051  1  0.633900  0.014200  0.598400  1.0
  C  C2052  1  0.366100  0.014200  0.401600  1.0
  C  C2053  1  0.633900  0.401600  0.014200  1.0
  C  C2054  1  0.366100  0.598400  0.014200  1.0
  C  C2055  1  0.633900  0.598400  0.985800  1.0
  C  C2056  1  0.366100  0.401600  0.985800  1.0
  C  C2057  1  0.401600  0.985800  0.366100  1.0
  C  C2058  1  0.598400  0.985800  0.633900  1.0
  C  C2059  1  0.598400  0.014200  0.366100  1.0
  C  C2060  1  0.401600  0.014200  0.633900  1.0
  C  C2061  1  0.985800  0.633900  0.598400  1.0
  C  C2062  1  0.985800  0.366100  0.401600  1.0
  C  C2063  1  0.014200  0.633900  0.401600  1.0
  C  C2064  1  0.014200  0.366100  0.598400  1.0
  N  N2065  1  0.284500  0.648100  0.114600  1.0
  N  N2066  1  0.715500  0.351900  0.114600  1.0
  N  N2067  1  0.715500  0.648100  0.885400  1.0
  N  N2068  1  0.284500  0.351900  0.885400  1.0
  N  N2069  1  0.114600  0.284500  0.648100  1.0
  N  N2070  1  0.114600  0.715500  0.351900  1.0
  N  N2071  1  0.885400  0.715500  0.648100  1.0
  N  N2072  1  0.885400  0.284500  0.351900  1.0
  N  N2073  1  0.648100  0.114600  0.284500  1.0
  N  N2074  1  0.351900  0.114600  0.715500  1.0
  N  N2075  1  0.648100  0.885400  0.715500  1.0
  N  N2076  1  0.351900  0.885400  0.284500  1.0
  N  N2077  1  0.648100  0.284500  0.885400  1.0
  N  N2078  1  0.351900  0.715500  0.885400  1.0
  N  N2079  1  0.648100  0.715500  0.114600  1.0
  N  N2080  1  0.351900  0.284500  0.114600  1.0
  N  N2081  1  0.284500  0.114600  0.351900  1.0
  N  N2082  1  0.715500  0.114600  0.648100  1.0
  N  N2083  1  0.715500  0.885400  0.351900  1.0
  N  N2084  1  0.284500  0.885400  0.648100  1.0
  N  N2085  1  0.114600  0.648100  0.715500  1.0
  N  N2086  1  0.114600  0.351900  0.284500  1.0
  N  N2087  1  0.885400  0.648100  0.284500  1.0
  N  N2088  1  0.885400  0.351900  0.715500  1.0
  N  N2089  1  0.282600  0.581700  0.131300  1.0
  N  N2090  1  0.717400  0.418300  0.131300  1.0
  N  N2091  1  0.717400  0.581700  0.868700  1.0
  N  N2092  1  0.282600  0.418300  0.868700  1.0
  N  N2093  1  0.131300  0.282600  0.581700  1.0
  N  N2094  1  0.131300  0.717400  0.418300  1.0
  N  N2095  1  0.868700  0.717400  0.581700  1.0
  N  N2096  1  0.868700  0.282600  0.418300  1.0
  N  N2097  1  0.581700  0.131300  0.282600  1.0
  N  N2098  1  0.418300  0.131300  0.717400  1.0
  N  N2099  1  0.581700  0.868700  0.717400  1.0
  N  N2100  1  0.418300  0.868700  0.282600  1.0
  N  N2101  1  0.581700  0.282600  0.868700  1.0
  N  N2102  1  0.418300  0.717400  0.868700  1.0
  N  N2103  1  0.581700  0.717400  0.131300  1.0
  N  N2104  1  0.418300  0.282600  0.131300  1.0
  N  N2105  1  0.282600  0.131300  0.418300  1.0
  N  N2106  1  0.717400  0.131300  0.581700  1.0
  N  N2107  1  0.717400  0.868700  0.418300  1.0
  N  N2108  1  0.282600  0.868700  0.581700  1.0
  N  N2109  1  0.131300  0.581700  0.717400  1.0
  N  N2110  1  0.131300  0.418300  0.282600  1.0
  N  N2111  1  0.868700  0.581700  0.282600  1.0
  N  N2112  1  0.868700  0.418300  0.717400  1.0
  N  N2113  1  0.363600  0.273000  0.185400  1.0
  N  N2114  1  0.636400  0.727000  0.185400  1.0
  N  N2115  1  0.636400  0.273000  0.814600  1.0
  N  N2116  1  0.363600  0.727000  0.814600  1.0
  N  N2117  1  0.185400  0.363600  0.273000  1.0
  N  N2118  1  0.185400  0.636400  0.727000  1.0
  N  N2119  1  0.814600  0.636400  0.273000  1.0
  N  N2120  1  0.814600  0.363600  0.727000  1.0
  N  N2121  1  0.273000  0.185400  0.363600  1.0
  N  N2122  1  0.727000  0.185400  0.636400  1.0
  N  N2123  1  0.273000  0.814600  0.636400  1.0
  N  N2124  1  0.727000  0.814600  0.363600  1.0
  N  N2125  1  0.273000  0.363600  0.814600  1.0
  N  N2126  1  0.727000  0.636400  0.814600  1.0
  N  N2127  1  0.273000  0.636400  0.185400  1.0
  N  N2128  1  0.727000  0.363600  0.185400  1.0
  N  N2129  1  0.363600  0.185400  0.727000  1.0
  N  N2130  1  0.636400  0.185400  0.273000  1.0
  N  N2131  1  0.636400  0.814600  0.727000  1.0
  N  N2132  1  0.363600  0.814600  0.273000  1.0
  N  N2133  1  0.185400  0.273000  0.636400  1.0
  N  N2134  1  0.185400  0.727000  0.363600  1.0
  N  N2135  1  0.814600  0.273000  0.363600  1.0
  N  N2136  1  0.814600  0.727000  0.636400  1.0
  N  N2137  1  0.340000  0.336000  0.169200  1.0
  N  N2138  1  0.660000  0.664000  0.169200  1.0
  N  N2139  1  0.660000  0.336000  0.830800  1.0
  N  N2140  1  0.340000  0.664000  0.830800  1.0
  N  N2141  1  0.169200  0.340000  0.336000  1.0
  N  N2142  1  0.169200  0.660000  0.664000  1.0
  N  N2143  1  0.830800  0.660000  0.336000  1.0
  N  N2144  1  0.830800  0.340000  0.664000  1.0
  N  N2145  1  0.336000  0.169200  0.340000  1.0
  N  N2146  1  0.664000  0.169200  0.660000  1.0
  N  N2147  1  0.336000  0.830800  0.660000  1.0
  N  N2148  1  0.664000  0.830800  0.340000  1.0
  N  N2149  1  0.336000  0.340000  0.830800  1.0
  N  N2150  1  0.664000  0.660000  0.830800  1.0
  N  N2151  1  0.336000  0.660000  0.169200  1.0
  N  N2152  1  0.664000  0.340000  0.169200  1.0
  N  N2153  1  0.340000  0.169200  0.664000  1.0
  N  N2154  1  0.660000  0.169200  0.336000  1.0
  N  N2155  1  0.660000  0.830800  0.664000  1.0
  N  N2156  1  0.340000  0.830800  0.336000  1.0
  N  N2157  1  0.169200  0.336000  0.660000  1.0
  N  N2158  1  0.169200  0.664000  0.340000  1.0
  N  N2159  1  0.830800  0.336000  0.340000  1.0
  N  N2160  1  0.830800  0.664000  0.660000  1.0
  N  N2161  1  0.332700  0.593900  0.191500  1.0
  N  N2162  1  0.667300  0.406100  0.191500  1.0
  N  N2163  1  0.667300  0.593900  0.808500  1.0
  N  N2164  1  0.332700  0.406100  0.808500  1.0
  N  N2165  1  0.191500  0.332700  0.593900  1.0
  N  N2166  1  0.191500  0.667300  0.406100  1.0
  N  N2167  1  0.808500  0.667300  0.593900  1.0
  N  N2168  1  0.808500  0.332700  0.406100  1.0
  N  N2169  1  0.593900  0.191500  0.332700  1.0
  N  N2170  1  0.406100  0.191500  0.667300  1.0
  N  N2171  1  0.593900  0.808500  0.667300  1.0
  N  N2172  1  0.406100  0.808500  0.332700  1.0
  N  N2173  1  0.593900  0.332700  0.808500  1.0
  N  N2174  1  0.406100  0.667300  0.808500  1.0
  N  N2175  1  0.593900  0.667300  0.191500  1.0
  N  N2176  1  0.406100  0.332700  0.191500  1.0
  N  N2177  1  0.332700  0.191500  0.406100  1.0
  N  N2178  1  0.667300  0.191500  0.593900  1.0
  N  N2179  1  0.667300  0.808500  0.406100  1.0
  N  N2180  1  0.332700  0.808500  0.593900  1.0
  N  N2181  1  0.191500  0.593900  0.667300  1.0
  N  N2182  1  0.191500  0.406100  0.332700  1.0
  N  N2183  1  0.808500  0.593900  0.332700  1.0
  N  N2184  1  0.808500  0.406100  0.667300  1.0
  N  N2185  1  0.351000  0.601900  0.125100  1.0
  N  N2186  1  0.649000  0.398100  0.125100  1.0
  N  N2187  1  0.649000  0.601900  0.874900  1.0
  N  N2188  1  0.351000  0.398100  0.874900  1.0
  N  N2189  1  0.125100  0.351000  0.601900  1.0
  N  N2190  1  0.125100  0.649000  0.398100  1.0
  N  N2191  1  0.874900  0.649000  0.601900  1.0
  N  N2192  1  0.874900  0.351000  0.398100  1.0
  N  N2193  1  0.601900  0.125100  0.351000  1.0
  N  N2194  1  0.398100  0.125100  0.649000  1.0
  N  N2195  1  0.601900  0.874900  0.649000  1.0
  N  N2196  1  0.398100  0.874900  0.351000  1.0
  N  N2197  1  0.601900  0.351000  0.874900  1.0
  N  N2198  1  0.398100  0.649000  0.874900  1.0
  N  N2199  1  0.601900  0.649000  0.125100  1.0
  N  N2200  1  0.398100  0.351000  0.125100  1.0
  N  N2201  1  0.351000  0.125100  0.398100  1.0
  N  N2202  1  0.649000  0.125100  0.601900  1.0
  N  N2203  1  0.649000  0.874900  0.398100  1.0
  N  N2204  1  0.351000  0.874900  0.601900  1.0
  N  N2205  1  0.125100  0.601900  0.649000  1.0
  N  N2206  1  0.125100  0.398100  0.351000  1.0
  N  N2207  1  0.874900  0.601900  0.351000  1.0
  N  N2208  1  0.874900  0.398100  0.649000  1.0
  O  O2209  1  0.302500  0.789300  0.106000  1.0
  O  O2210  1  0.697500  0.210700  0.106000  1.0
  O  O2211  1  0.697500  0.789300  0.894000  1.0
  O  O2212  1  0.302500  0.210700  0.894000  1.0
  O  O2213  1  0.106000  0.302500  0.789300  1.0
  O  O2214  1  0.106000  0.697500  0.210700  1.0
  O  O2215  1  0.894000  0.697500  0.789300  1.0
  O  O2216  1  0.894000  0.302500  0.210700  1.0
  O  O2217  1  0.789300  0.106000  0.302500  1.0
  O  O2218  1  0.210700  0.106000  0.697500  1.0
  O  O2219  1  0.789300  0.894000  0.697500  1.0
  O  O2220  1  0.210700  0.894000  0.302500  1.0
  O  O2221  1  0.789300  0.302500  0.894000  1.0
  O  O2222  1  0.210700  0.697500  0.894000  1.0
  O  O2223  1  0.789300  0.697500  0.106000  1.0
  O  O2224  1  0.210700  0.302500  0.106000  1.0
  O  O2225  1  0.302500  0.106000  0.210700  1.0
  O  O2226  1  0.697500  0.106000  0.789300  1.0
  O  O2227  1  0.697500  0.894000  0.210700  1.0
  O  O2228  1  0.302500  0.894000  0.789300  1.0
  O  O2229  1  0.106000  0.789300  0.697500  1.0
  O  O2230  1  0.106000  0.210700  0.302500  1.0
  O  O2231  1  0.894000  0.789300  0.302500  1.0
  O  O2232  1  0.894000  0.210700  0.697500  1.0
  O  O2233  1  0.418200  0.140500  0.198100  1.0
  O  O2234  1  0.581800  0.859500  0.198100  1.0
  O  O2235  1  0.581800  0.140500  0.801900  1.0
  O  O2236  1  0.418200  0.859500  0.801900  1.0
  O  O2237  1  0.198100  0.418200  0.140500  1.0
  O  O2238  1  0.198100  0.581800  0.859500  1.0
  O  O2239  1  0.801900  0.581800  0.140500  1.0
  O  O2240  1  0.801900  0.418200  0.859500  1.0
  O  O2241  1  0.140500  0.198100  0.418200  1.0
  O  O2242  1  0.859500  0.198100  0.581800  1.0
  O  O2243  1  0.140500  0.801900  0.581800  1.0
  O  O2244  1  0.859500  0.801900  0.418200  1.0
  O  O2245  1  0.140500  0.418200  0.801900  1.0
  O  O2246  1  0.859500  0.581800  0.801900  1.0
  O  O2247  1  0.140500  0.581800  0.198100  1.0
  O  O2248  1  0.859500  0.418200  0.198100  1.0
  O  O2249  1  0.418200  0.198100  0.859500  1.0
  O  O2250  1  0.581800  0.198100  0.140500  1.0
  O  O2251  1  0.581800  0.801900  0.859500  1.0
  O  O2252  1  0.418200  0.801900  0.140500  1.0
  O  O2253  1  0.198100  0.140500  0.581800  1.0
  O  O2254  1  0.198100  0.859500  0.418200  1.0
  O  O2255  1  0.801900  0.140500  0.418200  1.0
  O  O2256  1  0.801900  0.859500  0.581800  1.0
  O  O2257  1  0.285400  0.549700  0.319900  1.0
  O  O2258  1  0.714600  0.450300  0.319900  1.0
  O  O2259  1  0.714600  0.549700  0.680100  1.0
  O  O2260  1  0.285400  0.450300  0.680100  1.0
  O  O2261  1  0.319900  0.285400  0.549700  1.0
  O  O2262  1  0.319900  0.714600  0.450300  1.0
  O  O2263  1  0.680100  0.714600  0.549700  1.0
  O  O2264  1  0.680100  0.285400  0.450300  1.0
  O  O2265  1  0.549700  0.319900  0.285400  1.0
  O  O2266  1  0.450300  0.319900  0.714600  1.0
  O  O2267  1  0.549700  0.680100  0.714600  1.0
  O  O2268  1  0.450300  0.680100  0.285400  1.0
  O  O2269  1  0.549700  0.285400  0.680100  1.0
  O  O2270  1  0.450300  0.714600  0.680100  1.0
  O  O2271  1  0.549700  0.714600  0.319900  1.0
  O  O2272  1  0.450300  0.285400  0.319900  1.0
  O  O2273  1  0.285400  0.319900  0.450300  1.0
  O  O2274  1  0.714600  0.319900  0.549700  1.0
  O  O2275  1  0.714600  0.680100  0.450300  1.0
  O  O2276  1  0.285400  0.680100  0.549700  1.0
  O  O2277  1  0.319900  0.549700  0.714600  1.0
  O  O2278  1  0.319900  0.450300  0.285400  1.0
  O  O2279  1  0.680100  0.549700  0.285400  1.0
  O  O2280  1  0.680100  0.450300  0.714600  1.0
  F  F2281  1  0.497900  0.646000  0.153400  1
  F  F2282  1  0.502100  0.354000  0.153400  1
  F  F2283  1  0.502100  0.646000  0.846600  1
  F  F2284  1  0.497900  0.354000  0.846600  1
  F  F2285  1  0.153400  0.497900  0.646000  1
  F  F2286  1  0.153400  0.502100  0.354000  1
  F  F2287  1  0.846600  0.502100  0.646000  1
  F  F2288  1  0.846600  0.497900  0.354000  1
  F  F2289  1  0.646000  0.153400  0.497900  1
  F  F2290  1  0.354000  0.153400  0.502100  1
  F  F2291  1  0.646000  0.846600  0.502100  1
  F  F2292  1  0.354000  0.846600  0.497900  1
  F  F2293  1  0.646000  0.497900  0.846600  1
  F  F2294  1  0.354000  0.502100  0.846600  1
  F  F2295  1  0.646000  0.502100  0.153400  1
  F  F2296  1  0.354000  0.497900  0.153400  1
  F  F2297  1  0.497900  0.153400  0.354000  1
  F  F2298  1  0.502100  0.153400  0.646000  1
  F  F2299  1  0.502100  0.846600  0.354000  1
  F  F2300  1  0.497900  0.846600  0.646000  1
  F  F2301  1  0.153400  0.646000  0.502100  1
  F  F2302  1  0.153400  0.354000  0.497900  1
  F  F2303  1  0.846600  0.646000  0.497900  1
  F  F2304  1  0.846600  0.354000  0.502100  1
  F  F2305  1  0.436000  0.632400  0.147600  1
  F  F2306  1  0.564000  0.367600  0.147600  1
  F  F2307  1  0.564000  0.632400  0.852400  1
  F  F2308  1  0.436000  0.367600  0.852400  1
  F  F2309  1  0.147600  0.436000  0.632400  1
  F  F2310  1  0.147600  0.564000  0.367600  1
  F  F2311  1  0.852400  0.564000  0.632400  1
  F  F2312  1  0.852400  0.436000  0.367600  1
  F  F2313  1  0.632400  0.147600  0.436000  1
  F  F2314  1  0.367600  0.147600  0.564000  1
  F  F2315  1  0.632400  0.852400  0.564000  1
  F  F2316  1  0.367600  0.852400  0.436000  1
  F  F2317  1  0.632400  0.436000  0.852400  1
  F  F2318  1  0.367600  0.564000  0.852400  1
  F  F2319  1  0.632400  0.564000  0.147600  1
  F  F2320  1  0.367600  0.436000  0.147600  1
  F  F2321  1  0.436000  0.147600  0.367600  1
  F  F2322  1  0.564000  0.147600  0.632400  1
  F  F2323  1  0.564000  0.852400  0.367600  1
  F  F2324  1  0.436000  0.852400  0.632400  1
  F  F2325  1  0.147600  0.632400  0.564000  1
  F  F2326  1  0.147600  0.367600  0.436000  1
  F  F2327  1  0.852400  0.632400  0.436000  1
  F  F2328  1  0.852400  0.367600  0.564000  1
  F  F2329  1  0.445700  0.594500  0.191600  1
  F  F2330  1  0.554300  0.405500  0.191600  1
  F  F2331  1  0.554300  0.594500  0.808400  1
  F  F2332  1  0.445700  0.405500  0.808400  1
  F  F2333  1  0.191600  0.445700  0.594500  1
  F  F2334  1  0.191600  0.554300  0.405500  1
  F  F2335  1  0.808400  0.554300  0.594500  1
  F  F2336  1  0.808400  0.445700  0.405500  1
  F  F2337  1  0.594500  0.191600  0.445700  1
  F  F2338  1  0.405500  0.191600  0.554300  1
  F  F2339  1  0.594500  0.808400  0.554300  1
  F  F2340  1  0.405500  0.808400  0.445700  1
  F  F2341  1  0.594500  0.445700  0.808400  1
  F  F2342  1  0.405500  0.554300  0.808400  1
  F  F2343  1  0.594500  0.554300  0.191600  1
  F  F2344  1  0.405500  0.445700  0.191600  1
  F  F2345  1  0.445700  0.191600  0.405500  1
  F  F2346  1  0.554300  0.191600  0.594500  1
  F  F2347  1  0.554300  0.808400  0.405500  1
  F  F2348  1  0.445700  0.808400  0.594500  1
  F  F2349  1  0.191600  0.594500  0.554300  1
  F  F2350  1  0.191600  0.405500  0.445700  1
  F  F2351  1  0.808400  0.594500  0.445700  1
  F  F2352  1  0.808400  0.405500  0.554300  1
  F  F2353  1  0.465000  0.648600  0.201500  1
  F  F2354  1  0.535000  0.351400  0.201500  1
  F  F2355  1  0.535000  0.648600  0.798500  1
  F  F2356  1  0.465000  0.351400  0.798500  1
  F  F2357  1  0.201500  0.465000  0.648600  1
  F  F2358  1  0.201500  0.535000  0.351400  1
  F  F2359  1  0.798500  0.535000  0.648600  1
  F  F2360  1  0.798500  0.465000  0.351400  1
  F  F2361  1  0.648600  0.201500  0.465000  1
  F  F2362  1  0.351400  0.201500  0.535000  1
  F  F2363  1  0.648600  0.798500  0.535000  1
  F  F2364  1  0.351400  0.798500  0.465000  1
  F  F2365  1  0.648600  0.465000  0.798500  1
  F  F2366  1  0.351400  0.535000  0.798500  1
  F  F2367  1  0.648600  0.535000  0.201500  1
  F  F2368  1  0.351400  0.465000  0.201500  1
  F  F2369  1  0.465000  0.201500  0.351400  1
  F  F2370  1  0.535000  0.201500  0.648600  1
  F  F2371  1  0.535000  0.798500  0.351400  1
  F  F2372  1  0.465000  0.798500  0.648600  1
  F  F2373  1  0.201500  0.648600  0.535000  1
  F  F2374  1  0.201500  0.351400  0.465000  1
  F  F2375  1  0.798500  0.648600  0.465000  1
  F  F2376  1  0.798500  0.351400  0.535000  1
  F  F2377  1  0.497900  0.603000  0.195200  1
  F  F2378  1  0.502100  0.397000  0.195200  1
  F  F2379  1  0.502100  0.603000  0.804800  1
  F  F2380  1  0.497900  0.397000  0.804800  1
  F  F2381  1  0.195200  0.497900  0.603000  1
  F  F2382  1  0.195200  0.502100  0.397000  1
  F  F2383  1  0.804800  0.502100  0.603000  1
  F  F2384  1  0.804800  0.497900  0.397000  1
  F  F2385  1  0.603000  0.195200  0.497900  1
  F  F2386  1  0.397000  0.195200  0.502100  1
  F  F2387  1  0.603000  0.804800  0.502100  1
  F  F2388  1  0.397000  0.804800  0.497900  1
  F  F2389  1  0.603000  0.497900  0.804800  1
  F  F2390  1  0.397000  0.502100  0.804800  1
  F  F2391  1  0.603000  0.502100  0.195200  1
  F  F2392  1  0.397000  0.497900  0.195200  1
  F  F2393  1  0.497900  0.195200  0.397000  1
  F  F2394  1  0.502100  0.195200  0.603000  1
  F  F2395  1  0.502100  0.804800  0.397000  1
  F  F2396  1  0.497900  0.804800  0.603000  1
  F  F2397  1  0.195200  0.603000  0.502100  1
  F  F2398  1  0.195200  0.397000  0.497900  1
  F  F2399  1  0.804800  0.603000  0.497900  1
  F  F2400  1  0.804800  0.397000  0.502100  1
  F  F2401  1  0.480800  0.589800  0.142800  1
  F  F2402  1  0.519200  0.410200  0.142800  1
  F  F2403  1  0.519200  0.589800  0.857200  1
  F  F2404  1  0.480800  0.410200  0.857200  1
  F  F2405  1  0.142800  0.480800  0.589800  1
  F  F2406  1  0.142800  0.519200  0.410200  1
  F  F2407  1  0.857200  0.519200  0.589800  1
  F  F2408  1  0.857200  0.480800  0.410200  1
  F  F2409  1  0.589800  0.142800  0.480800  1
  F  F2410  1  0.410200  0.142800  0.519200  1
  F  F2411  1  0.589800  0.857200  0.519200  1
  F  F2412  1  0.410200  0.857200  0.480800  1
  F  F2413  1  0.589800  0.480800  0.857200  1
  F  F2414  1  0.410200  0.519200  0.857200  1
  F  F2415  1  0.589800  0.519200  0.142800  1
  F  F2416  1  0.410200  0.480800  0.142800  1
  F  F2417  1  0.480800  0.142800  0.410200  1
  F  F2418  1  0.519200  0.142800  0.589800  1
  F  F2419  1  0.519200  0.857200  0.410200  1
  F  F2420  1  0.480800  0.857200  0.589800  1
  F  F2421  1  0.142800  0.589800  0.519200  1
  F  F2422  1  0.142800  0.410200  0.480800  1
  F  F2423  1  0.857200  0.589800  0.480800  1
  F  F2424  1  0.857200  0.410200  0.519200  1
  F  F2425  1  0.258500  0.500400  0.194900  1.0
  F  F2426  1  0.741500  0.499600  0.194900  1.0
  F  F2427  1  0.741500  0.500400  0.805100  1.0
  F  F2428  1  0.258500  0.499600  0.805100  1.0
  F  F2429  1  0.194900  0.258500  0.500400  1.0
  F  F2430  1  0.194900  0.741500  0.499600  1.0
  F  F2431  1  0.805100  0.741500  0.500400  1.0
  F  F2432  1  0.805100  0.258500  0.499600  1.0
  F  F2433  1  0.500400  0.194900  0.258500  1.0
  F  F2434  1  0.499600  0.194900  0.741500  1.0
  F  F2435  1  0.500400  0.805100  0.741500  1.0
  F  F2436  1  0.499600  0.805100  0.258500  1.0
  F  F2437  1  0.500400  0.258500  0.805100  1.0
  F  F2438  1  0.499600  0.741500  0.805100  1.0
  F  F2439  1  0.500400  0.741500  0.194900  1.0
  F  F2440  1  0.499600  0.258500  0.194900  1.0
  F  F2441  1  0.258500  0.194900  0.499600  1.0
  F  F2442  1  0.741500  0.194900  0.500400  1.0
  F  F2443  1  0.741500  0.805100  0.499600  1.0
  F  F2444  1  0.258500  0.805100  0.500400  1.0
  F  F2445  1  0.194900  0.500400  0.741500  1.0
  F  F2446  1  0.194900  0.499600  0.258500  1.0
  F  F2447  1  0.805100  0.500400  0.258500  1.0
  F  F2448  1  0.805100  0.499600  0.741500  1.0
  F  F2449  1  0.275300  0.437100  0.216600  1.0
  F  F2450  1  0.724700  0.562900  0.216600  1.0
  F  F2451  1  0.724700  0.437100  0.783400  1.0
  F  F2452  1  0.275300  0.562900  0.783400  1.0
  F  F2453  1  0.216600  0.275300  0.437100  1.0
  F  F2454  1  0.216600  0.724700  0.562900  1.0
  F  F2455  1  0.783400  0.724700  0.437100  1.0
  F  F2456  1  0.783400  0.275300  0.562900  1.0
  F  F2457  1  0.437100  0.216600  0.275300  1.0
  F  F2458  1  0.562900  0.216600  0.724700  1.0
  F  F2459  1  0.437100  0.783400  0.724700  1.0
  F  F2460  1  0.562900  0.783400  0.275300  1.0
  F  F2461  1  0.437100  0.275300  0.783400  1.0
  F  F2462  1  0.562900  0.724700  0.783400  1.0
  F  F2463  1  0.437100  0.724700  0.216600  1.0
  F  F2464  1  0.562900  0.275300  0.216600  1.0
  F  F2465  1  0.275300  0.216600  0.562900  1.0
  F  F2466  1  0.724700  0.216600  0.437100  1.0
  F  F2467  1  0.724700  0.783400  0.562900  1.0
  F  F2468  1  0.275300  0.783400  0.437100  1.0
  F  F2469  1  0.216600  0.437100  0.724700  1.0
  F  F2470  1  0.216600  0.562900  0.275300  1.0
  F  F2471  1  0.783400  0.437100  0.275300  1.0
  F  F2472  1  0.783400  0.562900  0.724700  1.0
  F  F2473  1  0.285700  0.466300  0.077900  1.0
  F  F2474  1  0.714300  0.533700  0.077900  1.0
  F  F2475  1  0.714300  0.466300  0.922100  1.0
  F  F2476  1  0.285700  0.533700  0.922100  1.0
  F  F2477  1  0.077900  0.285700  0.466300  1.0
  F  F2478  1  0.077900  0.714300  0.533700  1.0
  F  F2479  1  0.922100  0.714300  0.466300  1.0
  F  F2480  1  0.922100  0.285700  0.533700  1.0
  F  F2481  1  0.466300  0.077900  0.285700  1.0
  F  F2482  1  0.533700  0.077900  0.714300  1.0
  F  F2483  1  0.466300  0.922100  0.714300  1.0
  F  F2484  1  0.533700  0.922100  0.285700  1.0
  F  F2485  1  0.466300  0.285700  0.922100  1.0
  F  F2486  1  0.533700  0.714300  0.922100  1.0
  F  F2487  1  0.466300  0.714300  0.077900  1.0
  F  F2488  1  0.533700  0.285700  0.077900  1.0
  F  F2489  1  0.285700  0.077900  0.533700  1.0
  F  F2490  1  0.714300  0.077900  0.466300  1.0
  F  F2491  1  0.714300  0.922100  0.533700  1.0
  F  F2492  1  0.285700  0.922100  0.466300  1.0
  F  F2493  1  0.077900  0.466300  0.714300  1.0
  F  F2494  1  0.077900  0.533700  0.285700  1.0
  F  F2495  1  0.922100  0.466300  0.285700  1.0
  F  F2496  1  0.922100  0.533700  0.714300  1.0
  F  F2497  1  0.300400  0.402600  0.101300  1.0
  F  F2498  1  0.699600  0.597400  0.101300  1.0
  F  F2499  1  0.699600  0.402600  0.898700  1.0
  F  F2500  1  0.300400  0.597400  0.898700  1.0
  F  F2501  1  0.101300  0.300400  0.402600  1.0
  F  F2502  1  0.101300  0.699600  0.597400  1.0
  F  F2503  1  0.898700  0.699600  0.402600  1.0
  F  F2504  1  0.898700  0.300400  0.597400  1.0
  F  F2505  1  0.402600  0.101300  0.300400  1.0
  F  F2506  1  0.597400  0.101300  0.699600  1.0
  F  F2507  1  0.402600  0.898700  0.699600  1.0
  F  F2508  1  0.597400  0.898700  0.300400  1.0
  F  F2509  1  0.402600  0.300400  0.898700  1.0
  F  F2510  1  0.597400  0.699600  0.898700  1.0
  F  F2511  1  0.402600  0.699600  0.101300  1.0
  F  F2512  1  0.597400  0.300400  0.101300  1.0
  F  F2513  1  0.300400  0.101300  0.597400  1.0
  F  F2514  1  0.699600  0.101300  0.402600  1.0
  F  F2515  1  0.699600  0.898700  0.597400  1.0
  F  F2516  1  0.300400  0.898700  0.402600  1.0
  F  F2517  1  0.101300  0.402600  0.699600  1.0
  F  F2518  1  0.101300  0.597400  0.300400  1.0
  F  F2519  1  0.898700  0.402600  0.300400  1.0
  F  F2520  1  0.898700  0.597400  0.699600  1.0
  F  F2521  1  0.381600  0.537500  0.025300  1.0
  F  F2522  1  0.618400  0.462500  0.025300  1.0
  F  F2523  1  0.618400  0.537500  0.974700  1.0
  F  F2524  1  0.381600  0.462500  0.974700  1.0
  F  F2525  1  0.025300  0.381600  0.537500  1.0
  F  F2526  1  0.025300  0.618400  0.462500  1.0
  F  F2527  1  0.974700  0.618400  0.537500  1.0
  F  F2528  1  0.974700  0.381600  0.462500  1.0
  F  F2529  1  0.537500  0.025300  0.381600  1.0
  F  F2530  1  0.462500  0.025300  0.618400  1.0
  F  F2531  1  0.537500  0.974700  0.618400  1.0
  F  F2532  1  0.462500  0.974700  0.381600  1.0
  F  F2533  1  0.537500  0.381600  0.974700  1.0
  F  F2534  1  0.462500  0.618400  0.974700  1.0
  F  F2535  1  0.537500  0.618400  0.025300  1.0
  F  F2536  1  0.462500  0.381600  0.025300  1.0
  F  F2537  1  0.381600  0.025300  0.462500  1.0
  F  F2538  1  0.618400  0.025300  0.537500  1.0
  F  F2539  1  0.618400  0.974700  0.462500  1.0
  F  F2540  1  0.381600  0.974700  0.537500  1.0
  F  F2541  1  0.025300  0.537500  0.618400  1.0
  F  F2542  1  0.025300  0.462500  0.381600  1.0
  F  F2543  1  0.974700  0.537500  0.381600  1.0
  F  F2544  1  0.974700  0.462500  0.618400  1.0
  F  F2545  1  0.400800  0.658500  0.040900  1.0
  F  F2546  1  0.599200  0.341500  0.040900  1.0
  F  F2547  1  0.599200  0.658500  0.959100  1.0
  F  F2548  1  0.400800  0.341500  0.959100  1.0
  F  F2549  1  0.040900  0.400800  0.658500  1.0
  F  F2550  1  0.040900  0.599200  0.341500  1.0
  F  F2551  1  0.959100  0.599200  0.658500  1.0
  F  F2552  1  0.959100  0.400800  0.341500  1.0
  F  F2553  1  0.658500  0.040900  0.400800  1.0
  F  F2554  1  0.341500  0.040900  0.599200  1.0
  F  F2555  1  0.658500  0.959100  0.599200  1.0
  F  F2556  1  0.341500  0.959100  0.400800  1.0
  F  F2557  1  0.658500  0.400800  0.959100  1.0
  F  F2558  1  0.341500  0.599200  0.959100  1.0
  F  F2559  1  0.658500  0.599200  0.040900  1.0
  F  F2560  1  0.341500  0.400800  0.040900  1.0
  F  F2561  1  0.400800  0.040900  0.341500  1.0
  F  F2562  1  0.599200  0.040900  0.658500  1.0
  F  F2563  1  0.599200  0.959100  0.341500  1.0
  F  F2564  1  0.400800  0.959100  0.658500  1.0
  F  F2565  1  0.040900  0.658500  0.599200  1.0
  F  F2566  1  0.040900  0.341500  0.400800  1.0
  F  F2567  1  0.959100  0.658500  0.400800  1.0
  F  F2568  1  0.959100  0.341500  0.599200  1.0
  F  F2569  1  0.388400  0.545800  0.956900  1.0
  F  F2570  1  0.611600  0.454200  0.956900  1.0
  F  F2571  1  0.611600  0.545800  0.043100  1.0
  F  F2572  1  0.388400  0.454200  0.043100  1.0
  F  F2573  1  0.956900  0.388400  0.545800  1.0
  F  F2574  1  0.956900  0.611600  0.454200  1.0
  F  F2575  1  0.043100  0.611600  0.545800  1.0
  F  F2576  1  0.043100  0.388400  0.454200  1.0
  F  F2577  1  0.545800  0.956900  0.388400  1.0
  F  F2578  1  0.454200  0.956900  0.611600  1.0
  F  F2579  1  0.545800  0.043100  0.611600  1.0
  F  F2580  1  0.454200  0.043100  0.388400  1.0
  F  F2581  1  0.545800  0.388400  0.043100  1.0
  F  F2582  1  0.454200  0.611600  0.043100  1.0
  F  F2583  1  0.545800  0.611600  0.956900  1.0
  F  F2584  1  0.454200  0.388400  0.956900  1.0
  F  F2585  1  0.388400  0.956900  0.454200  1.0
  F  F2586  1  0.611600  0.956900  0.545800  1.0
  F  F2587  1  0.611600  0.043100  0.454200  1.0
  F  F2588  1  0.388400  0.043100  0.545800  1.0
  F  F2589  1  0.956900  0.545800  0.611600  1.0
  F  F2590  1  0.956900  0.454200  0.388400  1.0
  F  F2591  1  0.043100  0.545800  0.388400  1.0
  F  F2592  1  0.043100  0.454200  0.611600  1.0
  F  F2593  1  0.409100  0.665500  0.973200  1.0
  F  F2594  1  0.590900  0.334500  0.973200  1.0
  F  F2595  1  0.590900  0.665500  0.026800  1.0
  F  F2596  1  0.409100  0.334500  0.026800  1.0
  F  F2597  1  0.973200  0.409100  0.665500  1.0
  F  F2598  1  0.973200  0.590900  0.334500  1.0
  F  F2599  1  0.026800  0.590900  0.665500  1.0
  F  F2600  1  0.026800  0.409100  0.334500  1.0
  F  F2601  1  0.665500  0.973200  0.409100  1.0
  F  F2602  1  0.334500  0.973200  0.590900  1.0
  F  F2603  1  0.665500  0.026800  0.590900  1.0
  F  F2604  1  0.334500  0.026800  0.409100  1.0
  F  F2605  1  0.665500  0.409100  0.026800  1.0
  F  F2606  1  0.334500  0.590900  0.026800  1.0
  F  F2607  1  0.665500  0.590900  0.973200  1.0
  F  F2608  1  0.334500  0.409100  0.973200  1.0
  F  F2609  1  0.409100  0.973200  0.334500  1.0
  F  F2610  1  0.590900  0.973200  0.665500  1.0
  F  F2611  1  0.590900  0.026800  0.334500  1.0
  F  F2612  1  0.409100  0.026800  0.665500  1.0
  F  F2613  1  0.973200  0.665500  0.590900  1.0
  F  F2614  1  0.973200  0.334500  0.409100  1.0
  F  F2615  1  0.026800  0.665500  0.409100  1.0
  F  F2616  1  0.026800  0.334500  0.590900  1.0
