
#######################################################################
#
#                 Cambridge Crystallographic Data Centre
#                                CCDC 
#
#######################################################################
#
# If this CIF has been generated from an entry in the Cambridge 
# Structural Database, then it will include bibliographic, chemical, 
# crystal, experimental, refinement or atomic coordinate data resulting 
# from the CCDC's data processing and validation procedures.
#
#######################################################################

data_OQOKEM
_chemical_formula_moiety         
'C384 H264 F48 Fe8 N48 O24 16+,14(F6 P1 1-),2(Cl1 O4 1-)'
_chemical_name_systematic        
'dodecakis(\m-((2,3,5,6-tetrafluoro-1,4-phenylene)dipyridine-5,2-diyl)bis(N-(4-methoxyphenyl)methanimine))-octa-iron(ii) tetradecakis(hexafluorophosphate) diperchlorate unknown solvate'
_symmetry_cell_setting           tetragonal
_symmetry_space_group_name_H-M   'P 4/n n c'
_symmetry_Int_Tables_number      126
_space_group_name_Hall           '-P 4a 2bc'
loop_
_symmetry_equiv_pos_site_id
_symmetry_equiv_pos_as_xyz
1 x,y,z
2 1/2-x,1/2-y,z
3 1/2-y,x,z
4 y,1/2-x,z
5 1/2-x,y,1/2-z
6 x,1/2-y,1/2-z
7 y,x,1/2-z
8 1/2-y,1/2-x,1/2-z
9 -x,-y,-z
10 1/2+x,1/2+y,-z
11 1/2+y,-x,-z
12 -y,1/2+x,-z
13 1/2+x,-y,1/2+z
14 -x,1/2+y,1/2+z
15 -y,-x,1/2+z
16 1/2+y,1/2+x,1/2+z
_cell_length_a                   28.3140(13)
_cell_length_b                   28.3140(13)
_cell_length_c                   35.3911(18)
_cell_angle_alpha                90
_cell_angle_beta                 90
_cell_angle_gamma                90
_cell_volume                     28372.4
_exptl_crystal_colour            purple
_exptl_crystal_description       block
_cell_formula_units_Z            2
_exptl_crystal_recrystallization_method acetonitrile/benzene
loop_
_atom_site_label
_atom_site_type_symbol
_atom_site_fract_x
_atom_site_fract_y
_atom_site_fract_z
Fe1 Fe 0.28908(7) -0.04753(6) 0.41345(5)
F1 F 0.4655(3) -0.0036(3) 0.4567(2)
F2 F 0.5212(3) 0.0662(3) 0.4797(2)
F3 F 0.5203(4) 0.1290(3) 0.3564(2)
F4 F 0.4663(4) 0.0584(3) 0.3336(2)
O1 O 0.1263(5) -0.2116(5) 0.3471(5)
O2 O 0.6997(3) 0.4750(3) 0.4461(3)
N1 N 0.2815(3) -0.0928(3) 0.3700(3)
N2 N 0.3522(3) -0.0426(3) 0.3906(2)
N3 N 0.5598(3) 0.2249(3) 0.4314(3)
N4 N 0.6055(3) 0.3025(3) 0.4431(3)
C1 C 0.2416(3) -0.1221(4) 0.3628(3)
C2 C 0.1988(4) -0.1036(4) 0.3511(3)
H1 H 0.1959 -0.0705 0.3472
C3 C 0.1599(4) -0.1325(5) 0.3450(4)
H2 H 0.1310 -0.1194 0.3364
C4 C 0.1632(5) -0.1804(5) 0.3515(4)
C5 C 0.2060(5) -0.1995(4) 0.3633(5)
H3 H 0.2085 -0.2325 0.3677
C6 C 0.2448(5) -0.1706(4) 0.3686(5)
H4 H 0.2740 -0.1840 0.3764
C7 C 0.0826(7) -0.1950(9) 0.3324(8)
H5 H 0.0684 -0.1729 0.3505
H6 H 0.0613 -0.2217 0.3284
H7 H 0.0882 -0.1788 0.3084
C8 C 0.3194(4) -0.1003(4) 0.3510(3)
H8 H 0.3207 -0.1233 0.3314
C9 C 0.3606(3) -0.0715(3) 0.3611(3)
C10 C 0.4030(3) -0.0727(4) 0.3417(3)
H9 H 0.4076 -0.0940 0.3213
C11 C 0.4386(4) -0.0422(4) 0.3526(3)
H10 H 0.4683 -0.0424 0.3402
C12 C 0.4300(3) -0.0114(3) 0.3824(3)
C13 C 0.3865(3) -0.0131(3) 0.4002(3)
H11 H 0.3808 0.0082 0.4205
C14 C 0.4650(3) 0.0247(3) 0.3944(2)
C15 C 0.4800(3) 0.0285(3) 0.4313(2)
C16 C 0.5089(3) 0.0644(3) 0.4432(2)
C17 C 0.5235(3) 0.0994(3) 0.4188(2)
C18 C 0.5083(4) 0.0957(3) 0.3817(2)
C19 C 0.4800(4) 0.0595(3) 0.3699(2)
C20 C 0.5362(4) 0.1857(3) 0.4231(3)
H12 H 0.5066 0.1888 0.4107
C21 C 0.5520(3) 0.1403(3) 0.4315(3)
C22 C 0.5945(3) 0.1361(3) 0.4508(3)
H13 H 0.6066 0.1059 0.4573
C23 C 0.6191(4) 0.1767(3) 0.4604(3)
H14 H 0.6480 0.1747 0.4740
C24 C 0.6013(3) 0.2200(3) 0.4500(3)
C25 C 0.6257(4) 0.2650(3) 0.4561(3)
H15 H 0.6551 0.2665 0.4689
C26 C 0.6291(4) 0.3467(3) 0.4454(3)
C27 C 0.6042(4) 0.3874(4) 0.4549(3)
H16 H 0.5716 0.3853 0.4610
C28 C 0.6266(4) 0.4308(4) 0.4555(3)
H17 H 0.6095 0.4584 0.4622
C29 C 0.6742(4) 0.4338(3) 0.4462(3)
C30 C 0.6991(4) 0.3933(4) 0.4375(4)
H18 H 0.7318 0.3954 0.4317
C31 C 0.6770(4) 0.3498(4) 0.4370(4)
H19 H 0.6944 0.3221 0.4311
C32 C 0.6790(6) 0.5157(5) 0.4627(6)
H20 H 0.6544 0.5280 0.4459
H21 H 0.7033 0.5398 0.4665
H22 H 0.6650 0.5072 0.4871
O3 O 0.3742(4) -0.0251(4) 0.5999(3)
N5 N 0.3003(3) -0.0009(3) 0.4550(2)
N6 N 0.2731(3) 0.0111(3) 0.3863(2)
C33 C 0.3200(3) -0.0073(4) 0.4917(2)
C34 C 0.3001(4) -0.0389(4) 0.5170(3)
H23 H 0.2735 -0.0572 0.5097
C35 C 0.3191(4) -0.0436(4) 0.5528(3)
H24 H 0.3055 -0.0654 0.5699
C36 C 0.3575(4) -0.0172(4) 0.5641(3)
C37 C 0.3774(4) 0.0147(4) 0.5389(3)
H25 H 0.4039 0.0332 0.5462
C38 C 0.3586(4) 0.0191(4) 0.5031(3)
H26 H 0.3724 0.0409 0.4858
C39 C 0.4058(7) 0.0069(7) 0.6168(5)
H27 H 0.4329 0.0117 0.6000
H28 H 0.4166 -0.0059 0.6410
H29 H 0.3898 0.0371 0.6210
C40 C 0.2899(4) 0.0423(4) 0.4459(2)
H30 H 0.2916 0.0672 0.4639
C41 C 0.2757(3) 0.0510(3) 0.4069(2)
C42 C 0.2678(4) 0.0954(3) 0.3918(2)
H31 H 0.2679 0.1227 0.4074
C43 C 0.2597(4) 0.0989(3) 0.35267(18)
H32 H 0.2541 0.1288 0.3413
C44 C 0.2598(2) 0.0593(2) 0.33139(14)
C45 C 0.2647(4) 0.0150(3) 0.3501(2)
H33 H 0.2617 -0.0130 0.3355
F5 F 0.1856(4) 0.0078(5) 0.2919(3)
F6 F 0.1767(4) 0.0074(5) 0.2189(3)
F7 F 0.3036(5) 0.1166(5) 0.2077(3)
F8 F 0.3099(5) 0.1185(5) 0.2847(3)
C46 C 0.25400(15) 0.0591(2) 0.28926(13)
C47 C 0.2189(3) 0.0323(3) 0.27221(14)
C48 C 0.2142(3) 0.0323(3) 0.23311(15)
C49 C 0.2798(3) 0.0860(3) 0.22811(14)
C50 C 0.2845(3) 0.0860(3) 0.26721(15)
O3D O 0.1258(4) -0.0251(4) -0.0999(3)
N5D N 0.1997(3) -0.0009(3) 0.0450(2)
N6D N 0.2269(3) 0.0111(3) 0.1137(2)
C33D C 0.1800(3) -0.0073(4) 0.0083(2)
C34D C 0.1999(4) -0.0389(4) -0.0170(3)
H23D H 0.2265 -0.0572 -0.0097
C35D C 0.1809(4) -0.0436(4) -0.0528(3)
H24D H 0.1945 -0.0654 -0.0699
C36D C 0.1425(4) -0.0172(4) -0.0641(3)
C37D C 0.1226(4) 0.0147(4) -0.0389(3)
H25D H 0.0961 0.0332 -0.0462
C38D C 0.1414(4) 0.0191(4) -0.0031(3)
H26D H 0.1276 0.0409 0.0142
C39D C 0.0942(7) 0.0069(7) -0.1168(5)
H27D H 0.0671 0.0117 -0.1000
H28D H 0.0834 -0.0059 -0.1410
H29D H 0.1102 0.0371 -0.1210
C40D C 0.2101(4) 0.0423(4) 0.0541(2)
H30D H 0.2084 0.0672 0.0361
C41D C 0.2243(3) 0.0510(3) 0.0931(2)
C42D C 0.2322(4) 0.0954(3) 0.1082(2)
H31D H 0.2321 0.1227 0.0926
C43D C 0.2403(4) 0.0989(3) 0.14733(18)
H32D H 0.2459 0.1288 0.1587
C44D C 0.2402(2) 0.0593(2) 0.16861(14)
C45D C 0.2353(4) 0.0150(3) 0.1499(2)
H33D H 0.2383 -0.0130 0.1645
F5D F 0.3144(4) 0.0078(5) 0.2081(3)
F6D F 0.3233(4) 0.0074(5) 0.2811(3)
F7D F 0.1964(5) 0.1166(5) 0.2923(3)
F8D F 0.1901(5) 0.1185(5) 0.2153(3)
C46D C 0.24600(15) 0.0591(2) 0.21074(13)
C47D C 0.2811(3) 0.0323(3) 0.22779(14)
C48D C 0.2858(3) 0.0323(3) 0.26689(15)
C49D C 0.2202(3) 0.0860(3) 0.27189(14)
C50D C 0.2155(3) 0.0860(3) 0.23279(15)
Fe1B Fe 0.54753(6) 0.28908(7) 0.41345(5)
F1B F 0.5036(3) 0.4655(3) 0.4567(2)
F2B F 0.4338(3) 0.5212(3) 0.4797(2)
F3B F 0.3710(3) 0.5203(4) 0.3564(2)
F4B F 0.4416(3) 0.4663(4) 0.3336(2)
O1B O 0.7116(5) 0.1263(5) 0.3471(5)
O2B O 0.0250(3) 0.6997(3) 0.4461(3)
N1B N 0.5928(3) 0.2815(3) 0.3700(3)
N2B N 0.5426(3) 0.3522(3) 0.3906(2)
N3B N 0.2751(3) 0.5598(3) 0.4314(3)
N4B N 0.1975(3) 0.6055(3) 0.4431(3)
C1B C 0.6221(4) 0.2416(3) 0.3628(3)
C2B C 0.6036(4) 0.1988(4) 0.3511(3)
H1B H 0.5705 0.1959 0.3472
C3B C 0.6325(5) 0.1599(4) 0.3450(4)
H2B H 0.6194 0.1310 0.3364
C4B C 0.6804(5) 0.1632(5) 0.3515(4)
C5B C 0.6995(4) 0.2060(5) 0.3633(5)
H3B H 0.7325 0.2085 0.3677
C6B C 0.6706(4) 0.2448(5) 0.3686(5)
H4B H 0.6840 0.2740 0.3764
C7B C 0.6950(9) 0.0826(7) 0.3324(8)
H5B H 0.6729 0.0684 0.3505
H6B H 0.7217 0.0613 0.3284
H7B H 0.6788 0.0882 0.3084
C8B C 0.6003(4) 0.3194(4) 0.3510(3)
H8B H 0.6233 0.3207 0.3314
C9B C 0.5715(3) 0.3606(3) 0.3611(3)
C10B C 0.5727(4) 0.4030(3) 0.3417(3)
H9B H 0.5940 0.4076 0.3213
C11B C 0.5422(4) 0.4386(4) 0.3526(3)
H10B H 0.5424 0.4683 0.3402
C12B C 0.5114(3) 0.4300(3) 0.3824(3)
C13B C 0.5131(3) 0.3865(3) 0.4002(3)
H11B H 0.4918 0.3808 0.4205
C14B C 0.4753(3) 0.4650(3) 0.3944(2)
C15B C 0.4715(3) 0.4800(3) 0.4313(2)
C16B C 0.4356(3) 0.5089(3) 0.4432(2)
C17B C 0.4006(3) 0.5235(3) 0.4188(2)
C18B C 0.4043(3) 0.5083(4) 0.3817(2)
C19B C 0.4405(3) 0.4800(4) 0.3699(2)
C20B C 0.3143(3) 0.5362(4) 0.4231(3)
H12B H 0.3112 0.5066 0.4107
C21B C 0.3597(3) 0.5520(3) 0.4315(3)
C22B C 0.3639(3) 0.5945(3) 0.4508(3)
H13B H 0.3941 0.6066 0.4573
C23B C 0.3233(3) 0.6191(4) 0.4604(3)
H14B H 0.3253 0.6480 0.4740
C24B C 0.2800(3) 0.6013(3) 0.4500(3)
C25B C 0.2350(3) 0.6257(4) 0.4561(3)
H15B H 0.2335 0.6551 0.4689
C26B C 0.1533(3) 0.6291(4) 0.4454(3)
C27B C 0.1126(4) 0.6042(4) 0.4549(3)
H16B H 0.1147 0.5716 0.4610
C28B C 0.0692(4) 0.6266(4) 0.4555(3)
H17B H 0.0416 0.6095 0.4622
C29B C 0.0662(3) 0.6742(4) 0.4462(3)
C30B C 0.1067(4) 0.6991(4) 0.4375(4)
H18B H 0.1046 0.7318 0.4317
C31B C 0.1502(4) 0.6770(4) 0.4370(4)
H19B H 0.1779 0.6944 0.4311
C32B C -0.0157(5) 0.6790(6) 0.4627(6)
H20B H -0.0280 0.6544 0.4459
H21B H -0.0398 0.7033 0.4665
H22B H -0.0072 0.6650 0.4871
O3B O 0.5251(4) 0.3742(4) 0.5999(3)
N5B N 0.5009(3) 0.3003(3) 0.4550(2)
N6B N 0.4889(3) 0.2731(3) 0.3863(2)
C33B C 0.5073(4) 0.3200(3) 0.4917(2)
C34B C 0.5389(4) 0.3001(4) 0.5170(3)
H23B H 0.5572 0.2735 0.5097
C35B C 0.5436(4) 0.3191(4) 0.5528(3)
H24B H 0.5654 0.3055 0.5699
C36B C 0.5172(4) 0.3575(4) 0.5641(3)
C37B C 0.4853(4) 0.3774(4) 0.5389(3)
H25B H 0.4668 0.4039 0.5462
C38B C 0.4809(4) 0.3586(4) 0.5031(3)
H26B H 0.4591 0.3724 0.4858
C39B C 0.4931(7) 0.4058(7) 0.6168(5)
H27B H 0.4883 0.4329 0.6000
H28B H 0.5059 0.4166 0.6410
H29B H 0.4629 0.3898 0.6210
C40B C 0.4577(4) 0.2899(4) 0.4459(2)
H30B H 0.4328 0.2916 0.4639
C41B C 0.4490(3) 0.2757(3) 0.4069(2)
C42B C 0.4046(3) 0.2678(4) 0.3918(2)
H31B H 0.3773 0.2679 0.4074
C43B C 0.4011(3) 0.2597(4) 0.35267(18)
H32B H 0.3712 0.2541 0.3413
C44B C 0.4407(2) 0.2598(2) 0.33139(14)
C45B C 0.4850(3) 0.2647(4) 0.3501(2)
H33B H 0.5130 0.2617 0.3355
F5B F 0.4922(5) 0.1856(4) 0.2919(3)
F6B F 0.4926(5) 0.1767(4) 0.2189(3)
F7B F 0.3834(5) 0.3036(5) 0.2077(3)
F8B F 0.3815(5) 0.3099(5) 0.2847(3)
C46B C 0.4409(2) 0.25400(15) 0.28926(13)
C47B C 0.4677(3) 0.2189(3) 0.27221(14)
C48B C 0.4677(3) 0.2142(3) 0.23311(15)
C49B C 0.4140(3) 0.2798(3) 0.22811(14)
C50B C 0.4140(3) 0.2845(3) 0.26721(15)
O3G O 0.5251(4) 0.1258(4) -0.0999(3)
N5G N 0.5009(3) 0.1997(3) 0.0450(2)
N6G N 0.4889(3) 0.2269(3) 0.1137(2)
C33G C 0.5073(4) 0.1800(3) 0.0083(2)
C34G C 0.5389(4) 0.1999(4) -0.0170(3)
H23G H 0.5572 0.2265 -0.0097
C35G C 0.5436(4) 0.1809(4) -0.0528(3)
H24G H 0.5654 0.1945 -0.0699
C36G C 0.5172(4) 0.1425(4) -0.0641(3)
C37G C 0.4853(4) 0.1226(4) -0.0389(3)
H25G H 0.4668 0.0961 -0.0462
C38G C 0.4809(4) 0.1414(4) -0.0031(3)
H26G H 0.4591 0.1276 0.0142
C39G C 0.4931(7) 0.0942(7) -0.1168(5)
H27G H 0.4883 0.0671 -0.1000
H28G H 0.5059 0.0834 -0.1410
H29G H 0.4629 0.1102 -0.1210
C40G C 0.4577(4) 0.2101(4) 0.0541(2)
H30G H 0.4328 0.2084 0.0361
C41G C 0.4490(3) 0.2243(3) 0.0931(2)
C42G C 0.4046(3) 0.2322(4) 0.1082(2)
H31G H 0.3773 0.2321 0.0926
C43G C 0.4011(3) 0.2403(4) 0.14733(18)
H32G H 0.3712 0.2459 0.1587
C44G C 0.4407(2) 0.2402(2) 0.16861(14)
C45G C 0.4850(3) 0.2353(4) 0.1499(2)
H33G H 0.5130 0.2383 0.1645
F5G F 0.4922(5) 0.3144(4) 0.2081(3)
F6G F 0.4926(5) 0.3233(4) 0.2811(3)
F7G F 0.3834(5) 0.1964(5) 0.2923(3)
F8G F 0.3815(5) 0.1901(5) 0.2153(3)
C46G C 0.4409(2) 0.24600(15) 0.21074(13)
C47G C 0.4677(3) 0.2811(3) 0.22779(14)
C48G C 0.4677(3) 0.2858(3) 0.26689(15)
C49G C 0.4140(3) 0.2202(3) 0.27189(14)
C50G C 0.4140(3) 0.2155(3) 0.23279(15)
Fe1C Fe -0.04753(6) 0.21092(7) 0.41345(5)
F1C F -0.0036(3) 0.0345(3) 0.4567(2)
F2C F 0.0662(3) -0.0212(3) 0.4797(2)
F3C F 0.1290(3) -0.0203(4) 0.3564(2)
F4C F 0.0584(3) 0.0337(4) 0.3336(2)
O1C O -0.2116(5) 0.3737(5) 0.3471(5)
O2C O 0.4750(3) -0.1997(3) 0.4461(3)
N1C N -0.0928(3) 0.2185(3) 0.3700(3)
N2C N -0.0426(3) 0.1478(3) 0.3906(2)
N3C N 0.2249(3) -0.0598(3) 0.4314(3)
N4C N 0.3025(3) -0.1055(3) 0.4431(3)
C1C C -0.1221(4) 0.2584(3) 0.3628(3)
C2C C -0.1036(4) 0.3012(4) 0.3511(3)
H1C H -0.0705 0.3041 0.3472
C3C C -0.1325(5) 0.3401(4) 0.3450(4)
H2C H -0.1194 0.3690 0.3364
C4C C -0.1804(5) 0.3368(5) 0.3515(4)
C5C C -0.1995(4) 0.2940(5) 0.3633(5)
H3C H -0.2325 0.2915 0.3677
C6C C -0.1706(4) 0.2552(5) 0.3686(5)
H4C H -0.1840 0.2260 0.3764
C7C C -0.1950(9) 0.4174(7) 0.3324(8)
H5C H -0.1729 0.4316 0.3505
H6C H -0.2217 0.4387 0.3284
H7C H -0.1788 0.4118 0.3084
C8C C -0.1003(4) 0.1806(4) 0.3510(3)
H8C H -0.1233 0.1793 0.3314
C9C C -0.0715(3) 0.1394(3) 0.3611(3)
C10C C -0.0727(4) 0.0970(3) 0.3417(3)
H9C H -0.0940 0.0924 0.3213
C11C C -0.0422(4) 0.0614(4) 0.3526(3)
H10C H -0.0424 0.0317 0.3402
C12C C -0.0114(3) 0.0700(3) 0.3824(3)
C13C C -0.0131(3) 0.1135(3) 0.4002(3)
H11C H 0.0082 0.1192 0.4205
C14C C 0.0247(3) 0.0350(3) 0.3944(2)
C15C C 0.0285(3) 0.0200(3) 0.4313(2)
C16C C 0.0644(3) -0.0089(3) 0.4432(2)
C17C C 0.0994(3) -0.0235(3) 0.4188(2)
C18C C 0.0957(3) -0.0083(4) 0.3817(2)
C19C C 0.0595(3) 0.0200(4) 0.3699(2)
C20C C 0.1857(3) -0.0362(4) 0.4231(3)
H12C H 0.1888 -0.0066 0.4107
C21C C 0.1403(3) -0.0520(3) 0.4315(3)
C22C C 0.1361(3) -0.0945(3) 0.4508(3)
H13C H 0.1059 -0.1066 0.4573
C23C C 0.1767(3) -0.1191(4) 0.4604(3)
H14C H 0.1747 -0.1480 0.4740
C24C C 0.2200(3) -0.1013(3) 0.4500(3)
C25C C 0.2650(3) -0.1257(4) 0.4561(3)
H15C H 0.2665 -0.1551 0.4689
C26C C 0.3467(3) -0.1291(4) 0.4454(3)
C27C C 0.3874(4) -0.1042(4) 0.4549(3)
H16C H 0.3853 -0.0716 0.4610
C28C C 0.4308(4) -0.1266(4) 0.4555(3)
H17C H 0.4584 -0.1095 0.4622
C29C C 0.4338(3) -0.1742(4) 0.4462(3)
C30C C 0.3933(4) -0.1991(4) 0.4375(4)
H18C H 0.3954 -0.2318 0.4317
C31C C 0.3498(4) -0.1770(4) 0.4370(4)
H19C H 0.3221 -0.1944 0.4311
C32C C 0.5157(5) -0.1790(6) 0.4627(6)
H20C H 0.5280 -0.1544 0.4459
H21C H 0.5398 -0.2033 0.4665
H22C H 0.5072 -0.1650 0.4871
O3C O -0.0251(4) 0.1258(4) 0.5999(3)
N5C N -0.0009(3) 0.1997(3) 0.4550(2)
N6C N 0.0111(3) 0.2269(3) 0.3863(2)
C33C C -0.0073(4) 0.1800(3) 0.4917(2)
C34C C -0.0389(4) 0.1999(4) 0.5170(3)
H23C H -0.0572 0.2265 0.5097
C35C C -0.0436(4) 0.1809(4) 0.5528(3)
H24C H -0.0654 0.1945 0.5699
C36C C -0.0172(4) 0.1425(4) 0.5641(3)
C37C C 0.0147(4) 0.1226(4) 0.5389(3)
H25C H 0.0332 0.0961 0.5462
C38C C 0.0191(4) 0.1414(4) 0.5031(3)
H26C H 0.0409 0.1276 0.4858
C39C C 0.0069(7) 0.0942(7) 0.6168(5)
H27C H 0.0117 0.0671 0.6000
H28C H -0.0059 0.0834 0.6410
H29C H 0.0371 0.1102 0.6210
C40C C 0.0423(4) 0.2101(4) 0.4459(2)
H30C H 0.0672 0.2084 0.4639
C41C C 0.0510(3) 0.2243(3) 0.4069(2)
C42C C 0.0954(3) 0.2322(4) 0.3918(2)
H31C H 0.1227 0.2321 0.4074
C43C C 0.0989(3) 0.2403(4) 0.35267(18)
H32C H 0.1288 0.2459 0.3413
C44C C 0.0593(2) 0.2402(2) 0.33139(14)
C45C C 0.0150(3) 0.2353(4) 0.3501(2)
H33C H -0.0130 0.2383 0.3355
F5C F 0.0078(5) 0.3144(4) 0.2919(3)
F6C F 0.0074(5) 0.3233(4) 0.2189(3)
F7C F 0.1166(5) 0.1964(5) 0.2077(3)
F8C F 0.1185(5) 0.1901(5) 0.2847(3)
C46C C 0.0591(2) 0.24600(15) 0.28926(13)
C47C C 0.0323(3) 0.2811(3) 0.27221(14)
C48C C 0.0323(3) 0.2858(3) 0.23311(15)
C49C C 0.0860(3) 0.2202(3) 0.22811(14)
C50C C 0.0860(3) 0.2155(3) 0.26721(15)
O3F O -0.0251(4) 0.3742(4) -0.0999(3)
N5F N -0.0009(3) 0.3003(3) 0.0450(2)
N6F N 0.0111(3) 0.2731(3) 0.1137(2)
C33F C -0.0073(4) 0.3200(3) 0.0083(2)
C34F C -0.0389(4) 0.3001(4) -0.0170(3)
H23F H -0.0572 0.2735 -0.0097
C35F C -0.0436(4) 0.3191(4) -0.0528(3)
H24F H -0.0654 0.3055 -0.0699
C36F C -0.0172(4) 0.3575(4) -0.0641(3)
C37F C 0.0147(4) 0.3774(4) -0.0389(3)
H25F H 0.0332 0.4039 -0.0462
C38F C 0.0191(4) 0.3586(4) -0.0031(3)
H26F H 0.0409 0.3724 0.0142
C39F C 0.0069(7) 0.4058(7) -0.1168(5)
H27F H 0.0117 0.4329 -0.1000
H28F H -0.0059 0.4166 -0.1410
H29F H 0.0371 0.3898 -0.1210
C40F C 0.0423(4) 0.2899(4) 0.0541(2)
H30F H 0.0672 0.2916 0.0361
C41F C 0.0510(3) 0.2757(3) 0.0931(2)
C42F C 0.0954(3) 0.2678(4) 0.1082(2)
H31F H 0.1227 0.2679 0.0926
C43F C 0.0989(3) 0.2597(4) 0.14733(18)
H32F H 0.1288 0.2541 0.1587
C44F C 0.0593(2) 0.2598(2) 0.16861(14)
C45F C 0.0150(3) 0.2647(4) 0.1499(2)
H33F H -0.0130 0.2617 0.1645
F5F F 0.0078(5) 0.1856(4) 0.2081(3)
F6F F 0.0074(5) 0.1767(4) 0.2811(3)
F7F F 0.1166(5) 0.3036(5) 0.2923(3)
F8F F 0.1185(5) 0.3099(5) 0.2153(3)
C46F C 0.0591(2) 0.25400(15) 0.21074(13)
C47F C 0.0323(3) 0.2189(3) 0.22779(14)
C48F C 0.0323(3) 0.2142(3) 0.26689(15)
C49F C 0.0860(3) 0.2798(3) 0.27189(14)
C50F C 0.0860(3) 0.2845(3) 0.23279(15)
Fe1D Fe 0.21092(7) -0.04753(6) 0.08655(5)
F1D F 0.0345(3) -0.0036(3) 0.0433(2)
F2D F -0.0212(3) 0.0662(3) 0.0203(2)
F3D F -0.0203(4) 0.1290(3) 0.1436(2)
F4D F 0.0337(4) 0.0584(3) 0.1664(2)
O1D O 0.3737(5) -0.2116(5) 0.1529(5)
O2D O -0.1997(3) 0.4750(3) 0.0539(3)
N1D N 0.2185(3) -0.0928(3) 0.1300(3)
N2D N 0.1478(3) -0.0426(3) 0.1094(2)
N3D N -0.0598(3) 0.2249(3) 0.0686(3)
N4D N -0.1055(3) 0.3025(3) 0.0569(3)
C1D C 0.2584(3) -0.1221(4) 0.1372(3)
C2D C 0.3012(4) -0.1036(4) 0.1489(3)
H1D H 0.3041 -0.0705 0.1528
C3D C 0.3401(4) -0.1325(5) 0.1550(4)
H2D H 0.3690 -0.1194 0.1636
C4D C 0.3368(5) -0.1804(5) 0.1485(4)
C5D C 0.2940(5) -0.1995(4) 0.1367(5)
H3D H 0.2915 -0.2325 0.1323
C6D C 0.2552(5) -0.1706(4) 0.1314(5)
H4D H 0.2260 -0.1840 0.1236
C7D C 0.4174(7) -0.1950(9) 0.1676(8)
H5D H 0.4316 -0.1729 0.1495
H6D H 0.4387 -0.2217 0.1716
H7D H 0.4118 -0.1788 0.1916
C8D C 0.1806(4) -0.1003(4) 0.1490(3)
H8D H 0.1793 -0.1233 0.1686
C9D C 0.1394(3) -0.0715(3) 0.1389(3)
C10D C 0.0970(3) -0.0727(4) 0.1583(3)
H9D H 0.0924 -0.0940 0.1787
C11D C 0.0614(4) -0.0422(4) 0.1474(3)
H10D H 0.0317 -0.0424 0.1598
C12D C 0.0700(3) -0.0114(3) 0.1176(3)
C13D C 0.1135(3) -0.0131(3) 0.0998(3)
H11D H 0.1192 0.0082 0.0795
C14D C 0.0350(3) 0.0247(3) 0.1056(2)
C15D C 0.0200(3) 0.0285(3) 0.0687(2)
C16D C -0.0089(3) 0.0644(3) 0.0568(2)
C17D C -0.0235(3) 0.0994(3) 0.0812(2)
C18D C -0.0083(4) 0.0957(3) 0.1183(2)
C19D C 0.0200(4) 0.0595(3) 0.1301(2)
C20D C -0.0362(4) 0.1857(3) 0.0769(3)
H12D H -0.0066 0.1888 0.0893
C21D C -0.0520(3) 0.1403(3) 0.0685(3)
C22D C -0.0945(3) 0.1361(3) 0.0492(3)
H13D H -0.1066 0.1059 0.0427
C23D C -0.1191(4) 0.1767(3) 0.0396(3)
H14D H -0.1480 0.1747 0.0260
C24D C -0.1013(3) 0.2200(3) 0.0500(3)
C25D C -0.1257(4) 0.2650(3) 0.0439(3)
H15D H -0.1551 0.2665 0.0311
C26D C -0.1291(4) 0.3467(3) 0.0546(3)
C27D C -0.1042(4) 0.3874(4) 0.0451(3)
H16D H -0.0716 0.3853 0.0390
C28D C -0.1266(4) 0.4308(4) 0.0445(3)
H17D H -0.1095 0.4584 0.0378
C29D C -0.1742(4) 0.4338(3) 0.0538(3)
C30D C -0.1991(4) 0.3933(4) 0.0625(4)
H18D H -0.2318 0.3954 0.0683
C31D C -0.1770(4) 0.3498(4) 0.0630(4)
H19D H -0.1944 0.3221 0.0689
C32D C -0.1790(6) 0.5157(5) 0.0373(6)
H20D H -0.1544 0.5280 0.0541
H21D H -0.2033 0.5398 0.0335
H22D H -0.1650 0.5072 0.0129
Fe1F Fe -0.04753(6) 0.28908(7) 0.08655(5)
F1F F -0.0036(3) 0.4655(3) 0.0433(2)
F2F F 0.0662(3) 0.5212(3) 0.0203(2)
F3F F 0.1290(3) 0.5203(4) 0.1436(2)
F4F F 0.0584(3) 0.4663(4) 0.1664(2)
O1F O -0.2116(5) 0.1263(5) 0.1529(5)
O2F O 0.4750(3) 0.6997(3) 0.0539(3)
N1F N -0.0928(3) 0.2815(3) 0.1300(3)
N2F N -0.0426(3) 0.3522(3) 0.1094(2)
N3F N 0.2249(3) 0.5598(3) 0.0686(3)
N4F N 0.3025(3) 0.6055(3) 0.0569(3)
C1F C -0.1221(4) 0.2416(3) 0.1372(3)
C2F C -0.1036(4) 0.1988(4) 0.1489(3)
H1F H -0.0705 0.1959 0.1528
C3F C -0.1325(5) 0.1599(4) 0.1550(4)
H2F H -0.1194 0.1310 0.1636
C4F C -0.1804(5) 0.1632(5) 0.1485(4)
C5F C -0.1995(4) 0.2060(5) 0.1367(5)
H3F H -0.2325 0.2085 0.1323
C6F C -0.1706(4) 0.2448(5) 0.1314(5)
H4F H -0.1840 0.2740 0.1236
C7F C -0.1950(9) 0.0826(7) 0.1676(8)
H5F H -0.1729 0.0684 0.1495
H6F H -0.2217 0.0613 0.1716
H7F H -0.1788 0.0882 0.1916
C8F C -0.1003(4) 0.3194(4) 0.1490(3)
H8F H -0.1233 0.3207 0.1686
C9F C -0.0715(3) 0.3606(3) 0.1389(3)
C10F C -0.0727(4) 0.4030(3) 0.1583(3)
H9F H -0.0940 0.4076 0.1787
C11F C -0.0422(4) 0.4386(4) 0.1474(3)
H10F H -0.0424 0.4683 0.1598
C12F C -0.0114(3) 0.4300(3) 0.1176(3)
C13F C -0.0131(3) 0.3865(3) 0.0998(3)
H11F H 0.0082 0.3808 0.0795
C14F C 0.0247(3) 0.4650(3) 0.1056(2)
C15F C 0.0285(3) 0.4800(3) 0.0687(2)
C16F C 0.0644(3) 0.5089(3) 0.0568(2)
C17F C 0.0994(3) 0.5235(3) 0.0812(2)
C18F C 0.0957(3) 0.5083(4) 0.1183(2)
C19F C 0.0595(3) 0.4800(4) 0.1301(2)
C20F C 0.1857(3) 0.5362(4) 0.0769(3)
H12F H 0.1888 0.5066 0.0893
C21F C 0.1403(3) 0.5520(3) 0.0685(3)
C22F C 0.1361(3) 0.5945(3) 0.0492(3)
H13F H 0.1059 0.6066 0.0427
C23F C 0.1767(3) 0.6191(4) 0.0396(3)
H14F H 0.1747 0.6480 0.0260
C24F C 0.2200(3) 0.6013(3) 0.0500(3)
C25F C 0.2650(3) 0.6257(4) 0.0439(3)
H15F H 0.2665 0.6551 0.0311
C26F C 0.3467(3) 0.6291(4) 0.0546(3)
C27F C 0.3874(4) 0.6042(4) 0.0451(3)
H16F H 0.3853 0.5716 0.0390
C28F C 0.4308(4) 0.6266(4) 0.0445(3)
H17F H 0.4584 0.6095 0.0378
C29F C 0.4338(3) 0.6742(4) 0.0538(3)
C30F C 0.3933(4) 0.6991(4) 0.0625(4)
H18F H 0.3954 0.7318 0.0683
C31F C 0.3498(4) 0.6770(4) 0.0630(4)
H19F H 0.3221 0.6944 0.0689
C32F C 0.5157(5) 0.6790(6) 0.0373(6)
H20F H 0.5280 0.6544 0.0541
H21F H 0.5398 0.7033 0.0335
H22F H 0.5072 0.6650 0.0129
Fe1G Fe 0.54753(6) 0.21092(7) 0.08655(5)
F1G F 0.5036(3) 0.0345(3) 0.0433(2)
F2G F 0.4338(3) -0.0212(3) 0.0203(2)
F3G F 0.3710(3) -0.0203(4) 0.1436(2)
F4G F 0.4416(3) 0.0337(4) 0.1664(2)
O1G O 0.7116(5) 0.3737(5) 0.1529(5)
O2G O 0.0250(3) -0.1997(3) 0.0539(3)
N1G N 0.5928(3) 0.2185(3) 0.1300(3)
N2G N 0.5426(3) 0.1478(3) 0.1094(2)
N3G N 0.2751(3) -0.0598(3) 0.0686(3)
N4G N 0.1975(3) -0.1055(3) 0.0569(3)
C1G C 0.6221(4) 0.2584(3) 0.1372(3)
C2G C 0.6036(4) 0.3012(4) 0.1489(3)
H1G H 0.5705 0.3041 0.1528
C3G C 0.6325(5) 0.3401(4) 0.1550(4)
H2G H 0.6194 0.3690 0.1636
C4G C 0.6804(5) 0.3368(5) 0.1485(4)
C5G C 0.6995(4) 0.2940(5) 0.1367(5)
H3G H 0.7325 0.2915 0.1323
C6G C 0.6706(4) 0.2552(5) 0.1314(5)
H4G H 0.6840 0.2260 0.1236
C7G C 0.6950(9) 0.4174(7) 0.1676(8)
H5G H 0.6729 0.4316 0.1495
H6G H 0.7217 0.4387 0.1716
H7G H 0.6788 0.4118 0.1916
C8G C 0.6003(4) 0.1806(4) 0.1490(3)
H8G H 0.6233 0.1793 0.1686
C9G C 0.5715(3) 0.1394(3) 0.1389(3)
C10G C 0.5727(4) 0.0970(3) 0.1583(3)
H9G H 0.5940 0.0924 0.1787
C11G C 0.5422(4) 0.0614(4) 0.1474(3)
H10G H 0.5424 0.0317 0.1598
C12G C 0.5114(3) 0.0700(3) 0.1176(3)
C13G C 0.5131(3) 0.1135(3) 0.0998(3)
H11G H 0.4918 0.1192 0.0795
C14G C 0.4753(3) 0.0350(3) 0.1056(2)
C15G C 0.4715(3) 0.0200(3) 0.0687(2)
C16G C 0.4356(3) -0.0089(3) 0.0568(2)
C17G C 0.4006(3) -0.0235(3) 0.0812(2)
C18G C 0.4043(3) -0.0083(4) 0.1183(2)
C19G C 0.4405(3) 0.0200(4) 0.1301(2)
C20G C 0.3143(3) -0.0362(4) 0.0769(3)
H12G H 0.3112 -0.0066 0.0893
C21G C 0.3597(3) -0.0520(3) 0.0685(3)
C22G C 0.3639(3) -0.0945(3) 0.0492(3)
H13G H 0.3941 -0.1066 0.0427
C23G C 0.3233(3) -0.1191(4) 0.0396(3)
H14G H 0.3253 -0.1480 0.0260
C24G C 0.2800(3) -0.1013(3) 0.0500(3)
C25G C 0.2350(3) -0.1257(4) 0.0439(3)
H15G H 0.2335 -0.1551 0.0311
C26G C 0.1533(3) -0.1291(4) 0.0546(3)
C27G C 0.1126(4) -0.1042(4) 0.0451(3)
H16G H 0.1147 -0.0716 0.0390
C28G C 0.0692(4) -0.1266(4) 0.0445(3)
H17G H 0.0416 -0.1095 0.0378
C29G C 0.0662(3) -0.1742(4) 0.0538(3)
C30G C 0.1067(4) -0.1991(4) 0.0625(4)
H18G H 0.1046 -0.2318 0.0683
C31G C 0.1502(4) -0.1770(4) 0.0630(4)
H19G H 0.1779 -0.1944 0.0689
C32G C -0.0157(5) -0.1790(6) 0.0373(6)
H20G H -0.0280 -0.1544 0.0541
H21G H -0.0398 -0.2033 0.0335
H22G H -0.0072 -0.1650 0.0129
Fe1A Fe 0.21092(7) 0.54753(6) 0.41345(5)
F1A F 0.0345(3) 0.5036(3) 0.4567(2)
F2A F -0.0212(3) 0.4338(3) 0.4797(2)
F3A F -0.0203(4) 0.3710(3) 0.3564(2)
F4A F 0.0337(4) 0.4416(3) 0.3336(2)
O1A O 0.3737(5) 0.7116(5) 0.3471(5)
O2A O -0.1997(3) 0.0250(3) 0.4461(3)
N1A N 0.2185(3) 0.5928(3) 0.3700(3)
N2A N 0.1478(3) 0.5426(3) 0.3906(2)
N3A N -0.0598(3) 0.2751(3) 0.4314(3)
N4A N -0.1055(3) 0.1975(3) 0.4431(3)
C1A C 0.2584(3) 0.6221(4) 0.3628(3)
C2A C 0.3012(4) 0.6036(4) 0.3511(3)
H1A H 0.3041 0.5705 0.3472
C3A C 0.3401(4) 0.6325(5) 0.3450(4)
H2A H 0.3690 0.6194 0.3364
C4A C 0.3368(5) 0.6804(5) 0.3515(4)
C5A C 0.2940(5) 0.6995(4) 0.3633(5)
H3A H 0.2915 0.7325 0.3677
C6A C 0.2552(5) 0.6706(4) 0.3686(5)
H4A H 0.2260 0.6840 0.3764
C7A C 0.4174(7) 0.6950(9) 0.3324(8)
H5A H 0.4316 0.6729 0.3505
H6A H 0.4387 0.7217 0.3284
H7A H 0.4118 0.6788 0.3084
C8A C 0.1806(4) 0.6003(4) 0.3510(3)
H8A H 0.1793 0.6233 0.3314
C9A C 0.1394(3) 0.5715(3) 0.3611(3)
C10A C 0.0970(3) 0.5727(4) 0.3417(3)
H9A H 0.0924 0.5940 0.3213
C11A C 0.0614(4) 0.5422(4) 0.3526(3)
H10A H 0.0317 0.5424 0.3402
C12A C 0.0700(3) 0.5114(3) 0.3824(3)
C13A C 0.1135(3) 0.5131(3) 0.4002(3)
H11A H 0.1192 0.4918 0.4205
C14A C 0.0350(3) 0.4753(3) 0.3944(2)
C15A C 0.0200(3) 0.4715(3) 0.4313(2)
C16A C -0.0089(3) 0.4356(3) 0.4432(2)
C17A C -0.0235(3) 0.4006(3) 0.4188(2)
C18A C -0.0083(4) 0.4043(3) 0.3817(2)
C19A C 0.0200(4) 0.4405(3) 0.3699(2)
C20A C -0.0362(4) 0.3143(3) 0.4231(3)
H12A H -0.0066 0.3112 0.4107
C21A C -0.0520(3) 0.3597(3) 0.4315(3)
C22A C -0.0945(3) 0.3639(3) 0.4508(3)
H13A H -0.1066 0.3941 0.4573
C23A C -0.1191(4) 0.3233(3) 0.4604(3)
H14A H -0.1480 0.3253 0.4740
C24A C -0.1013(3) 0.2800(3) 0.4500(3)
C25A C -0.1257(4) 0.2350(3) 0.4561(3)
H15A H -0.1551 0.2335 0.4689
C26A C -0.1291(4) 0.1533(3) 0.4454(3)
C27A C -0.1042(4) 0.1126(4) 0.4549(3)
H16A H -0.0716 0.1147 0.4610
C28A C -0.1266(4) 0.0692(4) 0.4555(3)
H17A H -0.1095 0.0416 0.4622
C29A C -0.1742(4) 0.0662(3) 0.4462(3)
C30A C -0.1991(4) 0.1067(4) 0.4375(4)
H18A H -0.2318 0.1046 0.4317
C31A C -0.1770(4) 0.1502(4) 0.4370(4)
H19A H -0.1944 0.1779 0.4311
C32A C -0.1790(6) -0.0157(5) 0.4627(6)
H20A H -0.1544 -0.0280 0.4459
H21A H -0.2033 -0.0398 0.4665
H22A H -0.1650 -0.0072 0.4871
O3A O 0.1258(4) 0.5251(4) 0.5999(3)
N5A N 0.1997(3) 0.5009(3) 0.4550(2)
N6A N 0.2269(3) 0.4889(3) 0.3863(2)
C33A C 0.1800(3) 0.5073(4) 0.4917(2)
C34A C 0.1999(4) 0.5389(4) 0.5170(3)
H23A H 0.2265 0.5572 0.5097
C35A C 0.1809(4) 0.5436(4) 0.5528(3)
H24A H 0.1945 0.5654 0.5699
C36A C 0.1425(4) 0.5172(4) 0.5641(3)
C37A C 0.1226(4) 0.4853(4) 0.5389(3)
H25A H 0.0961 0.4668 0.5462
C38A C 0.1414(4) 0.4809(4) 0.5031(3)
H26A H 0.1276 0.4591 0.4858
C39A C 0.0942(7) 0.4931(7) 0.6168(5)
H27A H 0.0671 0.4883 0.6000
H28A H 0.0834 0.5059 0.6410
H29A H 0.1102 0.4629 0.6210
C40A C 0.2101(4) 0.4577(4) 0.4459(2)
H30A H 0.2084 0.4328 0.4639
C41A C 0.2243(3) 0.4490(3) 0.4069(2)
C42A C 0.2322(4) 0.4046(3) 0.3918(2)
H31A H 0.2321 0.3773 0.4074
C43A C 0.2403(4) 0.4011(3) 0.35267(18)
H32A H 0.2459 0.3712 0.3413
C44A C 0.2402(2) 0.4407(2) 0.33139(14)
C45A C 0.2353(4) 0.4850(3) 0.3501(2)
H33A H 0.2383 0.5130 0.3355
F5A F 0.3144(4) 0.4922(5) 0.2919(3)
F6A F 0.3233(4) 0.4926(5) 0.2189(3)
F7A F 0.1964(5) 0.3834(5) 0.2077(3)
F8A F 0.1901(5) 0.3815(5) 0.2847(3)
C46A C 0.24600(15) 0.4409(2) 0.28926(13)
C47A C 0.2811(3) 0.4677(3) 0.27221(14)
C48A C 0.2858(3) 0.4677(3) 0.23311(15)
C49A C 0.2202(3) 0.4140(3) 0.22811(14)
C50A C 0.2155(3) 0.4140(3) 0.26721(15)
O3E O 0.3742(4) 0.5251(4) -0.0999(3)
N5E N 0.3003(3) 0.5009(3) 0.0450(2)
N6E N 0.2731(3) 0.4889(3) 0.1137(2)
C33E C 0.3200(3) 0.5073(4) 0.0083(2)
C34E C 0.3001(4) 0.5389(4) -0.0170(3)
H23E H 0.2735 0.5572 -0.0097
C35E C 0.3191(4) 0.5436(4) -0.0528(3)
H24E H 0.3055 0.5654 -0.0699
C36E C 0.3575(4) 0.5172(4) -0.0641(3)
C37E C 0.3774(4) 0.4853(4) -0.0389(3)
H25E H 0.4039 0.4668 -0.0462
C38E C 0.3586(4) 0.4809(4) -0.0031(3)
H26E H 0.3724 0.4591 0.0142
C39E C 0.4058(7) 0.4931(7) -0.1168(5)
H27E H 0.4329 0.4883 -0.1000
H28E H 0.4166 0.5059 -0.1410
H29E H 0.3898 0.4629 -0.1210
C40E C 0.2899(4) 0.4577(4) 0.0541(2)
H30E H 0.2916 0.4328 0.0361
C41E C 0.2757(3) 0.4490(3) 0.0931(2)
C42E C 0.2678(4) 0.4046(3) 0.1082(2)
H31E H 0.2679 0.3773 0.0926
C43E C 0.2597(4) 0.4011(3) 0.14733(18)
H32E H 0.2541 0.3712 0.1587
C44E C 0.2598(2) 0.4407(2) 0.16861(14)
C45E C 0.2647(4) 0.4850(3) 0.1499(2)
H33E H 0.2617 0.5130 0.1645
F5E F 0.1856(4) 0.4922(5) 0.2081(3)
F6E F 0.1767(4) 0.4926(5) 0.2811(3)
F7E F 0.3036(5) 0.3834(5) 0.2923(3)
F8E F 0.3099(5) 0.3815(5) 0.2153(3)
C46E C 0.25400(15) 0.4409(2) 0.21074(13)
C47E C 0.2189(3) 0.4677(3) 0.22779(14)
C48E C 0.2142(3) 0.4677(3) 0.26689(15)
C49E C 0.2798(3) 0.4140(3) 0.27189(14)
C50E C 0.2845(3) 0.4140(3) 0.23279(15)
Fe1E Fe 0.28908(7) 0.54753(6) 0.08655(5)
F1E F 0.4655(3) 0.5036(3) 0.0433(2)
F2E F 0.5212(3) 0.4338(3) 0.0203(2)
F3E F 0.5203(4) 0.3710(3) 0.1436(2)
F4E F 0.4663(4) 0.4416(3) 0.1664(2)
O1E O 0.1263(5) 0.7116(5) 0.1529(5)
O2E O 0.6997(3) 0.0250(3) 0.0539(3)
N1E N 0.2815(3) 0.5928(3) 0.1300(3)
N2E N 0.3522(3) 0.5426(3) 0.1094(2)
N3E N 0.5598(3) 0.2751(3) 0.0686(3)
N4E N 0.6055(3) 0.1975(3) 0.0569(3)
C1E C 0.2416(3) 0.6221(4) 0.1372(3)
C2E C 0.1988(4) 0.6036(4) 0.1489(3)
H1E H 0.1959 0.5705 0.1528
C3E C 0.1599(4) 0.6325(5) 0.1550(4)
H2E H 0.1310 0.6194 0.1636
C4E C 0.1632(5) 0.6804(5) 0.1485(4)
C5E C 0.2060(5) 0.6995(4) 0.1367(5)
H3E H 0.2085 0.7325 0.1323
C6E C 0.2448(5) 0.6706(4) 0.1314(5)
H4E H 0.2740 0.6840 0.1236
C7E C 0.0826(7) 0.6950(9) 0.1676(8)
H5E H 0.0684 0.6729 0.1495
H6E H 0.0613 0.7217 0.1716
H7E H 0.0882 0.6788 0.1916
C8E C 0.3194(4) 0.6003(4) 0.1490(3)
H8E H 0.3207 0.6233 0.1686
C9E C 0.3606(3) 0.5715(3) 0.1389(3)
C10E C 0.4030(3) 0.5727(4) 0.1583(3)
H9E H 0.4076 0.5940 0.1787
C11E C 0.4386(4) 0.5422(4) 0.1474(3)
H10E H 0.4683 0.5424 0.1598
C12E C 0.4300(3) 0.5114(3) 0.1176(3)
C13E C 0.3865(3) 0.5131(3) 0.0998(3)
H11E H 0.3808 0.4918 0.0795
C14E C 0.4650(3) 0.4753(3) 0.1056(2)
C15E C 0.4800(3) 0.4715(3) 0.0687(2)
C16E C 0.5089(3) 0.4356(3) 0.0568(2)
C17E C 0.5235(3) 0.4006(3) 0.0812(2)
C18E C 0.5083(4) 0.4043(3) 0.1183(2)
C19E C 0.4800(4) 0.4405(3) 0.1301(2)
C20E C 0.5362(4) 0.3143(3) 0.0769(3)
H12E H 0.5066 0.3112 0.0893
C21E C 0.5520(3) 0.3597(3) 0.0685(3)
C22E C 0.5945(3) 0.3639(3) 0.0492(3)
H13E H 0.6066 0.3941 0.0427
C23E C 0.6191(4) 0.3233(3) 0.0396(3)
H14E H 0.6480 0.3253 0.0260
C24E C 0.6013(3) 0.2800(3) 0.0500(3)
C25E C 0.6257(4) 0.2350(3) 0.0439(3)
H15E H 0.6551 0.2335 0.0311
C26E C 0.6291(4) 0.1533(3) 0.0546(3)
C27E C 0.6042(4) 0.1126(4) 0.0451(3)
H16E H 0.5716 0.1147 0.0390
C28E C 0.6266(4) 0.0692(4) 0.0445(3)
H17E H 0.6095 0.0416 0.0378
C29E C 0.6742(4) 0.0662(3) 0.0538(3)
C30E C 0.6991(4) 0.1067(4) 0.0625(4)
H18E H 0.7318 0.1046 0.0683
C31E C 0.6770(4) 0.1502(4) 0.0630(4)
H19E H 0.6944 0.1779 0.0689
C32E C 0.6790(6) -0.0157(5) 0.0373(6)
H20E H 0.6544 -0.0280 0.0541
H21E H 0.7033 -0.0398 0.0335
H22E H 0.6650 -0.0072 0.0129
Cl1 Cl 0.7500 0.2500 0.5000
O4 O 0.7307(3) 0.2128(3) 0.4778(3)
O4A O 0.7693(3) 0.2872(3) 0.4778(3)
O4J O 0.7128(3) 0.2693(3) 0.5222(3)
O4K O 0.7872(3) 0.2307(3) 0.5222(3)
P1 P 0.38713(19) 0.14784(19) 0.4467(2)
F9 F 0.3791(3) 0.0979(3) 0.4271(3)
F10 F 0.3429(4) 0.1377(4) 0.4746(4)
F11 F 0.3505(3) 0.1722(3) 0.4189(3)
F12 F 0.3945(4) 0.1967(4) 0.4683(4)
F13 F 0.4279(4) 0.1590(4) 0.4181(4)
F14 F 0.4215(4) 0.1241(4) 0.4764(4)
P2? P 0.2513(9) 0.2518(9) 0.3441(4)
F15? F 0.2224(11) 0.2368(17) 0.3075(6)
F16? F 0.2238(12) 0.2127(11) 0.3677(9)
F17? F 0.2795(11) 0.2892(11) 0.3208(9)
F18? F 0.2113(10) 0.2876(11) 0.3557(10)
F19? F 0.2894(11) 0.2135(10) 0.3335(10)
F20? F 0.2804(12) 0.2651(16) 0.3811(6)
loop_
_geom_bond_atom_site_label_1
_geom_bond_atom_site_label_2
_geom_bond_site_symmetry_1
_geom_bond_site_symmetry_2
Fe1 N1 1_555 1_555
F1 C15 1_555 1_555
F2 C16 1_555 1_555
F3 C18 1_555 1_555
F4 C19 1_555 1_555
O1 C4 1_555 1_555
O2 C29 1_555 1_555
N1 C1 1_555 1_555
N2 Fe1 1_555 1_555
N3 C20 1_555 1_555
N4 C25 1_555 1_555
C1 C2 1_555 1_555
C2 H1 1_555 1_555
C3 C2 1_555 1_555
H2 C3 1_555 1_555
C4 C3 1_555 1_555
C5 C4 1_555 1_555
H3 C5 1_555 1_555
C6 C1 1_555 1_555
H4 C6 1_555 1_555
C7 O1 1_555 1_555
H5 C7 1_555 1_555
H6 C7 1_555 1_555
H7 C7 1_555 1_555
C8 N1 1_555 1_555
H8 C8 1_555 1_555
C9 N2 1_555 1_555
C10 C9 1_555 1_555
H9 C10 1_555 1_555
C11 C10 1_555 1_555
H10 C11 1_555 1_555
C12 C11 1_555 1_555
C13 N2 1_555 1_555
H11 C13 1_555 1_555
C14 C12 1_555 1_555
C15 C14 1_555 1_555
C16 C15 1_555 1_555
C17 C16 1_555 1_555
C18 C17 1_555 1_555
C19 C14 1_555 1_555
C20 H12 1_555 1_555
C21 C17 1_555 1_555
C22 C21 1_555 1_555
H13 C22 1_555 1_555
C23 C22 1_555 1_555
H14 C23 1_555 1_555
C24 N3 1_555 1_555
C25 C24 1_555 1_555
H15 C25 1_555 1_555
C26 N4 1_555 1_555
C27 C26 1_555 1_555
H16 C27 1_555 1_555
C28 C27 1_555 1_555
H17 C28 1_555 1_555
C29 C28 1_555 1_555
C30 C29 1_555 1_555
H18 C30 1_555 1_555
C31 C26 1_555 1_555
H19 C31 1_555 1_555
C32 O2 1_555 1_555
H20 C32 1_555 1_555
H21 C32 1_555 1_555
H22 C32 1_555 1_555
O3 C36 1_555 1_555
N5 Fe1 1_555 1_555
N6 Fe1 1_555 1_555
C33 N5 1_555 1_555
C34 C33 1_555 1_555
H23 C34 1_555 1_555
C35 C34 1_555 1_555
H24 C35 1_555 1_555
C36 C35 1_555 1_555
C37 C36 1_555 1_555
H25 C37 1_555 1_555
C38 C33 1_555 1_555
H26 C38 1_555 1_555
C39 O3 1_555 1_555
H27 C39 1_555 1_555
H28 C39 1_555 1_555
H29 C39 1_555 1_555
C40 N5 1_555 1_555
H30 C40 1_555 1_555
C41 N6 1_555 1_555
C42 C41 1_555 1_555
H31 C42 1_555 1_555
C43 C42 1_555 1_555
H32 C43 1_555 1_555
C44 C43 1_555 1_555
C45 N6 1_555 1_555
H33 C45 1_555 1_555
F5 C47 1_555 1_555
F6 C48 1_555 1_555
F7 C49 1_555 1_555
F8 C50 1_555 1_555
C46 C44 1_555 1_555
C47 C46 1_555 1_555
C48 C47 1_555 1_555
C49 C50 1_555 1_555
C50 C46 1_555 1_555
Cl1 O4 1_555 1_555
P1 F9 1_555 1_555
F10 P1 1_555 1_555
F11 P1 1_555 1_555
F12 P1 1_555 1_555
F13 P1 1_555 1_555
F14 P1 1_555 1_555
O3D C36D 1_555 1_555
N5D C33D 1_555 1_555
N6D C41D 1_555 1_555
C33D C34D 1_555 1_555
C34D H23D 1_555 1_555
C35D C34D 1_555 1_555
H24D C35D 1_555 1_555
C36D C35D 1_555 1_555
C37D C36D 1_555 1_555
H25D C37D 1_555 1_555
C38D C33D 1_555 1_555
H26D C38D 1_555 1_555
C39D O3D 1_555 1_555
H27D C39D 1_555 1_555
H28D C39D 1_555 1_555
H29D C39D 1_555 1_555
C40D N5D 1_555 1_555
H30D C40D 1_555 1_555
C41D C40D 1_555 1_555
C42D C41D 1_555 1_555
H31D C42D 1_555 1_555
C43D C42D 1_555 1_555
H32D C43D 1_555 1_555
C44D C43D 1_555 1_555
C45D N6D 1_555 1_555
H33D C45D 1_555 1_555
F5D C47D 1_555 1_555
F6D C48D 1_555 1_555
F7D C49D 1_555 1_555
F8D C50D 1_555 1_555
C46D C48 1_555 1_555
C47D C49 1_555 1_555
C48D C46 1_555 1_555
C49D C46 1_555 1_555
C50D C48 1_555 1_555
Fe1B N3 1_555 1_555
F1B C15B 1_555 1_555
F2B C16B 1_555 1_555
F3B C18B 1_555 1_555
F4B C19B 1_555 1_555
O1B C4B 1_555 1_555
O2B C29B 1_555 1_555
N1B Fe1B 1_555 1_555
N2B Fe1B 1_555 1_555
N3B C20B 1_555 1_555
N4B C25B 1_555 1_555
C1B N1B 1_555 1_555
C2B C1B 1_555 1_555
H1B C2B 1_555 1_555
C3B C2B 1_555 1_555
H2B C3B 1_555 1_555
C4B C3B 1_555 1_555
C5B C4B 1_555 1_555
H3B C5B 1_555 1_555
C6B C1B 1_555 1_555
H4B C6B 1_555 1_555
C7B O1B 1_555 1_555
H5B C7B 1_555 1_555
H6B C7B 1_555 1_555
H7B C7B 1_555 1_555
C8B N1B 1_555 1_555
H8B C8B 1_555 1_555
C9B N2B 1_555 1_555
C10B C9B 1_555 1_555
H9B C10B 1_555 1_555
C11B C10B 1_555 1_555
H10B C11B 1_555 1_555
C12B C11B 1_555 1_555
C13B N2B 1_555 1_555
H11B C13B 1_555 1_555
C14B C12B 1_555 1_555
C15B C14B 1_555 1_555
C16B C15B 1_555 1_555
C17B C16B 1_555 1_555
C18B C17B 1_555 1_555
C19B C14B 1_555 1_555
C20B H12B 1_555 1_555
C21B C17B 1_555 1_555
C22B C21B 1_555 1_555
H13B C22B 1_555 1_555
C23B C22B 1_555 1_555
H14B C23B 1_555 1_555
C24B N3B 1_555 1_555
C25B C24B 1_555 1_555
H15B C25B 1_555 1_555
C26B N4B 1_555 1_555
C27B C26B 1_555 1_555
H16B C27B 1_555 1_555
C28B C27B 1_555 1_555
H17B C28B 1_555 1_555
C29B C28B 1_555 1_555
C30B C29B 1_555 1_555
H18B C30B 1_555 1_555
C31B C26B 1_555 1_555
H19B C31B 1_555 1_555
C32B O2B 1_555 1_555
H20B C32B 1_555 1_555
H21B C32B 1_555 1_555
H22B C32B 1_555 1_555
O3B C36B 1_555 1_555
N5B Fe1B 1_555 1_555
N6B Fe1B 1_555 1_555
C33B N5B 1_555 1_555
C34B C33B 1_555 1_555
H23B C34B 1_555 1_555
C35B C34B 1_555 1_555
H24B C35B 1_555 1_555
C36B C35B 1_555 1_555
C37B C36B 1_555 1_555
H25B C37B 1_555 1_555
C38B C33B 1_555 1_555
H26B C38B 1_555 1_555
C39B O3B 1_555 1_555
H27B C39B 1_555 1_555
H28B C39B 1_555 1_555
H29B C39B 1_555 1_555
C40B N5B 1_555 1_555
H30B C40B 1_555 1_555
C41B N6B 1_555 1_555
C42B C41B 1_555 1_555
H31B C42B 1_555 1_555
C43B C42B 1_555 1_555
H32B C43B 1_555 1_555
C44B C43B 1_555 1_555
C45B N6B 1_555 1_555
H33B C45B 1_555 1_555
F5B C47B 1_555 1_555
F6B C48B 1_555 1_555
F7B C49B 1_555 1_555
F8B C50B 1_555 1_555
C46B C44B 1_555 1_555
C47B C46B 1_555 1_555
C48B C47B 1_555 1_555
C49B C50B 1_555 1_555
C50B C46B 1_555 1_555
O3G C36G 1_555 1_555
N5G C33G 1_555 1_555
N6G C41G 1_555 1_555
C33G C34G 1_555 1_555
C34G H23G 1_555 1_555
C35G C34G 1_555 1_555
H24G C35G 1_555 1_555
C36G C35G 1_555 1_555
C37G C36G 1_555 1_555
H25G C37G 1_555 1_555
C38G C33G 1_555 1_555
H26G C38G 1_555 1_555
C39G O3G 1_555 1_555
H27G C39G 1_555 1_555
H28G C39G 1_555 1_555
H29G C39G 1_555 1_555
C40G N5G 1_555 1_555
H30G C40G 1_555 1_555
C41G C40G 1_555 1_555
C42G C41G 1_555 1_555
H31G C42G 1_555 1_555
C43G C42G 1_555 1_555
H32G C43G 1_555 1_555
C44G C43G 1_555 1_555
C45G N6G 1_555 1_555
H33G C45G 1_555 1_555
F5G C47G 1_555 1_555
F6G C48G 1_555 1_555
F7G C49G 1_555 1_555
F8G C50G 1_555 1_555
C46G C48B 1_555 1_555
C47G C49B 1_555 1_555
C48G C46B 1_555 1_555
C49G C46B 1_555 1_555
C50G C48B 1_555 1_555
Fe1C N1C 1_555 1_555
F1C C15C 1_555 1_555
F2C C16C 1_555 1_555
F3C C18C 1_555 1_555
F4C C19C 1_555 1_555
O1C C4C 1_555 1_555
O2C C29C 1_555 1_555
N1C C1C 1_555 1_555
N2C Fe1C 1_555 1_555
N3C Fe1 1_555 1_555
N4C Fe1 1_555 1_555
C1C C2C 1_555 1_555
C2C H1C 1_555 1_555
C3C C2C 1_555 1_555
H2C C3C 1_555 1_555
C4C C3C 1_555 1_555
C5C C4C 1_555 1_555
H3C C5C 1_555 1_555
C6C C1C 1_555 1_555
H4C C6C 1_555 1_555
C7C O1C 1_555 1_555
H5C C7C 1_555 1_555
H6C C7C 1_555 1_555
H7C C7C 1_555 1_555
C8C N1C 1_555 1_555
H8C C8C 1_555 1_555
C9C N2C 1_555 1_555
C10C C9C 1_555 1_555
H9C C10C 1_555 1_555
C11C C10C 1_555 1_555
H10C C11C 1_555 1_555
C12C C11C 1_555 1_555
C13C N2C 1_555 1_555
H11C C13C 1_555 1_555
C14C C12C 1_555 1_555
C15C C14C 1_555 1_555
C16C C15C 1_555 1_555
C17C C16C 1_555 1_555
C18C C17C 1_555 1_555
C19C C14C 1_555 1_555
C20C N3C 1_555 1_555
H12C C20C 1_555 1_555
C21C C17C 1_555 1_555
C22C C21C 1_555 1_555
H13C C22C 1_555 1_555
C23C C22C 1_555 1_555
H14C C23C 1_555 1_555
C24C N3C 1_555 1_555
C25C N4C 1_555 1_555
H15C C25C 1_555 1_555
C26C N4C 1_555 1_555
C27C C26C 1_555 1_555
H16C C27C 1_555 1_555
C28C C27C 1_555 1_555
H17C C28C 1_555 1_555
C29C C28C 1_555 1_555
C30C C29C 1_555 1_555
H18C C30C 1_555 1_555
C31C C26C 1_555 1_555
H19C C31C 1_555 1_555
C32C O2C 1_555 1_555
H20C C32C 1_555 1_555
H21C C32C 1_555 1_555
H22C C32C 1_555 1_555
O3C C36C 1_555 1_555
N5C Fe1C 1_555 1_555
N6C Fe1C 1_555 1_555
C33C N5C 1_555 1_555
C34C C33C 1_555 1_555
H23C C34C 1_555 1_555
C35C C34C 1_555 1_555
H24C C35C 1_555 1_555
C36C C35C 1_555 1_555
C37C C36C 1_555 1_555
H25C C37C 1_555 1_555
C38C C33C 1_555 1_555
H26C C38C 1_555 1_555
C39C O3C 1_555 1_555
H27C C39C 1_555 1_555
H28C C39C 1_555 1_555
H29C C39C 1_555 1_555
C40C N5C 1_555 1_555
H30C C40C 1_555 1_555
C41C N6C 1_555 1_555
C42C C41C 1_555 1_555
H31C C42C 1_555 1_555
C43C C42C 1_555 1_555
H32C C43C 1_555 1_555
C44C C43C 1_555 1_555
C45C N6C 1_555 1_555
H33C C45C 1_555 1_555
F5C C47C 1_555 1_555
F6C C48C 1_555 1_555
F7C C49C 1_555 1_555
F8C C50C 1_555 1_555
C46C C44C 1_555 1_555
C47C C46C 1_555 1_555
C48C C47C 1_555 1_555
C49C C50C 1_555 1_555
C50C C46C 1_555 1_555
O3F C36F 1_555 1_555
N5F C33F 1_555 1_555
N6F C41F 1_555 1_555
C33F C34F 1_555 1_555
C34F H23F 1_555 1_555
C35F C34F 1_555 1_555
H24F C35F 1_555 1_555
C36F C35F 1_555 1_555
C37F C36F 1_555 1_555
H25F C37F 1_555 1_555
C38F C33F 1_555 1_555
H26F C38F 1_555 1_555
C39F O3F 1_555 1_555
H27F C39F 1_555 1_555
H28F C39F 1_555 1_555
H29F C39F 1_555 1_555
C40F N5F 1_555 1_555
H30F C40F 1_555 1_555
C41F C40F 1_555 1_555
C42F C41F 1_555 1_555
H31F C42F 1_555 1_555
C43F C42F 1_555 1_555
H32F C43F 1_555 1_555
C44F C43F 1_555 1_555
C45F N6F 1_555 1_555
H33F C45F 1_555 1_555
F5F C47F 1_555 1_555
F6F C48F 1_555 1_555
F7F C49F 1_555 1_555
F8F C50F 1_555 1_555
C46F C48C 1_555 1_555
C47F C49C 1_555 1_555
C48F C46C 1_555 1_555
C49F C46C 1_555 1_555
C50F C48C 1_555 1_555
Fe1D N5D 1_555 1_555
F1D C15D 1_555 1_555
F2D C16D 1_555 1_555
F3D C18D 1_555 1_555
F4D C19D 1_555 1_555
O1D C4D 1_555 1_555
O2D C29D 1_555 1_555
N1D Fe1D 1_555 1_555
N2D Fe1D 1_555 1_555
N3D C20D 1_555 1_555
N4D C25D 1_555 1_555
C1D N1D 1_555 1_555
C2D C1D 1_555 1_555
H1D C2D 1_555 1_555
C3D C2D 1_555 1_555
H2D C3D 1_555 1_555
C4D C3D 1_555 1_555
C5D C4D 1_555 1_555
H3D C5D 1_555 1_555
C6D C1D 1_555 1_555
H4D C6D 1_555 1_555
C7D O1D 1_555 1_555
H5D C7D 1_555 1_555
H6D C7D 1_555 1_555
H7D C7D 1_555 1_555
C8D N1D 1_555 1_555
H8D C8D 1_555 1_555
C9D N2D 1_555 1_555
C10D C9D 1_555 1_555
H9D C10D 1_555 1_555
C11D C10D 1_555 1_555
H10D C11D 1_555 1_555
C12D C11D 1_555 1_555
C13D N2D 1_555 1_555
H11D C13D 1_555 1_555
C14D C12D 1_555 1_555
C15D C14D 1_555 1_555
C16D C15D 1_555 1_555
C17D C16D 1_555 1_555
C18D C17D 1_555 1_555
C19D C14D 1_555 1_555
C20D H12D 1_555 1_555
C21D C17D 1_555 1_555
C22D C21D 1_555 1_555
H13D C22D 1_555 1_555
C23D C22D 1_555 1_555
H14D C23D 1_555 1_555
C24D N3D 1_555 1_555
C25D C24D 1_555 1_555
H15D C25D 1_555 1_555
C26D N4D 1_555 1_555
C27D C26D 1_555 1_555
H16D C27D 1_555 1_555
C28D C27D 1_555 1_555
H17D C28D 1_555 1_555
C29D C28D 1_555 1_555
C30D C29D 1_555 1_555
H18D C30D 1_555 1_555
C31D C26D 1_555 1_555
H19D C31D 1_555 1_555
C32D O2D 1_555 1_555
H20D C32D 1_555 1_555
H21D C32D 1_555 1_555
H22D C32D 1_555 1_555
Fe1F N5F 1_555 1_555
F1F C15F 1_555 1_555
F2F C16F 1_555 1_555
F3F C18F 1_555 1_555
F4F C19F 1_555 1_555
O1F C4F 1_555 1_555
O2F C29F 1_555 1_555
N1F Fe1F 1_555 1_555
N2F Fe1F 1_555 1_555
N3F C20F 1_555 1_555
N4F C25F 1_555 1_555
C1F N1F 1_555 1_555
C2F C1F 1_555 1_555
H1F C2F 1_555 1_555
C3F C2F 1_555 1_555
H2F C3F 1_555 1_555
C4F C3F 1_555 1_555
C5F C4F 1_555 1_555
H3F C5F 1_555 1_555
C6F C1F 1_555 1_555
H4F C6F 1_555 1_555
C7F O1F 1_555 1_555
H5F C7F 1_555 1_555
H6F C7F 1_555 1_555
H7F C7F 1_555 1_555
C8F N1F 1_555 1_555
H8F C8F 1_555 1_555
C9F N2F 1_555 1_555
C10F C9F 1_555 1_555
H9F C10F 1_555 1_555
C11F C10F 1_555 1_555
H10F C11F 1_555 1_555
C12F C11F 1_555 1_555
C13F N2F 1_555 1_555
H11F C13F 1_555 1_555
C14F C12F 1_555 1_555
C15F C14F 1_555 1_555
C16F C15F 1_555 1_555
C17F C16F 1_555 1_555
C18F C17F 1_555 1_555
C19F C14F 1_555 1_555
C20F H12F 1_555 1_555
C21F C17F 1_555 1_555
C22F C21F 1_555 1_555
H13F C22F 1_555 1_555
C23F C22F 1_555 1_555
H14F C23F 1_555 1_555
C24F N3F 1_555 1_555
C25F C24F 1_555 1_555
H15F C25F 1_555 1_555
C26F N4F 1_555 1_555
C27F C26F 1_555 1_555
H16F C27F 1_555 1_555
C28F C27F 1_555 1_555
H17F C28F 1_555 1_555
C29F C28F 1_555 1_555
C30F C29F 1_555 1_555
H18F C30F 1_555 1_555
C31F C26F 1_555 1_555
H19F C31F 1_555 1_555
C32F O2F 1_555 1_555
H20F C32F 1_555 1_555
H21F C32F 1_555 1_555
H22F C32F 1_555 1_555
Fe1G N5G 1_555 1_555
F1G C15G 1_555 1_555
F2G C16G 1_555 1_555
F3G C18G 1_555 1_555
F4G C19G 1_555 1_555
O1G C4G 1_555 1_555
O2G C29G 1_555 1_555
N1G Fe1G 1_555 1_555
N2G Fe1G 1_555 1_555
N3G Fe1D 1_555 1_555
N4G Fe1D 1_555 1_555
C1G N1G 1_555 1_555
C2G C1G 1_555 1_555
H1G C2G 1_555 1_555
C3G C2G 1_555 1_555
H2G C3G 1_555 1_555
C4G C3G 1_555 1_555
C5G C4G 1_555 1_555
H3G C5G 1_555 1_555
C6G C1G 1_555 1_555
H4G C6G 1_555 1_555
C7G O1G 1_555 1_555
H5G C7G 1_555 1_555
H6G C7G 1_555 1_555
H7G C7G 1_555 1_555
C8G N1G 1_555 1_555
H8G C8G 1_555 1_555
C9G N2G 1_555 1_555
C10G C9G 1_555 1_555
H9G C10G 1_555 1_555
C11G C10G 1_555 1_555
H10G C11G 1_555 1_555
C12G C11G 1_555 1_555
C13G N2G 1_555 1_555
H11G C13G 1_555 1_555
C14G C12G 1_555 1_555
C15G C14G 1_555 1_555
C16G C15G 1_555 1_555
C17G C16G 1_555 1_555
C18G C17G 1_555 1_555
C19G C14G 1_555 1_555
C20G N3G 1_555 1_555
H12G C20G 1_555 1_555
C21G C17G 1_555 1_555
C22G C21G 1_555 1_555
H13G C22G 1_555 1_555
C23G C22G 1_555 1_555
H14G C23G 1_555 1_555
C24G N3G 1_555 1_555
C25G N4G 1_555 1_555
H15G C25G 1_555 1_555
C26G N4G 1_555 1_555
C27G C26G 1_555 1_555
H16G C27G 1_555 1_555
C28G C27G 1_555 1_555
H17G C28G 1_555 1_555
C29G C28G 1_555 1_555
C30G C29G 1_555 1_555
H18G C30G 1_555 1_555
C31G C26G 1_555 1_555
H19G C31G 1_555 1_555
C32G O2G 1_555 1_555
H20G C32G 1_555 1_555
H21G C32G 1_555 1_555
H22G C32G 1_555 1_555
Fe1A N3B 1_555 1_555
F1A C15A 1_555 1_555
F2A C16A 1_555 1_555
F3A C18A 1_555 1_555
F4A C19A 1_555 1_555
O1A C4A 1_555 1_555
O2A C29A 1_555 1_555
N1A Fe1A 1_555 1_555
N2A Fe1A 1_555 1_555
N3A Fe1C 1_555 1_555
N4A Fe1C 1_555 1_555
C1A N1A 1_555 1_555
C2A C1A 1_555 1_555
H1A C2A 1_555 1_555
C3A C2A 1_555 1_555
H2A C3A 1_555 1_555
C4A C3A 1_555 1_555
C5A C4A 1_555 1_555
H3A C5A 1_555 1_555
C6A C1A 1_555 1_555
H4A C6A 1_555 1_555
C7A O1A 1_555 1_555
H5A C7A 1_555 1_555
H6A C7A 1_555 1_555
H7A C7A 1_555 1_555
C8A N1A 1_555 1_555
H8A C8A 1_555 1_555
C9A N2A 1_555 1_555
C10A C9A 1_555 1_555
H9A C10A 1_555 1_555
C11A C10A 1_555 1_555
H10A C11A 1_555 1_555
C12A C11A 1_555 1_555
C13A N2A 1_555 1_555
H11A C13A 1_555 1_555
C14A C12A 1_555 1_555
C15A C14A 1_555 1_555
C16A C15A 1_555 1_555
C17A C16A 1_555 1_555
C18A C17A 1_555 1_555
C19A C14A 1_555 1_555
C20A N3A 1_555 1_555
H12A C20A 1_555 1_555
C21A C17A 1_555 1_555
C22A C21A 1_555 1_555
H13A C22A 1_555 1_555
C23A C22A 1_555 1_555
H14A C23A 1_555 1_555
C24A N3A 1_555 1_555
C25A N4A 1_555 1_555
H15A C25A 1_555 1_555
C26A N4A 1_555 1_555
C27A C26A 1_555 1_555
H16A C27A 1_555 1_555
C28A C27A 1_555 1_555
H17A C28A 1_555 1_555
C29A C28A 1_555 1_555
C30A C29A 1_555 1_555
H18A C30A 1_555 1_555
C31A C26A 1_555 1_555
H19A C31A 1_555 1_555
C32A O2A 1_555 1_555
H20A C32A 1_555 1_555
H21A C32A 1_555 1_555
H22A C32A 1_555 1_555
O3A C36A 1_555 1_555
N5A Fe1A 1_555 1_555
N6A Fe1A 1_555 1_555
C33A N5A 1_555 1_555
C34A C33A 1_555 1_555
H23A C34A 1_555 1_555
C35A C34A 1_555 1_555
H24A C35A 1_555 1_555
C36A C35A 1_555 1_555
C37A C36A 1_555 1_555
H25A C37A 1_555 1_555
C38A C33A 1_555 1_555
H26A C38A 1_555 1_555
C39A O3A 1_555 1_555
H27A C39A 1_555 1_555
H28A C39A 1_555 1_555
H29A C39A 1_555 1_555
C40A N5A 1_555 1_555
H30A C40A 1_555 1_555
C41A N6A 1_555 1_555
C42A C41A 1_555 1_555
H31A C42A 1_555 1_555
C43A C42A 1_555 1_555
H32A C43A 1_555 1_555
C44A C43A 1_555 1_555
C45A N6A 1_555 1_555
H33A C45A 1_555 1_555
F5A C47A 1_555 1_555
F6A C48A 1_555 1_555
F7A C49A 1_555 1_555
F8A C50A 1_555 1_555
C46A C44A 1_555 1_555
C47A C46A 1_555 1_555
C48A C47A 1_555 1_555
C49A C50A 1_555 1_555
C50A C46A 1_555 1_555
O3E C36E 1_555 1_555
N5E C33E 1_555 1_555
N6E C41E 1_555 1_555
C33E C34E 1_555 1_555
C34E H23E 1_555 1_555
C35E C34E 1_555 1_555
H24E C35E 1_555 1_555
C36E C35E 1_555 1_555
C37E C36E 1_555 1_555
H25E C37E 1_555 1_555
C38E C33E 1_555 1_555
H26E C38E 1_555 1_555
C39E O3E 1_555 1_555
H27E C39E 1_555 1_555
H28E C39E 1_555 1_555
H29E C39E 1_555 1_555
C40E N5E 1_555 1_555
H30E C40E 1_555 1_555
C41E C40E 1_555 1_555
C42E C41E 1_555 1_555
H31E C42E 1_555 1_555
C43E C42E 1_555 1_555
H32E C43E 1_555 1_555
C44E C43E 1_555 1_555
C45E N6E 1_555 1_555
H33E C45E 1_555 1_555
F5E C47E 1_555 1_555
F6E C48E 1_555 1_555
F7E C49E 1_555 1_555
F8E C50E 1_555 1_555
C46E C48A 1_555 1_555
C47E C49A 1_555 1_555
C48E C46A 1_555 1_555
C49E C46A 1_555 1_555
C50E C48A 1_555 1_555
Fe1E N3F 1_555 1_555
F1E C15E 1_555 1_555
F2E C16E 1_555 1_555
F3E C18E 1_555 1_555
F4E C19E 1_555 1_555
O1E C4E 1_555 1_555
O2E C29E 1_555 1_555
N1E Fe1E 1_555 1_555
N2E Fe1E 1_555 1_555
N3E Fe1G 1_555 1_555
N4E Fe1G 1_555 1_555
C1E N1E 1_555 1_555
C2E C1E 1_555 1_555
H1E C2E 1_555 1_555
C3E C2E 1_555 1_555
H2E C3E 1_555 1_555
C4E C3E 1_555 1_555
C5E C4E 1_555 1_555
H3E C5E 1_555 1_555
C6E C1E 1_555 1_555
H4E C6E 1_555 1_555
C7E O1E 1_555 1_555
H5E C7E 1_555 1_555
H6E C7E 1_555 1_555
H7E C7E 1_555 1_555
C8E N1E 1_555 1_555
H8E C8E 1_555 1_555
C9E N2E 1_555 1_555
C10E C9E 1_555 1_555
H9E C10E 1_555 1_555
C11E C10E 1_555 1_555
H10E C11E 1_555 1_555
C12E C11E 1_555 1_555
C13E N2E 1_555 1_555
H11E C13E 1_555 1_555
C14E C12E 1_555 1_555
C15E C14E 1_555 1_555
C16E C15E 1_555 1_555
C17E C16E 1_555 1_555
C18E C17E 1_555 1_555
C19E C14E 1_555 1_555
C20E N3E 1_555 1_555
H12E C20E 1_555 1_555
C21E C17E 1_555 1_555
C22E C21E 1_555 1_555
H13E C22E 1_555 1_555
C23E C22E 1_555 1_555
H14E C23E 1_555 1_555
C24E N3E 1_555 1_555
C25E N4E 1_555 1_555
H15E C25E 1_555 1_555
C26E N4E 1_555 1_555
C27E C26E 1_555 1_555
H16E C27E 1_555 1_555
C28E C27E 1_555 1_555
H17E C28E 1_555 1_555
C29E C28E 1_555 1_555
C30E C29E 1_555 1_555
H18E C30E 1_555 1_555
C31E C26E 1_555 1_555
H19E C31E 1_555 1_555
C32E O2E 1_555 1_555
H20E C32E 1_555 1_555
H21E C32E 1_555 1_555
H22E C32E 1_555 1_555
O4A Cl1 1_555 1_555
O4J Cl1 1_555 1_555
O4K Cl1 1_555 1_555
N4 Fe1B 1_555 1_555
C5 C6 1_555 1_555
C8 C9 1_555 1_555
C12 C13 1_555 1_555
C18 C19 1_555 1_555
C20 C21 1_555 1_555
C23 C24 1_555 1_555
C30 C31 1_555 1_555
C37 C38 1_555 1_555
C40 C41 1_555 1_555
C44 C45 1_555 1_555
C47 C49D 1_555 1_555
C49 C46D 1_555 1_555
C50 C48D 1_555 1_555
N6D Fe1D 1_555 1_555
C37D C38D 1_555 1_555
C44D C45D 1_555 1_555
C44D C46D 1_555 1_555
C46D C47D 1_555 1_555
C46D C50D 1_555 1_555
C47D C48D 1_555 1_555
C49D C50D 1_555 1_555
N4B Fe1A 1_555 1_555
C5B C6B 1_555 1_555
C8B C9B 1_555 1_555
C12B C13B 1_555 1_555
C18B C19B 1_555 1_555
C20B C21B 1_555 1_555
C23B C24B 1_555 1_555
C30B C31B 1_555 1_555
C37B C38B 1_555 1_555
C40B C41B 1_555 1_555
C44B C45B 1_555 1_555
C47B C49G 1_555 1_555
C49B C46G 1_555 1_555
C50B C48G 1_555 1_555
N6G Fe1G 1_555 1_555
C37G C38G 1_555 1_555
C44G C45G 1_555 1_555
C44G C46G 1_555 1_555
C46G C47G 1_555 1_555
C46G C50G 1_555 1_555
C47G C48G 1_555 1_555
C49G C50G 1_555 1_555
C5C C6C 1_555 1_555
C8C C9C 1_555 1_555
C12C C13C 1_555 1_555
C18C C19C 1_555 1_555
C20C C21C 1_555 1_555
C23C C24C 1_555 1_555
C24C C25C 1_555 1_555
C30C C31C 1_555 1_555
C37C C38C 1_555 1_555
C40C C41C 1_555 1_555
C44C C45C 1_555 1_555
C47C C49F 1_555 1_555
C49C C46F 1_555 1_555
C50C C48F 1_555 1_555
N6F Fe1F 1_555 1_555
C37F C38F 1_555 1_555
C44F C45F 1_555 1_555
C44F C46F 1_555 1_555
C46F C47F 1_555 1_555
C46F C50F 1_555 1_555
C47F C48F 1_555 1_555
C49F C50F 1_555 1_555
N3D Fe1F 1_555 1_555
N4D Fe1F 1_555 1_555
C5D C6D 1_555 1_555
C8D C9D 1_555 1_555
C12D C13D 1_555 1_555
C18D C19D 1_555 1_555
C20D C21D 1_555 1_555
C23D C24D 1_555 1_555
C30D C31D 1_555 1_555
N4F Fe1E 1_555 1_555
C5F C6F 1_555 1_555
C8F C9F 1_555 1_555
C12F C13F 1_555 1_555
C18F C19F 1_555 1_555
C20F C21F 1_555 1_555
C23F C24F 1_555 1_555
C30F C31F 1_555 1_555
C5G C6G 1_555 1_555
C8G C9G 1_555 1_555
C12G C13G 1_555 1_555
C18G C19G 1_555 1_555
C20G C21G 1_555 1_555
C23G C24G 1_555 1_555
C24G C25G 1_555 1_555
C30G C31G 1_555 1_555
C5A C6A 1_555 1_555
C8A C9A 1_555 1_555
C12A C13A 1_555 1_555
C18A C19A 1_555 1_555
C20A C21A 1_555 1_555
C23A C24A 1_555 1_555
C24A C25A 1_555 1_555
C30A C31A 1_555 1_555
C37A C38A 1_555 1_555
C40A C41A 1_555 1_555
C44A C45A 1_555 1_555
C47A C49E 1_555 1_555
C49A C46E 1_555 1_555
C50A C48E 1_555 1_555
N5E Fe1E 1_555 1_555
N6E Fe1E 1_555 1_555
C37E C38E 1_555 1_555
C44E C45E 1_555 1_555
C44E C46E 1_555 1_555
C46E C47E 1_555 1_555
C46E C50E 1_555 1_555
C47E C48E 1_555 1_555
C49E C50E 1_555 1_555
C5E C6E 1_555 1_555
C8E C9E 1_555 1_555
C12E C13E 1_555 1_555
C18E C19E 1_555 1_555
C20E C21E 1_555 1_555
C23E C24E 1_555 1_555
C24E C25E 1_555 1_555
C30E C31E 1_555 1_555

#END
