# generated using pymatgen
data_Fe4P8H132C200N24Cl(OF5)16
_symmetry_space_group_name_H-M   'P 1'
_cell_length_a   28.31400000
_cell_length_b   28.31400000
_cell_length_c   35.39110000
_cell_angle_alpha   90.00000000
_cell_angle_beta   90.00000000
_cell_angle_gamma   90.00000000
_symmetry_Int_Tables_number   1
_chemical_formula_structural   Fe4P8H132C200N24Cl(OF5)16
_chemical_formula_sum   'Fe16 P32 H528 C800 N96 Cl4 O64 F320'
_cell_volume   28372.42892330
_cell_formula_units_Z   4
loop_
 _symmetry_equiv_pos_site_id
 _symmetry_equiv_pos_as_xyz
  1  'x, y, z'
loop_
 _atom_site_type_symbol
 _atom_site_label
 _atom_site_symmetry_multiplicity
 _atom_site_fract_x
 _atom_site_fract_y
 _atom_site_fract_z
 _atom_site_occupancy
  Fe  Fe1  1  0.289080  0.952470  0.413450  1.0
  Fe  Fe2  1  0.210920  0.547530  0.413450  1.0
  Fe  Fe3  1  0.547530  0.289080  0.413450  1.0
  Fe  Fe4  1  0.952470  0.210920  0.413450  1.0
  Fe  Fe5  1  0.210920  0.952470  0.086550  1.0
  Fe  Fe6  1  0.289080  0.547530  0.086550  1.0
  Fe  Fe7  1  0.952470  0.289080  0.086550  1.0
  Fe  Fe8  1  0.547530  0.210920  0.086550  1.0
  Fe  Fe9  1  0.710920  0.047530  0.586550  1.0
  Fe  Fe10  1  0.789080  0.452470  0.586550  1.0
  Fe  Fe11  1  0.452470  0.710920  0.586550  1.0
  Fe  Fe12  1  0.047530  0.789080  0.586550  1.0
  Fe  Fe13  1  0.789080  0.047530  0.913450  1.0
  Fe  Fe14  1  0.710920  0.452470  0.913450  1.0
  Fe  Fe15  1  0.047530  0.710920  0.913450  1.0
  Fe  Fe16  1  0.452470  0.789080  0.913450  1.0
  P  P17  1  0.387130  0.147840  0.446700  1
  P  P18  1  0.112870  0.352160  0.446700  1
  P  P19  1  0.352160  0.387130  0.446700  1
  P  P20  1  0.147840  0.112870  0.446700  1
  P  P21  1  0.112870  0.147840  0.053300  1
  P  P22  1  0.387130  0.352160  0.053300  1
  P  P23  1  0.147840  0.387130  0.053300  1
  P  P24  1  0.352160  0.112870  0.053300  1
  P  P25  1  0.612870  0.852160  0.553300  1
  P  P26  1  0.887130  0.647840  0.553300  1
  P  P27  1  0.647840  0.612870  0.553300  1
  P  P28  1  0.852160  0.887130  0.553300  1
  P  P29  1  0.887130  0.852160  0.946700  1
  P  P30  1  0.612870  0.647840  0.946700  1
  P  P31  1  0.852160  0.612870  0.946700  1
  P  P32  1  0.647840  0.887130  0.946700  1
  P  P33  1  0.251300  0.251800  0.344100  1
  P  P34  1  0.248700  0.248200  0.344100  1
  P  P35  1  0.248200  0.251300  0.344100  1
  P  P36  1  0.251800  0.248700  0.344100  1
  P  P37  1  0.248700  0.251800  0.155900  1
  P  P38  1  0.251300  0.248200  0.155900  1
  P  P39  1  0.251800  0.251300  0.155900  1
  P  P40  1  0.248200  0.248700  0.155900  1
  P  P41  1  0.748700  0.748200  0.655900  1
  P  P42  1  0.751300  0.751800  0.655900  1
  P  P43  1  0.751800  0.748700  0.655900  1
  P  P44  1  0.748200  0.751300  0.655900  1
  P  P45  1  0.751300  0.748200  0.844100  1
  P  P46  1  0.748700  0.751800  0.844100  1
  P  P47  1  0.748200  0.748700  0.844100  1
  P  P48  1  0.751800  0.751300  0.844100  1
  H  H49  1  0.195900  0.929500  0.347200  1.0
  H  H50  1  0.304100  0.570500  0.347200  1.0
  H  H51  1  0.570500  0.195900  0.347200  1.0
  H  H52  1  0.929500  0.304100  0.347200  1.0
  H  H53  1  0.304100  0.929500  0.152800  1.0
  H  H54  1  0.195900  0.570500  0.152800  1.0
  H  H55  1  0.929500  0.195900  0.152800  1.0
  H  H56  1  0.570500  0.304100  0.152800  1.0
  H  H57  1  0.804100  0.070500  0.652800  1.0
  H  H58  1  0.695900  0.429500  0.652800  1.0
  H  H59  1  0.429500  0.804100  0.652800  1.0
  H  H60  1  0.070500  0.695900  0.652800  1.0
  H  H61  1  0.695900  0.070500  0.847200  1.0
  H  H62  1  0.804100  0.429500  0.847200  1.0
  H  H63  1  0.070500  0.804100  0.847200  1.0
  H  H64  1  0.429500  0.695900  0.847200  1.0
  H  H65  1  0.131000  0.880600  0.336400  1.0
  H  H66  1  0.369000  0.619400  0.336400  1.0
  H  H67  1  0.619400  0.131000  0.336400  1.0
  H  H68  1  0.880600  0.369000  0.336400  1.0
  H  H69  1  0.369000  0.880600  0.163600  1.0
  H  H70  1  0.131000  0.619400  0.163600  1.0
  H  H71  1  0.880600  0.131000  0.163600  1.0
  H  H72  1  0.619400  0.369000  0.163600  1.0
  H  H73  1  0.869000  0.119400  0.663600  1.0
  H  H74  1  0.631000  0.380600  0.663600  1.0
  H  H75  1  0.380600  0.869000  0.663600  1.0
  H  H76  1  0.119400  0.631000  0.663600  1.0
  H  H77  1  0.631000  0.119400  0.836400  1.0
  H  H78  1  0.869000  0.380600  0.836400  1.0
  H  H79  1  0.119400  0.869000  0.836400  1.0
  H  H80  1  0.380600  0.631000  0.836400  1.0
  H  H81  1  0.208500  0.767500  0.367700  1.0
  H  H82  1  0.291500  0.732500  0.367700  1.0
  H  H83  1  0.732500  0.208500  0.367700  1.0
  H  H84  1  0.767500  0.291500  0.367700  1.0
  H  H85  1  0.291500  0.767500  0.132300  1.0
  H  H86  1  0.208500  0.732500  0.132300  1.0
  H  H87  1  0.767500  0.208500  0.132300  1.0
  H  H88  1  0.732500  0.291500  0.132300  1.0
  H  H89  1  0.791500  0.232500  0.632300  1.0
  H  H90  1  0.708500  0.267500  0.632300  1.0
  H  H91  1  0.267500  0.791500  0.632300  1.0
  H  H92  1  0.232500  0.708500  0.632300  1.0
  H  H93  1  0.708500  0.232500  0.867700  1.0
  H  H94  1  0.791500  0.267500  0.867700  1.0
  H  H95  1  0.232500  0.791500  0.867700  1.0
  H  H96  1  0.267500  0.708500  0.867700  1.0
  H  H97  1  0.274000  0.816000  0.376400  1.0
  H  H98  1  0.226000  0.684000  0.376400  1.0
  H  H99  1  0.684000  0.274000  0.376400  1.0
  H  H100  1  0.816000  0.226000  0.376400  1.0
  H  H101  1  0.226000  0.816000  0.123600  1.0
  H  H102  1  0.274000  0.684000  0.123600  1.0
  H  H103  1  0.816000  0.274000  0.123600  1.0
  H  H104  1  0.684000  0.226000  0.123600  1.0
  H  H105  1  0.726000  0.184000  0.623600  1.0
  H  H106  1  0.774000  0.316000  0.623600  1.0
  H  H107  1  0.316000  0.726000  0.623600  1.0
  H  H108  1  0.184000  0.774000  0.623600  1.0
  H  H109  1  0.774000  0.184000  0.876400  1.0
  H  H110  1  0.726000  0.316000  0.876400  1.0
  H  H111  1  0.184000  0.726000  0.876400  1.0
  H  H112  1  0.316000  0.774000  0.876400  1.0
  H  H113  1  0.068400  0.827100  0.350500  1.0
  H  H114  1  0.431600  0.672900  0.350500  1.0
  H  H115  1  0.672900  0.068400  0.350500  1.0
  H  H116  1  0.827100  0.431600  0.350500  1.0
  H  H117  1  0.431600  0.827100  0.149500  1.0
  H  H118  1  0.068400  0.672900  0.149500  1.0
  H  H119  1  0.827100  0.068400  0.149500  1.0
  H  H120  1  0.672900  0.431600  0.149500  1.0
  H  H121  1  0.931600  0.172900  0.649500  1.0
  H  H122  1  0.568400  0.327100  0.649500  1.0
  H  H123  1  0.327100  0.931600  0.649500  1.0
  H  H124  1  0.172900  0.568400  0.649500  1.0
  H  H125  1  0.568400  0.172900  0.850500  1.0
  H  H126  1  0.931600  0.327100  0.850500  1.0
  H  H127  1  0.172900  0.931600  0.850500  1.0
  H  H128  1  0.327100  0.568400  0.850500  1.0
  H  H129  1  0.061300  0.778300  0.328400  1.0
  H  H130  1  0.438700  0.721700  0.328400  1.0
  H  H131  1  0.721700  0.061300  0.328400  1.0
  H  H132  1  0.778300  0.438700  0.328400  1.0
  H  H133  1  0.438700  0.778300  0.171600  1.0
  H  H134  1  0.061300  0.721700  0.171600  1.0
  H  H135  1  0.778300  0.061300  0.171600  1.0
  H  H136  1  0.721700  0.438700  0.171600  1.0
  H  H137  1  0.938700  0.221700  0.671600  1.0
  H  H138  1  0.561300  0.278300  0.671600  1.0
  H  H139  1  0.278300  0.938700  0.671600  1.0
  H  H140  1  0.221700  0.561300  0.671600  1.0
  H  H141  1  0.561300  0.221700  0.828400  1.0
  H  H142  1  0.938700  0.278300  0.828400  1.0
  H  H143  1  0.221700  0.938700  0.828400  1.0
  H  H144  1  0.278300  0.561300  0.828400  1.0
  H  H145  1  0.088200  0.821200  0.308400  1.0
  H  H146  1  0.411800  0.678800  0.308400  1.0
  H  H147  1  0.678800  0.088200  0.308400  1.0
  H  H148  1  0.821200  0.411800  0.308400  1.0
  H  H149  1  0.411800  0.821200  0.191600  1.0
  H  H150  1  0.088200  0.678800  0.191600  1.0
  H  H151  1  0.821200  0.088200  0.191600  1.0
  H  H152  1  0.678800  0.411800  0.191600  1.0
  H  H153  1  0.911800  0.178800  0.691600  1.0
  H  H154  1  0.588200  0.321200  0.691600  1.0
  H  H155  1  0.321200  0.911800  0.691600  1.0
  H  H156  1  0.178800  0.588200  0.691600  1.0
  H  H157  1  0.588200  0.178800  0.808400  1.0
  H  H158  1  0.911800  0.321200  0.808400  1.0
  H  H159  1  0.178800  0.911800  0.808400  1.0
  H  H160  1  0.321200  0.588200  0.808400  1.0
  H  H161  1  0.320700  0.876700  0.331400  1.0
  H  H162  1  0.179300  0.623300  0.331400  1.0
  H  H163  1  0.623300  0.320700  0.331400  1.0
  H  H164  1  0.876700  0.179300  0.331400  1.0
  H  H165  1  0.179300  0.876700  0.168600  1.0
  H  H166  1  0.320700  0.623300  0.168600  1.0
  H  H167  1  0.876700  0.320700  0.168600  1.0
  H  H168  1  0.623300  0.179300  0.168600  1.0
  H  H169  1  0.679300  0.123300  0.668600  1.0
  H  H170  1  0.820700  0.376700  0.668600  1.0
  H  H171  1  0.376700  0.679300  0.668600  1.0
  H  H172  1  0.123300  0.820700  0.668600  1.0
  H  H173  1  0.820700  0.123300  0.831400  1.0
  H  H174  1  0.679300  0.376700  0.831400  1.0
  H  H175  1  0.123300  0.679300  0.831400  1.0
  H  H176  1  0.376700  0.820700  0.831400  1.0
  H  H177  1  0.407600  0.906000  0.321300  1.0
  H  H178  1  0.092400  0.594000  0.321300  1.0
  H  H179  1  0.594000  0.407600  0.321300  1.0
  H  H180  1  0.906000  0.092400  0.321300  1.0
  H  H181  1  0.092400  0.906000  0.178700  1.0
  H  H182  1  0.407600  0.594000  0.178700  1.0
  H  H183  1  0.906000  0.407600  0.178700  1.0
  H  H184  1  0.594000  0.092400  0.178700  1.0
  H  H185  1  0.592400  0.094000  0.678700  1.0
  H  H186  1  0.907600  0.406000  0.678700  1.0
  H  H187  1  0.406000  0.592400  0.678700  1.0
  H  H188  1  0.094000  0.907600  0.678700  1.0
  H  H189  1  0.907600  0.094000  0.821300  1.0
  H  H190  1  0.592400  0.406000  0.821300  1.0
  H  H191  1  0.094000  0.592400  0.821300  1.0
  H  H192  1  0.406000  0.907600  0.821300  1.0
  H  H193  1  0.468300  0.957600  0.340200  1.0
  H  H194  1  0.031700  0.542400  0.340200  1.0
  H  H195  1  0.542400  0.468300  0.340200  1.0
  H  H196  1  0.957600  0.031700  0.340200  1.0
  H  H197  1  0.031700  0.957600  0.159800  1.0
  H  H198  1  0.468300  0.542400  0.159800  1.0
  H  H199  1  0.957600  0.468300  0.159800  1.0
  H  H200  1  0.542400  0.031700  0.159800  1.0
  H  H201  1  0.531700  0.042400  0.659800  1.0
  H  H202  1  0.968300  0.457600  0.659800  1.0
  H  H203  1  0.457600  0.531700  0.659800  1.0
  H  H204  1  0.042400  0.968300  0.659800  1.0
  H  H205  1  0.968300  0.042400  0.840200  1.0
  H  H206  1  0.531700  0.457600  0.840200  1.0
  H  H207  1  0.042400  0.531700  0.840200  1.0
  H  H208  1  0.457600  0.968300  0.840200  1.0
  H  H209  1  0.380800  0.008200  0.420500  1.0
  H  H210  1  0.119200  0.491800  0.420500  1.0
  H  H211  1  0.491800  0.380800  0.420500  1.0
  H  H212  1  0.008200  0.119200  0.420500  1.0
  H  H213  1  0.119200  0.008200  0.079500  1.0
  H  H214  1  0.380800  0.491800  0.079500  1.0
  H  H215  1  0.008200  0.380800  0.079500  1.0
  H  H216  1  0.491800  0.119200  0.079500  1.0
  H  H217  1  0.619200  0.991800  0.579500  1.0
  H  H218  1  0.880800  0.508200  0.579500  1.0
  H  H219  1  0.508200  0.619200  0.579500  1.0
  H  H220  1  0.991800  0.880800  0.579500  1.0
  H  H221  1  0.880800  0.991800  0.920500  1.0
  H  H222  1  0.619200  0.508200  0.920500  1.0
  H  H223  1  0.991800  0.619200  0.920500  1.0
  H  H224  1  0.508200  0.880800  0.920500  1.0
  H  H225  1  0.506600  0.188800  0.410700  1.0
  H  H226  1  0.993400  0.311200  0.410700  1.0
  H  H227  1  0.311200  0.506600  0.410700  1.0
  H  H228  1  0.188800  0.993400  0.410700  1.0
  H  H229  1  0.993400  0.188800  0.089300  1.0
  H  H230  1  0.506600  0.311200  0.089300  1.0
  H  H231  1  0.188800  0.506600  0.089300  1.0
  H  H232  1  0.311200  0.993400  0.089300  1.0
  H  H233  1  0.493400  0.811200  0.589300  1.0
  H  H234  1  0.006600  0.688800  0.589300  1.0
  H  H235  1  0.688800  0.493400  0.589300  1.0
  H  H236  1  0.811200  0.006600  0.589300  1.0
  H  H237  1  0.006600  0.811200  0.910700  1.0
  H  H238  1  0.493400  0.688800  0.910700  1.0
  H  H239  1  0.811200  0.493400  0.910700  1.0
  H  H240  1  0.688800  0.006600  0.910700  1.0
  H  H241  1  0.606600  0.105900  0.457300  1.0
  H  H242  1  0.893400  0.394100  0.457300  1.0
  H  H243  1  0.394100  0.606600  0.457300  1.0
  H  H244  1  0.105900  0.893400  0.457300  1.0
  H  H245  1  0.893400  0.105900  0.042700  1.0
  H  H246  1  0.606600  0.394100  0.042700  1.0
  H  H247  1  0.105900  0.606600  0.042700  1.0
  H  H248  1  0.394100  0.893400  0.042700  1.0
  H  H249  1  0.393400  0.894100  0.542700  1.0
  H  H250  1  0.106600  0.605900  0.542700  1.0
  H  H251  1  0.605900  0.393400  0.542700  1.0
  H  H252  1  0.894100  0.106600  0.542700  1.0
  H  H253  1  0.106600  0.894100  0.957300  1.0
  H  H254  1  0.393400  0.605900  0.957300  1.0
  H  H255  1  0.894100  0.393400  0.957300  1.0
  H  H256  1  0.605900  0.106600  0.957300  1.0
  H  H257  1  0.648000  0.174700  0.474000  1.0
  H  H258  1  0.852000  0.325300  0.474000  1.0
  H  H259  1  0.325300  0.648000  0.474000  1.0
  H  H260  1  0.174700  0.852000  0.474000  1.0
  H  H261  1  0.852000  0.174700  0.026000  1.0
  H  H262  1  0.648000  0.325300  0.026000  1.0
  H  H263  1  0.174700  0.648000  0.026000  1.0
  H  H264  1  0.325300  0.852000  0.026000  1.0
  H  H265  1  0.352000  0.825300  0.526000  1.0
  H  H266  1  0.148000  0.674700  0.526000  1.0
  H  H267  1  0.674700  0.352000  0.526000  1.0
  H  H268  1  0.825300  0.148000  0.526000  1.0
  H  H269  1  0.148000  0.825300  0.974000  1.0
  H  H270  1  0.352000  0.674700  0.974000  1.0
  H  H271  1  0.825300  0.352000  0.974000  1.0
  H  H272  1  0.674700  0.148000  0.974000  1.0
  H  H273  1  0.655100  0.266500  0.468900  1.0
  H  H274  1  0.844900  0.233500  0.468900  1.0
  H  H275  1  0.233500  0.655100  0.468900  1.0
  H  H276  1  0.266500  0.844900  0.468900  1.0
  H  H277  1  0.844900  0.266500  0.031100  1.0
  H  H278  1  0.655100  0.233500  0.031100  1.0
  H  H279  1  0.266500  0.655100  0.031100  1.0
  H  H280  1  0.233500  0.844900  0.031100  1.0
  H  H281  1  0.344900  0.733500  0.531100  1.0
  H  H282  1  0.155100  0.766500  0.531100  1.0
  H  H283  1  0.766500  0.344900  0.531100  1.0
  H  H284  1  0.733500  0.155100  0.531100  1.0
  H  H285  1  0.155100  0.733500  0.968900  1.0
  H  H286  1  0.344900  0.766500  0.968900  1.0
  H  H287  1  0.733500  0.344900  0.968900  1.0
  H  H288  1  0.766500  0.155100  0.968900  1.0
  H  H289  1  0.571600  0.385300  0.461000  1.0
  H  H290  1  0.928400  0.114700  0.461000  1.0
  H  H291  1  0.114700  0.571600  0.461000  1.0
  H  H292  1  0.385300  0.928400  0.461000  1.0
  H  H293  1  0.928400  0.385300  0.039000  1.0
  H  H294  1  0.571600  0.114700  0.039000  1.0
  H  H295  1  0.385300  0.571600  0.039000  1.0
  H  H296  1  0.114700  0.928400  0.039000  1.0
  H  H297  1  0.428400  0.614700  0.539000  1.0
  H  H298  1  0.071600  0.885300  0.539000  1.0
  H  H299  1  0.885300  0.428400  0.539000  1.0
  H  H300  1  0.614700  0.071600  0.539000  1.0
  H  H301  1  0.071600  0.614700  0.961000  1.0
  H  H302  1  0.428400  0.885300  0.961000  1.0
  H  H303  1  0.614700  0.428400  0.961000  1.0
  H  H304  1  0.885300  0.071600  0.961000  1.0
  H  H305  1  0.609500  0.458400  0.462200  1.0
  H  H306  1  0.890500  0.041600  0.462200  1.0
  H  H307  1  0.041600  0.609500  0.462200  1.0
  H  H308  1  0.458400  0.890500  0.462200  1.0
  H  H309  1  0.890500  0.458400  0.037800  1.0
  H  H310  1  0.609500  0.041600  0.037800  1.0
  H  H311  1  0.458400  0.609500  0.037800  1.0
  H  H312  1  0.041600  0.890500  0.037800  1.0
  H  H313  1  0.390500  0.541600  0.537800  1.0
  H  H314  1  0.109500  0.958400  0.537800  1.0
  H  H315  1  0.958400  0.390500  0.537800  1.0
  H  H316  1  0.541600  0.109500  0.537800  1.0
  H  H317  1  0.109500  0.541600  0.962200  1.0
  H  H318  1  0.390500  0.958400  0.962200  1.0
  H  H319  1  0.541600  0.390500  0.962200  1.0
  H  H320  1  0.958400  0.109500  0.962200  1.0
  H  H321  1  0.731800  0.395400  0.431700  1.0
  H  H322  1  0.768200  0.104600  0.431700  1.0
  H  H323  1  0.104600  0.731800  0.431700  1.0
  H  H324  1  0.395400  0.768200  0.431700  1.0
  H  H325  1  0.768200  0.395400  0.068300  1.0
  H  H326  1  0.731800  0.104600  0.068300  1.0
  H  H327  1  0.395400  0.731800  0.068300  1.0
  H  H328  1  0.104600  0.768200  0.068300  1.0
  H  H329  1  0.268200  0.604600  0.568300  1.0
  H  H330  1  0.231800  0.895400  0.568300  1.0
  H  H331  1  0.895400  0.268200  0.568300  1.0
  H  H332  1  0.604600  0.231800  0.568300  1.0
  H  H333  1  0.231800  0.604600  0.931700  1.0
  H  H334  1  0.268200  0.895400  0.931700  1.0
  H  H335  1  0.604600  0.268200  0.931700  1.0
  H  H336  1  0.895400  0.231800  0.931700  1.0
  H  H337  1  0.694400  0.322100  0.431100  1.0
  H  H338  1  0.805600  0.177900  0.431100  1.0
  H  H339  1  0.177900  0.694400  0.431100  1.0
  H  H340  1  0.322100  0.805600  0.431100  1.0
  H  H341  1  0.805600  0.322100  0.068900  1.0
  H  H342  1  0.694400  0.177900  0.068900  1.0
  H  H343  1  0.322100  0.694400  0.068900  1.0
  H  H344  1  0.177900  0.805600  0.068900  1.0
  H  H345  1  0.305600  0.677900  0.568900  1.0
  H  H346  1  0.194400  0.822100  0.568900  1.0
  H  H347  1  0.822100  0.305600  0.568900  1.0
  H  H348  1  0.677900  0.194400  0.568900  1.0
  H  H349  1  0.194400  0.677900  0.931100  1.0
  H  H350  1  0.305600  0.822100  0.931100  1.0
  H  H351  1  0.677900  0.305600  0.931100  1.0
  H  H352  1  0.822100  0.194400  0.931100  1.0
  H  H353  1  0.654400  0.528000  0.445900  1.0
  H  H354  1  0.845600  0.972000  0.445900  1.0
  H  H355  1  0.972000  0.654400  0.445900  1.0
  H  H356  1  0.528000  0.845600  0.445900  1.0
  H  H357  1  0.845600  0.528000  0.054100  1.0
  H  H358  1  0.654400  0.972000  0.054100  1.0
  H  H359  1  0.528000  0.654400  0.054100  1.0
  H  H360  1  0.972000  0.845600  0.054100  1.0
  H  H361  1  0.345600  0.472000  0.554100  1.0
  H  H362  1  0.154400  0.028000  0.554100  1.0
  H  H363  1  0.028000  0.345600  0.554100  1.0
  H  H364  1  0.472000  0.154400  0.554100  1.0
  H  H365  1  0.154400  0.472000  0.945900  1.0
  H  H366  1  0.345600  0.028000  0.945900  1.0
  H  H367  1  0.472000  0.345600  0.945900  1.0
  H  H368  1  0.028000  0.154400  0.945900  1.0
  H  H369  1  0.703300  0.539800  0.466500  1.0
  H  H370  1  0.796700  0.960200  0.466500  1.0
  H  H371  1  0.960200  0.703300  0.466500  1.0
  H  H372  1  0.539800  0.796700  0.466500  1.0
  H  H373  1  0.796700  0.539800  0.033500  1.0
  H  H374  1  0.703300  0.960200  0.033500  1.0
  H  H375  1  0.539800  0.703300  0.033500  1.0
  H  H376  1  0.960200  0.796700  0.033500  1.0
  H  H377  1  0.296700  0.460200  0.533500  1.0
  H  H378  1  0.203300  0.039800  0.533500  1.0
  H  H379  1  0.039800  0.296700  0.533500  1.0
  H  H380  1  0.460200  0.203300  0.533500  1.0
  H  H381  1  0.203300  0.460200  0.966500  1.0
  H  H382  1  0.296700  0.039800  0.966500  1.0
  H  H383  1  0.460200  0.296700  0.966500  1.0
  H  H384  1  0.039800  0.203300  0.966500  1.0
  H  H385  1  0.665000  0.507200  0.487100  1.0
  H  H386  1  0.835000  0.992800  0.487100  1.0
  H  H387  1  0.992800  0.665000  0.487100  1.0
  H  H388  1  0.507200  0.835000  0.487100  1.0
  H  H389  1  0.835000  0.507200  0.012900  1.0
  H  H390  1  0.665000  0.992800  0.012900  1.0
  H  H391  1  0.507200  0.665000  0.012900  1.0
  H  H392  1  0.992800  0.835000  0.012900  1.0
  H  H393  1  0.335000  0.492800  0.512900  1.0
  H  H394  1  0.165000  0.007200  0.512900  1.0
  H  H395  1  0.007200  0.335000  0.512900  1.0
  H  H396  1  0.492800  0.165000  0.512900  1.0
  H  H397  1  0.165000  0.492800  0.987100  1.0
  H  H398  1  0.335000  0.007200  0.987100  1.0
  H  H399  1  0.492800  0.335000  0.987100  1.0
  H  H400  1  0.007200  0.165000  0.987100  1.0
  H  H401  1  0.273500  0.942800  0.509700  1.0
  H  H402  1  0.226500  0.557200  0.509700  1.0
  H  H403  1  0.557200  0.273500  0.509700  1.0
  H  H404  1  0.942800  0.226500  0.509700  1.0
  H  H405  1  0.226500  0.942800  0.990300  1.0
  H  H406  1  0.273500  0.557200  0.990300  1.0
  H  H407  1  0.942800  0.273500  0.990300  1.0
  H  H408  1  0.557200  0.226500  0.990300  1.0
  H  H409  1  0.726500  0.057200  0.490300  1.0
  H  H410  1  0.773500  0.442800  0.490300  1.0
  H  H411  1  0.442800  0.726500  0.490300  1.0
  H  H412  1  0.057200  0.773500  0.490300  1.0
  H  H413  1  0.773500  0.057200  0.009700  1.0
  H  H414  1  0.726500  0.442800  0.009700  1.0
  H  H415  1  0.057200  0.726500  0.009700  1.0
  H  H416  1  0.442800  0.773500  0.009700  1.0
  H  H417  1  0.305500  0.934600  0.569900  1.0
  H  H418  1  0.194500  0.565400  0.569900  1.0
  H  H419  1  0.565400  0.305500  0.569900  1.0
  H  H420  1  0.934600  0.194500  0.569900  1.0
  H  H421  1  0.194500  0.934600  0.930100  1.0
  H  H422  1  0.305500  0.565400  0.930100  1.0
  H  H423  1  0.934600  0.305500  0.930100  1.0
  H  H424  1  0.565400  0.194500  0.930100  1.0
  H  H425  1  0.694500  0.065400  0.430100  1.0
  H  H426  1  0.805500  0.434600  0.430100  1.0
  H  H427  1  0.434600  0.694500  0.430100  1.0
  H  H428  1  0.065400  0.805500  0.430100  1.0
  H  H429  1  0.805500  0.065400  0.069900  1.0
  H  H430  1  0.694500  0.434600  0.069900  1.0
  H  H431  1  0.065400  0.694500  0.069900  1.0
  H  H432  1  0.434600  0.805500  0.069900  1.0
  H  H433  1  0.403900  0.033200  0.546200  1.0
  H  H434  1  0.096100  0.466800  0.546200  1.0
  H  H435  1  0.466800  0.403900  0.546200  1.0
  H  H436  1  0.033200  0.096100  0.546200  1.0
  H  H437  1  0.096100  0.033200  0.953800  1.0
  H  H438  1  0.403900  0.466800  0.953800  1.0
  H  H439  1  0.033200  0.403900  0.953800  1.0
  H  H440  1  0.466800  0.096100  0.953800  1.0
  H  H441  1  0.596100  0.966800  0.453800  1.0
  H  H442  1  0.903900  0.533200  0.453800  1.0
  H  H443  1  0.533200  0.596100  0.453800  1.0
  H  H444  1  0.966800  0.903900  0.453800  1.0
  H  H445  1  0.903900  0.966800  0.046200  1.0
  H  H446  1  0.596100  0.533200  0.046200  1.0
  H  H447  1  0.966800  0.596100  0.046200  1.0
  H  H448  1  0.533200  0.903900  0.046200  1.0
  H  H449  1  0.372400  0.040900  0.485800  1.0
  H  H450  1  0.127600  0.459100  0.485800  1.0
  H  H451  1  0.459100  0.372400  0.485800  1.0
  H  H452  1  0.040900  0.127600  0.485800  1.0
  H  H453  1  0.127600  0.040900  0.014200  1.0
  H  H454  1  0.372400  0.459100  0.014200  1.0
  H  H455  1  0.040900  0.372400  0.014200  1.0
  H  H456  1  0.459100  0.127600  0.014200  1.0
  H  H457  1  0.627600  0.959100  0.514200  1.0
  H  H458  1  0.872400  0.540900  0.514200  1.0
  H  H459  1  0.540900  0.627600  0.514200  1.0
  H  H460  1  0.959100  0.872400  0.514200  1.0
  H  H461  1  0.872400  0.959100  0.985800  1.0
  H  H462  1  0.627600  0.540900  0.985800  1.0
  H  H463  1  0.959100  0.627600  0.985800  1.0
  H  H464  1  0.540900  0.872400  0.985800  1.0
  H  H465  1  0.432900  0.011700  0.600000  1.0
  H  H466  1  0.067100  0.488300  0.600000  1.0
  H  H467  1  0.488300  0.432900  0.600000  1.0
  H  H468  1  0.011700  0.067100  0.600000  1.0
  H  H469  1  0.067100  0.011700  0.900000  1.0
  H  H470  1  0.432900  0.488300  0.900000  1.0
  H  H471  1  0.011700  0.432900  0.900000  1.0
  H  H472  1  0.488300  0.067100  0.900000  1.0
  H  H473  1  0.567100  0.988300  0.400000  1.0
  H  H474  1  0.932900  0.511700  0.400000  1.0
  H  H475  1  0.511700  0.567100  0.400000  1.0
  H  H476  1  0.988300  0.932900  0.400000  1.0
  H  H477  1  0.932900  0.988300  0.100000  1.0
  H  H478  1  0.567100  0.511700  0.100000  1.0
  H  H479  1  0.988300  0.567100  0.100000  1.0
  H  H480  1  0.511700  0.932900  0.100000  1.0
  H  H481  1  0.416600  0.994100  0.641000  1.0
  H  H482  1  0.083400  0.505900  0.641000  1.0
  H  H483  1  0.505900  0.416600  0.641000  1.0
  H  H484  1  0.994100  0.083400  0.641000  1.0
  H  H485  1  0.083400  0.994100  0.859000  1.0
  H  H486  1  0.416600  0.505900  0.859000  1.0
  H  H487  1  0.994100  0.416600  0.859000  1.0
  H  H488  1  0.505900  0.083400  0.859000  1.0
  H  H489  1  0.583400  0.005900  0.359000  1.0
  H  H490  1  0.916600  0.494100  0.359000  1.0
  H  H491  1  0.494100  0.583400  0.359000  1.0
  H  H492  1  0.005900  0.916600  0.359000  1.0
  H  H493  1  0.916600  0.005900  0.141000  1.0
  H  H494  1  0.583400  0.494100  0.141000  1.0
  H  H495  1  0.005900  0.583400  0.141000  1.0
  H  H496  1  0.494100  0.916600  0.141000  1.0
  H  H497  1  0.389800  0.037100  0.621000  1.0
  H  H498  1  0.110200  0.462900  0.621000  1.0
  H  H499  1  0.462900  0.389800  0.621000  1.0
  H  H500  1  0.037100  0.110200  0.621000  1.0
  H  H501  1  0.110200  0.037100  0.879000  1.0
  H  H502  1  0.389800  0.462900  0.879000  1.0
  H  H503  1  0.037100  0.389800  0.879000  1.0
  H  H504  1  0.462900  0.110200  0.879000  1.0
  H  H505  1  0.610200  0.962900  0.379000  1.0
  H  H506  1  0.889800  0.537100  0.379000  1.0
  H  H507  1  0.537100  0.610200  0.379000  1.0
  H  H508  1  0.962900  0.889800  0.379000  1.0
  H  H509  1  0.889800  0.962900  0.121000  1.0
  H  H510  1  0.610200  0.537100  0.121000  1.0
  H  H511  1  0.962900  0.610200  0.121000  1.0
  H  H512  1  0.537100  0.889800  0.121000  1.0
  H  H513  1  0.291600  0.067200  0.463900  1.0
  H  H514  1  0.208400  0.432800  0.463900  1.0
  H  H515  1  0.432800  0.291600  0.463900  1.0
  H  H516  1  0.067200  0.208400  0.463900  1.0
  H  H517  1  0.208400  0.067200  0.036100  1.0
  H  H518  1  0.291600  0.432800  0.036100  1.0
  H  H519  1  0.067200  0.291600  0.036100  1.0
  H  H520  1  0.432800  0.208400  0.036100  1.0
  H  H521  1  0.708400  0.932800  0.536100  1.0
  H  H522  1  0.791600  0.567200  0.536100  1.0
  H  H523  1  0.567200  0.708400  0.536100  1.0
  H  H524  1  0.932800  0.791600  0.536100  1.0
  H  H525  1  0.791600  0.932800  0.963900  1.0
  H  H526  1  0.708400  0.567200  0.963900  1.0
  H  H527  1  0.932800  0.708400  0.963900  1.0
  H  H528  1  0.567200  0.791600  0.963900  1.0
  H  H529  1  0.267900  0.122700  0.407400  1.0
  H  H530  1  0.232100  0.377300  0.407400  1.0
  H  H531  1  0.377300  0.267900  0.407400  1.0
  H  H532  1  0.122700  0.232100  0.407400  1.0
  H  H533  1  0.232100  0.122700  0.092600  1.0
  H  H534  1  0.267900  0.377300  0.092600  1.0
  H  H535  1  0.122700  0.267900  0.092600  1.0
  H  H536  1  0.377300  0.232100  0.092600  1.0
  H  H537  1  0.732100  0.877300  0.592600  1.0
  H  H538  1  0.767900  0.622700  0.592600  1.0
  H  H539  1  0.622700  0.732100  0.592600  1.0
  H  H540  1  0.877300  0.767900  0.592600  1.0
  H  H541  1  0.767900  0.877300  0.907400  1.0
  H  H542  1  0.732100  0.622700  0.907400  1.0
  H  H543  1  0.877300  0.732100  0.907400  1.0
  H  H544  1  0.622700  0.767900  0.907400  1.0
  H  H545  1  0.254100  0.128800  0.341300  1.0
  H  H546  1  0.245900  0.371200  0.341300  1.0
  H  H547  1  0.371200  0.254100  0.341300  1.0
  H  H548  1  0.128800  0.245900  0.341300  1.0
  H  H549  1  0.245900  0.128800  0.158700  1.0
  H  H550  1  0.254100  0.371200  0.158700  1.0
  H  H551  1  0.128800  0.254100  0.158700  1.0
  H  H552  1  0.371200  0.245900  0.158700  1.0
  H  H553  1  0.745900  0.871200  0.658700  1.0
  H  H554  1  0.754100  0.628800  0.658700  1.0
  H  H555  1  0.628800  0.745900  0.658700  1.0
  H  H556  1  0.871200  0.754100  0.658700  1.0
  H  H557  1  0.754100  0.871200  0.841300  1.0
  H  H558  1  0.745900  0.628800  0.841300  1.0
  H  H559  1  0.871200  0.745900  0.841300  1.0
  H  H560  1  0.628800  0.754100  0.841300  1.0
  H  H561  1  0.261700  0.987000  0.335500  1.0
  H  H562  1  0.238300  0.513000  0.335500  1.0
  H  H563  1  0.513000  0.261700  0.335500  1.0
  H  H564  1  0.987000  0.238300  0.335500  1.0
  H  H565  1  0.238300  0.987000  0.164500  1.0
  H  H566  1  0.261700  0.513000  0.164500  1.0
  H  H567  1  0.987000  0.261700  0.164500  1.0
  H  H568  1  0.513000  0.238300  0.164500  1.0
  H  H569  1  0.738300  0.013000  0.664500  1.0
  H  H570  1  0.761700  0.487000  0.664500  1.0
  H  H571  1  0.487000  0.738300  0.664500  1.0
  H  H572  1  0.013000  0.761700  0.664500  1.0
  H  H573  1  0.761700  0.013000  0.835500  1.0
  H  H574  1  0.738300  0.487000  0.835500  1.0
  H  H575  1  0.013000  0.738300  0.835500  1.0
  H  H576  1  0.487000  0.761700  0.835500  1.0
  C  C577  1  0.241600  0.877900  0.362800  1.0
  C  C578  1  0.258400  0.622100  0.362800  1.0
  C  C579  1  0.622100  0.241600  0.362800  1.0
  C  C580  1  0.877900  0.258400  0.362800  1.0
  C  C581  1  0.258400  0.877900  0.137200  1.0
  C  C582  1  0.241600  0.622100  0.137200  1.0
  C  C583  1  0.877900  0.241600  0.137200  1.0
  C  C584  1  0.622100  0.258400  0.137200  1.0
  C  C585  1  0.758400  0.122100  0.637200  1.0
  C  C586  1  0.741600  0.377900  0.637200  1.0
  C  C587  1  0.377900  0.758400  0.637200  1.0
  C  C588  1  0.122100  0.741600  0.637200  1.0
  C  C589  1  0.741600  0.122100  0.862800  1.0
  C  C590  1  0.758400  0.377900  0.862800  1.0
  C  C591  1  0.122100  0.758400  0.862800  1.0
  C  C592  1  0.377900  0.741600  0.862800  1.0
  C  C593  1  0.198800  0.896400  0.351100  1.0
  C  C594  1  0.301200  0.603600  0.351100  1.0
  C  C595  1  0.603600  0.198800  0.351100  1.0
  C  C596  1  0.896400  0.301200  0.351100  1.0
  C  C597  1  0.301200  0.896400  0.148900  1.0
  C  C598  1  0.198800  0.603600  0.148900  1.0
  C  C599  1  0.896400  0.198800  0.148900  1.0
  C  C600  1  0.603600  0.301200  0.148900  1.0
  C  C601  1  0.801200  0.103600  0.648900  1.0
  C  C602  1  0.698800  0.396400  0.648900  1.0
  C  C603  1  0.396400  0.801200  0.648900  1.0
  C  C604  1  0.103600  0.698800  0.648900  1.0
  C  C605  1  0.698800  0.103600  0.851100  1.0
  C  C606  1  0.801200  0.396400  0.851100  1.0
  C  C607  1  0.103600  0.801200  0.851100  1.0
  C  C608  1  0.396400  0.698800  0.851100  1.0
  C  C609  1  0.159900  0.867500  0.345000  1.0
  C  C610  1  0.340100  0.632500  0.345000  1.0
  C  C611  1  0.632500  0.159900  0.345000  1.0
  C  C612  1  0.867500  0.340100  0.345000  1.0
  C  C613  1  0.340100  0.867500  0.155000  1.0
  C  C614  1  0.159900  0.632500  0.155000  1.0
  C  C615  1  0.867500  0.159900  0.155000  1.0
  C  C616  1  0.632500  0.340100  0.155000  1.0
  C  C617  1  0.840100  0.132500  0.655000  1.0
  C  C618  1  0.659900  0.367500  0.655000  1.0
  C  C619  1  0.367500  0.840100  0.655000  1.0
  C  C620  1  0.132500  0.659900  0.655000  1.0
  C  C621  1  0.659900  0.132500  0.845000  1.0
  C  C622  1  0.840100  0.367500  0.845000  1.0
  C  C623  1  0.132500  0.840100  0.845000  1.0
  C  C624  1  0.367500  0.659900  0.845000  1.0
  C  C625  1  0.163200  0.819600  0.351500  1.0
  C  C626  1  0.336800  0.680400  0.351500  1.0
  C  C627  1  0.680400  0.163200  0.351500  1.0
  C  C628  1  0.819600  0.336800  0.351500  1.0
  C  C629  1  0.336800  0.819600  0.148500  1.0
  C  C630  1  0.163200  0.680400  0.148500  1.0
  C  C631  1  0.819600  0.163200  0.148500  1.0
  C  C632  1  0.680400  0.336800  0.148500  1.0
  C  C633  1  0.836800  0.180400  0.648500  1.0
  C  C634  1  0.663200  0.319600  0.648500  1.0
  C  C635  1  0.319600  0.836800  0.648500  1.0
  C  C636  1  0.180400  0.663200  0.648500  1.0
  C  C637  1  0.663200  0.180400  0.851500  1.0
  C  C638  1  0.836800  0.319600  0.851500  1.0
  C  C639  1  0.180400  0.836800  0.851500  1.0
  C  C640  1  0.319600  0.663200  0.851500  1.0
  C  C641  1  0.206000  0.800500  0.363300  1.0
  C  C642  1  0.294000  0.699500  0.363300  1.0
  C  C643  1  0.699500  0.206000  0.363300  1.0
  C  C644  1  0.800500  0.294000  0.363300  1.0
  C  C645  1  0.294000  0.800500  0.136700  1.0
  C  C646  1  0.206000  0.699500  0.136700  1.0
  C  C647  1  0.800500  0.206000  0.136700  1.0
  C  C648  1  0.699500  0.294000  0.136700  1.0
  C  C649  1  0.794000  0.199500  0.636700  1.0
  C  C650  1  0.706000  0.300500  0.636700  1.0
  C  C651  1  0.300500  0.794000  0.636700  1.0
  C  C652  1  0.199500  0.706000  0.636700  1.0
  C  C653  1  0.706000  0.199500  0.863300  1.0
  C  C654  1  0.794000  0.300500  0.863300  1.0
  C  C655  1  0.199500  0.794000  0.863300  1.0
  C  C656  1  0.300500  0.706000  0.863300  1.0
  C  C657  1  0.244800  0.829400  0.368600  1.0
  C  C658  1  0.255200  0.670600  0.368600  1.0
  C  C659  1  0.670600  0.244800  0.368600  1.0
  C  C660  1  0.829400  0.255200  0.368600  1.0
  C  C661  1  0.255200  0.829400  0.131400  1.0
  C  C662  1  0.244800  0.670600  0.131400  1.0
  C  C663  1  0.829400  0.244800  0.131400  1.0
  C  C664  1  0.670600  0.255200  0.131400  1.0
  C  C665  1  0.755200  0.170600  0.631400  1.0
  C  C666  1  0.744800  0.329400  0.631400  1.0
  C  C667  1  0.329400  0.755200  0.631400  1.0
  C  C668  1  0.170600  0.744800  0.631400  1.0
  C  C669  1  0.744800  0.170600  0.868600  1.0
  C  C670  1  0.755200  0.329400  0.868600  1.0
  C  C671  1  0.170600  0.755200  0.868600  1.0
  C  C672  1  0.329400  0.744800  0.868600  1.0
  C  C673  1  0.082600  0.805000  0.332400  1.0
  C  C674  1  0.417400  0.695000  0.332400  1.0
  C  C675  1  0.695000  0.082600  0.332400  1.0
  C  C676  1  0.805000  0.417400  0.332400  1.0
  C  C677  1  0.417400  0.805000  0.167600  1.0
  C  C678  1  0.082600  0.695000  0.167600  1.0
  C  C679  1  0.805000  0.082600  0.167600  1.0
  C  C680  1  0.695000  0.417400  0.167600  1.0
  C  C681  1  0.917400  0.195000  0.667600  1.0
  C  C682  1  0.582600  0.305000  0.667600  1.0
  C  C683  1  0.305000  0.917400  0.667600  1.0
  C  C684  1  0.195000  0.582600  0.667600  1.0
  C  C685  1  0.582600  0.195000  0.832400  1.0
  C  C686  1  0.917400  0.305000  0.832400  1.0
  C  C687  1  0.195000  0.917400  0.832400  1.0
  C  C688  1  0.305000  0.582600  0.832400  1.0
  C  C689  1  0.319400  0.899700  0.351000  1.0
  C  C690  1  0.180600  0.600300  0.351000  1.0
  C  C691  1  0.600300  0.319400  0.351000  1.0
  C  C692  1  0.899700  0.180600  0.351000  1.0
  C  C693  1  0.180600  0.899700  0.149000  1.0
  C  C694  1  0.319400  0.600300  0.149000  1.0
  C  C695  1  0.899700  0.319400  0.149000  1.0
  C  C696  1  0.600300  0.180600  0.149000  1.0
  C  C697  1  0.680600  0.100300  0.649000  1.0
  C  C698  1  0.819400  0.399700  0.649000  1.0
  C  C699  1  0.399700  0.680600  0.649000  1.0
  C  C700  1  0.100300  0.819400  0.649000  1.0
  C  C701  1  0.819400  0.100300  0.851000  1.0
  C  C702  1  0.680600  0.399700  0.851000  1.0
  C  C703  1  0.100300  0.680600  0.851000  1.0
  C  C704  1  0.399700  0.819400  0.851000  1.0
  C  C705  1  0.360600  0.928500  0.361100  1.0
  C  C706  1  0.139400  0.571500  0.361100  1.0
  C  C707  1  0.571500  0.360600  0.361100  1.0
  C  C708  1  0.928500  0.139400  0.361100  1.0
  C  C709  1  0.139400  0.928500  0.138900  1.0
  C  C710  1  0.360600  0.571500  0.138900  1.0
  C  C711  1  0.928500  0.360600  0.138900  1.0
  C  C712  1  0.571500  0.139400  0.138900  1.0
  C  C713  1  0.639400  0.071500  0.638900  1.0
  C  C714  1  0.860600  0.428500  0.638900  1.0
  C  C715  1  0.428500  0.639400  0.638900  1.0
  C  C716  1  0.071500  0.860600  0.638900  1.0
  C  C717  1  0.860600  0.071500  0.861100  1.0
  C  C718  1  0.639400  0.428500  0.861100  1.0
  C  C719  1  0.071500  0.639400  0.861100  1.0
  C  C720  1  0.428500  0.860600  0.861100  1.0
  C  C721  1  0.403000  0.927300  0.341700  1.0
  C  C722  1  0.097000  0.572700  0.341700  1.0
  C  C723  1  0.572700  0.403000  0.341700  1.0
  C  C724  1  0.927300  0.097000  0.341700  1.0
  C  C725  1  0.097000  0.927300  0.158300  1.0
  C  C726  1  0.403000  0.572700  0.158300  1.0
  C  C727  1  0.927300  0.403000  0.158300  1.0
  C  C728  1  0.572700  0.097000  0.158300  1.0
  C  C729  1  0.597000  0.072700  0.658300  1.0
  C  C730  1  0.903000  0.427300  0.658300  1.0
  C  C731  1  0.427300  0.597000  0.658300  1.0
  C  C732  1  0.072700  0.903000  0.658300  1.0
  C  C733  1  0.903000  0.072700  0.841700  1.0
  C  C734  1  0.597000  0.427300  0.841700  1.0
  C  C735  1  0.072700  0.597000  0.841700  1.0
  C  C736  1  0.427300  0.903000  0.841700  1.0
  C  C737  1  0.438600  0.957800  0.352600  1.0
  C  C738  1  0.061400  0.542200  0.352600  1.0
  C  C739  1  0.542200  0.438600  0.352600  1.0
  C  C740  1  0.957800  0.061400  0.352600  1.0
  C  C741  1  0.061400  0.957800  0.147400  1.0
  C  C742  1  0.438600  0.542200  0.147400  1.0
  C  C743  1  0.957800  0.438600  0.147400  1.0
  C  C744  1  0.542200  0.061400  0.147400  1.0
  C  C745  1  0.561400  0.042200  0.647400  1.0
  C  C746  1  0.938600  0.457800  0.647400  1.0
  C  C747  1  0.457800  0.561400  0.647400  1.0
  C  C748  1  0.042200  0.938600  0.647400  1.0
  C  C749  1  0.938600  0.042200  0.852600  1.0
  C  C750  1  0.561400  0.457800  0.852600  1.0
  C  C751  1  0.042200  0.561400  0.852600  1.0
  C  C752  1  0.457800  0.938600  0.852600  1.0
  C  C753  1  0.430000  0.988600  0.382400  1.0
  C  C754  1  0.070000  0.511400  0.382400  1.0
  C  C755  1  0.511400  0.430000  0.382400  1.0
  C  C756  1  0.988600  0.070000  0.382400  1.0
  C  C757  1  0.070000  0.988600  0.117600  1.0
  C  C758  1  0.430000  0.511400  0.117600  1.0
  C  C759  1  0.988600  0.430000  0.117600  1.0
  C  C760  1  0.511400  0.070000  0.117600  1.0
  C  C761  1  0.570000  0.011400  0.617600  1.0
  C  C762  1  0.930000  0.488600  0.617600  1.0
  C  C763  1  0.488600  0.570000  0.617600  1.0
  C  C764  1  0.011400  0.930000  0.617600  1.0
  C  C765  1  0.930000  0.011400  0.882400  1.0
  C  C766  1  0.570000  0.488600  0.882400  1.0
  C  C767  1  0.011400  0.570000  0.882400  1.0
  C  C768  1  0.488600  0.930000  0.882400  1.0
  C  C769  1  0.386500  0.986900  0.400200  1.0
  C  C770  1  0.113500  0.513100  0.400200  1.0
  C  C771  1  0.513100  0.386500  0.400200  1.0
  C  C772  1  0.986900  0.113500  0.400200  1.0
  C  C773  1  0.113500  0.986900  0.099800  1.0
  C  C774  1  0.386500  0.513100  0.099800  1.0
  C  C775  1  0.986900  0.386500  0.099800  1.0
  C  C776  1  0.513100  0.113500  0.099800  1.0
  C  C777  1  0.613500  0.013100  0.599800  1.0
  C  C778  1  0.886500  0.486900  0.599800  1.0
  C  C779  1  0.486900  0.613500  0.599800  1.0
  C  C780  1  0.013100  0.886500  0.599800  1.0
  C  C781  1  0.886500  0.013100  0.900200  1.0
  C  C782  1  0.613500  0.486900  0.900200  1.0
  C  C783  1  0.013100  0.613500  0.900200  1.0
  C  C784  1  0.486900  0.886500  0.900200  1.0
  C  C785  1  0.465000  0.024700  0.394400  1.0
  C  C786  1  0.035000  0.475300  0.394400  1.0
  C  C787  1  0.475300  0.465000  0.394400  1.0
  C  C788  1  0.024700  0.035000  0.394400  1.0
  C  C789  1  0.035000  0.024700  0.105600  1.0
  C  C790  1  0.465000  0.475300  0.105600  1.0
  C  C791  1  0.024700  0.465000  0.105600  1.0
  C  C792  1  0.475300  0.035000  0.105600  1.0
  C  C793  1  0.535000  0.975300  0.605600  1.0
  C  C794  1  0.965000  0.524700  0.605600  1.0
  C  C795  1  0.524700  0.535000  0.605600  1.0
  C  C796  1  0.975300  0.965000  0.605600  1.0
  C  C797  1  0.965000  0.975300  0.894400  1.0
  C  C798  1  0.535000  0.524700  0.894400  1.0
  C  C799  1  0.975300  0.535000  0.894400  1.0
  C  C800  1  0.524700  0.965000  0.894400  1.0
  C  C801  1  0.480000  0.028500  0.431300  1.0
  C  C802  1  0.020000  0.471500  0.431300  1.0
  C  C803  1  0.471500  0.480000  0.431300  1.0
  C  C804  1  0.028500  0.020000  0.431300  1.0
  C  C805  1  0.020000  0.028500  0.068700  1.0
  C  C806  1  0.480000  0.471500  0.068700  1.0
  C  C807  1  0.028500  0.480000  0.068700  1.0
  C  C808  1  0.471500  0.020000  0.068700  1.0
  C  C809  1  0.520000  0.971500  0.568700  1.0
  C  C810  1  0.980000  0.528500  0.568700  1.0
  C  C811  1  0.528500  0.520000  0.568700  1.0
  C  C812  1  0.971500  0.980000  0.568700  1.0
  C  C813  1  0.980000  0.971500  0.931300  1.0
  C  C814  1  0.520000  0.528500  0.931300  1.0
  C  C815  1  0.971500  0.520000  0.931300  1.0
  C  C816  1  0.528500  0.980000  0.931300  1.0
  C  C817  1  0.508900  0.064400  0.443200  1.0
  C  C818  1  0.991100  0.435600  0.443200  1.0
  C  C819  1  0.435600  0.508900  0.443200  1.0
  C  C820  1  0.064400  0.991100  0.443200  1.0
  C  C821  1  0.991100  0.064400  0.056800  1.0
  C  C822  1  0.508900  0.435600  0.056800  1.0
  C  C823  1  0.064400  0.508900  0.056800  1.0
  C  C824  1  0.435600  0.991100  0.056800  1.0
  C  C825  1  0.491100  0.935600  0.556800  1.0
  C  C826  1  0.008900  0.564400  0.556800  1.0
  C  C827  1  0.564400  0.491100  0.556800  1.0
  C  C828  1  0.935600  0.008900  0.556800  1.0
  C  C829  1  0.008900  0.935600  0.943200  1.0
  C  C830  1  0.491100  0.564400  0.943200  1.0
  C  C831  1  0.935600  0.491100  0.943200  1.0
  C  C832  1  0.564400  0.008900  0.943200  1.0
  C  C833  1  0.523500  0.099400  0.418800  1.0
  C  C834  1  0.976500  0.400600  0.418800  1.0
  C  C835  1  0.400600  0.523500  0.418800  1.0
  C  C836  1  0.099400  0.976500  0.418800  1.0
  C  C837  1  0.976500  0.099400  0.081200  1.0
  C  C838  1  0.523500  0.400600  0.081200  1.0
  C  C839  1  0.099400  0.523500  0.081200  1.0
  C  C840  1  0.400600  0.976500  0.081200  1.0
  C  C841  1  0.476500  0.900600  0.581200  1.0
  C  C842  1  0.023500  0.599400  0.581200  1.0
  C  C843  1  0.599400  0.476500  0.581200  1.0
  C  C844  1  0.900600  0.023500  0.581200  1.0
  C  C845  1  0.023500  0.900600  0.918800  1.0
  C  C846  1  0.476500  0.599400  0.918800  1.0
  C  C847  1  0.900600  0.476500  0.918800  1.0
  C  C848  1  0.599400  0.023500  0.918800  1.0
  C  C849  1  0.508300  0.095700  0.381700  1.0
  C  C850  1  0.991700  0.404300  0.381700  1.0
  C  C851  1  0.404300  0.508300  0.381700  1.0
  C  C852  1  0.095700  0.991700  0.381700  1.0
  C  C853  1  0.991700  0.095700  0.118300  1.0
  C  C854  1  0.508300  0.404300  0.118300  1.0
  C  C855  1  0.095700  0.508300  0.118300  1.0
  C  C856  1  0.404300  0.991700  0.118300  1.0
  C  C857  1  0.491700  0.904300  0.618300  1.0
  C  C858  1  0.008300  0.595700  0.618300  1.0
  C  C859  1  0.595700  0.491700  0.618300  1.0
  C  C860  1  0.904300  0.008300  0.618300  1.0
  C  C861  1  0.008300  0.904300  0.881700  1.0
  C  C862  1  0.491700  0.595700  0.881700  1.0
  C  C863  1  0.904300  0.491700  0.881700  1.0
  C  C864  1  0.595700  0.008300  0.881700  1.0
  C  C865  1  0.480000  0.059500  0.369900  1.0
  C  C866  1  0.020000  0.440500  0.369900  1.0
  C  C867  1  0.440500  0.480000  0.369900  1.0
  C  C868  1  0.059500  0.020000  0.369900  1.0
  C  C869  1  0.020000  0.059500  0.130100  1.0
  C  C870  1  0.480000  0.440500  0.130100  1.0
  C  C871  1  0.059500  0.480000  0.130100  1.0
  C  C872  1  0.440500  0.020000  0.130100  1.0
  C  C873  1  0.520000  0.940500  0.630100  1.0
  C  C874  1  0.980000  0.559500  0.630100  1.0
  C  C875  1  0.559500  0.520000  0.630100  1.0
  C  C876  1  0.940500  0.980000  0.630100  1.0
  C  C877  1  0.980000  0.940500  0.869900  1.0
  C  C878  1  0.520000  0.559500  0.869900  1.0
  C  C879  1  0.940500  0.520000  0.869900  1.0
  C  C880  1  0.559500  0.980000  0.869900  1.0
  C  C881  1  0.536200  0.185700  0.423100  1.0
  C  C882  1  0.963800  0.314300  0.423100  1.0
  C  C883  1  0.314300  0.536200  0.423100  1.0
  C  C884  1  0.185700  0.963800  0.423100  1.0
  C  C885  1  0.963800  0.185700  0.076900  1.0
  C  C886  1  0.536200  0.314300  0.076900  1.0
  C  C887  1  0.185700  0.536200  0.076900  1.0
  C  C888  1  0.314300  0.963800  0.076900  1.0
  C  C889  1  0.463800  0.814300  0.576900  1.0
  C  C890  1  0.036200  0.685700  0.576900  1.0
  C  C891  1  0.685700  0.463800  0.576900  1.0
  C  C892  1  0.814300  0.036200  0.576900  1.0
  C  C893  1  0.036200  0.814300  0.923100  1.0
  C  C894  1  0.463800  0.685700  0.923100  1.0
  C  C895  1  0.814300  0.463800  0.923100  1.0
  C  C896  1  0.685700  0.036200  0.923100  1.0
  C  C897  1  0.552000  0.140300  0.431500  1.0
  C  C898  1  0.948000  0.359700  0.431500  1.0
  C  C899  1  0.359700  0.552000  0.431500  1.0
  C  C900  1  0.140300  0.948000  0.431500  1.0
  C  C901  1  0.948000  0.140300  0.068500  1.0
  C  C902  1  0.552000  0.359700  0.068500  1.0
  C  C903  1  0.140300  0.552000  0.068500  1.0
  C  C904  1  0.359700  0.948000  0.068500  1.0
  C  C905  1  0.448000  0.859700  0.568500  1.0
  C  C906  1  0.052000  0.640300  0.568500  1.0
  C  C907  1  0.640300  0.448000  0.568500  1.0
  C  C908  1  0.859700  0.052000  0.568500  1.0
  C  C909  1  0.052000  0.859700  0.931500  1.0
  C  C910  1  0.448000  0.640300  0.931500  1.0
  C  C911  1  0.859700  0.448000  0.931500  1.0
  C  C912  1  0.640300  0.052000  0.931500  1.0
  C  C913  1  0.594500  0.136100  0.450800  1.0
  C  C914  1  0.905500  0.363900  0.450800  1.0
  C  C915  1  0.363900  0.594500  0.450800  1.0
  C  C916  1  0.136100  0.905500  0.450800  1.0
  C  C917  1  0.905500  0.136100  0.049200  1.0
  C  C918  1  0.594500  0.363900  0.049200  1.0
  C  C919  1  0.136100  0.594500  0.049200  1.0
  C  C920  1  0.363900  0.905500  0.049200  1.0
  C  C921  1  0.405500  0.863900  0.549200  1.0
  C  C922  1  0.094500  0.636100  0.549200  1.0
  C  C923  1  0.636100  0.405500  0.549200  1.0
  C  C924  1  0.863900  0.094500  0.549200  1.0
  C  C925  1  0.094500  0.863900  0.950800  1.0
  C  C926  1  0.405500  0.636100  0.950800  1.0
  C  C927  1  0.863900  0.405500  0.950800  1.0
  C  C928  1  0.636100  0.094500  0.950800  1.0
  C  C929  1  0.619100  0.176700  0.460400  1.0
  C  C930  1  0.880900  0.323300  0.460400  1.0
  C  C931  1  0.323300  0.619100  0.460400  1.0
  C  C932  1  0.176700  0.880900  0.460400  1.0
  C  C933  1  0.880900  0.176700  0.039600  1.0
  C  C934  1  0.619100  0.323300  0.039600  1.0
  C  C935  1  0.176700  0.619100  0.039600  1.0
  C  C936  1  0.323300  0.880900  0.039600  1.0
  C  C937  1  0.380900  0.823300  0.539600  1.0
  C  C938  1  0.119100  0.676700  0.539600  1.0
  C  C939  1  0.676700  0.380900  0.539600  1.0
  C  C940  1  0.823300  0.119100  0.539600  1.0
  C  C941  1  0.119100  0.823300  0.960400  1.0
  C  C942  1  0.380900  0.676700  0.960400  1.0
  C  C943  1  0.823300  0.380900  0.960400  1.0
  C  C944  1  0.676700  0.119100  0.960400  1.0
  C  C945  1  0.601300  0.220000  0.450000  1.0
  C  C946  1  0.898700  0.280000  0.450000  1.0
  C  C947  1  0.280000  0.601300  0.450000  1.0
  C  C948  1  0.220000  0.898700  0.450000  1.0
  C  C949  1  0.898700  0.220000  0.050000  1.0
  C  C950  1  0.601300  0.280000  0.050000  1.0
  C  C951  1  0.220000  0.601300  0.050000  1.0
  C  C952  1  0.280000  0.898700  0.050000  1.0
  C  C953  1  0.398700  0.780000  0.550000  1.0
  C  C954  1  0.101300  0.720000  0.550000  1.0
  C  C955  1  0.720000  0.398700  0.550000  1.0
  C  C956  1  0.780000  0.101300  0.550000  1.0
  C  C957  1  0.101300  0.780000  0.950000  1.0
  C  C958  1  0.398700  0.720000  0.950000  1.0
  C  C959  1  0.780000  0.398700  0.950000  1.0
  C  C960  1  0.720000  0.101300  0.950000  1.0
  C  C961  1  0.625700  0.265000  0.456100  1.0
  C  C962  1  0.874300  0.235000  0.456100  1.0
  C  C963  1  0.235000  0.625700  0.456100  1.0
  C  C964  1  0.265000  0.874300  0.456100  1.0
  C  C965  1  0.874300  0.265000  0.043900  1.0
  C  C966  1  0.625700  0.235000  0.043900  1.0
  C  C967  1  0.265000  0.625700  0.043900  1.0
  C  C968  1  0.235000  0.874300  0.043900  1.0
  C  C969  1  0.374300  0.735000  0.543900  1.0
  C  C970  1  0.125700  0.765000  0.543900  1.0
  C  C971  1  0.765000  0.374300  0.543900  1.0
  C  C972  1  0.735000  0.125700  0.543900  1.0
  C  C973  1  0.125700  0.735000  0.956100  1.0
  C  C974  1  0.374300  0.765000  0.956100  1.0
  C  C975  1  0.735000  0.374300  0.956100  1.0
  C  C976  1  0.765000  0.125700  0.956100  1.0
  C  C977  1  0.629100  0.346700  0.445400  1.0
  C  C978  1  0.870900  0.153300  0.445400  1.0
  C  C979  1  0.153300  0.629100  0.445400  1.0
  C  C980  1  0.346700  0.870900  0.445400  1.0
  C  C981  1  0.870900  0.346700  0.054600  1.0
  C  C982  1  0.629100  0.153300  0.054600  1.0
  C  C983  1  0.346700  0.629100  0.054600  1.0
  C  C984  1  0.153300  0.870900  0.054600  1.0
  C  C985  1  0.370900  0.653300  0.554600  1.0
  C  C986  1  0.129100  0.846700  0.554600  1.0
  C  C987  1  0.846700  0.370900  0.554600  1.0
  C  C988  1  0.653300  0.129100  0.554600  1.0
  C  C989  1  0.129100  0.653300  0.945400  1.0
  C  C990  1  0.370900  0.846700  0.945400  1.0
  C  C991  1  0.653300  0.370900  0.945400  1.0
  C  C992  1  0.846700  0.129100  0.945400  1.0
  C  C993  1  0.604200  0.387400  0.454900  1.0
  C  C994  1  0.895800  0.112600  0.454900  1.0
  C  C995  1  0.112600  0.604200  0.454900  1.0
  C  C996  1  0.387400  0.895800  0.454900  1.0
  C  C997  1  0.895800  0.387400  0.045100  1.0
  C  C998  1  0.604200  0.112600  0.045100  1.0
  C  C999  1  0.387400  0.604200  0.045100  1.0
  C  C1000  1  0.112600  0.895800  0.045100  1.0
  C  C1001  1  0.395800  0.612600  0.545100  1.0
  C  C1002  1  0.104200  0.887400  0.545100  1.0
  C  C1003  1  0.887400  0.395800  0.545100  1.0
  C  C1004  1  0.612600  0.104200  0.545100  1.0
  C  C1005  1  0.104200  0.612600  0.954900  1.0
  C  C1006  1  0.395800  0.887400  0.954900  1.0
  C  C1007  1  0.612600  0.395800  0.954900  1.0
  C  C1008  1  0.887400  0.104200  0.954900  1.0
  C  C1009  1  0.626600  0.430800  0.455500  1.0
  C  C1010  1  0.873400  0.069200  0.455500  1.0
  C  C1011  1  0.069200  0.626600  0.455500  1.0
  C  C1012  1  0.430800  0.873400  0.455500  1.0
  C  C1013  1  0.873400  0.430800  0.044500  1.0
  C  C1014  1  0.626600  0.069200  0.044500  1.0
  C  C1015  1  0.430800  0.626600  0.044500  1.0
  C  C1016  1  0.069200  0.873400  0.044500  1.0
  C  C1017  1  0.373400  0.569200  0.544500  1.0
  C  C1018  1  0.126600  0.930800  0.544500  1.0
  C  C1019  1  0.930800  0.373400  0.544500  1.0
  C  C1020  1  0.569200  0.126600  0.544500  1.0
  C  C1021  1  0.126600  0.569200  0.955500  1.0
  C  C1022  1  0.373400  0.930800  0.955500  1.0
  C  C1023  1  0.569200  0.373400  0.955500  1.0
  C  C1024  1  0.930800  0.126600  0.955500  1.0
  C  C1025  1  0.674200  0.433800  0.446200  1.0
  C  C1026  1  0.825800  0.066200  0.446200  1.0
  C  C1027  1  0.066200  0.674200  0.446200  1.0
  C  C1028  1  0.433800  0.825800  0.446200  1.0
  C  C1029  1  0.825800  0.433800  0.053800  1.0
  C  C1030  1  0.674200  0.066200  0.053800  1.0
  C  C1031  1  0.433800  0.674200  0.053800  1.0
  C  C1032  1  0.066200  0.825800  0.053800  1.0
  C  C1033  1  0.325800  0.566200  0.553800  1.0
  C  C1034  1  0.174200  0.933800  0.553800  1.0
  C  C1035  1  0.933800  0.325800  0.553800  1.0
  C  C1036  1  0.566200  0.174200  0.553800  1.0
  C  C1037  1  0.174200  0.566200  0.946200  1.0
  C  C1038  1  0.325800  0.933800  0.946200  1.0
  C  C1039  1  0.566200  0.325800  0.946200  1.0
  C  C1040  1  0.933800  0.174200  0.946200  1.0
  C  C1041  1  0.699100  0.393300  0.437500  1.0
  C  C1042  1  0.800900  0.106700  0.437500  1.0
  C  C1043  1  0.106700  0.699100  0.437500  1.0
  C  C1044  1  0.393300  0.800900  0.437500  1.0
  C  C1045  1  0.800900  0.393300  0.062500  1.0
  C  C1046  1  0.699100  0.106700  0.062500  1.0
  C  C1047  1  0.393300  0.699100  0.062500  1.0
  C  C1048  1  0.106700  0.800900  0.062500  1.0
  C  C1049  1  0.300900  0.606700  0.562500  1.0
  C  C1050  1  0.199100  0.893300  0.562500  1.0
  C  C1051  1  0.893300  0.300900  0.562500  1.0
  C  C1052  1  0.606700  0.199100  0.562500  1.0
  C  C1053  1  0.199100  0.606700  0.937500  1.0
  C  C1054  1  0.300900  0.893300  0.937500  1.0
  C  C1055  1  0.606700  0.300900  0.937500  1.0
  C  C1056  1  0.893300  0.199100  0.937500  1.0
  C  C1057  1  0.677000  0.349800  0.437000  1.0
  C  C1058  1  0.823000  0.150200  0.437000  1.0
  C  C1059  1  0.150200  0.677000  0.437000  1.0
  C  C1060  1  0.349800  0.823000  0.437000  1.0
  C  C1061  1  0.823000  0.349800  0.063000  1.0
  C  C1062  1  0.677000  0.150200  0.063000  1.0
  C  C1063  1  0.349800  0.677000  0.063000  1.0
  C  C1064  1  0.150200  0.823000  0.063000  1.0
  C  C1065  1  0.323000  0.650200  0.563000  1.0
  C  C1066  1  0.177000  0.849800  0.563000  1.0
  C  C1067  1  0.849800  0.323000  0.563000  1.0
  C  C1068  1  0.650200  0.177000  0.563000  1.0
  C  C1069  1  0.177000  0.650200  0.937000  1.0
  C  C1070  1  0.323000  0.849800  0.937000  1.0
  C  C1071  1  0.650200  0.323000  0.937000  1.0
  C  C1072  1  0.849800  0.177000  0.937000  1.0
  C  C1073  1  0.679000  0.515700  0.462700  1.0
  C  C1074  1  0.821000  0.984300  0.462700  1.0
  C  C1075  1  0.984300  0.679000  0.462700  1.0
  C  C1076  1  0.515700  0.821000  0.462700  1.0
  C  C1077  1  0.821000  0.515700  0.037300  1.0
  C  C1078  1  0.679000  0.984300  0.037300  1.0
  C  C1079  1  0.515700  0.679000  0.037300  1.0
  C  C1080  1  0.984300  0.821000  0.037300  1.0
  C  C1081  1  0.321000  0.484300  0.537300  1.0
  C  C1082  1  0.179000  0.015700  0.537300  1.0
  C  C1083  1  0.015700  0.321000  0.537300  1.0
  C  C1084  1  0.484300  0.179000  0.537300  1.0
  C  C1085  1  0.179000  0.484300  0.962700  1.0
  C  C1086  1  0.321000  0.015700  0.962700  1.0
  C  C1087  1  0.484300  0.321000  0.962700  1.0
  C  C1088  1  0.015700  0.179000  0.962700  1.0
  C  C1089  1  0.320000  0.992700  0.491700  1.0
  C  C1090  1  0.180000  0.507300  0.491700  1.0
  C  C1091  1  0.507300  0.320000  0.491700  1.0
  C  C1092  1  0.992700  0.180000  0.491700  1.0
  C  C1093  1  0.180000  0.992700  0.008300  1.0
  C  C1094  1  0.320000  0.507300  0.008300  1.0
  C  C1095  1  0.992700  0.320000  0.008300  1.0
  C  C1096  1  0.507300  0.180000  0.008300  1.0
  C  C1097  1  0.680000  0.007300  0.508300  1.0
  C  C1098  1  0.820000  0.492700  0.508300  1.0
  C  C1099  1  0.492700  0.680000  0.508300  1.0
  C  C1100  1  0.007300  0.820000  0.508300  1.0
  C  C1101  1  0.820000  0.007300  0.991700  1.0
  C  C1102  1  0.680000  0.492700  0.991700  1.0
  C  C1103  1  0.007300  0.680000  0.991700  1.0
  C  C1104  1  0.492700  0.820000  0.991700  1.0
  C  C1105  1  0.300100  0.961100  0.517000  1.0
  C  C1106  1  0.199900  0.538900  0.517000  1.0
  C  C1107  1  0.538900  0.300100  0.517000  1.0
  C  C1108  1  0.961100  0.199900  0.517000  1.0
  C  C1109  1  0.199900  0.961100  0.983000  1.0
  C  C1110  1  0.300100  0.538900  0.983000  1.0
  C  C1111  1  0.961100  0.300100  0.983000  1.0
  C  C1112  1  0.538900  0.199900  0.983000  1.0
  C  C1113  1  0.699900  0.038900  0.483000  1.0
  C  C1114  1  0.800100  0.461100  0.483000  1.0
  C  C1115  1  0.461100  0.699900  0.483000  1.0
  C  C1116  1  0.038900  0.800100  0.483000  1.0
  C  C1117  1  0.800100  0.038900  0.017000  1.0
  C  C1118  1  0.699900  0.461100  0.017000  1.0
  C  C1119  1  0.038900  0.699900  0.017000  1.0
  C  C1120  1  0.461100  0.800100  0.017000  1.0
  C  C1121  1  0.319100  0.956400  0.552800  1.0
  C  C1122  1  0.180900  0.543600  0.552800  1.0
  C  C1123  1  0.543600  0.319100  0.552800  1.0
  C  C1124  1  0.956400  0.180900  0.552800  1.0
  C  C1125  1  0.180900  0.956400  0.947200  1.0
  C  C1126  1  0.319100  0.543600  0.947200  1.0
  C  C1127  1  0.956400  0.319100  0.947200  1.0
  C  C1128  1  0.543600  0.180900  0.947200  1.0
  C  C1129  1  0.680900  0.043600  0.447200  1.0
  C  C1130  1  0.819100  0.456400  0.447200  1.0
  C  C1131  1  0.456400  0.680900  0.447200  1.0
  C  C1132  1  0.043600  0.819100  0.447200  1.0
  C  C1133  1  0.819100  0.043600  0.052800  1.0
  C  C1134  1  0.680900  0.456400  0.052800  1.0
  C  C1135  1  0.043600  0.680900  0.052800  1.0
  C  C1136  1  0.456400  0.819100  0.052800  1.0
  C  C1137  1  0.357500  0.982800  0.564100  1.0
  C  C1138  1  0.142500  0.517200  0.564100  1.0
  C  C1139  1  0.517200  0.357500  0.564100  1.0
  C  C1140  1  0.982800  0.142500  0.564100  1.0
  C  C1141  1  0.142500  0.982800  0.935900  1.0
  C  C1142  1  0.357500  0.517200  0.935900  1.0
  C  C1143  1  0.982800  0.357500  0.935900  1.0
  C  C1144  1  0.517200  0.142500  0.935900  1.0
  C  C1145  1  0.642500  0.017200  0.435900  1.0
  C  C1146  1  0.857500  0.482800  0.435900  1.0
  C  C1147  1  0.482800  0.642500  0.435900  1.0
  C  C1148  1  0.017200  0.857500  0.435900  1.0
  C  C1149  1  0.857500  0.017200  0.064100  1.0
  C  C1150  1  0.642500  0.482800  0.064100  1.0
  C  C1151  1  0.017200  0.642500  0.064100  1.0
  C  C1152  1  0.482800  0.857500  0.064100  1.0
  C  C1153  1  0.377400  0.014700  0.538900  1.0
  C  C1154  1  0.122600  0.485300  0.538900  1.0
  C  C1155  1  0.485300  0.377400  0.538900  1.0
  C  C1156  1  0.014700  0.122600  0.538900  1.0
  C  C1157  1  0.122600  0.014700  0.961100  1.0
  C  C1158  1  0.377400  0.485300  0.961100  1.0
  C  C1159  1  0.014700  0.377400  0.961100  1.0
  C  C1160  1  0.485300  0.122600  0.961100  1.0
  C  C1161  1  0.622600  0.985300  0.461100  1.0
  C  C1162  1  0.877400  0.514700  0.461100  1.0
  C  C1163  1  0.514700  0.622600  0.461100  1.0
  C  C1164  1  0.985300  0.877400  0.461100  1.0
  C  C1165  1  0.877400  0.985300  0.038900  1.0
  C  C1166  1  0.622600  0.514700  0.038900  1.0
  C  C1167  1  0.985300  0.622600  0.038900  1.0
  C  C1168  1  0.514700  0.877400  0.038900  1.0
  C  C1169  1  0.358600  0.019100  0.503100  1.0
  C  C1170  1  0.141400  0.480900  0.503100  1.0
  C  C1171  1  0.480900  0.358600  0.503100  1.0
  C  C1172  1  0.019100  0.141400  0.503100  1.0
  C  C1173  1  0.141400  0.019100  0.996900  1.0
  C  C1174  1  0.358600  0.480900  0.996900  1.0
  C  C1175  1  0.019100  0.358600  0.996900  1.0
  C  C1176  1  0.480900  0.141400  0.996900  1.0
  C  C1177  1  0.641400  0.980900  0.496900  1.0
  C  C1178  1  0.858600  0.519100  0.496900  1.0
  C  C1179  1  0.519100  0.641400  0.496900  1.0
  C  C1180  1  0.980900  0.858600  0.496900  1.0
  C  C1181  1  0.858600  0.980900  0.003100  1.0
  C  C1182  1  0.641400  0.519100  0.003100  1.0
  C  C1183  1  0.980900  0.641400  0.003100  1.0
  C  C1184  1  0.519100  0.858600  0.003100  1.0
  C  C1185  1  0.405800  0.006900  0.616800  1.0
  C  C1186  1  0.094200  0.493100  0.616800  1.0
  C  C1187  1  0.493100  0.405800  0.616800  1.0
  C  C1188  1  0.006900  0.094200  0.616800  1.0
  C  C1189  1  0.094200  0.006900  0.883200  1.0
  C  C1190  1  0.405800  0.493100  0.883200  1.0
  C  C1191  1  0.006900  0.405800  0.883200  1.0
  C  C1192  1  0.493100  0.094200  0.883200  1.0
  C  C1193  1  0.594200  0.993100  0.383200  1.0
  C  C1194  1  0.905800  0.506900  0.383200  1.0
  C  C1195  1  0.506900  0.594200  0.383200  1.0
  C  C1196  1  0.993100  0.905800  0.383200  1.0
  C  C1197  1  0.905800  0.993100  0.116800  1.0
  C  C1198  1  0.594200  0.506900  0.116800  1.0
  C  C1199  1  0.993100  0.594200  0.116800  1.0
  C  C1200  1  0.506900  0.905800  0.116800  1.0
  C  C1201  1  0.289900  0.042300  0.445900  1.0
  C  C1202  1  0.210100  0.457700  0.445900  1.0
  C  C1203  1  0.457700  0.289900  0.445900  1.0
  C  C1204  1  0.042300  0.210100  0.445900  1.0
  C  C1205  1  0.210100  0.042300  0.054100  1.0
  C  C1206  1  0.289900  0.457700  0.054100  1.0
  C  C1207  1  0.042300  0.289900  0.054100  1.0
  C  C1208  1  0.457700  0.210100  0.054100  1.0
  C  C1209  1  0.710100  0.957700  0.554100  1.0
  C  C1210  1  0.789900  0.542300  0.554100  1.0
  C  C1211  1  0.542300  0.710100  0.554100  1.0
  C  C1212  1  0.957700  0.789900  0.554100  1.0
  C  C1213  1  0.789900  0.957700  0.945900  1.0
  C  C1214  1  0.710100  0.542300  0.945900  1.0
  C  C1215  1  0.957700  0.710100  0.945900  1.0
  C  C1216  1  0.542300  0.789900  0.945900  1.0
  C  C1217  1  0.275700  0.051000  0.406900  1.0
  C  C1218  1  0.224300  0.449000  0.406900  1.0
  C  C1219  1  0.449000  0.275700  0.406900  1.0
  C  C1220  1  0.051000  0.224300  0.406900  1.0
  C  C1221  1  0.224300  0.051000  0.093100  1.0
  C  C1222  1  0.275700  0.449000  0.093100  1.0
  C  C1223  1  0.051000  0.275700  0.093100  1.0
  C  C1224  1  0.449000  0.224300  0.093100  1.0
  C  C1225  1  0.724300  0.949000  0.593100  1.0
  C  C1226  1  0.775700  0.551000  0.593100  1.0
  C  C1227  1  0.551000  0.724300  0.593100  1.0
  C  C1228  1  0.949000  0.775700  0.593100  1.0
  C  C1229  1  0.775700  0.949000  0.906900  1.0
  C  C1230  1  0.724300  0.551000  0.906900  1.0
  C  C1231  1  0.949000  0.724300  0.906900  1.0
  C  C1232  1  0.551000  0.775700  0.906900  1.0
  C  C1233  1  0.267800  0.095400  0.391800  1.0
  C  C1234  1  0.232200  0.404600  0.391800  1.0
  C  C1235  1  0.404600  0.267800  0.391800  1.0
  C  C1236  1  0.095400  0.232200  0.391800  1.0
  C  C1237  1  0.232200  0.095400  0.108200  1.0
  C  C1238  1  0.267800  0.404600  0.108200  1.0
  C  C1239  1  0.095400  0.267800  0.108200  1.0
  C  C1240  1  0.404600  0.232200  0.108200  1.0
  C  C1241  1  0.732200  0.904600  0.608200  1.0
  C  C1242  1  0.767800  0.595400  0.608200  1.0
  C  C1243  1  0.595400  0.732200  0.608200  1.0
  C  C1244  1  0.904600  0.767800  0.608200  1.0
  C  C1245  1  0.767800  0.904600  0.891800  1.0
  C  C1246  1  0.732200  0.595400  0.891800  1.0
  C  C1247  1  0.904600  0.732200  0.891800  1.0
  C  C1248  1  0.595400  0.767800  0.891800  1.0
  C  C1249  1  0.259700  0.098900  0.352670  1.0
  C  C1250  1  0.240300  0.401100  0.352670  1.0
  C  C1251  1  0.401100  0.259700  0.352670  1.0
  C  C1252  1  0.098900  0.240300  0.352670  1.0
  C  C1253  1  0.240300  0.098900  0.147330  1.0
  C  C1254  1  0.259700  0.401100  0.147330  1.0
  C  C1255  1  0.098900  0.259700  0.147330  1.0
  C  C1256  1  0.401100  0.240300  0.147330  1.0
  C  C1257  1  0.740300  0.901100  0.647330  1.0
  C  C1258  1  0.759700  0.598900  0.647330  1.0
  C  C1259  1  0.598900  0.740300  0.647330  1.0
  C  C1260  1  0.901100  0.759700  0.647330  1.0
  C  C1261  1  0.759700  0.901100  0.852670  1.0
  C  C1262  1  0.740300  0.598900  0.852670  1.0
  C  C1263  1  0.901100  0.740300  0.852670  1.0
  C  C1264  1  0.598900  0.759700  0.852670  1.0
  C  C1265  1  0.259800  0.059300  0.331390  1.0
  C  C1266  1  0.240200  0.440700  0.331390  1.0
  C  C1267  1  0.440700  0.259800  0.331390  1.0
  C  C1268  1  0.059300  0.240200  0.331390  1.0
  C  C1269  1  0.240200  0.059300  0.168610  1.0
  C  C1270  1  0.259800  0.440700  0.168610  1.0
  C  C1271  1  0.059300  0.259800  0.168610  1.0
  C  C1272  1  0.440700  0.240200  0.168610  1.0
  C  C1273  1  0.740200  0.940700  0.668610  1.0
  C  C1274  1  0.759800  0.559300  0.668610  1.0
  C  C1275  1  0.559300  0.740200  0.668610  1.0
  C  C1276  1  0.940700  0.759800  0.668610  1.0
  C  C1277  1  0.759800  0.940700  0.831390  1.0
  C  C1278  1  0.740200  0.559300  0.831390  1.0
  C  C1279  1  0.940700  0.740200  0.831390  1.0
  C  C1280  1  0.559300  0.759800  0.831390  1.0
  C  C1281  1  0.264700  0.015000  0.350100  1.0
  C  C1282  1  0.235300  0.485000  0.350100  1.0
  C  C1283  1  0.485000  0.264700  0.350100  1.0
  C  C1284  1  0.015000  0.235300  0.350100  1.0
  C  C1285  1  0.235300  0.015000  0.149900  1.0
  C  C1286  1  0.264700  0.485000  0.149900  1.0
  C  C1287  1  0.015000  0.264700  0.149900  1.0
  C  C1288  1  0.485000  0.235300  0.149900  1.0
  C  C1289  1  0.735300  0.985000  0.649900  1.0
  C  C1290  1  0.764700  0.515000  0.649900  1.0
  C  C1291  1  0.515000  0.735300  0.649900  1.0
  C  C1292  1  0.985000  0.764700  0.649900  1.0
  C  C1293  1  0.764700  0.985000  0.850100  1.0
  C  C1294  1  0.735300  0.515000  0.850100  1.0
  C  C1295  1  0.985000  0.735300  0.850100  1.0
  C  C1296  1  0.515000  0.764700  0.850100  1.0
  C  C1297  1  0.254000  0.059100  0.289260  1.0
  C  C1298  1  0.246000  0.440900  0.289260  1.0
  C  C1299  1  0.440900  0.254000  0.289260  1.0
  C  C1300  1  0.059100  0.246000  0.289260  1.0
  C  C1301  1  0.246000  0.059100  0.210740  1.0
  C  C1302  1  0.254000  0.440900  0.210740  1.0
  C  C1303  1  0.059100  0.254000  0.210740  1.0
  C  C1304  1  0.440900  0.246000  0.210740  1.0
  C  C1305  1  0.746000  0.940900  0.710740  1.0
  C  C1306  1  0.754000  0.559100  0.710740  1.0
  C  C1307  1  0.559100  0.746000  0.710740  1.0
  C  C1308  1  0.940900  0.754000  0.710740  1.0
  C  C1309  1  0.754000  0.940900  0.789260  1.0
  C  C1310  1  0.746000  0.559100  0.789260  1.0
  C  C1311  1  0.940900  0.746000  0.789260  1.0
  C  C1312  1  0.559100  0.754000  0.789260  1.0
  C  C1313  1  0.218900  0.032300  0.272210  1.0
  C  C1314  1  0.281100  0.467700  0.272210  1.0
  C  C1315  1  0.467700  0.218900  0.272210  1.0
  C  C1316  1  0.032300  0.281100  0.272210  1.0
  C  C1317  1  0.281100  0.032300  0.227790  1.0
  C  C1318  1  0.218900  0.467700  0.227790  1.0
  C  C1319  1  0.032300  0.218900  0.227790  1.0
  C  C1320  1  0.467700  0.281100  0.227790  1.0
  C  C1321  1  0.781100  0.967700  0.727790  1.0
  C  C1322  1  0.718900  0.532300  0.727790  1.0
  C  C1323  1  0.532300  0.781100  0.727790  1.0
  C  C1324  1  0.967700  0.718900  0.727790  1.0
  C  C1325  1  0.718900  0.967700  0.772210  1.0
  C  C1326  1  0.781100  0.532300  0.772210  1.0
  C  C1327  1  0.967700  0.781100  0.772210  1.0
  C  C1328  1  0.532300  0.718900  0.772210  1.0
  C  C1329  1  0.214200  0.032300  0.233110  1.0
  C  C1330  1  0.285800  0.467700  0.233110  1.0
  C  C1331  1  0.467700  0.214200  0.233110  1.0
  C  C1332  1  0.032300  0.285800  0.233110  1.0
  C  C1333  1  0.285800  0.032300  0.266890  1.0
  C  C1334  1  0.214200  0.467700  0.266890  1.0
  C  C1335  1  0.032300  0.214200  0.266890  1.0
  C  C1336  1  0.467700  0.285800  0.266890  1.0
  C  C1337  1  0.785800  0.967700  0.766890  1.0
  C  C1338  1  0.714200  0.532300  0.766890  1.0
  C  C1339  1  0.532300  0.785800  0.766890  1.0
  C  C1340  1  0.967700  0.714200  0.766890  1.0
  C  C1341  1  0.714200  0.967700  0.733110  1.0
  C  C1342  1  0.785800  0.532300  0.733110  1.0
  C  C1343  1  0.967700  0.785800  0.733110  1.0
  C  C1344  1  0.532300  0.714200  0.733110  1.0
  C  C1345  1  0.279800  0.086000  0.228110  1.0
  C  C1346  1  0.220200  0.414000  0.228110  1.0
  C  C1347  1  0.414000  0.279800  0.228110  1.0
  C  C1348  1  0.086000  0.220200  0.228110  1.0
  C  C1349  1  0.220200  0.086000  0.271890  1.0
  C  C1350  1  0.279800  0.414000  0.271890  1.0
  C  C1351  1  0.086000  0.279800  0.271890  1.0
  C  C1352  1  0.414000  0.220200  0.271890  1.0
  C  C1353  1  0.720200  0.914000  0.771890  1.0
  C  C1354  1  0.779800  0.586000  0.771890  1.0
  C  C1355  1  0.586000  0.720200  0.771890  1.0
  C  C1356  1  0.914000  0.779800  0.771890  1.0
  C  C1357  1  0.779800  0.914000  0.728110  1.0
  C  C1358  1  0.720200  0.586000  0.728110  1.0
  C  C1359  1  0.914000  0.720200  0.728110  1.0
  C  C1360  1  0.586000  0.779800  0.728110  1.0
  C  C1361  1  0.284500  0.086000  0.267210  1.0
  C  C1362  1  0.215500  0.414000  0.267210  1.0
  C  C1363  1  0.414000  0.284500  0.267210  1.0
  C  C1364  1  0.086000  0.215500  0.267210  1.0
  C  C1365  1  0.215500  0.086000  0.232790  1.0
  C  C1366  1  0.284500  0.414000  0.232790  1.0
  C  C1367  1  0.086000  0.284500  0.232790  1.0
  C  C1368  1  0.414000  0.215500  0.232790  1.0
  C  C1369  1  0.715500  0.914000  0.732790  1.0
  C  C1370  1  0.784500  0.586000  0.732790  1.0
  C  C1371  1  0.586000  0.715500  0.732790  1.0
  C  C1372  1  0.914000  0.784500  0.732790  1.0
  C  C1373  1  0.784500  0.914000  0.767210  1.0
  C  C1374  1  0.715500  0.586000  0.767210  1.0
  C  C1375  1  0.914000  0.715500  0.767210  1.0
  C  C1376  1  0.586000  0.784500  0.767210  1.0
  N  N1377  1  0.281500  0.907200  0.370000  1.0
  N  N1378  1  0.218500  0.592800  0.370000  1.0
  N  N1379  1  0.592800  0.281500  0.370000  1.0
  N  N1380  1  0.907200  0.218500  0.370000  1.0
  N  N1381  1  0.218500  0.907200  0.130000  1.0
  N  N1382  1  0.281500  0.592800  0.130000  1.0
  N  N1383  1  0.907200  0.281500  0.130000  1.0
  N  N1384  1  0.592800  0.218500  0.130000  1.0
  N  N1385  1  0.718500  0.092800  0.630000  1.0
  N  N1386  1  0.781500  0.407200  0.630000  1.0
  N  N1387  1  0.407200  0.718500  0.630000  1.0
  N  N1388  1  0.092800  0.781500  0.630000  1.0
  N  N1389  1  0.781500  0.092800  0.870000  1.0
  N  N1390  1  0.718500  0.407200  0.870000  1.0
  N  N1391  1  0.092800  0.718500  0.870000  1.0
  N  N1392  1  0.407200  0.781500  0.870000  1.0
  N  N1393  1  0.352200  0.957400  0.390600  1.0
  N  N1394  1  0.147800  0.542600  0.390600  1.0
  N  N1395  1  0.542600  0.352200  0.390600  1.0
  N  N1396  1  0.957400  0.147800  0.390600  1.0
  N  N1397  1  0.147800  0.957400  0.109400  1.0
  N  N1398  1  0.352200  0.542600  0.109400  1.0
  N  N1399  1  0.957400  0.352200  0.109400  1.0
  N  N1400  1  0.542600  0.147800  0.109400  1.0
  N  N1401  1  0.647800  0.042600  0.609400  1.0
  N  N1402  1  0.852200  0.457400  0.609400  1.0
  N  N1403  1  0.457400  0.647800  0.609400  1.0
  N  N1404  1  0.042600  0.852200  0.609400  1.0
  N  N1405  1  0.852200  0.042600  0.890600  1.0
  N  N1406  1  0.647800  0.457400  0.890600  1.0
  N  N1407  1  0.042600  0.647800  0.890600  1.0
  N  N1408  1  0.457400  0.852200  0.890600  1.0
  N  N1409  1  0.559800  0.224900  0.431400  1.0
  N  N1410  1  0.940200  0.275100  0.431400  1.0
  N  N1411  1  0.275100  0.559800  0.431400  1.0
  N  N1412  1  0.224900  0.940200  0.431400  1.0
  N  N1413  1  0.940200  0.224900  0.068600  1.0
  N  N1414  1  0.559800  0.275100  0.068600  1.0
  N  N1415  1  0.224900  0.559800  0.068600  1.0
  N  N1416  1  0.275100  0.940200  0.068600  1.0
  N  N1417  1  0.440200  0.775100  0.568600  1.0
  N  N1418  1  0.059800  0.724900  0.568600  1.0
  N  N1419  1  0.724900  0.440200  0.568600  1.0
  N  N1420  1  0.775100  0.059800  0.568600  1.0
  N  N1421  1  0.059800  0.775100  0.931400  1.0
  N  N1422  1  0.440200  0.724900  0.931400  1.0
  N  N1423  1  0.775100  0.440200  0.931400  1.0
  N  N1424  1  0.724900  0.059800  0.931400  1.0
  N  N1425  1  0.605500  0.302500  0.443100  1.0
  N  N1426  1  0.894500  0.197500  0.443100  1.0
  N  N1427  1  0.197500  0.605500  0.443100  1.0
  N  N1428  1  0.302500  0.894500  0.443100  1.0
  N  N1429  1  0.894500  0.302500  0.056900  1.0
  N  N1430  1  0.605500  0.197500  0.056900  1.0
  N  N1431  1  0.302500  0.605500  0.056900  1.0
  N  N1432  1  0.197500  0.894500  0.056900  1.0
  N  N1433  1  0.394500  0.697500  0.556900  1.0
  N  N1434  1  0.105500  0.802500  0.556900  1.0
  N  N1435  1  0.802500  0.394500  0.556900  1.0
  N  N1436  1  0.697500  0.105500  0.556900  1.0
  N  N1437  1  0.105500  0.697500  0.943100  1.0
  N  N1438  1  0.394500  0.802500  0.943100  1.0
  N  N1439  1  0.697500  0.394500  0.943100  1.0
  N  N1440  1  0.802500  0.105500  0.943100  1.0
  N  N1441  1  0.300300  0.999100  0.455000  1.0
  N  N1442  1  0.199700  0.500900  0.455000  1.0
  N  N1443  1  0.500900  0.300300  0.455000  1.0
  N  N1444  1  0.999100  0.199700  0.455000  1.0
  N  N1445  1  0.199700  0.999100  0.045000  1.0
  N  N1446  1  0.300300  0.500900  0.045000  1.0
  N  N1447  1  0.999100  0.300300  0.045000  1.0
  N  N1448  1  0.500900  0.199700  0.045000  1.0
  N  N1449  1  0.699700  0.000900  0.545000  1.0
  N  N1450  1  0.800300  0.499100  0.545000  1.0
  N  N1451  1  0.499100  0.699700  0.545000  1.0
  N  N1452  1  0.000900  0.800300  0.545000  1.0
  N  N1453  1  0.800300  0.000900  0.955000  1.0
  N  N1454  1  0.699700  0.499100  0.955000  1.0
  N  N1455  1  0.000900  0.699700  0.955000  1.0
  N  N1456  1  0.499100  0.800300  0.955000  1.0
  N  N1457  1  0.273100  0.011100  0.386300  1.0
  N  N1458  1  0.226900  0.488900  0.386300  1.0
  N  N1459  1  0.488900  0.273100  0.386300  1.0
  N  N1460  1  0.011100  0.226900  0.386300  1.0
  N  N1461  1  0.226900  0.011100  0.113700  1.0
  N  N1462  1  0.273100  0.488900  0.113700  1.0
  N  N1463  1  0.011100  0.273100  0.113700  1.0
  N  N1464  1  0.488900  0.226900  0.113700  1.0
  N  N1465  1  0.726900  0.988900  0.613700  1.0
  N  N1466  1  0.773100  0.511100  0.613700  1.0
  N  N1467  1  0.511100  0.726900  0.613700  1.0
  N  N1468  1  0.988900  0.773100  0.613700  1.0
  N  N1469  1  0.773100  0.988900  0.886300  1.0
  N  N1470  1  0.726900  0.511100  0.886300  1.0
  N  N1471  1  0.988900  0.726900  0.886300  1.0
  N  N1472  1  0.511100  0.773100  0.886300  1.0
  Cl  Cl1473  1  0.750000  0.250000  0.500000  1
  Cl  Cl1474  1  0.250000  0.750000  0.500000  1
  Cl  Cl1475  1  0.750000  0.250000  0.000000  1
  Cl  Cl1476  1  0.250000  0.750000  0.000000  1
  O  O1477  1  0.730700  0.212800  0.477800  1.0
  O  O1478  1  0.769300  0.287200  0.477800  1.0
  O  O1479  1  0.287200  0.730700  0.477800  1.0
  O  O1480  1  0.212800  0.769300  0.477800  1.0
  O  O1481  1  0.769300  0.212800  0.022200  1.0
  O  O1482  1  0.730700  0.287200  0.022200  1.0
  O  O1483  1  0.212800  0.730700  0.022200  1.0
  O  O1484  1  0.287200  0.769300  0.022200  1.0
  O  O1485  1  0.269300  0.787200  0.522200  1.0
  O  O1486  1  0.230700  0.712800  0.522200  1.0
  O  O1487  1  0.712800  0.269300  0.522200  1.0
  O  O1488  1  0.787200  0.230700  0.522200  1.0
  O  O1489  1  0.230700  0.787200  0.977800  1.0
  O  O1490  1  0.269300  0.712800  0.977800  1.0
  O  O1491  1  0.787200  0.269300  0.977800  1.0
  O  O1492  1  0.712800  0.230700  0.977800  1.0
  O  O1493  1  0.126300  0.788400  0.347100  1.0
  O  O1494  1  0.373700  0.711600  0.347100  1.0
  O  O1495  1  0.711600  0.126300  0.347100  1.0
  O  O1496  1  0.788400  0.373700  0.347100  1.0
  O  O1497  1  0.373700  0.788400  0.152900  1.0
  O  O1498  1  0.126300  0.711600  0.152900  1.0
  O  O1499  1  0.788400  0.126300  0.152900  1.0
  O  O1500  1  0.711600  0.373700  0.152900  1.0
  O  O1501  1  0.873700  0.211600  0.652900  1.0
  O  O1502  1  0.626300  0.288400  0.652900  1.0
  O  O1503  1  0.288400  0.873700  0.652900  1.0
  O  O1504  1  0.211600  0.626300  0.652900  1.0
  O  O1505  1  0.626300  0.211600  0.847100  1.0
  O  O1506  1  0.873700  0.288400  0.847100  1.0
  O  O1507  1  0.211600  0.873700  0.847100  1.0
  O  O1508  1  0.288400  0.626300  0.847100  1.0
  O  O1509  1  0.699700  0.475000  0.446100  1.0
  O  O1510  1  0.800300  0.025000  0.446100  1.0
  O  O1511  1  0.025000  0.699700  0.446100  1.0
  O  O1512  1  0.475000  0.800300  0.446100  1.0
  O  O1513  1  0.800300  0.475000  0.053900  1.0
  O  O1514  1  0.699700  0.025000  0.053900  1.0
  O  O1515  1  0.475000  0.699700  0.053900  1.0
  O  O1516  1  0.025000  0.800300  0.053900  1.0
  O  O1517  1  0.300300  0.525000  0.553900  1.0
  O  O1518  1  0.199700  0.975000  0.553900  1.0
  O  O1519  1  0.975000  0.300300  0.553900  1.0
  O  O1520  1  0.525000  0.199700  0.553900  1.0
  O  O1521  1  0.199700  0.525000  0.946100  1.0
  O  O1522  1  0.300300  0.975000  0.946100  1.0
  O  O1523  1  0.525000  0.300300  0.946100  1.0
  O  O1524  1  0.975000  0.199700  0.946100  1.0
  O  O1525  1  0.374200  0.974900  0.599900  1.0
  O  O1526  1  0.125800  0.525100  0.599900  1.0
  O  O1527  1  0.525100  0.374200  0.599900  1.0
  O  O1528  1  0.974900  0.125800  0.599900  1.0
  O  O1529  1  0.125800  0.974900  0.900100  1.0
  O  O1530  1  0.374200  0.525100  0.900100  1.0
  O  O1531  1  0.974900  0.374200  0.900100  1.0
  O  O1532  1  0.525100  0.125800  0.900100  1.0
  O  O1533  1  0.625800  0.025100  0.400100  1.0
  O  O1534  1  0.874200  0.474900  0.400100  1.0
  O  O1535  1  0.474900  0.625800  0.400100  1.0
  O  O1536  1  0.025100  0.874200  0.400100  1.0
  O  O1537  1  0.874200  0.025100  0.099900  1.0
  O  O1538  1  0.625800  0.474900  0.099900  1.0
  O  O1539  1  0.025100  0.625800  0.099900  1.0
  O  O1540  1  0.474900  0.874200  0.099900  1.0
  F  F1541  1  0.379100  0.097900  0.427100  1
  F  F1542  1  0.120900  0.402100  0.427100  1
  F  F1543  1  0.402100  0.379100  0.427100  1
  F  F1544  1  0.097900  0.120900  0.427100  1
  F  F1545  1  0.120900  0.097900  0.072900  1
  F  F1546  1  0.379100  0.402100  0.072900  1
  F  F1547  1  0.097900  0.379100  0.072900  1
  F  F1548  1  0.402100  0.120900  0.072900  1
  F  F1549  1  0.620900  0.902100  0.572900  1
  F  F1550  1  0.879100  0.597900  0.572900  1
  F  F1551  1  0.597900  0.620900  0.572900  1
  F  F1552  1  0.902100  0.879100  0.572900  1
  F  F1553  1  0.879100  0.902100  0.927100  1
  F  F1554  1  0.620900  0.597900  0.927100  1
  F  F1555  1  0.902100  0.620900  0.927100  1
  F  F1556  1  0.597900  0.879100  0.927100  1
  F  F1557  1  0.342900  0.137700  0.474600  1
  F  F1558  1  0.157100  0.362300  0.474600  1
  F  F1559  1  0.362300  0.342900  0.474600  1
  F  F1560  1  0.137700  0.157100  0.474600  1
  F  F1561  1  0.157100  0.137700  0.025400  1
  F  F1562  1  0.342900  0.362300  0.025400  1
  F  F1563  1  0.137700  0.342900  0.025400  1
  F  F1564  1  0.362300  0.157100  0.025400  1
  F  F1565  1  0.657100  0.862300  0.525400  1
  F  F1566  1  0.842900  0.637700  0.525400  1
  F  F1567  1  0.637700  0.657100  0.525400  1
  F  F1568  1  0.862300  0.842900  0.525400  1
  F  F1569  1  0.842900  0.862300  0.974600  1
  F  F1570  1  0.657100  0.637700  0.974600  1
  F  F1571  1  0.862300  0.657100  0.974600  1
  F  F1572  1  0.637700  0.842900  0.974600  1
  F  F1573  1  0.350500  0.172200  0.418900  1
  F  F1574  1  0.149500  0.327800  0.418900  1
  F  F1575  1  0.327800  0.350500  0.418900  1
  F  F1576  1  0.172200  0.149500  0.418900  1
  F  F1577  1  0.149500  0.172200  0.081100  1
  F  F1578  1  0.350500  0.327800  0.081100  1
  F  F1579  1  0.172200  0.350500  0.081100  1
  F  F1580  1  0.327800  0.149500  0.081100  1
  F  F1581  1  0.649500  0.827800  0.581100  1
  F  F1582  1  0.850500  0.672200  0.581100  1
  F  F1583  1  0.672200  0.649500  0.581100  1
  F  F1584  1  0.827800  0.850500  0.581100  1
  F  F1585  1  0.850500  0.827800  0.918900  1
  F  F1586  1  0.649500  0.672200  0.918900  1
  F  F1587  1  0.827800  0.649500  0.918900  1
  F  F1588  1  0.672200  0.850500  0.918900  1
  F  F1589  1  0.394500  0.196700  0.468300  1
  F  F1590  1  0.105500  0.303300  0.468300  1
  F  F1591  1  0.303300  0.394500  0.468300  1
  F  F1592  1  0.196700  0.105500  0.468300  1
  F  F1593  1  0.105500  0.196700  0.031700  1
  F  F1594  1  0.394500  0.303300  0.031700  1
  F  F1595  1  0.196700  0.394500  0.031700  1
  F  F1596  1  0.303300  0.105500  0.031700  1
  F  F1597  1  0.605500  0.803300  0.531700  1
  F  F1598  1  0.894500  0.696700  0.531700  1
  F  F1599  1  0.696700  0.605500  0.531700  1
  F  F1600  1  0.803300  0.894500  0.531700  1
  F  F1601  1  0.894500  0.803300  0.968300  1
  F  F1602  1  0.605500  0.696700  0.968300  1
  F  F1603  1  0.803300  0.605500  0.968300  1
  F  F1604  1  0.696700  0.894500  0.968300  1
  F  F1605  1  0.427900  0.159000  0.418100  1
  F  F1606  1  0.072100  0.341000  0.418100  1
  F  F1607  1  0.341000  0.427900  0.418100  1
  F  F1608  1  0.159000  0.072100  0.418100  1
  F  F1609  1  0.072100  0.159000  0.081900  1
  F  F1610  1  0.427900  0.341000  0.081900  1
  F  F1611  1  0.159000  0.427900  0.081900  1
  F  F1612  1  0.341000  0.072100  0.081900  1
  F  F1613  1  0.572100  0.841000  0.581900  1
  F  F1614  1  0.927900  0.659000  0.581900  1
  F  F1615  1  0.659000  0.572100  0.581900  1
  F  F1616  1  0.841000  0.927900  0.581900  1
  F  F1617  1  0.927900  0.841000  0.918100  1
  F  F1618  1  0.572100  0.659000  0.918100  1
  F  F1619  1  0.841000  0.572100  0.918100  1
  F  F1620  1  0.659000  0.927900  0.918100  1
  F  F1621  1  0.421500  0.124100  0.476400  1
  F  F1622  1  0.078500  0.375900  0.476400  1
  F  F1623  1  0.375900  0.421500  0.476400  1
  F  F1624  1  0.124100  0.078500  0.476400  1
  F  F1625  1  0.078500  0.124100  0.023600  1
  F  F1626  1  0.421500  0.375900  0.023600  1
  F  F1627  1  0.124100  0.421500  0.023600  1
  F  F1628  1  0.375900  0.078500  0.023600  1
  F  F1629  1  0.578500  0.875900  0.523600  1
  F  F1630  1  0.921500  0.624100  0.523600  1
  F  F1631  1  0.624100  0.578500  0.523600  1
  F  F1632  1  0.875900  0.921500  0.523600  1
  F  F1633  1  0.921500  0.875900  0.976400  1
  F  F1634  1  0.578500  0.624100  0.976400  1
  F  F1635  1  0.875900  0.578500  0.976400  1
  F  F1636  1  0.624100  0.921500  0.976400  1
  F  F1637  1  0.222400  0.236800  0.307500  1
  F  F1638  1  0.277600  0.263200  0.307500  1
  F  F1639  1  0.263200  0.222400  0.307500  1
  F  F1640  1  0.236800  0.277600  0.307500  1
  F  F1641  1  0.277600  0.236800  0.192500  1
  F  F1642  1  0.222400  0.263200  0.192500  1
  F  F1643  1  0.236800  0.222400  0.192500  1
  F  F1644  1  0.263200  0.277600  0.192500  1
  F  F1645  1  0.777600  0.763200  0.692500  1
  F  F1646  1  0.722400  0.736800  0.692500  1
  F  F1647  1  0.736800  0.777600  0.692500  1
  F  F1648  1  0.763200  0.722400  0.692500  1
  F  F1649  1  0.722400  0.763200  0.807500  1
  F  F1650  1  0.777600  0.736800  0.807500  1
  F  F1651  1  0.763200  0.777600  0.807500  1
  F  F1652  1  0.736800  0.722400  0.807500  1
  F  F1653  1  0.223800  0.212700  0.367700  1
  F  F1654  1  0.276200  0.287300  0.367700  1
  F  F1655  1  0.287300  0.223800  0.367700  1
  F  F1656  1  0.212700  0.276200  0.367700  1
  F  F1657  1  0.276200  0.212700  0.132300  1
  F  F1658  1  0.223800  0.287300  0.132300  1
  F  F1659  1  0.212700  0.223800  0.132300  1
  F  F1660  1  0.287300  0.276200  0.132300  1
  F  F1661  1  0.776200  0.787300  0.632300  1
  F  F1662  1  0.723800  0.712700  0.632300  1
  F  F1663  1  0.712700  0.776200  0.632300  1
  F  F1664  1  0.787300  0.723800  0.632300  1
  F  F1665  1  0.723800  0.787300  0.867700  1
  F  F1666  1  0.776200  0.712700  0.867700  1
  F  F1667  1  0.787300  0.776200  0.867700  1
  F  F1668  1  0.712700  0.723800  0.867700  1
  F  F1669  1  0.279500  0.289200  0.320800  1
  F  F1670  1  0.220500  0.210800  0.320800  1
  F  F1671  1  0.210800  0.279500  0.320800  1
  F  F1672  1  0.289200  0.220500  0.320800  1
  F  F1673  1  0.220500  0.289200  0.179200  1
  F  F1674  1  0.279500  0.210800  0.179200  1
  F  F1675  1  0.289200  0.279500  0.179200  1
  F  F1676  1  0.210800  0.220500  0.179200  1
  F  F1677  1  0.720500  0.710800  0.679200  1
  F  F1678  1  0.779500  0.789200  0.679200  1
  F  F1679  1  0.789200  0.720500  0.679200  1
  F  F1680  1  0.710800  0.779500  0.679200  1
  F  F1681  1  0.779500  0.710800  0.820800  1
  F  F1682  1  0.720500  0.789200  0.820800  1
  F  F1683  1  0.710800  0.720500  0.820800  1
  F  F1684  1  0.789200  0.779500  0.820800  1
  F  F1685  1  0.211300  0.287600  0.355700  1
  F  F1686  1  0.288700  0.212400  0.355700  1
  F  F1687  1  0.212400  0.211300  0.355700  1
  F  F1688  1  0.287600  0.288700  0.355700  1
  F  F1689  1  0.288700  0.287600  0.144300  1
  F  F1690  1  0.211300  0.212400  0.144300  1
  F  F1691  1  0.287600  0.211300  0.144300  1
  F  F1692  1  0.212400  0.288700  0.144300  1
  F  F1693  1  0.788700  0.712400  0.644300  1
  F  F1694  1  0.711300  0.787600  0.644300  1
  F  F1695  1  0.787600  0.788700  0.644300  1
  F  F1696  1  0.712400  0.711300  0.644300  1
  F  F1697  1  0.711300  0.712400  0.855700  1
  F  F1698  1  0.788700  0.787600  0.855700  1
  F  F1699  1  0.712400  0.788700  0.855700  1
  F  F1700  1  0.787600  0.711300  0.855700  1
  F  F1701  1  0.289400  0.213500  0.333500  1
  F  F1702  1  0.210600  0.286500  0.333500  1
  F  F1703  1  0.286500  0.289400  0.333500  1
  F  F1704  1  0.213500  0.210600  0.333500  1
  F  F1705  1  0.210600  0.213500  0.166500  1
  F  F1706  1  0.289400  0.286500  0.166500  1
  F  F1707  1  0.213500  0.289400  0.166500  1
  F  F1708  1  0.286500  0.210600  0.166500  1
  F  F1709  1  0.710600  0.786500  0.666500  1
  F  F1710  1  0.789400  0.713500  0.666500  1
  F  F1711  1  0.713500  0.710600  0.666500  1
  F  F1712  1  0.786500  0.789400  0.666500  1
  F  F1713  1  0.789400  0.786500  0.833500  1
  F  F1714  1  0.710600  0.713500  0.833500  1
  F  F1715  1  0.786500  0.710600  0.833500  1
  F  F1716  1  0.713500  0.789400  0.833500  1
  F  F1717  1  0.280400  0.265100  0.381100  1
  F  F1718  1  0.219600  0.234900  0.381100  1
  F  F1719  1  0.234900  0.280400  0.381100  1
  F  F1720  1  0.265100  0.219600  0.381100  1
  F  F1721  1  0.219600  0.265100  0.118900  1
  F  F1722  1  0.280400  0.234900  0.118900  1
  F  F1723  1  0.265100  0.280400  0.118900  1
  F  F1724  1  0.234900  0.219600  0.118900  1
  F  F1725  1  0.719600  0.734900  0.618900  1
  F  F1726  1  0.780400  0.765100  0.618900  1
  F  F1727  1  0.765100  0.719600  0.618900  1
  F  F1728  1  0.734900  0.780400  0.618900  1
  F  F1729  1  0.780400  0.734900  0.881100  1
  F  F1730  1  0.719600  0.765100  0.881100  1
  F  F1731  1  0.734900  0.719600  0.881100  1
  F  F1732  1  0.765100  0.780400  0.881100  1
  F  F1733  1  0.465500  0.996400  0.456700  1.0
  F  F1734  1  0.034500  0.503600  0.456700  1.0
  F  F1735  1  0.503600  0.465500  0.456700  1.0
  F  F1736  1  0.996400  0.034500  0.456700  1.0
  F  F1737  1  0.034500  0.996400  0.043300  1.0
  F  F1738  1  0.465500  0.503600  0.043300  1.0
  F  F1739  1  0.996400  0.465500  0.043300  1.0
  F  F1740  1  0.503600  0.034500  0.043300  1.0
  F  F1741  1  0.534500  0.003600  0.543300  1.0
  F  F1742  1  0.965500  0.496400  0.543300  1.0
  F  F1743  1  0.496400  0.534500  0.543300  1.0
  F  F1744  1  0.003600  0.965500  0.543300  1.0
  F  F1745  1  0.965500  0.003600  0.956700  1.0
  F  F1746  1  0.534500  0.496400  0.956700  1.0
  F  F1747  1  0.003600  0.534500  0.956700  1.0
  F  F1748  1  0.496400  0.965500  0.956700  1.0
  F  F1749  1  0.521200  0.066200  0.479700  1.0
  F  F1750  1  0.978800  0.433800  0.479700  1.0
  F  F1751  1  0.433800  0.521200  0.479700  1.0
  F  F1752  1  0.066200  0.978800  0.479700  1.0
  F  F1753  1  0.978800  0.066200  0.020300  1.0
  F  F1754  1  0.521200  0.433800  0.020300  1.0
  F  F1755  1  0.066200  0.521200  0.020300  1.0
  F  F1756  1  0.433800  0.978800  0.020300  1.0
  F  F1757  1  0.478800  0.933800  0.520300  1.0
  F  F1758  1  0.021200  0.566200  0.520300  1.0
  F  F1759  1  0.566200  0.478800  0.520300  1.0
  F  F1760  1  0.933800  0.021200  0.520300  1.0
  F  F1761  1  0.021200  0.933800  0.979700  1.0
  F  F1762  1  0.478800  0.566200  0.979700  1.0
  F  F1763  1  0.933800  0.478800  0.979700  1.0
  F  F1764  1  0.566200  0.021200  0.979700  1.0
  F  F1765  1  0.520300  0.129000  0.356400  1.0
  F  F1766  1  0.979700  0.371000  0.356400  1.0
  F  F1767  1  0.371000  0.520300  0.356400  1.0
  F  F1768  1  0.129000  0.979700  0.356400  1.0
  F  F1769  1  0.979700  0.129000  0.143600  1.0
  F  F1770  1  0.520300  0.371000  0.143600  1.0
  F  F1771  1  0.129000  0.520300  0.143600  1.0
  F  F1772  1  0.371000  0.979700  0.143600  1.0
  F  F1773  1  0.479700  0.871000  0.643600  1.0
  F  F1774  1  0.020300  0.629000  0.643600  1.0
  F  F1775  1  0.629000  0.479700  0.643600  1.0
  F  F1776  1  0.871000  0.020300  0.643600  1.0
  F  F1777  1  0.020300  0.871000  0.856400  1.0
  F  F1778  1  0.479700  0.629000  0.856400  1.0
  F  F1779  1  0.871000  0.479700  0.856400  1.0
  F  F1780  1  0.629000  0.020300  0.856400  1.0
  F  F1781  1  0.466300  0.058400  0.333600  1.0
  F  F1782  1  0.033700  0.441600  0.333600  1.0
  F  F1783  1  0.441600  0.466300  0.333600  1.0
  F  F1784  1  0.058400  0.033700  0.333600  1.0
  F  F1785  1  0.033700  0.058400  0.166400  1.0
  F  F1786  1  0.466300  0.441600  0.166400  1.0
  F  F1787  1  0.058400  0.466300  0.166400  1.0
  F  F1788  1  0.441600  0.033700  0.166400  1.0
  F  F1789  1  0.533700  0.941600  0.666400  1.0
  F  F1790  1  0.966300  0.558400  0.666400  1.0
  F  F1791  1  0.558400  0.533700  0.666400  1.0
  F  F1792  1  0.941600  0.966300  0.666400  1.0
  F  F1793  1  0.966300  0.941600  0.833600  1.0
  F  F1794  1  0.533700  0.558400  0.833600  1.0
  F  F1795  1  0.941600  0.533700  0.833600  1.0
  F  F1796  1  0.558400  0.966300  0.833600  1.0
  F  F1797  1  0.185600  0.007800  0.291900  1.0
  F  F1798  1  0.314400  0.492200  0.291900  1.0
  F  F1799  1  0.492200  0.185600  0.291900  1.0
  F  F1800  1  0.007800  0.314400  0.291900  1.0
  F  F1801  1  0.314400  0.007800  0.208100  1.0
  F  F1802  1  0.185600  0.492200  0.208100  1.0
  F  F1803  1  0.007800  0.185600  0.208100  1.0
  F  F1804  1  0.492200  0.314400  0.208100  1.0
  F  F1805  1  0.814400  0.992200  0.708100  1.0
  F  F1806  1  0.685600  0.507800  0.708100  1.0
  F  F1807  1  0.507800  0.814400  0.708100  1.0
  F  F1808  1  0.992200  0.685600  0.708100  1.0
  F  F1809  1  0.685600  0.992200  0.791900  1.0
  F  F1810  1  0.814400  0.507800  0.791900  1.0
  F  F1811  1  0.992200  0.814400  0.791900  1.0
  F  F1812  1  0.507800  0.685600  0.791900  1.0
  F  F1813  1  0.176700  0.007400  0.218900  1.0
  F  F1814  1  0.323300  0.492600  0.218900  1.0
  F  F1815  1  0.492600  0.176700  0.218900  1.0
  F  F1816  1  0.007400  0.323300  0.218900  1.0
  F  F1817  1  0.323300  0.007400  0.281100  1.0
  F  F1818  1  0.176700  0.492600  0.281100  1.0
  F  F1819  1  0.007400  0.176700  0.281100  1.0
  F  F1820  1  0.492600  0.323300  0.281100  1.0
  F  F1821  1  0.823300  0.992600  0.781100  1.0
  F  F1822  1  0.676700  0.507400  0.781100  1.0
  F  F1823  1  0.507400  0.823300  0.781100  1.0
  F  F1824  1  0.992600  0.676700  0.781100  1.0
  F  F1825  1  0.676700  0.992600  0.718900  1.0
  F  F1826  1  0.823300  0.507400  0.718900  1.0
  F  F1827  1  0.992600  0.823300  0.718900  1.0
  F  F1828  1  0.507400  0.676700  0.718900  1.0
  F  F1829  1  0.303600  0.116600  0.207700  1.0
  F  F1830  1  0.196400  0.383400  0.207700  1.0
  F  F1831  1  0.383400  0.303600  0.207700  1.0
  F  F1832  1  0.116600  0.196400  0.207700  1.0
  F  F1833  1  0.196400  0.116600  0.292300  1.0
  F  F1834  1  0.303600  0.383400  0.292300  1.0
  F  F1835  1  0.116600  0.303600  0.292300  1.0
  F  F1836  1  0.383400  0.196400  0.292300  1.0
  F  F1837  1  0.696400  0.883400  0.792300  1.0
  F  F1838  1  0.803600  0.616600  0.792300  1.0
  F  F1839  1  0.616600  0.696400  0.792300  1.0
  F  F1840  1  0.883400  0.803600  0.792300  1.0
  F  F1841  1  0.803600  0.883400  0.707700  1.0
  F  F1842  1  0.696400  0.616600  0.707700  1.0
  F  F1843  1  0.883400  0.696400  0.707700  1.0
  F  F1844  1  0.616600  0.803600  0.707700  1.0
  F  F1845  1  0.309900  0.118500  0.284700  1.0
  F  F1846  1  0.190100  0.381500  0.284700  1.0
  F  F1847  1  0.381500  0.309900  0.284700  1.0
  F  F1848  1  0.118500  0.190100  0.284700  1.0
  F  F1849  1  0.190100  0.118500  0.215300  1.0
  F  F1850  1  0.309900  0.381500  0.215300  1.0
  F  F1851  1  0.118500  0.309900  0.215300  1.0
  F  F1852  1  0.381500  0.190100  0.215300  1.0
  F  F1853  1  0.690100  0.881500  0.715300  1.0
  F  F1854  1  0.809900  0.618500  0.715300  1.0
  F  F1855  1  0.618500  0.690100  0.715300  1.0
  F  F1856  1  0.881500  0.809900  0.715300  1.0
  F  F1857  1  0.809900  0.881500  0.784700  1.0
  F  F1858  1  0.690100  0.618500  0.784700  1.0
  F  F1859  1  0.881500  0.690100  0.784700  1.0
  F  F1860  1  0.618500  0.809900  0.784700  1.0
