# generated using pymatgen
data_Fe16Mo24H540.6994C762.0996S26.6N149.9998O183.3F125.8
_symmetry_space_group_name_H-M   'P 1'
_cell_length_a   28.18220000
_cell_length_b   28.60980000
_cell_length_c   38.03300000
_cell_angle_alpha   72.13600000
_cell_angle_beta   72.82000000
_cell_angle_gamma   66.50200000
_symmetry_Int_Tables_number   1
_chemical_formula_structural
Fe16Mo24H540.6994C762.0996S26.6N149.9998O183.3F125.8
_chemical_formula_sum
'Fe16 Mo24 H540.6994 C762.0996 S26.6 N149.9998 O183.3 F125.8'
_cell_volume   26235.28074590
_cell_formula_units_Z   1
loop_
 _symmetry_equiv_pos_site_id
 _symmetry_equiv_pos_as_xyz
  1  'x, y, z'
loop_
 _atom_site_type_symbol
 _atom_site_label
 _atom_site_symmetry_multiplicity
 _atom_site_fract_x
 _atom_site_fract_y
 _atom_site_fract_z
 _atom_site_occupancy
  Fe  Fe1  1  0.209480  0.614940  0.583830  1.0
  Fe  Fe2  1  0.790520  0.385060  0.416170  1.0
  Fe  Fe3  1  0.454110  0.295800  0.353900  1.0
  Fe  Fe4  1  0.545890  0.704200  0.646100  1.0
  Fe  Fe5  1  0.064050  0.532730  0.146580  1.0
  Fe  Fe6  1  0.935950  0.467270  0.853420  1.0
  Fe  Fe7  1  0.809970  0.881960  0.393990  1.0
  Fe  Fe8  1  0.190030  0.118040  0.606010  1.0
  Fe  Fe9  1  0.472670  0.963720  0.336580  1.0
  Fe  Fe10  1  0.527330  0.036280  0.663420  1.0
  Fe  Fe11  1  0.717340  0.626260  0.114750  1.0
  Fe  Fe12  1  0.282660  0.373740  0.885250  1.0
  Fe  Fe13  1  0.303930  0.851870  0.918590  1.0
  Fe  Fe14  1  0.696070  0.148130  0.081410  1.0
  Fe  Fe15  1  0.056940  0.195650  0.168550  1.0
  Fe  Fe16  1  0.943060  0.804350  0.831450  1.0
  Mo  Mo17  1  0.107110  0.556980  0.384150  1.0
  Mo  Mo18  1  0.892890  0.443020  0.615850  1.0
  Mo  Mo19  1  0.145180  0.609900  0.348560  1.0
  Mo  Mo20  1  0.854820  0.390100  0.651440  1.0
  Mo  Mo21  1  0.494660  0.610480  0.361720  1.0
  Mo  Mo22  1  0.505340  0.389520  0.638280  1.0
  Mo  Mo23  1  0.432410  0.646620  0.331650  1.0
  Mo  Mo24  1  0.567590  0.353380  0.668350  1.0
  Mo  Mo25  1  0.090230  0.845960  0.171260  1.0
  Mo  Mo26  1  0.909770  0.154040  0.828740  1.0
  Mo  Mo27  1  0.027190  0.884550  0.142150  1.0
  Mo  Mo28  1  0.972810  0.115450  0.857850  1.0
  Mo  Mo29  1  0.407380  0.941510  0.105690  1.0
  Mo  Mo30  1  0.592620  0.058490  0.894310  1.0
  Mo  Mo31  1  0.369990  0.888410  0.142010  1.0
  Mo  Mo32  1  0.630010  0.111590  0.857990  1.0
  Mo  Mo33  1  0.371320  0.601730  0.151690  1.0
  Mo  Mo34  1  0.628680  0.398270  0.848310  1.0
  Mo  Mo35  1  0.409940  0.547530  0.116350  1.0
  Mo  Mo36  1  0.590060  0.452470  0.883650  1.0
  Mo  Mo37  1  0.161690  0.884380  0.360670  1.0
  Mo  Mo38  1  0.838310  0.115620  0.639330  1.0
  Mo  Mo39  1  0.124550  0.937210  0.396960  1.0
  Mo  Mo40  1  0.875450  0.062790  0.603040  1.0
  H  H41  1  0.126700  0.576000  0.551800  1.0
  H  H42  1  0.873300  0.424000  0.448200  1.0
  H  H43  1  0.151800  0.711200  0.490600  1.0
  H  H44  1  0.848200  0.288800  0.509400  1.0
  H  H45  1  0.079000  0.708500  0.565800  1.0
  H  H46  1  0.921000  0.291500  0.434200  1.0
  H  H47  1  0.049600  0.757900  0.620000  1.0
  H  H48  1  0.950400  0.242100  0.380000  1.0
  H  H49  1  0.075200  0.766800  0.671600  1.0
  H  H50  1  0.924800  0.233200  0.328400  1.0
  H  H51  1  0.147600  0.705800  0.691700  1.0
  H  H52  1  0.852400  0.294200  0.308300  1.0
  H  H53  1  0.209500  0.645800  0.655700  1.0
  H  H54  1  0.790500  0.354200  0.344300  1.0
  H  H55  1  0.322900  0.341600  0.406000  1.0
  H  H56  1  0.677100  0.658400  0.594000  1.0
  H  H57  1  0.399700  0.447000  0.367600  1.0
  H  H58  1  0.600300  0.553000  0.632400  1.0
  H  H59  1  0.429200  0.363000  0.429500  1.0
  H  H60  1  0.570800  0.637000  0.570500  1.0
  H  H61  1  0.514100  0.308200  0.456600  1.0
  H  H62  1  0.485900  0.691800  0.543400  1.0
  H  H63  1  0.592900  0.234600  0.455800  1.0
  H  H64  1  0.407100  0.765400  0.544200  1.0
  H  H65  1  0.608500  0.178900  0.416100  1.0
  H  H66  1  0.391500  0.821100  0.583900  1.0
  H  H67  1  0.556400  0.202500  0.372900  1.0
  H  H68  1  0.443600  0.797500  0.627100  1.0
  H  H69  1  0.065100  0.478300  0.247500  1.0
  H  H70  1  0.934900  0.521700  0.752500  1.0
  H  H71  1  0.186000  0.530100  0.184200  1.0
  H  H72  1  0.814000  0.469900  0.815800  1.0
  H  H73  1  0.182400  0.430500  0.179100  1.0
  H  H74  1  0.817600  0.569500  0.820900  1.0
  H  H75  1  0.219700  0.381200  0.123400  1.0
  H  H76  1  0.780300  0.618800  0.876600  1.0
  H  H77  1  0.212200  0.379800  0.063100  1.0
  H  H78  1  0.787800  0.620200  0.936900  1.0
  H  H79  1  0.139300  0.437500  0.040700  1.0
  H  H80  1  0.860700  0.562500  0.959300  1.0
  H  H81  1  0.076600  0.500400  0.072200  1.0
  H  H82  1  0.923400  0.499600  0.927800  1.0
  H  H83  1  0.858300  0.738800  0.409100  1.0
  H  H84  1  0.141700  0.261200  0.590900  1.0
  H  H85  1  0.923100  0.818300  0.312200  1.0
  H  H86  1  0.076900  0.181700  0.687800  1.0
  H  H87  1  0.814400  0.812400  0.324300  1.0
  H  H88  1  0.185600  0.187600  0.675700  1.0
  H  H89  1  0.732500  0.878500  0.297000  1.0
  H  H90  1  0.267500  0.121500  0.703000  1.0
  H  H91  1  0.662800  0.957800  0.296700  1.0
  H  H92  1  0.337200  0.042200  0.703300  1.0
  H  H93  1  0.653400  0.010500  0.336800  1.0
  H  H94  1  0.346600  0.989500  0.663200  1.0
  H  H95  1  0.710300  0.979700  0.378700  1.0
  H  H96  1  0.289700  0.020300  0.621300  1.0
  H  H97  1  0.347400  0.562700  0.538100  1.0
  H  H98  1  0.652600  0.437300  0.461900  1.0
  H  H99  1  0.238700  0.585600  0.479800  1.0
  H  H100  1  0.761300  0.414400  0.520200  1.0
  H  H101  1  0.265000  0.494000  0.546400  1.0
  H  H102  1  0.735000  0.506000  0.453600  1.0
  H  H103  1  0.210800  0.439800  0.598000  1.0
  H  H104  1  0.789200  0.560200  0.402000  1.0
  H  H105  1  0.140900  0.440100  0.652000  1.0
  H  H106  1  0.859100  0.559900  0.348000  1.0
  H  H107  1  0.101700  0.508600  0.678400  1.0
  H  H108  1  0.898300  0.491400  0.321600  1.0
  H  H109  1  0.123400  0.583700  0.652700  1.0
  H  H110  1  0.876600  0.416300  0.347300  1.0
  H  H111  1  0.541600  0.358900  0.360900  1.0
  H  H112  1  0.458400  0.641100  0.639100  1.0
  H  H113  1  0.459100  0.426500  0.277600  1.0
  H  H114  1  0.540900  0.573500  0.722400  1.0
  H  H115  1  0.564500  0.323800  0.279200  1.0
  H  H116  1  0.435500  0.676200  0.720800  1.0
  H  H117  1  0.601500  0.237900  0.254400  1.0
  H  H118  1  0.398500  0.762100  0.745600  1.0
  H  H119  1  0.596000  0.156100  0.259700  1.0
  H  H120  1  0.404000  0.843900  0.740300  1.0
  H  H121  1  0.527700  0.132300  0.304000  1.0
  H  H122  1  0.472300  0.867700  0.696000  1.0
  H  H123  1  0.468000  0.188300  0.342300  1.0
  H  H124  1  0.532000  0.811700  0.657700  1.0
  H  H125  1  0.698900  0.619300  0.213300  1.0
  H  H126  1  0.301100  0.380700  0.786700  1.0
  H  H127  1  0.582800  0.730400  0.161500  1.0
  H  H128  1  0.417200  0.269600  0.838500  1.0
  H  H129  1  0.686500  0.743000  0.150100  1.0
  H  H130  1  0.313500  0.257000  0.849900  1.0
  H  H131  1  0.744700  0.790900  0.094700  1.0
  H  H132  1  0.255300  0.209100  0.905300  1.0
  H  H133  1  0.816000  0.780000  0.041400  1.0
  H  H134  1  0.184000  0.220000  0.958600  1.0
  H  H135  1  0.841500  0.707700  0.016900  1.0
  H  H136  1  0.158500  0.292300  0.983100  1.0
  H  H137  1  0.802600  0.645400  0.043600  1.0
  H  H138  1  0.197400  0.354600  0.956400  1.0
  H  H139  1  0.514300  0.824600  0.385400  1.0
  H  H140  1  0.485700  0.175400  0.614600  1.0
  H  H141  1  0.365600  0.893100  0.366200  1.0
  H  H142  1  0.634400  0.106900  0.633800  1.0
  H  H143  1  0.400900  0.910400  0.428900  1.0
  H  H144  1  0.599100  0.089600  0.571100  1.0
  H  H145  1  0.828100  0.932000  0.295200  1.0
  H  H146  1  0.171900  0.068000  0.704800  1.0
  H  H147  1  0.951100  0.908500  0.342300  1.0
  H  H148  1  0.048900  0.091500  0.657700  1.0
  H  H149  1  0.855900  0.996100  0.354400  1.0
  H  H150  1  0.144100  0.003900  0.645600  1.0
  H  H151  1  0.803100  0.049100  0.405200  1.0
  H  H152  1  0.196900  0.950900  0.594800  1.0
  H  H153  1  0.735300  0.058700  0.460000  1.0
  H  H154  1  0.264700  0.941300  0.540000  1.0
  H  H155  1  0.703300  0.992100  0.490400  1.0
  H  H156  1  0.296700  0.007900  0.509600  1.0
  H  H157  1  0.730500  0.918100  0.466300  1.0
  H  H158  1  0.269500  0.081900  0.533700  1.0
  H  H159  1  0.980600  0.670900  0.137700  1.0
  H  H160  1  0.019400  0.329100  0.862300  1.0
  H  H161  1  0.059000  0.604400  0.223600  1.0
  H  H162  1  0.941000  0.395600  0.776400  1.0
  H  H163  1  0.958200  0.586300  0.222800  1.0
  H  H164  1  0.041800  0.413700  0.777200  1.0
  H  H165  1  0.925600  0.506900  0.253900  1.0
  H  H166  1  0.074400  0.493100  0.746100  1.0
  H  H167  1  0.936500  0.420600  0.253600  1.0
  H  H168  1  0.063500  0.579400  0.746400  1.0
  H  H169  1  0.995300  0.383000  0.204400  1.0
  H  H170  1  0.004700  0.617000  0.795600  1.0
  H  H171  1  0.051200  0.425000  0.161600  1.0
  H  H172  1  0.948800  0.575000  0.838400  1.0
  H  H173  1  0.010000  0.132100  0.126200  1.0
  H  H174  1  0.990000  0.867900  0.873800  1.0
  H  H175  1  0.164900  0.065000  0.131100  1.0
  H  H176  1  0.835100  0.935000  0.868900  1.0
  H  H177  1  0.133200  0.159600  0.077500  1.0
  H  H178  1  0.866800  0.840400  0.922500  1.0
  H  H179  1  0.165600  0.240100  0.046600  1.0
  H  H180  1  0.834400  0.759900  0.953400  1.0
  H  H181  1  0.168900  0.316500  0.054700  1.0
  H  H182  1  0.831100  0.683500  0.945300  1.0
  H  H183  1  0.118300  0.349000  0.107700  1.0
  H  H184  1  0.881700  0.651000  0.892300  1.0
  H  H185  1  0.071100  0.302300  0.154700  1.0
  H  H186  1  0.928900  0.697700  0.845300  1.0
  H  H187  1  0.169700  0.868100  0.965000  1.0
  H  H188  1  0.830300  0.131900  0.035000  1.0
  H  H189  1  0.281000  0.755600  0.020400  1.0
  H  H190  1  0.719000  0.244400  0.979600  1.0
  H  H191  1  0.257000  0.738900  0.954900  1.0
  H  H192  1  0.743000  0.261100  0.045100  1.0
  H  H193  1  0.307000  0.689900  0.901000  1.0
  H  H194  1  0.693000  0.310100  0.099000  1.0
  H  H195  1  0.363400  0.688300  0.840800  1.0
  H  H196  1  0.636600  0.311700  0.159200  1.0
  H  H197  1  0.399900  0.752400  0.815600  1.0
  H  H198  1  0.600100  0.247600  0.184400  1.0
  H  H199  1  0.379200  0.819700  0.844100  1.0
  H  H200  1  0.620800  0.180300  0.155900  1.0
  H  H201  1  0.199800  0.166300  0.134500  1.0
  H  H202  1  0.800200  0.833700  0.865500  1.0
  H  H203  1  0.152300  0.065500  0.226200  1.0
  H  H204  1  0.847700  0.934500  0.773800  1.0
  H  H205  1  0.148200  0.173600  0.229800  1.0
  H  H206  1  0.851800  0.826400  0.770200  1.0
  H  H207  1  0.087400  0.238500  0.271800  1.0
  H  H208  1  0.912600  0.761500  0.728200  1.0
  H  H209  1  0.001100  0.300000  0.288100  1.0
  H  H210  1  0.998900  0.700000  0.711900  1.0
  H  H211  1  0.939300  0.319100  0.254400  1.0
  H  H212  1  0.060700  0.680900  0.745600  1.0
  H  H213  1  0.958200  0.280100  0.203700  1.0
  H  H214  1  0.041800  0.719900  0.796300  1.0
  H  H215  1  0.347500  0.940200  0.943200  1.0
  H  H216  1  0.652500  0.059800  0.056800  1.0
  H  H217  1  0.232800  0.890600  0.019200  1.0
  H  H218  1  0.767200  0.109400  0.980800  1.0
  H  H219  1  0.209700  0.973500  0.947900  1.0
  H  H220  1  0.790300  0.026500  0.052100  1.0
  H  H221  1  0.137200  0.995400  0.908900  1.0
  H  H222  1  0.862800  0.004600  0.091100  1.0
  H  H223  1  0.112300  0.974800  0.864600  1.0
  H  H224  1  0.887700  0.025200  0.135400  1.0
  H  H225  1  0.166000  0.899200  0.842700  1.0
  H  H226  1  0.834000  0.100800  0.157300  1.0
  H  H227  1  0.245900  0.849100  0.860900  1.0
  H  H228  1  0.754100  0.150900  0.139100  1.0
  H  H229  1  0.504100  0.976700  0.236600  1.0
  H  H230  1  0.495900  0.023300  0.763400  1.0
  H  H231  1  0.473800  0.844900  0.296900  1.0
  H  H232  1  0.526200  0.155100  0.703100  1.0
  H  H233  1  0.572700  0.856200  0.292800  1.0
  H  H234  1  0.427300  0.143800  0.707200  1.0
  H  H235  1  0.640200  0.820700  0.337300  1.0
  H  H236  1  0.359800  0.179300  0.662700  1.0
  H  H237  1  0.662300  0.828700  0.390900  1.0
  H  H238  1  0.337700  0.171300  0.609100  1.0
  H  H239  1  0.607700  0.901500  0.417300  1.0
  H  H240  1  0.392300  0.098500  0.582700  1.0
  H  H241  1  0.531800  0.957300  0.396600  1.0
  H  H242  1  0.468200  0.042700  0.603400  1.0
  H  H243  1  0.653400  0.758100  0.066400  1.0
  H  H244  1  0.346600  0.241900  0.933600  1.0
  H  H245  1  0.567900  0.662400  0.104300  1.0
  H  H246  1  0.432100  0.337600  0.895700  1.0
  H  H247  1  0.654000  0.653700  0.035100  1.0
  H  H248  1  0.346000  0.346300  0.964900  1.0
  H  H249  1  0.717400  0.573900  0.004200  1.0
  H  H250  1  0.282600  0.426100  0.995800  1.0
  H  H251  1  0.795100  0.500200  0.006000  1.0
  H  H252  1  0.204900  0.499800  0.994000  1.0
  H  H253  1  0.842800  0.479600  0.051000  1.0
  H  H254  1  0.157200  0.520400  0.949000  1.0
  H  H255  1  0.816700  0.530400  0.095700  1.0
  H  H256  1  0.183300  0.469600  0.904300  1.0
  H  H257  1  0.661300  0.538700  0.100700  1.0
  H  H258  1  0.338700  0.461300  0.899300  1.0
  H  H259  1  0.594100  0.598400  0.193700  1.0
  H  H260  1  0.405900  0.401600  0.806300  1.0
  H  H261  1  0.699500  0.509700  0.186000  1.0
  H  H262  1  0.300500  0.490300  0.814000  1.0
  H  H263  1  0.779600  0.482200  0.217800  1.0
  H  H264  1  0.220400  0.517800  0.782200  1.0
  H  H265  1  0.850300  0.502800  0.221900  1.0
  H  H266  1  0.149700  0.497200  0.778100  1.0
  H  H267  1  0.870400  0.572300  0.178700  1.0
  H  H268  1  0.129600  0.427700  0.821300  1.0
  H  H269  1  0.819900  0.624300  0.133400  1.0
  H  H270  1  0.180100  0.375700  0.866600  1.0
  H  H271  1  0.455200  0.326200  0.253800  1.0
  H  H272  1  0.544800  0.673800  0.746200  1.0
  H  H273  1  0.331500  0.418600  0.316300  1.0
  H  H274  1  0.668500  0.581400  0.683700  1.0
  H  H275  1  0.336100  0.311700  0.321400  1.0
  H  H276  1  0.663900  0.688300  0.678600  1.0
  H  H277  1  0.300500  0.245400  0.376000  1.0
  H  H278  1  0.699500  0.754600  0.624000  1.0
  H  H279  1  0.306400  0.190600  0.435300  1.0
  H  H280  1  0.693600  0.809400  0.564700  1.0
  H  H281  1  0.379000  0.173900  0.461300  1.0
  H  H282  1  0.621000  0.826100  0.538700  1.0
  H  H283  1  0.441200  0.213000  0.429400  1.0
  H  H284  1  0.558800  0.787000  0.570600  1.0
  H  H285  1  0.389100  0.718800  0.948200  1.0
  H  H286  1  0.610900  0.281200  0.051800  1.0
  H  H287  1  0.367300  0.821700  0.008700  1.0
  H  H288  1  0.632700  0.178300  0.991300  1.0
  H  H289  1  0.439900  0.820000  0.929400  1.0
  H  H290  1  0.560100  0.180000  0.070600  1.0
  H  H291  1  0.467000  0.889500  0.875400  1.0
  H  H292  1  0.533000  0.110500  0.124600  1.0
  H  H293  1  0.440300  0.963700  0.826500  1.0
  H  H294  1  0.559700  0.036300  0.173500  1.0
  H  H295  1  0.359400  0.987700  0.812900  1.0
  H  H296  1  0.640600  0.012300  0.187100  1.0
  H  H297  1  0.300700  0.944800  0.848900  1.0
  H  H298  1  0.699300  0.055200  0.151100  1.0
  H  H299  1  0.194800  0.519400  0.092700  1.0
  H  H300  1  0.805200  0.480600  0.907300  1.0
  H  H301  1  0.117700  0.651800  0.132600  1.0
  H  H302  1  0.882300  0.348200  0.867400  1.0
  H  H303  1  0.087900  0.641100  0.069200  1.0
  H  H304  1  0.912100  0.358900  0.930800  1.0
  H  H305  1  0.004700  0.668800  0.040400  1.0
  H  H306  1  0.995300  0.331200  0.959600  1.0
  H  H307  1  0.929400  0.651800  0.040800  1.0
  H  H308  1  0.070600  0.348200  0.959200  1.0
  H  H309  1  0.912600  0.579500  0.083800  1.0
  H  H310  1  0.087400  0.420500  0.916200  1.0
  H  H311  1  0.963100  0.531800  0.129300  1.0
  H  H312  1  0.036900  0.468200  0.870700  1.0
  H  H313  1  0.333600  0.017700  0.371200  1.0
  H  H314  1  0.666400  0.982300  0.628800  1.0
  H  H315  1  0.376600  0.967300  0.274200  1.0
  H  H316  1  0.623400  0.032700  0.725800  1.0
  H  H317  1  0.387700  0.066300  0.273900  1.0
  H  H318  1  0.612300  0.933700  0.726100  1.0
  H  H319  1  0.452200  0.117100  0.233800  1.0
  H  H320  1  0.547800  0.882900  0.766200  1.0
  H  H321  1  0.538500  0.120100  0.221700  1.0
  H  H322  1  0.461500  0.879900  0.778300  1.0
  H  H323  1  0.598100  0.057800  0.259000  1.0
  H  H324  1  0.401900  0.942200  0.741000  1.0
  H  H325  1  0.572400  0.996400  0.307200  1.0
  H  H326  1  0.427600  0.003600  0.692800  1.0
  H  H327  1  0.173600  0.756500  0.559800  1.0
  H  H328  1  0.826400  0.243500  0.440200  1.0
  H  H329  1  0.290700  0.676500  0.486300  1.0
  H  H330  1  0.709300  0.323500  0.513700  1.0
  H  H331  1  0.309700  0.678000  0.559500  1.0
  H  H332  1  0.690300  0.322000  0.440500  1.0
  H  H333  1  0.376900  0.605100  0.602500  1.0
  H  H334  1  0.623100  0.394900  0.397500  1.0
  H  H335  1  0.391600  0.528300  0.649000  1.0
  H  H336  1  0.608400  0.471700  0.351000  1.0
  H  H337  1  0.328800  0.487900  0.672300  1.0
  H  H338  1  0.671200  0.512100  0.327700  1.0
  H  H339  1  0.251200  0.522800  0.649800  1.0
  H  H340  1  0.748800  0.477200  0.350200  1.0
  H  H341  1  0.021200  0.153400  0.269700  1.0
  H  H342  1  0.978800  0.846600  0.730300  1.0
  H  H343  1  0.051800  0.049000  0.207200  1.0
  H  H344  1  0.948200  0.951000  0.792800  1.0
  H  H345  1  0.947900  0.143700  0.215300  1.0
  H  H346  1  0.052100  0.856300  0.784700  1.0
  H  H347  1  0.878200  0.206600  0.174400  1.0
  H  H348  1  0.121800  0.793400  0.825600  1.0
  H  H349  1  0.856100  0.280500  0.126800  1.0
  H  H350  1  0.143900  0.719500  0.873200  1.0
  H  H351  1  0.918500  0.318100  0.092300  1.0
  H  H352  1  0.081500  0.681900  0.907700  1.0
  H  H353  1  0.002900  0.287300  0.107200  1.0
  H  H354  1  0.997100  0.712700  0.892800  1.0
  H  H355  1  0.880900  0.912700  0.446700  1.0
  H  H356  1  0.119100  0.087300  0.553300  1.0
  H  H357  1  0.959100  0.789000  0.398100  1.0
  H  H358  1  0.040900  0.211000  0.601900  1.0
  H  H359  1  0.875700  0.788100  0.471500  1.0
  H  H360  1  0.124300  0.211900  0.528500  1.0
  H  H361  1  0.803700  0.744700  0.505600  1.0
  H  H362  1  0.196300  0.255300  0.494400  1.0
  H  H363  1  0.720700  0.740300  0.506500  1.0
  H  H364  1  0.279300  0.259700  0.493500  1.0
  H  H365  1  0.669900  0.802300  0.465000  1.0
  H  H366  1  0.330100  0.197700  0.535000  1.0
  H  H367  1  0.702600  0.863800  0.419600  1.0
  H  H368  1  0.297400  0.136200  0.580400  1.0
  H  H369  1  0.462800  0.117000  0.016400  1.0
  H  H370  1  0.537200  0.883000  0.983600  1.0
  H  H371  1  0.465000  0.091700  0.984500  1.0
  H  H372  1  0.535000  0.908300  0.015500  1.0
  H  H373  1  0.515700  0.076400  0.000600  1.0
  H  H374  1  0.484300  0.923600  0.999400  1.0
  H  H375  1  0.488800  0.475500  0.480600  1.0
  H  H376  1  0.511200  0.524500  0.519400  1.0
  H  H377  1  0.511500  0.500100  0.438100  1.0
  H  H378  1  0.488500  0.499900  0.561900  1.0
  H  H379  1  0.536100  0.438900  0.455100  1.0
  H  H380  1  0.463900  0.561100  0.544900  1.0
  H  H381  1  0.948400  0.045500  0.420500  1.0
  H  H382  1  0.051600  0.954500  0.579500  1.0
  H  H383  1  0.953300  0.091400  0.384400  1.0
  H  H384  1  0.046700  0.908600  0.615600  1.0
  H  H385  1  0.004300  0.041400  0.392700  1.0
  H  H386  1  0.995700  0.958600  0.607300  1.0
  H  H387  1  0.379400  0.716700  0.452500  1.0
  H  H388  1  0.620600  0.283300  0.547500  1.0
  H  H389  1  0.442300  0.691700  0.442700  1.0
  H  H390  1  0.557700  0.308300  0.557300  1.0
  H  H391  1  0.415100  0.745700  0.456500  1.0
  H  H392  1  0.584900  0.254300  0.543500  1.0
  H  H393  1  0.915400  0.560300  0.005900  1.0
  H  H394  1  0.084600  0.439700  0.994100  1.0
  H  H395  1  0.922600  0.607100  0.987100  1.0
  H  H396  1  0.077400  0.392900  0.012900  1.0
  H  H397  1  0.327800  0.488200  0.264400  0.1
  H  H398  1  0.672200  0.511800  0.735600  0.1
  H  H399  1  0.245700  0.764100  0.308300  0.1
  H  H400  1  0.754300  0.235900  0.691700  0.1
  H  H401  1  0.249500  0.716100  0.351400  0.1
  H  H402  1  0.750500  0.283900  0.648600  0.1
  H  H403  1  0.243600  0.701700  0.310800  0.1
  H  H404  1  0.756400  0.298300  0.689200  0.1
  H  H405  1  0.318700  0.514000  0.362500  0.15
  H  H406  1  0.681300  0.486000  0.637500  0.15
  H  H407  1  0.368700  0.814200  0.357900  0.15
  H  H408  1  0.631300  0.185800  0.642100  0.15
  H  H409  1  0.377500  0.754800  0.061600  0.15
  H  H410  1  0.622500  0.245200  0.938400  0.15
  H  H411  1  0.197500  0.652000  0.137700  0.15
  H  H412  1  0.802500  0.348000  0.862300  0.15
  H  H413  1  0.132800  0.058700  0.406200  0.15
  H  H414  1  0.867200  0.941300  0.593800  0.15
  H  H415  1  0.091400  0.030000  0.399500  0.15
  H  H416  1  0.908600  0.970000  0.600500  0.15
  H  H417  1  0.073400  0.057700  0.439600  0.15
  H  H418  1  0.926600  0.942300  0.560400  0.15
  H  H419  1  0.142400  0.695000  0.437100  0.2
  H  H420  1  0.857600  0.305000  0.562900  0.2
  H  H421  1  0.188800  0.554400  0.236400  0.2
  H  H422  1  0.811200  0.445600  0.763600  0.2
  H  H423  1  0.158600  0.982800  0.140000  0.2
  H  H424  1  0.841400  0.017200  0.860000  0.2
  H  H425  1  0.222500  0.769100  0.078200  0.2
  H  H426  1  0.777500  0.230900  0.921800  0.2
  H  H427  1  0.978300  0.545900  0.365400  0.2
  H  H428  1  0.021700  0.454100  0.634600  0.2
  H  H429  1  0.957600  0.494300  0.397700  0.2
  H  H430  1  0.042400  0.505700  0.602300  0.2
  H  H431  1  0.012300  0.480400  0.359600  0.2
  H  H432  1  0.987700  0.519600  0.640400  0.2
  H  H433  1  0.038600  0.877600  0.526100  0.2
  H  H434  1  0.961400  0.122400  0.473900  0.2
  H  H435  1  0.082900  0.815100  0.543500  0.2
  H  H436  1  0.917100  0.184900  0.456500  0.2
  H  H437  1  0.022700  0.843800  0.573500  0.2
  H  H438  1  0.977300  0.156200  0.426500  0.2
  H  H439  1  0.847400  0.909700  0.171700  0.2
  H  H440  1  0.152600  0.090300  0.828300  0.2
  H  H441  1  0.866500  0.848200  0.159900  0.2
  H  H442  1  0.133500  0.151800  0.840100  0.2
  H  H443  1  0.913300  0.865300  0.171700  0.2
  H  H444  1  0.086700  0.134700  0.828300  0.2
  H  H445  1  0.901800  0.873500  0.171300  0.2
  H  H446  1  0.098200  0.126500  0.828700  0.2
  H  H447  1  0.856100  0.873000  0.147500  0.2
  H  H448  1  0.143900  0.127000  0.852500  0.2
  H  H449  1  0.854000  0.933300  0.153600  0.2
  H  H450  1  0.146000  0.066700  0.846400  0.2
  H  H451  1  0.625600  0.787100  0.233100  0.2
  H  H452  1  0.374400  0.212900  0.766900  0.2
  H  H453  1  0.582200  0.759500  0.227600  0.2
  H  H454  1  0.417800  0.240500  0.772400  0.2
  H  H455  1  0.555900  0.818700  0.243900  0.2
  H  H456  1  0.444100  0.181300  0.756100  0.2
  H  H457  1  0.343600  0.823300  0.299700  0.22
  H  H458  1  0.656400  0.176700  0.700300  0.22
  H  H459  1  0.331000  0.837400  0.253600  0.22
  H  H460  1  0.669000  0.162600  0.746400  0.22
  H  H461  1  0.347700  0.771900  0.280500  0.22
  H  H462  1  0.652300  0.228100  0.719500  0.22
  H  H463  1  0.318700  0.733600  0.302500  0.22
  H  H464  1  0.681300  0.266400  0.697500  0.22
  H  H465  1  0.279000  0.705500  0.342600  0.22
  H  H466  1  0.721000  0.294500  0.657400  0.22
  H  H467  1  0.311600  0.744600  0.347700  0.22
  H  H468  1  0.688400  0.255400  0.652300  0.22
  H  H469  1  0.520800  0.719600  0.216200  0.25
  H  H470  1  0.479200  0.280400  0.783800  0.25
  H  H471  1  0.084800  0.981500  0.256300  0.25
  H  H472  1  0.915200  0.018500  0.743700  0.25
  H  H473  1  0.518700  0.449200  0.140100  0.25
  H  H474  1  0.481300  0.550800  0.859900  0.25
  H  H475  1  0.547000  0.391300  0.121900  0.25
  H  H476  1  0.453000  0.608700  0.878100  0.25
  H  H477  1  0.588600  0.421900  0.126200  0.25
  H  H478  1  0.411400  0.578100  0.873800  0.25
  H  H479  1  0.499900  0.463400  0.189800  0.25
  H  H480  1  0.500100  0.536600  0.810200  0.25
  H  H481  1  0.553400  0.449900  0.150900  0.25
  H  H482  1  0.446600  0.550100  0.849100  0.25
  H  H483  1  0.561300  0.468300  0.189100  0.25
  H  H484  1  0.438700  0.531700  0.810900  0.25
  H  H485  1  0.286100  0.838700  0.292600  0.25
  H  H486  1  0.713900  0.161300  0.707400  0.25
  H  H487  1  0.321600  0.837600  0.245400  0.25
  H  H488  1  0.678400  0.162400  0.754600  0.25
  H  H489  1  0.353800  0.833900  0.280600  0.25
  H  H490  1  0.646200  0.166100  0.719400  0.25
  H  H491  1  0.438500  0.732200  0.202800  0.25
  H  H492  1  0.561500  0.267800  0.797200  0.25
  H  H493  1  0.376700  0.744500  0.191800  0.25
  H  H494  1  0.623300  0.255500  0.808200  0.25
  H  H495  1  0.425300  0.680800  0.194700  0.25
  H  H496  1  0.574700  0.319200  0.805300  0.25
  H  H497  1  0.196100  0.922500  0.211500  0.25
  H  H498  1  0.803900  0.077500  0.788500  0.25
  H  H499  1  0.193700  0.863600  0.244900  0.25
  H  H500  1  0.806300  0.136400  0.755100  0.25
  H  H501  1  0.187000  0.872800  0.197800  0.25
  H  H502  1  0.813000  0.127200  0.802200  0.25
  H  H503  1  0.950800  0.577700  0.361300  0.25
  H  H504  1  0.049200  0.422300  0.638700  0.25
  H  H505  1  0.968100  0.515000  0.351900  0.25
  H  H506  1  0.031900  0.485000  0.648100  0.25
  H  H507  1  0.011100  0.527800  0.371100  0.25
  H  H508  1  0.988900  0.472200  0.628900  0.25
  H  H509  1  0.252400  0.283700  0.198300  0.25
  H  H510  1  0.747600  0.716300  0.801700  0.25
  H  H511  1  0.235200  0.251300  0.173200  0.25
  H  H512  1  0.764800  0.748700  0.826800  0.25
  H  H513  1  0.225200  0.233300  0.223300  0.25
  H  H514  1  0.774800  0.766700  0.776700  0.25
  H  H515  1  0.289400  0.279100  0.170700  0.25
  H  H516  1  0.710600  0.720900  0.829300  0.25
  H  H517  1  0.309700  0.238500  0.137800  0.25
  H  H518  1  0.690300  0.761500  0.862200  0.25
  H  H519  1  0.331600  0.212900  0.181500  0.25
  H  H520  1  0.668400  0.787100  0.818500  0.25
  H  H521  1  0.205600  0.251300  0.138500  0.25
  H  H522  1  0.794400  0.748700  0.861500  0.25
  H  H523  1  0.199100  0.215400  0.186100  0.25
  H  H524  1  0.800900  0.784600  0.813900  0.25
  H  H525  1  0.243600  0.251300  0.168500  0.25
  H  H526  1  0.756400  0.748700  0.831500  0.25
  H  H527  1  0.560200  0.374000  0.085300  0.25
  H  H528  1  0.439800  0.626000  0.914700  0.25
  H  H529  1  0.506400  0.353600  0.089000  0.25
  H  H530  1  0.493600  0.646400  0.911000  0.25
  H  H531  1  0.514900  0.367300  0.129100  0.25
  H  H532  1  0.485100  0.632700  0.870900  0.25
  H  H533  1  0.555500  0.446900  0.014800  0.25
  H  H534  1  0.444500  0.553100  0.985200  0.25
  H  H535  1  0.529900  0.394400  0.031200  0.25
  H  H536  1  0.470100  0.605600  0.968800  0.25
  H  H537  1  0.568700  0.401000  0.057700  0.25
  H  H538  1  0.431300  0.599000  0.942300  0.25
  H  H539  1  0.511300  0.437000  0.136900  0.25
  H  H540  1  0.488700  0.563000  0.863100  0.25
  H  H541  1  0.535800  0.368200  0.154400  0.25
  H  H542  1  0.464200  0.631800  0.845600  0.25
  H  H543  1  0.483300  0.395900  0.129200  0.25
  H  H544  1  0.516700  0.604100  0.870800  0.25
  H  H545  1  0.956400  0.165200  0.081900  0.25
  H  H546  1  0.043600  0.834800  0.918100  0.25
  H  H547  1  0.931000  0.127800  0.067200  0.25
  H  H548  1  0.069000  0.872200  0.932800  0.25
  H  H549  1  0.906500  0.140800  0.113400  0.25
  H  H550  1  0.093500  0.859200  0.886600  0.25
  H  H551  1  0.946700  0.177400  0.056000  0.25
  H  H552  1  0.053300  0.822600  0.944000  0.25
  H  H553  1  0.924400  0.122900  0.076500  0.25
  H  H554  1  0.075600  0.877100  0.923500  0.25
  H  H555  1  0.937900  0.152500  0.105700  0.25
  H  H556  1  0.062100  0.847500  0.894300  0.25
  H  H557  1  0.002200  0.747800  0.311600  0.3
  H  H558  1  0.997800  0.252200  0.688400  0.3
  H  H559  1  0.441300  0.843800  0.247200  0.3
  H  H560  1  0.558700  0.156200  0.752800  0.3
  H  H561  1  0.513000  0.597600  0.191400  0.3
  H  H562  1  0.487000  0.402400  0.808600  0.3
  H  H563  1  0.300900  0.941000  0.293200  0.3
  H  H564  1  0.699100  0.059000  0.706800  0.3
  H  H565  1  0.264800  0.743500  0.437400  0.3
  H  H566  1  0.735200  0.256500  0.562600  0.3
  H  H567  1  0.037700  0.802700  0.388200  0.3
  H  H568  1  0.962300  0.197300  0.611800  0.3
  H  H569  1  0.126100  0.041200  0.064500  0.3
  H  H570  1  0.873900  0.958800  0.935500  0.3
  H  H571  1  0.135300  0.089400  0.022900  0.3
  H  H572  1  0.864700  0.910600  0.977100  0.3
  H  H573  1  0.188700  0.030300  0.033000  0.3
  H  H574  1  0.811300  0.969700  0.967000  0.3
  H  H575  1  0.578400  0.508800  0.290300  0.3
  H  H576  1  0.421600  0.491200  0.709700  0.3
  H  H577  1  0.582500  0.487800  0.249600  0.3
  H  H578  1  0.417500  0.512200  0.750400  0.3
  H  H579  1  0.594000  0.546700  0.244400  0.3
  H  H580  1  0.406000  0.453300  0.755600  0.3
  H  H581  1  0.410100  0.695900  0.171500  0.3
  H  H582  1  0.589900  0.304100  0.828500  0.3
  H  H583  1  0.400800  0.687700  0.221200  0.3
  H  H584  1  0.599200  0.312300  0.778800  0.3
  H  H585  1  0.451100  0.712100  0.190300  0.3
  H  H586  1  0.548900  0.287900  0.809700  0.3
  H  H587  1  0.980000  0.470800  0.512100  0.3
  H  H588  1  0.020000  0.529200  0.487900  0.3
  H  H589  1  0.044200  0.435800  0.522800  0.3
  H  H590  1  0.955800  0.564200  0.477200  0.3
  H  H591  1  0.015800  0.407400  0.502400  0.3
  H  H592  1  0.984200  0.592600  0.497600  0.3
  H  H593  1  0.153100  0.100600  0.352400  0.3
  H  H594  1  0.846900  0.899400  0.647600  0.3
  H  H595  1  0.117100  0.057500  0.378100  0.3
  H  H596  1  0.882900  0.942500  0.621900  0.3
  H  H597  1  0.119100  0.103700  0.399800  0.3
  H  H598  1  0.880900  0.896300  0.600200  0.3
  H  H599  1  0.514700  0.690900  0.019400  0.3
  H  H600  1  0.485300  0.309100  0.980600  0.3
  H  H601  1  0.495200  0.642500  0.056800  0.3
  H  H602  1  0.504800  0.357500  0.943200  0.3
  H  H603  1  0.495900  0.644500  0.009300  0.3
  H  H604  1  0.504100  0.355500  0.990700  0.3
  H  H605  1  0.497900  0.575100  0.012300  0.3
  H  H606  1  0.502100  0.424900  0.987700  0.3
  H  H607  1  0.522600  0.533400  0.053400  0.3
  H  H608  1  0.477400  0.466600  0.946600  0.3
  H  H609  1  0.559700  0.523200  0.007800  0.3
  H  H610  1  0.440300  0.476800  0.992200  0.3
  H  H611  1  0.889900  0.903800  0.051300  0.3
  H  H612  1  0.110100  0.096200  0.948700  0.3
  H  H613  1  0.868000  0.877200  0.099600  0.3
  H  H614  1  0.132000  0.122800  0.900400  0.3
  H  H615  1  0.928900  0.841300  0.073800  0.3
  H  H616  1  0.071100  0.158700  0.926200  0.3
  H  H617  1  0.952200  0.962000  0.038300  0.3
  H  H618  1  0.047800  0.038000  0.961700  0.3
  H  H619  1  0.964300  0.937800  0.085200  0.3
  H  H620  1  0.035700  0.062200  0.914800  0.3
  H  H621  1  0.013400  0.912800  0.047100  0.3
  H  H622  1  0.986600  0.087200  0.952900  0.3
  H  H623  1  0.301100  0.207600  0.275200  0.3
  H  H624  1  0.698900  0.792400  0.724800  0.3
  H  H625  1  0.302100  0.152100  0.313100  0.3
  H  H626  1  0.697900  0.847900  0.686900  0.3
  H  H627  1  0.343900  0.144200  0.268300  0.3
  H  H628  1  0.656100  0.855800  0.731700  0.3
  H  H629  1  0.958400  0.738200  0.504200  0.3
  H  H630  1  0.041600  0.261800  0.495800  0.3
  H  H631  1  0.014000  0.720500  0.467400  0.3
  H  H632  1  0.986000  0.279500  0.532600  0.3
  H  H633  1  0.015400  0.683300  0.514400  0.3
  H  H634  1  0.984600  0.316700  0.485600  0.3
  H  H635  1  0.314100  0.770900  0.153300  0.3333
  H  H636  1  0.685900  0.229100  0.846700  0.3333
  H  H637  1  0.249600  0.766500  0.170800  0.3333
  H  H638  1  0.750400  0.233500  0.829200  0.3333
  H  H639  1  0.288600  0.745200  0.128600  0.3333
  H  H640  1  0.711400  0.254800  0.871400  0.3333
  H  H641  1  0.395200  0.751200  0.202300  0.3333
  H  H642  1  0.604800  0.248800  0.797700  0.3333
  H  H643  1  0.447700  0.697500  0.185700  0.3333
  H  H644  1  0.552300  0.302500  0.814300  0.3333
  H  H645  1  0.417600  0.690600  0.234500  0.3333
  H  H646  1  0.582400  0.309400  0.765500  0.3333
  H  H647  1  0.346800  0.615100  0.296000  0.3333
  H  H648  1  0.653200  0.384900  0.704000  0.3333
  H  H649  1  0.333900  0.563500  0.287900  0.3333
  H  H650  1  0.666100  0.436500  0.712100  0.3333
  H  H651  1  0.280400  0.619300  0.300700  0.3333
  H  H652  1  0.719600  0.380700  0.699300  0.3333
  H  H653  1  0.297700  0.600400  0.423600  0.35
  H  H654  1  0.702300  0.399600  0.576400  0.35
  H  H655  1  0.451200  0.508100  0.283000  0.35
  H  H656  1  0.548800  0.491900  0.717000  0.35
  H  H657  1  0.008800  0.894500  0.284600  0.35
  H  H658  1  0.991200  0.105500  0.715400  0.35
  H  H659  1  0.175600  0.709500  0.211100  0.375
  H  H660  1  0.824400  0.290500  0.788900  0.375
  H  H661  1  0.203800  0.640200  0.218100  0.375
  H  H662  1  0.796200  0.359800  0.781900  0.375
  H  H663  1  0.244900  0.678200  0.209200  0.375
  H  H664  1  0.755100  0.321800  0.790800  0.375
  H  H665  1  0.977700  0.100300  0.478400  0.375
  H  H666  1  0.022300  0.899700  0.521600  0.375
  H  H667  1  0.990100  0.043800  0.515700  0.375
  H  H668  1  0.009900  0.956200  0.484300  0.375
  H  H669  1  0.949900  0.051600  0.484400  0.375
  H  H670  1  0.050100  0.948400  0.515600  0.375
  H  H671  1  0.203700  0.010300  0.459800  0.375
  H  H672  1  0.796300  0.989700  0.540200  0.375
  H  H673  1  0.170900  0.976600  0.448300  0.375
  H  H674  1  0.829100  0.023400  0.551700  0.375
  H  H675  1  0.221900  0.941100  0.474900  0.375
  H  H676  1  0.778100  0.058900  0.525100  0.375
  H  H677  1  0.153900  0.009500  0.497500  0.375
  H  H678  1  0.846100  0.990500  0.502500  0.375
  H  H679  1  0.193800  0.013400  0.451200  0.375
  H  H680  1  0.806200  0.986600  0.548800  0.375
  H  H681  1  0.190300  0.951800  0.479400  0.375
  H  H682  1  0.809700  0.048200  0.520600  0.375
  H  H683  1  0.226300  0.998600  0.208300  0.38
  H  H684  1  0.773700  0.001400  0.791700  0.38
  H  H685  1  0.067100  0.684000  0.219700  0.4
  H  H686  1  0.932900  0.316000  0.780300  0.4
  H  H687  1  0.262800  0.896700  0.067900  0.4
  H  H688  1  0.737200  0.103300  0.932100  0.4
  H  H689  1  0.490400  0.733200  0.111800  0.4
  H  H690  1  0.509600  0.266800  0.888200  0.4
  H  H691  1  0.320000  0.840700  0.658500  0.4
  H  H692  1  0.680000  0.159300  0.341500  0.4
  H  H693  1  0.293900  0.830800  0.707900  0.4
  H  H694  1  0.706100  0.169200  0.292100  0.4
  H  H695  1  0.340400  0.864300  0.687700  0.4
  H  H696  1  0.659600  0.135700  0.312300  0.4
  H  H697  1  0.328200  0.614300  0.246200  0.4
  H  H698  1  0.671800  0.385700  0.753800  0.4
  H  H699  1  0.279400  0.613400  0.288500  0.4
  H  H700  1  0.720600  0.386600  0.711500  0.4
  H  H701  1  0.344100  0.566100  0.287700  0.4
  H  H702  1  0.655900  0.433900  0.712300  0.4
  H  H703  1  0.288300  0.796000  0.112100  0.4
  H  H704  1  0.711700  0.204000  0.887900  0.4
  H  H705  1  0.232100  0.800300  0.149600  0.4
  H  H706  1  0.767900  0.199700  0.850400  0.4
  H  H707  1  0.288400  0.742100  0.151200  0.4
  H  H708  1  0.711600  0.257900  0.848800  0.4
  H  H709  1  0.950100  0.791000  0.210600  0.4
  H  H710  1  0.049900  0.209000  0.789400  0.4
  H  H711  1  0.932100  0.739100  0.244800  0.4
  H  H712  1  0.067900  0.260900  0.755200  0.4
  H  H713  1  0.950800  0.782200  0.258900  0.4
  H  H714  1  0.049200  0.217800  0.741100  0.4
  H  H715  1  0.375300  0.555100  0.984800  0.4
  H  H716  1  0.624700  0.444900  0.015200  0.4
  H  H717  1  0.324800  0.531900  0.016800  0.4
  H  H718  1  0.675200  0.468100  0.983200  0.4
  H  H719  1  0.370600  0.543100  0.034400  0.4
  H  H720  1  0.629400  0.456900  0.965600  0.4
  H  H721  1  0.337900  0.079500  0.995800  0.425
  H  H722  1  0.662100  0.920500  0.004200  0.425
  H  H723  1  0.333000  0.034600  0.040100  0.425
  H  H724  1  0.667000  0.965400  0.959900  0.425
  H  H725  1  0.344300  0.093000  0.036700  0.425
  H  H726  1  0.655700  0.907000  0.963300  0.425
  H  H727  1  0.366800  0.998400  0.455900  0.43
  H  H728  1  0.633200  0.001600  0.544100  0.43
  H  H729  1  0.360100  0.085500  0.445600  0.43
  H  H730  1  0.639900  0.914500  0.554400  0.43
  H  H731  1  0.402300  0.124600  0.388000  0.43
  H  H732  1  0.597700  0.875400  0.612000  0.43
  H  H733  1  0.448200  0.076400  0.341300  0.43
  H  H734  1  0.551800  0.923600  0.658700  0.43
  H  H735  1  0.355200  0.133700  0.127600  0.5
  H  H736  1  0.644800  0.866300  0.872400  0.5
  H  H737  1  0.377700  0.065400  0.129100  0.5
  H  H738  1  0.622300  0.934600  0.870900  0.5
  H  H739  1  0.413900  0.105000  0.096300  0.5
  H  H740  1  0.586100  0.895000  0.903700  0.5
  H  H741  1  0.287700  0.436100  0.208100  0.5
  H  H742  1  0.712300  0.563900  0.791900  0.5
  H  H743  1  0.318000  0.457100  0.160700  0.5
  H  H744  1  0.682000  0.542900  0.839300  0.5
  H  H745  1  0.354600  0.400800  0.190300  0.5
  H  H746  1  0.645400  0.599200  0.809700  0.5
  H  H747  1  0.561800  0.466500  0.230900  0.5
  H  H748  1  0.438200  0.533500  0.769100  0.5
  H  H749  1  0.597600  0.408200  0.259500  0.5
  H  H750  1  0.402400  0.591800  0.740500  0.5
  H  H751  1  0.628100  0.430300  0.212400  0.5
  H  H752  1  0.371900  0.569700  0.787600  0.5
  H  H753  1  0.898700  0.072300  0.271000  0.5
  H  H754  1  0.101300  0.927700  0.729000  0.5
  H  H755  1  0.951700  0.013000  0.264900  0.5
  H  H756  1  0.048300  0.987000  0.735100  0.5
  H  H757  1  0.885300  0.016900  0.269900  0.5
  H  H758  1  0.114700  0.983100  0.730100  0.5
  H  H759  1  0.852500  0.025900  0.247300  0.5
  H  H760  1  0.147500  0.974100  0.752700  0.5
  H  H761  1  0.844800  0.080300  0.264600  0.5
  H  H762  1  0.155200  0.919700  0.735400  0.5
  H  H763  1  0.904200  0.025200  0.265600  0.5
  H  H764  1  0.095800  0.974800  0.734400  0.5
  H  H765  1  0.134900  0.312700  0.274400  0.5
  H  H766  1  0.865100  0.687300  0.725600  0.5
  H  H767  1  0.184800  0.338800  0.244900  0.5
  H  H768  1  0.815200  0.661200  0.755100  0.5
  H  H769  1  0.193800  0.271800  0.250100  0.5
  H  H770  1  0.806200  0.728200  0.749900  0.5
  H  H771  1  0.772900  0.659200  0.286900  0.5
  H  H772  1  0.227100  0.340800  0.713100  0.5
  H  H773  1  0.814700  0.634500  0.246500  0.5
  H  H774  1  0.185300  0.365500  0.753500  0.5
  H  H775  1  0.832600  0.605200  0.291500  0.5
  H  H776  1  0.167400  0.394800  0.708500  0.5
  H  H777  1  0.671900  0.660100  0.352100  0.5
  H  H778  1  0.328100  0.339900  0.647900  0.5
  H  H779  1  0.646000  0.630200  0.330900  0.5
  H  H780  1  0.354000  0.369800  0.669100  0.5
  H  H781  1  0.606500  0.658200  0.370500  0.5
  H  H782  1  0.393500  0.341800  0.629500  0.5
  H  H783  1  0.997000  0.050500  0.007200  0.5
  H  H784  1  0.003000  0.949500  0.992800  0.5
  H  H785  1  0.942600  0.030100  0.034500  0.5
  H  H786  1  0.057400  0.969900  0.965500  0.5
  H  H787  1  0.997600  0.015900  0.054900  0.5
  H  H788  1  0.002400  0.984100  0.945100  0.5
  H  H789  1  0.175400  0.671800  0.202200  0.54
  H  H790  1  0.824600  0.328200  0.797800  0.54
  H  H791  1  0.181500  0.666500  0.248700  0.54
  H  H792  1  0.818500  0.333500  0.751300  0.54
  H  H793  1  0.237700  0.662300  0.211100  0.54
  H  H794  1  0.762300  0.337700  0.788900  0.54
  H  H795  1  0.229400  0.681400  0.355200  0.56
  H  H796  1  0.770600  0.318600  0.644800  0.56
  H  H797  1  0.238600  0.702400  0.391500  0.56
  H  H798  1  0.761400  0.297600  0.608500  0.56
  H  H799  1  0.289600  0.691200  0.350900  0.56
  H  H800  1  0.710400  0.308800  0.649100  0.56
  H  H801  1  0.388600  0.976400  0.467500  0.57
  H  H802  1  0.611400  0.023600  0.532500  0.57
  H  H803  1  0.392700  0.057400  0.465300  0.57
  H  H804  1  0.607300  0.942600  0.534700  0.57
  H  H805  1  0.430400  0.102800  0.408700  0.57
  H  H806  1  0.569600  0.897200  0.591300  0.57
  H  H807  1  0.460000  0.068000  0.355000  0.57
  H  H808  1  0.540000  0.932000  0.645000  0.57
  H  H809  1  0.991100  0.750200  0.133600  0.6
  H  H810  1  0.008900  0.249800  0.866400  0.6
  H  H811  1  0.378100  0.943500  0.992900  0.6
  H  H812  1  0.621900  0.056500  0.007100  0.6
  H  H813  1  0.576000  0.829300  0.075500  0.6
  H  H814  1  0.424000  0.170700  0.924500  0.6
  H  H815  1  0.343900  0.269500  0.261800  0.6
  H  H816  1  0.656100  0.730500  0.738200  0.6
  H  H817  1  0.325700  0.219900  0.255700  0.6
  H  H818  1  0.674300  0.780100  0.744300  0.6
  H  H819  1  0.389300  0.224800  0.233200  0.6
  H  H820  1  0.610700  0.775200  0.766800  0.6
  H  H821  1  0.274900  0.096900  0.117000  0.62
  H  H822  1  0.725100  0.903100  0.883000  0.62
  H  H823  1  0.125100  0.810900  0.311800  0.625
  H  H824  1  0.874900  0.189100  0.688200  0.625
  H  H825  1  0.073900  0.791000  0.309200  0.625
  H  H826  1  0.926100  0.209000  0.690800  0.625
  H  H827  1  0.119600  0.806300  0.267500  0.625
  H  H828  1  0.880400  0.193700  0.732500  0.625
  H  H829  1  0.405900  0.579400  0.481000  0.65
  H  H830  1  0.594100  0.420600  0.519000  0.65
  H  H831  1  0.533100  0.440600  0.366400  0.65
  H  H832  1  0.466900  0.559400  0.633600  0.65
  H  H833  1  0.888100  0.917800  0.238900  0.65
  H  H834  1  0.111900  0.082200  0.761100  0.65
  H  H835  1  0.936300  0.668400  0.407100  0.7
  H  H836  1  0.063700  0.331600  0.592900  0.7
  H  H837  1  0.471400  0.976300  0.187100  0.7
  H  H838  1  0.528600  0.023700  0.812900  0.7
  H  H839  1  0.580400  0.537600  0.098100  0.7
  H  H840  1  0.419600  0.462400  0.901900  0.7
  H  H841  1  0.259800  0.993100  0.388300  0.7
  H  H842  1  0.740200  0.006900  0.611700  0.7
  H  H843  1  0.151100  0.826400  0.510800  0.7
  H  H844  1  0.848900  0.173600  0.489200  0.7
  H  H845  1  0.960200  0.929300  0.434000  0.7
  H  H846  1  0.039800  0.070700  0.566000  0.7
  H  H847  1  0.635000  0.606600  0.267700  0.75
  H  H848  1  0.365000  0.393400  0.732300  0.75
  H  H849  1  0.057100  0.085400  0.317500  0.75
  H  H850  1  0.942900  0.914600  0.682500  0.75
  H  H851  1  0.337100  0.341300  0.099000  0.75
  H  H852  1  0.662900  0.658700  0.901000  0.75
  H  H853  1  0.389200  0.355700  0.077800  0.75
  H  H854  1  0.610800  0.644300  0.922200  0.75
  H  H855  1  0.360800  0.338400  0.055600  0.75
  H  H856  1  0.639200  0.661600  0.944400  0.75
  H  H857  1  0.118400  0.560900  0.497400  0.8
  H  H858  1  0.881600  0.439100  0.502600  0.8
  H  H859  1  0.070000  0.502800  0.298500  0.8
  H  H860  1  0.930000  0.497200  0.701500  0.8
  H  H861  1  0.005700  0.050500  0.131200  0.8
  H  H862  1  0.994300  0.949500  0.868800  0.8
  H  H863  1  0.112400  0.882800  0.021900  0.8
  H  H864  1  0.887600  0.117200  0.978100  0.8
  H  H865  1  0.243300  0.409800  0.400300  0.85
  H  H866  1  0.756700  0.590200  0.599700  0.85
  H  H867  1  0.514800  0.745200  0.379400  0.85
  H  H868  1  0.485200  0.254800  0.620600  0.85
  H  H869  1  0.399100  0.652000  0.002100  0.85
  H  H870  1  0.600900  0.348000  0.997900  0.85
  H  H871  1  0.274700  0.520500  0.097800  0.85
  H  H872  1  0.725300  0.479500  0.902200  0.85
  H  H873  1  0.449300  0.395300  0.201300  0.9
  H  H874  1  0.550700  0.604700  0.798700  0.9
  H  H875  1  0.160800  0.919800  0.230000  0.46
  H  H876  1  0.839200  0.080200  0.770000  0.46
  H  H877  1  0.228000  0.888600  0.209900  0.46
  H  H878  1  0.772000  0.111400  0.790100  0.46
  H  H879  1  0.202000  0.865400  0.258000  0.46
  H  H880  1  0.798000  0.134600  0.742000  0.46
  C  C881  1  0.413300  0.988100  0.404400  0.43
  C  C882  1  0.586700  0.011900  0.595600  0.43
  C  C883  1  0.383800  0.014900  0.432800  0.43
  C  C884  1  0.616200  0.985100  0.567200  0.43
  C  C885  1  0.379800  0.066100  0.426600  0.43
  C  C886  1  0.620200  0.933900  0.573400  0.43
  C  C887  1  0.404600  0.089300  0.392600  0.43
  C  C888  1  0.595400  0.910700  0.607400  0.43
  C  C889  1  0.433100  0.060000  0.365200  0.43
  C  C890  1  0.566900  0.940000  0.634800  0.43
  C  C891  1  0.127300  0.613200  0.427300  1.0
  C  C892  1  0.872700  0.386800  0.572700  1.0
  C  C893  1  0.130100  0.626300  0.461600  1.0
  C  C894  1  0.869900  0.373700  0.538400  1.0
  C  C895  1  0.125300  0.591400  0.496100  1.0
  C  C896  1  0.874700  0.408600  0.503900  1.0
  C  C897  1  0.130300  0.600100  0.528500  1.0
  C  C898  1  0.869700  0.399900  0.471500  1.0
  C  C899  1  0.140500  0.644500  0.526500  1.0
  C  C900  1  0.859500  0.355500  0.473500  1.0
  C  C901  1  0.145100  0.680500  0.492100  1.0
  C  C902  1  0.854900  0.319500  0.507900  1.0
  C  C903  1  0.139600  0.670600  0.460400  1.0
  C  C904  1  0.860400  0.329400  0.539600  1.0
  C  C905  1  0.110400  0.688400  0.575400  1.0
  C  C906  1  0.889600  0.311600  0.424600  1.0
  C  C907  1  0.118300  0.696000  0.609100  1.0
  C  C908  1  0.881700  0.304000  0.390900  1.0
  C  C909  1  0.081900  0.735500  0.627700  1.0
  C  C910  1  0.918100  0.264500  0.372300  1.0
  C  C911  1  0.096500  0.739500  0.658600  1.0
  C  C912  1  0.903500  0.260500  0.341400  1.0
  C  C913  1  0.140100  0.705100  0.669100  1.0
  C  C914  1  0.859900  0.294900  0.330900  1.0
  C  C915  1  0.176500  0.667200  0.648600  1.0
  C  C916  1  0.823500  0.332800  0.351400  1.0
  C  C917  1  0.220700  0.510400  0.374600  1.0
  C  C918  1  0.779300  0.489600  0.625400  1.0
  C  C919  1  0.273500  0.468700  0.379500  1.0
  C  C920  1  0.726500  0.531300  0.620500  1.0
  C  C921  1  0.275300  0.417300  0.393100  1.0
  C  C922  1  0.724700  0.582700  0.606900  1.0
  C  C923  1  0.322500  0.376600  0.396500  1.0
  C  C924  1  0.677500  0.623400  0.603500  1.0
  C  C925  1  0.369600  0.387400  0.386000  1.0
  C  C926  1  0.630400  0.612600  0.614000  1.0
  C  C927  1  0.368200  0.439000  0.373800  1.0
  C  C928  1  0.631800  0.561000  0.626200  1.0
  C  C929  1  0.319700  0.478800  0.370800  1.0
  C  C930  1  0.680300  0.521200  0.629200  1.0
  C  C931  1  0.442700  0.340100  0.412600  1.0
  C  C932  1  0.557300  0.659900  0.587400  1.0
  C  C933  1  0.492100  0.295900  0.414800  1.0
  C  C934  1  0.507900  0.704100  0.585200  1.0
  C  C935  1  0.523500  0.285900  0.439800  1.0
  C  C936  1  0.476500  0.714100  0.560200  1.0
  C  C937  1  0.569300  0.242300  0.439700  1.0
  C  C938  1  0.430700  0.757700  0.560300  1.0
  C  C939  1  0.579200  0.210500  0.415300  1.0
  C  C940  1  0.420800  0.789500  0.584700  1.0
  C  C941  1  0.547400  0.224100  0.390200  1.0
  C  C942  1  0.452600  0.775900  0.609800  1.0
  C  C943  1  0.128000  0.551600  0.306000  1.0
  C  C944  1  0.872000  0.448400  0.694000  1.0
  C  C945  1  0.129000  0.533400  0.272300  1.0
  C  C946  1  0.871000  0.466600  0.727700  1.0
  C  C947  1  0.092900  0.509300  0.275000  1.0
  C  C948  1  0.907100  0.490700  0.725000  1.0
  C  C949  1  0.089600  0.494900  0.244900  1.0
  C  C950  1  0.910400  0.505100  0.755100  1.0
  C  C951  1  0.123400  0.505000  0.209900  1.0
  C  C952  1  0.876600  0.495000  0.790100  1.0
  C  C953  1  0.161400  0.525600  0.207100  1.0
  C  C954  1  0.838600  0.474400  0.792900  1.0
  C  C955  1  0.163000  0.539700  0.238500  1.0
  C  C956  1  0.837000  0.460300  0.761500  1.0
  C  C957  1  0.155300  0.453200  0.165500  1.0
  C  C958  1  0.844700  0.546800  0.834500  1.0
  C  C959  1  0.152500  0.444200  0.130900  1.0
  C  C960  1  0.847500  0.555800  0.869100  1.0
  C  C961  1  0.190800  0.405900  0.112300  1.0
  C  C962  1  0.809200  0.594100  0.887700  1.0
  C  C963  1  0.186200  0.404400  0.077100  1.0
  C  C964  1  0.813800  0.595600  0.922900  1.0
  C  C965  1  0.143900  0.438600  0.064200  1.0
  C  C966  1  0.856100  0.561400  0.935800  1.0
  C  C967  1  0.105800  0.476300  0.083200  1.0
  C  C968  1  0.894200  0.523700  0.916800  1.0
  C  C969  1  0.031300  0.659000  0.360500  1.0
  C  C970  1  0.968700  0.341000  0.639500  1.0
  C  C971  1  0.978900  0.702100  0.360000  1.0
  C  C972  1  0.021100  0.297900  0.640000  1.0
  C  C973  1  0.934300  0.699500  0.388300  1.0
  C  C974  1  0.065700  0.300500  0.611700  1.0
  C  C975  1  0.887700  0.740900  0.389300  1.0
  C  C976  1  0.112300  0.259100  0.610700  1.0
  C  C977  1  0.884000  0.784500  0.361900  1.0
  C  C978  1  0.116000  0.215500  0.638100  1.0
  C  C979  1  0.926300  0.788000  0.332000  1.0
  C  C980  1  0.073700  0.212000  0.668000  1.0
  C  C981  1  0.973200  0.746000  0.331800  1.0
  C  C982  1  0.026800  0.254000  0.668200  1.0
  C  C983  1  0.806700  0.836500  0.339400  1.0
  C  C984  1  0.193300  0.163500  0.660600  1.0
  C  C985  1  0.759600  0.884500  0.338300  1.0
  C  C986  1  0.240400  0.115500  0.661700  1.0
  C  C987  1  0.727200  0.899800  0.313700  1.0
  C  C988  1  0.272800  0.100200  0.686300  1.0
  C  C989  1  0.686600  0.946600  0.313300  1.0
  C  C990  1  0.313400  0.053400  0.686700  1.0
  C  C991  1  0.680600  0.977400  0.337300  1.0
  C  C992  1  0.319400  0.022600  0.662700  1.0
  C  C993  1  0.715100  0.958800  0.361900  1.0
  C  C994  1  0.284900  0.041200  0.638100  1.0
  C  C995  1  0.395000  0.605700  0.410500  1.0
  C  C996  1  0.605000  0.394300  0.589500  1.0
  C  C997  1  0.357200  0.593900  0.446700  1.0
  C  C998  1  0.642800  0.406100  0.553300  1.0
  C  C999  1  0.371600  0.581400  0.480500  1.0
  C  C1000  1  0.628400  0.418600  0.519500  1.0
  C  C1001  1  0.336800  0.571600  0.514800  1.0
  C  C1002  1  0.663200  0.428400  0.485200  1.0
  C  C1003  1  0.287300  0.574800  0.513900  1.0
  C  C1004  1  0.712700  0.425200  0.486100  1.0
  C  C1005  1  0.272500  0.584900  0.480200  1.0
  C  C1006  1  0.727500  0.415100  0.519800  1.0
  C  C1007  1  0.307600  0.594000  0.446900  1.0
  C  C1008  1  0.692400  0.406000  0.553100  1.0
  C  C1009  1  0.244700  0.521100  0.559700  1.0
  C  C1010  1  0.755300  0.478900  0.440300  1.0
  C  C1011  1  0.204600  0.514800  0.594600  1.0
  C  C1012  1  0.795400  0.485200  0.405400  1.0
  C  C1013  1  0.192700  0.469400  0.609000  1.0
  C  C1014  1  0.807300  0.530600  0.391000  1.0
  C  C1015  1  0.151500  0.470000  0.641300  1.0
  C  C1016  1  0.848500  0.530000  0.358700  1.0
  C  C1017  1  0.128500  0.509800  0.656400  1.0
  C  C1018  1  0.871500  0.490200  0.343600  1.0
  C  C1019  1  0.141800  0.554400  0.641300  1.0
  C  C1020  1  0.858200  0.445600  0.358700  1.0
  C  C1021  1  0.481900  0.534900  0.332100  1.0
  C  C1022  1  0.518100  0.465100  0.667900  1.0
  C  C1023  1  0.489600  0.483600  0.326000  1.0
  C  C1024  1  0.510400  0.516400  0.674000  1.0
  C  C1025  1  0.517200  0.438100  0.348500  1.0
  C  C1026  1  0.482800  0.561900  0.651500  1.0
  C  C1027  1  0.522200  0.389400  0.345400  1.0
  C  C1028  1  0.477800  0.610600  0.654600  1.0
  C  C1029  1  0.498800  0.385300  0.319900  1.0
  C  C1030  1  0.501200  0.614700  0.680100  1.0
  C  C1031  1  0.473500  0.429200  0.296200  1.0
  C  C1032  1  0.526500  0.570800  0.703800  1.0
  C  C1033  1  0.469100  0.477800  0.299500  1.0
  C  C1034  1  0.530900  0.522200  0.700500  1.0
  C  C1035  1  0.538200  0.310100  0.295600  1.0
  C  C1036  1  0.461800  0.689900  0.704400  1.0
  C  C1037  1  0.537700  0.258400  0.295900  1.0
  C  C1038  1  0.462300  0.741600  0.704100  1.0
  C  C1039  1  0.574300  0.226800  0.272400  1.0
  C  C1040  1  0.425700  0.773200  0.727600  1.0
  C  C1041  1  0.571000  0.178900  0.275400  1.0
  C  C1042  1  0.429000  0.821100  0.724600  1.0
  C  C1043  1  0.531000  0.165000  0.301500  1.0
  C  C1044  1  0.469000  0.835000  0.698500  1.0
  C  C1045  1  0.495600  0.198600  0.324200  1.0
  C  C1046  1  0.504400  0.801400  0.675800  1.0
  C  C1047  1  0.532100  0.651300  0.282500  1.0
  C  C1048  1  0.467900  0.348700  0.717500  1.0
  C  C1049  1  0.571500  0.662200  0.247600  1.0
  C  C1050  1  0.428500  0.337800  0.752400  1.0
  C  C1051  1  0.624400  0.632200  0.246100  1.0
  C  C1052  1  0.375600  0.367800  0.753900  1.0
  C  C1053  1  0.662500  0.638700  0.213500  1.0
  C  C1054  1  0.337500  0.361300  0.786500  1.0
  C  C1055  1  0.646200  0.674100  0.181700  1.0
  C  C1056  1  0.353800  0.325900  0.818300  1.0
  C  C1057  1  0.593600  0.704800  0.183100  1.0
  C  C1058  1  0.406400  0.295200  0.816900  1.0
  C  C1059  1  0.556800  0.698600  0.215700  1.0
  C  C1060  1  0.443200  0.301400  0.784300  1.0
  C  C1061  1  0.700000  0.716300  0.136300  1.0
  C  C1062  1  0.300000  0.283700  0.863700  1.0
  C  C1063  1  0.739400  0.718600  0.101700  1.0
  C  C1064  1  0.260600  0.281400  0.898300  1.0
  C  C1065  1  0.758600  0.760300  0.084900  1.0
  C  C1066  1  0.241400  0.239700  0.915100  1.0
  C  C1067  1  0.799400  0.754400  0.052800  1.0
  C  C1068  1  0.200600  0.245600  0.947200  1.0
  C  C1069  1  0.814400  0.711700  0.038700  1.0
  C  C1070  1  0.185600  0.288300  0.961300  1.0
  C  C1071  1  0.791600  0.674200  0.055100  1.0
  C  C1072  1  0.208400  0.325800  0.944900  1.0
  C  C1073  1  0.447800  0.721400  0.360900  1.0
  C  C1074  1  0.552200  0.278600  0.639100  1.0
  C  C1075  1  0.442100  0.772300  0.367200  1.0
  C  C1076  1  0.557900  0.227700  0.632800  1.0
  C  C1077  1  0.484700  0.775600  0.375900  1.0
  C  C1078  1  0.515300  0.224400  0.624100  1.0
  C  C1079  1  0.484500  0.822800  0.379700  1.0
  C  C1080  1  0.515500  0.177200  0.620300  1.0
  C  C1081  1  0.440800  0.866200  0.375000  1.0
  C  C1082  1  0.559200  0.133800  0.625000  1.0
  C  C1083  1  0.396700  0.863300  0.368000  1.0
  C  C1084  1  0.603300  0.136700  0.632000  1.0
  C  C1085  1  0.398500  0.816000  0.363600  1.0
  C  C1086  1  0.601500  0.184000  0.636400  1.0
  C  C1087  1  0.418700  0.930300  0.408500  1.0
  C  C1088  1  0.581300  0.069700  0.591500  1.0
  C  C1089  1  0.991700  0.889800  0.221400  1.0
  C  C1090  1  0.008300  0.110200  0.778600  1.0
  C  C1091  1  0.954500  0.903000  0.256400  1.0
  C  C1092  1  0.045500  0.097000  0.743600  1.0
  C  C1093  1  0.900900  0.915300  0.260100  1.0
  C  C1094  1  0.099100  0.084700  0.739900  1.0
  C  C1095  1  0.864700  0.924300  0.293400  1.0
  C  C1096  1  0.135300  0.075700  0.706600  1.0
  C  C1097  1  0.884300  0.921400  0.324000  1.0
  C  C1098  1  0.115700  0.078600  0.676000  1.0
  C  C1099  1  0.938100  0.910200  0.321400  1.0
  C  C1100  1  0.061900  0.089800  0.678600  1.0
  C  C1101  1  0.972200  0.901600  0.287000  1.0
  C  C1102  1  0.027800  0.098400  0.713000  1.0
  C  C1103  1  0.838900  0.971600  0.369000  1.0
  C  C1104  1  0.161100  0.028400  0.631000  1.0
  C  C1105  1  0.800900  0.979800  0.403100  1.0
  C  C1106  1  0.199100  0.020200  0.596900  1.0
  C  C1107  1  0.787000  0.023300  0.417300  1.0
  C  C1108  1  0.213000  0.976700  0.582700  1.0
  C  C1109  1  0.747900  0.028200  0.450200  1.0
  C  C1110  1  0.252100  0.971800  0.549800  1.0
  C  C1111  1  0.728700  0.989400  0.467600  1.0
  C  C1112  1  0.271300  0.010600  0.532400  1.0
  C  C1113  1  0.744800  0.945100  0.453300  1.0
  C  C1114  1  0.255200  0.054900  0.546700  1.0
  C  C1115  1  0.039700  0.775100  0.170700  1.0
  C  C1116  1  0.960300  0.224900  0.829300  1.0
  C  C1117  1  0.031300  0.724800  0.175800  1.0
  C  C1118  1  0.968700  0.275200  0.824200  1.0
  C  C1119  1  0.005200  0.720300  0.152000  1.0
  C  C1120  1  0.994800  0.279700  0.848000  1.0
  C  C1121  1  0.999100  0.673300  0.154000  1.0
  C  C1122  1  0.000900  0.326700  0.846000  1.0
  C  C1123  1  0.020600  0.630900  0.180300  1.0
  C  C1124  1  0.979400  0.369100  0.819700  1.0
  C  C1125  1  0.045300  0.634100  0.205000  1.0
  C  C1126  1  0.954700  0.365900  0.795000  1.0
  C  C1127  1  0.050200  0.681600  0.202400  1.0
  C  C1128  1  0.949800  0.318400  0.797600  1.0
  C  C1129  1  0.983400  0.565200  0.206100  1.0
  C  C1130  1  0.016600  0.434800  0.793900  1.0
  C  C1131  1  0.983400  0.513700  0.207800  1.0
  C  C1132  1  0.016600  0.486300  0.792200  1.0
  C  C1133  1  0.951200  0.489700  0.235100  1.0
  C  C1134  1  0.048800  0.510300  0.764900  1.0
  C  C1135  1  0.957100  0.439100  0.234500  1.0
  C  C1136  1  0.042900  0.560900  0.765500  1.0
  C  C1137  1  0.992700  0.416400  0.206200  1.0
  C  C1138  1  0.007300  0.583600  0.793800  1.0
  C  C1139  1  0.025000  0.442200  0.180200  1.0
  C  C1140  1  0.975000  0.557800  0.819800  1.0
  C  C1141  1  0.076000  0.956200  0.142200  1.0
  C  C1142  1  0.924000  0.043800  0.857800  1.0
  C  C1143  1  0.082700  0.008100  0.136300  1.0
  C  C1144  1  0.917300  0.991900  0.863700  1.0
  C  C1145  1  0.037900  0.053300  0.132000  1.0
  C  C1146  1  0.962100  0.946700  0.868000  1.0
  C  C1147  1  0.040300  0.101700  0.129000  1.0
  C  C1148  1  0.959700  0.898300  0.871000  1.0
  C  C1149  1  0.086400  0.105500  0.130100  1.0
  C  C1150  1  0.913600  0.894500  0.869900  1.0
  C  C1151  1  0.132100  0.061700  0.132400  1.0
  C  C1152  1  0.867900  0.938300  0.867600  1.0
  C  C1153  1  0.128400  0.013200  0.136700  1.0
  C  C1154  1  0.871600  0.986800  0.863300  1.0
  C  C1155  1  0.116000  0.175900  0.098400  1.0
  C  C1156  1  0.884000  0.824100  0.901600  1.0
  C  C1157  1  0.118400  0.226500  0.098100  1.0
  C  C1158  1  0.881600  0.773500  0.901900  1.0
  C  C1159  1  0.147100  0.252800  0.069000  1.0
  C  C1160  1  0.852900  0.747200  0.931000  1.0
  C  C1161  1  0.148000  0.298100  0.073500  1.0
  C  C1162  1  0.852000  0.701900  0.926500  1.0
  C  C1163  1  0.119100  0.316700  0.105100  1.0
  C  C1164  1  0.880900  0.683300  0.894900  1.0
  C  C1165  1  0.091300  0.288800  0.133000  1.0
  C  C1166  1  0.908700  0.711200  0.867000  1.0
  C  C1167  1  0.126100  0.841200  0.092200  1.0
  C  C1168  1  0.873900  0.158800  0.907800  1.0
  C  C1169  1  0.163100  0.828600  0.056100  1.0
  C  C1170  1  0.836900  0.171400  0.943900  1.0
  C  C1171  1  0.146700  0.857400  0.021800  1.0
  C  C1172  1  0.853300  0.142600  0.978200  1.0
  C  C1173  1  0.180600  0.848600  0.988200  1.0
  C  C1174  1  0.819400  0.151400  0.011800  1.0
  C  C1175  1  0.230500  0.811100  0.988100  1.0
  C  C1176  1  0.769500  0.188900  0.011900  1.0
  C  C1177  1  0.246900  0.781500  0.020800  1.0
  C  C1178  1  0.753100  0.218500  0.979200  1.0
  C  C1179  1  0.212100  0.790100  0.055200  1.0
  C  C1180  1  0.787900  0.209900  0.944800  1.0
  C  C1181  1  0.273700  0.763900  0.940800  1.0
  C  C1182  1  0.726300  0.236100  0.059200  1.0
  C  C1183  1  0.310000  0.758300  0.904300  1.0
  C  C1184  1  0.690000  0.241700  0.095700  1.0
  C  C1185  1  0.321700  0.716700  0.888400  1.0
  C  C1186  1  0.678300  0.283300  0.111600  1.0
  C  C1187  1  0.355300  0.715100  0.853600  1.0
  C  C1188  1  0.644700  0.284900  0.146400  1.0
  C  C1189  1  0.375700  0.753200  0.839100  1.0
  C  C1190  1  0.624300  0.246800  0.160900  1.0
  C  C1191  1  0.363500  0.793500  0.856100  1.0
  C  C1192  1  0.636500  0.206500  0.143900  1.0
  C  C1193  1  0.303600  0.995400  0.147100  1.0
  C  C1194  1  0.696400  0.004600  0.852900  1.0
  C  C1195  1  0.257700  0.040000  0.159300  1.0
  C  C1196  1  0.742300  0.960000  0.840700  1.0
  C  C1197  1  0.249600  0.090200  0.138900  1.0
  C  C1198  1  0.750400  0.909800  0.861100  1.0
  C  C1199  1  0.204800  0.131900  0.149400  1.0
  C  C1200  1  0.795200  0.868100  0.850600  1.0
  C  C1201  1  0.167900  0.122600  0.181900  1.0
  C  C1202  1  0.832100  0.877400  0.818100  1.0
  C  C1203  1  0.176800  0.072300  0.203700  1.0
  C  C1204  1  0.823200  0.927700  0.796300  1.0
  C  C1205  1  0.220500  0.032600  0.192700  1.0
  C  C1206  1  0.779500  0.967400  0.807300  1.0
  C  C1207  1  0.118900  0.184200  0.218200  1.0
  C  C1208  1  0.881100  0.815800  0.781800  1.0
  C  C1209  1  0.068600  0.225400  0.229000  1.0
  C  C1210  1  0.931400  0.774600  0.771000  1.0
  C  C1211  1  0.060500  0.247200  0.258300  1.0
  C  C1212  1  0.939500  0.752800  0.741700  1.0
  C  C1213  1  0.009300  0.283700  0.267700  1.0
  C  C1214  1  0.990700  0.716300  0.732300  1.0
  C  C1215  1  0.973500  0.294900  0.247900  1.0
  C  C1216  1  0.026500  0.705100  0.752100  1.0
  C  C1217  1  0.984800  0.271500  0.217400  1.0
  C  C1218  1  0.015200  0.728500  0.782600  1.0
  C  C1219  1  0.346400  0.919000  0.066700  1.0
  C  C1220  1  0.653600  0.081000  0.933300  1.0
  C  C1221  1  0.324600  0.919500  0.036000  1.0
  C  C1222  1  0.675400  0.080500  0.964000  1.0
  C  C1223  1  0.348500  0.932600  0.998400  1.0
  C  C1224  1  0.651500  0.067400  0.001600  1.0
  C  C1225  1  0.330900  0.930400  0.968600  1.0
  C  C1226  1  0.669100  0.069600  0.031400  1.0
  C  C1227  1  0.287800  0.913200  0.977300  1.0
  C  C1228  1  0.712200  0.086800  0.022700  1.0
  C  C1229  1  0.262600  0.901200  0.013700  1.0
  C  C1230  1  0.737400  0.098800  0.986300  1.0
  C  C1231  1  0.280900  0.904700  0.042700  1.0
  C  C1232  1  0.719100  0.095300  0.957300  1.0
  C  C1233  1  0.227500  0.943400  0.937300  1.0
  C  C1234  1  0.772500  0.056600  0.062700  1.0
  C  C1235  1  0.208800  0.935200  0.909300  1.0
  C  C1236  1  0.791200  0.064800  0.090700  1.0
  C  C1237  1  0.159500  0.966000  0.898400  1.0
  C  C1238  1  0.840500  0.034000  0.101600  1.0
  C  C1239  1  0.144400  0.953600  0.873100  1.0
  C  C1240  1  0.855600  0.046400  0.126900  1.0
  C  C1241  1  0.176700  0.909400  0.859900  1.0
  C  C1242  1  0.823300  0.090600  0.140100  1.0
  C  C1243  1  0.224400  0.879300  0.870900  1.0
  C  C1244  1  0.775600  0.120700  0.129100  1.0
  C  C1245  1  0.431300  0.910300  0.181400  1.0
  C  C1246  1  0.568700  0.089700  0.818600  1.0
  C  C1247  1  0.452400  0.909500  0.212500  1.0
  C  C1248  1  0.547600  0.090500  0.787500  1.0
  C  C1249  1  0.471600  0.949600  0.209300  1.0
  C  C1250  1  0.528400  0.050400  0.790700  1.0
  C  C1251  1  0.490700  0.950000  0.238900  1.0
  C  C1252  1  0.509300  0.050000  0.761100  1.0
  C  C1253  1  0.490500  0.912200  0.271500  1.0
  C  C1254  1  0.509500  0.087800  0.728500  1.0
  C  C1255  1  0.472800  0.871700  0.274700  1.0
  C  C1256  1  0.527200  0.128300  0.725300  1.0
  C  C1257  1  0.453700  0.871200  0.245000  1.0
  C  C1258  1  0.546300  0.128800  0.755000  1.0
  C  C1259  1  0.552800  0.881400  0.307800  1.0
  C  C1260  1  0.447200  0.118600  0.692200  1.0
  C  C1261  1  0.572600  0.883600  0.338900  1.0
  C  C1262  1  0.427400  0.116400  0.661100  1.0
  C  C1263  1  0.618300  0.848000  0.350100  1.0
  C  C1264  1  0.381700  0.152000  0.649900  1.0
  C  C1265  1  0.632000  0.853100  0.381300  1.0
  C  C1266  1  0.368000  0.146900  0.618700  1.0
  C  C1267  1  0.598900  0.895600  0.397100  1.0
  C  C1268  1  0.401100  0.104400  0.602900  1.0
  C  C1269  1  0.553600  0.929300  0.384400  1.0
  C  C1270  1  0.446400  0.070700  0.615600  1.0
  C  C1271  1  0.476300  0.834000  0.103700  1.0
  C  C1272  1  0.523700  0.166000  0.896300  1.0
  C  C1273  1  0.524800  0.789300  0.096300  1.0
  C  C1274  1  0.475200  0.210700  0.903700  1.0
  C  C1275  1  0.573800  0.795300  0.081800  1.0
  C  C1276  1  0.426200  0.204700  0.918200  1.0
  C  C1277  1  0.620400  0.752800  0.076200  1.0
  C  C1278  1  0.379600  0.247200  0.923800  1.0
  C  C1279  1  0.618000  0.704600  0.084700  1.0
  C  C1280  1  0.382000  0.295400  0.915300  1.0
  C  C1281  1  0.569300  0.696600  0.098400  1.0
  C  C1282  1  0.430700  0.303400  0.901600  1.0
  C  C1283  1  0.523400  0.738600  0.103400  1.0
  C  C1284  1  0.476600  0.261400  0.896600  1.0
  C  C1285  1  0.676100  0.640000  0.053100  1.0
  C  C1286  1  0.323900  0.360000  0.946900  1.0
  C  C1287  1  0.723400  0.594300  0.050000  1.0
  C  C1288  1  0.276600  0.405700  0.950000  1.0
  C  C1289  1  0.737900  0.564700  0.022600  1.0
  C  C1290  1  0.262100  0.435300  0.977400  1.0
  C  C1291  1  0.783600  0.521300  0.023900  1.0
  C  C1292  1  0.216400  0.478700  0.976100  1.0
  C  C1293  1  0.811500  0.509200  0.050500  1.0
  C  C1294  1  0.188500  0.490800  0.949500  1.0
  C  C1295  1  0.795700  0.539100  0.077700  1.0
  C  C1296  1  0.204300  0.460900  0.922300  1.0
  C  C1297  1  0.485900  0.569300  0.141200  1.0
  C  C1298  1  0.514100  0.430700  0.858800  1.0
  C  C1299  1  0.537500  0.568900  0.144200  1.0
  C  C1300  1  0.462500  0.431100  0.855800  1.0
  C  C1301  1  0.582800  0.550700  0.117400  1.0
  C  C1302  1  0.417200  0.449300  0.882600  1.0
  C  C1303  1  0.630800  0.551500  0.118800  1.0
  C  C1304  1  0.369200  0.448500  0.881200  1.0
  C  C1305  1  0.634300  0.570800  0.146000  1.0
  C  C1306  1  0.365700  0.429200  0.854000  1.0
  C  C1307  1  0.590900  0.586900  0.173900  1.0
  C  C1308  1  0.409100  0.413100  0.826100  1.0
  C  C1309  1  0.542900  0.586100  0.172500  1.0
  C  C1310  1  0.457100  0.413900  0.827500  1.0
  C  C1311  1  0.710500  0.538300  0.171000  1.0
  C  C1312  1  0.289500  0.461700  0.829000  1.0
  C  C1313  1  0.758700  0.543300  0.173700  1.0
  C  C1314  1  0.241300  0.456700  0.826300  1.0
  C  C1315  1  0.788100  0.511400  0.201000  1.0
  C  C1316  1  0.211900  0.488600  0.799000  1.0
  C  C1317  1  0.829800  0.523200  0.203100  1.0
  C  C1318  1  0.170200  0.476800  0.796900  1.0
  C  C1319  1  0.841200  0.564500  0.177800  1.0
  C  C1320  1  0.158800  0.435500  0.822200  1.0
  C  C1321  1  0.811000  0.595600  0.150500  1.0
  C  C1322  1  0.189000  0.404400  0.849500  1.0
  C  C1323  1  0.388100  0.495100  0.195100  1.0
  C  C1324  1  0.611900  0.504900  0.804900  1.0
  C  C1325  1  0.388500  0.450500  0.228200  1.0
  C  C1326  1  0.611500  0.549500  0.771800  1.0
  C  C1327  1  0.426200  0.400500  0.224800  1.0
  C  C1328  1  0.573800  0.599500  0.775200  1.0
  C  C1329  1  0.429100  0.359400  0.255900  1.0
  C  C1330  1  0.570900  0.640600  0.744100  1.0
  C  C1331  1  0.394900  0.365700  0.290000  1.0
  C  C1332  1  0.605100  0.634300  0.710000  1.0
  C  C1333  1  0.356100  0.414000  0.293300  1.0
  C  C1334  1  0.643900  0.586000  0.706700  1.0
  C  C1335  1  0.354100  0.455200  0.262100  1.0
  C  C1336  1  0.645900  0.544800  0.737900  1.0
  C  C1337  1  0.363100  0.302400  0.335000  1.0
  C  C1338  1  0.636900  0.697600  0.665000  1.0
  C  C1339  1  0.366000  0.264000  0.369300  1.0
  C  C1340  1  0.634000  0.736000  0.630700  1.0
  C  C1341  1  0.328600  0.239300  0.387600  1.0
  C  C1342  1  0.671400  0.760700  0.612400  1.0
  C  C1343  1  0.332400  0.206500  0.422100  1.0
  C  C1344  1  0.667600  0.793500  0.577900  1.0
  C  C1345  1  0.375300  0.196900  0.437400  1.0
  C  C1346  1  0.624700  0.803100  0.562600  1.0
  C  C1347  1  0.412100  0.220500  0.418300  1.0
  C  C1348  1  0.587900  0.779500  0.581700  1.0
  C  C1349  1  0.391100  0.653900  0.072700  1.0
  C  C1350  1  0.608900  0.346100  0.927300  1.0
  C  C1351  1  0.388100  0.696700  0.038200  1.0
  C  C1352  1  0.611900  0.303300  0.961800  1.0
  C  C1353  1  0.392200  0.686700  0.003800  1.0
  C  C1354  1  0.607800  0.313300  0.996200  1.0
  C  C1355  1  0.386400  0.726400  0.971600  1.0
  C  C1356  1  0.613600  0.273600  0.028400  1.0
  C  C1357  1  0.376700  0.776100  0.973600  1.0
  C  C1358  1  0.623300  0.223900  0.026400  1.0
  C  C1359  1  0.373500  0.787100  0.007200  1.0
  C  C1360  1  0.626500  0.212900  0.992800  1.0
  C  C1361  1  0.379500  0.747100  0.038600  1.0
  C  C1362  1  0.620500  0.252900  0.961400  1.0
  C  C1363  1  0.406400  0.834800  0.922400  1.0
  C  C1364  1  0.593600  0.165200  0.077600  1.0
  C  C1365  1  0.396600  0.878100  0.889900  1.0
  C  C1366  1  0.603400  0.121900  0.110100  1.0
  C  C1367  1  0.432800  0.901700  0.869900  1.0
  C  C1368  1  0.567200  0.098300  0.130100  1.0
  C  C1369  1  0.417100  0.944900  0.840800  1.0
  C  C1370  1  0.582900  0.055100  0.159200  1.0
  C  C1371  1  0.369600  0.959200  0.833300  1.0
  C  C1372  1  0.630400  0.040800  0.166700  1.0
  C  C1373  1  0.334600  0.933500  0.854700  1.0
  C  C1374  1  0.665400  0.066500  0.145300  1.0
  C  C1375  1  0.295300  0.582500  0.125000  1.0
  C  C1376  1  0.704700  0.417500  0.875000  1.0
  C  C1377  1  0.243500  0.585400  0.120600  1.0
  C  C1378  1  0.756500  0.414600  0.879400  1.0
  C  C1379  1  0.242600  0.546500  0.105700  1.0
  C  C1380  1  0.757400  0.453500  0.894300  1.0
  C  C1381  1  0.195200  0.546100  0.102500  1.0
  C  C1382  1  0.804800  0.453900  0.897500  1.0
  C  C1383  1  0.148400  0.584200  0.113400  1.0
  C  C1384  1  0.851600  0.415800  0.886600  1.0
  C  C1385  1  0.149400  0.624500  0.126100  1.0
  C  C1386  1  0.850600  0.375500  0.873900  1.0
  C  C1387  1  0.197000  0.624200  0.129200  1.0
  C  C1388  1  0.803000  0.375800  0.870800  1.0
  C  C1389  1  0.075000  0.614800  0.086300  1.0
  C  C1390  1  0.925000  0.385200  0.913700  1.0
  C  C1391  1  0.026900  0.609400  0.084500  1.0
  C  C1392  1  0.973100  0.390600  0.915500  1.0
  C  C1393  1  0.995800  0.640500  0.058300  1.0
  C  C1394  1  0.004200  0.359500  0.941700  1.0
  C  C1395  1  0.951700  0.630400  0.058200  1.0
  C  C1396  1  0.048300  0.369600  0.941800  1.0
  C  C1397  1  0.941300  0.588600  0.084200  1.0
  C  C1398  1  0.058700  0.411400  0.915800  1.0
  C  C1399  1  0.972100  0.559600  0.110900  1.0
  C  C1400  1  0.027900  0.440400  0.889100  1.0
  C  C1401  1  0.226900  0.945000  0.355000  1.0
  C  C1402  1  0.773100  0.055000  0.645000  1.0
  C  C1403  1  0.273300  0.962800  0.342600  1.0
  C  C1404  1  0.726700  0.037200  0.657400  1.0
  C  C1405  1  0.283800  0.986900  0.365300  1.0
  C  C1406  1  0.716200  0.013100  0.634700  1.0
  C  C1407  1  0.327500  0.001600  0.355400  1.0
  C  C1408  1  0.672500  0.998400  0.644600  1.0
  C  C1409  1  0.362000  0.992700  0.322300  1.0
  C  C1410  1  0.638000  0.007300  0.677700  1.0
  C  C1411  1  0.353300  0.971500  0.297800  1.0
  C  C1412  1  0.646700  0.028500  0.702200  1.0
  C  C1413  1  0.307600  0.956300  0.309400  1.0
  C  C1414  1  0.692400  0.043700  0.690600  1.0
  C  C1415  1  0.415600  0.043400  0.286700  1.0
  C  C1416  1  0.584400  0.956600  0.713300  1.0
  C  C1417  1  0.466000  0.051500  0.277900  1.0
  C  C1418  1  0.534000  0.948500  0.722100  1.0
  C  C1419  1  0.477600  0.092300  0.248200  1.0
  C  C1420  1  0.522400  0.907700  0.751800  1.0
  C  C1421  1  0.528100  0.094000  0.241400  1.0
  C  C1422  1  0.471900  0.906000  0.758600  1.0
  C  C1423  1  0.563300  0.057200  0.263500  1.0
  C  C1424  1  0.436700  0.942800  0.736500  1.0
  C  C1425  1  0.548100  0.020500  0.291800  1.0
  C  C1426  1  0.451900  0.979500  0.708200  1.0
  C  C1427  1  0.183900  0.835200  0.436600  1.0
  C  C1428  1  0.816100  0.164800  0.563400  1.0
  C  C1429  1  0.203600  0.792800  0.467900  1.0
  C  C1430  1  0.796400  0.207200  0.532100  1.0
  C  C1431  1  0.178500  0.795200  0.505600  1.0
  C  C1432  1  0.821500  0.204800  0.494400  1.0
  C  C1433  1  0.192300  0.754200  0.534800  1.0
  C  C1434  1  0.807700  0.245800  0.465200  1.0
  C  C1435  1  0.233600  0.709300  0.528000  1.0
  C  C1436  1  0.766400  0.290700  0.472000  1.0
  C  C1437  1  0.261200  0.706700  0.491100  1.0
  C  C1438  1  0.738800  0.293300  0.508900  1.0
  C  C1439  1  0.246200  0.746500  0.462300  1.0
  C  C1440  1  0.753800  0.253500  0.537700  1.0
  C  C1441  1  0.289500  0.655400  0.569700  1.0
  C  C1442  1  0.710500  0.344600  0.430300  1.0
  C  C1443  1  0.304800  0.609300  0.599200  1.0
  C  C1444  1  0.695200  0.390700  0.400800  1.0
  C  C1445  1  0.351100  0.588400  0.612200  1.0
  C  C1446  1  0.648900  0.411600  0.387800  1.0
  C  C1447  1  0.359800  0.542900  0.639600  1.0
  C  C1448  1  0.640200  0.457100  0.360400  1.0
  C  C1449  1  0.322800  0.519000  0.653200  1.0
  C  C1450  1  0.677200  0.481000  0.346800  1.0
  C  C1451  1  0.277000  0.539400  0.639500  1.0
  C  C1452  1  0.723000  0.460600  0.360500  1.0
  C  C1453  1  0.098000  0.985300  0.322600  1.0
  C  C1454  1  0.902000  0.014700  0.677400  1.0
  C  C1455  1  0.075100  0.026600  0.291600  1.0
  C  C1456  1  0.924900  0.973400  0.708400  1.0
  C  C1457  1  0.056100  0.077800  0.295200  1.0
  C  C1458  1  0.943900  0.922200  0.704800  1.0
  C  C1459  1  0.035400  0.118400  0.266500  1.0
  C  C1460  1  0.964600  0.881600  0.733500  1.0
  C  C1461  1  0.035600  0.107700  0.233600  1.0
  C  C1462  1  0.964400  0.892300  0.766400  1.0
  C  C1463  1  0.053100  0.056500  0.229400  1.0
  C  C1464  1  0.946900  0.943500  0.770600  1.0
  C  C1465  1  0.072700  0.016700  0.258800  1.0
  C  C1466  1  0.927300  0.983300  0.741200  1.0
  C  C1467  1  0.970200  0.162500  0.199200  1.0
  C  C1468  1  0.029800  0.837500  0.800800  1.0
  C  C1469  1  0.952400  0.206200  0.169200  1.0
  C  C1470  1  0.047600  0.793800  0.830800  1.0
  C  C1471  1  0.902900  0.223900  0.160700  1.0
  C  C1472  1  0.097100  0.776100  0.839300  1.0
  C  C1473  1  0.890300  0.266600  0.132500  1.0
  C  C1474  1  0.109700  0.733400  0.867500  1.0
  C  C1475  1  0.927000  0.289100  0.112700  1.0
  C  C1476  1  0.073000  0.710900  0.887300  1.0
  C  C1477  1  0.977800  0.270700  0.121500  1.0
  C  C1478  1  0.022200  0.729300  0.878500  1.0
  C  C1479  1  0.056800  0.881200  0.400100  1.0
  C  C1480  1  0.943200  0.118800  0.599900  1.0
  C  C1481  1  0.006900  0.868400  0.409400  1.0
  C  C1482  1  0.993100  0.131600  0.590600  1.0
  C  C1483  1  0.960100  0.900400  0.426700  1.0
  C  C1484  1  0.039900  0.099600  0.573300  1.0
  C  C1485  1  0.912600  0.891400  0.433800  1.0
  C  C1486  1  0.087400  0.108600  0.566200  1.0
  C  C1487  1  0.913000  0.850400  0.421300  1.0
  C  C1488  1  0.087000  0.149600  0.578700  1.0
  C  C1489  1  0.959200  0.818000  0.405300  1.0
  C  C1490  1  0.040800  0.182000  0.594700  1.0
  C  C1491  1  0.005800  0.826100  0.399300  1.0
  C  C1492  1  0.994200  0.173900  0.600700  1.0
  C  C1493  1  0.852300  0.808700  0.454700  1.0
  C  C1494  1  0.147700  0.191300  0.545300  1.0
  C  C1495  1  0.800600  0.802600  0.459900  1.0
  C  C1496  1  0.199400  0.197400  0.540100  1.0
  C  C1497  1  0.783200  0.767700  0.487400  1.0
  C  C1498  1  0.216800  0.232300  0.512600  1.0
  C  C1499  1  0.733400  0.766200  0.488500  1.0
  C  C1500  1  0.266600  0.233800  0.511500  1.0
  C  C1501  1  0.704200  0.801800  0.463800  1.0
  C  C1502  1  0.295800  0.198200  0.536200  1.0
  C  C1503  1  0.724200  0.838200  0.436400  1.0
  C  C1504  1  0.275800  0.161800  0.563600  1.0
  C  C1505  1  0.296000  0.840400  0.483500  1.0
  C  C1506  1  0.704000  0.159600  0.516500  1.0
  C  C1507  1  0.463900  0.042900  0.034300  1.0
  C  C1508  1  0.536100  0.957100  0.965700  1.0
  C  C1509  1  0.478000  0.085800  0.006800  1.0
  C  C1510  1  0.522000  0.914200  0.993200  1.0
  C  C1511  1  0.465900  0.459700  0.442000  1.0
  C  C1512  1  0.534100  0.540300  0.558000  1.0
  C  C1513  1  0.503500  0.469300  0.455000  1.0
  C  C1514  1  0.496500  0.530700  0.545000  1.0
  C  C1515  1  0.954800  0.027800  0.372200  1.0
  C  C1516  1  0.045200  0.972200  0.627800  1.0
  C  C1517  1  0.966100  0.053600  0.394200  1.0
  C  C1518  1  0.033900  0.946400  0.605800  1.0
  C  C1519  1  0.412300  0.683000  0.498500  1.0
  C  C1520  1  0.587700  0.317000  0.501500  1.0
  C  C1521  1  0.412300  0.711600  0.459300  1.0
  C  C1522  1  0.587700  0.288400  0.540700  1.0
  C  C1523  1  0.291500  0.386400  0.252200  0.1
  C  C1524  1  0.708500  0.613600  0.747800  0.1
  C  C1525  1  0.318400  0.702600  0.309330  0.1
  C  C1526  1  0.681600  0.297400  0.690670  0.1
  C  C1527  1  0.261200  0.722200  0.320560  0.1
  C  C1528  1  0.738800  0.277800  0.679440  0.1
  C  C1529  1  0.988000  0.782400  0.520050  0.1
  C  C1530  1  0.012000  0.217600  0.479950  0.1
  C  C1531  1  0.038800  0.786600  0.517200  0.1
  C  C1532  1  0.961200  0.213400  0.482800  0.1
  C  C1533  1  0.848400  0.211700  0.265300  0.15
  C  C1534  1  0.151600  0.788300  0.734700  0.15
  C  C1535  1  0.254700  0.124700  0.918800  0.15
  C  C1536  1  0.745300  0.875300  0.081200  0.15
  C  C1537  1  0.500800  0.703900  0.880900  0.15
  C  C1538  1  0.499200  0.296100  0.119100  0.15
  C  C1539  1  0.506900  0.751100  0.807500  0.15
  C  C1540  1  0.493100  0.248900  0.192500  0.15
  C  C1541  1  0.063000  0.112000  0.388350  0.15
  C  C1542  1  0.937000  0.888000  0.611650  0.15
  C  C1543  1  0.091700  0.061900  0.409570  0.15
  C  C1544  1  0.908300  0.938100  0.590430  0.15
  C  C1545  1  0.598400  0.589000  0.450500  0.2
  C  C1546  1  0.401600  0.411000  0.549500  0.2
  C  C1547  1  0.493800  0.225900  0.010400  0.2
  C  C1548  1  0.506200  0.774100  0.989600  0.2
  C  C1549  1  0.482000  0.240500  0.046200  0.2
  C  C1550  1  0.518000  0.759500  0.953800  0.2
  C  C1551  1  0.027700  0.497900  0.404040  0.2
  C  C1552  1  0.972300  0.502100  0.595960  0.2
  C  C1553  1  0.992100  0.505000  0.380440  0.2
  C  C1554  1  0.007900  0.495000  0.619560  0.2
  C  C1555  1  0.014600  0.814200  0.532170  0.2
  C  C1556  1  0.985400  0.185800  0.467830  0.2
  C  C1557  1  0.041100  0.839000  0.544480  0.2
  C  C1558  1  0.958900  0.161000  0.455520  0.2
  C  C1559  1  0.856100  0.845200  0.217490  0.2
  C  C1560  1  0.143900  0.154800  0.782510  0.2
  C  C1561  1  0.871700  0.868300  0.178080  0.2
  C  C1562  1  0.128300  0.131700  0.821920  0.2
  C  C1563  1  0.917200  0.900300  0.112500  0.2
  C  C1564  1  0.082800  0.099700  0.887500  0.2
  C  C1565  1  0.880300  0.894700  0.148100  0.2
  C  C1566  1  0.119700  0.105300  0.851900  0.2
  C  C1567  1  0.589400  0.826000  0.186100  0.2
  C  C1568  1  0.410600  0.174000  0.813900  0.2
  C  C1569  1  0.588200  0.796200  0.224800  0.2
  C  C1570  1  0.411800  0.203800  0.775200  0.2
  C  C1571  1  0.305200  0.125900  0.236900  0.2
  C  C1572  1  0.694800  0.874100  0.763100  0.2
  C  C1573  1  0.335600  0.157300  0.235800  0.2
  C  C1574  1  0.664400  0.842700  0.764200  0.2
  C  C1575  1  0.270600  0.821000  0.298100  0.22
  C  C1576  1  0.729400  0.179000  0.701900  0.22
  C  C1577  1  0.326200  0.813000  0.282100  0.22
  C  C1578  1  0.673800  0.187000  0.717900  0.22
  C  C1579  1  0.245200  0.786300  0.322500  0.22
  C  C1580  1  0.754800  0.213700  0.677500  0.22
  C  C1581  1  0.291100  0.740000  0.329200  0.22
  C  C1582  1  0.708900  0.260000  0.670800  0.22
  C  C1583  1  0.700800  0.776400  0.918300  0.236
  C  C1584  1  0.299200  0.223600  0.081700  0.236
  C  C1585  1  0.735100  0.890100  0.566000  0.248
  C  C1586  1  0.264900  0.109900  0.434000  0.248
  C  C1587  1  0.080200  0.191100  0.991200  0.25
  C  C1588  1  0.919800  0.808900  0.008800  0.25
  C  C1589  1  0.447400  0.198700  0.091000  0.25
  C  C1590  1  0.552600  0.801300  0.909000  0.25
  C  C1591  1  0.443900  0.188400  0.131400  0.25
  C  C1592  1  0.556100  0.811600  0.868600  0.25
  C  C1593  1  0.369800  0.086900  0.159400  0.25
  C  C1594  1  0.630200  0.913100  0.840600  0.25
  C  C1595  1  0.508100  0.164500  0.023000  0.25
  C  C1596  1  0.491900  0.835500  0.977000  0.25
  C  C1597  1  0.487600  0.151700  0.063200  0.25
  C  C1598  1  0.512400  0.848300  0.936800  0.25
  C  C1599  1  0.831600  0.751000  0.180300  0.25
  C  C1600  1  0.168400  0.249000  0.819700  0.25
  C  C1601  1  0.844700  0.767000  0.151400  0.25
  C  C1602  1  0.155300  0.233000  0.848600  0.25
  C  C1603  1  0.555300  0.381000  0.177200  0.25
  C  C1604  1  0.444700  0.619000  0.822800  0.25
  C  C1605  1  0.552200  0.412600  0.139300  0.25
  C  C1606  1  0.447800  0.587400  0.860700  0.25
  C  C1607  1  0.560900  0.391700  0.200700  0.25
  C  C1608  1  0.439100  0.608300  0.799300  0.25
  C  C1609  1  0.542900  0.446200  0.181600  0.25
  C  C1610  1  0.457100  0.553800  0.818400  0.25
  C  C1611  1  0.340300  0.765400  0.283850  0.25
  C  C1612  1  0.659700  0.234600  0.716150  0.25
  C  C1613  1  0.324600  0.821900  0.275200  0.25
  C  C1614  1  0.675400  0.178100  0.724800  0.25
  C  C1615  1  0.385800  0.701900  0.246700  0.25
  C  C1616  1  0.614200  0.298100  0.753300  0.25
  C  C1617  1  0.407800  0.715600  0.206800  0.25
  C  C1618  1  0.592200  0.284400  0.793200  0.25
  C  C1619  1  0.264000  0.856700  0.204200  0.25
  C  C1620  1  0.736000  0.143300  0.795800  0.25
  C  C1621  1  0.207200  0.880200  0.215200  0.25
  C  C1622  1  0.792800  0.119800  0.784800  0.25
  C  C1623  1  0.942600  0.518400  0.409220  0.25
  C  C1624  1  0.057400  0.481600  0.590780  0.25
  C  C1625  1  0.969600  0.535600  0.371370  0.25
  C  C1626  1  0.030400  0.464400  0.628630  0.25
  C  C1627  1  0.170900  0.304700  0.201500  0.25
  C  C1628  1  0.829100  0.695300  0.798500  0.25
  C  C1629  1  0.223800  0.266200  0.198900  0.25
  C  C1630  1  0.776200  0.733800  0.801100  0.25
  C  C1631  1  0.252300  0.223000  0.185300  0.25
  C  C1632  1  0.747700  0.777000  0.814700  0.25
  C  C1633  1  0.298200  0.239200  0.167900  0.25
  C  C1634  1  0.701800  0.760800  0.832100  0.25
  C  C1635  1  0.163100  0.296900  0.179100  0.25
  C  C1636  1  0.836900  0.703100  0.820900  0.25
  C  C1637  1  0.205100  0.251300  0.167400  0.25
  C  C1638  1  0.794900  0.748700  0.832600  0.25
  C  C1639  1  0.485800  0.433300  0.087700  0.25
  C  C1640  1  0.514200  0.566700  0.912300  0.25
  C  C1641  1  0.518600  0.379100  0.098300  0.25
  C  C1642  1  0.481400  0.620900  0.901700  0.25
  C  C1643  1  0.491400  0.455000  0.060800  0.25
  C  C1644  1  0.508600  0.545000  0.939200  0.25
  C  C1645  1  0.538900  0.422600  0.040000  0.25
  C  C1646  1  0.461100  0.577400  0.960000  0.25
  C  C1647  1  0.558300  0.393100  0.095900  0.25
  C  C1648  1  0.441700  0.606900  0.904100  0.25
  C  C1649  1  0.520100  0.398900  0.131000  0.25
  C  C1650  1  0.479900  0.601100  0.869000  0.25
  C  C1651  1  0.880300  0.204600  0.069700  0.25
  C  C1652  1  0.119700  0.795400  0.930300  0.25
  C  C1653  1  0.920700  0.157100  0.083800  0.25
  C  C1654  1  0.079300  0.842900  0.916200  0.25
  C  C1655  1  0.867700  0.195400  0.085100  0.25
  C  C1656  1  0.132300  0.804600  0.914900  0.25
  C  C1657  1  0.922100  0.160200  0.080600  0.25
  C  C1658  1  0.077900  0.839800  0.919400  0.25
  C  C1659  1  0.883100  0.658100  0.490700  0.25
  C  C1660  1  0.116900  0.341900  0.509300  0.25
  C  C1661  1  0.910800  0.685500  0.499100  0.25
  C  C1662  1  0.089200  0.314500  0.500900  0.25
  C  C1663  1  0.920500  0.417600  0.138900  0.27
  C  C1664  1  0.079500  0.582400  0.861100  0.27
  C  C1665  1  0.129500  0.022900  0.014100  0.3
  C  C1666  1  0.870500  0.977100  0.985900  0.3
  C  C1667  1  0.145800  0.047300  0.034700  0.3
  C  C1668  1  0.854200  0.952700  0.965300  0.3
  C  C1669  1  0.217400  0.401800  0.315600  0.3
  C  C1670  1  0.782600  0.598200  0.684400  0.3
  C  C1671  1  0.303200  0.424100  0.177300  0.3
  C  C1672  1  0.696800  0.575900  0.822700  0.3
  C  C1673  1  0.566500  0.421000  0.191600  0.3
  C  C1674  1  0.433500  0.579000  0.808400  0.3
  C  C1675  1  0.756200  0.400600  0.103800  0.3
  C  C1676  1  0.243800  0.599400  0.896200  0.3
  C  C1677  1  0.655400  0.477600  0.260400  0.3
  C  C1678  1  0.344600  0.522400  0.739600  0.3
  C  C1679  1  0.599600  0.506800  0.261200  0.3
  C  C1680  1  0.400400  0.493200  0.738800  0.3
  C  C1681  1  0.373700  0.765400  0.191500  0.3
  C  C1682  1  0.626300  0.234600  0.808500  0.3
  C  C1683  1  0.410930  0.712400  0.193800  0.3
  C  C1684  1  0.589070  0.287600  0.806200  0.3
  C  C1685  1  0.042800  0.467200  0.465200  0.3
  C  C1686  1  0.957200  0.532800  0.534800  0.3
  C  C1687  1  0.019400  0.444100  0.502620  0.3
  C  C1688  1  0.980600  0.555900  0.497380  0.3
  C  C1689  1  0.070600  0.135300  0.359590  0.3
  C  C1690  1  0.929400  0.864700  0.640410  0.3
  C  C1691  1  0.117500  0.097200  0.373190  0.3
  C  C1692  1  0.882500  0.902800  0.626810  0.3
  C  C1693  1  0.570700  0.615100  0.023600  0.3
  C  C1694  1  0.429300  0.384900  0.976400  0.3
  C  C1695  1  0.516200  0.650100  0.027500  0.3
  C  C1696  1  0.483800  0.349900  0.972500  0.3
  C  C1697  1  0.560700  0.587900  0.022500  0.3
  C  C1698  1  0.439300  0.412100  0.977500  0.3
  C  C1699  1  0.533800  0.553000  0.024100  0.3
  C  C1700  1  0.466200  0.447000  0.975900  0.3
  C  C1701  1  0.930500  0.905300  0.089100  0.3
  C  C1702  1  0.069500  0.094700  0.910900  0.3
  C  C1703  1  0.902800  0.880600  0.077800  0.3
  C  C1704  1  0.097200  0.119400  0.922200  0.3
  C  C1705  1  0.005000  0.988200  0.049600  0.3
  C  C1706  1  0.995000  0.011800  0.950400  0.3
  C  C1707  1  0.982500  0.948000  0.055400  0.3
  C  C1708  1  0.017500  0.052000  0.944600  0.3
  C  C1709  1  0.642200  0.779500  0.228500  0.3
  C  C1710  1  0.357800  0.220500  0.771500  0.3
  C  C1711  1  0.634100  0.764300  0.269400  0.3
  C  C1712  1  0.365900  0.235700  0.730600  0.3
  C  C1713  1  0.367900  0.176200  0.300100  0.3
  C  C1714  1  0.632100  0.823800  0.699900  0.3
  C  C1715  1  0.326500  0.169700  0.288500  0.3
  C  C1716  1  0.673500  0.830300  0.711500  0.3
  C  C1717  1  0.968000  0.671600  0.486600  0.3
  C  C1718  1  0.032000  0.328400  0.513400  0.3
  C  C1719  1  0.990100  0.705200  0.493500  0.3
  C  C1720  1  0.009900  0.294800  0.506500  0.3
  C  C1721  1  0.963500  0.408600  0.062300  0.31
  C  C1722  1  0.036500  0.591400  0.937700  0.31
  C  C1723  1  0.311900  0.695100  0.178730  0.3333
  C  C1724  1  0.688100  0.304900  0.821270  0.3333
  C  C1725  1  0.289900  0.747200  0.156700  0.3333
  C  C1726  1  0.710100  0.252800  0.843300  0.3333
  C  C1727  1  0.372200  0.691300  0.199200  0.3333
  C  C1728  1  0.627800  0.308700  0.800800  0.3333
  C  C1729  1  0.410210  0.708600  0.205800  0.3333
  C  C1730  1  0.589790  0.291400  0.794200  0.3333
  C  C1731  1  0.322600  0.631500  0.244900  0.3333
  C  C1732  1  0.677400  0.368500  0.755100  0.3333
  C  C1733  1  0.320800  0.606000  0.284500  0.3333
  C  C1734  1  0.679200  0.394000  0.715500  0.3333
  C  C1735  1  0.250100  0.088300  0.941800  0.35
  C  C1736  1  0.749900  0.911700  0.058200  0.35
  C  C1737  1  0.197700  0.671000  0.263560  0.375
  C  C1738  1  0.802300  0.329000  0.736440  0.375
  C  C1739  1  0.205900  0.674900  0.223320  0.375
  C  C1740  1  0.794100  0.325100  0.776680  0.375
  C  C1741  1  0.031200  0.031200  0.461520  0.375
  C  C1742  1  0.968800  0.968800  0.538480  0.375
  C  C1743  1  0.984700  0.058100  0.486320  0.375
  C  C1744  1  0.015300  0.941900  0.513680  0.375
  C  C1745  1  0.149600  0.983500  0.504800  0.375
  C  C1746  1  0.850400  0.016500  0.495200  0.375
  C  C1747  1  0.188600  0.977600  0.470090  0.375
  C  C1748  1  0.811400  0.022400  0.529910  0.375
  C  C1749  1  0.123000  0.001200  0.456590  0.375
  C  C1750  1  0.877000  0.998800  0.543410  0.375
  C  C1751  1  0.167600  0.993600  0.471990  0.375
  C  C1752  1  0.832400  0.006400  0.528010  0.375
  C  C1753  1  0.256200  0.992600  0.776900  0.4
  C  C1754  1  0.743800  0.007400  0.223100  0.4
  C  C1755  1  0.263900  0.907500  0.677200  0.4
  C  C1756  1  0.736100  0.092500  0.322800  0.4
  C  C1757  1  0.306900  0.858200  0.683100  0.4
  C  C1758  1  0.693100  0.141800  0.316900  0.4
  C  C1759  1  0.245400  0.917200  0.736100  0.4
  C  C1760  1  0.754600  0.082800  0.263900  0.4
  C  C1761  1  0.338000  0.641600  0.288130  0.4
  C  C1762  1  0.662000  0.358400  0.711870  0.4
  C  C1763  1  0.321500  0.606980  0.277100  0.4
  C  C1764  1  0.678500  0.393020  0.722900  0.4
  C  C1765  1  0.297500  0.805500  0.162080  0.4
  C  C1766  1  0.702500  0.194500  0.837920  0.4
  C  C1767  1  0.275400  0.784900  0.142700  0.4
  C  C1768  1  0.724600  0.215100  0.857300  0.4
  C  C1769  1  0.875300  0.813900  0.245630  0.4
  C  C1770  1  0.124700  0.186100  0.754370  0.4
  C  C1771  1  0.930000  0.779700  0.239670  0.4
  C  C1772  1  0.070000  0.220300  0.760330  0.4
  C  C1773  1  0.312700  0.610800  0.012100  0.4
  C  C1774  1  0.687300  0.389200  0.987900  0.4
  C  C1775  1  0.347700  0.557300  0.012020  0.4
  C  C1776  1  0.652300  0.442700  0.987980  0.4
  C  C1777  1  0.880000  0.404000  0.165000  0.42
  C  C1778  1  0.120000  0.596000  0.835000  0.42
  C  C1779  1  0.602600  0.067700  0.411000  0.445
  C  C1780  1  0.397400  0.932300  0.589000  0.445
  C  C1781  1  0.177200  0.846800  0.218550  0.46
  C  C1782  1  0.822800  0.153200  0.781450  0.46
  C  C1783  1  0.192800  0.882030  0.229700  0.46
  C  C1784  1  0.807200  0.117970  0.770300  0.46
  C  C1785  1  0.039900  0.399300  0.321000  0.481
  C  C1786  1  0.960100  0.600700  0.679000  0.481
  C  C1787  1  0.081600  0.158900  0.008000  0.5
  C  C1788  1  0.918400  0.841100  0.992000  0.5
  C  C1789  1  0.195600  0.634800  0.991400  0.5
  C  C1790  1  0.804400  0.365200  0.008600  0.5
  C  C1791  1  0.038800  0.812600  0.043800  0.5
  C  C1792  1  0.961200  0.187400  0.956200  0.5
  C  C1793  1  0.078900  0.756300  0.058100  0.5
  C  C1794  1  0.921100  0.243700  0.941900  0.5
  C  C1795  1  0.132900  0.684900  0.025300  0.5
  C  C1796  1  0.867100  0.315100  0.974700  0.5
  C  C1797  1  0.153800  0.681100  0.985000  0.5
  C  C1798  1  0.846200  0.318900  0.015000  0.5
  C  C1799  1  0.208500  0.097500  0.290300  0.5
  C  C1800  1  0.791500  0.902500  0.709700  0.5
  C  C1801  1  0.421400  0.088800  0.152600  0.5
  C  C1802  1  0.578600  0.911200  0.847400  0.5
  C  C1803  1  0.390400  0.098800  0.124900  0.5
  C  C1804  1  0.609600  0.901200  0.875100  0.5
  C  C1805  1  0.297800  0.390100  0.170900  0.5
  C  C1806  1  0.702200  0.609900  0.829100  0.5
  C  C1807  1  0.315500  0.422800  0.183200  0.5
  C  C1808  1  0.684500  0.577200  0.816800  0.5
  C  C1809  1  0.620100  0.473200  0.251200  0.5
  C  C1810  1  0.379900  0.526800  0.748800  0.5
  C  C1811  1  0.600900  0.442900  0.237800  0.5
  C  C1812  1  0.399100  0.557100  0.762200  0.5
  C  C1813  1  0.917600  0.055730  0.217360  0.5
  C  C1814  1  0.082400  0.944270  0.782640  0.5
  C  C1815  1  0.913100  0.038560  0.257970  0.5
  C  C1816  1  0.086900  0.961440  0.742030  0.5
  C  C1817  1  0.896100  0.073750  0.212010  0.5
  C  C1818  1  0.103900  0.926250  0.787990  0.5
  C  C1819  1  0.873200  0.050020  0.249370  0.5
  C  C1820  1  0.126800  0.949980  0.750630  0.5
  C  C1821  1  0.139700  0.325400  0.216200  0.5
  C  C1822  1  0.860300  0.674600  0.783800  0.5
  C  C1823  1  0.164600  0.311400  0.248100  0.5
  C  C1824  1  0.835400  0.688600  0.751900  0.5
  C  C1825  1  0.771000  0.587800  0.283700  0.5
  C  C1826  1  0.229000  0.412200  0.716300  0.5
  C  C1827  1  0.799300  0.623600  0.276800  0.5
  C  C1828  1  0.200700  0.376400  0.723200  0.5
  C  C1829  1  0.615900  0.712300  0.319300  0.5
  C  C1830  1  0.384100  0.287700  0.680700  0.5
  C  C1831  1  0.636200  0.662500  0.344600  0.5
  C  C1832  1  0.363800  0.337500  0.655400  0.5
  C  C1833  1  0.947200  0.094100  0.047800  0.5
  C  C1834  1  0.052800  0.905900  0.952200  0.5
  C  C1835  1  0.972400  0.045000  0.035400  0.5
  C  C1836  1  0.027600  0.955000  0.964600  0.5
  C  C1837  1  0.007900  0.364200  0.380000  0.519
  C  C1838  1  0.992100  0.635800  0.620000  0.519
  C  C1839  1  0.182000  0.737800  0.211190  0.54
  C  C1840  1  0.818000  0.262200  0.788810  0.54
  C  C1841  1  0.194800  0.681600  0.218710  0.54
  C  C1842  1  0.805200  0.318400  0.781290  0.54
  C  C1843  1  0.577300  0.023300  0.439900  0.555
  C  C1844  1  0.422700  0.976700  0.560100  0.555
  C  C1845  1  0.224500  0.759900  0.342060  0.56
  C  C1846  1  0.775500  0.240100  0.657940  0.56
  C  C1847  1  0.246700  0.705800  0.360920  0.56
  C  C1848  1  0.753300  0.294200  0.639080  0.56
  C  C1849  1  0.422700  0.976800  0.412100  0.57
  C  C1850  1  0.577300  0.023200  0.587900  0.57
  C  C1851  1  0.403300  0.995700  0.444700  0.57
  C  C1852  1  0.596700  0.004300  0.555300  0.57
  C  C1853  1  0.405800  0.043300  0.443400  0.57
  C  C1854  1  0.594200  0.956700  0.556600  0.57
  C  C1855  1  0.427600  0.070300  0.410000  0.57
  C  C1856  1  0.572400  0.929700  0.590000  0.57
  C  C1857  1  0.445300  0.049200  0.378100  0.57
  C  C1858  1  0.554700  0.950800  0.621900  0.57
  C  C1859  1  0.379500  0.193700  0.291600  0.6
  C  C1860  1  0.620500  0.806300  0.708400  0.6
  C  C1861  1  0.358500  0.228900  0.258800  0.6
  C  C1862  1  0.641500  0.771100  0.741200  0.6
  C  C1863  1  0.149790  0.734400  0.303950  0.625
  C  C1864  1  0.850210  0.265600  0.696050  0.625
  C  C1865  1  0.115220  0.788600  0.297790  0.625
  C  C1866  1  0.884780  0.211400  0.702210  0.625
  C  C1867  1  0.567700  0.624800  0.446300  0.65
  C  C1868  1  0.432300  0.375200  0.553700  0.65
  C  C1869  1  0.882000  0.130900  0.314000  0.65
  C  C1870  1  0.118000  0.869100  0.686000  0.65
  C  C1871  1  0.322700  0.411700  0.063600  0.75
  C  C1872  1  0.677300  0.588300  0.936400  0.75
  C  C1873  1  0.355100  0.357300  0.074900  0.75
  C  C1874  1  0.644900  0.642700  0.925100  0.75
  C  C1875  1  0.753900  0.905700  0.577100  0.752
  C  C1876  1  0.246100  0.094300  0.422900  0.752
  C  C1877  1  0.687000  0.792000  0.953000  0.764
  C  C1878  1  0.313000  0.208000  0.047000  0.764
  C  C1879  1  0.266900  0.103200  0.034600  0.425
  C  C1880  1  0.733100  0.896800  0.965400  0.425
  C  C1881  1  0.323600  0.076100  0.026360  0.425
  C  C1882  1  0.676400  0.923900  0.973640  0.425
  S  S1883  1  0.341200  0.865490  0.494480  1.0
  S  S1884  1  0.658800  0.134510  0.505520  1.0
  S  S1885  1  0.551000  0.576000  0.450400  0.1
  S  S1886  1  0.449000  0.424000  0.549600  0.1
  S  S1887  1  0.226800  0.410300  0.293700  0.1
  S  S1888  1  0.773200  0.589700  0.706300  0.1
  S  S1889  1  0.870500  0.154100  0.310400  0.15
  S  S1890  1  0.129500  0.845900  0.689600  0.15
  S  S1891  1  0.229500  0.074100  0.907100  0.15
  S  S1892  1  0.770500  0.925900  0.092900  0.15
  S  S1893  1  0.747900  0.402100  0.125800  0.15
  S  S1894  1  0.252100  0.597900  0.874200  0.15
  S  S1895  1  0.516800  0.738500  0.823500  0.15
  S  S1896  1  0.483200  0.261500  0.176500  0.15
  S  S1897  1  0.519700  0.754200  0.859400  0.15
  S  S1898  1  0.480300  0.245800  0.140600  0.15
  S  S1899  1  0.615200  0.561300  0.403500  0.2
  S  S1900  1  0.384800  0.438700  0.596500  0.2
  S  S1901  1  0.702400  0.739000  0.972900  0.236
  S  S1902  1  0.297600  0.261000  0.027100  0.236
  S  S1903  1  0.812900  0.864600  0.547800  0.248
  S  S1904  1  0.187100  0.135400  0.452200  0.248
  S  S1905  1  0.032100  0.236700  0.025700  0.25
  S  S1906  1  0.967900  0.763300  0.974300  0.25
  S  S1907  1  0.413600  0.110300  0.182000  0.25
  S  S1908  1  0.586400  0.889700  0.818000  0.25
  S  S1909  1  0.844800  0.675900  0.182500  0.25
  S  S1910  1  0.155200  0.324100  0.817500  0.25
  S  S1911  1  0.854300  0.690500  0.164300  0.25
  S  S1912  1  0.145700  0.309500  0.835700  0.25
  S  S1913  1  0.962900  0.438200  0.092700  0.27
  S  S1914  1  0.037100  0.561800  0.907300  0.27
  S  S1915  1  0.246400  0.358900  0.273900  0.3
  S  S1916  1  0.753600  0.641100  0.726100  0.3
  S  S1917  1  0.280800  0.368500  0.219400  0.3
  S  S1918  1  0.719200  0.631500  0.780600  0.3
  S  S1919  1  0.632700  0.396100  0.211700  0.3
  S  S1920  1  0.367300  0.603900  0.788300  0.3
  S  S1921  1  0.716200  0.388500  0.157700  0.3
  S  S1922  1  0.283800  0.611500  0.842300  0.3
  S  S1923  1  0.975500  0.417500  0.111500  0.31
  S  S1924  1  0.024500  0.582500  0.888500  0.31
  S  S1925  1  0.274900  0.069400  0.892500  0.35
  S  S1926  1  0.725100  0.930600  0.107500  0.35
  S  S1927  1  0.292300  0.920100  0.769900  0.4
  S  S1928  1  0.707700  0.079900  0.230100  0.4
  S  S1929  1  0.291600  0.922500  0.767500  0.4
  S  S1930  1  0.708400  0.077500  0.232500  0.4
  S  S1931  1  0.931800  0.426600  0.121300  0.42
  S  S1932  1  0.068200  0.573400  0.878700  0.42
  S  S1933  1  0.538300  0.067200  0.398680  0.445
  S  S1934  1  0.461700  0.932800  0.601320  0.445
  S  S1935  1  0.995300  0.351300  0.346400  0.481
  S  S1936  1  0.004700  0.648700  0.653600  0.481
  S  S1937  1  0.041300  0.229200  0.019700  0.5
  S  S1938  1  0.958700  0.770800  0.980300  0.5
  S  S1939  1  0.133500  0.623000  0.984600  0.5
  S  S1940  1  0.866500  0.377000  0.015400  0.5
  S  S1941  1  0.254100  0.141400  0.257800  0.5
  S  S1942  1  0.745900  0.858600  0.742200  0.5
  S  S1943  1  0.011400  0.384900  0.324100  0.519
  S  S1944  1  0.988600  0.615100  0.675900  0.519
  S  S1945  1  0.565600  0.076640  0.393760  0.555
  S  S1946  1  0.434400  0.923360  0.606240  0.555
  S  S1947  1  0.595700  0.562900  0.424730  0.65
  S  S1948  1  0.404300  0.437100  0.575270  0.65
  S  S1949  1  0.853200  0.197240  0.277090  0.65
  S  S1950  1  0.146800  0.802760  0.722910  0.65
  S  S1951  1  0.777200  0.861900  0.541340  0.752
  S  S1952  1  0.222800  0.138100  0.458660  0.752
  S  S1953  1  0.697300  0.717600  0.960390  0.764
  S  S1954  1  0.302700  0.282400  0.039610  0.764
  N  N1955  1  0.147800  0.653100  0.559040  1.0
  N  N1956  1  0.852200  0.346900  0.440960  1.0
  N  N1957  1  0.164200  0.661700  0.619160  1.0
  N  N1958  1  0.835800  0.338300  0.380840  1.0
  N  N1959  1  0.418800  0.346300  0.387300  1.0
  N  N1960  1  0.581200  0.653700  0.612700  1.0
  N  N1961  1  0.504100  0.266600  0.388950  1.0
  N  N1962  1  0.495900  0.733400  0.611050  1.0
  N  N1963  1  0.119800  0.492900  0.177150  1.0
  N  N1964  1  0.880200  0.507100  0.822850  1.0
  N  N1965  1  0.109200  0.479300  0.116300  1.0
  N  N1966  1  0.890800  0.520700  0.883700  1.0
  N  N1967  1  0.836800  0.829100  0.362030  1.0
  N  N1968  1  0.163200  0.170900  0.637970  1.0
  N  N1969  1  0.754700  0.913200  0.363410  1.0
  N  N1970  1  0.245300  0.086800  0.636590  1.0
  N  N1971  1  0.249800  0.566700  0.549070  1.0
  N  N1972  1  0.750200  0.433300  0.450930  1.0
  N  N1973  1  0.181200  0.557200  0.610000  1.0
  N  N1974  1  0.818800  0.442800  0.390000  1.0
  N  N1975  1  0.500600  0.335200  0.318960  1.0
  N  N1976  1  0.499400  0.664800  0.681040  1.0
  N  N1977  1  0.498400  0.245300  0.321770  1.0
  N  N1978  1  0.501600  0.754700  0.678230  1.0
  N  N1979  1  0.683900  0.677400  0.147570  1.0
  N  N1980  1  0.316100  0.322600  0.852430  1.0
  N  N1981  1  0.754500  0.676000  0.086420  1.0
  N  N1982  1  0.245500  0.324000  0.913580  1.0
  N  N1983  1  0.440000  0.916300  0.376690  1.0
  N  N1984  1  0.560000  0.083700  0.623310  1.0
  N  N1985  1  0.089300  0.154900  0.128400  1.0
  N  N1986  1  0.910700  0.845100  0.871600  1.0
  N  N1987  1  0.091400  0.243200  0.130700  1.0
  N  N1988  1  0.908600  0.756800  0.869300  1.0
  N  N1989  1  0.265900  0.804300  0.952350  1.0
  N  N1990  1  0.734100  0.195700  0.047650  1.0
  N  N1991  1  0.330400  0.796600  0.888880  1.0
  N  N1992  1  0.669600  0.203400  0.111120  1.0
  N  N1993  1  0.848600  0.928800  0.359280  1.0
  N  N1994  1  0.151400  0.071200  0.640720  1.0
  N  N1995  1  0.780900  0.940400  0.420800  1.0
  N  N1996  1  0.219100  0.059600  0.579200  1.0
  N  N1997  1  0.018800  0.580900  0.180860  1.0
  N  N1998  1  0.981200  0.419100  0.819140  1.0
  N  N1999  1  0.020800  0.490400  0.180230  1.0
  N  N2000  1  0.979200  0.509600  0.819770  1.0
  N  N2001  1  0.120400  0.163700  0.192170  1.0
  N  N2002  1  0.879600  0.836300  0.807830  1.0
  N  N2003  1  0.033600  0.236800  0.207500  1.0
  N  N2004  1  0.966400  0.763200  0.792500  1.0
  N  N2005  1  0.270000  0.907700  0.947690  1.0
  N  N2006  1  0.730000  0.092300  0.052310  1.0
  N  N2007  1  0.240600  0.891700  0.895070  1.0
  N  N2008  1  0.759400  0.108300  0.104930  1.0
  N  N2009  1  0.508710  0.914200  0.302090  1.0
  N  N2010  1  0.491290  0.085800  0.697910  1.0
  N  N2011  1  0.539100  0.924700  0.356350  1.0
  N  N2012  1  0.460900  0.075300  0.643650  1.0
  N  N2013  1  0.665300  0.660900  0.081110  1.0
  N  N2014  1  0.334700  0.339100  0.918890  1.0
  N  N2015  1  0.750900  0.580000  0.078000  1.0
  N  N2016  1  0.249100  0.420000  0.922000  1.0
  N  N2017  1  0.683300  0.574400  0.147380  1.0
  N  N2018  1  0.316700  0.425600  0.852620  1.0
  N  N2019  1  0.769400  0.585700  0.147900  1.0
  N  N2020  1  0.230600  0.414300  0.852100  1.0
  N  N2021  1  0.399300  0.324300  0.323100  1.0
  N  N2022  1  0.600700  0.675700  0.676900  1.0
  N  N2023  1  0.409000  0.253900  0.384430  1.0
  N  N2024  1  0.591000  0.746100  0.615570  1.0
  N  N2025  1  0.368400  0.817100  0.941480  1.0
  N  N2026  1  0.631600  0.182900  0.058520  1.0
  N  N2027  1  0.347500  0.893000  0.883390  1.0
  N  N2028  1  0.652500  0.107000  0.116610  1.0
  N  N2029  1  0.099200  0.581900  0.112400  1.0
  N  N2030  1  0.900800  0.418100  0.887600  1.0
  N  N2031  1  0.014500  0.569800  0.111430  1.0
  N  N2032  1  0.985500  0.430200  0.888570  1.0
  N  N2033  1  0.410900  0.003500  0.312700  1.0
  N  N2034  1  0.589100  0.996500  0.687300  1.0
  N  N2035  1  0.500200  0.016800  0.298770  1.0
  N  N2036  1  0.499800  0.983200  0.701230  1.0
  N  N2037  1  0.247500  0.664800  0.557630  1.0
  N  N2038  1  0.752500  0.335200  0.442370  1.0
  N  N2039  1  0.267900  0.583300  0.611370  1.0
  N  N2040  1  0.732100  0.416700  0.388630  1.0
  N  N2041  1  0.018100  0.150000  0.203360  1.0
  N  N2042  1  0.981900  0.850000  0.796640  1.0
  N  N2043  1  0.990100  0.229700  0.150100  1.0
  N  N2044  1  0.009900  0.770300  0.849900  1.0
  N  N2045  1  0.863600  0.843300  0.426050  1.0
  N  N2046  1  0.136400  0.156700  0.573950  1.0
  N  N2047  1  0.772400  0.838300  0.432900  1.0
  N  N2048  1  0.227600  0.161700  0.567100  1.0
  N  N2049  1  0.452300  0.009500  0.058400  1.0
  N  N2050  1  0.547700  0.990500  0.941600  1.0
  N  N2051  1  0.437000  0.450000  0.432200  1.0
  N  N2052  1  0.563000  0.550000  0.567800  1.0
  N  N2053  1  0.947900  0.004500  0.353400  1.0
  N  N2054  1  0.052100  0.995500  0.646600  1.0
  N  N2055  1  0.405700  0.664300  0.529000  1.0
  N  N2056  1  0.594300  0.335700  0.471000  1.0
  N  N2057  1  0.040000  0.152100  0.371390  0.15
  N  N2058  1  0.960000  0.847900  0.628610  0.15
  N  N2059  1  0.450200  0.207000  0.058700  0.25
  N  N2060  1  0.549800  0.793000  0.941300  0.25
  N  N2061  1  0.524500  0.174700  0.990800  0.25
  N  N2062  1  0.475500  0.825300  0.009200  0.25
  N  N2063  1  0.557700  0.355800  0.207500  0.25
  N  N2064  1  0.442300  0.644200  0.792500  0.25
  N  N2065  1  0.575200  0.348000  0.216000  0.25
  N  N2066  1  0.424800  0.652000  0.784000  0.25
  N  N2067  1  0.352800  0.720100  0.290810  0.25
  N  N2068  1  0.647200  0.279900  0.709190  0.25
  N  N2069  1  0.368200  0.691000  0.278600  0.25
  N  N2070  1  0.631800  0.309000  0.721400  0.25
  N  N2071  1  0.309500  0.837900  0.195400  0.25
  N  N2072  1  0.690500  0.162100  0.804600  0.25
  N  N2073  1  0.921000  0.504500  0.439490  0.25
  N  N2074  1  0.079000  0.495500  0.560510  0.25
  N  N2075  1  0.128700  0.335500  0.203500  0.25
  N  N2076  1  0.871300  0.664500  0.796500  0.25
  N  N2077  1  0.215600  0.210000  0.199200  0.25
  N  N2078  1  0.784400  0.790000  0.800800  0.25
  N  N2079  1  0.129600  0.333333  0.188500  0.25
  N  N2080  1  0.870400  0.666667  0.811500  0.25
  N  N2081  1  0.459600  0.476600  0.079100  0.25
  N  N2082  1  0.540400  0.523400  0.920900  0.25
  N  N2083  1  0.453400  0.480900  0.077400  0.25
  N  N2084  1  0.546600  0.519100  0.922600  0.25
  N  N2085  1  0.588700  0.388600  0.067800  0.25
  N  N2086  1  0.411300  0.611400  0.932200  0.25
  N  N2087  1  0.847900  0.242600  0.058500  0.25
  N  N2088  1  0.152100  0.757400  0.941500  0.25
  N  N2089  1  0.824200  0.223600  0.088700  0.25
  N  N2090  1  0.175800  0.776400  0.911300  0.25
  N  N2091  1  0.861000  0.636300  0.483900  0.25
  N  N2092  1  0.139000  0.363700  0.516100  0.25
  N  N2093  1  0.116500  0.003400  0.997700  0.3
  N  N2094  1  0.883500  0.996600  0.002300  0.3
  N  N2095  1  0.700100  0.454300  0.259700  0.3
  N  N2096  1  0.299900  0.545700  0.740300  0.3
  N  N2097  1  0.343900  0.807800  0.189680  0.3
  N  N2098  1  0.656100  0.192200  0.810320  0.3
  N  N2099  1  0.061500  0.485700  0.435280  0.3
  N  N2100  1  0.938500  0.514300  0.564720  0.3
  N  N2101  1  0.033000  0.165700  0.348710  0.3
  N  N2102  1  0.967000  0.834300  0.651290  0.3
  N  N2103  1  0.614200  0.587000  0.020500  0.3
  N  N2104  1  0.385800  0.413000  0.979500  0.3
  N  N2105  1  0.582300  0.615700  0.021200  0.3
  N  N2106  1  0.417700  0.384300  0.978800  0.3
  N  N2107  1  0.952700  0.925000  0.098000  0.3
  N  N2108  1  0.047300  0.075000  0.902000  0.3
  N  N2109  1  0.022900  0.020300  0.045000  0.3
  N  N2110  1  0.977100  0.979700  0.955000  0.3
  N  N2111  1  0.648800  0.791700  0.195800  0.3
  N  N2112  1  0.351200  0.208300  0.804200  0.3
  N  N2113  1  0.400900  0.181400  0.309300  0.3
  N  N2114  1  0.599100  0.818600  0.690700  0.3
  N  N2115  1  0.950400  0.644700  0.481000  0.3
  N  N2116  1  0.049600  0.355300  0.519000  0.3
  N  N2117  1  0.329500  0.653400  0.196350  0.3333
  N  N2118  1  0.670500  0.346600  0.803650  0.3333
  N  N2119  1  0.341800  0.677500  0.193930  0.3333
  N  N2120  1  0.658200  0.322500  0.806070  0.3333
  N  N2121  1  0.324100  0.651900  0.213200  0.3333
  N  N2122  1  0.675900  0.348100  0.786800  0.3333
  N  N2123  1  0.221700  0.124900  0.041180  0.425
  N  N2124  1  0.778300  0.875100  0.958820  0.425
  N  N2125  1  0.439900  0.008900  0.371700  0.43
  N  N2126  1  0.560100  0.991100  0.628300  0.43
  N  N2127  1  0.164800  0.818700  0.209630  0.46
  N  N2128  1  0.835200  0.181300  0.790370  0.46
  N  N2129  1  0.446100  0.080800  0.174800  0.5
  N  N2130  1  0.553900  0.919200  0.825200  0.5
  N  N2131  1  0.283700  0.364000  0.161100  0.5
  N  N2132  1  0.716300  0.636000  0.838900  0.5
  N  N2133  1  0.635400  0.497400  0.261900  0.5
  N  N2134  1  0.364600  0.502600  0.738100  0.5
  N  N2135  1  0.921100  0.069450  0.184870  0.5
  N  N2136  1  0.078900  0.930550  0.815130  0.5
  N  N2137  1  0.914400  0.092740  0.182130  0.5
  N  N2138  1  0.085600  0.907260  0.817870  0.5
  N  N2139  1  0.119700  0.336600  0.190600  0.5
  N  N2140  1  0.880300  0.663400  0.809400  0.5
  N  N2141  1  0.748400  0.559200  0.289300  0.5
  N  N2142  1  0.251600  0.440800  0.710700  0.5
  N  N2143  1  0.599600  0.752100  0.299100  0.5
  N  N2144  1  0.400400  0.247900  0.700900  0.5
  N  N2145  1  0.927000  0.133400  0.057700  0.5
  N  N2146  1  0.073000  0.866600  0.942300  0.5
  N  N2147  1  0.171800  0.782700  0.205170  0.54
  N  N2148  1  0.828200  0.217300  0.794830  0.54
  N  N2149  1  0.206800  0.803200  0.326980  0.56
  N  N2150  1  0.793200  0.196800  0.673020  0.56
  N  N2151  1  0.442500  0.003100  0.378800  0.57
  N  N2152  1  0.557500  0.996900  0.621200  0.57
  N  N2153  1  0.396400  0.165600  0.317900  0.6
  N  N2154  1  0.603600  0.834400  0.682100  0.6
  N  N2155  1  0.177400  0.691100  0.308880  0.625
  N  N2156  1  0.822600  0.308900  0.691120  0.625
  N  N2157  1  0.364100  0.686900  0.300350  0.1
  N  N2158  1  0.635900  0.313100  0.699650  0.1
  N  N2159  1  0.947400  0.779000  0.522340  0.1
  N  N2160  1  0.052600  0.221000  0.477660  0.1
  N  N2161  1  0.503300  0.214300  0.981700  0.2
  N  N2162  1  0.496700  0.785700  0.018300  0.2
  N  N2163  1  0.056200  0.492200  0.422910  0.2
  N  N2164  1  0.943800  0.507800  0.577090  0.2
  N  N2165  1  0.993400  0.794400  0.522320  0.2
  N  N2166  1  0.006600  0.205600  0.477680  0.2
  N  N2167  1  0.843600  0.826700  0.249020  0.2
  N  N2168  1  0.156400  0.173300  0.750980  0.2
  N  N2169  1  0.946700  0.904800  0.083900  0.2
  N  N2170  1  0.053300  0.095200  0.916100  0.2
  N  N2171  1  0.590400  0.849800  0.155200  0.2
  N  N2172  1  0.409600  0.150200  0.844800  0.2
  N  N2173  1  0.280800  0.100900  0.237700  0.2
  N  N2174  1  0.719200  0.899100  0.762300  0.2
  N  N2175  1  0.226100  0.827500  0.310830  0.22
  N  N2176  1  0.773900  0.172500  0.689170  0.22
  N  N2177  1  0.208500  0.823300  0.317100  0.22
  N  N2178  1  0.791500  0.176700  0.682900  0.22
  N  N2179  1  0.191000  0.667800  0.295740  0.375
  N  N2180  1  0.809000  0.332200  0.704260  0.375
  N  N2181  1  0.068400  0.009600  0.441680  0.375
  N  N2182  1  0.931600  0.990400  0.558320  0.375
  N  N2183  1  0.118400  0.988300  0.532570  0.375
  N  N2184  1  0.881600  0.011700  0.467430  0.375
  N  N2185  1  0.087300  0.007300  0.444270  0.375
  N  N2186  1  0.912700  0.992700  0.555730  0.375
  N  N2187  1  0.229500  0.946900  0.672500  0.4
  N  N2188  1  0.770500  0.053100  0.327500  0.4
  N  N2189  1  0.351300  0.669200  0.296990  0.4
  N  N2190  1  0.648700  0.330800  0.703010  0.4
  N  N2191  1  0.315200  0.822000  0.177580  0.4
  N  N2192  1  0.684800  0.178000  0.822420  0.4
  N  N2193  1  0.831500  0.841200  0.250400  0.4
  N  N2194  1  0.168500  0.158800  0.749600  0.4
  N  N2195  1  0.284700  0.653600  0.012170  0.4
  N  N2196  1  0.715300  0.346400  0.987830  0.4
  N  N2197  1  0.290900  0.452300  0.054700  0.75
  N  N2198  1  0.709100  0.547700  0.945300  0.75
  O  O2199  1  0.646000  0.712600  0.977700  0.764
  O  O2200  1  0.354000  0.287400  0.022300  0.764
  O  O2201  1  0.736100  0.693700  0.983100  0.764
  O  O2202  1  0.263900  0.306300  0.016900  0.764
  O  O2203  1  0.717700  0.709800  0.921900  0.764
  O  O2204  1  0.282300  0.290200  0.078100  0.764
  O  O2205  1  0.145320  0.635660  0.395020  1.0
  O  O2206  1  0.854680  0.364340  0.604980  1.0
  O  O2207  1  0.105810  0.579100  0.432400  1.0
  O  O2208  1  0.894190  0.420900  0.567600  1.0
  O  O2209  1  0.220490  0.554440  0.354290  1.0
  O  O2210  1  0.779510  0.445560  0.645710  1.0
  O  O2211  1  0.180200  0.497800  0.390950  1.0
  O  O2212  1  0.819800  0.502200  0.609050  1.0
  O  O2213  1  0.148490  0.585820  0.300310  1.0
  O  O2214  1  0.851510  0.414180  0.699690  1.0
  O  O2215  1  0.106860  0.531000  0.338070  1.0
  O  O2216  1  0.893140  0.469000  0.661930  1.0
  O  O2217  1  0.072010  0.669300  0.342500  1.0
  O  O2218  1  0.927990  0.330700  0.657500  1.0
  O  O2219  1  0.032160  0.613300  0.380820  1.0
  O  O2220  1  0.967840  0.386700  0.619180  1.0
  O  O2221  1  0.377320  0.629120  0.380370  1.0
  O  O2222  1  0.622680  0.370880  0.619630  1.0
  O  O2223  1  0.442910  0.592170  0.412190  1.0
  O  O2224  1  0.557090  0.407830  0.587810  1.0
  O  O2225  1  0.445470  0.575160  0.318650  1.0
  O  O2226  1  0.554530  0.424840  0.681350  1.0
  O  O2227  1  0.510710  0.537400  0.350840  1.0
  O  O2228  1  0.489290  0.462600  0.649160  1.0
  O  O2229  1  0.549980  0.626490  0.313080  1.0
  O  O2230  1  0.450020  0.373510  0.686920  1.0
  O  O2231  1  0.484240  0.665810  0.281170  1.0
  O  O2232  1  0.515760  0.334190  0.718830  1.0
  O  O2233  1  0.483160  0.681740  0.373760  1.0
  O  O2234  1  0.516840  0.318260  0.626240  1.0
  O  O2235  1  0.416780  0.720130  0.342790  1.0
  O  O2236  1  0.583220  0.279870  0.657210  1.0
  O  O2237  1  0.039510  0.864710  0.222030  1.0
  O  O2238  1  0.960490  0.135290  0.777970  1.0
  O  O2239  1  0.973190  0.904270  0.191520  1.0
  O  O2240  1  0.026810  0.095730  0.808480  1.0
  O  O2241  1  0.076010  0.774510  0.183910  1.0
  O  O2242  1  0.923990  0.225490  0.816090  1.0
  O  O2243  1  0.010180  0.815820  0.152170  1.0
  O  O2244  1  0.989820  0.184180  0.847830  1.0
  O  O2245  1  0.106370  0.915530  0.160160  1.0
  O  O2246  1  0.893630  0.084470  0.839840  1.0
  O  O2247  1  0.039300  0.956050  0.129850  1.0
  O  O2248  1  0.960700  0.043950  0.870150  1.0
  O  O2249  1  0.144230  0.825830  0.121570  1.0
  O  O2250  1  0.855770  0.174170  0.878430  1.0
  O  O2251  1  0.077640  0.867360  0.090980  1.0
  O  O2252  1  0.922360  0.132640  0.909020  1.0
  O  O2253  1  0.302890  0.949500  0.160760  1.0
  O  O2254  1  0.697110  0.050500  0.839240  1.0
  O  O2255  1  0.341960  0.006420  0.121050  1.0
  O  O2256  1  0.658040  0.993580  0.878950  1.0
  O  O2257  1  0.335500  0.891200  0.098880  1.0
  O  O2258  1  0.664500  0.108800  0.901120  1.0
  O  O2259  1  0.376400  0.946000  0.060380  1.0
  O  O2260  1  0.623600  0.054000  0.939620  1.0
  O  O2261  1  0.402770  0.883200  0.186540  1.0
  O  O2262  1  0.597230  0.116800  0.813460  1.0
  O  O2263  1  0.440900  0.939900  0.149000  1.0
  O  O2264  1  0.559100  0.060100  0.851000  1.0
  O  O2265  1  0.436000  0.824100  0.126530  1.0
  O  O2266  1  0.564000  0.175900  0.873470  1.0
  O  O2267  1  0.475900  0.880700  0.088720  1.0
  O  O2268  1  0.524100  0.119300  0.911280  1.0
  O  O2269  1  0.443820  0.598500  0.158920  1.0
  O  O2270  1  0.556180  0.401500  0.841080  1.0
  O  O2271  1  0.485240  0.542100  0.120730  1.0
  O  O2272  1  0.514760  0.457900  0.879270  1.0
  O  O2273  1  0.367900  0.540900  0.199900  1.0
  O  O2274  1  0.632100  0.459100  0.800100  1.0
  O  O2275  1  0.409950  0.484600  0.162580  1.0
  O  O2276  1  0.590050  0.515400  0.837420  1.0
  O  O2277  1  0.372080  0.664880  0.104770  1.0
  O  O2278  1  0.627920  0.335120  0.895230  1.0
  O  O2279  1  0.411990  0.607300  0.067580  1.0
  O  O2280  1  0.588010  0.392700  0.932420  1.0
  O  O2281  1  0.296360  0.609500  0.145640  1.0
  O  O2282  1  0.703640  0.390500  0.854360  1.0
  O  O2283  1  0.337300  0.551210  0.109070  1.0
  O  O2284  1  0.662700  0.448790  0.890930  1.0
  O  O2285  1  0.189150  0.963900  0.380410  1.0
  O  O2286  1  0.810850  0.036100  0.619590  1.0
  O  O2287  1  0.227800  0.909480  0.341190  1.0
  O  O2288  1  0.772200  0.090520  0.658810  1.0
  O  O2289  1  0.155780  0.880300  0.442400  1.0
  O  O2290  1  0.844220  0.119700  0.557600  1.0
  O  O2291  1  0.196710  0.824860  0.403330  1.0
  O  O2292  1  0.803290  0.175140  0.596670  1.0
  O  O2293  1  0.089510  0.996040  0.354200  1.0
  O  O2294  1  0.910490  0.003960  0.645800  1.0
  O  O2295  1  0.127160  0.940300  0.316200  1.0
  O  O2296  1  0.872840  0.059700  0.683800  1.0
  O  O2297  1  0.056410  0.915600  0.414910  1.0
  O  O2298  1  0.943590  0.084400  0.585090  1.0
  O  O2299  1  0.095940  0.858600  0.377030  1.0
  O  O2300  1  0.904060  0.141400  0.622970  1.0
  O  O2301  1  0.329200  0.854900  0.534100  1.0
  O  O2302  1  0.670800  0.145100  0.465900  1.0
  O  O2303  1  0.392700  0.834900  0.476660  1.0
  O  O2304  1  0.607300  0.165100  0.523340  1.0
  O  O2305  1  0.324100  0.919600  0.477200  1.0
  O  O2306  1  0.675900  0.080400  0.522800  1.0
  O  O2307  1  0.892500  0.592600  0.005800  1.0
  O  O2308  1  0.107500  0.407400  0.994200  1.0
  O  O2309  1  0.187000  0.399000  0.286000  0.1
  O  O2310  1  0.813000  0.601000  0.714000  0.1
  O  O2311  1  0.221000  0.464800  0.284000  0.1
  O  O2312  1  0.779000  0.535200  0.716000  0.1
  O  O2313  1  0.247000  0.382000  0.326800  0.1
  O  O2314  1  0.753000  0.618000  0.673200  0.1
  O  O2315  1  0.566700  0.573000  0.394900  0.2
  O  O2316  1  0.433300  0.427000  0.605100  0.2
  O  O2317  1  0.642600  0.598900  0.378700  0.2
  O  O2318  1  0.357400  0.401100  0.621300  0.2
  O  O2319  1  0.648800  0.510000  0.411600  0.2
  O  O2320  1  0.351200  0.490000  0.588400  0.2
  O  O2321  1  0.646700  0.745000  0.987400  0.236
  O  O2322  1  0.353300  0.255000  0.012600  0.236
  O  O2323  1  0.713600  0.773000  0.988900  0.236
  O  O2324  1  0.286400  0.227000  0.011100  0.236
  O  O2325  1  0.741100  0.690700  0.972100  0.236
  O  O2326  1  0.258900  0.309300  0.027900  0.236
  O  O2327  1  0.831800  0.869300  0.578000  0.248
  O  O2328  1  0.168200  0.130700  0.422000  0.248
  O  O2329  1  0.829700  0.811300  0.544900  0.248
  O  O2330  1  0.170300  0.188700  0.455100  0.248
  O  O2331  1  0.824500  0.902400  0.515900  0.248
  O  O2332  1  0.175500  0.097600  0.484100  0.248
  O  O2333  1  0.030300  0.194200  0.058800  0.25
  O  O2334  1  0.969700  0.805800  0.941200  0.25
  O  O2335  1  0.056700  0.272500  0.021300  0.25
  O  O2336  1  0.943300  0.727500  0.978700  0.25
  O  O2337  1  0.980000  0.263100  0.018600  0.25
  O  O2338  1  0.020000  0.736900  0.981400  0.25
  O  O2339  1  0.422700  0.152300  0.152200  0.25
  O  O2340  1  0.577300  0.847700  0.847800  0.25
  O  O2341  1  0.456800  0.063600  0.186500  0.25
  O  O2342  1  0.543200  0.936400  0.813500  0.25
  O  O2343  1  0.375500  0.124800  0.214000  0.25
  O  O2344  1  0.624500  0.875200  0.786000  0.25
  O  O2345  1  0.864400  0.650500  0.217400  0.25
  O  O2346  1  0.135600  0.349500  0.782600  0.25
  O  O2347  1  0.881600  0.664000  0.150100  0.25
  O  O2348  1  0.118400  0.336000  0.849900  0.25
  O  O2349  1  0.792000  0.673400  0.190000  0.25
  O  O2350  1  0.208000  0.326600  0.810000  0.25
  O  O2351  1  0.882400  0.664100  0.192100  0.25
  O  O2352  1  0.117600  0.335900  0.807900  0.25
  O  O2353  1  0.879500  0.679800  0.129600  0.25
  O  O2354  1  0.120500  0.320200  0.870400  0.25
  O  O2355  1  0.798500  0.693400  0.174800  0.25
  O  O2356  1  0.201500  0.306600  0.825200  0.25
  O  O2357  1  0.480300  0.435200  0.064400  0.25
  O  O2358  1  0.519700  0.564800  0.935600  0.25
  O  O2359  1  0.241400  0.298700  0.325700  0.25
  O  O2360  1  0.758600  0.701300  0.674300  0.25
  O  O2361  1  0.483000  0.261000  0.988100  0.25
  O  O2362  1  0.517000  0.739000  0.011900  0.25
  O  O2363  1  0.962000  0.097000  0.483900  0.25
  O  O2364  1  0.038000  0.903000  0.516100  0.25
  O  O2365  1  0.177000  0.064600  0.293000  0.25
  O  O2366  1  0.823000  0.935400  0.707000  0.25
  O  O2367  1  0.920600  0.482400  0.079400  0.27
  O  O2368  1  0.079400  0.517600  0.920600  0.27
  O  O2369  1  0.989800  0.386900  0.076200  0.27
  O  O2370  1  0.010200  0.613100  0.923800  0.27
  O  O2371  1  0.009500  0.438000  0.099800  0.27
  O  O2372  1  0.990500  0.562000  0.900200  0.27
  O  O2373  1  0.012800  0.441100  0.094700  0.31
  O  O2374  1  0.987200  0.558900  0.905300  0.31
  O  O2375  1  0.921400  0.456900  0.116500  0.31
  O  O2376  1  0.078600  0.543100  0.883500  0.31
  O  O2377  1  0.980400  0.370700  0.137200  0.31
  O  O2378  1  0.019600  0.629300  0.862800  0.31
  O  O2379  1  0.241600  0.047200  0.887000  0.35
  O  O2380  1  0.758400  0.952800  0.113000  0.35
  O  O2381  1  0.325500  0.030400  0.898200  0.35
  O  O2382  1  0.674500  0.969600  0.101800  0.35
  O  O2383  1  0.277800  0.117200  0.867500  0.35
  O  O2384  1  0.722200  0.882800  0.132500  0.35
  O  O2385  1  0.327000  0.897600  0.796100  0.4
  O  O2386  1  0.673000  0.102400  0.203900  0.4
  O  O2387  1  0.320300  0.925100  0.731500  0.4
  O  O2388  1  0.679700  0.074900  0.268500  0.4
  O  O2389  1  0.252800  0.898300  0.777700  0.4
  O  O2390  1  0.747200  0.101700  0.222300  0.4
  O  O2391  1  0.301700  0.869800  0.790400  0.4
  O  O2392  1  0.698300  0.130200  0.209600  0.4
  O  O2393  1  0.328600  0.938800  0.739000  0.4
  O  O2394  1  0.671400  0.061200  0.261000  0.4
  O  O2395  1  0.251100  0.962800  0.783900  0.4
  O  O2396  1  0.748900  0.037200  0.216100  0.4
  O  O2397  1  0.912800  0.483500  0.119100  0.42
  O  O2398  1  0.087200  0.516500  0.880900  0.42
  O  O2399  1  0.920600  0.415100  0.091000  0.42
  O  O2400  1  0.079400  0.584900  0.909000  0.42
  O  O2401  1  0.979600  0.391400  0.132000  0.42
  O  O2402  1  0.020400  0.608600  0.868000  0.42
  O  O2403  1  0.523200  0.027300  0.425300  0.445
  O  O2404  1  0.476800  0.972700  0.574700  0.445
  O  O2405  1  0.559900  0.057400  0.361400  0.445
  O  O2406  1  0.440100  0.942600  0.638600  0.445
  O  O2407  1  0.503000  0.119000  0.400400  0.445
  O  O2408  1  0.497000  0.881000  0.599600  0.445
  O  O2409  1  0.035000  0.304400  0.346500  0.481
  O  O2410  1  0.965000  0.695600  0.653500  0.481
  O  O2411  1  0.971700  0.364600  0.383100  0.481
  O  O2412  1  0.028300  0.635400  0.616900  0.481
  O  O2413  1  0.959500  0.369700  0.322000  0.481
  O  O2414  1  0.040500  0.630300  0.678000  0.481
  O  O2415  1  0.076600  0.255500  0.009900  0.5
  O  O2416  1  0.923400  0.744500  0.990100  0.5
  O  O2417  1  0.024600  0.214800  0.061600  0.5
  O  O2418  1  0.975400  0.785200  0.938400  0.5
  O  O2419  1  0.994600  0.250500  0.002800  0.5
  O  O2420  1  0.005400  0.749500  0.997200  0.5
  O  O2421  1  0.125100  0.580200  0.012000  0.5
  O  O2422  1  0.874900  0.419800  0.988000  0.5
  O  O2423  1  0.145500  0.618300  0.946300  0.5
  O  O2424  1  0.854500  0.381700  0.053700  0.5
  O  O2425  1  0.095400  0.673200  0.988200  0.5
  O  O2426  1  0.904600  0.326800  0.011800  0.5
  O  O2427  1  0.115200  0.737300  0.031200  0.5
  O  O2428  1  0.884800  0.262700  0.968800  0.5
  O  O2429  1  0.299600  0.111800  0.269300  0.5
  O  O2430  1  0.700400  0.888200  0.730700  0.5
  O  O2431  1  0.219300  0.187300  0.272900  0.5
  O  O2432  1  0.780700  0.812700  0.727100  0.5
  O  O2433  1  0.245700  0.147800  0.220300  0.5
  O  O2434  1  0.754300  0.852200  0.779700  0.5
  O  O2435  1  0.947600  0.923400  0.105400  0.5
  O  O2436  1  0.052400  0.076600  0.894600  0.5
  O  O2437  1  0.585800  0.063100  0.453100  0.5
  O  O2438  1  0.414200  0.936900  0.546900  0.5
  O  O2439  1  0.968300  0.374000  0.319900  0.519
  O  O2440  1  0.031700  0.626000  0.680100  0.519
  O  O2441  1  0.005200  0.439100  0.312200  0.519
  O  O2442  1  0.994800  0.560900  0.687800  0.519
  O  O2443  1  0.063300  0.350800  0.310400  0.519
  O  O2444  1  0.936700  0.649200  0.689600  0.519
  O  O2445  1  0.520900  0.117000  0.407600  0.555
  O  O2446  1  0.479100  0.883000  0.592400  0.555
  O  O2447  1  0.615400  0.086700  0.380900  0.555
  O  O2448  1  0.384600  0.913300  0.619100  0.555
  O  O2449  1  0.557000  0.048300  0.371700  0.555
  O  O2450  1  0.443000  0.951700  0.628300  0.555
  O  O2451  1  0.791800  0.814000  0.561200  0.752
  O  O2452  1  0.208200  0.186000  0.438800  0.752
  O  O2453  1  0.816600  0.883000  0.513300  0.752
  O  O2454  1  0.183400  0.117000  0.486700  0.752
  O  O2455  1  0.729200  0.875000  0.528300  0.752
  O  O2456  1  0.270800  0.125000  0.471700  0.752
  O  O2457  1  0.856000  0.182800  0.340100  0.15
  O  O2458  1  0.144000  0.817200  0.659900  0.15
  O  O2459  1  0.840000  0.122700  0.314900  0.15
  O  O2460  1  0.160000  0.877300  0.685100  0.15
  O  O2461  1  0.925800  0.132500  0.301700  0.15
  O  O2462  1  0.074200  0.867500  0.698300  0.15
  O  O2463  1  0.200000  0.113500  0.879700  0.15
  O  O2464  1  0.800000  0.886500  0.120300  0.15
  O  O2465  1  0.273900  0.033500  0.895700  0.15
  O  O2466  1  0.726100  0.966500  0.104300  0.15
  O  O2467  1  0.195700  0.060000  0.942300  0.15
  O  O2468  1  0.804300  0.940000  0.057700  0.15
  O  O2469  1  0.501000  0.708000  0.809100  0.15
  O  O2470  1  0.499000  0.292000  0.190900  0.15
  O  O2471  1  0.573700  0.722000  0.819100  0.15
  O  O2472  1  0.426300  0.278000  0.180900  0.15
  O  O2473  1  0.487000  0.790900  0.825000  0.15
  O  O2474  1  0.513000  0.209100  0.175000  0.15
  O  O2475  1  0.568900  0.710600  0.857300  0.15
  O  O2476  1  0.431100  0.289400  0.142700  0.15
  O  O2477  1  0.476700  0.744000  0.883600  0.15
  O  O2478  1  0.523300  0.256000  0.116400  0.15
  O  O2479  1  0.526000  0.803500  0.844200  0.15
  O  O2480  1  0.474000  0.196500  0.155800  0.15
  O  O2481  1  0.223000  0.772000  0.183300  0.15
  O  O2482  1  0.777000  0.228000  0.816700  0.15
  O  O2483  1  0.232000  0.313400  0.295000  0.3
  O  O2484  1  0.768000  0.686600  0.705000  0.3
  O  O2485  1  0.299200  0.351700  0.265400  0.3
  O  O2486  1  0.700800  0.648300  0.734600  0.3
  O  O2487  1  0.210500  0.395200  0.249600  0.3
  O  O2488  1  0.789500  0.604800  0.750400  0.3
  O  O2489  1  0.226700  0.394100  0.233000  0.3
  O  O2490  1  0.773300  0.605900  0.767000  0.3
  O  O2491  1  0.316100  0.356700  0.245300  0.3
  O  O2492  1  0.683900  0.643300  0.754700  0.3
  O  O2493  1  0.294900  0.327400  0.201100  0.3
  O  O2494  1  0.705100  0.672600  0.798900  0.3
  O  O2495  1  0.616400  0.386400  0.251300  0.3
  O  O2496  1  0.383600  0.613600  0.748700  0.3
  O  O2497  1  0.648700  0.443500  0.195100  0.3
  O  O2498  1  0.351300  0.556500  0.804900  0.3
  O  O2499  1  0.664200  0.354600  0.193000  0.3
  O  O2500  1  0.335800  0.645400  0.807000  0.3
  O  O2501  1  0.714000  0.427900  0.172700  0.3
  O  O2502  1  0.286000  0.572100  0.827300  0.3
  O  O2503  1  0.753100  0.336500  0.169400  0.3
  O  O2504  1  0.246900  0.663500  0.830600  0.3
  O  O2505  1  0.670400  0.389600  0.147900  0.3
  O  O2506  1  0.329600  0.610400  0.852100  0.3
  O  O2507  1  0.353900  0.194000  0.297800  0.3
  O  O2508  1  0.646100  0.806000  0.702200  0.3
  O  O2509  1  0.455700  0.489300  0.063200  0.3
  O  O2510  1  0.544300  0.510700  0.936800  0.3
  O  O2511  1  0.573800  0.578700  0.391800  0.65
  O  O2512  1  0.426200  0.421300  0.608200  0.65
  O  O2513  1  0.651900  0.548100  0.420500  0.65
  O  O2514  1  0.348100  0.451900  0.579500  0.65
  O  O2515  1  0.571700  0.526300  0.457000  0.65
  O  O2516  1  0.428300  0.473700  0.543000  0.65
  O  O2517  1  0.848500  0.172500  0.250700  0.65
  O  O2518  1  0.151500  0.827500  0.749300  0.65
  O  O2519  1  0.895400  0.218100  0.266400  0.65
  O  O2520  1  0.104600  0.781900  0.733600  0.65
  O  O2521  1  0.803800  0.227000  0.298500  0.65
  O  O2522  1  0.196200  0.773000  0.701500  0.65
  F  F2523  1  0.743700  0.756200  0.894800  0.236
  F  F2524  1  0.256300  0.243800  0.105200  0.236
  F  F2525  1  0.693000  0.826300  0.915000  0.236
  F  F2526  1  0.307000  0.173700  0.085000  0.236
  F  F2527  1  0.657900  0.778000  0.909000  0.236
  F  F2528  1  0.342100  0.222000  0.091000  0.236
  F  F2529  1  0.917700  0.467000  0.144400  0.27
  F  F2530  1  0.082300  0.533000  0.855600  0.27
  F  F2531  1  0.951500  0.373100  0.154100  0.27
  F  F2532  1  0.048500  0.626900  0.845900  0.27
  F  F2533  1  0.880700  0.420000  0.123200  0.27
  F  F2534  1  0.119300  0.580000  0.876800  0.27
  F  F2535  1  0.314200  0.501390  0.267210  0.9
  F  F2536  1  0.685800  0.498610  0.732790  0.9
  F  F2537  1  0.246600  0.866800  0.496900  1.0
  F  F2538  1  0.753400  0.133200  0.503100  1.0
  F  F2539  1  0.307200  0.789700  0.499200  1.0
  F  F2540  1  0.692800  0.210300  0.500800  1.0
  F  F2541  1  0.300200  0.849200  0.446400  1.0
  F  F2542  1  0.699800  0.150800  0.553600  1.0
  F  F2543  1  0.461900  0.380400  0.194600  0.1
  F  F2544  1  0.538100  0.619600  0.805400  0.1
  F  F2545  1  0.307000  0.335700  0.256000  0.1
  F  F2546  1  0.693000  0.664300  0.744000  0.1
  F  F2547  1  0.331300  0.396000  0.256300  0.1
  F  F2548  1  0.668700  0.604000  0.743700  0.1
  F  F2549  1  0.281000  0.413000  0.218500  0.1
  F  F2550  1  0.719000  0.587000  0.781500  0.1
  F  F2551  1  0.235600  0.395400  0.409700  0.15
  F  F2552  1  0.764400  0.604600  0.590300  0.15
  F  F2553  1  0.525700  0.740100  0.391300  0.15
  F  F2554  1  0.474300  0.259900  0.608700  0.15
  F  F2555  1  0.423700  0.641400  0.990900  0.15
  F  F2556  1  0.576300  0.358600  0.009100  0.15
  F  F2557  1  0.282400  0.506500  0.091500  0.15
  F  F2558  1  0.717600  0.493500  0.908500  0.15
  F  F2559  1  0.855500  0.190700  0.236900  0.15
  F  F2560  1  0.144500  0.809300  0.763100  0.15
  F  F2561  1  0.798100  0.242400  0.272100  0.15
  F  F2562  1  0.201900  0.757600  0.727900  0.15
  F  F2563  1  0.875900  0.242400  0.255600  0.15
  F  F2564  1  0.124100  0.757600  0.744400  0.15
  F  F2565  1  0.236000  0.131000  0.953500  0.15
  F  F2566  1  0.764000  0.869000  0.046500  0.15
  F  F2567  1  0.306000  0.110000  0.909500  0.15
  F  F2568  1  0.694000  0.890000  0.090500  0.15
  F  F2569  1  0.235000  0.172400  0.898200  0.15
  F  F2570  1  0.765000  0.827600  0.101800  0.15
  F  F2571  1  0.532000  0.654500  0.888300  0.15
  F  F2572  1  0.468000  0.345500  0.111700  0.15
  F  F2573  1  0.510000  0.726000  0.902200  0.15
  F  F2574  1  0.490000  0.274000  0.097800  0.15
  F  F2575  1  0.451900  0.705000  0.890000  0.15
  F  F2576  1  0.548100  0.295000  0.110000  0.15
  F  F2577  1  0.465700  0.792800  0.803600  0.15
  F  F2578  1  0.534300  0.207200  0.196400  0.15
  F  F2579  1  0.547100  0.756000  0.780100  0.15
  F  F2580  1  0.452900  0.244000  0.219900  0.15
  F  F2581  1  0.504000  0.704900  0.814200  0.15
  F  F2582  1  0.496000  0.295100  0.185800  0.15
  F  F2583  1  0.104400  0.552800  0.507600  0.2
  F  F2584  1  0.895600  0.447200  0.492400  0.2
  F  F2585  1  0.056900  0.499900  0.306300  0.2
  F  F2586  1  0.943100  0.500100  0.693700  0.2
  F  F2587  1  0.993500  0.062400  0.119200  0.2
  F  F2588  1  0.006500  0.937600  0.880800  0.2
  F  F2589  1  0.098700  0.895700  0.016000  0.2
  F  F2590  1  0.901300  0.104300  0.984000  0.2
  F  F2591  1  0.605300  0.553500  0.481300  0.2
  F  F2592  1  0.394700  0.446500  0.518700  0.2
  F  F2593  1  0.550200  0.622700  0.452000  0.2
  F  F2594  1  0.449800  0.377300  0.548000  0.2
  F  F2595  1  0.628700  0.616000  0.448100  0.2
  F  F2596  1  0.371300  0.384000  0.551900  0.2
  F  F2597  1  0.726800  0.854900  0.597600  0.248
  F  F2598  1  0.273200  0.145100  0.402400  0.248
  F  F2599  1  0.705800  0.898200  0.541600  0.248
  F  F2600  1  0.294200  0.101800  0.458400  0.248
  F  F2601  1  0.723600  0.934400  0.576400  0.248
  F  F2602  1  0.276400  0.065600  0.423600  0.248
  F  F2603  1  0.650900  0.598800  0.274500  0.25
  F  F2604  1  0.349100  0.401200  0.725500  0.25
  F  F2605  1  0.041200  0.097300  0.327300  0.25
  F  F2606  1  0.958800  0.902700  0.672700  0.25
  F  F2607  1  0.115200  0.129800  0.030200  0.25
  F  F2608  1  0.884800  0.870200  0.969800  0.25
  F  F2609  1  0.061100  0.154300  0.991300  0.25
  F  F2610  1  0.938900  0.845700  0.008700  0.25
  F  F2611  1  0.081100  0.218200  0.956900  0.25
  F  F2612  1  0.918900  0.781800  0.043100  0.25
  F  F2613  1  0.125100  0.167000  0.004600  0.25
  F  F2614  1  0.874900  0.833000  0.995400  0.25
  F  F2615  1  0.399700  0.071900  0.128500  0.25
  F  F2616  1  0.600300  0.928100  0.871500  0.25
  F  F2617  1  0.328100  0.128500  0.153800  0.25
  F  F2618  1  0.671900  0.871500  0.846200  0.25
  F  F2619  1  0.359700  0.049500  0.186700  0.25
  F  F2620  1  0.640300  0.950500  0.813300  0.25
  F  F2621  1  0.877600  0.757200  0.169800  0.25
  F  F2622  1  0.122400  0.242800  0.830200  0.25
  F  F2623  1  0.801600  0.779600  0.155400  0.25
  F  F2624  1  0.198400  0.220400  0.844600  0.25
  F  F2625  1  0.809400  0.754500  0.215500  0.25
  F  F2626  1  0.190600  0.245500  0.784500  0.25
  F  F2627  1  0.890200  0.773600  0.141200  0.25
  F  F2628  1  0.109800  0.226400  0.858800  0.25
  F  F2629  1  0.823200  0.787500  0.121200  0.25
  F  F2630  1  0.176800  0.212500  0.878800  0.25
  F  F2631  1  0.811200  0.789000  0.179000  0.25
  F  F2632  1  0.188800  0.211000  0.821000  0.25
  F  F2633  1  0.928300  0.655700  0.415400  0.3
  F  F2634  1  0.071700  0.344300  0.584600  0.3
  F  F2635  1  0.488400  0.982100  0.176200  0.3
  F  F2636  1  0.511600  0.017900  0.823800  0.3
  F  F2637  1  0.587800  0.522200  0.091600  0.3
  F  F2638  1  0.412200  0.477800  0.908400  0.3
  F  F2639  1  0.957100  0.930900  0.450800  0.3
  F  F2640  1  0.042900  0.069100  0.549200  0.3
  F  F2641  1  0.250100  0.999400  0.397700  0.3
  F  F2642  1  0.749900  0.000600  0.602300  0.3
  F  F2643  1  0.139600  0.838500  0.518900  0.3
  F  F2644  1  0.860400  0.161500  0.481100  0.3
  F  F2645  1  0.168300  0.412800  0.322000  0.3
  F  F2646  1  0.831700  0.587200  0.678000  0.3
  F  F2647  1  0.234400  0.441200  0.300600  0.3
  F  F2648  1  0.765600  0.558800  0.699400  0.3
  F  F2649  1  0.239300  0.374100  0.344300  0.3
  F  F2650  1  0.760700  0.625900  0.655700  0.3
  F  F2651  1  0.290900  0.463100  0.193600  0.3
  F  F2652  1  0.709100  0.536900  0.806400  0.3
  F  F2653  1  0.276900  0.435400  0.150900  0.3
  F  F2654  1  0.723100  0.564600  0.849100  0.3
  F  F2655  1  0.354100  0.404900  0.163900  0.3
  F  F2656  1  0.645900  0.595100  0.836100  0.3
  F  F2657  1  0.578100  0.430800  0.154500  0.3
  F  F2658  1  0.421900  0.569200  0.845500  0.3
  F  F2659  1  0.535500  0.461800  0.204100  0.3
  F  F2660  1  0.464500  0.538200  0.795900  0.3
  F  F2661  1  0.549600  0.381900  0.202800  0.3
  F  F2662  1  0.450400  0.618100  0.797200  0.3
  F  F2663  1  0.802800  0.396000  0.106500  0.3
  F  F2664  1  0.197200  0.604000  0.893500  0.3
  F  F2665  1  0.729300  0.447200  0.088000  0.3
  F  F2666  1  0.270700  0.552800  0.912000  0.3
  F  F2667  1  0.758300  0.363500  0.089800  0.3
  F  F2668  1  0.241700  0.636500  0.910200  0.3
  F  F2669  1  0.957500  0.454700  0.036400  0.31
  F  F2670  1  0.042500  0.545300  0.963600  0.31
  F  F2671  1  0.918200  0.400700  0.067600  0.31
  F  F2672  1  0.081800  0.599300  0.932400  0.31
  F  F2673  1  0.006900  0.373900  0.049000  0.31
  F  F2674  1  0.993100  0.626100  0.951000  0.31
  F  F2675  1  0.285700  0.104700  0.108000  0.38
  F  F2676  1  0.714300  0.895300  0.892000  0.38
  F  F2677  1  0.981000  0.760300  0.125200  0.4
  F  F2678  1  0.019000  0.239700  0.874800  0.4
  F  F2679  1  0.388100  0.954900  0.985200  0.4
  F  F2680  1  0.611900  0.045100  0.014800  0.4
  F  F2681  1  0.583500  0.842900  0.067900  0.4
  F  F2682  1  0.416500  0.157100  0.932100  0.4
  F  F2683  1  0.229500  0.990300  0.812500  0.4
  F  F2684  1  0.770500  0.009700  0.187500  0.4
  F  F2685  1  0.224000  0.015600  0.753700  0.4
  F  F2686  1  0.776000  0.984400  0.246300  0.4
  F  F2687  1  0.291000  0.013900  0.771000  0.4
  F  F2688  1  0.709000  0.986100  0.229000  0.4
  F  F2689  1  0.207400  0.903000  0.761900  0.4
  F  F2690  1  0.792600  0.097000  0.238100  0.4
  F  F2691  1  0.274300  0.879600  0.718100  0.4
  F  F2692  1  0.725700  0.120400  0.281900  0.4
  F  F2693  1  0.233100  0.962700  0.713100  0.4
  F  F2694  1  0.766900  0.037300  0.286900  0.4
  F  F2695  1  0.887800  0.412700  0.194700  0.42
  F  F2696  1  0.112200  0.587300  0.805300  0.42
  F  F2697  1  0.834200  0.435300  0.157100  0.42
  F  F2698  1  0.165800  0.564700  0.842900  0.42
  F  F2699  1  0.887400  0.354400  0.171900  0.42
  F  F2700  1  0.112600  0.645600  0.828100  0.42
  F  F2701  1  0.075800  0.384600  0.340200  0.481
  F  F2702  1  0.924200  0.615400  0.659800  0.481
  F  F2703  1  0.005500  0.444800  0.322900  0.481
  F  F2704  1  0.994500  0.555200  0.677100  0.481
  F  F2705  1  0.056800  0.390700  0.286300  0.481
  F  F2706  1  0.943200  0.609300  0.713700  0.481
  F  F2707  1  0.099700  0.170600  0.970900  0.5
  F  F2708  1  0.900300  0.829400  0.029100  0.5
  F  F2709  1  0.044400  0.136300  0.019600  0.5
  F  F2710  1  0.955600  0.863700  0.980400  0.5
  F  F2711  1  0.205700  0.672500  0.962000  0.5
  F  F2712  1  0.794300  0.327500  0.038000  0.5
  F  F2713  1  0.190900  0.652300  0.021100  0.5
  F  F2714  1  0.809100  0.347700  0.978900  0.5
  F  F2715  1  0.236000  0.591000  0.992800  0.5
  F  F2716  1  0.764000  0.409000  0.007200  0.5
  F  F2717  1  0.226200  0.055000  0.279100  0.5
  F  F2718  1  0.773800  0.945000  0.720900  0.5
  F  F2719  1  0.216600  0.093700  0.323700  0.5
  F  F2720  1  0.783400  0.906300  0.676300  0.5
  F  F2721  1  0.158600  0.122700  0.289500  0.5
  F  F2722  1  0.841400  0.877300  0.710500  0.5
  F  F2723  1  0.014100  0.315000  0.387400  0.519
  F  F2724  1  0.985900  0.685000  0.612600  0.519
  F  F2725  1  0.048400  0.371200  0.385500  0.519
  F  F2726  1  0.951600  0.628800  0.614500  0.519
  F  F2727  1  0.962400  0.395300  0.393900  0.519
  F  F2728  1  0.037600  0.604700  0.606100  0.519
  F  F2729  1  0.534900  0.010500  0.454000  0.555
  F  F2730  1  0.465100  0.989500  0.546000  0.555
  F  F2731  1  0.619500  0.985900  0.430600  0.555
  F  F2732  1  0.380500  0.014100  0.569400  0.555
  F  F2733  1  0.580600  0.037200  0.468700  0.555
  F  F2734  1  0.419400  0.962800  0.531300  0.555
  F  F2735  1  0.071900  0.681500  0.230500  0.6
  F  F2736  1  0.928100  0.318500  0.769500  0.6
  F  F2737  1  0.248500  0.896800  0.077700  0.6
  F  F2738  1  0.751500  0.103200  0.922300  0.6
  F  F2739  1  0.477200  0.726800  0.112100  0.6
  F  F2740  1  0.522800  0.273200  0.887900  0.6
  F  F2741  1  0.226800  0.986600  0.218000  0.62
  F  F2742  1  0.773200  0.013400  0.782000  0.62
  F  F2743  1  0.290400  0.601100  0.415640  0.65
  F  F2744  1  0.709600  0.398900  0.584360  0.65
  F  F2745  1  0.446700  0.518800  0.272400  0.65
  F  F2746  1  0.553300  0.481200  0.727600  0.65
  F  F2747  1  0.023200  0.893800  0.287100  0.65
  F  F2748  1  0.976800  0.106200  0.712900  0.65
  F  F2749  1  0.586400  0.610000  0.477900  0.65
  F  F2750  1  0.413600  0.390000  0.522100  0.65
  F  F2751  1  0.581000  0.661200  0.420900  0.65
  F  F2752  1  0.419000  0.338800  0.579100  0.65
  F  F2753  1  0.515100  0.634300  0.455200  0.65
  F  F2754  1  0.484900  0.365700  0.544800  0.65
  F  F2755  1  0.844900  0.111300  0.329900  0.65
  F  F2756  1  0.155100  0.888700  0.670100  0.65
  F  F2757  1  0.891100  0.149500  0.338700  0.65
  F  F2758  1  0.108900  0.850500  0.661300  0.65
  F  F2759  1  0.924300  0.102500  0.295300  0.65
  F  F2760  1  0.075700  0.897500  0.704700  0.65
  F  F2761  1  0.506100  0.732100  0.214740  0.75
  F  F2762  1  0.493900  0.267900  0.785260  0.75
  F  F2763  1  0.086900  0.967800  0.253000  0.75
  F  F2764  1  0.913100  0.032200  0.747000  0.75
  F  F2765  1  0.794400  0.894700  0.591500  0.752
  F  F2766  1  0.205600  0.105300  0.408500  0.752
  F  F2767  1  0.716200  0.890600  0.603900  0.752
  F  F2768  1  0.283800  0.109400  0.396100  0.752
  F  F2769  1  0.733800  0.953900  0.558800  0.752
  F  F2770  1  0.266200  0.046100  0.441200  0.752
  F  F2771  1  0.666667  0.803800  0.986100  0.764
  F  F2772  1  0.333333  0.196200  0.013900  0.764
  F  F2773  1  0.650100  0.819100  0.931700  0.764
  F  F2774  1  0.349900  0.180900  0.068300  0.764
  F  F2775  1  0.731000  0.799300  0.936900  0.764
  F  F2776  1  0.269000  0.200700  0.063100  0.764
  F  F2777  1  0.141500  0.708800  0.428460  0.8
  F  F2778  1  0.858500  0.291200  0.571540  0.8
  F  F2779  1  0.202100  0.559000  0.233410  0.8
  F  F2780  1  0.797900  0.441000  0.766590  0.8
  F  F2781  1  0.175000  0.972500  0.137300  0.8
  F  F2782  1  0.825000  0.027500  0.862700  0.8
  F  F2783  1  0.230400  0.757700  0.086300  0.8
  F  F2784  1  0.769600  0.242300  0.913700  0.8
  F  F2785  1  0.322200  0.528060  0.359360  0.85
  F  F2786  1  0.677800  0.471940  0.640640  0.85
  F  F2787  1  0.353300  0.814500  0.359700  0.85
  F  F2788  1  0.646700  0.185500  0.640300  0.85
  F  F2789  1  0.378600  0.761000  0.070450  0.85
  F  F2790  1  0.621400  0.239000  0.929550  0.85
  F  F2791  1  0.194500  0.666000  0.140900  0.85
  F  F2792  1  0.805500  0.334000  0.859100  0.85
  F  F2793  1  0.419800  0.574900  0.485900  0.35
  F  F2794  1  0.580200  0.425100  0.514100  0.35
  F  F2795  1  0.547600  0.431700  0.373000  0.35
  F  F2796  1  0.452400  0.568300  0.627000  0.35
  F  F2797  1  0.875100  0.925900  0.231600  0.35
  F  F2798  1  0.124900  0.074100  0.768400  0.35
  F  F2799  1  0.207100  0.128800  0.939800  0.35
  F  F2800  1  0.792900  0.871200  0.060200  0.35
  F  F2801  1  0.246100  0.046000  0.967300  0.35
  F  F2802  1  0.753900  0.954000  0.032700  0.35
  F  F2803  1  0.289500  0.101000  0.944400  0.35
  F  F2804  1  0.710500  0.899000  0.055600  0.35
  F  F2805  1  0.635700  0.023500  0.412400  0.445
  F  F2806  1  0.364300  0.976500  0.587600  0.445
  F  F2807  1  0.588000  0.095900  0.434600  0.445
  F  F2808  1  0.412000  0.904100  0.565400  0.445
  F  F2809  1  0.616100  0.104900  0.384200  0.445
  F  F2810  1  0.383900  0.895100  0.615800  0.445
  F  F2811  1  0.010600  0.752300  0.299500  0.7
  F  F2812  1  0.989400  0.247700  0.700500  0.7
  F  F2813  1  0.442200  0.826700  0.250500  0.7
  F  F2814  1  0.557800  0.173300  0.749500  0.7
  F  F2815  1  0.503700  0.598800  0.203200  0.7
  F  F2816  1  0.496300  0.401200  0.796800  0.7
  F  F2817  1  0.050400  0.787600  0.386100  0.7
  F  F2818  1  0.949600  0.212400  0.613900  0.7
  F  F2819  1  0.300600  0.938500  0.283220  0.7
  F  F2820  1  0.699400  0.061500  0.716780  0.7
  F  F2821  1  0.278500  0.741700  0.427050  0.7
  F  F2822  1  0.721500  0.258300  0.572950  0.7
