
#######################################################################
#
#                 Cambridge Crystallographic Data Centre
#                                CCDC 
#
#######################################################################
#
# If this CIF has been generated from an entry in the Cambridge 
# Structural Database, then it will include bibliographic, chemical, 
# crystal, experimental, refinement or atomic coordinate data resulting 
# from the CCDC's data processing and validation procedures.
#
#######################################################################

data_OREPIM
_chemical_formula_moiety         
'C312 H234 Mo12 N48 O57 Zn8 16+,16(C1 F3 O3 S1 1-)'
_chemical_name_systematic        
'tetracosakis(\m-4-((pyridin-2-ylmethylene)amino)benzoato)-nona-aqua-octa-zinc(ii)-dodeca-molybdenum(ii) hexadecakis(trifluoromethanesulfonate) unknown solvate'
_symmetry_cell_setting           cubic
_symmetry_space_group_name_H-M   'F 4 3 2'
_symmetry_Int_Tables_number      209
_space_group_name_Hall           'F 4 2 3'
loop_
_symmetry_equiv_pos_site_id
_symmetry_equiv_pos_as_xyz
1 x,y,z
2 -y,x,z
3 -x,-y,z
4 y,-x,z
5 x,-y,-z
6 y,x,-z
7 -x,y,-z
8 -y,-x,-z
9 z,x,y
10 -x,z,y
11 -z,-x,y
12 x,-z,y
13 z,-x,-y
14 x,z,-y
15 -z,x,-y
16 -x,-z,-y
17 y,z,x
18 -z,-y,-x
19 -z,y,x
20 z,y,-x
21 z,-y,x
22 y,-z,-x
23 -y,-z,x
24 -y,z,-x
25 x,1/2+y,1/2+z
26 -y,1/2+x,1/2+z
27 -x,1/2-y,1/2+z
28 y,1/2-x,1/2+z
29 x,1/2-y,1/2-z
30 y,1/2+x,1/2-z
31 -x,1/2+y,1/2-z
32 -y,1/2-x,1/2-z
33 z,1/2+x,1/2+y
34 -x,1/2+z,1/2+y
35 -z,1/2-x,1/2+y
36 x,1/2-z,1/2+y
37 z,1/2-x,1/2-y
38 x,1/2+z,1/2-y
39 -z,1/2+x,1/2-y
40 -x,1/2-z,1/2-y
41 y,1/2+z,1/2+x
42 -z,1/2-y,1/2-x
43 -z,1/2+y,1/2+x
44 z,1/2+y,1/2-x
45 z,1/2-y,1/2+x
46 y,1/2-z,1/2-x
47 -y,1/2-z,1/2+x
48 -y,1/2+z,1/2-x
49 1/2+x,y,1/2+z
50 1/2-y,x,1/2+z
51 1/2-x,-y,1/2+z
52 1/2+y,-x,1/2+z
53 1/2+x,-y,1/2-z
54 1/2+y,x,1/2-z
55 1/2-x,y,1/2-z
56 1/2-y,-x,1/2-z
57 1/2+z,x,1/2+y
58 1/2-x,z,1/2+y
59 1/2-z,-x,1/2+y
60 1/2+x,-z,1/2+y
61 1/2+z,-x,1/2-y
62 1/2+x,z,1/2-y
63 1/2-z,x,1/2-y
64 1/2-x,-z,1/2-y
65 1/2+y,z,1/2+x
66 1/2-z,-y,1/2-x
67 1/2-z,y,1/2+x
68 1/2+z,y,1/2-x
69 1/2+z,-y,1/2+x
70 1/2+y,-z,1/2-x
71 1/2-y,-z,1/2+x
72 1/2-y,z,1/2-x
73 1/2+x,1/2+y,z
74 1/2-y,1/2+x,z
75 1/2-x,1/2-y,z
76 1/2+y,1/2-x,z
77 1/2+x,1/2-y,-z
78 1/2+y,1/2+x,-z
79 1/2-x,1/2+y,-z
80 1/2-y,1/2-x,-z
81 1/2+z,1/2+x,y
82 1/2-x,1/2+z,y
83 1/2-z,1/2-x,y
84 1/2+x,1/2-z,y
85 1/2+z,1/2-x,-y
86 1/2+x,1/2+z,-y
87 1/2-z,1/2+x,-y
88 1/2-x,1/2-z,-y
89 1/2+y,1/2+z,x
90 1/2-z,1/2-y,-x
91 1/2-z,1/2+y,x
92 1/2+z,1/2+y,-x
93 1/2+z,1/2-y,x
94 1/2+y,1/2-z,-x
95 1/2-y,1/2-z,x
96 1/2-y,1/2+z,-x
_cell_length_a                   40.9008(15)
_cell_length_b                   40.9008(15)
_cell_length_c                   40.9008(15)
_cell_angle_alpha                90
_cell_angle_beta                 90
_cell_angle_gamma                90
_cell_volume                     68421.9
_exptl_crystal_colour            brown
_exptl_crystal_description       block
_cell_formula_units_Z            4
loop_
_atom_site_label
_atom_site_type_symbol
_atom_site_fract_x
_atom_site_fract_y
_atom_site_fract_z
Mo1 Mo 0.0000 0.19095(7) 0.0000
Mo2 Mo 0.0000 0.13721(7) 0.0000
Zn1 Zn 0.16457(6) 0.16457(6) 0.16457(6)
O1 O 0.0150(3) 0.1899(2) 0.0486(3)
O2 O 0.0131(3) 0.1371(2) 0.0481(3)
N1 N 0.1641(6) 0.1582(6) 0.2164(4)
N2 N 0.1134(5) 0.1635(5) 0.1673(7)
C1 C 0.0245(4) 0.1629(2) 0.0617(4)
C2 C 0.0469(4) 0.1618(3) 0.0893(3)
C3 C 0.0584(4) 0.1914(3) 0.1014(3)
H1 H 0.0524 0.2113 0.0912
C4 C 0.0790(4) 0.1918(3) 0.1285(3)
H2 H 0.0869 0.2120 0.1368
C5 C 0.0879(4) 0.1626(4) 0.1435(3)
C6 C 0.0763(3) 0.1330(3) 0.1314(3)
H3 H 0.0824 0.1131 0.1417
C7 C 0.0558(3) 0.1326(3) 0.1043(3)
H4 H 0.0478 0.1124 0.0961
C8 C 0.1104(9) 0.1597(5) 0.1979(8)
H5 H 0.0882 0.1576 0.2043
C9 C 0.1324(6) 0.1577(7) 0.2253(5)
C10 C 0.1220(5) 0.1524(7) 0.2570(6)
H6 H 0.0994 0.1503 0.2619
C11 C 0.1452(7) 0.1503(8) 0.2811(4)
H7 H 0.1388 0.1484 0.3033
C12 C 0.1780(7) 0.1508(8) 0.2728(5)
H8 H 0.1944 0.1487 0.2892
C13 C 0.1866(5) 0.1546(8) 0.2401(6)
H9 H 0.2091 0.1547 0.2344
O3 O 0.0000 0.2419(6) 0.0000
O4 O 0.0000 0.075(2) 0.0000
Zn1F Zn -0.16457(6) 0.16457(6) -0.16457(6)
O1F O -0.0150(3) 0.1899(2) -0.0486(3)
O2F O -0.0131(3) 0.1371(2) -0.0481(3)
N1F N -0.1641(6) 0.1582(6) -0.2164(4)
N2F N -0.1134(5) 0.1635(5) -0.1673(7)
C1F C -0.0245(4) 0.1629(2) -0.0617(4)
C2F C -0.0469(4) 0.1618(3) -0.0893(3)
C3F C -0.0584(4) 0.1914(3) -0.1014(3)
H1F H -0.0524 0.2113 -0.0912
C4F C -0.0790(4) 0.1918(3) -0.1285(3)
H2F H -0.0869 0.2120 -0.1368
C5F C -0.0879(4) 0.1626(4) -0.1435(3)
C6F C -0.0763(3) 0.1330(3) -0.1314(3)
H3F H -0.0824 0.1131 -0.1417
C7F C -0.0558(3) 0.1326(3) -0.1043(3)
H4F H -0.0478 0.1124 -0.0961
C8F C -0.1104(9) 0.1597(5) -0.1979(8)
H5F H -0.0882 0.1576 -0.2043
C9F C -0.1324(6) 0.1577(7) -0.2253(5)
C10F C -0.1220(5) 0.1524(7) -0.2570(6)
H6F H -0.0994 0.1503 -0.2619
C11F C -0.1452(7) 0.1503(8) -0.2811(4)
H7F H -0.1388 0.1484 -0.3033
C12F C -0.1780(7) 0.1508(8) -0.2728(5)
H8F H -0.1944 0.1487 -0.2892
C13F C -0.1866(5) 0.1546(8) -0.2401(6)
H9F H -0.2091 0.1547 -0.2344
Mo1H Mo 0.0000 0.0000 0.19095(7)
Mo2H Mo 0.0000 0.0000 0.13721(7)
O1H O 0.0486(3) 0.0150(3) 0.1899(2)
O2H O 0.0481(3) 0.0131(3) 0.1371(2)
N1H N 0.2164(4) 0.1641(6) 0.1582(6)
N2H N 0.1673(7) 0.1134(5) 0.1635(5)
C1H C 0.0617(4) 0.0245(4) 0.1629(2)
C2H C 0.0893(3) 0.0469(4) 0.1618(3)
C3H C 0.1014(3) 0.0584(4) 0.1914(3)
H1H H 0.0912 0.0524 0.2113
C4H C 0.1285(3) 0.0790(4) 0.1918(3)
H2H H 0.1368 0.0869 0.2120
C5H C 0.1435(3) 0.0879(4) 0.1626(4)
C6H C 0.1314(3) 0.0763(3) 0.1330(3)
H3H H 0.1417 0.0824 0.1131
C7H C 0.1043(3) 0.0558(3) 0.1326(3)
H4H H 0.0961 0.0478 0.1124
C8H C 0.1979(8) 0.1104(9) 0.1597(5)
H5H H 0.2043 0.0882 0.1576
C9H C 0.2253(5) 0.1324(6) 0.1577(7)
C10H C 0.2570(6) 0.1220(5) 0.1524(7)
H6H H 0.2619 0.0994 0.1503
C11H C 0.2811(4) 0.1452(7) 0.1503(8)
H7H H 0.3033 0.1388 0.1484
C12H C 0.2728(5) 0.1780(7) 0.1508(8)
H8H H 0.2892 0.1944 0.1487
C13H C 0.2401(6) 0.1866(5) 0.1546(8)
H9H H 0.2344 0.2091 0.1547
O3H O 0.0000 0.0000 0.2419(6)
O4H O 0.0000 0.0000 0.075(2)
Zn1A Zn -0.16457(6) 0.16457(6) 0.16457(6)
O1I O -0.0150(3) 0.0486(3) 0.1899(2)
O2I O -0.0131(3) 0.0481(3) 0.1371(2)
N1I N -0.1641(6) 0.2164(4) 0.1582(6)
N2I N -0.1134(5) 0.1673(7) 0.1635(5)
C1I C -0.0245(4) 0.0617(4) 0.1629(2)
C2I C -0.0469(4) 0.0893(3) 0.1618(3)
C3I C -0.0584(4) 0.1014(3) 0.1914(3)
H1I H -0.0524 0.0912 0.2113
C4I C -0.0790(4) 0.1285(3) 0.1918(3)
H2I H -0.0869 0.1368 0.2120
C5I C -0.0879(4) 0.1435(3) 0.1626(4)
C6I C -0.0763(3) 0.1314(3) 0.1330(3)
H3I H -0.0824 0.1417 0.1131
C7I C -0.0558(3) 0.1043(3) 0.1326(3)
H4I H -0.0478 0.0961 0.1124
C8I C -0.1104(9) 0.1979(8) 0.1597(5)
H5I H -0.0882 0.2043 0.1576
C9I C -0.1324(6) 0.2253(5) 0.1577(7)
C10I C -0.1220(5) 0.2570(6) 0.1524(7)
H6I H -0.0994 0.2619 0.1503
C11I C -0.1452(7) 0.2811(4) 0.1503(8)
H7I H -0.1388 0.3033 0.1484
C12I C -0.1780(7) 0.2728(5) 0.1508(8)
H8I H -0.1944 0.2892 0.1487
C13I C -0.1866(5) 0.2401(6) 0.1546(8)
H9I H -0.2091 0.2344 0.1547
Zn1B Zn -0.16457(6) -0.16457(6) 0.16457(6)
O1J O -0.0486(3) -0.0150(3) 0.1899(2)
O2J O -0.0481(3) -0.0131(3) 0.1371(2)
N1J N -0.2164(4) -0.1641(6) 0.1582(6)
N2J N -0.1673(7) -0.1134(5) 0.1635(5)
C1J C -0.0617(4) -0.0245(4) 0.1629(2)
C2J C -0.0893(3) -0.0469(4) 0.1618(3)
C3J C -0.1014(3) -0.0584(4) 0.1914(3)
H1J H -0.0912 -0.0524 0.2113
C4J C -0.1285(3) -0.0790(4) 0.1918(3)
H2J H -0.1368 -0.0869 0.2120
C5J C -0.1435(3) -0.0879(4) 0.1626(4)
C6J C -0.1314(3) -0.0763(3) 0.1330(3)
H3J H -0.1417 -0.0824 0.1131
C7J C -0.1043(3) -0.0558(3) 0.1326(3)
H4J H -0.0961 -0.0478 0.1124
C8J C -0.1979(8) -0.1104(9) 0.1597(5)
H5J H -0.2043 -0.0882 0.1576
C9J C -0.2253(5) -0.1324(6) 0.1577(7)
C10J C -0.2570(6) -0.1220(5) 0.1524(7)
H6J H -0.2619 -0.0994 0.1503
C11J C -0.2811(4) -0.1452(7) 0.1503(8)
H7J H -0.3033 -0.1388 0.1484
C12J C -0.2728(5) -0.1780(7) 0.1508(8)
H8J H -0.2892 -0.1944 0.1487
C13J C -0.2401(6) -0.1866(5) 0.1546(8)
H9J H -0.2344 -0.2091 0.1547
Zn1C Zn 0.16457(6) -0.16457(6) 0.16457(6)
O1K O 0.0150(3) -0.0486(3) 0.1899(2)
O2K O 0.0131(3) -0.0481(3) 0.1371(2)
N1K N 0.1641(6) -0.2164(4) 0.1582(6)
N2K N 0.1134(5) -0.1673(7) 0.1635(5)
C1K C 0.0245(4) -0.0617(4) 0.1629(2)
C2K C 0.0469(4) -0.0893(3) 0.1618(3)
C3K C 0.0584(4) -0.1014(3) 0.1914(3)
H1K H 0.0524 -0.0912 0.2113
C4K C 0.0790(4) -0.1285(3) 0.1918(3)
H2K H 0.0869 -0.1368 0.2120
C5K C 0.0879(4) -0.1435(3) 0.1626(4)
C6K C 0.0763(3) -0.1314(3) 0.1330(3)
H3K H 0.0824 -0.1417 0.1131
C7K C 0.0558(3) -0.1043(3) 0.1326(3)
H4K H 0.0478 -0.0961 0.1124
C8K C 0.1104(9) -0.1979(8) 0.1597(5)
H5K H 0.0882 -0.2043 0.1576
C9K C 0.1324(6) -0.2253(5) 0.1577(7)
C10K C 0.1220(5) -0.2570(6) 0.1524(7)
H6K H 0.0994 -0.2619 0.1503
C11K C 0.1452(7) -0.2811(4) 0.1503(8)
H7K H 0.1388 -0.3033 0.1484
C12K C 0.1780(7) -0.2728(5) 0.1508(8)
H8K H 0.1944 -0.2892 0.1487
C13K C 0.1866(5) -0.2401(6) 0.1546(8)
H9K H 0.2091 -0.2344 0.1547
Mo1L Mo 0.0000 0.0000 -0.19095(7)
Mo2L Mo 0.0000 0.0000 -0.13721(7)
O1N O -0.0486(3) 0.0150(3) -0.1899(2)
O2N O -0.0481(3) 0.0131(3) -0.1371(2)
N1N N -0.2164(4) 0.1641(6) -0.1582(6)
N2N N -0.1673(7) 0.1134(5) -0.1635(5)
C1N C -0.0617(4) 0.0245(4) -0.1629(2)
C2N C -0.0893(3) 0.0469(4) -0.1618(3)
C3N C -0.1014(3) 0.0584(4) -0.1914(3)
H1N H -0.0912 0.0524 -0.2113
C4N C -0.1285(3) 0.0790(4) -0.1918(3)
H2N H -0.1368 0.0869 -0.2120
C5N C -0.1435(3) 0.0879(4) -0.1626(4)
C6N C -0.1314(3) 0.0763(3) -0.1330(3)
H3N H -0.1417 0.0824 -0.1131
C7N C -0.1043(3) 0.0558(3) -0.1326(3)
H4N H -0.0961 0.0478 -0.1124
C8N C -0.1979(8) 0.1104(9) -0.1597(5)
H5N H -0.2043 0.0882 -0.1576
C9N C -0.2253(5) 0.1324(6) -0.1577(7)
C10N C -0.2570(6) 0.1220(5) -0.1524(7)
H6N H -0.2619 0.0994 -0.1503
C11N C -0.2811(4) 0.1452(7) -0.1503(8)
H7N H -0.3033 0.1388 -0.1484
C12N C -0.2728(5) 0.1780(7) -0.1508(8)
H8N H -0.2892 0.1944 -0.1487
C13N C -0.2401(6) 0.1866(5) -0.1546(8)
H9N H -0.2344 0.2091 -0.1547
O3L O 0.0000 0.0000 -0.2419(6)
O4L O 0.0000 0.0000 -0.075(2)
Zn1G Zn -0.16457(6) -0.16457(6) -0.16457(6)
O1O O -0.0150(3) -0.0486(3) -0.1899(2)
O2O O -0.0131(3) -0.0481(3) -0.1371(2)
N1O N -0.1641(6) -0.2164(4) -0.1582(6)
N2O N -0.1134(5) -0.1673(7) -0.1635(5)
C1O C -0.0245(4) -0.0617(4) -0.1629(2)
C2O C -0.0469(4) -0.0893(3) -0.1618(3)
C3O C -0.0584(4) -0.1014(3) -0.1914(3)
H1O H -0.0524 -0.0912 -0.2113
C4O C -0.0790(4) -0.1285(3) -0.1918(3)
H2O H -0.0869 -0.1368 -0.2120
C5O C -0.0879(4) -0.1435(3) -0.1626(4)
C6O C -0.0763(3) -0.1314(3) -0.1330(3)
H3O H -0.0824 -0.1417 -0.1131
C7O C -0.0558(3) -0.1043(3) -0.1326(3)
H4O H -0.0478 -0.0961 -0.1124
C8O C -0.1104(9) -0.1979(8) -0.1597(5)
H5O H -0.0882 -0.2043 -0.1576
C9O C -0.1324(6) -0.2253(5) -0.1577(7)
C10O C -0.1220(5) -0.2570(6) -0.1524(7)
H6O H -0.0994 -0.2619 -0.1503
C11O C -0.1452(7) -0.2811(4) -0.1503(8)
H7O H -0.1388 -0.3033 -0.1484
C12O C -0.1780(7) -0.2728(5) -0.1508(8)
H8O H -0.1944 -0.2892 -0.1487
C13O C -0.1866(5) -0.2401(6) -0.1546(8)
H9O H -0.2091 -0.2344 -0.1547
Mo1C Mo 0.19095(7) 0.0000 0.0000
Mo2C Mo 0.13721(7) 0.0000 0.0000
O1P O 0.1899(2) 0.0486(3) 0.0150(3)
O2P O 0.1371(2) 0.0481(3) 0.0131(3)
N1P N 0.1582(6) 0.2164(4) 0.1641(6)
N2P N 0.1635(5) 0.1673(7) 0.1134(5)
C1P C 0.1629(2) 0.0617(4) 0.0245(4)
C2P C 0.1618(3) 0.0893(3) 0.0469(4)
C3P C 0.1914(3) 0.1014(3) 0.0584(4)
H1P H 0.2113 0.0912 0.0524
C4P C 0.1918(3) 0.1285(3) 0.0790(4)
H2P H 0.2120 0.1368 0.0869
C5P C 0.1626(4) 0.1435(3) 0.0879(4)
C6P C 0.1330(3) 0.1314(3) 0.0763(3)
H3P H 0.1131 0.1417 0.0824
C7P C 0.1326(3) 0.1043(3) 0.0558(3)
H4P H 0.1124 0.0961 0.0478
C8P C 0.1597(5) 0.1979(8) 0.1104(9)
H5P H 0.1576 0.2043 0.0882
C9P C 0.1577(7) 0.2253(5) 0.1324(6)
C10P C 0.1524(7) 0.2570(6) 0.1220(5)
H6P H 0.1503 0.2619 0.0994
C11P C 0.1503(8) 0.2811(4) 0.1452(7)
H7P H 0.1484 0.3033 0.1388
C12P C 0.1508(8) 0.2728(5) 0.1780(7)
H8P H 0.1487 0.2892 0.1944
C13P C 0.1546(8) 0.2401(6) 0.1866(5)
H9P H 0.1547 0.2344 0.2091
O3C O 0.2419(6) 0.0000 0.0000
O4C O 0.075(2) 0.0000 0.0000
O1R O -0.0486(3) 0.1899(2) 0.0150(3)
O2R O -0.0481(3) 0.1371(2) 0.0131(3)
N1R N -0.2164(4) 0.1582(6) 0.1641(6)
N2R N -0.1673(7) 0.1635(5) 0.1134(5)
C1R C -0.0617(4) 0.1629(2) 0.0245(4)
C2R C -0.0893(3) 0.1618(3) 0.0469(4)
C3R C -0.1014(3) 0.1914(3) 0.0584(4)
H1R H -0.0912 0.2113 0.0524
C4R C -0.1285(3) 0.1918(3) 0.0790(4)
H2R H -0.1368 0.2120 0.0869
C5R C -0.1435(3) 0.1626(4) 0.0879(4)
C6R C -0.1314(3) 0.1330(3) 0.0763(3)
H3R H -0.1417 0.1131 0.0824
C7R C -0.1043(3) 0.1326(3) 0.0558(3)
H4R H -0.0961 0.1124 0.0478
C8R C -0.1979(8) 0.1597(5) 0.1104(9)
H5R H -0.2043 0.1576 0.0882
C9R C -0.2253(5) 0.1577(7) 0.1324(6)
C10R C -0.2570(6) 0.1524(7) 0.1220(5)
H6R H -0.2619 0.1503 0.0994
C11R C -0.2811(4) 0.1503(8) 0.1452(7)
H7R H -0.3033 0.1484 0.1388
C12R C -0.2728(5) 0.1508(8) 0.1780(7)
H8R H -0.2892 0.1487 0.1944
C13R C -0.2401(6) 0.1546(8) 0.1866(5)
H9R H -0.2344 0.1547 0.2091
Zn1E Zn 0.16457(6) 0.16457(6) -0.16457(6)
O1S O 0.0486(3) 0.1899(2) -0.0150(3)
O2S O 0.0481(3) 0.1371(2) -0.0131(3)
N1S N 0.2164(4) 0.1582(6) -0.1641(6)
N2S N 0.1673(7) 0.1635(5) -0.1134(5)
C1S C 0.0617(4) 0.1629(2) -0.0245(4)
C2S C 0.0893(3) 0.1618(3) -0.0469(4)
C3S C 0.1014(3) 0.1914(3) -0.0584(4)
H1S H 0.0912 0.2113 -0.0524
C4S C 0.1285(3) 0.1918(3) -0.0790(4)
H2S H 0.1368 0.2120 -0.0869
C5S C 0.1435(3) 0.1626(4) -0.0879(4)
C6S C 0.1314(3) 0.1330(3) -0.0763(3)
H3S H 0.1417 0.1131 -0.0824
C7S C 0.1043(3) 0.1326(3) -0.0558(3)
H4S H 0.0961 0.1124 -0.0478
C8S C 0.1979(8) 0.1597(5) -0.1104(9)
H5S H 0.2043 0.1576 -0.0882
C9S C 0.2253(5) 0.1577(7) -0.1324(6)
C10S C 0.2570(6) 0.1524(7) -0.1220(5)
H6S H 0.2619 0.1503 -0.0994
C11S C 0.2811(4) 0.1503(8) -0.1452(7)
H7S H 0.3033 0.1484 -0.1388
C12S C 0.2728(5) 0.1508(8) -0.1780(7)
H8S H 0.2892 0.1487 -0.1944
C13S C 0.2401(6) 0.1546(8) -0.1866(5)
H9S H 0.2344 0.1547 -0.2091
Zn1D Zn 0.16457(6) -0.16457(6) -0.16457(6)
O1U O 0.1899(2) -0.0486(3) -0.0150(3)
O2U O 0.1371(2) -0.0481(3) -0.0131(3)
N1U N 0.1582(6) -0.2164(4) -0.1641(6)
N2U N 0.1635(5) -0.1673(7) -0.1134(5)
C1U C 0.1629(2) -0.0617(4) -0.0245(4)
C2U C 0.1618(3) -0.0893(3) -0.0469(4)
C3U C 0.1914(3) -0.1014(3) -0.0584(4)
H1U H 0.2113 -0.0912 -0.0524
C4U C 0.1918(3) -0.1285(3) -0.0790(4)
H2U H 0.2120 -0.1368 -0.0869
C5U C 0.1626(4) -0.1435(3) -0.0879(4)
C6U C 0.1330(3) -0.1314(3) -0.0763(3)
H3U H 0.1131 -0.1417 -0.0824
C7U C 0.1326(3) -0.1043(3) -0.0558(3)
H4U H 0.1124 -0.0961 -0.0478
C8U C 0.1597(5) -0.1979(8) -0.1104(9)
H5U H 0.1576 -0.2043 -0.0882
C9U C 0.1577(7) -0.2253(5) -0.1324(6)
C10U C 0.1524(7) -0.2570(6) -0.1220(5)
H6U H 0.1503 -0.2619 -0.0994
C11U C 0.1503(8) -0.2811(4) -0.1452(7)
H7U H 0.1484 -0.3033 -0.1388
C12U C 0.1508(8) -0.2728(5) -0.1780(7)
H8U H 0.1487 -0.2892 -0.1944
C13U C 0.1546(8) -0.2401(6) -0.1866(5)
H9U H 0.1547 -0.2344 -0.2091
Mo1A Mo -0.19095(7) 0.0000 0.0000
Mo2A Mo -0.13721(7) 0.0000 0.0000
O1V O -0.1899(2) -0.0486(3) 0.0150(3)
O2V O -0.1371(2) -0.0481(3) 0.0131(3)
N1V N -0.1582(6) -0.2164(4) 0.1641(6)
N2V N -0.1635(5) -0.1673(7) 0.1134(5)
C1V C -0.1629(2) -0.0617(4) 0.0245(4)
C2V C -0.1618(3) -0.0893(3) 0.0469(4)
C3V C -0.1914(3) -0.1014(3) 0.0584(4)
H1V H -0.2113 -0.0912 0.0524
C4V C -0.1918(3) -0.1285(3) 0.0790(4)
H2V H -0.2120 -0.1368 0.0869
C5V C -0.1626(4) -0.1435(3) 0.0879(4)
C6V C -0.1330(3) -0.1314(3) 0.0763(3)
H3V H -0.1131 -0.1417 0.0824
C7V C -0.1326(3) -0.1043(3) 0.0558(3)
H4V H -0.1124 -0.0961 0.0478
C8V C -0.1597(5) -0.1979(8) 0.1104(9)
H5V H -0.1576 -0.2043 0.0882
C9V C -0.1577(7) -0.2253(5) 0.1324(6)
C10V C -0.1524(7) -0.2570(6) 0.1220(5)
H6V H -0.1503 -0.2619 0.0994
C11V C -0.1503(8) -0.2811(4) 0.1452(7)
H7V H -0.1484 -0.3033 0.1388
C12V C -0.1508(8) -0.2728(5) 0.1780(7)
H8V H -0.1487 -0.2892 0.1944
C13V C -0.1546(8) -0.2401(6) 0.1866(5)
H9V H -0.1547 -0.2344 0.2091
O3A O -0.2419(6) 0.0000 0.0000
O4A O -0.075(2) 0.0000 0.0000
O1W O -0.1899(2) 0.0486(3) -0.0150(3)
O2W O -0.1371(2) 0.0481(3) -0.0131(3)
N1W N -0.1582(6) 0.2164(4) -0.1641(6)
N2W N -0.1635(5) 0.1673(7) -0.1134(5)
C1W C -0.1629(2) 0.0617(4) -0.0245(4)
C2W C -0.1618(3) 0.0893(3) -0.0469(4)
C3W C -0.1914(3) 0.1014(3) -0.0584(4)
H1W H -0.2113 0.0912 -0.0524
C4W C -0.1918(3) 0.1285(3) -0.0790(4)
H2W H -0.2120 0.1368 -0.0869
C5W C -0.1626(4) 0.1435(3) -0.0879(4)
C6W C -0.1330(3) 0.1314(3) -0.0763(3)
H3W H -0.1131 0.1417 -0.0824
C7W C -0.1326(3) 0.1043(3) -0.0558(3)
H4W H -0.1124 0.0961 -0.0478
C8W C -0.1597(5) 0.1979(8) -0.1104(9)
H5W H -0.1576 0.2043 -0.0882
C9W C -0.1577(7) 0.2253(5) -0.1324(6)
C10W C -0.1524(7) 0.2570(6) -0.1220(5)
H6W H -0.1503 0.2619 -0.0994
C11W C -0.1503(8) 0.2811(4) -0.1452(7)
H7W H -0.1484 0.3033 -0.1388
C12W C -0.1508(8) 0.2728(5) -0.1780(7)
H8W H -0.1487 0.2892 -0.1944
C13W C -0.1546(8) 0.2401(6) -0.1866(5)
H9W H -0.1547 0.2344 -0.2091
O1A O -0.1899(2) 0.0150(3) 0.0486(3)
O2A O -0.1371(2) 0.0131(3) 0.0481(3)
N1A N -0.1582(6) 0.1641(6) 0.2164(4)
N2A N -0.1635(5) 0.1134(5) 0.1673(7)
C1A C -0.1629(2) 0.0245(4) 0.0617(4)
C2A C -0.1618(3) 0.0469(4) 0.0893(3)
C3A C -0.1914(3) 0.0584(4) 0.1014(3)
H1A H -0.2113 0.0524 0.0912
C4A C -0.1918(3) 0.0790(4) 0.1285(3)
H2A H -0.2120 0.0869 0.1368
C5A C -0.1626(4) 0.0879(4) 0.1435(3)
C6A C -0.1330(3) 0.0763(3) 0.1314(3)
H3A H -0.1131 0.0824 0.1417
C7A C -0.1326(3) 0.0558(3) 0.1043(3)
H4A H -0.1124 0.0478 0.0961
C8A C -0.1597(5) 0.1104(9) 0.1979(8)
H5A H -0.1576 0.0882 0.2043
C9A C -0.1577(7) 0.1324(6) 0.2253(5)
C10A C -0.1524(7) 0.1220(5) 0.2570(6)
H6A H -0.1503 0.0994 0.2619
C11A C -0.1503(8) 0.1452(7) 0.2811(4)
H7A H -0.1484 0.1388 0.3033
C12A C -0.1508(8) 0.1780(7) 0.2728(5)
H8A H -0.1487 0.1944 0.2892
C13A C -0.1546(8) 0.1866(5) 0.2401(6)
H9A H -0.1547 0.2091 0.2344
Mo1B Mo 0.0000 -0.19095(7) 0.0000
Mo2B Mo 0.0000 -0.13721(7) 0.0000
O1B O -0.0150(3) -0.1899(2) 0.0486(3)
O2B O -0.0131(3) -0.1371(2) 0.0481(3)
N1B N -0.1641(6) -0.1582(6) 0.2164(4)
N2B N -0.1134(5) -0.1635(5) 0.1673(7)
C1B C -0.0245(4) -0.1629(2) 0.0617(4)
C2B C -0.0469(4) -0.1618(3) 0.0893(3)
C3B C -0.0584(4) -0.1914(3) 0.1014(3)
H1B H -0.0524 -0.2113 0.0912
C4B C -0.0790(4) -0.1918(3) 0.1285(3)
H2B H -0.0869 -0.2120 0.1368
C5B C -0.0879(4) -0.1626(4) 0.1435(3)
C6B C -0.0763(3) -0.1330(3) 0.1314(3)
H3B H -0.0824 -0.1131 0.1417
C7B C -0.0558(3) -0.1326(3) 0.1043(3)
H4B H -0.0478 -0.1124 0.0961
C8B C -0.1104(9) -0.1597(5) 0.1979(8)
H5B H -0.0882 -0.1576 0.2043
C9B C -0.1324(6) -0.1577(7) 0.2253(5)
C10B C -0.1220(5) -0.1524(7) 0.2570(6)
H6B H -0.0994 -0.1503 0.2619
C11B C -0.1452(7) -0.1503(8) 0.2811(4)
H7B H -0.1388 -0.1484 0.3033
C12B C -0.1780(7) -0.1508(8) 0.2728(5)
H8B H -0.1944 -0.1487 0.2892
C13B C -0.1866(5) -0.1546(8) 0.2401(6)
H9B H -0.2091 -0.1547 0.2344
O3B O 0.0000 -0.2419(6) 0.0000
O4B O 0.0000 -0.075(2) 0.0000
O1C O 0.1899(2) -0.0150(3) 0.0486(3)
O2C O 0.1371(2) -0.0131(3) 0.0481(3)
N1C N 0.1582(6) -0.1641(6) 0.2164(4)
N2C N 0.1635(5) -0.1134(5) 0.1673(7)
C1C C 0.1629(2) -0.0245(4) 0.0617(4)
C2C C 0.1618(3) -0.0469(4) 0.0893(3)
C3C C 0.1914(3) -0.0584(4) 0.1014(3)
H1C H 0.2113 -0.0524 0.0912
C4C C 0.1918(3) -0.0790(4) 0.1285(3)
H2C H 0.2120 -0.0869 0.1368
C5C C 0.1626(4) -0.0879(4) 0.1435(3)
C6C C 0.1330(3) -0.0763(3) 0.1314(3)
H3C H 0.1131 -0.0824 0.1417
C7C C 0.1326(3) -0.0558(3) 0.1043(3)
H4C H 0.1124 -0.0478 0.0961
C8C C 0.1597(5) -0.1104(9) 0.1979(8)
H5C H 0.1576 -0.0882 0.2043
C9C C 0.1577(7) -0.1324(6) 0.2253(5)
C10C C 0.1524(7) -0.1220(5) 0.2570(6)
H6C H 0.1503 -0.0994 0.2619
C11C C 0.1503(8) -0.1452(7) 0.2811(4)
H7C H 0.1484 -0.1388 0.3033
C12C C 0.1508(8) -0.1780(7) 0.2728(5)
H8C H 0.1487 -0.1944 0.2892
C13C C 0.1546(8) -0.1866(5) 0.2401(6)
H9C H 0.1547 -0.2091 0.2344
O1D O 0.0150(3) -0.1899(2) -0.0486(3)
O2D O 0.0131(3) -0.1371(2) -0.0481(3)
N1D N 0.1641(6) -0.1582(6) -0.2164(4)
N2D N 0.1134(5) -0.1635(5) -0.1673(7)
C1D C 0.0245(4) -0.1629(2) -0.0617(4)
C2D C 0.0469(4) -0.1618(3) -0.0893(3)
C3D C 0.0584(4) -0.1914(3) -0.1014(3)
H1D H 0.0524 -0.2113 -0.0912
C4D C 0.0790(4) -0.1918(3) -0.1285(3)
H2D H 0.0869 -0.2120 -0.1368
C5D C 0.0879(4) -0.1626(4) -0.1435(3)
C6D C 0.0763(3) -0.1330(3) -0.1314(3)
H3D H 0.0824 -0.1131 -0.1417
C7D C 0.0558(3) -0.1326(3) -0.1043(3)
H4D H 0.0478 -0.1124 -0.0961
C8D C 0.1104(9) -0.1597(5) -0.1979(8)
H5D H 0.0882 -0.1576 -0.2043
C9D C 0.1324(6) -0.1577(7) -0.2253(5)
C10D C 0.1220(5) -0.1524(7) -0.2570(6)
H6D H 0.0994 -0.1503 -0.2619
C11D C 0.1452(7) -0.1503(8) -0.2811(4)
H7D H 0.1388 -0.1484 -0.3033
C12D C 0.1780(7) -0.1508(8) -0.2728(5)
H8D H 0.1944 -0.1487 -0.2892
C13D C 0.1866(5) -0.1546(8) -0.2401(6)
H9D H 0.2091 -0.1547 -0.2344
O1E O 0.1899(2) 0.0150(3) -0.0486(3)
O2E O 0.1371(2) 0.0131(3) -0.0481(3)
N1E N 0.1582(6) 0.1641(6) -0.2164(4)
N2E N 0.1635(5) 0.1134(5) -0.1673(7)
C1E C 0.1629(2) 0.0245(4) -0.0617(4)
C2E C 0.1618(3) 0.0469(4) -0.0893(3)
C3E C 0.1914(3) 0.0584(4) -0.1014(3)
H1E H 0.2113 0.0524 -0.0912
C4E C 0.1918(3) 0.0790(4) -0.1285(3)
H2E H 0.2120 0.0869 -0.1368
C5E C 0.1626(4) 0.0879(4) -0.1435(3)
C6E C 0.1330(3) 0.0763(3) -0.1314(3)
H3E H 0.1131 0.0824 -0.1417
C7E C 0.1326(3) 0.0558(3) -0.1043(3)
H4E H 0.1124 0.0478 -0.0961
C8E C 0.1597(5) 0.1104(9) -0.1979(8)
H5E H 0.1576 0.0882 -0.2043
C9E C 0.1577(7) 0.1324(6) -0.2253(5)
C10E C 0.1524(7) 0.1220(5) -0.2570(6)
H6E H 0.1503 0.0994 -0.2619
C11E C 0.1503(8) 0.1452(7) -0.2811(4)
H7E H 0.1484 0.1388 -0.3033
C12E C 0.1508(8) 0.1780(7) -0.2728(5)
H8E H 0.1487 0.1944 -0.2892
C13E C 0.1546(8) 0.1866(5) -0.2401(6)
H9E H 0.1547 0.2091 -0.2344
O1G O -0.1899(2) -0.0150(3) -0.0486(3)
O2G O -0.1371(2) -0.0131(3) -0.0481(3)
N1G N -0.1582(6) -0.1641(6) -0.2164(4)
N2G N -0.1635(5) -0.1134(5) -0.1673(7)
C1G C -0.1629(2) -0.0245(4) -0.0617(4)
C2G C -0.1618(3) -0.0469(4) -0.0893(3)
C3G C -0.1914(3) -0.0584(4) -0.1014(3)
H1G H -0.2113 -0.0524 -0.0912
C4G C -0.1918(3) -0.0790(4) -0.1285(3)
H2G H -0.2120 -0.0869 -0.1368
C5G C -0.1626(4) -0.0879(4) -0.1435(3)
C6G C -0.1330(3) -0.0763(3) -0.1314(3)
H3G H -0.1131 -0.0824 -0.1417
C7G C -0.1326(3) -0.0558(3) -0.1043(3)
H4G H -0.1124 -0.0478 -0.0961
C8G C -0.1597(5) -0.1104(9) -0.1979(8)
H5G H -0.1576 -0.0882 -0.2043
C9G C -0.1577(7) -0.1324(6) -0.2253(5)
C10G C -0.1524(7) -0.1220(5) -0.2570(6)
H6G H -0.1503 -0.0994 -0.2619
C11G C -0.1503(8) -0.1452(7) -0.2811(4)
H7G H -0.1484 -0.1388 -0.3033
C12G C -0.1508(8) -0.1780(7) -0.2728(5)
H8G H -0.1487 -0.1944 -0.2892
C13G C -0.1546(8) -0.1866(5) -0.2401(6)
H9G H -0.1547 -0.2091 -0.2344
O1L O 0.0486(3) -0.0150(3) -0.1899(2)
O2L O 0.0481(3) -0.0131(3) -0.1371(2)
N1L N 0.2164(4) -0.1641(6) -0.1582(6)
N2L N 0.1673(7) -0.1134(5) -0.1635(5)
C1L C 0.0617(4) -0.0245(4) -0.1629(2)
C2L C 0.0893(3) -0.0469(4) -0.1618(3)
C3L C 0.1014(3) -0.0584(4) -0.1914(3)
H1L H 0.0912 -0.0524 -0.2113
C4L C 0.1285(3) -0.0790(4) -0.1918(3)
H2L H 0.1368 -0.0869 -0.2120
C5L C 0.1435(3) -0.0879(4) -0.1626(4)
C6L C 0.1314(3) -0.0763(3) -0.1330(3)
H3L H 0.1417 -0.0824 -0.1131
C7L C 0.1043(3) -0.0558(3) -0.1326(3)
H4L H 0.0961 -0.0478 -0.1124
C8L C 0.1979(8) -0.1104(9) -0.1597(5)
H5L H 0.2043 -0.0882 -0.1576
C9L C 0.2253(5) -0.1324(6) -0.1577(7)
C10L C 0.2570(6) -0.1220(5) -0.1524(7)
H6L H 0.2619 -0.0994 -0.1503
C11L C 0.2811(4) -0.1452(7) -0.1503(8)
H7L H 0.3033 -0.1388 -0.1484
C12L C 0.2728(5) -0.1780(7) -0.1508(8)
H8L H 0.2892 -0.1944 -0.1487
C13L C 0.2401(6) -0.1866(5) -0.1546(8)
H9L H 0.2344 -0.2091 -0.1547
O1M O 0.0150(3) 0.0486(3) -0.1899(2)
O2M O 0.0131(3) 0.0481(3) -0.1371(2)
N1M N 0.1641(6) 0.2164(4) -0.1582(6)
N2M N 0.1134(5) 0.1673(7) -0.1635(5)
C1M C 0.0245(4) 0.0617(4) -0.1629(2)
C2M C 0.0469(4) 0.0893(3) -0.1618(3)
C3M C 0.0584(4) 0.1014(3) -0.1914(3)
H1M H 0.0524 0.0912 -0.2113
C4M C 0.0790(4) 0.1285(3) -0.1918(3)
H2M H 0.0869 0.1368 -0.2120
C5M C 0.0879(4) 0.1435(3) -0.1626(4)
C6M C 0.0763(3) 0.1314(3) -0.1330(3)
H3M H 0.0824 0.1417 -0.1131
C7M C 0.0558(3) 0.1043(3) -0.1326(3)
H4M H 0.0478 0.0961 -0.1124
C8M C 0.1104(9) 0.1979(8) -0.1597(5)
H5M H 0.0882 0.2043 -0.1576
C9M C 0.1324(6) 0.2253(5) -0.1577(7)
C10M C 0.1220(5) 0.2570(6) -0.1524(7)
H6M H 0.0994 0.2619 -0.1503
C11M C 0.1452(7) 0.2811(4) -0.1503(8)
H7M H 0.1388 0.3033 -0.1484
C12M C 0.1780(7) 0.2728(5) -0.1508(8)
H8M H 0.1944 0.2892 -0.1487
C13M C 0.1866(5) 0.2401(6) -0.1546(8)
H9M H 0.2091 0.2344 -0.1547
O1Q O -0.0486(3) -0.1899(2) -0.0150(3)
O2Q O -0.0481(3) -0.1371(2) -0.0131(3)
N1Q N -0.2164(4) -0.1582(6) -0.1641(6)
N2Q N -0.1673(7) -0.1635(5) -0.1134(5)
C1Q C -0.0617(4) -0.1629(2) -0.0245(4)
C2Q C -0.0893(3) -0.1618(3) -0.0469(4)
C3Q C -0.1014(3) -0.1914(3) -0.0584(4)
H1Q H -0.0912 -0.2113 -0.0524
C4Q C -0.1285(3) -0.1918(3) -0.0790(4)
H2Q H -0.1368 -0.2120 -0.0869
C5Q C -0.1435(3) -0.1626(4) -0.0879(4)
C6Q C -0.1314(3) -0.1330(3) -0.0763(3)
H3Q H -0.1417 -0.1131 -0.0824
C7Q C -0.1043(3) -0.1326(3) -0.0558(3)
H4Q H -0.0961 -0.1124 -0.0478
C8Q C -0.1979(8) -0.1597(5) -0.1104(9)
H5Q H -0.2043 -0.1576 -0.0882
C9Q C -0.2253(5) -0.1577(7) -0.1324(6)
C10Q C -0.2570(6) -0.1524(7) -0.1220(5)
H6Q H -0.2619 -0.1503 -0.0994
C11Q C -0.2811(4) -0.1503(8) -0.1452(7)
H7Q H -0.3033 -0.1484 -0.1388
C12Q C -0.2728(5) -0.1508(8) -0.1780(7)
H8Q H -0.2892 -0.1487 -0.1944
C13Q C -0.2401(6) -0.1546(8) -0.1866(5)
H9Q H -0.2344 -0.1547 -0.2091
O1T O 0.0486(3) -0.1899(2) 0.0150(3)
O2T O 0.0481(3) -0.1371(2) 0.0131(3)
N1T N 0.2164(4) -0.1582(6) 0.1641(6)
N2T N 0.1673(7) -0.1635(5) 0.1134(5)
C1T C 0.0617(4) -0.1629(2) 0.0245(4)
C2T C 0.0893(3) -0.1618(3) 0.0469(4)
C3T C 0.1014(3) -0.1914(3) 0.0584(4)
H1T H 0.0912 -0.2113 0.0524
C4T C 0.1285(3) -0.1918(3) 0.0790(4)
H2T H 0.1368 -0.2120 0.0869
C5T C 0.1435(3) -0.1626(4) 0.0879(4)
C6T C 0.1314(3) -0.1330(3) 0.0763(3)
H3T H 0.1417 -0.1131 0.0824
C7T C 0.1043(3) -0.1326(3) 0.0558(3)
H4T H 0.0961 -0.1124 0.0478
C8T C 0.1979(8) -0.1597(5) 0.1104(9)
H5T H 0.2043 -0.1576 0.0882
C9T C 0.2253(5) -0.1577(7) 0.1324(6)
C10T C 0.2570(6) -0.1524(7) 0.1220(5)
H6T H 0.2619 -0.1503 0.0994
C11T C 0.2811(4) -0.1503(8) 0.1452(7)
H7T H 0.3033 -0.1484 0.1388
C12T C 0.2728(5) -0.1508(8) 0.1780(7)
H8T H 0.2892 -0.1487 0.1944
C13T C 0.2401(6) -0.1546(8) 0.1866(5)
H9T H 0.2344 -0.1547 0.2091
loop_
_geom_bond_atom_site_label_1
_geom_bond_atom_site_label_2
_geom_bond_site_symmetry_1
_geom_bond_site_symmetry_2
Mo1 Mo2 1_555 1_555
Mo2 O2 1_555 1_555
Zn1 N1 1_555 1_555
O1 Mo1 1_555 1_555
O2 C1 1_555 1_555
N1 C9 1_555 1_555
N2 Zn1 1_555 1_555
C1 O1 1_555 1_555
C2 C1 1_555 1_555
C3 C2 1_555 1_555
H1 C3 1_555 1_555
C4 C3 1_555 1_555
H2 C4 1_555 1_555
C5 N2 1_555 1_555
C6 C5 1_555 1_555
H3 C6 1_555 1_555
C7 C2 1_555 1_555
H4 C7 1_555 1_555
C8 N2 1_555 1_555
H5 C8 1_555 1_555
C9 C8 1_555 1_555
C10 C9 1_555 1_555
H6 C10 1_555 1_555
C11 C10 1_555 1_555
H7 C11 1_555 1_555
C12 C11 1_555 1_555
H8 C12 1_555 1_555
C13 N1 1_555 1_555
H9 C13 1_555 1_555
O3 Mo1 1_555 1_555
O4 Mo2 1_555 1_555
Zn1F N1F 1_555 1_555
O1F Mo1 1_555 1_555
O2F Mo2 1_555 1_555
N1F C9F 1_555 1_555
N2F Zn1F 1_555 1_555
C1F O1F 1_555 1_555
C2F C1F 1_555 1_555
C3F C2F 1_555 1_555
H1F C3F 1_555 1_555
C4F C3F 1_555 1_555
H2F C4F 1_555 1_555
C5F N2F 1_555 1_555
C6F C5F 1_555 1_555
H3F C6F 1_555 1_555
C7F C2F 1_555 1_555
H4F C7F 1_555 1_555
C8F N2F 1_555 1_555
H5F C8F 1_555 1_555
C9F C8F 1_555 1_555
C10F C9F 1_555 1_555
H6F C10F 1_555 1_555
C11F C10F 1_555 1_555
H7F C11F 1_555 1_555
C12F C11F 1_555 1_555
H8F C12F 1_555 1_555
C13F N1F 1_555 1_555
H9F C13F 1_555 1_555
Mo1H Mo2H 1_555 1_555
Mo2H O2H 1_555 1_555
O1H Mo1H 1_555 1_555
O2H C1H 1_555 1_555
N1H Zn1 1_555 1_555
N2H Zn1 1_555 1_555
C1H O1H 1_555 1_555
C2H C1H 1_555 1_555
C3H C2H 1_555 1_555
H1H C3H 1_555 1_555
C4H C3H 1_555 1_555
H2H C4H 1_555 1_555
C5H N2H 1_555 1_555
C6H C5H 1_555 1_555
H3H C6H 1_555 1_555
C7H C2H 1_555 1_555
H4H C7H 1_555 1_555
C8H N2H 1_555 1_555
H5H C8H 1_555 1_555
C9H N1H 1_555 1_555
C10H C9H 1_555 1_555
H6H C10H 1_555 1_555
C11H C10H 1_555 1_555
H7H C11H 1_555 1_555
C12H C11H 1_555 1_555
H8H C12H 1_555 1_555
C13H N1H 1_555 1_555
H9H C13H 1_555 1_555
O3H Mo1H 1_555 1_555
O4H Mo2H 1_555 1_555
Zn1A N1I 1_555 1_555
O1I Mo1H 1_555 1_555
O2I Mo2H 1_555 1_555
N1I C9I 1_555 1_555
N2I Zn1A 1_555 1_555
C1I O1I 1_555 1_555
C2I C1I 1_555 1_555
C3I C2I 1_555 1_555
H1I C3I 1_555 1_555
C4I C3I 1_555 1_555
H2I C4I 1_555 1_555
C5I N2I 1_555 1_555
C6I C5I 1_555 1_555
H3I C6I 1_555 1_555
C7I C2I 1_555 1_555
H4I C7I 1_555 1_555
C8I N2I 1_555 1_555
H5I C8I 1_555 1_555
C9I C8I 1_555 1_555
C10I C9I 1_555 1_555
H6I C10I 1_555 1_555
C11I C10I 1_555 1_555
H7I C11I 1_555 1_555
C12I C11I 1_555 1_555
H8I C12I 1_555 1_555
C13I N1I 1_555 1_555
H9I C13I 1_555 1_555
Zn1B N1J 1_555 1_555
O1J Mo1H 1_555 1_555
O2J Mo2H 1_555 1_555
N1J C9J 1_555 1_555
N2J Zn1B 1_555 1_555
C1J O1J 1_555 1_555
C2J C1J 1_555 1_555
C3J C2J 1_555 1_555
H1J C3J 1_555 1_555
C4J C3J 1_555 1_555
H2J C4J 1_555 1_555
C5J N2J 1_555 1_555
C6J C5J 1_555 1_555
H3J C6J 1_555 1_555
C7J C2J 1_555 1_555
H4J C7J 1_555 1_555
C8J N2J 1_555 1_555
H5J C8J 1_555 1_555
C9J C8J 1_555 1_555
C10J C9J 1_555 1_555
H6J C10J 1_555 1_555
C11J C10J 1_555 1_555
H7J C11J 1_555 1_555
C12J C11J 1_555 1_555
H8J C12J 1_555 1_555
C13J N1J 1_555 1_555
H9J C13J 1_555 1_555
Zn1C N1K 1_555 1_555
O1K Mo1H 1_555 1_555
O2K Mo2H 1_555 1_555
N1K C9K 1_555 1_555
N2K Zn1C 1_555 1_555
C1K O1K 1_555 1_555
C2K C1K 1_555 1_555
C3K C2K 1_555 1_555
H1K C3K 1_555 1_555
C4K C3K 1_555 1_555
H2K C4K 1_555 1_555
C5K N2K 1_555 1_555
C6K C5K 1_555 1_555
H3K C6K 1_555 1_555
C7K C2K 1_555 1_555
H4K C7K 1_555 1_555
C8K N2K 1_555 1_555
H5K C8K 1_555 1_555
C9K C8K 1_555 1_555
C10K C9K 1_555 1_555
H6K C10K 1_555 1_555
C11K C10K 1_555 1_555
H7K C11K 1_555 1_555
C12K C11K 1_555 1_555
H8K C12K 1_555 1_555
C13K N1K 1_555 1_555
H9K C13K 1_555 1_555
Mo1L Mo2L 1_555 1_555
Mo2L O2N 1_555 1_555
O1N Mo1L 1_555 1_555
O2N C1N 1_555 1_555
N1N Zn1F 1_555 1_555
N2N Zn1F 1_555 1_555
C1N O1N 1_555 1_555
C2N C1N 1_555 1_555
C3N C2N 1_555 1_555
H1N C3N 1_555 1_555
C4N C3N 1_555 1_555
H2N C4N 1_555 1_555
C5N N2N 1_555 1_555
C6N C5N 1_555 1_555
H3N C6N 1_555 1_555
C7N C2N 1_555 1_555
H4N C7N 1_555 1_555
C8N N2N 1_555 1_555
H5N C8N 1_555 1_555
C9N N1N 1_555 1_555
C10N C9N 1_555 1_555
H6N C10N 1_555 1_555
C11N C10N 1_555 1_555
H7N C11N 1_555 1_555
C12N C11N 1_555 1_555
H8N C12N 1_555 1_555
C13N N1N 1_555 1_555
H9N C13N 1_555 1_555
O3L Mo1L 1_555 1_555
O4L Mo2L 1_555 1_555
Zn1G N1O 1_555 1_555
O1O Mo1L 1_555 1_555
O2O Mo2L 1_555 1_555
N1O C9O 1_555 1_555
N2O Zn1G 1_555 1_555
C1O O1O 1_555 1_555
C2O C1O 1_555 1_555
C3O C2O 1_555 1_555
H1O C3O 1_555 1_555
C4O C3O 1_555 1_555
H2O C4O 1_555 1_555
C5O N2O 1_555 1_555
C6O C5O 1_555 1_555
H3O C6O 1_555 1_555
C7O C2O 1_555 1_555
H4O C7O 1_555 1_555
C8O N2O 1_555 1_555
H5O C8O 1_555 1_555
C9O C8O 1_555 1_555
C10O C9O 1_555 1_555
H6O C10O 1_555 1_555
C11O C10O 1_555 1_555
H7O C11O 1_555 1_555
C12O C11O 1_555 1_555
H8O C12O 1_555 1_555
C13O N1O 1_555 1_555
H9O C13O 1_555 1_555
Mo1C Mo2C 1_555 1_555
Mo2C O2P 1_555 1_555
O1P Mo1C 1_555 1_555
O2P C1P 1_555 1_555
N1P Zn1 1_555 1_555
N2P Zn1 1_555 1_555
C1P O1P 1_555 1_555
C2P C1P 1_555 1_555
C3P C2P 1_555 1_555
H1P C3P 1_555 1_555
C4P C3P 1_555 1_555
H2P C4P 1_555 1_555
C5P N2P 1_555 1_555
C6P C5P 1_555 1_555
H3P C6P 1_555 1_555
C7P C2P 1_555 1_555
H4P C7P 1_555 1_555
C8P N2P 1_555 1_555
H5P C8P 1_555 1_555
C9P N1P 1_555 1_555
C10P C9P 1_555 1_555
H6P C10P 1_555 1_555
C11P C10P 1_555 1_555
H7P C11P 1_555 1_555
C12P C11P 1_555 1_555
H8P C12P 1_555 1_555
C13P N1P 1_555 1_555
H9P C13P 1_555 1_555
O3C Mo1C 1_555 1_555
O4C Mo2C 1_555 1_555
O1R Mo1 1_555 1_555
O2R Mo2 1_555 1_555
N1R Zn1A 1_555 1_555
N2R Zn1A 1_555 1_555
C1R O1R 1_555 1_555
C2R C1R 1_555 1_555
C3R C2R 1_555 1_555
H1R C3R 1_555 1_555
C4R C3R 1_555 1_555
H2R C4R 1_555 1_555
C5R N2R 1_555 1_555
C6R C5R 1_555 1_555
H3R C6R 1_555 1_555
C7R C2R 1_555 1_555
H4R C7R 1_555 1_555
C8R N2R 1_555 1_555
H5R C8R 1_555 1_555
C9R N1R 1_555 1_555
C10R C9R 1_555 1_555
H6R C10R 1_555 1_555
C11R C10R 1_555 1_555
H7R C11R 1_555 1_555
C12R C11R 1_555 1_555
H8R C12R 1_555 1_555
C13R N1R 1_555 1_555
H9R C13R 1_555 1_555
Zn1E N1S 1_555 1_555
O1S Mo1 1_555 1_555
O2S Mo2 1_555 1_555
N1S C9S 1_555 1_555
N2S Zn1E 1_555 1_555
C1S O1S 1_555 1_555
C2S C1S 1_555 1_555
C3S C2S 1_555 1_555
H1S C3S 1_555 1_555
C4S C3S 1_555 1_555
H2S C4S 1_555 1_555
C5S N2S 1_555 1_555
C6S C5S 1_555 1_555
H3S C6S 1_555 1_555
C7S C2S 1_555 1_555
H4S C7S 1_555 1_555
C8S N2S 1_555 1_555
H5S C8S 1_555 1_555
C9S C8S 1_555 1_555
C10S C9S 1_555 1_555
H6S C10S 1_555 1_555
C11S C10S 1_555 1_555
H7S C11S 1_555 1_555
C12S C11S 1_555 1_555
H8S C12S 1_555 1_555
C13S N1S 1_555 1_555
H9S C13S 1_555 1_555
Zn1D N1U 1_555 1_555
O1U Mo1C 1_555 1_555
O2U Mo2C 1_555 1_555
N1U C9U 1_555 1_555
N2U Zn1D 1_555 1_555
C1U O1U 1_555 1_555
C2U C1U 1_555 1_555
C3U C2U 1_555 1_555
H1U C3U 1_555 1_555
C4U C3U 1_555 1_555
H2U C4U 1_555 1_555
C5U N2U 1_555 1_555
C6U C5U 1_555 1_555
H3U C6U 1_555 1_555
C7U C2U 1_555 1_555
H4U C7U 1_555 1_555
C8U N2U 1_555 1_555
H5U C8U 1_555 1_555
C9U C8U 1_555 1_555
C10U C9U 1_555 1_555
H6U C10U 1_555 1_555
C11U C10U 1_555 1_555
H7U C11U 1_555 1_555
C12U C11U 1_555 1_555
H8U C12U 1_555 1_555
C13U N1U 1_555 1_555
H9U C13U 1_555 1_555
Mo1A Mo2A 1_555 1_555
Mo2A O2V 1_555 1_555
O1V Mo1A 1_555 1_555
O2V C1V 1_555 1_555
N1V Zn1B 1_555 1_555
N2V Zn1B 1_555 1_555
C1V O1V 1_555 1_555
C2V C1V 1_555 1_555
C3V C2V 1_555 1_555
H1V C3V 1_555 1_555
C4V C3V 1_555 1_555
H2V C4V 1_555 1_555
C5V N2V 1_555 1_555
C6V C5V 1_555 1_555
H3V C6V 1_555 1_555
C7V C2V 1_555 1_555
H4V C7V 1_555 1_555
C8V N2V 1_555 1_555
H5V C8V 1_555 1_555
C9V N1V 1_555 1_555
C10V C9V 1_555 1_555
H6V C10V 1_555 1_555
C11V C10V 1_555 1_555
H7V C11V 1_555 1_555
C12V C11V 1_555 1_555
H8V C12V 1_555 1_555
C13V N1V 1_555 1_555
H9V C13V 1_555 1_555
O3A Mo1A 1_555 1_555
O4A Mo2A 1_555 1_555
O1W Mo1A 1_555 1_555
O2W Mo2A 1_555 1_555
N1W Zn1F 1_555 1_555
N2W Zn1F 1_555 1_555
C1W O1W 1_555 1_555
C2W C1W 1_555 1_555
C3W C2W 1_555 1_555
H1W C3W 1_555 1_555
C4W C3W 1_555 1_555
H2W C4W 1_555 1_555
C5W N2W 1_555 1_555
C6W C5W 1_555 1_555
H3W C6W 1_555 1_555
C7W C2W 1_555 1_555
H4W C7W 1_555 1_555
C8W N2W 1_555 1_555
H5W C8W 1_555 1_555
C9W N1W 1_555 1_555
C10W C9W 1_555 1_555
H6W C10W 1_555 1_555
C11W C10W 1_555 1_555
H7W C11W 1_555 1_555
C12W C11W 1_555 1_555
H8W C12W 1_555 1_555
C13W N1W 1_555 1_555
H9W C13W 1_555 1_555
O1A Mo1A 1_555 1_555
O2A Mo2A 1_555 1_555
N1A Zn1A 1_555 1_555
N2A Zn1A 1_555 1_555
C1A O1A 1_555 1_555
C2A C1A 1_555 1_555
C3A C2A 1_555 1_555
H1A C3A 1_555 1_555
C4A C3A 1_555 1_555
H2A C4A 1_555 1_555
C5A N2A 1_555 1_555
C6A C5A 1_555 1_555
H3A C6A 1_555 1_555
C7A C2A 1_555 1_555
H4A C7A 1_555 1_555
C8A N2A 1_555 1_555
H5A C8A 1_555 1_555
C9A N1A 1_555 1_555
C10A C9A 1_555 1_555
H6A C10A 1_555 1_555
C11A C10A 1_555 1_555
H7A C11A 1_555 1_555
C12A C11A 1_555 1_555
H8A C12A 1_555 1_555
C13A N1A 1_555 1_555
H9A C13A 1_555 1_555
Mo1B Mo2B 1_555 1_555
Mo2B O2B 1_555 1_555
O1B Mo1B 1_555 1_555
O2B C1B 1_555 1_555
N1B Zn1B 1_555 1_555
N2B Zn1B 1_555 1_555
C1B O1B 1_555 1_555
C2B C1B 1_555 1_555
C3B C2B 1_555 1_555
H1B C3B 1_555 1_555
C4B C3B 1_555 1_555
H2B C4B 1_555 1_555
C5B N2B 1_555 1_555
C6B C5B 1_555 1_555
H3B C6B 1_555 1_555
C7B C2B 1_555 1_555
H4B C7B 1_555 1_555
C8B N2B 1_555 1_555
H5B C8B 1_555 1_555
C9B N1B 1_555 1_555
C10B C9B 1_555 1_555
H6B C10B 1_555 1_555
C11B C10B 1_555 1_555
H7B C11B 1_555 1_555
C12B C11B 1_555 1_555
H8B C12B 1_555 1_555
C13B N1B 1_555 1_555
H9B C13B 1_555 1_555
O3B Mo1B 1_555 1_555
O4B Mo2B 1_555 1_555
O1C Mo1C 1_555 1_555
O2C Mo2C 1_555 1_555
N1C Zn1C 1_555 1_555
N2C Zn1C 1_555 1_555
C1C O1C 1_555 1_555
C2C C1C 1_555 1_555
C3C C2C 1_555 1_555
H1C C3C 1_555 1_555
C4C C3C 1_555 1_555
H2C C4C 1_555 1_555
C5C N2C 1_555 1_555
C6C C5C 1_555 1_555
H3C C6C 1_555 1_555
C7C C2C 1_555 1_555
H4C C7C 1_555 1_555
C8C N2C 1_555 1_555
H5C C8C 1_555 1_555
C9C N1C 1_555 1_555
C10C C9C 1_555 1_555
H6C C10C 1_555 1_555
C11C C10C 1_555 1_555
H7C C11C 1_555 1_555
C12C C11C 1_555 1_555
H8C C12C 1_555 1_555
C13C N1C 1_555 1_555
H9C C13C 1_555 1_555
O1D Mo1B 1_555 1_555
O2D Mo2B 1_555 1_555
N1D Zn1D 1_555 1_555
N2D Zn1D 1_555 1_555
C1D O1D 1_555 1_555
C2D C1D 1_555 1_555
C3D C2D 1_555 1_555
H1D C3D 1_555 1_555
C4D C3D 1_555 1_555
H2D C4D 1_555 1_555
C5D N2D 1_555 1_555
C6D C5D 1_555 1_555
H3D C6D 1_555 1_555
C7D C2D 1_555 1_555
H4D C7D 1_555 1_555
C8D N2D 1_555 1_555
H5D C8D 1_555 1_555
C9D N1D 1_555 1_555
C10D C9D 1_555 1_555
H6D C10D 1_555 1_555
C11D C10D 1_555 1_555
H7D C11D 1_555 1_555
C12D C11D 1_555 1_555
H8D C12D 1_555 1_555
C13D N1D 1_555 1_555
H9D C13D 1_555 1_555
O1E Mo1C 1_555 1_555
O2E Mo2C 1_555 1_555
N1E Zn1E 1_555 1_555
N2E Zn1E 1_555 1_555
C1E O1E 1_555 1_555
C2E C1E 1_555 1_555
C3E C2E 1_555 1_555
H1E C3E 1_555 1_555
C4E C3E 1_555 1_555
H2E C4E 1_555 1_555
C5E N2E 1_555 1_555
C6E C5E 1_555 1_555
H3E C6E 1_555 1_555
C7E C2E 1_555 1_555
H4E C7E 1_555 1_555
C8E N2E 1_555 1_555
H5E C8E 1_555 1_555
C9E N1E 1_555 1_555
C10E C9E 1_555 1_555
H6E C10E 1_555 1_555
C11E C10E 1_555 1_555
H7E C11E 1_555 1_555
C12E C11E 1_555 1_555
H8E C12E 1_555 1_555
C13E N1E 1_555 1_555
H9E C13E 1_555 1_555
O1G Mo1A 1_555 1_555
O2G Mo2A 1_555 1_555
N1G Zn1G 1_555 1_555
N2G Zn1G 1_555 1_555
C1G O1G 1_555 1_555
C2G C1G 1_555 1_555
C3G C2G 1_555 1_555
H1G C3G 1_555 1_555
C4G C3G 1_555 1_555
H2G C4G 1_555 1_555
C5G N2G 1_555 1_555
C6G C5G 1_555 1_555
H3G C6G 1_555 1_555
C7G C2G 1_555 1_555
H4G C7G 1_555 1_555
C8G N2G 1_555 1_555
H5G C8G 1_555 1_555
C9G N1G 1_555 1_555
C10G C9G 1_555 1_555
H6G C10G 1_555 1_555
C11G C10G 1_555 1_555
H7G C11G 1_555 1_555
C12G C11G 1_555 1_555
H8G C12G 1_555 1_555
C13G N1G 1_555 1_555
H9G C13G 1_555 1_555
O1L Mo1L 1_555 1_555
O2L Mo2L 1_555 1_555
N1L Zn1D 1_555 1_555
N2L Zn1D 1_555 1_555
C1L O1L 1_555 1_555
C2L C1L 1_555 1_555
C3L C2L 1_555 1_555
H1L C3L 1_555 1_555
C4L C3L 1_555 1_555
H2L C4L 1_555 1_555
C5L N2L 1_555 1_555
C6L C5L 1_555 1_555
H3L C6L 1_555 1_555
C7L C2L 1_555 1_555
H4L C7L 1_555 1_555
C8L N2L 1_555 1_555
H5L C8L 1_555 1_555
C9L N1L 1_555 1_555
C10L C9L 1_555 1_555
H6L C10L 1_555 1_555
C11L C10L 1_555 1_555
H7L C11L 1_555 1_555
C12L C11L 1_555 1_555
H8L C12L 1_555 1_555
C13L N1L 1_555 1_555
H9L C13L 1_555 1_555
O1M Mo1L 1_555 1_555
O2M Mo2L 1_555 1_555
N1M Zn1E 1_555 1_555
N2M Zn1E 1_555 1_555
C1M O1M 1_555 1_555
C2M C1M 1_555 1_555
C3M C2M 1_555 1_555
H1M C3M 1_555 1_555
C4M C3M 1_555 1_555
H2M C4M 1_555 1_555
C5M N2M 1_555 1_555
C6M C5M 1_555 1_555
H3M C6M 1_555 1_555
C7M C2M 1_555 1_555
H4M C7M 1_555 1_555
C8M N2M 1_555 1_555
H5M C8M 1_555 1_555
C9M N1M 1_555 1_555
C10M C9M 1_555 1_555
H6M C10M 1_555 1_555
C11M C10M 1_555 1_555
H7M C11M 1_555 1_555
C12M C11M 1_555 1_555
H8M C12M 1_555 1_555
C13M N1M 1_555 1_555
H9M C13M 1_555 1_555
O1Q Mo1B 1_555 1_555
O2Q Mo2B 1_555 1_555
N1Q Zn1G 1_555 1_555
N2Q Zn1G 1_555 1_555
C1Q O1Q 1_555 1_555
C2Q C1Q 1_555 1_555
C3Q C2Q 1_555 1_555
H1Q C3Q 1_555 1_555
C4Q C3Q 1_555 1_555
H2Q C4Q 1_555 1_555
C5Q N2Q 1_555 1_555
C6Q C5Q 1_555 1_555
H3Q C6Q 1_555 1_555
C7Q C2Q 1_555 1_555
H4Q C7Q 1_555 1_555
C8Q N2Q 1_555 1_555
H5Q C8Q 1_555 1_555
C9Q N1Q 1_555 1_555
C10Q C9Q 1_555 1_555
H6Q C10Q 1_555 1_555
C11Q C10Q 1_555 1_555
H7Q C11Q 1_555 1_555
C12Q C11Q 1_555 1_555
H8Q C12Q 1_555 1_555
C13Q N1Q 1_555 1_555
H9Q C13Q 1_555 1_555
O1T Mo1B 1_555 1_555
O2T Mo2B 1_555 1_555
N1T Zn1C 1_555 1_555
N2T Zn1C 1_555 1_555
C1T O1T 1_555 1_555
C2T C1T 1_555 1_555
C3T C2T 1_555 1_555
H1T C3T 1_555 1_555
C4T C3T 1_555 1_555
H2T C4T 1_555 1_555
C5T N2T 1_555 1_555
C6T C5T 1_555 1_555
H3T C6T 1_555 1_555
C7T C2T 1_555 1_555
H4T C7T 1_555 1_555
C8T N2T 1_555 1_555
H5T C8T 1_555 1_555
C9T N1T 1_555 1_555
C10T C9T 1_555 1_555
H6T C10T 1_555 1_555
C11T C10T 1_555 1_555
H7T C11T 1_555 1_555
C12T C11T 1_555 1_555
H8T C12T 1_555 1_555
C13T N1T 1_555 1_555
H9T C13T 1_555 1_555
C4 C5 1_555 1_555
C6 C7 1_555 1_555
C12 C13 1_555 1_555
O2F C1F 1_555 1_555
C4F C5F 1_555 1_555
C6F C7F 1_555 1_555
C12F C13F 1_555 1_555
C4H C5H 1_555 1_555
C6H C7H 1_555 1_555
C8H C9H 1_555 1_555
C12H C13H 1_555 1_555
O2I C1I 1_555 1_555
C4I C5I 1_555 1_555
C6I C7I 1_555 1_555
C12I C13I 1_555 1_555
O2J C1J 1_555 1_555
C4J C5J 1_555 1_555
C6J C7J 1_555 1_555
C12J C13J 1_555 1_555
O2K C1K 1_555 1_555
C4K C5K 1_555 1_555
C6K C7K 1_555 1_555
C12K C13K 1_555 1_555
C4N C5N 1_555 1_555
C6N C7N 1_555 1_555
C8N C9N 1_555 1_555
C12N C13N 1_555 1_555
O2O C1O 1_555 1_555
C4O C5O 1_555 1_555
C6O C7O 1_555 1_555
C12O C13O 1_555 1_555
C4P C5P 1_555 1_555
C6P C7P 1_555 1_555
C8P C9P 1_555 1_555
C12P C13P 1_555 1_555
O2R C1R 1_555 1_555
C4R C5R 1_555 1_555
C6R C7R 1_555 1_555
C8R C9R 1_555 1_555
C12R C13R 1_555 1_555
O2S C1S 1_555 1_555
C4S C5S 1_555 1_555
C6S C7S 1_555 1_555
C12S C13S 1_555 1_555
O2U C1U 1_555 1_555
C4U C5U 1_555 1_555
C6U C7U 1_555 1_555
C12U C13U 1_555 1_555
C4V C5V 1_555 1_555
C6V C7V 1_555 1_555
C8V C9V 1_555 1_555
C12V C13V 1_555 1_555
O2W C1W 1_555 1_555
C4W C5W 1_555 1_555
C6W C7W 1_555 1_555
C8W C9W 1_555 1_555
C12W C13W 1_555 1_555
O2A C1A 1_555 1_555
C4A C5A 1_555 1_555
C6A C7A 1_555 1_555
C8A C9A 1_555 1_555
C12A C13A 1_555 1_555
C4B C5B 1_555 1_555
C6B C7B 1_555 1_555
C8B C9B 1_555 1_555
C12B C13B 1_555 1_555
O2C C1C 1_555 1_555
C4C C5C 1_555 1_555
C6C C7C 1_555 1_555
C8C C9C 1_555 1_555
C12C C13C 1_555 1_555
O2D C1D 1_555 1_555
C4D C5D 1_555 1_555
C6D C7D 1_555 1_555
C8D C9D 1_555 1_555
C12D C13D 1_555 1_555
O2E C1E 1_555 1_555
C4E C5E 1_555 1_555
C6E C7E 1_555 1_555
C8E C9E 1_555 1_555
C12E C13E 1_555 1_555
O2G C1G 1_555 1_555
C4G C5G 1_555 1_555
C6G C7G 1_555 1_555
C8G C9G 1_555 1_555
C12G C13G 1_555 1_555
O2L C1L 1_555 1_555
C4L C5L 1_555 1_555
C6L C7L 1_555 1_555
C8L C9L 1_555 1_555
C12L C13L 1_555 1_555
O2M C1M 1_555 1_555
C4M C5M 1_555 1_555
C6M C7M 1_555 1_555
C8M C9M 1_555 1_555
C12M C13M 1_555 1_555
O2Q C1Q 1_555 1_555
C4Q C5Q 1_555 1_555
C6Q C7Q 1_555 1_555
C8Q C9Q 1_555 1_555
C12Q C13Q 1_555 1_555
O2T C1T 1_555 1_555
C4T C5T 1_555 1_555
C6T C7T 1_555 1_555
C8T C9T 1_555 1_555
C12T C13T 1_555 1_555

#END
