
#######################################################################
#
#                 Cambridge Crystallographic Data Centre
#                                CCDC 
#
#######################################################################
#
# If this CIF has been generated from an entry in the Cambridge 
# Structural Database, then it will include bibliographic, chemical, 
# crystal, experimental, refinement or atomic coordinate data resulting 
# from the CCDC's data processing and validation procedures.
#
#######################################################################

data_OSAHAS
_chemical_formula_moiety         
'C144 H84 Ga4 N12 O36 8-,3(K1 1+),5(C13 H22 P1 1+),2.5(C1 H4 O1),C3 H7 N1 O1,4.75(H2 O1)'
_chemical_name_systematic        
"pentakis((Mesitylbenzyl)trimethylphosphonium) tri-potassium hexakis(\m~2~-N,N'-bis(2,3-dioxybenzoyl)naphthalene-1,5-diamine)-tetra-gallium dimethylformamide methanol solvate hydrate"
_symmetry_cell_setting           triclinic
_symmetry_space_group_name_H-M   'P -1'
_symmetry_Int_Tables_number      2
_space_group_name_Hall           '-P 1'
loop_
_symmetry_equiv_pos_site_id
_symmetry_equiv_pos_as_xyz
1 x,y,z
2 -x,-y,-z
_cell_length_a                   20.380(4)
_cell_length_b                   20.556(4)
_cell_length_c                   35.192(7)
_cell_angle_alpha                90.28(3)
_cell_angle_beta                 92.80(3)
_cell_angle_gamma                109.91(3)
_cell_volume                     13841.6
_exptl_crystal_colour            yellow
_exptl_crystal_description       plate
_cell_formula_units_Z            2
loop_
_atom_site_label
_atom_site_type_symbol
_atom_site_fract_x
_atom_site_fract_y
_atom_site_fract_z
K1 K -0.12807(11) -0.04315(12) 0.98333(5)
K2 K -0.49949(15) -0.80634(10) 1.30219(8)
K3 K -0.86924(9) -0.13466(11) 1.19907(7)
Ga1 Ga -0.18484(4) -0.14415(4) 1.06979(2)
Ga2 Ga -0.46476(4) -0.63590(4) 1.28485(2)
Ga3 Ga -0.71716(4) -0.16546(4) 1.24310(2)
Ga4 Ga -0.13588(4) -0.03880(5) 1.42610(2)
O1 O -0.0330(2) 0.0026(3) 1.42508(13)
O2 O -0.11909(19) -0.1185(2) 1.40175(12)
O3 O -0.0368(2) -0.2688(3) 1.36238(17)
O4 O -0.4873(2) -0.4693(2) 1.42611(12)
O5 O -0.4701(2) -0.56845(19) 1.32377(11)
O6 O -0.5489(2) -0.6977(2) 1.30868(13)
N1 N -0.1346(2) -0.2475(3) 1.37855(14)
H1 H -0.1500 -0.2153 1.3852
N2 N -0.4297(2) -0.4637(2) 1.37194(13)
H2 H -0.4284 -0.4847 1.3510
C1 C -0.0501(3) -0.1064(4) 1.39806(17)
C2 C -0.0045(3) -0.0399(4) 1.41019(18)
C3 C 0.0673(3) -0.0223(4) 1.4072(2)
H3 H 0.0973 0.0216 1.4149
C4 C 0.0944(4) -0.0710(5) 1.3924(2)
H4 H 0.1422 -0.0585 1.3895
C5 C 0.0512(3) -0.1371(4) 1.3823(2)
H5 H 0.0701 -0.1691 1.3733
C6 C -0.0224(3) -0.1566(4) 1.38541(19)
C7 C -0.0636(3) -0.2284(4) 1.37486(19)
C8 C -0.1846(3) -0.3140(4) 1.37256(18)
C9 C -0.1685(4) -0.3708(4) 1.3615(2)
H6 H -0.1222 -0.3662 1.3581
C10 C -0.2207(4) -0.4353(4) 1.3552(2)
H7 H -0.2090 -0.4729 1.3472
C11 C -0.2878(3) -0.4433(3) 1.36067(19)
H8 H -0.3218 -0.4867 1.3565
C12 C -0.3077(3) -0.3880(3) 1.37242(16)
C13 C -0.2568(3) -0.3210(3) 1.37869(17)
C14 C -0.2777(3) -0.2666(3) 1.39067(16)
H9 H -0.2442 -0.2231 1.3952
C15 C -0.3454(3) -0.2758(3) 1.39588(18)
H10 H -0.3576 -0.2385 1.4039
C16 C -0.3985(3) -0.3417(3) 1.38926(17)
H11 H -0.4452 -0.3470 1.3921
C17 C -0.3800(3) -0.3969(3) 1.37871(15)
C18 C -0.4793(3) -0.4971(3) 1.39597(16)
C19 C -0.5231(3) -0.5676(3) 1.38386(16)
C20 C -0.5731(3) -0.6056(3) 1.40898(18)
H12 H -0.5792 -0.5846 1.4314
C21 C -0.6128(4) -0.6729(4) 1.4008(2)
H13 H -0.6443 -0.6978 1.4182
C22 C -0.6066(4) -0.7044(4) 1.3672(2)
H14 H -0.6353 -0.7497 1.3617
C23 C -0.5588(3) -0.6697(3) 1.34175(19)
C24 C -0.5165(3) -0.5995(3) 1.35008(17)
O7 O -0.1353(2) -0.1977(2) 1.04464(11)
O8 O -0.13964(19) -0.1679(2) 1.11647(10)
O9 O -0.0042(2) -0.2184(3) 1.19785(13)
O10 O -0.1543(3) 0.1255(3) 1.28422(16)
O11 O -0.1533(2) -0.0001(2) 1.37715(12)
O12 O -0.1380(3) 0.0502(3) 1.44726(13)
N3 N -0.0836(3) -0.1634(3) 1.18776(14)
H15 H -0.1138 -0.1580 1.1713
N4 N -0.1531(3) 0.0215(3) 1.30419(16)
H16 H -0.1516 -0.0022 1.3241
C25 C -0.0968(3) -0.2026(3) 1.10794(17)
C26 C -0.0938(3) -0.2177(4) 1.06991(19)
C27 C -0.0511(4) -0.2521(5) 1.0579(2)
H17 H -0.0491 -0.2608 1.0321
C28 C -0.0104(4) -0.2738(5) 1.0848(2)
H18 H 0.0162 -0.3000 1.0773
C29 C -0.0106(4) -0.2557(4) 1.12248(19)
H19 H 0.0182 -0.2682 1.1401
C30 C -0.0519(3) -0.2197(3) 1.13514(17)
C31 C -0.0450(3) -0.2012(4) 1.17585(19)
C32 C -0.0805(3) -0.1321(4) 1.22365(17)
C33 C -0.0374(4) -0.1385(4) 1.2543(2)
H20 H -0.0097 -0.1657 1.2513
C34 C -0.0345(4) -0.1063(4) 1.28860(19)
H21 H -0.0054 -0.1126 1.3084
C35 C -0.0735(4) -0.0648(4) 1.29465(19)
H22 H -0.0712 -0.0438 1.3184
C36 C -0.1180(3) -0.0537(4) 1.26402(18)
C37 C -0.1214(3) -0.0890(3) 1.22843(16)
C38 C -0.1676(3) -0.0796(3) 1.19872(18)
H23 H -0.1714 -0.1019 1.1752
C39 C -0.2057(4) -0.0382(4) 1.20479(19)
H24 H -0.2353 -0.0328 1.1850
C40 C -0.2028(4) -0.0037(4) 1.2391(2)
H25 H -0.2301 0.0238 1.2425
C41 C -0.1577(3) -0.0116(4) 1.26839(18)
C42 C -0.1507(4) 0.0877(4) 1.3096(2)
C43 C -0.1452(4) 0.1111(4) 1.3506(2)
C44 C -0.1390(6) 0.1789(4) 1.3578(3)
H26 H -0.1407 0.2079 1.3378
C45 C -0.1300(7) 0.2037(5) 1.3958(3)
H27 H -0.1244 0.2498 1.4009
C46 C -0.1295(6) 0.1612(5) 1.4252(3)
H28 H -0.1232 0.1790 1.4500
C47 C -0.1382(4) 0.0924(4) 1.4192(2)
C48 C -0.1460(3) 0.0663(4) 1.38130(19)
O13 O -0.4081(2) -0.6746(2) 1.31874(12)
O14 O -0.3719(2) -0.5754(2) 1.26927(11)
O15 O -0.1581(3) -0.4795(4) 1.2478(2)
O16 O -0.4473(2) -0.4015(2) 1.05547(11)
O17 O -0.27149(19) -0.2228(2) 1.07374(10)
O18 O -0.2275(2) -0.1345(2) 1.01958(11)
N5 N -0.2696(3) -0.4953(3) 1.22681(14)
H29 H -0.3125 -0.5154 1.2321
N6 N -0.3553(2) -0.3425(2) 1.09529(13)
H30 H -0.3192 -0.3054 1.0975
C49 C -0.3218(3) -0.5908(3) 1.28730(17)
C50 C -0.3419(4) -0.6428(3) 1.31467(19)
C51 C -0.2894(4) -0.6595(3) 1.33594(19)
H31 H -0.3023 -0.6931 1.3544
C52 C -0.2197(4) -0.6271(4) 1.3300(2)
H32 H -0.1861 -0.6378 1.3450
C53 C -0.1998(4) -0.5788(4) 1.3021(2)
H33 H -0.1527 -0.5582 1.2977
C54 C -0.2500(3) -0.5605(4) 1.28034(19)
C55 C -0.2227(4) -0.5093(4) 1.2495(2)
C56 C -0.2591(3) -0.4527(3) 1.19553(19)
C57 C -0.1939(4) -0.4227(4) 1.1805(2)
H34 H -0.1555 -0.4318 1.1914
C58 C -0.1849(4) -0.3800(4) 1.1499(2)
H35 H -0.1402 -0.3586 1.1416
C59 C -0.2397(4) -0.3682(4) 1.1315(2)
H36 H -0.2322 -0.3406 1.1102
C60 C -0.3075(3) -0.3971(3) 1.14425(17)
C61 C -0.3188(3) -0.4409(3) 1.17736(17)
C62 C -0.3869(3) -0.4694(3) 1.18968(16)
H37 H -0.3949 -0.4984 1.2105
C63 C -0.4413(3) -0.4560(3) 1.17213(18)
H38 H -0.4858 -0.4749 1.1813
C64 C -0.4312(3) -0.4134(3) 1.13984(17)
H39 H -0.4687 -0.4039 1.1281
C65 C -0.3664(3) -0.3864(3) 1.12610(16)
C66 C -0.3946(3) -0.3510(3) 1.06201(16)
C67 C -0.3680(3) -0.2969(3) 1.03402(16)
C68 C -0.4040(4) -0.3046(3) 0.99743(18)
H40 H -0.4448 -0.3421 0.9925
C69 C -0.3803(4) -0.2592(4) 0.9705(2)
H41 H -0.4040 -0.2666 0.9467
C70 C -0.3213(4) -0.2010(4) 0.9765(2)
H42 H -0.3064 -0.1702 0.9569
C71 C -0.2845(3) -0.1882(3) 1.01116(17)
C72 C -0.3085(3) -0.2376(3) 1.04101(16)
O19 O -0.8110(2) -0.2295(2) 1.22707(15)
O20 O -0.6862(2) -0.2135(2) 1.20260(12)
O21 O -0.6683(4) -0.3108(4) 1.10014(18)
O22 O -0.2844(4) 0.0845(4) 1.1320(2)
O23 O -0.2220(2) -0.0820(2) 1.09727(11)
O24 O -0.1067(2) -0.0579(2) 1.06232(12)
N7 N -0.6113(3) -0.2328(3) 1.14786(17)
H43 H -0.6159 -0.2147 1.1692
N8 N -0.3133(3) -0.0336(3) 1.12534(15)
H44 H -0.2986 -0.0657 1.1176
C73 C -0.7417(3) -0.2552(3) 1.18199(19)
C74 C -0.8094(3) -0.2639(4) 1.1960(2)
C75 C -0.8672(4) -0.3054(5) 1.1764(3)
H45 H -0.9108 -0.3099 1.1851
C76 C -0.8640(5) -0.3411(6) 1.1441(4)
H46 H -0.9051 -0.3706 1.1321
C77 C -0.7996(5) -0.3338(5) 1.1287(3)
H47 H -0.7974 -0.3569 1.1062
C78 C -0.7378(4) -0.2898(4) 1.1487(2)
C79 C -0.6703(4) -0.2787(5) 1.1301(2)
C80 C -0.5450(4) -0.2133(4) 1.1344(2)
C81 C -0.5228(6) -0.2553(4) 1.1130(4)
H48 H -0.5527 -0.3001 1.1072
C82 C -0.4532(6) -0.2318(5) 1.0987(4)
H49 H -0.4396 -0.2617 1.0835
C83 C -0.4069(5) -0.1665(4) 1.1070(3)
H50 H -0.3628 -0.1515 1.0971
C84 C -0.4283(4) -0.1220(4) 1.13126(19)
C85 C -0.4970(4) -0.1448(4) 1.14507(19)
C86 C -0.5170(4) -0.0978(5) 1.1676(3)
H51 H -0.5624 -0.1105 1.1756
C87 C -0.4711(5) -0.0358(6) 1.1774(3)
H52 H -0.4841 -0.0067 1.1935
C88 C -0.4040(5) -0.0137(6) 1.1640(3)
H53 H -0.3733 0.0301 1.1712
C89 C -0.3821(4) -0.0541(4) 1.1408(2)
C90 C -0.2709(5) 0.0327(5) 1.1224(3)
C91 C -0.2032(4) 0.0400(4) 1.1051(2)
C92 C -0.1545(7) 0.1084(5) 1.1007(3)
H54 H -0.1655 0.1461 1.1093
C93 C -0.0927(6) 0.1196(5) 1.0843(3)
H55 H -0.0615 0.1644 1.0822
C94 C -0.0771(5) 0.0649(4) 1.0711(3)
H56 H -0.0356 0.0732 1.0590
C95 C -0.1197(4) -0.0016(4) 1.0749(2)
C96 C -0.1835(4) -0.0161(4) 1.09340(18)
O25 O -0.7343(2) -0.0972(2) 1.20923(14)
O26 O -0.6226(2) -0.0936(2) 1.25105(12)
O27 O -0.4544(3) 0.0944(3) 1.26836(17)
O28 O -0.4395(2) -0.1864(3) 1.46894(14)
O29 O -0.2362(2) -0.0889(2) 1.43129(11)
O30 O -0.1273(2) -0.0715(3) 1.47791(12)
N9 N -0.4979(3) -0.0202(3) 1.28161(16)
H57 H -0.5312 -0.0585 1.2762
N10 N -0.3747(2) -0.1216(3) 1.42210(14)
H58 H -0.3326 -0.1009 1.4156
C97 C -0.6196(4) -0.0337(3) 1.2352(2)
C98 C -0.6823(4) -0.0371(4) 1.2120(2)
C99 C -0.6846(5) 0.0211(5) 1.1945(3)
H59 H -0.7244 0.0202 1.1801
C100 C -0.6259(5) 0.0830(4) 1.1982(3)
H60 H -0.6271 0.1227 1.1861
C101 C -0.5689(5) 0.0844(4) 1.2193(3)
H61 H -0.5302 0.1248 1.2201
C102 C -0.5647(4) 0.0279(3) 1.2400(2)
C103 C -0.5027(4) 0.0365(3) 1.2647(2)
C104 C -0.4437(3) -0.0238(3) 1.30744(19)
C105 C -0.3751(4) 0.0139(4) 1.3039(3)
H62 H -0.3628 0.0429 1.2833
C106 C -0.3240(4) 0.0107(5) 1.3292(3)
H63 H -0.2780 0.0383 1.3258
C107 C -0.3384(4) -0.0317(4) 1.3595(2)
H64 H -0.3024 -0.0338 1.3762
C108 C -0.4082(3) -0.0727(3) 1.36542(17)
C109 C -0.4622(3) -0.0696(3) 1.33825(18)
C110 C -0.5331(3) -0.1112(4) 1.3437(2)
H65 H -0.5686 -0.1091 1.3266
C111 C -0.5483(4) -0.1536(5) 1.3736(3)
H66 H -0.5947 -0.1804 1.3768
C112 C -0.4965(4) -0.1584(5) 1.3999(2)
H67 H -0.5089 -0.1889 1.4199
C113 C -0.4273(3) -0.1185(3) 1.39649(19)
C114 C -0.3813(3) -0.1538(4) 1.45688(19)
C115 C -0.3165(3) -0.1450(3) 1.47974(17)
C116 C -0.3230(3) -0.1695(3) 1.51673(18)
H68 H -0.3673 -0.1914 1.5256
C117 C -0.2653(4) -0.1617(4) 1.54009(19)
H69 H -0.2713 -0.1774 1.5649
C118 C -0.1981(3) -0.1312(4) 1.5281(2)
H70 H -0.1598 -0.1286 1.5442
C119 C -0.1884(3) -0.1043(4) 1.49175(18)
C120 C -0.2496(3) -0.1137(4) 1.46540(18)
O31 O -0.7551(2) -0.1283(3) 1.28516(15)
O32 O -0.69816(19) -0.2257(2) 1.28326(12)
O33 O -0.6825(3) -0.3358(3) 1.38099(15)
O34 O -0.6441(3) -0.5677(2) 1.15615(14)
O35 O -0.5178(2) -0.6006(2) 1.24687(11)
O36 O -0.4752(2) -0.7078(2) 1.24481(13)
N11 N -0.6697(3) -0.3267(3) 1.31769(15)
H71 H -0.6732 -0.3023 1.2984
N12 N -0.5993(3) -0.5367(2) 1.21697(13)
H72 H -0.5739 -0.5458 1.2350
C121 C -0.7204(3) -0.2134(3) 1.31665(18)
C122 C -0.7512(3) -0.1610(3) 1.3187(2)
C123 C -0.7745(4) -0.1455(4) 1.3513(2)
H73 H -0.7948 -0.1113 1.3518
C124 C -0.7681(4) -0.1811(4) 1.3850(2)
H74 H -0.7826 -0.1691 1.4078
C125 C -0.7407(4) -0.2323(4) 1.3838(2)
H75 H -0.7368 -0.2558 1.4059
C126 C -0.7175(3) -0.2510(3) 1.34882(19)
C127 C -0.6888(3) -0.3070(4) 1.35051(19)
C128 C -0.6448(3) -0.3812(3) 1.31003(18)
C129 C -0.6169(5) -0.4100(5) 1.3371(2)
H76 H -0.6113 -0.3924 1.3619
C130 C -0.5962(6) -0.4651(6) 1.3293(3)
H77 H -0.5817 -0.4872 1.3493
C131 C -0.5961(4) -0.4889(4) 1.2922(2)
H78 H -0.5787 -0.5244 1.2873
C132 C -0.6218(3) -0.4595(3) 1.26327(17)
C133 C -0.6477(3) -0.4035(3) 1.27131(17)
C134 C -0.6751(4) -0.3754(4) 1.24107(19)
H79 H -0.6942 -0.3412 1.2460
C135 C -0.6744(5) -0.3970(5) 1.2045(2)
H80 H -0.6900 -0.3752 1.1847
C136 C -0.6503(5) -0.4524(4) 1.1960(2)
H81 H -0.6522 -0.4677 1.1710
C137 C -0.6248(3) -0.4827(3) 1.22383(17)
C138 C -0.6113(4) -0.5770(3) 1.1835(2)
C139 C -0.5788(3) -0.6317(3) 1.18534(18)
C140 C -0.5941(4) -0.6775(3) 1.15401(18)
H82 H -0.6222 -0.6713 1.1337
C141 C -0.5693(4) -0.7305(4) 1.1524(2)
H83 H -0.5794 -0.7596 1.1310
C142 C -0.5284(4) -0.7415(3) 1.18296(19)
H84 H -0.5119 -0.7784 1.1818
C143 C -0.5121(4) -0.6986(3) 1.21497(19)
C144 C -0.5371(3) -0.6413(3) 1.21612(18)
C145 C 0.5707(4) 0.4526(5) 0.4975(2)
H85 H 0.5541 0.4592 0.4723
H86 H 0.6206 0.4644 0.4982
H87 H 0.5587 0.4818 0.5152
C146 C 0.4402(4) 0.3455(4) 0.51184(19)
H88 H 0.4211 0.3495 0.4868
H89 H 0.4320 0.3782 0.5289
H90 H 0.4182 0.2995 0.5207
C147 C 0.5638(4) 0.3548(5) 0.55711(19)
H91 H 0.6132 0.3639 0.5570
H92 H 0.5410 0.3087 0.5657
H93 H 0.5549 0.3874 0.5739
P1 P 0.53060(9) 0.36271(11) 0.51016(5)
C148 C 0.5448(4) 0.3026(5) 0.4768(2)
H94 H 0.5214 0.2560 0.4853
H95 H 0.5232 0.3072 0.4523
C149 C 0.6210(4) 0.3118(5) 0.4716(2)
C150 C 0.6562(5) 0.3533(6) 0.4429(2)
C151 C 0.7275(5) 0.3660(6) 0.4388(3)
H96 H 0.7522 0.3968 0.4210
C152 C 0.7608(6) 0.3296(7) 0.4633(3)
C153 C 0.7253(5) 0.2876(6) 0.4884(2)
H97 H 0.7483 0.2644 0.5036
C154 C 0.6554(5) 0.2755(5) 0.4940(2)
C155 C 0.6190(6) 0.2239(7) 0.5236(3)
C156 C 0.6195(6) 0.3884(6) 0.4142(3)
C157 C 0.8422(6) 0.3464(9) 0.4588(4)
C158 C 0.6086(4) 0.4442(4) 0.9181(2)
H98 H 0.6162 0.4529 0.8916
H99 H 0.5630 0.4105 0.9207
H100 H 0.6434 0.4270 0.9289
C159 C 0.5484(4) 0.5515(4) 0.9222(2)
H101 H 0.5561 0.5617 0.8959
H102 H 0.5497 0.5926 0.9358
H103 H 0.5035 0.5164 0.9243
C160 C 0.5997(4) 0.5031(4) 0.9901(2)
H104 H 0.6023 0.5446 1.0038
H105 H 0.6346 0.4857 1.0007
H106 H 0.5542 0.4690 0.9923
P2 P 0.61431(9) 0.52167(9) 0.94184(5)
C161 C 0.6982(3) 0.5897(4) 0.9354(2)
H107 H 0.7026 0.5977 0.9083
H108 H 0.6969 0.6320 0.9471
C162 C 0.7631(4) 0.5774(4) 0.9509(2)
C163 C 0.7973(5) 0.5426(5) 0.9278(3)
C164 C 0.8585(7) 0.5360(10) 0.9426(3)
H109 H 0.8839 0.5163 0.9279
C165 C 0.8822(9) 0.5591(11) 0.9798(6)
C166 C 0.8468(7) 0.5878(8) 1.0021(4)
H110 H 0.8625 0.5995 1.0274
C167 C 0.7875(4) 0.5999(6) 0.9880(3)
C168 C 0.7557(5) 0.6369(5) 1.0132(3)
C169 C 0.7723(5) 0.5169(6) 0.8877(3)
C170 C 0.9500(11) 0.5483(15) 0.9950(5)
C171 C 0.3139(10) 0.7265(10) 0.7755(5)
H111 H 0.3633 0.7516 0.7763
H112 H 0.3029 0.6881 0.7579
H113 H 0.3006 0.7098 0.8004
C172 C 0.2896(9) 0.8079(9) 0.7149(4)
H114 H 0.3390 0.8317 0.7141
H115 H 0.2651 0.8387 0.7074
H116 H 0.2758 0.7685 0.6977
C173 C 0.2865(9) 0.8510(8) 0.7920(5)
H117 H 0.3359 0.8758 0.7941
H118 H 0.2703 0.8354 0.8167
H119 H 0.2627 0.8810 0.7823
P3 P 0.2693(2) 0.78031(18) 0.76131(13)
C174 C 0.1757(2) 0.7349(3) 0.75932(14)
H120 H 0.1530 0.7629 0.7456
H121 H 0.1656 0.6920 0.7449
C175 C 0.1446(3) 0.7187(3) 0.79694(18)
C176 C 0.1373(5) 0.6553(3) 0.8128(3)
C177 C 0.1119(6) 0.6380(5) 0.8492(3)
H122 H 0.1108 0.5972 0.8609
C178 C 0.0880(6) 0.6885(6) 0.8669(3)
C179 C 0.0928(5) 0.7480(6) 0.8523(3)
H123 H 0.0785 0.7796 0.8656
C180 C 0.1182(4) 0.7633(4) 0.8179(3)
C181 C 0.1222(5) 0.8343(5) 0.8005(4)
C182 C 0.1566(7) 0.5968(2) 0.7924(4)
C183 C 0.0626(8) 0.6703(9) 0.9121(3)
C184 C 0.9090(5) 0.3295(7) 0.6490(3)
H124 H 0.9425 0.3166 0.6353
H125 H 0.9058 0.3719 0.6393
H126 H 0.8641 0.2936 0.6458
C185 C 0.9398(5) 0.2610(5) 0.7131(3)
H127 H 0.9759 0.2509 0.7003
H128 H 0.8957 0.2254 0.7070
H129 H 0.9500 0.2629 0.7401
C186 C 0.8702(6) 0.3627(6) 0.7204(4)
H130 H 0.8697 0.4066 0.7115
H131 H 0.8794 0.3655 0.7475
H132 H 0.8256 0.3278 0.7142
P4 P 0.93599(12) 0.34093(13) 0.69829(7)
C187 C 1.01879(12) 0.41168(18) 0.70356(17)
H133 H 1.0437 0.4051 0.7266
H134 H 1.0466 0.4095 0.6823
C188 C 1.0132(2) 0.48178(15) 0.7053(2)
C189 C 1.0161(4) 0.5185(2) 0.6723(3)
C190 C 1.0072(5) 0.5834(2) 0.6716(4)
H135 H 1.0050 0.6065 0.6491
C191 C 1.0017(5) 0.61134(14) 0.7083(5)
C192 C 1.0004(5) 0.5787(3) 0.7402(4)
H136 H 0.9943 0.5985 0.7630
C193 C 1.0078(4) 0.5166(3) 0.7397(3)
C194 C 1.0075(6) 0.4788(5) 0.7783(2)
C195 C 1.0288(6) 0.4919(5) 0.6324(2)
C196 C 0.9855(7) 0.68716(19) 0.7073(7)
P5 P 0.44928(10) 0.23169(10) 0.74519(6)
C197 C 0.5216(4) 0.2056(5) 0.7455(3)
H137 H 0.5290 0.1889 0.7702
H138 H 0.5620 0.2441 0.7397
H139 H 0.5139 0.1692 0.7268
C198 C 0.4680(6) 0.2992(5) 0.7805(3)
H140 H 0.4296 0.3162 0.7809
H141 H 0.5097 0.3363 0.7746
H142 H 0.4749 0.2815 0.8050
C199 C 0.3705(5) 0.1643(5) 0.7547(4)
H143 H 0.3616 0.1255 0.7371
H144 H 0.3724 0.1482 0.7805
C200 C 0.4295(6) 0.2622(7) 0.7009(3)
H145 H 0.4640 0.3064 0.6953
H146 H 0.4263 0.2293 0.6804
C201 C 0.3543(8) 0.2695(10) 0.7075(3)
C202 C 0.2814(12) 0.2187(9) 0.7021(5)
C203 C 0.2236(4) 0.2295(4) 0.70975(16)
H147 H 0.1810 0.1935 0.7073
C204 C 0.2263(8) 0.2944(10) 0.7215(5)
C205 C 0.2923(6) 0.3517(6) 0.7281(3)
H148 H 0.2918 0.3948 0.7359
C206 C 0.3535(8) 0.3430(8) 0.7231(5)
C207 C 0.4233(5) 0.4072(5) 0.7219(3)
C208 C 0.2795(5) 0.1487(5) 0.6814(3)
C209 C 0.1566(5) 0.3048(5) 0.7333(3)
O37 O -0.9341(4) -0.0562(4) 1.1616(2)
N13 N -0.9786(5) 0.0233(5) 1.1829(3)
C210 C -0.9769(8) -0.0225(8) 1.1575(5)
H149 H -1.0073 -0.0311 1.1361
C211 C -1.0276(9) 0.0569(9) 1.1768(8)
C212 C -0.9355(8) 0.0290(9) 1.2168(5)
O38 O -0.8378(6) -0.0583(7) 1.2654(3)
C213 C -0.8504(12) -0.0202(12) 1.2959(5)
O39 O -0.0852(4) -0.1590(4) 0.97919(17)
C214 C -0.0903(10) -0.2161(6) 0.9553(4)
O40 O -0.6353(12) -0.8871(11) 1.3255(6)
C215 C -0.6508(13) -0.9330(12) 1.3560(6)
O41 O -0.0118(3) 0.0582(3) 0.96667(16)
O42 O -0.8125(7) -0.1230(9) 1.1247(3)
O43 O -0.1524(8) 0.0852(8) 0.9730(3)
O44 O -0.1600(7) -0.0471(7) 0.9089(3)
O45 O -0.6116(16) -0.8119(18) 1.2676(9)
O46 O -0.430(4) -0.844(4) 1.3579(18)
O47 O -0.480(3) -0.764(2) 1.3723(10)
loop_
_geom_bond_atom_site_label_1
_geom_bond_atom_site_label_2
_geom_bond_site_symmetry_1
_geom_bond_site_symmetry_2
Ga1 O7 1_555 1_555
Ga2 O5 1_555 1_555
Ga3 O19 1_555 1_555
Ga4 O1 1_555 1_555
O1 C2 1_555 1_555
O2 Ga4 1_555 1_555
O3 C7 1_555 1_555
O4 C18 1_555 1_555
O5 C24 1_555 1_555
O6 Ga2 1_555 1_555
N1 H1 1_555 1_555
N2 H2 1_555 1_555
C1 O2 1_555 1_555
C2 C1 1_555 1_555
C3 C2 1_555 1_555
H3 C3 1_555 1_555
C4 C3 1_555 1_555
H4 C4 1_555 1_555
C5 C4 1_555 1_555
H5 C5 1_555 1_555
C6 C1 1_555 1_555
C7 N1 1_555 1_555
C8 N1 1_555 1_555
C9 C8 1_555 1_555
H6 C9 1_555 1_555
C10 C9 1_555 1_555
H7 C10 1_555 1_555
C11 C10 1_555 1_555
H8 C11 1_555 1_555
C12 C11 1_555 1_555
C13 C8 1_555 1_555
C14 C13 1_555 1_555
H9 C14 1_555 1_555
C15 C14 1_555 1_555
H10 C15 1_555 1_555
C16 C15 1_555 1_555
H11 C16 1_555 1_555
C17 N2 1_555 1_555
C18 N2 1_555 1_555
C19 C18 1_555 1_555
C20 C19 1_555 1_555
H12 C20 1_555 1_555
C21 C20 1_555 1_555
H13 C21 1_555 1_555
C22 C21 1_555 1_555
H14 C22 1_555 1_555
C23 O6 1_555 1_555
C24 C19 1_555 1_555
O7 C26 1_555 1_555
O8 Ga1 1_555 1_555
O9 C31 1_555 1_555
O10 C42 1_555 1_555
O11 Ga4 1_555 1_555
O12 Ga4 1_555 1_555
N3 H15 1_555 1_555
N4 H16 1_555 1_555
C25 O8 1_555 1_555
C26 C25 1_555 1_555
C27 C26 1_555 1_555
H17 C27 1_555 1_555
C28 C27 1_555 1_555
H18 C28 1_555 1_555
C29 C28 1_555 1_555
H19 C29 1_555 1_555
C30 C25 1_555 1_555
C31 N3 1_555 1_555
C32 N3 1_555 1_555
C33 C32 1_555 1_555
H20 C33 1_555 1_555
C34 C33 1_555 1_555
H21 C34 1_555 1_555
C35 C34 1_555 1_555
H22 C35 1_555 1_555
C36 C35 1_555 1_555
C37 C32 1_555 1_555
C38 C37 1_555 1_555
H23 C38 1_555 1_555
C39 C38 1_555 1_555
H24 C39 1_555 1_555
C40 C39 1_555 1_555
H25 C40 1_555 1_555
C41 N4 1_555 1_555
C42 N4 1_555 1_555
C43 C42 1_555 1_555
C44 C43 1_555 1_555
H26 C44 1_555 1_555
C45 C44 1_555 1_555
H27 C45 1_555 1_555
C46 C45 1_555 1_555
H28 C46 1_555 1_555
C47 O12 1_555 1_555
C48 O11 1_555 1_555
O13 Ga2 1_555 1_555
O14 Ga2 1_555 1_555
O15 C55 1_555 1_555
O16 C66 1_555 1_555
O17 Ga1 1_555 1_555
O18 Ga1 1_555 1_555
N5 H29 1_555 1_555
N6 H30 1_555 1_555
C49 O14 1_555 1_555
C50 O13 1_555 1_555
C51 C50 1_555 1_555
H31 C51 1_555 1_555
C52 C51 1_555 1_555
H32 C52 1_555 1_555
C53 C52 1_555 1_555
H33 C53 1_555 1_555
C54 C49 1_555 1_555
C55 N5 1_555 1_555
C56 N5 1_555 1_555
C57 C56 1_555 1_555
H34 C57 1_555 1_555
C58 C57 1_555 1_555
H35 C58 1_555 1_555
C59 C58 1_555 1_555
H36 C59 1_555 1_555
C60 C59 1_555 1_555
C61 C56 1_555 1_555
C62 C61 1_555 1_555
H37 C62 1_555 1_555
C63 C62 1_555 1_555
H38 C63 1_555 1_555
C64 C63 1_555 1_555
H39 C64 1_555 1_555
C65 N6 1_555 1_555
C66 N6 1_555 1_555
C67 C66 1_555 1_555
C68 C67 1_555 1_555
H40 C68 1_555 1_555
C69 C68 1_555 1_555
H41 C69 1_555 1_555
C70 C69 1_555 1_555
H42 C70 1_555 1_555
C71 O18 1_555 1_555
C72 O17 1_555 1_555
O19 C74 1_555 1_555
O20 Ga3 1_555 1_555
O21 C79 1_555 1_555
O22 C90 1_555 1_555
O23 Ga1 1_555 1_555
O24 Ga1 1_555 1_555
N7 H43 1_555 1_555
N8 H44 1_555 1_555
C73 O20 1_555 1_555
C74 C73 1_555 1_555
C75 C74 1_555 1_555
H45 C75 1_555 1_555
C76 C75 1_555 1_555
H46 C76 1_555 1_555
C77 C76 1_555 1_555
H47 C77 1_555 1_555
C78 C73 1_555 1_555
C79 N7 1_555 1_555
C80 N7 1_555 1_555
C81 C80 1_555 1_555
H48 C81 1_555 1_555
C82 C81 1_555 1_555
H49 C82 1_555 1_555
C83 C82 1_555 1_555
H50 C83 1_555 1_555
C84 C83 1_555 1_555
C85 C80 1_555 1_555
C86 C85 1_555 1_555
H51 C86 1_555 1_555
C87 C86 1_555 1_555
H52 C87 1_555 1_555
C88 C87 1_555 1_555
H53 C88 1_555 1_555
C89 N8 1_555 1_555
C90 N8 1_555 1_555
C91 C90 1_555 1_555
C92 C91 1_555 1_555
H54 C92 1_555 1_555
C93 C92 1_555 1_555
H55 C93 1_555 1_555
C94 C93 1_555 1_555
H56 C94 1_555 1_555
C95 O24 1_555 1_555
C96 O23 1_555 1_555
O25 Ga3 1_555 1_555
O26 Ga3 1_555 1_555
O27 C103 1_555 1_555
O28 C114 1_555 1_555
O29 Ga4 1_555 1_555
O30 Ga4 1_555 1_555
N9 H57 1_555 1_555
N10 H58 1_555 1_555
C97 O26 1_555 1_555
C98 O25 1_555 1_555
C99 C98 1_555 1_555
H59 C99 1_555 1_555
C100 C99 1_555 1_555
H60 C100 1_555 1_555
C101 C100 1_555 1_555
H61 C101 1_555 1_555
C102 C97 1_555 1_555
C103 N9 1_555 1_555
C104 N9 1_555 1_555
C105 C104 1_555 1_555
H62 C105 1_555 1_555
C106 C105 1_555 1_555
H63 C106 1_555 1_555
C107 C106 1_555 1_555
H64 C107 1_555 1_555
C108 C107 1_555 1_555
C109 C104 1_555 1_555
C110 C109 1_555 1_555
H65 C110 1_555 1_555
C111 C110 1_555 1_555
H66 C111 1_555 1_555
C112 C111 1_555 1_555
H67 C112 1_555 1_555
C113 N10 1_555 1_555
C114 N10 1_555 1_555
C115 C114 1_555 1_555
C116 C115 1_555 1_555
H68 C116 1_555 1_555
C117 C116 1_555 1_555
H69 C117 1_555 1_555
C118 C117 1_555 1_555
H70 C118 1_555 1_555
C119 O30 1_555 1_555
C120 O29 1_555 1_555
O31 Ga3 1_555 1_555
O32 Ga3 1_555 1_555
O33 C127 1_555 1_555
O34 C138 1_555 1_555
O35 Ga2 1_555 1_555
O36 Ga2 1_555 1_555
N11 H71 1_555 1_555
N12 H72 1_555 1_555
C121 O32 1_555 1_555
C122 O31 1_555 1_555
C123 C122 1_555 1_555
H73 C123 1_555 1_555
C124 C123 1_555 1_555
H74 C124 1_555 1_555
C125 C124 1_555 1_555
H75 C125 1_555 1_555
C126 C121 1_555 1_555
C127 N11 1_555 1_555
C128 N11 1_555 1_555
C129 C128 1_555 1_555
H76 C129 1_555 1_555
C130 C129 1_555 1_555
H77 C130 1_555 1_555
C131 C130 1_555 1_555
H78 C131 1_555 1_555
C132 C131 1_555 1_555
C133 C128 1_555 1_555
C134 C133 1_555 1_555
H79 C134 1_555 1_555
C135 C134 1_555 1_555
H80 C135 1_555 1_555
C136 C135 1_555 1_555
H81 C136 1_555 1_555
C137 N12 1_555 1_555
C138 N12 1_555 1_555
C139 C138 1_555 1_555
C140 C139 1_555 1_555
H82 C140 1_555 1_555
C141 C140 1_555 1_555
H83 C141 1_555 1_555
C142 C141 1_555 1_555
H84 C142 1_555 1_555
C143 O36 1_555 1_555
C144 O35 1_555 1_555
C145 H85 1_555 1_555
H86 C145 1_555 1_555
H87 C145 1_555 1_555
C146 H88 1_555 1_555
H89 C146 1_555 1_555
H90 C146 1_555 1_555
C147 H91 1_555 1_555
H92 C147 1_555 1_555
H93 C147 1_555 1_555
P1 C145 1_555 1_555
C148 P1 1_555 1_555
H94 C148 1_555 1_555
H95 C148 1_555 1_555
C149 C148 1_555 1_555
C150 C149 1_555 1_555
C151 C150 1_555 1_555
H96 C151 1_555 1_555
C152 C151 1_555 1_555
C153 C152 1_555 1_555
H97 C153 1_555 1_555
C154 C149 1_555 1_555
C155 C154 1_555 1_555
C156 C150 1_555 1_555
C157 C152 1_555 1_555
C158 H98 1_555 1_555
H99 C158 1_555 1_555
H100 C158 1_555 1_555
C159 H101 1_555 1_555
H102 C159 1_555 1_555
H103 C159 1_555 1_555
C160 H104 1_555 1_555
H105 C160 1_555 1_555
H106 C160 1_555 1_555
P2 C158 1_555 1_555
C161 P2 1_555 1_555
H107 C161 1_555 1_555
H108 C161 1_555 1_555
C162 C161 1_555 1_555
C163 C162 1_555 1_555
C164 C163 1_555 1_555
H109 C164 1_555 1_555
C165 C164 1_555 1_555
C166 C165 1_555 1_555
H110 C166 1_555 1_555
C167 C162 1_555 1_555
C168 C167 1_555 1_555
C169 C163 1_555 1_555
C170 C165 1_555 1_555
C171 H111 1_555 1_555
H112 C171 1_555 1_555
H113 C171 1_555 1_555
C172 H114 1_555 1_555
H115 C172 1_555 1_555
H116 C172 1_555 1_555
C173 H117 1_555 1_555
H118 C173 1_555 1_555
H119 C173 1_555 1_555
P3 C171 1_555 1_555
C174 P3 1_555 1_555
H120 C174 1_555 1_555
H121 C174 1_555 1_555
C175 C174 1_555 1_555
C176 C175 1_555 1_555
C177 C176 1_555 1_555
H122 C177 1_555 1_555
C178 C177 1_555 1_555
C179 C178 1_555 1_555
H123 C179 1_555 1_555
C180 C175 1_555 1_555
C181 C180 1_555 1_555
C182 C176 1_555 1_555
C183 C178 1_555 1_555
C184 H124 1_555 1_555
H125 C184 1_555 1_555
H126 C184 1_555 1_555
C185 H127 1_555 1_555
H128 C185 1_555 1_555
H129 C185 1_555 1_555
C186 H130 1_555 1_555
H131 C186 1_555 1_555
H132 C186 1_555 1_555
P4 C184 1_555 1_555
C187 P4 1_555 1_555
H133 C187 1_555 1_555
H134 C187 1_555 1_555
C188 C187 1_555 1_555
C189 C188 1_555 1_555
C190 C189 1_555 1_555
H135 C190 1_555 1_555
C191 C190 1_555 1_555
C192 C191 1_555 1_555
H136 C192 1_555 1_555
C193 C188 1_555 1_555
C194 C193 1_555 1_555
C195 C189 1_555 1_555
C196 C191 1_555 1_555
P5 C197 1_555 1_555
C197 H137 1_555 1_555
H138 C197 1_555 1_555
H139 C197 1_555 1_555
C198 P5 1_555 1_555
H140 C198 1_555 1_555
H141 C198 1_555 1_555
H142 C198 1_555 1_555
C199 P5 1_555 1_555
H143 C199 1_555 1_555
H144 C199 1_555 1_555
C200 P5 1_555 1_555
H145 C200 1_555 1_555
H146 C200 1_555 1_555
C201 C200 1_555 1_555
C202 C201 1_555 1_555
C203 C202 1_555 1_555
H147 C203 1_555 1_555
C204 C203 1_555 1_555
C205 C204 1_555 1_555
H148 C205 1_555 1_555
C206 C201 1_555 1_555
C207 C206 1_555 1_555
C208 C202 1_555 1_555
C209 C204 1_555 1_555
O37 C210 1_555 1_555
N13 C210 1_555 1_555
C210 H149 1_555 1_555
C211 N13 1_555 1_555
C212 N13 1_555 1_555
O38 C213 1_555 1_555
O39 C214 1_555 1_555
O40 C215 1_555 1_555
C5 C6 1_555 1_555
C6 C7 1_555 1_555
C12 C17 1_555 1_555
C12 C13 1_555 1_555
C16 C17 1_555 1_555
C22 C23 1_555 1_555
C23 C24 1_555 1_555
C29 C30 1_555 1_555
C30 C31 1_555 1_555
C36 C41 1_555 1_555
C36 C37 1_555 1_555
C40 C41 1_555 1_555
C43 C48 1_555 1_555
C46 C47 1_555 1_555
C47 C48 1_555 1_555
C49 C50 1_555 1_555
C53 C54 1_555 1_555
C54 C55 1_555 1_555
C60 C65 1_555 1_555
C60 C61 1_555 1_555
C64 C65 1_555 1_555
C67 C72 1_555 1_555
C70 C71 1_555 1_555
C71 C72 1_555 1_555
C77 C78 1_555 1_555
C78 C79 1_555 1_555
C84 C85 1_555 1_555
C84 C89 1_555 1_555
C88 C89 1_555 1_555
C91 C96 1_555 1_555
C94 C95 1_555 1_555
C95 C96 1_555 1_555
C97 C98 1_555 1_555
C101 C102 1_555 1_555
C102 C103 1_555 1_555
C108 C113 1_555 1_555
C108 C109 1_555 1_555
C112 C113 1_555 1_555
C115 C120 1_555 1_555
C118 C119 1_555 1_555
C119 C120 1_555 1_555
C121 C122 1_555 1_555
C125 C126 1_555 1_555
C126 C127 1_555 1_555
C132 C133 1_555 1_555
C132 C137 1_555 1_555
C136 C137 1_555 1_555
C139 C144 1_555 1_555
C142 C143 1_555 1_555
C143 C144 1_555 1_555
C146 P1 1_555 1_555
C147 P1 1_555 1_555
C153 C154 1_555 1_555
C159 P2 1_555 1_555
C160 P2 1_555 1_555
C166 C167 1_555 1_555
C172 P3 1_555 1_555
C173 P3 1_555 1_555
C179 C180 1_555 1_555
C185 P4 1_555 1_555
C186 P4 1_555 1_555
C192 C193 1_555 1_555
C205 C206 1_555 1_555

#END
