# generated using pymatgen
data_K3Ga4P5H151C221N13O47
_symmetry_space_group_name_H-M   'P 1'
_cell_length_a   20.38000000
_cell_length_b   20.55600000
_cell_length_c   35.19200000
_cell_angle_alpha   90.28000000
_cell_angle_beta   92.80000000
_cell_angle_gamma   109.91000000
_symmetry_Int_Tables_number   1
_chemical_formula_structural   K3Ga4P5H151C221N13O47
_chemical_formula_sum   'K6 Ga8 P10 H302 C442 N26 O94'
_cell_volume   13841.63406120
_cell_formula_units_Z   2
loop_
 _symmetry_equiv_pos_site_id
 _symmetry_equiv_pos_as_xyz
  1  'x, y, z'
loop_
 _atom_site_type_symbol
 _atom_site_label
 _atom_site_symmetry_multiplicity
 _atom_site_fract_x
 _atom_site_fract_y
 _atom_site_fract_z
 _atom_site_occupancy
  K  K1  1  0.871930  0.956850  0.983330  1
  K  K2  1  0.128070  0.043150  0.016670  1
  K  K3  1  0.500510  0.193660  0.302190  1
  K  K4  1  0.499490  0.806340  0.697810  1
  K  K5  1  0.130760  0.865340  0.199070  1
  K  K6  1  0.869240  0.134660  0.800930  1
  Ga  Ga7  1  0.815160  0.855850  0.069790  1
  Ga  Ga8  1  0.184840  0.144150  0.930210  1
  Ga  Ga9  1  0.535240  0.364100  0.284850  1
  Ga  Ga10  1  0.464760  0.635900  0.715150  1
  Ga  Ga11  1  0.282840  0.834540  0.243100  1
  Ga  Ga12  1  0.717160  0.165460  0.756900  1
  Ga  Ga13  1  0.864120  0.961200  0.426100  1
  Ga  Ga14  1  0.135880  0.038800  0.573900  1
  P  P15  1  0.530600  0.362710  0.510160  1
  P  P16  1  0.469400  0.637290  0.489840  1
  P  P17  1  0.614310  0.521670  0.941840  1
  P  P18  1  0.385690  0.478330  0.058160  1
  P  P19  1  0.269300  0.780310  0.761310  1
  P  P20  1  0.730700  0.219690  0.238690  1
  P  P21  1  0.935990  0.340930  0.698290  1
  P  P22  1  0.064010  0.659070  0.301710  1
  P  P23  1  0.449280  0.231690  0.745190  1
  P  P24  1  0.550720  0.768310  0.254810  1
  H  H25  1  0.850000  0.784700  0.385200  1
  H  H26  1  0.150000  0.215300  0.614800  1
  H  H27  1  0.571600  0.515300  0.351000  1
  H  H28  1  0.428400  0.484700  0.649000  1
  H  H29  1  0.097300  0.021600  0.414900  1
  H  H30  1  0.902700  0.978400  0.585100  1
  H  H31  1  0.142200  0.941500  0.389500  1
  H  H32  1  0.857800  0.058500  0.610500  1
  H  H33  1  0.070100  0.830900  0.373300  1
  H  H34  1  0.929900  0.169100  0.626700  1
  H  H35  1  0.877800  0.633800  0.358100  1
  H  H36  1  0.122200  0.366200  0.641900  1
  H  H37  1  0.791000  0.527100  0.347200  1
  H  H38  1  0.209000  0.472900  0.652800  1
  H  H39  1  0.678200  0.513300  0.356500  1
  H  H40  1  0.321800  0.486700  0.643500  1
  H  H41  1  0.755800  0.776900  0.395200  1
  H  H42  1  0.244200  0.223100  0.604800  1
  H  H43  1  0.642400  0.761500  0.403900  1
  H  H44  1  0.357600  0.238500  0.596100  1
  H  H45  1  0.554800  0.653000  0.392100  1
  H  H46  1  0.445200  0.347000  0.607900  1
  H  H47  1  0.420800  0.415400  0.431400  1
  H  H48  1  0.579200  0.584600  0.568600  1
  H  H49  1  0.355700  0.302200  0.418200  1
  H  H50  1  0.644300  0.697800  0.581800  1
  H  H51  1  0.364700  0.250300  0.361700  1
  H  H52  1  0.635300  0.749700  0.638300  1
  H  H53  1  0.886200  0.842000  0.171300  1
  H  H54  1  0.113800  0.158000  0.828700  1
  H  H55  1  0.848400  0.997800  0.324100  1
  H  H56  1  0.151600  0.002200  0.675900  1
  H  H57  1  0.950900  0.739200  0.032100  1
  H  H58  1  0.049100  0.260800  0.967900  1
  H  H59  1  0.016200  0.700000  0.077300  1
  H  H60  1  0.983800  0.300000  0.922700  1
  H  H61  1  0.018200  0.731800  0.140100  1
  H  H62  1  0.981800  0.268200  0.859900  1
  H  H63  1  0.990300  0.834300  0.251300  1
  H  H64  1  0.009700  0.165700  0.748700  1
  H  H65  1  0.994600  0.887400  0.308400  1
  H  H66  1  0.005400  0.112600  0.691600  1
  H  H67  1  0.928800  0.956200  0.318400  1
  H  H68  1  0.071200  0.043800  0.681600  1
  H  H69  1  0.828600  0.898100  0.175200  1
  H  H70  1  0.171400  0.101900  0.824800  1
  H  H71  1  0.764700  0.967200  0.185000  1
  H  H72  1  0.235300  0.032800  0.815000  1
  H  H73  1  0.769900  0.023800  0.242500  1
  H  H74  1  0.230100  0.976200  0.757500  1
  H  H75  1  0.859300  0.207900  0.337800  1
  H  H76  1  0.140700  0.792100  0.662200  1
  H  H77  1  0.875600  0.249800  0.400900  1
  H  H78  1  0.124400  0.750200  0.599100  1
  H  H79  1  0.876800  0.179000  0.450000  1
  H  H80  1  0.123200  0.821000  0.550000  1
  H  H81  1  0.687500  0.484600  0.232100  1
  H  H82  1  0.312500  0.515400  0.767900  1
  H  H83  1  0.680800  0.694600  0.097500  1
  H  H84  1  0.319200  0.305400  0.902500  1
  H  H85  1  0.697700  0.306900  0.354400  1
  H  H86  1  0.302300  0.693100  0.645600  1
  H  H87  1  0.813900  0.362200  0.345000  1
  H  H88  1  0.186100  0.637800  0.655000  1
  H  H89  1  0.847300  0.441800  0.297700  1
  H  H90  1  0.152700  0.558200  0.702300  1
  H  H91  1  0.844500  0.568200  0.191400  1
  H  H92  1  0.155500  0.431800  0.808600  1
  H  H93  1  0.859800  0.641400  0.141600  1
  H  H94  1  0.140200  0.358600  0.858400  1
  H  H95  1  0.767800  0.659400  0.110200  1
  H  H96  1  0.232200  0.340600  0.889800  1
  H  H97  1  0.605100  0.501600  0.210500  1
  H  H98  1  0.394900  0.498400  0.789500  1
  H  H99  1  0.514200  0.525100  0.181300  1
  H  H100  1  0.485800  0.474900  0.818700  1
  H  H101  1  0.531300  0.596100  0.128100  1
  H  H102  1  0.468700  0.403900  0.871900  1
  H  H103  1  0.555200  0.657900  0.992500  1
  H  H104  1  0.444800  0.342100  0.007500  1
  H  H105  1  0.596000  0.733400  0.946700  1
  H  H106  1  0.404000  0.266600  0.053300  1
  H  H107  1  0.693600  0.829800  0.956900  1
  H  H108  1  0.306400  0.170200  0.043100  1
  H  H109  1  0.384100  0.785300  0.169200  1
  H  H110  1  0.615900  0.214700  0.830800  1
  H  H111  1  0.701400  0.934300  0.117600  1
  H  H112  1  0.298600  0.065700  0.882400  1
  H  H113  1  0.089200  0.690100  0.185100  1
  H  H114  1  0.910800  0.309900  0.814900  1
  H  H115  1  0.094900  0.629400  0.132100  1
  H  H116  1  0.905100  0.370600  0.867900  1
  H  H117  1  0.202600  0.643100  0.106200  1
  H  H118  1  0.797400  0.356900  0.893800  1
  H  H119  1  0.447300  0.699900  0.107200  1
  H  H120  1  0.552700  0.300100  0.892800  1
  H  H121  1  0.560400  0.738300  0.083500  1
  H  H122  1  0.439600  0.261700  0.916500  1
  H  H123  1  0.637200  0.848500  0.097100  1
  H  H124  1  0.362800  0.151500  0.902900  1
  H  H125  1  0.437600  0.889500  0.175600  1
  H  H126  1  0.562400  0.110500  0.824400  1
  H  H127  1  0.515900  0.993300  0.193500  1
  H  H128  1  0.484100  0.006700  0.806500  1
  H  H129  1  0.626700  0.030100  0.171200  1
  H  H130  1  0.373300  0.969900  0.828800  1
  H  H131  1  0.834500  0.146100  0.109300  1
  H  H132  1  0.165500  0.853900  0.890700  1
  H  H133  1  0.938500  0.164400  0.082200  1
  H  H134  1  0.061500  0.835600  0.917800  1
  H  H135  1  0.964400  0.073200  0.059000  1
  H  H136  1  0.035600  0.926800  0.941000  1
  H  H137  1  0.468800  0.941500  0.276200  1
  H  H138  1  0.531200  0.058500  0.723800  1
  H  H139  1  0.667400  0.899100  0.415600  1
  H  H140  1  0.332600  0.100900  0.584400  1
  H  H141  1  0.275600  0.020200  0.180100  1
  H  H142  1  0.724400  0.979800  0.819900  1
  H  H143  1  0.372900  0.122700  0.186100  1
  H  H144  1  0.627100  0.877300  0.813900  1
  H  H145  1  0.469800  0.124800  0.220100  1
  H  H146  1  0.530200  0.875200  0.779900  1
  H  H147  1  0.637200  0.042900  0.283300  1
  H  H148  1  0.362800  0.957100  0.716700  1
  H  H149  1  0.722000  0.038300  0.325800  1
  H  H150  1  0.278000  0.961700  0.674200  1
  H  H151  1  0.697600  0.966200  0.376200  1
  H  H152  1  0.302400  0.033800  0.623800  1
  H  H153  1  0.431400  0.890900  0.326600  1
  H  H154  1  0.568600  0.109100  0.673400  1
  H  H155  1  0.405300  0.819600  0.376800  1
  H  H156  1  0.594700  0.180400  0.623200  1
  H  H157  1  0.491100  0.811100  0.419900  1
  H  H158  1  0.508900  0.188900  0.580100  1
  H  H159  1  0.632700  0.808600  0.525600  1
  H  H160  1  0.367300  0.191400  0.474400  1
  H  H161  1  0.728700  0.822600  0.564900  1
  H  H162  1  0.271300  0.177400  0.435100  1
  H  H163  1  0.840200  0.871400  0.544200  1
  H  H164  1  0.159800  0.128600  0.455800  1
  H  H165  1  0.326800  0.697700  0.298400  1
  H  H166  1  0.673200  0.302300  0.701600  1
  H  H167  1  0.426100  0.454200  0.235000  1
  H  H168  1  0.573900  0.545800  0.765000  1
  H  H169  1  0.205200  0.888700  0.351800  1
  H  H170  1  0.794800  0.111300  0.648200  1
  H  H171  1  0.217400  0.830900  0.407800  1
  H  H172  1  0.782600  0.169100  0.592200  1
  H  H173  1  0.263200  0.744200  0.405900  1
  H  H174  1  0.736800  0.255800  0.594100  1
  H  H175  1  0.388700  0.607600  0.361900  1
  H  H176  1  0.611300  0.392400  0.638100  1
  H  H177  1  0.418300  0.512800  0.349300  1
  H  H178  1  0.581700  0.487200  0.650700  1
  H  H179  1  0.421300  0.475600  0.287300  1
  H  H180  1  0.578700  0.524400  0.712700  1
  H  H181  1  0.305800  0.658800  0.246000  1
  H  H182  1  0.694200  0.341200  0.754000  1
  H  H183  1  0.310000  0.624800  0.184700  1
  H  H184  1  0.690000  0.375200  0.815300  1
  H  H185  1  0.347800  0.532300  0.171000  1
  H  H186  1  0.652200  0.467700  0.829000  1
  H  H187  1  0.377800  0.328700  0.133700  1
  H  H188  1  0.622200  0.671300  0.866300  1
  H  H189  1  0.420600  0.240400  0.131000  1
  H  H190  1  0.579400  0.759600  0.869000  1
  H  H191  1  0.488100  0.221600  0.181800  1
  H  H192  1  0.511900  0.778400  0.818200  1
  H  H193  1  0.554100  0.459200  0.472300  1
  H  H194  1  0.445900  0.540800  0.527700  1
  H  H195  1  0.620600  0.464400  0.498200  1
  H  H196  1  0.379400  0.535600  0.501800  1
  H  H197  1  0.558700  0.481800  0.515200  1
  H  H198  1  0.441300  0.518200  0.484800  1
  H  H199  1  0.421100  0.349500  0.486800  1
  H  H200  1  0.578900  0.650500  0.513200  1
  H  H201  1  0.432000  0.378200  0.528900  1
  H  H202  1  0.568000  0.621800  0.471100  1
  H  H203  1  0.418200  0.299500  0.520700  1
  H  H204  1  0.581800  0.700500  0.479300  1
  H  H205  1  0.613200  0.363900  0.557000  1
  H  H206  1  0.386800  0.636100  0.443000  1
  H  H207  1  0.541000  0.308700  0.565700  1
  H  H208  1  0.459000  0.691300  0.434300  1
  H  H209  1  0.554900  0.387400  0.573900  1
  H  H210  1  0.445100  0.612600  0.426100  1
  H  H211  1  0.521400  0.256000  0.485300  1
  H  H212  1  0.478600  0.744000  0.514700  1
  H  H213  1  0.523200  0.307200  0.452300  1
  H  H214  1  0.476800  0.692800  0.547700  1
  H  H215  1  0.752200  0.396800  0.421000  1
  H  H216  1  0.247800  0.603200  0.579000  1
  H  H217  1  0.748300  0.264400  0.503600  1
  H  H218  1  0.251700  0.735600  0.496400  1
  H  H219  1  0.616200  0.452900  0.891600  1
  H  H220  1  0.383800  0.547100  0.108400  1
  H  H221  1  0.563000  0.410500  0.920700  1
  H  H222  1  0.437000  0.589500  0.079300  1
  H  H223  1  0.643400  0.427000  0.928900  1
  H  H224  1  0.356600  0.573000  0.071100  1
  H  H225  1  0.556100  0.561700  0.895900  1
  H  H226  1  0.443900  0.438300  0.104100  1
  H  H227  1  0.549700  0.592600  0.935800  1
  H  H228  1  0.450300  0.407400  0.064200  1
  H  H229  1  0.503500  0.516400  0.924300  1
  H  H230  1  0.496500  0.483600  0.075700  1
  H  H231  1  0.602300  0.544600  0.003800  1
  H  H232  1  0.397700  0.455400  0.996200  1
  H  H233  1  0.634600  0.485700  0.000700  1
  H  H234  1  0.365400  0.514300  0.999300  1
  H  H235  1  0.554200  0.469000  0.992300  1
  H  H236  1  0.445800  0.531000  0.007700  1
  H  H237  1  0.702600  0.597700  0.908300  1
  H  H238  1  0.297400  0.402300  0.091700  1
  H  H239  1  0.696900  0.632000  0.947100  1
  H  H240  1  0.303100  0.368000  0.052900  1
  H  H241  1  0.883900  0.516300  0.927900  1
  H  H242  1  0.116100  0.483700  0.072100  1
  H  H243  1  0.862500  0.599500  0.027400  1
  H  H244  1  0.137500  0.400500  0.972600  1
  H  H245  1  0.363300  0.751600  0.776300  1
  H  H246  1  0.636700  0.248400  0.223700  1
  H  H247  1  0.302900  0.688100  0.757900  1
  H  H248  1  0.697100  0.311900  0.242100  1
  H  H249  1  0.300600  0.709800  0.800400  1
  H  H250  1  0.699400  0.290200  0.199600  1
  H  H251  1  0.339000  0.831700  0.714100  1
  H  H252  1  0.661000  0.168300  0.285900  1
  H  H253  1  0.265100  0.838700  0.707400  1
  H  H254  1  0.734900  0.161300  0.292600  1
  H  H255  1  0.275800  0.768500  0.697700  1
  H  H256  1  0.724200  0.231500  0.302300  1
  H  H257  1  0.335900  0.875800  0.794100  1
  H  H258  1  0.664100  0.124200  0.205900  1
  H  H259  1  0.270300  0.835400  0.816700  1
  H  H260  1  0.729700  0.164600  0.183300  1
  H  H261  1  0.262700  0.881000  0.782300  1
  H  H262  1  0.737300  0.119000  0.217700  1
  H  H263  1  0.153000  0.762900  0.745600  1
  H  H264  1  0.847000  0.237100  0.254400  1
  H  H265  1  0.165600  0.692000  0.744900  1
  H  H266  1  0.834400  0.308000  0.255100  1
  H  H267  1  0.110800  0.597200  0.860900  1
  H  H268  1  0.889200  0.402800  0.139100  1
  H  H269  1  0.078500  0.779600  0.865600  1
  H  H270  1  0.921500  0.220400  0.134400  1
  H  H271  1  0.942500  0.316600  0.635300  1
  H  H272  1  0.057500  0.683400  0.364700  1
  H  H273  1  0.905800  0.371900  0.639300  1
  H  H274  1  0.094200  0.628100  0.360700  1
  H  H275  1  0.864100  0.293600  0.645800  1
  H  H276  1  0.135900  0.706400  0.354200  1
  H  H277  1  0.975900  0.250900  0.700300  1
  H  H278  1  0.024100  0.749100  0.299700  1
  H  H279  1  0.895700  0.225400  0.707000  1
  H  H280  1  0.104300  0.774600  0.293000  1
  H  H281  1  0.950000  0.262900  0.740100  1
  H  H282  1  0.050000  0.737100  0.259900  1
  H  H283  1  0.869700  0.406600  0.711500  1
  H  H284  1  0.130300  0.593400  0.288500  1
  H  H285  1  0.879400  0.365500  0.747500  1
  H  H286  1  0.120600  0.634500  0.252500  1
  H  H287  1  0.825600  0.327800  0.714200  1
  H  H288  1  0.174400  0.672200  0.285800  1
  H  H289  1  0.043700  0.405100  0.726600  1
  H  H290  1  0.956300  0.594900  0.273400  1
  H  H291  1  0.046600  0.409500  0.682300  1
  H  H292  1  0.953400  0.590500  0.317700  1
  H  H293  1  0.005000  0.606500  0.649100  1
  H  H294  1  0.995000  0.393500  0.350900  1
  H  H295  1  0.994300  0.598500  0.763000  1
  H  H296  1  0.005700  0.401500  0.237000  1
  H  H297  1  0.529000  0.188900  0.770200  1
  H  H298  1  0.471000  0.811100  0.229800  1
  H  H299  1  0.562000  0.244100  0.739700  1
  H  H300  1  0.438000  0.755900  0.260300  1
  H  H301  1  0.513900  0.169200  0.726800  1
  H  H302  1  0.486100  0.830800  0.273200  1
  H  H303  1  0.429600  0.316200  0.780900  1
  H  H304  1  0.570400  0.683800  0.219100  1
  H  H305  1  0.509700  0.336300  0.774600  1
  H  H306  1  0.490300  0.663700  0.225400  1
  H  H307  1  0.474900  0.281500  0.805000  1
  H  H308  1  0.525100  0.718500  0.195000  1
  H  H309  1  0.361600  0.125500  0.737100  1
  H  H310  1  0.638400  0.874500  0.262900  1
  H  H311  1  0.372400  0.148200  0.780500  1
  H  H312  1  0.627600  0.851800  0.219500  1
  H  H313  1  0.464000  0.306400  0.695300  1
  H  H314  1  0.536000  0.693600  0.304700  1
  H  H315  1  0.426300  0.229300  0.680400  1
  H  H316  1  0.573700  0.770700  0.319600  1
  H  H317  1  0.181000  0.193500  0.707300  1
  H  H318  1  0.819000  0.806500  0.292700  1
  H  H319  1  0.291800  0.394800  0.735900  1
  H  H320  1  0.708200  0.605200  0.264100  1
  H  H321  1  0.992700  0.968900  0.136100  1
  H  H322  1  0.007300  0.031100  0.863900  1
  H  H323  1  0.200200  0.228100  0.686200  1
  H  H324  1  0.799800  0.771900  0.313800  1
  H  H325  1  0.232100  0.286500  0.796700  1
  H  H326  1  0.767900  0.713500  0.203300  1
  C  C327  1  0.949900  0.893600  0.398060  1
  C  C328  1  0.050100  0.106400  0.601940  1
  C  C329  1  0.995500  0.960100  0.410190  1
  C  C330  1  0.004500  0.039900  0.589810  1
  C  C331  1  0.067300  0.977700  0.407200  1
  C  C332  1  0.932700  0.022300  0.592800  1
  C  C333  1  0.094400  0.929000  0.392400  1
  C  C334  1  0.905600  0.071000  0.607600  1
  C  C335  1  0.051200  0.862900  0.382300  1
  C  C336  1  0.948800  0.137100  0.617700  1
  C  C337  1  0.977600  0.843400  0.385410  1
  C  C338  1  0.022400  0.156600  0.614590  1
  C  C339  1  0.936400  0.771600  0.374860  1
  C  C340  1  0.063600  0.228400  0.625140  1
  C  C341  1  0.815400  0.686000  0.372560  1
  C  C342  1  0.184600  0.314000  0.627440  1
  C  C343  1  0.831500  0.629200  0.361500  1
  C  C344  1  0.168500  0.370800  0.638500  1
  C  C345  1  0.779300  0.564700  0.355200  1
  C  C346  1  0.220700  0.435300  0.644800  1
  C  C347  1  0.712200  0.556700  0.360670  1
  C  C348  1  0.287800  0.443300  0.639330  1
  C  C349  1  0.692300  0.612000  0.372420  1
  C  C350  1  0.307700  0.388000  0.627580  1
  C  C351  1  0.743200  0.679000  0.378690  1
  C  C352  1  0.256800  0.321000  0.621310  1
  C  C353  1  0.722300  0.733400  0.390670  1
  C  C354  1  0.277700  0.266600  0.609330  1
  C  C355  1  0.654600  0.724200  0.395880  1
  C  C356  1  0.345400  0.275800  0.604120  1
  C  C357  1  0.601500  0.658300  0.389260  1
  C  C358  1  0.398500  0.341700  0.610740  1
  C  C359  1  0.620000  0.603100  0.378710  1
  C  C360  1  0.380000  0.396900  0.621290  1
  C  C361  1  0.520700  0.502900  0.395970  1
  C  C362  1  0.479300  0.497100  0.604030  1
  C  C363  1  0.476900  0.432400  0.383860  1
  C  C364  1  0.523100  0.567600  0.616140  1
  C  C365  1  0.426900  0.394400  0.408980  1
  C  C366  1  0.573100  0.605600  0.591020  1
  C  C367  1  0.387200  0.327100  0.400800  1
  C  C368  1  0.612800  0.672900  0.599200  1
  C  C369  1  0.393400  0.295600  0.367200  1
  C  C370  1  0.606600  0.704400  0.632800  1
  C  C371  1  0.441200  0.330300  0.341750  1
  C  C372  1  0.558800  0.669700  0.658250  1
  C  C373  1  0.483500  0.400500  0.350080  1
  C  C374  1  0.516500  0.599500  0.649920  1
  C  C375  1  0.903200  0.797400  0.107940  1
  C  C376  1  0.096800  0.202600  0.892060  1
  C  C377  1  0.906200  0.782300  0.069910  1
  C  C378  1  0.093800  0.217700  0.930090  1
  C  C379  1  0.948900  0.747900  0.057900  1
  C  C380  1  0.051100  0.252100  0.942100  1
  C  C381  1  0.989600  0.726200  0.084800  1
  C  C382  1  0.010400  0.273800  0.915200  1
  C  C383  1  0.989400  0.744300  0.122480  1
  C  C384  1  0.010600  0.255700  0.877520  1
  C  C385  1  0.948100  0.780300  0.135140  1
  C  C386  1  0.051900  0.219700  0.864860  1
  C  C387  1  0.955000  0.798800  0.175850  1
  C  C388  1  0.045000  0.201200  0.824150  1
  C  C389  1  0.919500  0.867900  0.223650  1
  C  C390  1  0.080500  0.132100  0.776350  1
  C  C391  1  0.962600  0.861500  0.254300  1
  C  C392  1  0.037400  0.138500  0.745700  1
  C  C393  1  0.965500  0.893700  0.288600  1
  C  C394  1  0.034500  0.106300  0.711400  1
  C  C395  1  0.926500  0.935200  0.294650  1
  C  C396  1  0.073500  0.064800  0.705350  1
  C  C397  1  0.882000  0.946300  0.264020  1
  C  C398  1  0.118000  0.053700  0.735980  1
  C  C399  1  0.878600  0.911000  0.228430  1
  C  C400  1  0.121400  0.089000  0.771570  1
  C  C401  1  0.832400  0.920400  0.198720  1
  C  C402  1  0.167600  0.079600  0.801280  1
  C  C403  1  0.794300  0.961800  0.204790  1
  C  C404  1  0.205700  0.038200  0.795210  1
  C  C405  1  0.797200  0.996300  0.239100  1
  C  C406  1  0.202800  0.003700  0.760900  1
  C  C407  1  0.842300  0.988400  0.268390  1
  C  C408  1  0.157700  0.011600  0.731610  1
  C  C409  1  0.849300  0.087700  0.309600  1
  C  C410  1  0.150700  0.912300  0.690400  1
  C  C411  1  0.854800  0.111100  0.350600  1
  C  C412  1  0.145200  0.888900  0.649400  1
  C  C413  1  0.861000  0.178900  0.357800  1
  C  C414  1  0.139000  0.821100  0.642200  1
  C  C415  1  0.870000  0.203700  0.395800  1
  C  C416  1  0.130000  0.796300  0.604200  1
  C  C417  1  0.870500  0.161200  0.425200  1
  C  C418  1  0.129500  0.838800  0.574800  1
  C  C419  1  0.861800  0.092400  0.419200  1
  C  C420  1  0.138200  0.907600  0.580800  1
  C  C421  1  0.854000  0.066300  0.381300  1
  C  C422  1  0.146000  0.933700  0.618700  1
  C  C423  1  0.678200  0.409200  0.287300  1
  C  C424  1  0.321800  0.590800  0.712700  1
  C  C425  1  0.658100  0.357200  0.314670  1
  C  C426  1  0.341900  0.642800  0.685330  1
  C  C427  1  0.710600  0.340500  0.335940  1
  C  C428  1  0.289400  0.659500  0.664060  1
  C  C429  1  0.780300  0.372900  0.330000  1
  C  C430  1  0.219700  0.627100  0.670000  1
  C  C431  1  0.800200  0.421200  0.302100  1
  C  C432  1  0.199800  0.578800  0.697900  1
  C  C433  1  0.750000  0.439500  0.280340  1
  C  C434  1  0.250000  0.560500  0.719660  1
  C  C435  1  0.777300  0.490700  0.249500  1
  C  C436  1  0.222700  0.509300  0.750500  1
  C  C437  1  0.740900  0.547300  0.195530  1
  C  C438  1  0.259100  0.452700  0.804470  1
  C  C439  1  0.806100  0.577300  0.180500  1
  C  C440  1  0.193900  0.422700  0.819500  1
  C  C441  1  0.815100  0.620000  0.149900  1
  C  C442  1  0.184900  0.380000  0.850100  1
  C  C443  1  0.760300  0.631800  0.131500  1
  C  C444  1  0.239700  0.368200  0.868500  1
  C  C445  1  0.692500  0.602900  0.144250  1
  C  C446  1  0.307500  0.397100  0.855750  1
  C  C447  1  0.681200  0.559100  0.177360  1
  C  C448  1  0.318800  0.440900  0.822640  1
  C  C449  1  0.613100  0.530600  0.189680  1
  C  C450  1  0.386900  0.469400  0.810320  1
  C  C451  1  0.558700  0.544000  0.172130  1
  C  C452  1  0.441300  0.456000  0.827870  1
  C  C453  1  0.568800  0.586600  0.139840  1
  C  C454  1  0.431200  0.413400  0.860160  1
  C  C455  1  0.633600  0.613600  0.126100  1
  C  C456  1  0.366400  0.386400  0.873900  1
  C  C457  1  0.605400  0.649000  0.062010  1
  C  C458  1  0.394600  0.351000  0.937990  1
  C  C459  1  0.632000  0.703100  0.034020  1
  C  C460  1  0.368000  0.296900  0.965980  1
  C  C461  1  0.596000  0.695400  0.997430  1
  C  C462  1  0.404000  0.304600  0.002570  1
  C  C463  1  0.619700  0.740800  0.970500  1
  C  C464  1  0.380300  0.259200  0.029500  1
  C  C465  1  0.678700  0.799000  0.976500  1
  C  C466  1  0.321300  0.201000  0.023500  1
  C  C467  1  0.715500  0.811800  0.011160  1
  C  C468  1  0.284500  0.188200  0.988840  1
  C  C469  1  0.691500  0.762400  0.041010  1
  C  C470  1  0.308500  0.237600  0.958990  1
  C  C471  1  0.258300  0.744800  0.181990  1
  C  C472  1  0.741700  0.255200  0.818010  1
  C  C473  1  0.190600  0.736100  0.196000  1
  C  C474  1  0.809400  0.263900  0.804000  1
  C  C475  1  0.132800  0.694600  0.176400  1
  C  C476  1  0.867200  0.305400  0.823600  1
  C  C477  1  0.136000  0.658900  0.144100  1
  C  C478  1  0.864000  0.341100  0.855900  1
  C  C479  1  0.200400  0.666200  0.128700  1
  C  C480  1  0.799600  0.333800  0.871300  1
  C  C481  1  0.262200  0.710200  0.148700  1
  C  C482  1  0.737800  0.289800  0.851300  1
  C  C483  1  0.329700  0.721300  0.130100  1
  C  C484  1  0.670300  0.278700  0.869900  1
  C  C485  1  0.455000  0.786700  0.134400  1
  C  C486  1  0.545000  0.213300  0.865600  1
  C  C487  1  0.477200  0.744700  0.113000  1
  C  C488  1  0.522800  0.255300  0.887000  1
  C  C489  1  0.546800  0.768200  0.098700  1
  C  C490  1  0.453200  0.231800  0.901300  1
  C  C491  1  0.593100  0.833500  0.107000  1
  C  C492  1  0.406900  0.166500  0.893000  1
  C  C493  1  0.571700  0.878000  0.131260  1
  C  C494  1  0.428300  0.122000  0.868740  1
  C  C495  1  0.503000  0.855200  0.145070  1
  C  C496  1  0.497000  0.144800  0.854930  1
  C  C497  1  0.483000  0.902200  0.167600  1
  C  C498  1  0.517000  0.097800  0.832400  1
  C  C499  1  0.528900  0.964200  0.177400  1
  C  C500  1  0.471100  0.035800  0.822600  1
  C  C501  1  0.596000  0.986300  0.164000  1
  C  C502  1  0.404000  0.013700  0.836000  1
  C  C503  1  0.617900  0.945900  0.140800  1
  C  C504  1  0.382100  0.054100  0.859200  1
  C  C505  1  0.729100  0.032700  0.122400  1
  C  C506  1  0.270900  0.967300  0.877600  1
  C  C507  1  0.796800  0.040000  0.105100  1
  C  C508  1  0.203200  0.960000  0.894900  1
  C  C509  1  0.845500  0.108400  0.100700  1
  C  C510  1  0.154500  0.891600  0.899300  1
  C  C511  1  0.907300  0.119600  0.084300  1
  C  C512  1  0.092700  0.880400  0.915700  1
  C  C513  1  0.922900  0.064900  0.071100  1
  C  C514  1  0.077100  0.935100  0.928900  1
  C  C515  1  0.880300  0.998400  0.074900  1
  C  C516  1  0.119700  0.001600  0.925100  1
  C  C517  1  0.816500  0.983900  0.093400  1
  C  C518  1  0.183500  0.016100  0.906600  1
  C  C519  1  0.380400  0.966300  0.235200  1
  C  C520  1  0.619600  0.033700  0.764800  1
  C  C521  1  0.317700  0.962900  0.212000  1
  C  C522  1  0.682300  0.037100  0.788000  1
  C  C523  1  0.315400  0.021100  0.194500  1
  C  C524  1  0.684600  0.978900  0.805500  1
  C  C525  1  0.374100  0.083000  0.198200  1
  C  C526  1  0.625900  0.917000  0.801800  1
  C  C527  1  0.431100  0.084400  0.219300  1
  C  C528  1  0.568900  0.915600  0.780700  1
  C  C529  1  0.435300  0.027900  0.240000  1
  C  C530  1  0.564700  0.972100  0.760000  1
  C  C531  1  0.497300  0.036500  0.264700  1
  C  C532  1  0.502700  0.963500  0.735300  1
  C  C533  1  0.556300  0.976200  0.307440  1
  C  C534  1  0.443700  0.023800  0.692560  1
  C  C535  1  0.624900  0.013900  0.303900  1
  C  C536  1  0.375100  0.986100  0.696100  1
  C  C537  1  0.676000  0.010700  0.329200  1
  C  C538  1  0.324000  0.989300  0.670800  1
  C  C539  1  0.661600  0.968300  0.359500  1
  C  C540  1  0.338400  0.031700  0.640500  1
  C  C541  1  0.591800  0.927300  0.365420  1
  C  C542  1  0.408200  0.072700  0.634580  1
  C  C543  1  0.537800  0.930400  0.338250  1
  C  C544  1  0.462200  0.069600  0.661750  1
  C  C545  1  0.466900  0.888800  0.343700  1
  C  C546  1  0.533100  0.111200  0.656300  1
  C  C547  1  0.451700  0.846400  0.373600  1
  C  C548  1  0.548300  0.153600  0.626400  1
  C  C549  1  0.503500  0.841600  0.399900  1
  C  C550  1  0.496500  0.158400  0.600100  1
  C  C551  1  0.572700  0.881500  0.396490  1
  C  C552  1  0.427300  0.118500  0.603510  1
  C  C553  1  0.618700  0.846200  0.456880  1
  C  C554  1  0.381300  0.153800  0.543120  1
  C  C555  1  0.683500  0.855000  0.479740  1
  C  C556  1  0.316500  0.145000  0.520260  1
  C  C557  1  0.677000  0.830500  0.516730  1
  C  C558  1  0.323000  0.169500  0.483270  1
  C  C559  1  0.734700  0.838300  0.540090  1
  C  C560  1  0.265300  0.161700  0.459910  1
  C  C561  1  0.801900  0.868800  0.528100  1
  C  C562  1  0.198100  0.131200  0.471900  1
  C  C563  1  0.811600  0.895700  0.491750  1
  C  C564  1  0.188400  0.104300  0.508250  1
  C  C565  1  0.750400  0.886300  0.465400  1
  C  C566  1  0.249600  0.113700  0.534600  1
  C  C567  1  0.279600  0.786600  0.316650  1
  C  C568  1  0.720400  0.213400  0.683350  1
  C  C569  1  0.248800  0.839000  0.318700  1
  C  C570  1  0.751200  0.161000  0.681300  1
  C  C571  1  0.225500  0.854500  0.351300  1
  C  C572  1  0.774500  0.145500  0.648700  1
  C  C573  1  0.231900  0.818900  0.385000  1
  C  C574  1  0.768100  0.181100  0.615000  1
  C  C575  1  0.259300  0.767700  0.383800  1
  C  C576  1  0.740700  0.232300  0.616200  1
  C  C577  1  0.282500  0.749000  0.348820  1
  C  C578  1  0.717500  0.251000  0.651180  1
  C  C579  1  0.311200  0.693000  0.350510  1
  C  C580  1  0.688800  0.307000  0.649490  1
  C  C581  1  0.355200  0.618800  0.310030  1
  C  C582  1  0.644800  0.381200  0.689970  1
  C  C583  1  0.383100  0.590000  0.337100  1
  C  C584  1  0.616900  0.410000  0.662900  1
  C  C585  1  0.403800  0.534900  0.329300  1
  C  C586  1  0.596200  0.465100  0.670700  1
  C  C587  1  0.403900  0.511100  0.292200  1
  C  C588  1  0.596100  0.488900  0.707800  1
  C  C589  1  0.378200  0.540500  0.263270  1
  C  C590  1  0.621800  0.459500  0.736730  1
  C  C591  1  0.352300  0.596500  0.271310  1
  C  C592  1  0.647700  0.403500  0.728690  1
  C  C593  1  0.324900  0.624600  0.241070  1
  C  C594  1  0.675100  0.375400  0.758930  1
  C  C595  1  0.325600  0.603000  0.204500  1
  C  C596  1  0.674400  0.397000  0.795500  1
  C  C597  1  0.349700  0.547600  0.196000  1
  C  C598  1  0.650300  0.452400  0.804000  1
  C  C599  1  0.375200  0.517300  0.223830  1
  C  C600  1  0.624800  0.482700  0.776170  1
  C  C601  1  0.388700  0.423000  0.183500  1
  C  C602  1  0.611300  0.577000  0.816500  1
  C  C603  1  0.421200  0.368300  0.185340  1
  C  C604  1  0.578800  0.631700  0.814660  1
  C  C605  1  0.405900  0.322500  0.154010  1
  C  C606  1  0.594100  0.677500  0.845990  1
  C  C607  1  0.430700  0.269500  0.152400  1
  C  C608  1  0.569300  0.730500  0.847600  1
  C  C609  1  0.471600  0.258500  0.182960  1
  C  C610  1  0.528400  0.741500  0.817040  1
  C  C611  1  0.487900  0.301400  0.214970  1
  C  C612  1  0.512100  0.698600  0.785030  1
  C  C613  1  0.462900  0.358700  0.216120  1
  C  C614  1  0.537100  0.641300  0.783880  1
  C  C615  1  0.570700  0.452600  0.497500  1
  C  C616  1  0.429300  0.547400  0.502500  1
  C  C617  1  0.440200  0.345500  0.511840  1
  C  C618  1  0.559800  0.654500  0.488160  1
  C  C619  1  0.563800  0.354800  0.557110  1
  C  C620  1  0.436200  0.645200  0.442890  1
  C  C621  1  0.544800  0.302600  0.476800  1
  C  C622  1  0.455200  0.697400  0.523200  1
  C  C623  1  0.621000  0.311800  0.471600  1
  C  C624  1  0.379000  0.688200  0.528400  1
  C  C625  1  0.656200  0.353300  0.442900  1
  C  C626  1  0.343800  0.646700  0.557100  1
  C  C627  1  0.727500  0.366000  0.438800  1
  C  C628  1  0.272500  0.634000  0.561200  1
  C  C629  1  0.760800  0.329600  0.463300  1
  C  C630  1  0.239200  0.670400  0.536700  1
  C  C631  1  0.725300  0.287600  0.488400  1
  C  C632  1  0.274700  0.712400  0.511600  1
  C  C633  1  0.655400  0.275500  0.494000  1
  C  C634  1  0.344600  0.724500  0.506000  1
  C  C635  1  0.619000  0.223900  0.523600  1
  C  C636  1  0.381000  0.776100  0.476400  1
  C  C637  1  0.619500  0.388400  0.414200  1
  C  C638  1  0.380500  0.611600  0.585800  1
  C  C639  1  0.842200  0.346400  0.458800  1
  C  C640  1  0.157800  0.653600  0.541200  1
  C  C641  1  0.608600  0.444200  0.918100  1
  C  C642  1  0.391400  0.555800  0.081900  1
  C  C643  1  0.548400  0.551500  0.922200  1
  C  C644  1  0.451600  0.448500  0.077800  1
  C  C645  1  0.599700  0.503100  0.990100  1
  C  C646  1  0.400300  0.496900  0.009900  1
  C  C647  1  0.698200  0.589700  0.935400  1
  C  C648  1  0.301800  0.410300  0.064600  1
  C  C649  1  0.763100  0.577400  0.950900  1
  C  C650  1  0.236900  0.422600  0.049100  1
  C  C651  1  0.797300  0.542600  0.927800  1
  C  C652  1  0.202700  0.457400  0.072200  1
  C  C653  1  0.858500  0.536000  0.942600  1
  C  C654  1  0.141500  0.464000  0.057400  1
  C  C655  1  0.882200  0.559100  0.979800  1
  C  C656  1  0.117800  0.440900  0.020200  1
  C  C657  1  0.846800  0.587800  0.002100  1
  C  C658  1  0.153200  0.412200  0.997900  1
  C  C659  1  0.787500  0.599900  0.988000  1
  C  C660  1  0.212500  0.400100  0.012000  1
  C  C661  1  0.755700  0.636900  0.013200  1
  C  C662  1  0.244300  0.363100  0.986800  1
  C  C663  1  0.772300  0.516900  0.887700  1
  C  C664  1  0.227700  0.483100  0.112300  1
  C  C665  1  0.950000  0.548300  0.995000  1
  C  C666  1  0.050000  0.451700  0.005000  1
  C  C667  1  0.313900  0.726500  0.775500  1
  C  C668  1  0.686100  0.273500  0.224500  1
  C  C669  1  0.289600  0.807900  0.714900  1
  C  C670  1  0.710400  0.192100  0.285100  1
  C  C671  1  0.286500  0.851000  0.792000  1
  C  C672  1  0.713500  0.149000  0.208000  1
  C  C673  1  0.175700  0.734900  0.759320  1
  C  C674  1  0.824300  0.265100  0.240680  1
  C  C675  1  0.144600  0.718700  0.796940  1
  C  C676  1  0.855400  0.281300  0.203060  1
  C  C677  1  0.137300  0.655300  0.812800  1
  C  C678  1  0.862700  0.344700  0.187200  1
  C  C679  1  0.111900  0.638000  0.849200  1
  C  C680  1  0.888100  0.362000  0.150800  1
  C  C681  1  0.088000  0.688500  0.866900  1
  C  C682  1  0.912000  0.311500  0.133100  1
  C  C683  1  0.092800  0.748000  0.852300  1
  C  C684  1  0.907200  0.252000  0.147700  1
  C  C685  1  0.118200  0.763300  0.817900  1
  C  C686  1  0.881800  0.236700  0.182100  1
  C  C687  1  0.122200  0.834300  0.800500  1
  C  C688  1  0.877800  0.165700  0.199500  1
  C  C689  1  0.156600  0.596800  0.792400  1
  C  C690  1  0.843400  0.403200  0.207600  1
  C  C691  1  0.062600  0.670300  0.912100  1
  C  C692  1  0.937400  0.329700  0.087900  1
  C  C693  1  0.909000  0.329500  0.649000  1
  C  C694  1  0.091000  0.670500  0.351000  1
  C  C695  1  0.939800  0.261000  0.713100  1
  C  C696  1  0.060200  0.739000  0.286900  1
  C  C697  1  0.870200  0.362700  0.720400  1
  C  C698  1  0.129800  0.637300  0.279600  1
  C  C699  1  0.018790  0.411680  0.703560  1
  C  C700  1  0.981210  0.588320  0.296440  1
  C  C701  1  0.013200  0.481780  0.705300  1
  C  C702  1  0.986800  0.518220  0.294700  1
  C  C703  1  0.016100  0.518500  0.672300  1
  C  C704  1  0.983900  0.481500  0.327700  1
  C  C705  1  0.007200  0.583400  0.671600  1
  C  C706  1  0.992800  0.416600  0.328400  1
  C  C707  1  0.001700  0.611340  0.708300  1
  C  C708  1  0.998300  0.388660  0.291700  1
  C  C709  1  0.000400  0.578700  0.740200  1
  C  C710  1  0.999600  0.421300  0.259800  1
  C  C711  1  0.007800  0.516600  0.739700  1
  C  C712  1  0.992200  0.483400  0.260300  1
  C  C713  1  0.007500  0.478800  0.778300  1
  C  C714  1  0.992500  0.521200  0.221700  1
  C  C715  1  0.028800  0.491900  0.632400  1
  C  C716  1  0.971200  0.508100  0.367600  1
  C  C717  1  0.985500  0.687160  0.707300  1
  C  C718  1  0.014500  0.312840  0.292700  1
  C  C719  1  0.521600  0.205600  0.745500  1
  C  C720  1  0.478400  0.794400  0.254500  1
  C  C721  1  0.468000  0.299200  0.780500  1
  C  C722  1  0.532000  0.700800  0.219500  1
  C  C723  1  0.370500  0.164300  0.754700  1
  C  C724  1  0.629500  0.835700  0.245300  1
  C  C725  1  0.429500  0.262200  0.700900  1
  C  C726  1  0.570500  0.737800  0.299100  1
  C  C727  1  0.354300  0.269500  0.707500  1
  C  C728  1  0.645700  0.730500  0.292500  1
  C  C729  1  0.281400  0.218700  0.702100  1
  C  C730  1  0.718600  0.781300  0.297900  1
  C  C731  1  0.226300  0.294400  0.721500  1
  C  C732  1  0.773700  0.705600  0.278500  1
  C  C733  1  0.292300  0.351700  0.728100  1
  C  C734  1  0.707700  0.648300  0.271900  1
  C  C735  1  0.353500  0.343000  0.723100  1
  C  C736  1  0.646500  0.657000  0.276900  1
  C  C737  1  0.423300  0.407200  0.721900  1
  C  C738  1  0.576700  0.592800  0.278100  1
  C  C739  1  0.023100  0.977500  0.157500  1
  C  C740  1  0.976900  0.022500  0.842500  1
  C  C741  1  0.972400  0.056900  0.176800  1
  C  C742  1  0.027600  0.943100  0.823200  1
  C  C743  1  0.064500  0.029000  0.216800  1
  C  C744  1  0.935500  0.971000  0.783200  1
  C  C745  1  0.149600  0.979800  0.295900  1
  C  C746  1  0.850400  0.020200  0.704100  1
  C  C747  1  0.909700  0.783900  0.955300  1
  C  C748  1  0.090300  0.216100  0.044700  1
  C  C749  1  0.349200  0.067000  0.356000  1
  C  C750  1  0.650800  0.933000  0.644000  1
  C  C751  1  0.293700  0.233700  0.780010  1
  C  C752  1  0.706300  0.766300  0.219990  1
  C  C753  1  0.319800  0.226200  0.822500  1
  C  C754  1  0.680200  0.773800  0.177500  1
  C  C755  1  0.309600  0.200800  0.749000  1
  C  C756  1  0.690400  0.799200  0.251000  1
  C  C757  1  0.274600  0.198700  0.713800  1
  C  C758  1  0.725400  0.801300  0.286200  1
  C  C759  1  0.207700  0.262400  0.740800  1
  C  C760  1  0.792300  0.737600  0.259200  1
  C  C761  1  0.242700  0.264500  0.775920  1
  C  C762  1  0.757300  0.735500  0.224080  1
  C  C763  1  0.223600  0.229500  0.709750  1.0
  C  C764  1  0.776400  0.770500  0.290250  1.0
  C  C765  1  0.279500  0.148700  0.681400  1.0
  C  C766  1  0.720500  0.851300  0.318600  1.0
  C  C767  1  0.156600  0.304800  0.733300  1.0
  C  C768  1  0.843400  0.695200  0.266700  1.0
  N  N769  1  0.865400  0.752500  0.378550  1
  N  N770  1  0.134600  0.247500  0.621450  1
  N  N771  1  0.570300  0.536300  0.371940  1
  N  N772  1  0.429700  0.463700  0.628060  1
  N  N773  1  0.916400  0.836600  0.187760  1
  N  N774  1  0.083600  0.163400  0.812240  1
  N  N775  1  0.846900  0.021500  0.304190  1
  N  N776  1  0.153100  0.978500  0.695810  1
  N  N777  1  0.730400  0.504700  0.226810  1
  N  N778  1  0.269600  0.495300  0.773190  1
  N  N779  1  0.644700  0.657500  0.095290  1
  N  N780  1  0.355300  0.342500  0.904710  1
  N  N781  1  0.388700  0.767200  0.147860  1
  N  N782  1  0.611300  0.232800  0.852140  1
  N  N783  1  0.686700  0.966400  0.125340  1
  N  N784  1  0.313300  0.033600  0.874660  1
  N  N785  1  0.502100  0.979800  0.281610  1
  N  N786  1  0.497900  0.020200  0.718390  1
  N  N787  1  0.625300  0.878400  0.422100  1
  N  N788  1  0.374700  0.121600  0.577900  1
  N  N789  1  0.330300  0.673300  0.317690  1
  N  N790  1  0.669700  0.326700  0.682310  1
  N  N791  1  0.400700  0.463300  0.216970  1
  N  N792  1  0.599300  0.536700  0.783030  1
  N  N793  1  0.021400  0.023300  0.182900  1
  N  N794  1  0.978600  0.976700  0.817100  1
  O  O795  1  0.967000  0.002600  0.425080  1
  O  O796  1  0.033000  0.997400  0.574920  1
  O  O797  1  0.880910  0.881500  0.401750  1
  O  O798  1  0.119090  0.118500  0.598250  1
  O  O799  1  0.963200  0.731200  0.362380  1
  O  O800  1  0.036800  0.268800  0.637620  1
  O  O801  1  0.512700  0.530700  0.426110  1
  O  O802  1  0.487300  0.469300  0.573890  1
  O  O803  1  0.529900  0.431550  0.323770  1
  O  O804  1  0.470100  0.568450  0.676230  1
  O  O805  1  0.451100  0.302300  0.308680  1
  O  O806  1  0.548900  0.697700  0.691320  1
  O  O807  1  0.864700  0.802300  0.044640  1
  O  O808  1  0.135300  0.197700  0.955360  1
  O  O809  1  0.860360  0.832100  0.116470  1
  O  O810  1  0.139640  0.167900  0.883530  1
  O  O811  1  0.995800  0.781600  0.197850  1
  O  O812  1  0.004200  0.218400  0.802150  1
  O  O813  1  0.845700  0.125500  0.284220  1
  O  O814  1  0.154300  0.874500  0.715780  1
  O  O815  1  0.846700  0.999900  0.377150  1
  O  O816  1  0.153300  0.000100  0.622850  1
  O  O817  1  0.862000  0.050200  0.447260  1
  O  O818  1  0.138000  0.949800  0.552740  1
  O  O819  1  0.591900  0.325400  0.318740  1
  O  O820  1  0.408100  0.674600  0.681260  1
  O  O821  1  0.628100  0.424600  0.269270  1
  O  O822  1  0.371900  0.575400  0.730730  1
  O  O823  1  0.841900  0.520500  0.247800  1
  O  O824  1  0.158100  0.479500  0.752200  1
  O  O825  1  0.552700  0.598500  0.055470  1
  O  O826  1  0.447300  0.401500  0.944530  1
  O  O827  1  0.728510  0.777200  0.073740  1
  O  O828  1  0.271490  0.222800  0.926260  1
  O  O829  1  0.772500  0.865500  0.019580  1
  O  O830  1  0.227500  0.134500  0.980420  1
  O  O831  1  0.189000  0.770500  0.227070  1
  O  O832  1  0.811000  0.229500  0.772930  1
  O  O833  1  0.313800  0.786500  0.202600  1
  O  O834  1  0.686200  0.213500  0.797400  1
  O  O835  1  0.331700  0.689200  0.100140  1
  O  O836  1  0.668300  0.310800  0.899860  1
  O  O837  1  0.715600  0.084500  0.132000  1
  O  O838  1  0.284400  0.915500  0.868000  1
  O  O839  1  0.778000  0.918000  0.097270  1
  O  O840  1  0.222000  0.082000  0.902730  1
  O  O841  1  0.893300  0.942100  0.062320  1
  O  O842  1  0.106700  0.057900  0.937680  1
  O  O843  1  0.265700  0.902800  0.209230  1
  O  O844  1  0.734300  0.097200  0.790770  1
  O  O845  1  0.377400  0.906400  0.251050  1
  O  O846  1  0.622600  0.093600  0.748950  1
  O  O847  1  0.545600  0.094400  0.268360  1
  O  O848  1  0.454400  0.905600  0.731640  1
  O  O849  1  0.560500  0.813600  0.468940  1
  O  O850  1  0.439500  0.186400  0.531060  1
  O  O851  1  0.763800  0.911100  0.431290  1
  O  O852  1  0.236200  0.088900  0.568710  1
  O  O853  1  0.872700  0.928500  0.477910  1
  O  O854  1  0.127300  0.071500  0.522090  1
  O  O855  1  0.244900  0.871700  0.285160  1
  O  O856  1  0.755100  0.128300  0.714840  1
  O  O857  1  0.301840  0.774300  0.283260  1
  O  O858  1  0.698160  0.225700  0.716740  1
  O  O859  1  0.317500  0.664200  0.380990  1
  O  O860  1  0.682500  0.335800  0.619010  1
  O  O861  1  0.355900  0.432300  0.156150  1
  O  O862  1  0.644100  0.567700  0.843850  1
  O  O863  1  0.482200  0.399400  0.246870  1
  O  O864  1  0.517800  0.600600  0.753130  1
  O  O865  1  0.524800  0.292200  0.244810  1
  O  O866  1  0.475200  0.707800  0.755190  1
  O  O867  1  0.065900  0.943800  0.161600  1
  O  O868  1  0.934100  0.056200  0.838400  1
  O  O869  1  0.162200  0.941700  0.265400  1
  O  O870  1  0.837800  0.058300  0.734600  1
  O  O871  1  0.914800  0.841000  0.979190  1
  O  O872  1  0.085200  0.159000  0.020810  1
  O  O873  1  0.364700  0.112900  0.325500  1
  O  O874  1  0.635300  0.887100  0.674500  1
  O  O875  1  0.988200  0.058200  0.966670  1
  O  O876  1  0.011800  0.941800  0.033330  1
  O  O877  1  0.187500  0.877000  0.124700  1
  O  O878  1  0.812500  0.123000  0.875300  1
  O  O879  1  0.847600  0.085200  0.973000  1
  O  O880  1  0.152400  0.914800  0.027000  1
  O  O881  1  0.840000  0.952900  0.908900  1
  O  O882  1  0.160000  0.047100  0.091100  1
  O  O883  1  0.388400  0.188100  0.267600  1
  O  O884  1  0.611600  0.811900  0.732400  1
  O  O885  1  0.570000  0.156000  0.357900  1
  O  O886  1  0.430000  0.844000  0.642100  1
  O  O887  1  0.520000  0.236000  0.372300  1
  O  O888  1  0.480000  0.764000  0.627700  1
