
#######################################################################
#
#                 Cambridge Crystallographic Data Centre
#                                CCDC 
#
#######################################################################
#
# If this CIF has been generated from an entry in the Cambridge 
# Structural Database, then it will include bibliographic, chemical, 
# crystal, experimental, refinement or atomic coordinate data resulting 
# from the CCDC's data processing and validation procedures.
#
#######################################################################

data_OSOFIM
_chemical_formula_moiety         
'3(C21 H21 Au3 N6 O12),C120 H156 N30 Pd6 12+,12(N1 O3 1-),22(H2 O1)'
_chemical_name_systematic        
"(bis(\m~2~-2,4,6-tris(4-pyridyl)triazine)-tris(\m~2~-4,4''-terphenyl)-hexakis(N,N,N',N'-tetramethylethylenediamine)-hexa-palladium) tris(tris(\m~2~-3,5-bis(methoxycarbonyl)pyrazolyl)-tri-gold) clathrate dodecakis(nitrate) docosahydrate"
_symmetry_cell_setting           triclinic
_symmetry_space_group_name_H-M   'P -1'
_symmetry_Int_Tables_number      2
_space_group_name_Hall           '-P 1'
loop_
_symmetry_equiv_pos_site_id
_symmetry_equiv_pos_as_xyz
1 x,y,z
2 -x,-y,-z
_cell_length_a                   18.571(9)
_cell_length_b                   30.944(16)
_cell_length_c                   47.85(2)
_cell_angle_alpha                83.515(6)
_cell_angle_beta                 87.051(6)
_cell_angle_gamma                89.237(6)
_cell_volume                     27284.6
_exptl_crystal_colour            yellow
_exptl_crystal_description       block
_cell_formula_units_Z            4
loop_
_atom_site_label
_atom_site_type_symbol
_atom_site_fract_x
_atom_site_fract_y
_atom_site_fract_z
Au1 Au 0.47859(6) 0.08653(4) 0.31681(3)
Au2 Au 0.46240(6) -0.02192(4) 0.31649(3)
Au3 Au 0.31626(7) 0.04450(4) 0.30817(3)
N1 N 0.5575(10) 0.0030(7) 0.3257(5)
N2 N 0.5667(11) 0.0465(7) 0.3214(5)
C1 C 0.6339(19) 0.0555(6) 0.3280(7)
C2 C 0.6677(11) 0.0170(9) 0.3365(6)
C3 C 0.6196(15) -0.0160(7) 0.3327(6)
C4 C 0.630(2) -0.0629(12) 0.3399(8)
O1 O 0.6298(12) 0.1280(6) 0.3097(5)
O2 O 0.7082(14) 0.1076(8) 0.3426(5)
O3 O 0.6961(16) -0.0733(10) 0.3401(6)
O4 O 0.5759(14) -0.0869(8) 0.3441(5)
C5 C 0.654(3) 0.1759(8) 0.3112(6)
C6 C 0.6572(19) 0.0989(12) 0.3278(8)
C7 C 0.727(5) -0.120(3) 0.346(2)
N3 N 0.3071(12) -0.0196(6) 0.3113(5)
C8 C 0.2463(16) -0.0446(10) 0.3136(7)
O5 O 0.1248(17) -0.0559(10) 0.3111(6)
O6 O 0.1622(14) 0.0112(9) 0.3210(6)
C9 C 0.051(3) -0.0387(18) 0.3133(12)
C10 C 0.1738(19) -0.0261(12) 0.3166(8)
N4 N 0.3644(12) -0.0467(8) 0.3112(5)
C11 C 0.3417(17) -0.0890(11) 0.3163(8)
C12 C 0.2671(15) -0.0866(8) 0.3135(8)
O7 O 0.3624(13) -0.1624(8) 0.3210(5)
O8 O 0.4575(13) -0.1218(8) 0.3050(5)
C13 C 0.410(2) -0.1989(13) 0.3191(9)
C14 C 0.392(2) -0.1239(12) 0.3122(8)
N5 N 0.3265(10) 0.1120(5) 0.3086(4)
N6 N 0.3912(11) 0.1247(6) 0.3140(5)
C15 C 0.2790(17) 0.1456(13) 0.3041(9)
C16 C 0.3185(16) 0.1817(7) 0.3092(7)
C17 C 0.113(2) 0.0961(16) 0.2837(10)
C18 C 0.209(3) 0.1389(17) 0.2974(10)
O9 O 0.1834(16) 0.1021(10) 0.2944(6)
O10 O 0.1648(17) 0.1697(10) 0.3006(7)
C19 C 0.3861(15) 0.1680(10) 0.3157(7)
O11 O 0.4258(14) 0.2366(8) 0.3194(5)
O12 O 0.4963(13) 0.1797(8) 0.3370(5)
C20 C 0.482(3) 0.2669(16) 0.3286(11)
C21 C 0.445(2) 0.1954(13) 0.3243(9)
Au4 Au 0.51128(6) 0.10131(3) 0.24963(3)
Au5 Au 0.49747(6) -0.00684(3) 0.24969(3)
Au6 Au 0.34821(7) 0.05583(4) 0.24164(3)
N7 N 0.6009(10) 0.0630(6) 0.2531(4)
C22 C 0.7069(10) 0.0341(10) 0.2618(7)
C23 C 0.6697(18) 0.0731(8) 0.2551(7)
C24 C 0.799(3) 0.1601(18) 0.2526(12)
C25 C 0.696(2) 0.1147(12) 0.2540(8)
O13 O 0.7618(16) 0.1185(9) 0.2603(6)
O14 O 0.6630(13) 0.1464(8) 0.2385(5)
N8 N 0.5924(10) 0.0187(7) 0.2568(5)
C26 C 0.6573(18) 0.0009(8) 0.2618(7)
C27 C 0.622(2) -0.1151(13) 0.2809(9)
C28 C 0.6748(19) -0.0467(11) 0.2680(7)
O15 O 0.6124(12) -0.0684(7) 0.2730(5)
O16 O 0.7314(16) -0.0599(9) 0.2667(6)
N9 N 0.4033(11) -0.0328(7) 0.2430(5)
C29 C 0.3135(16) -0.0767(8) 0.2397(8)
H1 H 0.2850 -0.1010 0.2370
C30 C 0.3854(18) -0.0776(12) 0.2417(9)
O17 O 0.4116(14) -0.1479(8) 0.2434(5)
O18 O 0.5023(14) -0.1034(8) 0.2327(5)
C31 C 0.462(2) -0.1810(13) 0.2427(9)
C32 C 0.442(2) -0.1079(13) 0.2382(8)
N10 N 0.3404(13) -0.0087(7) 0.2434(5)
C33 C 0.2868(17) -0.0354(11) 0.2422(8)
O19 O 0.1672(19) -0.0495(11) 0.2354(7)
O20 O 0.1912(15) 0.0133(10) 0.2512(6)
C34 C 0.086(3) -0.042(2) 0.2386(13)
C35 C 0.210(2) -0.0211(15) 0.2453(9)
N11 N 0.3611(12) 0.1224(6) 0.2401(5)
C36 C 0.3464(17) 0.1931(7) 0.2365(8)
C37 C 0.3140(15) 0.1515(11) 0.2329(8)
C38 C 0.130(2) 0.176(3) 0.2067(16)
C39 C 0.241(2) 0.1476(13) 0.2246(8)
O21 O 0.1949(19) 0.1843(14) 0.2199(9)
O22 O 0.2154(16) 0.1109(10) 0.2226(6)
N12 N 0.4218(12) 0.1388(7) 0.2458(5)
C40 C 0.4139(15) 0.1827(10) 0.2433(7)
O23 O 0.4562(15) 0.2517(10) 0.2424(6)
O24 O 0.5221(14) 0.1969(8) 0.2650(5)
C41 C 0.500(4) 0.286(3) 0.2515(17)
C42 C 0.471(2) 0.2099(13) 0.2497(8)
Au7 Au 0.54766(8) 0.11746(4) 0.18273(3)
Au8 Au 0.54290(9) 0.00932(4) 0.18354(3)
Au9 Au 0.38919(9) 0.06937(5) 0.17481(3)
N13 N 0.6405(12) 0.0832(8) 0.1851(5)
N14 N 0.6376(12) 0.0386(9) 0.1894(5)
C43 C 0.7050(19) 0.0220(9) 0.1910(6)
C44 C 0.7508(11) 0.0580(11) 0.1886(7)
C45 C 0.708(2) 0.0944(9) 0.1834(7)
O25 O 0.6684(14) -0.0492(9) 0.2016(6)
O26 O 0.7850(18) -0.0356(10) 0.1935(7)
C46 C 0.686(3) -0.0965(16) 0.2041(11)
C47 C 0.7235(18) -0.0241(11) 0.1952(7)
N15 N 0.4514(14) -0.0172(9) 0.1749(5)
N16 N 0.3880(17) 0.0054(8) 0.1757(6)
C48 C 0.336(2) -0.0207(13) 0.1711(7)
C49 C 0.3640(18) -0.0612(9) 0.1676(7)
C50 C 0.437(2) -0.0600(15) 0.1695(9)
O27 O 0.4667(17) -0.1314(10) 0.1681(6)
O28 O 0.5577(16) -0.0827(9) 0.1631(6)
C51 C 0.526(3) -0.164(2) 0.1631(13)
C52 C 0.495(3) -0.0922(9) 0.1678(10)
C53 C 0.731(3) 0.1385(16) 0.1776(10)
N17 N 0.3970(16) 0.1353(7) 0.1715(5)
N18 N 0.4571(15) 0.1533(9) 0.1771(5)
C54 C 0.4508(15) 0.1974(10) 0.1719(6)
C55 C 0.3819(17) 0.2058(8) 0.1629(7)
C56 C 0.3476(16) 0.1674(12) 0.1625(7)
O29 O 0.7952(17) 0.1462(10) 0.1828(6)
O30 O 0.6909(16) 0.1669(10) 0.1674(6)
O31 O 0.247(2) 0.0235(13) 0.1817(8)
O32 O 0.218(2) -0.0264(14) 0.1547(9)
O33 O 0.243(2) 0.1937(12) 0.1435(8)
O34 O 0.257(2) 0.1219(13) 0.1479(8)
O35 O 0.5522(16) 0.2121(9) 0.1916(6)
O36 O 0.5034(16) 0.2662(10) 0.1663(6)
C57 C 0.815(3) 0.1913(19) 0.1718(13)
C58 C 0.173(4) 0.040(2) 0.1830(14)
H2 H 0.1567 0.0474 0.1638
C59 C 0.262(4) -0.011(2) 0.1703(14)
C60 C 0.174(4) 0.185(2) 0.1308(14)
C61 C 0.279(3) 0.1568(15) 0.1541(13)
C62 C 0.607(3) 0.2396(19) 0.2011(12)
C63 C 0.501(2) 0.2266(7) 0.1763(9)
Au10 Au 0.95729(6) 0.58717(4) 0.31695(3)
Au11 Au 0.97367(6) 0.47801(4) 0.31753(3)
Au12 Au 0.81113(7) 0.52558(4) 0.31013(3)
N19 N 1.0577(10) 0.5143(6) 0.3232(5)
N20 N 1.0519(8) 0.5576(5) 0.3241(5)
C64 C 1.1157(12) 0.5745(7) 0.3292(7)
C65 C 1.1642(14) 0.5398(7) 0.3322(7)
C66 C 1.1263(13) 0.5032(7) 0.3278(8)
N21 N 0.8238(10) 0.4611(5) 0.3104(5)
N22 N 0.8879(8) 0.4419(6) 0.3151(5)
C67 C 0.8794(12) 0.3983(7) 0.3162(7)
C68 C 0.8087(12) 0.3916(8) 0.3091(5)
C69 C 0.7732(12) 0.4311(8) 0.3087(9)
C70 C 0.945(2) 0.3708(9) 0.3174(8)
N23 N 0.8011(9) 0.5887(5) 0.3126(5)
N24 N 0.8583(8) 0.6145(6) 0.3138(5)
C71 C 0.7414(11) 0.6143(7) 0.3138(7)
C72 C 0.7634(11) 0.6571(7) 0.3125(7)
C73 C 0.8380(11) 0.6568(7) 0.3121(5)
O37 O 1.077(3) 0.6409(10) 0.3400(10)
O38 O 1.1928(17) 0.6332(7) 0.3362(7)
C74 C 1.133(3) 0.6137(13) 0.3338(11)
C75 C 1.067(3) 0.6840(18) 0.3518(18)
O39 O 1.130(3) 0.4367(14) 0.3132(14)
O40 O 1.2129(18) 0.4472(8) 0.3397(7)
C76 C 1.154(3) 0.459(2) 0.3309(13)
C77 C 1.252(6) 0.408(4) 0.338(2)
O41 O 0.9251(12) 0.3264(8) 0.3220(5)
O42 O 0.9888(17) 0.3789(8) 0.3358(8)
C78 C 0.973(3) 0.2870(8) 0.3309(13)
O43 O 0.6860(14) 0.4759(12) 0.2911(8)
O44 O 0.6497(13) 0.4091(12) 0.3111(7)
C79 C 0.698(3) 0.4364(17) 0.3069(11)
C80 C 0.610(3) 0.4895(17) 0.2824(11)
O45 O 0.6161(12) 0.6237(8) 0.3131(6)
O46 O 0.6602(11) 0.5570(9) 0.3211(6)
C81 C 0.670(2) 0.5973(15) 0.3138(10)
C82 C 0.543(2) 0.6066(15) 0.3155(10)
O47 O 0.8581(13) 0.7313(7) 0.3154(5)
O48 O 0.9464(19) 0.6886(9) 0.3113(8)
C83 C 0.884(2) 0.6915(12) 0.3153(8)
C84 C 0.905(2) 0.7659(13) 0.3193(9)
Au13 Au 0.99348(6) 0.60601(3) 0.25035(3)
Au14 Au 1.00888(6) 0.49726(3) 0.25078(3)
Au15 Au 0.84570(6) 0.54615(3) 0.24365(3)
N25 N 1.0940(9) 0.5334(5) 0.2553(5)
N26 N 1.0877(8) 0.5766(5) 0.2565(4)
C85 C 1.1533(11) 0.5925(6) 0.2605(4)
C86 C 1.2041(12) 0.5596(6) 0.2598(5)
C87 C 1.1646(12) 0.5226(6) 0.2571(5)
O49 O 1.2632(17) 0.4704(7) 0.2604(7)
O50 O 1.163(2) 0.4535(12) 0.2483(13)
C88 C 1.1918(11) 0.4783(9) 0.2548(6)
C89 C 1.3141(19) 0.4325(15) 0.2570(13)
N27 N 0.8574(9) 0.4809(6) 0.2415(4)
N28 N 0.9209(10) 0.4612(6) 0.2463(4)
C90 C 0.9135(11) 0.4182(7) 0.2451(5)
C91 C 0.8423(11) 0.4106(7) 0.2394(4)
C92 C 0.8090(12) 0.4514(7) 0.2370(7)
O51 O 0.9605(15) 0.3457(10) 0.2467(7)
O52 O 1.0198(19) 0.3944(11) 0.2631(9)
C93 C 0.966(2) 0.3880(7) 0.2483(8)
C94 C 1.018(4) 0.311(3) 0.252(2)
N29 N 0.8948(7) 0.6344(5) 0.2453(4)
N30 N 0.8358(9) 0.6102(5) 0.2451(5)
C95 C 0.7791(11) 0.6375(6) 0.2432(7)
C96 C 0.8067(11) 0.6785(7) 0.2404(8)
C97 C 0.8802(10) 0.6774(6) 0.2435(5)
O53 O 0.9040(12) 0.7520(7) 0.2396(5)
O54 O 0.9914(19) 0.7042(10) 0.2367(8)
C98 C 0.929(2) 0.7118(7) 0.2443(9)
C99 C 0.953(2) 0.7860(12) 0.2389(8)
O55 O 1.105(2) 0.6632(8) 0.2677(9)
O56 O 1.2287(14) 0.6536(7) 0.2635(6)
C100 C 1.172(2) 0.6390(8) 0.2630(9)
C101 C 1.109(2) 0.7018(16) 0.2836(17)
O57 O 0.6861(14) 0.4292(13) 0.2331(9)
O58 O 0.7206(14) 0.4996(12) 0.2203(7)
C102 C 0.739(3) 0.4590(13) 0.2334(12)
C103 C 0.640(8) 0.433(5) 0.209(3)
O59 O 0.6546(12) 0.6532(10) 0.2375(6)
O60 O 0.6906(11) 0.5847(10) 0.2524(6)
C104 C 0.7033(14) 0.6198(10) 0.2439(8)
C105 C 0.580(3) 0.6427(17) 0.2410(11)
Au16 Au 1.03685(9) 0.62109(6) 0.18386(3)
Au17 Au 1.04646(9) 0.51219(5) 0.18393(3)
Au18 Au 0.88611(9) 0.56267(6) 0.17687(3)
N31 N 1.1292(10) 0.5891(7) 0.1884(6)
N32 N 1.1332(10) 0.5466(7) 0.1862(6)
C106 C 1.2017(15) 0.5333(8) 0.1869(6)
C107 C 1.2436(10) 0.5697(8) 0.1881(6)
C108 C 1.1967(14) 0.6042(7) 0.1890(4)
N33 N 0.9576(10) 0.4802(8) 0.1784(6)
N34 N 0.8937(13) 0.4997(5) 0.1738(6)
C109 C 0.8460(13) 0.4698(9) 0.1684(6)
C110 C 0.8824(13) 0.4302(6) 0.1699(4)
C111 C 0.9512(12) 0.4374(8) 0.1766(4)
N35 N 0.8834(12) 0.6265(5) 0.1760(7)
N36 N 0.9426(9) 0.6502(7) 0.1765(7)
C112 C 0.9238(13) 0.6924(8) 0.1749(6)
C113 C 0.8506(12) 0.6950(6) 0.1695(9)
C114 C 0.8262(13) 0.6529(8) 0.1708(9)
O61 O 1.283(2) 0.6636(11) 0.1902(8)
O62 O 1.172(2) 0.682(2) 0.1922(11)
C115 C 1.2129(13) 0.6504(10) 0.1906(10)
C116 C 1.323(3) 0.705(2) 0.193(3)
O63 O 1.296(2) 0.4786(9) 0.1826(8)
O64 O 1.182(2) 0.4649(12) 0.1717(12)
C117 C 1.2309(11) 0.4990(13) 0.1825(6)
C118 C 1.333(3) 0.4393(19) 0.1723(18)
O65 O 1.065(2) 0.4106(13) 0.1901(8)
O66 O 1.0016(17) 0.3659(12) 0.1726(6)
C119 C 1.0046(19) 0.4009(17) 0.1796(8)
C120 C 1.113(3) 0.3813(18) 0.2088(15)
O67 O 0.7311(16) 0.4478(15) 0.1539(9)
O68 O 0.7592(16) 0.5190(11) 0.1505(9)
C121 C 0.774(3) 0.4786(14) 0.1655(13)
C122 C 0.668(3) 0.4509(17) 0.1356(16)
O69 O 0.7365(14) 0.6066(13) 0.1822(8)
O70 O 0.7066(17) 0.6639(14) 0.1554(9)
C123 C 0.749(2) 0.6400(15) 0.1712(13)
C124 C 0.658(4) 0.590(2) 0.1813(15)
O71 O 0.9507(16) 0.7694(9) 0.1648(7)
O72 O 1.045(2) 0.7168(12) 0.1694(9)
C125 C 0.979(3) 0.7282(8) 0.1715(11)
C126 C 1.004(3) 0.8040(18) 0.1601(12)
C127 C 0.3410(12) -0.0101(7) 0.3827(9)
N37 N 0.3112(9) 0.0309(6) 0.3791(5)
C128 C 0.3550(13) 0.0657(6) 0.3818(8)
N38 N 0.4315(10) 0.0589(6) 0.3837(6)
C129 C 0.4550(10) 0.0179(7) 0.3899(7)
N39 N 0.4132(12) -0.0168(6) 0.3871(6)
N40 N 0.2544(14) 0.1875(6) 0.3847(6)
C130 C 0.3255(16) 0.1815(8) 0.3879(8)
C131 C 0.3562(14) 0.1417(8) 0.3857(8)
C132 C 0.3146(17) 0.1082(7) 0.3802(8)
C133 C 0.2430(16) 0.1151(7) 0.3759(9)
C134 C 0.2148(17) 0.1519(12) 0.3787(8)
N41 N 0.6697(11) 0.0041(9) 0.4117(5)
C135 C 0.632(2) -0.0306(10) 0.4072(8)
C136 C 0.5609(15) -0.0260(9) 0.4000(8)
C137 C 0.5333(11) 0.0142(12) 0.3947(8)
C138 C 0.5726(15) 0.0496(8) 0.3978(7)
C139 C 0.645(2) 0.0449(10) 0.4058(8)
N42 N 0.2102(17) -0.1197(10) 0.3864(7)
C140 C 0.182(3) -0.0816(16) 0.3831(10)
C141 C 0.2238(18) -0.0439(9) 0.3811(9)
C142 C 0.297(2) -0.0493(9) 0.3810(9)
C143 C 0.3262(14) -0.0894(11) 0.3831(8)
C144 C 0.282(2) -0.1251(9) 0.3866(9)
C145 C 0.4984(15) 0.1182(6) 0.1070(11)
N43 N 0.4575(10) 0.0823(8) 0.1050(9)
C146 C 0.4889(14) 0.0417(7) 0.1075(11)
N44 N 0.5608(13) 0.0373(6) 0.1122(9)
C147 C 0.6025(10) 0.0733(9) 0.1126(11)
N45 N 0.5696(12) 0.1135(6) 0.1129(8)
N46 N 0.8281(7) 0.0592(12) 0.1160(8)
C148 C 0.797(2) 0.0996(12) 0.1136(12)
C149 C 0.7245(13) 0.1038(10) 0.1143(10)
C150 C 0.6821(9) 0.0679(14) 0.1162(10)
C151 C 0.7136(13) 0.0276(10) 0.1205(11)
C152 C 0.785(2) 0.0238(11) 0.1209(11)
N47 N 0.4047(18) 0.2424(6) 0.0899(7)
C153 C 0.3629(16) 0.2074(13) 0.0897(11)
C154 C 0.3911(18) 0.1670(7) 0.0947(11)
C155 C 0.459(2) 0.1609(7) 0.1037(10)
C156 C 0.5015(15) 0.1978(9) 0.1041(10)
C157 C 0.475(2) 0.2366(9) 0.0972(10)
N48 N 0.3727(18) -0.0682(9) 0.0919(7)
C158 C 0.443(2) -0.0725(9) 0.0963(11)
C159 C 0.4821(14) -0.0381(10) 0.1013(11)
C160 C 0.449(2) 0.0014(10) 0.1034(10)
C161 C 0.3766(17) 0.0046(8) 0.1009(10)
C162 C 0.3390(15) -0.0288(14) 0.0933(11)
N49 N 0.9447(18) 0.0496(10) 0.1527(4)
C163 C 0.942(2) 0.0088(9) 0.1668(6)
C164 C 0.939(2) 0.0033(7) 0.1960(6)
C165 C 0.9394(19) 0.0390(9) 0.2108(4)
C166 C 0.9451(19) 0.0800(7) 0.1962(5)
C167 C 0.947(2) 0.0850(8) 0.1671(5)
C168 C 0.9288(17) 0.0308(10) 0.2425(4)
C169 C 0.8954(17) -0.0079(8) 0.2564(5)
C170 C 0.8785(16) -0.0134(8) 0.2835(6)
C171 C 0.8946(17) 0.0190(10) 0.3014(4)
C172 C 0.9281(17) 0.0560(9) 0.2884(5)
C173 C 0.9445(16) 0.0624(8) 0.2606(6)
C174 C 0.8710(16) 0.0121(9) 0.3322(4)
C175 C 0.8562(17) -0.0284(8) 0.3464(7)
C176 C 0.8315(19) -0.0339(8) 0.3740(6)
N50 N 0.8166(15) 0.0032(9) 0.3877(5)
C177 C 0.8311(17) 0.0428(8) 0.3745(6)
C178 C 0.8571(17) 0.0486(9) 0.3472(7)
N51 N 0.2838(19) -0.1387(12) 0.1164(5)
C179 C 0.223(2) -0.1190(13) 0.1268(6)
C180 C 0.1982(17) -0.1291(12) 0.1547(7)
C181 C 0.2357(19) -0.1590(12) 0.1726(5)
C182 C 0.2968(19) -0.1793(12) 0.1617(7)
C183 C 0.3228(18) -0.1672(14) 0.1342(7)
C184 C 0.2145(19) -0.1692(13) 0.2034(5)
C185 C 0.1469(18) -0.1560(12) 0.2155(6)
C186 C 0.1307(15) -0.1609(11) 0.2426(7)
C187 C 0.1788(17) -0.1822(11) 0.2625(4)
C188 C 0.2441(17) -0.1968(12) 0.2505(6)
C189 C 0.2603(16) -0.1921(12) 0.2231(7)
C190 C 0.1666(19) -0.1828(12) 0.2935(4)
C191 C 0.1096(18) -0.1607(11) 0.3061(9)
C192 C 0.1026(17) -0.1585(11) 0.3336(7)
N52 N 0.1486(18) -0.1807(11) 0.3517(6)
C193 C 0.2034(17) -0.2063(11) 0.3401(6)
C194 C 0.2110(17) -0.2079(11) 0.3132(8)
N53 N 0.3402(15) 0.3112(10) 0.1158(4)
C195 C 0.3878(13) 0.3255(10) 0.1335(5)
C196 C 0.2725(15) 0.2982(12) 0.1254(6)
C197 C 0.3672(16) 0.3274(13) 0.1618(5)
C198 C 0.2991(18) 0.3134(15) 0.1721(5)
C199 C 0.2502(15) 0.3008(14) 0.1535(6)
C200 C 0.2349(18) 0.2919(11) 0.2941(4)
C201 C 0.2876(14) 0.3014(10) 0.3137(7)
C202 C 0.1743(13) 0.2707(9) 0.3064(6)
C203 C 0.2753(15) 0.2901(10) 0.3413(6)
H3 H 0.3101 0.2987 0.3534
N54 N 0.2141(17) 0.2662(10) 0.3543(6)
C204 C 0.1646(15) 0.2566(11) 0.3332(7)
H4 H 0.1234 0.2394 0.3392
C205 C 0.280(2) 0.3133(14) 0.2029(5)
C206 C 0.3241(17) 0.3279(12) 0.2229(7)
H5 H 0.3675 0.3420 0.2159
C207 C 0.217(2) 0.2885(13) 0.2167(7)
H6 H 0.1869 0.2735 0.2056
C208 C 0.3118(17) 0.3241(12) 0.2499(7)
H7 H 0.3446 0.3363 0.2613
C209 C 0.2478(18) 0.3011(11) 0.2630(5)
C210 C 0.2037(15) 0.2872(10) 0.2425(6)
H8 H 0.1582 0.2755 0.2493
Pd1 Pd 0.77014(18) -0.00373(10) 0.42741(7)
N73 N 0.7269(17) -0.0075(11) 0.4676(5)
N74 N 0.8697(16) -0.0135(10) 0.4443(5)
C295 C 0.7901(19) -0.0023(16) 0.4841(10)
C296 C 0.856(3) -0.0274(16) 0.4744(7)
C297 C 0.691(3) -0.0488(14) 0.4765(13)
C298 C 0.674(3) 0.0254(16) 0.4749(13)
C299 C 0.912(2) -0.0496(13) 0.4342(10)
C300 C 0.913(2) 0.0261(13) 0.4388(10)
Pd2 Pd 0.1444(2) -0.17369(13) 0.39352(10)
N75 N 0.132(2) -0.1667(14) 0.4345(8)
N76 N 0.082(2) -0.2277(14) 0.4021(8)
C301 C 0.106(3) -0.2070(13) 0.4510(10)
C302 C 0.056(3) -0.226(2) 0.4311(9)
C303 C 0.088(3) -0.1297(18) 0.4421(14)
C304 C 0.197(3) -0.164(2) 0.4500(13)
C305 C 0.018(3) -0.229(2) 0.3859(12)
C306 C 0.126(3) -0.2669(16) 0.4002(12)
Pd3 Pd 0.20260(17) 0.24257(11) 0.39390(9)
N77 N 0.1859(18) 0.2160(11) 0.4354(6)
N78 N 0.1530(18) 0.2974(12) 0.4058(6)
C307 C 0.170(3) 0.2523(14) 0.4517(10)
C308 C 0.122(2) 0.2828(16) 0.4338(8)
C309 C 0.247(3) 0.191(2) 0.4473(13)
C310 C 0.124(2) 0.1868(15) 0.4374(11)
C311 C 0.201(3) 0.3343(15) 0.4052(12)
C312 C 0.094(2) 0.3128(13) 0.3880(9)
Pd4 Pd 0.9361(3) 0.0556(2) 0.11047(9)
N79 N 0.932(3) 0.0567(19) 0.0686(4)
N80 N 1.0429(11) 0.0515(13) 0.1031(8)
C313 C 0.999(3) 0.071(3) 0.054(2)
C314 C 1.052(5) 0.046(3) 0.0730(10)
C315 C 0.894(5) 0.097(2) 0.0590(9)
C316 C 0.894(5) 0.017(2) 0.0638(11)
C317 C 1.0741(17) 0.0900(18) 0.1124(14)
C318 C 1.0676(18) 0.0124(17) 0.1200(13)
Pd5 Pd 0.3229(4) -0.11677(17) 0.07665(10)
N81 N 0.363(2) -0.0998(14) 0.0373(5)
N82 N 0.276(2) -0.1643(10) 0.0597(7)
C319 C 0.318(5) -0.119(2) 0.0180(16)
C320 C 0.311(4) -0.166(2) 0.0318(10)
C321 C 0.440(2) -0.109(3) 0.0371(12)
C322 C 0.343(4) -0.0548(17) 0.0296(10)
C323 C 0.293(3) -0.2056(7) 0.0752(12)
C324 C 0.1988(19) -0.1583(19) 0.0623(14)
Pd6 Pd 0.3693(3) 0.30214(16) 0.07648(11)
N83 N 0.398(3) 0.2962(14) 0.0363(4)
N84 N 0.340(2) 0.3616(9) 0.0604(7)
C325 C 0.398(4) 0.3387(17) 0.0193(16)
C326 C 0.331(4) 0.361(3) 0.0303(9)
C327 C 0.351(4) 0.264(2) 0.0271(9)
C328 C 0.473(3) 0.282(3) 0.0352(12)
C329 C 0.267(2) 0.3695(15) 0.0706(14)
C330 C 0.394(4) 0.3916(9) 0.0670(19)
C211 C 0.8517(13) 0.4731(5) 0.3834(8)
N55 N 0.8076(8) 0.5090(7) 0.3813(6)
C212 C 0.8346(13) 0.5484(7) 0.3840(8)
N56 N 0.9098(8) 0.5542(4) 0.3844(4)
C213 C 0.9511(9) 0.5177(7) 0.3895(8)
N57 N 0.9253(12) 0.4777(6) 0.3870(7)
N58 N 0.7505(14) 0.3516(7) 0.3866(6)
C214 C 0.7121(14) 0.3873(11) 0.3828(8)
H9 H 0.6614 0.3851 0.3816
C215 C 0.7427(16) 0.4281(8) 0.3804(8)
H10 H 0.7141 0.4537 0.3772
C216 C 0.8157(17) 0.4302(7) 0.3830(8)
C217 C 0.8554(13) 0.3936(10) 0.3861(8)
H11 H 0.9062 0.3957 0.3871
C218 C 0.8251(16) 0.3537(8) 0.3878(8)
H12 H 0.8538 0.3280 0.3898
N59 N 1.1674(13) 0.5209(10) 0.4098(5)
C219 C 1.1396(17) 0.4819(10) 0.4060(9)
H13 H 1.1666 0.4557 0.4094
C220 C 1.0691(16) 0.4818(9) 0.3968(8)
H14 H 1.0497 0.4557 0.3916
C221 C 1.0298(11) 0.5172(11) 0.3951(8)
C222 C 1.0583(17) 0.5572(9) 0.3982(8)
H15 H 1.0310 0.5833 0.3947
C223 C 1.1287(18) 0.5576(10) 0.4066(9)
H16 H 1.1494 0.5842 0.4101
N60 N 0.7048(17) 0.6587(10) 0.3890(7)
C224 C 0.778(2) 0.6643(9) 0.3878(10)
H17 H 0.7982 0.6922 0.3888
C225 C 0.8213(14) 0.6292(12) 0.3851(9)
H18 H 0.8722 0.6321 0.3851
C226 C 0.7931(16) 0.5903(8) 0.3824(8)
C227 C 0.7205(19) 0.5849(9) 0.3823(9)
H19 H 0.7005 0.5570 0.3814
C228 C 0.6768(15) 0.6209(13) 0.3835(10)
H20 H 0.6268 0.6191 0.3805
N61 N 1.0584(8) 0.6248(5) 0.1066(9)
C229 C 0.9832(10) 0.6193(6) 0.1034(8)
N62 N 0.9486(10) 0.5789(5) 0.1018(8)
C230 C 0.9944(11) 0.5433(5) 0.1066(11)
N63 N 1.0697(8) 0.5458(6) 0.1048(11)
C231 C 1.0955(10) 0.5857(7) 0.1110(11)
C232 C 1.1764(8) 0.5874(13) 0.1157(9)
C233 C 1.2098(8) 0.6268(11) 0.1172(8)
H21 H 1.1813 0.6524 0.1181
C234 C 1.2825(9) 0.6292(9) 0.1176(9)
H22 H 1.3056 0.6565 0.1174
N64 N 1.3209(6) 0.5927(9) 0.1183(7)
C235 C 1.2927(10) 0.5546(9) 0.1132(11)
H23 H 1.3226 0.5312 0.1083
C236 C 1.2200(9) 0.5512(11) 0.1154(10)
H24 H 1.1987 0.5232 0.1167
N65 N 0.9096(13) 0.4204(6) 0.0953(6)
C237 C 0.9792(14) 0.4219(7) 0.1008(7)
H25 H 1.0087 0.3966 0.1015
C238 C 1.0064(16) 0.4609(8) 0.1054(8)
H26 H 1.0559 0.4627 0.1092
C239 C 0.9642(19) 0.4976(7) 0.1046(10)
C240 C 0.8923(18) 0.4936(6) 0.0983(10)
H27 H 0.8613 0.5183 0.0977
C241 C 0.8665(14) 0.4551(7) 0.0930(9)
H28 H 0.8182 0.4527 0.0877
N66 N 0.8526(14) 0.7325(6) 0.0976(7)
C242 C 0.8219(15) 0.6942(6) 0.0958(8)
H29 H 0.7716 0.6925 0.0934
C243 C 0.8634(19) 0.6578(6) 0.0975(9)
H30 H 0.8428 0.6307 0.0948
C244 C 0.9355(19) 0.6596(9) 0.1031(11)
C245 C 0.9657(15) 0.7005(9) 0.1016(11)
H31 H 1.0164 0.7031 0.1027
C246 C 0.9243(14) 0.7367(8) 0.0987(10)
H32 H 0.9455 0.7647 0.0973
N67 N 1.3144(13) 0.5342(9) 0.3858(3)
C247 C 1.3237(19) 0.5771(10) 0.3729(7)
H33 H 1.3117 0.6008 0.3833
C248 C 1.3500(17) 0.5849(8) 0.3455(6)
H34 H 1.3565 0.6138 0.3369
C249 C 1.3678(17) 0.5485(10) 0.3298(4)
C250 C 1.3560(17) 0.5065(10) 0.3429(6)
H35 H 1.3654 0.4820 0.3329
C251 C 1.330(2) 0.5009(9) 0.3713(7)
H36 H 1.3234 0.4722 0.3804
C252 C 1.3927(15) 0.5570(8) 0.2992(3)
C253 C 1.3741(17) 0.5963(7) 0.2837(5)
H37 H 1.3493 0.6183 0.2928
C254 C 1.3919(17) 0.6031(7) 0.2550(5)
H38 H 1.3809 0.6302 0.2446
C255 C 1.4257(17) 0.5703(8) 0.2412(3)
C256 C 1.4445(15) 0.5312(7) 0.2568(4)
H39 H 1.4684 0.5089 0.2476
C257 C 1.4285(17) 0.5249(7) 0.2856(5)
H40 H 1.4421 0.4984 0.2961
C258 C 1.434(2) 0.5756(10) 0.2093(3)
C259 C 1.434(2) 0.6175(8) 0.1951(5)
H41 H 1.4320 0.6421 0.2054
C260 C 1.436(2) 0.6232(8) 0.1656(6)
H42 H 1.4376 0.6517 0.1558
N68 N 1.4370(17) 0.5877(11) 0.1507(3)
C261 C 1.444(3) 0.5462(9) 0.1645(5)
H43 H 1.4499 0.5221 0.1540
C262 C 1.441(2) 0.5398(7) 0.1940(5)
H44 H 1.4434 0.5113 0.2036
N69 N 0.7135(15) 0.2850(9) 0.3524(4)
C263 C 0.7738(17) 0.2679(11) 0.3409(5)
H45 H 0.8098 0.2558 0.3530
C264 C 0.7847(16) 0.2674(11) 0.3109(7)
H46 H 0.8258 0.2535 0.3031
C265 C 0.7335(16) 0.2877(11) 0.2939(3)
C266 C 0.6695(16) 0.3047(11) 0.3061(5)
H47 H 0.6321 0.3164 0.2947
C267 C 0.6629(15) 0.3037(10) 0.3353(6)
H48 H 0.6214 0.3165 0.3435
C268 C 0.7481(14) 0.2927(9) 0.2621(3)
C269 C 0.8080(15) 0.2720(11) 0.2503(5)
H49 H 0.8372 0.2530 0.2620
C270 C 0.8249(15) 0.2794(12) 0.2216(5)
H50 H 0.8670 0.2664 0.2139
C271 C 0.7807(15) 0.3055(10) 0.2039(3)
C272 C 0.7189(15) 0.3242(11) 0.2154(5)
H51 H 0.6874 0.3412 0.2035
C273 C 0.7030(13) 0.3182(9) 0.2443(5)
H52 H 0.6611 0.3314 0.2519
C274 C 0.8028(15) 0.3187(11) 0.1729(4)
C275 C 0.8724(14) 0.3091(11) 0.1629(5)
H53 H 0.9057 0.2950 0.1753
C276 C 0.8932(14) 0.3204(13) 0.1345(6)
H54 H 0.9384 0.3107 0.1271
N70 N 0.8481(17) 0.3455(10) 0.1171(3)
C277 C 0.7775(16) 0.3525(13) 0.1263(5)
H55 H 0.7440 0.3654 0.1134
C278 C 0.7552(13) 0.3407(12) 0.1544(6)
H56 H 0.7077 0.3476 0.1610
N71 N 0.6445(17) 0.7335(10) 0.3568(4)
C279 C 0.600(2) 0.7195(13) 0.3381(8)
H57 H 0.5640 0.6988 0.3447
C280 C 0.6982(19) 0.7621(12) 0.3470(6)
H58 H 0.7311 0.7722 0.3593
C281 C 0.6051(19) 0.7341(11) 0.3101(5)
H59 H 0.5696 0.7253 0.2984
C282 C 0.6608(19) 0.7616(12) 0.2977(4)
C283 C 0.703(2) 0.7756(13) 0.3185(5)
H60 H 0.7380 0.7968 0.3122
C284 C 0.6686(15) 0.7709(11) 0.2663(3)
C285 C 0.6197(14) 0.7585(11) 0.2472(4)
H61 H 0.5738 0.7475 0.2539
C286 C 0.7304(15) 0.7944(12) 0.2557(4)
H62 H 0.7614 0.8057 0.2683
C287 C 0.6385(16) 0.7624(14) 0.2189(4)
H63 H 0.6085 0.7497 0.2066
C288 C 0.7016(16) 0.7848(12) 0.2076(3)
C289 C 0.7461(14) 0.8012(11) 0.2270(4)
H64 H 0.7878 0.8173 0.2201
C290 C 0.723(2) 0.7867(14) 0.1763(3)
C291 C 0.6812(17) 0.7668(13) 0.1576(4)
H65 H 0.6363 0.7540 0.1641
C292 C 0.7796(19) 0.8133(12) 0.1643(3)
H66 H 0.8026 0.8320 0.1755
C293 C 0.7055(17) 0.7658(14) 0.1296(4)
H67 H 0.6801 0.7491 0.1179
N72 N 0.7656(16) 0.7886(12) 0.1187(4)
C294 C 0.8025(19) 0.8126(14) 0.1360(4)
H68 H 0.8437 0.8287 0.1286
Pd7 Pd 1.26812(17) 0.52462(12) 0.42518(7)
N85 N 1.2287(14) 0.5139(10) 0.4650(4)
N86 N 1.3635(11) 0.5275(9) 0.4428(5)
C331 C 1.2903(19) 0.5033(15) 0.4831(9)
C332 C 1.355(2) 0.5317(16) 0.4729(6)
C333 C 1.181(3) 0.4769(14) 0.4675(8)
C334 C 1.188(3) 0.5523(15) 0.4712(8)
C335 C 1.4074(14) 0.4911(13) 0.4355(10)
C336 C 1.3990(18) 0.5673(13) 0.4318(11)
Pd8 Pd 0.70332(17) 0.29202(12) 0.39367(7)
N87 N 0.6873(16) 0.2970(9) 0.4350(4)
N88 N 0.6582(14) 0.2338(7) 0.4040(5)
C337 C 0.679(3) 0.2548(12) 0.4520(9)
C338 C 0.629(2) 0.2344(16) 0.4331(7)
C339 C 0.629(2) 0.3286(14) 0.4382(7)
C340 C 0.752(3) 0.314(2) 0.4451(7)
C341 C 0.5979(18) 0.2293(11) 0.3870(9)
C342 C 0.710(3) 0.2004(6) 0.3970(12)
Pd9 Pd 0.6397(2) 0.70982(16) 0.39727(11)
N89 N 0.628(3) 0.6877(14) 0.4381(4)
N90 N 0.578(2) 0.7593(11) 0.4087(7)
C343 C 0.597(3) 0.7187(18) 0.4562(12)
C344 C 0.551(4) 0.750(3) 0.4377(9)
C345 C 0.698(3) 0.687(3) 0.4497(9)
C346 C 0.590(4) 0.6467(18) 0.4405(11)
C347 C 0.624(3) 0.7969(10) 0.4078(17)
C348 C 0.519(3) 0.765(2) 0.3900(14)
Pd10 Pd 0.8034(4) 0.7834(3) 0.07881(13)
Pd11 Pd 0.8798(3) 0.3704(2) 0.07753(9)
Pd12 Pd 1.4242(3) 0.5984(2) 0.10897(10)
N91 N 0.841(3) 0.7858(19) 0.0385(5)
N92 N 0.758(3) 0.8405(10) 0.0650(12)
C349 C 0.837(4) 0.832(2) 0.0273(10)
C350 C 0.757(4) 0.840(2) 0.0340(10)
C351 C 0.796(5) 0.760(3) 0.0224(8)
C352 C 0.916(4) 0.771(3) 0.034(2)
C353 C 0.803(5) 0.8771(7) 0.071(2)
C354 C 0.684(4) 0.850(3) 0.0754(17)
N93 N 0.922(3) 0.3930(12) 0.0393(5)
N94 N 0.851(2) 0.3171(9) 0.0616(6)
C355 C 0.892(4) 0.367(2) 0.0194(5)
C356 C 0.871(4) 0.3215(18) 0.0320(8)
C357 C 0.998(3) 0.381(3) 0.0354(12)
C358 C 0.886(4) 0.4328(19) 0.0278(10)
C359 C 0.881(4) 0.2770(7) 0.0748(14)
C360 C 0.774(2) 0.3115(15) 0.0606(11)
N95 N 1.412(2) 0.6090(15) 0.0672(4)
N96 N 1.5313(11) 0.5999(13) 0.1003(7)
C361 C 1.483(3) 0.624(3) 0.0549(7)
C362 C 1.542(2) 0.597(3) 0.0701(8)
C363 C 1.375(5) 0.650(2) 0.0595(10)
C364 C 1.403(4) 0.568(2) 0.0552(8)
C365 C 1.5644(18) 0.6379(18) 0.1100(14)
C366 C 1.5681(16) 0.5611(17) 0.1127(13)
O73 O 0.9878(18) 0.4591(11) 0.4702(7)
N97 N 0.405(4) 0.280(2) 0.4091(17)
O74 O 0.396(3) 0.2868(19) 0.3877(14)
O75 O 0.464(2) 0.2956(14) 0.4229(9)
O76 O 0.360(4) 0.273(2) 0.4330(15)
O77 O 0.972(6) 0.187(4) 0.113(2)
O78 O 0.974(3) 0.175(2) 0.2292(14)
O79 O 0.922(4) 0.200(3) 0.2929(17)
O80 O 0.835(5) 0.164(3) 0.3409(18)
N98 N 0.296(4) 0.018(2) 0.4445(14)
O81 O 0.260(3) -0.0173(19) 0.4443(11)
O82 O 0.258(2) 0.0648(14) 0.4446(9)
O83 O 0.361(3) 0.0157(17) 0.4467(11)
loop_
_geom_bond_atom_site_label_1
_geom_bond_atom_site_label_2
_geom_bond_site_symmetry_1
_geom_bond_site_symmetry_2
Au1 N2 1_555 1_555
Au2 N1 1_555 1_555
Au3 N3 1_555 1_555
N1 N2 1_555 1_555
N2 C1 1_555 1_555
C1 C2 1_555 1_555
C2 C3 1_555 1_555
C3 N1 1_555 1_555
C4 C3 1_555 1_555
O1 C5 1_555 1_555
O2 C6 1_555 1_555
O3 C4 1_555 1_555
O4 C4 1_555 1_555
C6 C1 1_555 1_555
C7 O3 1_555 1_555
N3 C8 1_555 1_555
C8 C10 1_555 1_555
O5 C9 1_555 1_555
O6 C10 1_555 1_555
C10 O5 1_555 1_555
N4 Au2 1_555 1_555
C11 N4 1_555 1_555
C12 C8 1_555 1_555
O7 C13 1_555 1_555
O8 C14 1_555 1_555
C14 C11 1_555 1_555
N5 Au3 1_555 1_555
N6 Au1 1_555 1_555
C15 N5 1_555 1_555
C16 C15 1_555 1_555
C17 O9 1_555 1_555
C18 C15 1_555 1_555
O9 C18 1_555 1_555
O10 C18 1_555 1_555
C19 N6 1_555 1_555
O11 C20 1_555 1_555
O12 C21 1_555 1_555
C21 C19 1_555 1_555
Au4 N7 1_555 1_555
Au5 N8 1_555 1_555
Au6 N10 1_555 1_555
N7 C23 1_555 1_555
C22 C23 1_555 1_555
C23 C25 1_555 1_555
C24 O13 1_555 1_555
C25 O13 1_555 1_555
O14 C25 1_555 1_555
N8 N7 1_555 1_555
C26 C22 1_555 1_555
C27 O15 1_555 1_555
C28 C26 1_555 1_555
O15 C28 1_555 1_555
O16 C28 1_555 1_555
N9 Au5 1_555 1_555
C29 H1 1_555 1_555
C30 N9 1_555 1_555
O17 C31 1_555 1_555
O18 C32 1_555 1_555
C32 C30 1_555 1_555
N10 N9 1_555 1_555
C33 C29 1_555 1_555
O19 C34 1_555 1_555
O20 C35 1_555 1_555
C35 C33 1_555 1_555
N11 Au6 1_555 1_555
C36 C37 1_555 1_555
C37 N11 1_555 1_555
C38 O21 1_555 1_555
C39 C37 1_555 1_555
O21 C39 1_555 1_555
O22 C39 1_555 1_555
N12 Au4 1_555 1_555
C40 C36 1_555 1_555
O23 C41 1_555 1_555
O24 C42 1_555 1_555
C42 C40 1_555 1_555
Au7 N13 1_555 1_555
Au8 N14 1_555 1_555
Au9 N16 1_555 1_555
N13 N14 1_555 1_555
N14 C43 1_555 1_555
C43 C44 1_555 1_555
C44 C45 1_555 1_555
C45 N13 1_555 1_555
O25 C46 1_555 1_555
O26 C47 1_555 1_555
C47 C43 1_555 1_555
N15 Au8 1_555 1_555
N16 N15 1_555 1_555
C48 N16 1_555 1_555
C49 C48 1_555 1_555
C50 N15 1_555 1_555
O27 C51 1_555 1_555
O28 C52 1_555 1_555
C52 C50 1_555 1_555
C53 C45 1_555 1_555
N17 Au9 1_555 1_555
N18 Au7 1_555 1_555
C54 N18 1_555 1_555
C55 C54 1_555 1_555
C56 N17 1_555 1_555
O29 C53 1_555 1_555
O30 C53 1_555 1_555
O31 C58 1_555 1_555
O32 C59 1_555 1_555
O33 C60 1_555 1_555
O34 C61 1_555 1_555
O35 C62 1_555 1_555
O36 C63 1_555 1_555
C57 O29 1_555 1_555
C58 H2 1_555 1_555
C59 C48 1_555 1_555
C61 C56 1_555 1_555
C63 C54 1_555 1_555
Au10 N20 1_555 1_555
Au11 N19 1_555 1_555
Au12 N21 1_555 1_555
N19 N20 1_555 1_555
N20 C64 1_555 1_555
C64 C65 1_555 1_555
C65 C66 1_555 1_555
C66 N19 1_555 1_555
N21 N22 1_555 1_555
N22 Au11 1_555 1_555
C67 N22 1_555 1_555
C68 C67 1_555 1_555
C69 N21 1_555 1_555
C70 C67 1_555 1_555
N23 Au12 1_555 1_555
N24 Au10 1_555 1_555
C71 N23 1_555 1_555
C72 C71 1_555 1_555
C73 N24 1_555 1_555
O37 C74 1_555 1_555
O38 C74 1_555 1_555
C74 C64 1_555 1_555
C75 O37 1_555 1_555
O39 C76 1_555 1_555
O40 C76 1_555 1_555
C76 C66 1_555 1_555
C77 O40 1_555 1_555
O41 C70 1_555 1_555
O42 C70 1_555 1_555
C78 O41 1_555 1_555
O43 C79 1_555 1_555
O44 C79 1_555 1_555
C79 C69 1_555 1_555
C80 O43 1_555 1_555
O45 C81 1_555 1_555
O46 C81 1_555 1_555
C81 C71 1_555 1_555
C82 O45 1_555 1_555
O47 C83 1_555 1_555
O48 C83 1_555 1_555
C83 C73 1_555 1_555
C84 O47 1_555 1_555
Au13 N26 1_555 1_555
Au14 N25 1_555 1_555
Au15 N27 1_555 1_555
N25 N26 1_555 1_555
N26 C85 1_555 1_555
C85 C86 1_555 1_555
C86 C87 1_555 1_555
C87 N25 1_555 1_555
O49 C88 1_555 1_555
O50 C88 1_555 1_555
C88 C87 1_555 1_555
C89 O49 1_555 1_555
N27 N28 1_555 1_555
N28 Au14 1_555 1_555
C90 N28 1_555 1_555
C91 C90 1_555 1_555
C92 N27 1_555 1_555
O51 C93 1_555 1_555
O52 C93 1_555 1_555
C93 C90 1_555 1_555
C94 O51 1_555 1_555
N29 Au13 1_555 1_555
N30 Au15 1_555 1_555
C95 N30 1_555 1_555
C96 C95 1_555 1_555
C97 N29 1_555 1_555
O53 C98 1_555 1_555
O54 C98 1_555 1_555
C98 C97 1_555 1_555
C99 O53 1_555 1_555
O55 C100 1_555 1_555
O56 C100 1_555 1_555
C100 C85 1_555 1_555
C101 O55 1_555 1_555
O57 C102 1_555 1_555
O58 C102 1_555 1_555
C102 C92 1_555 1_555
C103 O57 1_555 1_555
O59 C104 1_555 1_555
O60 C104 1_555 1_555
C104 C95 1_555 1_555
C105 O59 1_555 1_555
Au16 N31 1_555 1_555
Au17 N32 1_555 1_555
Au18 N34 1_555 1_555
N31 N32 1_555 1_555
N32 C106 1_555 1_555
C106 C107 1_555 1_555
C107 C108 1_555 1_555
C108 N31 1_555 1_555
N33 Au17 1_555 1_555
N34 N33 1_555 1_555
C109 N34 1_555 1_555
C110 C109 1_555 1_555
C111 N33 1_555 1_555
N35 Au18 1_555 1_555
N36 Au16 1_555 1_555
C112 N36 1_555 1_555
C113 C112 1_555 1_555
C114 N35 1_555 1_555
O61 C115 1_555 1_555
O62 C115 1_555 1_555
C115 C108 1_555 1_555
C116 O61 1_555 1_555
O63 C117 1_555 1_555
O64 C117 1_555 1_555
C117 C106 1_555 1_555
C118 O63 1_555 1_555
O65 C119 1_555 1_555
O66 C119 1_555 1_555
C119 C111 1_555 1_555
C120 O65 1_555 1_555
O67 C121 1_555 1_555
O68 C121 1_555 1_555
C121 C109 1_555 1_555
C122 O67 1_555 1_555
O69 C123 1_555 1_555
O70 C123 1_555 1_555
C123 C114 1_555 1_555
C124 O69 1_555 1_555
O71 C125 1_555 1_555
O72 C125 1_555 1_555
C125 C112 1_555 1_555
C126 O71 1_555 1_555
C127 N37 1_555 1_555
N37 C128 1_555 1_555
C128 N38 1_555 1_555
N38 C129 1_555 1_555
C129 N39 1_555 1_555
N39 C127 1_555 1_555
N40 C130 1_555 1_555
C130 C131 1_555 1_555
C131 C132 1_555 1_555
C132 C128 1_555 1_555
C133 C132 1_555 1_555
C134 N40 1_555 1_555
N41 C135 1_555 1_555
C135 C136 1_555 1_555
C136 C137 1_555 1_555
C137 C129 1_555 1_555
C138 C137 1_555 1_555
C139 N41 1_555 1_555
N42 C140 1_555 1_555
C140 C141 1_555 1_555
C141 C142 1_555 1_555
C142 C127 1_555 1_555
C143 C142 1_555 1_555
C144 N42 1_555 1_555
C145 N43 1_555 1_555
N43 C146 1_555 1_555
C146 N44 1_555 1_555
N44 C147 1_555 1_555
C147 N45 1_555 1_555
N45 C145 1_555 1_555
N46 C148 1_555 1_555
C148 C149 1_555 1_555
C149 C150 1_555 1_555
C150 C147 1_555 1_555
C151 C150 1_555 1_555
C152 N46 1_555 1_555
N47 C153 1_555 1_555
C153 C154 1_555 1_555
C154 C155 1_555 1_555
C155 C145 1_555 1_555
C156 C155 1_555 1_555
C157 N47 1_555 1_555
N48 C158 1_555 1_555
C158 C159 1_555 1_555
C159 C160 1_555 1_555
C160 C146 1_555 1_555
C161 C160 1_555 1_555
C162 N48 1_555 1_555
N49 C163 1_555 1_555
C163 C164 1_555 1_555
C164 C165 1_555 1_555
C165 C166 1_555 1_555
C166 C167 1_555 1_555
C167 N49 1_555 1_555
C168 C165 1_555 1_555
C169 C168 1_555 1_555
C170 C169 1_555 1_555
C171 C170 1_555 1_555
C172 C171 1_555 1_555
C173 C168 1_555 1_555
C174 C171 1_555 1_555
C175 C174 1_555 1_555
C176 C175 1_555 1_555
N50 C176 1_555 1_555
C177 N50 1_555 1_555
C178 C174 1_555 1_555
N51 C179 1_555 1_555
C179 C180 1_555 1_555
C180 C181 1_555 1_555
C181 C182 1_555 1_555
C182 C183 1_555 1_555
C183 N51 1_555 1_555
C184 C181 1_555 1_555
C185 C184 1_555 1_555
C186 C185 1_555 1_555
C187 C186 1_555 1_555
C188 C187 1_555 1_555
C189 C184 1_555 1_555
C190 C187 1_555 1_555
C191 C190 1_555 1_555
C192 C191 1_555 1_555
N52 C192 1_555 1_555
C193 N52 1_555 1_555
C194 C190 1_555 1_555
N53 C195 1_555 1_555
C195 C197 1_555 1_555
C196 N53 1_555 1_555
C197 C198 1_555 1_555
C198 C199 1_555 1_555
C199 C196 1_555 1_555
C200 C201 1_555 1_555
C201 C203 1_555 1_555
C202 C200 1_555 1_555
C203 H3 1_555 1_555
N54 C203 1_555 1_555
C204 C202 1_555 1_555
H4 C204 1_555 1_555
C205 C198 1_555 1_555
C206 C205 1_555 1_555
H5 C206 1_555 1_555
C207 C205 1_555 1_555
H6 C207 1_555 1_555
C208 C206 1_555 1_555
H7 C208 1_555 1_555
C209 C200 1_555 1_555
C210 C207 1_555 1_555
H8 C210 1_555 1_555
C211 N55 1_555 1_555
N55 C212 1_555 1_555
C212 N56 1_555 1_555
N56 C213 1_555 1_555
C213 N57 1_555 1_555
N57 C211 1_555 1_555
N58 C214 1_555 1_555
C214 H9 1_555 1_555
C215 C214 1_555 1_555
H10 C215 1_555 1_555
C216 C211 1_555 1_555
C217 C216 1_555 1_555
H11 C217 1_555 1_555
C218 N58 1_555 1_555
H12 C218 1_555 1_555
N59 C219 1_555 1_555
C219 H13 1_555 1_555
C220 C219 1_555 1_555
H14 C220 1_555 1_555
C221 C213 1_555 1_555
C222 C221 1_555 1_555
H15 C222 1_555 1_555
C223 N59 1_555 1_555
H16 C223 1_555 1_555
N60 C224 1_555 1_555
C224 H17 1_555 1_555
C225 C224 1_555 1_555
H18 C225 1_555 1_555
C226 C212 1_555 1_555
C227 C226 1_555 1_555
H19 C227 1_555 1_555
C228 N60 1_555 1_555
H20 C228 1_555 1_555
N61 C229 1_555 1_555
C229 N62 1_555 1_555
N62 C230 1_555 1_555
C230 N63 1_555 1_555
N63 C231 1_555 1_555
C231 N61 1_555 1_555
C232 C231 1_555 1_555
C233 C232 1_555 1_555
H21 C233 1_555 1_555
C234 C233 1_555 1_555
H22 C234 1_555 1_555
N64 C234 1_555 1_555
C235 N64 1_555 1_555
H23 C235 1_555 1_555
C236 C232 1_555 1_555
H24 C236 1_555 1_555
N65 C237 1_555 1_555
C237 H25 1_555 1_555
C238 C237 1_555 1_555
H26 C238 1_555 1_555
C239 C230 1_555 1_555
C240 C239 1_555 1_555
H27 C240 1_555 1_555
C241 N65 1_555 1_555
H28 C241 1_555 1_555
N66 C242 1_555 1_555
C242 H29 1_555 1_555
C243 C242 1_555 1_555
H30 C243 1_555 1_555
C244 C229 1_555 1_555
C245 C244 1_555 1_555
H31 C245 1_555 1_555
C246 N66 1_555 1_555
H32 C246 1_555 1_555
N67 C247 1_555 1_555
C247 H33 1_555 1_555
C248 C247 1_555 1_555
H34 C248 1_555 1_555
C249 C248 1_555 1_555
C250 C249 1_555 1_555
H35 C250 1_555 1_555
C251 N67 1_555 1_555
H36 C251 1_555 1_555
C252 C249 1_555 1_555
C253 C252 1_555 1_555
H37 C253 1_555 1_555
C254 C253 1_555 1_555
H38 C254 1_555 1_555
C255 C254 1_555 1_555
C256 C255 1_555 1_555
H39 C256 1_555 1_555
C257 C252 1_555 1_555
H40 C257 1_555 1_555
C258 C255 1_555 1_555
C259 C258 1_555 1_555
H41 C259 1_555 1_555
C260 C259 1_555 1_555
H42 C260 1_555 1_555
N68 C260 1_555 1_555
C261 N68 1_555 1_555
H43 C261 1_555 1_555
C262 C258 1_555 1_555
H44 C262 1_555 1_555
N69 C263 1_555 1_555
C263 H45 1_555 1_555
C264 C263 1_555 1_555
H46 C264 1_555 1_555
C265 C264 1_555 1_555
C266 C265 1_555 1_555
H47 C266 1_555 1_555
C267 N69 1_555 1_555
H48 C267 1_555 1_555
C268 C265 1_555 1_555
C269 C268 1_555 1_555
H49 C269 1_555 1_555
C270 C269 1_555 1_555
H50 C270 1_555 1_555
C271 C270 1_555 1_555
C272 C271 1_555 1_555
H51 C272 1_555 1_555
C273 C268 1_555 1_555
H52 C273 1_555 1_555
C274 C271 1_555 1_555
C275 C274 1_555 1_555
H53 C275 1_555 1_555
C276 C275 1_555 1_555
H54 C276 1_555 1_555
N70 C276 1_555 1_555
C277 N70 1_555 1_555
H55 C277 1_555 1_555
C278 C274 1_555 1_555
H56 C278 1_555 1_555
N71 C279 1_555 1_555
C279 H57 1_555 1_555
C280 N71 1_555 1_555
H58 C280 1_555 1_555
C281 C279 1_555 1_555
H59 C281 1_555 1_555
C282 C281 1_555 1_555
C283 C280 1_555 1_555
H60 C283 1_555 1_555
C284 C282 1_555 1_555
C285 C284 1_555 1_555
H61 C285 1_555 1_555
C286 C284 1_555 1_555
H62 C286 1_555 1_555
C287 C285 1_555 1_555
H63 C287 1_555 1_555
C288 C287 1_555 1_555
C289 C286 1_555 1_555
H64 C289 1_555 1_555
C290 C288 1_555 1_555
C291 C290 1_555 1_555
H65 C291 1_555 1_555
C292 C290 1_555 1_555
H66 C292 1_555 1_555
C293 C291 1_555 1_555
H67 C293 1_555 1_555
N72 C293 1_555 1_555
C294 C292 1_555 1_555
H68 C294 1_555 1_555
Pd1 N41 1_555 1_555
N73 Pd1 1_555 1_555
N74 Pd1 1_555 1_555
C295 N73 1_555 1_555
C296 N74 1_555 1_555
C297 N73 1_555 1_555
C298 N73 1_555 1_555
C299 N74 1_555 1_555
C300 N74 1_555 1_555
Pd2 N42 1_555 1_555
N75 Pd2 1_555 1_555
N76 Pd2 1_555 1_555
C301 N75 1_555 1_555
C302 N76 1_555 1_555
C303 N75 1_555 1_555
C304 N75 1_555 1_555
C305 N76 1_555 1_555
C306 N76 1_555 1_555
Pd3 N40 1_555 1_555
N77 Pd3 1_555 1_555
N78 Pd3 1_555 1_555
C307 N77 1_555 1_555
C308 N78 1_555 1_555
C309 N77 1_555 1_555
C310 N77 1_555 1_555
C311 N78 1_555 1_555
C312 N78 1_555 1_555
Pd4 N46 1_555 1_555
N79 Pd4 1_555 1_555
N80 Pd4 1_555 1_555
C313 N79 1_555 1_555
C314 N80 1_555 1_555
C315 N79 1_555 1_555
C316 N79 1_555 1_555
C317 N80 1_555 1_555
C318 N80 1_555 1_555
Pd5 N48 1_555 1_555
N81 Pd5 1_555 1_555
N82 Pd5 1_555 1_555
C319 N81 1_555 1_555
C320 N82 1_555 1_555
C321 N81 1_555 1_555
C322 N81 1_555 1_555
C323 N82 1_555 1_555
C324 N82 1_555 1_555
Pd6 N47 1_555 1_555
N83 Pd6 1_555 1_555
N84 Pd6 1_555 1_555
C325 N83 1_555 1_555
C326 N84 1_555 1_555
C327 N83 1_555 1_555
C328 N83 1_555 1_555
C329 N84 1_555 1_555
C330 N84 1_555 1_555
Pd7 N59 1_555 1_555
N85 Pd7 1_555 1_555
N86 Pd7 1_555 1_555
C331 N85 1_555 1_555
C332 N86 1_555 1_555
C333 N85 1_555 1_555
C334 N85 1_555 1_555
C335 N86 1_555 1_555
C336 N86 1_555 1_555
Pd8 N58 1_555 1_555
N87 Pd8 1_555 1_555
N88 Pd8 1_555 1_555
C337 N87 1_555 1_555
C338 N88 1_555 1_555
C339 N87 1_555 1_555
C340 N87 1_555 1_555
C341 N88 1_555 1_555
C342 N88 1_555 1_555
Pd9 N60 1_555 1_555
N89 Pd9 1_555 1_555
N90 Pd9 1_555 1_555
C343 N89 1_555 1_555
C344 N90 1_555 1_555
C345 N89 1_555 1_555
C346 N89 1_555 1_555
C347 N90 1_555 1_555
C348 N90 1_555 1_555
Pd10 N66 1_555 1_555
Pd11 N65 1_555 1_555
Pd12 N64 1_555 1_555
N91 Pd10 1_555 1_555
N92 Pd10 1_555 1_555
C349 N91 1_555 1_555
C350 N92 1_555 1_555
C351 N91 1_555 1_555
C352 N91 1_555 1_555
C353 N92 1_555 1_555
C354 N92 1_555 1_555
N93 Pd11 1_555 1_555
N94 Pd11 1_555 1_555
C355 N93 1_555 1_555
C356 N94 1_555 1_555
C357 N93 1_555 1_555
C358 N93 1_555 1_555
C359 N94 1_555 1_555
C360 N94 1_555 1_555
N95 Pd12 1_555 1_555
N96 Pd12 1_555 1_555
C361 N95 1_555 1_555
C362 N96 1_555 1_555
C363 N95 1_555 1_555
C364 N95 1_555 1_555
C365 N96 1_555 1_555
C366 N96 1_555 1_555
N97 O74 1_555 1_555
O75 N97 1_555 1_555
O76 N97 1_555 1_555
N98 O81 1_555 1_555
O82 N98 1_555 1_555
O83 N98 1_555 1_555
O1 C6 1_555 1_555
N3 N4 1_555 1_555
C11 C12 1_555 1_555
O7 C14 1_555 1_555
N5 N6 1_555 1_555
C16 C19 1_555 1_555
O11 C21 1_555 1_555
N8 C26 1_555 1_555
C29 C30 1_555 1_555
O17 C32 1_555 1_555
N10 C33 1_555 1_555
O19 C35 1_555 1_555
N11 N12 1_555 1_555
N12 C40 1_555 1_555
O23 C42 1_555 1_555
O25 C47 1_555 1_555
C49 C50 1_555 1_555
O27 C52 1_555 1_555
N17 N18 1_555 1_555
C55 C56 1_555 1_555
O31 C59 1_555 1_555
O33 C61 1_555 1_555
O35 C63 1_555 1_555
C68 C69 1_555 1_555
N23 N24 1_555 1_555
C72 C73 1_555 1_555
C91 C92 1_555 1_555
N29 N30 1_555 1_555
C96 C97 1_555 1_555
C110 C111 1_555 1_555
N35 N36 1_555 1_555
C113 C114 1_555 1_555
C133 C134 1_555 1_555
C138 C139 1_555 1_555
C143 C144 1_555 1_555
C151 C152 1_555 1_555
C156 C157 1_555 1_555
C161 C162 1_555 1_555
N49 Pd4 1_555 1_555
C172 C173 1_555 1_555
N50 Pd1 1_555 1_555
C177 C178 1_555 1_555
N51 Pd5 1_555 1_555
C188 C189 1_555 1_555
N52 Pd2 1_555 1_555
C193 C194 1_555 1_555
N53 Pd6 1_555 1_555
N54 C204 1_555 1_555
N54 Pd3 1_555 1_555
C208 C209 1_555 1_555
C209 C210 1_555 1_555
C215 C216 1_555 1_555
C217 C218 1_555 1_555
C220 C221 1_555 1_555
C222 C223 1_555 1_555
C225 C226 1_555 1_555
C227 C228 1_555 1_555
C235 C236 1_555 1_555
C238 C239 1_555 1_555
C240 C241 1_555 1_555
C243 C244 1_555 1_555
C245 C246 1_555 1_555
N67 Pd7 1_555 1_555
C250 C251 1_555 1_555
C256 C257 1_555 1_555
N68 Pd12 1_555 1_555
C261 C262 1_555 1_555
N69 Pd8 1_555 1_555
C266 C267 1_555 1_555
C272 C273 1_555 1_555
N70 Pd11 1_555 1_555
C277 C278 1_555 1_555
N71 Pd9 1_555 1_555
C282 C283 1_555 1_555
C288 C289 1_555 1_555
N72 C294 1_555 1_555
N72 Pd10 1_555 1_555
C295 C296 1_555 1_555
C301 C302 1_555 1_555
C307 C308 1_555 1_555
C313 C314 1_555 1_555
C319 C320 1_555 1_555
C325 C326 1_555 1_555
C331 C332 1_555 1_555
C337 C338 1_555 1_555
C343 C344 1_555 1_555
C349 C350 1_555 1_555
C355 C356 1_555 1_555
C361 C362 1_555 1_555

#END
