# generated using pymatgen
data_H68Pd12Au18C366N98O83
_symmetry_space_group_name_H-M   'P 1'
_cell_length_a   18.57100000
_cell_length_b   30.94400000
_cell_length_c   47.85000000
_cell_angle_alpha   83.51500000
_cell_angle_beta   87.05100000
_cell_angle_gamma   89.23700000
_symmetry_Int_Tables_number   1
_chemical_formula_structural   H68Pd12Au18C366N98O83
_chemical_formula_sum   'H136 Pd24 Au36 C732 N196 O166'
_cell_volume   27284.62397576
_cell_formula_units_Z   2
loop_
 _symmetry_equiv_pos_site_id
 _symmetry_equiv_pos_as_xyz
  1  'x, y, z'
loop_
 _atom_site_type_symbol
 _atom_site_label
 _atom_site_symmetry_multiplicity
 _atom_site_fract_x
 _atom_site_fract_y
 _atom_site_fract_z
 _atom_site_occupancy
  H  H1  1  0.285000  0.899000  0.237000  1
  H  H2  1  0.715000  0.101000  0.763000  1
  H  H3  1  0.156700  0.047400  0.163800  1
  H  H4  1  0.843300  0.952600  0.836200  1
  H  H5  1  0.310100  0.298700  0.353400  1
  H  H6  1  0.689900  0.701300  0.646600  1
  H  H7  1  0.123400  0.239400  0.339200  1
  H  H8  1  0.876600  0.760600  0.660800  1
  H  H9  1  0.367500  0.342000  0.215900  1
  H  H10  1  0.632500  0.658000  0.784100  1
  H  H11  1  0.186900  0.273500  0.205600  1
  H  H12  1  0.813100  0.726500  0.794400  1
  H  H13  1  0.344600  0.336300  0.261300  1
  H  H14  1  0.655400  0.663700  0.738700  1
  H  H15  1  0.158200  0.275500  0.249300  1
  H  H16  1  0.841800  0.724500  0.750700  1
  H  H17  1  0.661400  0.385100  0.381600  1
  H  H18  1  0.338600  0.614900  0.618400  1
  H  H19  1  0.714100  0.453700  0.377200  1
  H  H20  1  0.285900  0.546300  0.622800  1
  H  H21  1  0.906200  0.395700  0.387100  1
  H  H22  1  0.093800  0.604300  0.612900  1
  H  H23  1  0.853800  0.328000  0.389800  1
  H  H24  1  0.146200  0.672000  0.610200  1
  H  H25  1  0.166600  0.455700  0.409400  1
  H  H26  1  0.833400  0.544300  0.590600  1
  H  H27  1  0.049700  0.455700  0.391600  1
  H  H28  1  0.950300  0.544300  0.608400  1
  H  H29  1  0.031000  0.583300  0.394700  1
  H  H30  1  0.969000  0.416700  0.605300  1
  H  H31  1  0.149400  0.584200  0.410100  1
  H  H32  1  0.850600  0.415800  0.589900  1
  H  H33  1  0.798200  0.692200  0.388800  1
  H  H34  1  0.201800  0.307800  0.611200  1
  H  H35  1  0.872200  0.632100  0.385100  1
  H  H36  1  0.127800  0.367900  0.614900  1
  H  H37  1  0.700500  0.557000  0.381400  1
  H  H38  1  0.299500  0.443000  0.618600  1
  H  H39  1  0.626800  0.619100  0.380500  1
  H  H40  1  0.373200  0.380900  0.619500  1
  H  H41  1  0.181300  0.652400  0.118100  1
  H  H42  1  0.818700  0.347600  0.881900  1
  H  H43  1  0.305600  0.656500  0.117400  1
  H  H44  1  0.694400  0.343500  0.882600  1
  H  H45  1  0.322600  0.531200  0.108300  1
  H  H46  1  0.677400  0.468800  0.891700  1
  H  H47  1  0.198700  0.523200  0.116700  1
  H  H48  1  0.801300  0.476800  0.883300  1
  H  H49  1  0.008700  0.396600  0.101500  1
  H  H50  1  0.991300  0.603400  0.898500  1
  H  H51  1  0.055900  0.462700  0.109200  1
  H  H52  1  0.944100  0.537300  0.890800  1
  H  H53  1  0.861300  0.518300  0.097700  1
  H  H54  1  0.138700  0.481700  0.902300  1
  H  H55  1  0.818200  0.452700  0.087700  1
  H  H56  1  0.181800  0.547300  0.912300  1
  H  H57  1  0.771600  0.692500  0.093400  1
  H  H58  1  0.228400  0.307500  0.906600  1
  H  H59  1  0.842800  0.630700  0.094800  1
  H  H60  1  0.157200  0.369300  0.905200  1
  H  H61  1  0.016400  0.703100  0.102700  1
  H  H62  1  0.983600  0.296900  0.897300  1
  H  H63  1  0.945500  0.764700  0.097300  1
  H  H64  1  0.054500  0.235300  0.902700  1
  H  H65  1  0.311700  0.600800  0.383300  1
  H  H66  1  0.688300  0.399200  0.616700  1
  H  H67  1  0.356500  0.613800  0.336900  1
  H  H68  1  0.643500  0.386200  0.663100  1
  H  H69  1  0.365400  0.482000  0.332900  1
  H  H70  1  0.634600  0.518000  0.667100  1
  H  H71  1  0.323400  0.472200  0.380400  1
  H  H72  1  0.676600  0.527800  0.619600  1
  H  H73  1  0.349300  0.618300  0.292800  1
  H  H74  1  0.650700  0.381700  0.707200  1
  H  H75  1  0.380900  0.630200  0.244600  1
  H  H76  1  0.619100  0.369800  0.755400  1
  H  H77  1  0.468400  0.508900  0.247600  1
  H  H78  1  0.531600  0.491100  0.752400  1
  H  H79  1  0.442100  0.498400  0.296100  1
  H  H80  1  0.557900  0.501600  0.703900  1
  H  H81  1  0.432000  0.642100  0.205400  1
  H  H82  1  0.568000  0.357900  0.794600  1
  H  H83  1  0.437600  0.651700  0.155800  1
  H  H84  1  0.562400  0.348300  0.844200  1
  H  H85  1  0.449900  0.522100  0.154000  1
  H  H86  1  0.550100  0.477900  0.846000  1
  H  H87  1  0.443400  0.511300  0.203600  1
  H  H88  1  0.556600  0.488700  0.796400  1
  H  H89  1  0.809800  0.255800  0.353000  1
  H  H90  1  0.190200  0.744200  0.647000  1
  H  H91  1  0.825800  0.253500  0.303100  1
  H  H92  1  0.174200  0.746500  0.696900  1
  H  H93  1  0.632100  0.316400  0.294700  1
  H  H94  1  0.367900  0.683600  0.705300  1
  H  H95  1  0.621400  0.316500  0.343500  1
  H  H96  1  0.378600  0.683500  0.656500  1
  H  H97  1  0.837200  0.253000  0.262000  1
  H  H98  1  0.162800  0.747000  0.738000  1
  H  H99  1  0.867000  0.266400  0.213900  1
  H  H100  1  0.133000  0.733600  0.786100  1
  H  H101  1  0.687400  0.341200  0.203500  1
  H  H102  1  0.312600  0.658800  0.796500  1
  H  H103  1  0.661100  0.331400  0.251900  1
  H  H104  1  0.338900  0.668600  0.748100  1
  H  H105  1  0.905700  0.295000  0.175300  1
  H  H106  1  0.094300  0.705000  0.824700  1
  H  H107  1  0.938400  0.310700  0.127100  1
  H  H108  1  0.061600  0.689300  0.872900  1
  H  H109  1  0.744000  0.365400  0.113400  1
  H  H110  1  0.256000  0.634600  0.886600  1
  H  H111  1  0.707700  0.347600  0.161000  1
  H  H112  1  0.292300  0.652400  0.839000  1
  H  H113  1  0.564000  0.698800  0.344700  1
  H  H114  1  0.436000  0.301200  0.655300  1
  H  H115  1  0.731100  0.772200  0.359300  1
  H  H116  1  0.268900  0.227800  0.640700  1
  H  H117  1  0.569600  0.725300  0.298400  1
  H  H118  1  0.430400  0.274700  0.701600  1
  H  H119  1  0.738000  0.796800  0.312200  1
  H  H120  1  0.262000  0.203200  0.687800  1
  H  H121  1  0.573800  0.747500  0.253900  1
  H  H122  1  0.426200  0.252500  0.746100  1
  H  H123  1  0.761400  0.805700  0.268300  1
  H  H124  1  0.238600  0.194300  0.731700  1
  H  H125  1  0.608500  0.749700  0.206600  1
  H  H126  1  0.391500  0.250300  0.793400  1
  H  H127  1  0.787800  0.817300  0.220100  1
  H  H128  1  0.212200  0.182700  0.779900  1
  H  H129  1  0.636300  0.754000  0.164100  1
  H  H130  1  0.363700  0.246000  0.835900  1
  H  H131  1  0.802600  0.832000  0.175500  1
  H  H132  1  0.197400  0.168000  0.824500  1
  H  H133  1  0.680100  0.749100  0.117900  1
  H  H134  1  0.319900  0.250900  0.882100  1
  H  H135  1  0.843700  0.828700  0.128600  1
  H  H136  1  0.156300  0.171300  0.871400  1
  Pd  Pd137  1  0.770140  0.996270  0.427410  1
  Pd  Pd138  1  0.229860  0.003730  0.572590  1
  Pd  Pd139  1  0.144400  0.826310  0.393520  1
  Pd  Pd140  1  0.855600  0.173690  0.606480  1
  Pd  Pd141  1  0.202600  0.242570  0.393900  1
  Pd  Pd142  1  0.797400  0.757430  0.606100  1
  Pd  Pd143  1  0.936100  0.055600  0.110470  1
  Pd  Pd144  1  0.063900  0.944400  0.889530  1
  Pd  Pd145  1  0.322900  0.883230  0.076650  1
  Pd  Pd146  1  0.677100  0.116770  0.923350  1
  Pd  Pd147  1  0.369300  0.302140  0.076480  1
  Pd  Pd148  1  0.630700  0.697860  0.923520  1
  Pd  Pd149  1  0.268120  0.524620  0.425180  1
  Pd  Pd150  1  0.731880  0.475380  0.574820  1
  Pd  Pd151  1  0.703320  0.292020  0.393670  1
  Pd  Pd152  1  0.296680  0.707980  0.606330  1
  Pd  Pd153  1  0.639700  0.709820  0.397270  1
  Pd  Pd154  1  0.360300  0.290180  0.602730  1
  Pd  Pd155  1  0.803400  0.783400  0.078810  1
  Pd  Pd156  1  0.196600  0.216600  0.921190  1
  Pd  Pd157  1  0.879800  0.370400  0.077530  1
  Pd  Pd158  1  0.120200  0.629600  0.922470  1
  Pd  Pd159  1  0.424200  0.598400  0.108970  1
  Pd  Pd160  1  0.575800  0.401600  0.891030  1
  Au  Au161  1  0.478590  0.086530  0.316810  1
  Au  Au162  1  0.521410  0.913470  0.683190  1
  Au  Au163  1  0.462400  0.978080  0.316490  1
  Au  Au164  1  0.537600  0.021920  0.683510  1
  Au  Au165  1  0.316260  0.044500  0.308170  1
  Au  Au166  1  0.683740  0.955500  0.691830  1
  Au  Au167  1  0.511280  0.101310  0.249630  1
  Au  Au168  1  0.488720  0.898690  0.750370  1
  Au  Au169  1  0.497470  0.993160  0.249690  1
  Au  Au170  1  0.502530  0.006840  0.750310  1
  Au  Au171  1  0.348210  0.055830  0.241640  1
  Au  Au172  1  0.651790  0.944170  0.758360  1
  Au  Au173  1  0.547660  0.117460  0.182730  1
  Au  Au174  1  0.452340  0.882540  0.817270  1
  Au  Au175  1  0.542900  0.009320  0.183540  1
  Au  Au176  1  0.457100  0.990680  0.816460  1
  Au  Au177  1  0.389190  0.069370  0.174810  1
  Au  Au178  1  0.610810  0.930630  0.825190  1
  Au  Au179  1  0.957290  0.587170  0.316950  1
  Au  Au180  1  0.042710  0.412830  0.683050  1
  Au  Au181  1  0.973670  0.478010  0.317530  1
  Au  Au182  1  0.026330  0.521990  0.682470  1
  Au  Au183  1  0.811130  0.525580  0.310130  1
  Au  Au184  1  0.188870  0.474420  0.689870  1
  Au  Au185  1  0.993480  0.606010  0.250350  1
  Au  Au186  1  0.006520  0.393990  0.749650  1
  Au  Au187  1  0.008880  0.497260  0.250780  1
  Au  Au188  1  0.991120  0.502740  0.749220  1
  Au  Au189  1  0.845700  0.546150  0.243650  1
  Au  Au190  1  0.154300  0.453850  0.756350  1
  Au  Au191  1  0.036850  0.621090  0.183860  1
  Au  Au192  1  0.963150  0.378910  0.816140  1
  Au  Au193  1  0.046460  0.512190  0.183930  1
  Au  Au194  1  0.953540  0.487810  0.816070  1
  Au  Au195  1  0.886110  0.562670  0.176870  1
  Au  Au196  1  0.113890  0.437330  0.823130  1
  C  C197  1  0.633900  0.055500  0.328000  1
  C  C198  1  0.366100  0.944500  0.672000  1
  C  C199  1  0.667700  0.017000  0.336500  1
  C  C200  1  0.332300  0.983000  0.663500  1
  C  C201  1  0.619600  0.984000  0.332700  1
  C  C202  1  0.380400  0.016000  0.667300  1
  C  C203  1  0.630000  0.937100  0.339900  1
  C  C204  1  0.370000  0.062900  0.660100  1
  C  C205  1  0.654000  0.175900  0.311200  1
  C  C206  1  0.346000  0.824100  0.688800  1
  C  C207  1  0.657200  0.098900  0.327800  1
  C  C208  1  0.342800  0.901100  0.672200  1
  C  C209  1  0.727000  0.880000  0.346000  1
  C  C210  1  0.273000  0.120000  0.654000  1
  C  C211  1  0.246300  0.955400  0.313600  1
  C  C212  1  0.753700  0.044600  0.686400  1
  C  C213  1  0.051000  0.961300  0.313300  1
  C  C214  1  0.949000  0.038700  0.686700  1
  C  C215  1  0.173800  0.973900  0.316600  1
  C  C216  1  0.826200  0.026100  0.683400  1
  C  C217  1  0.341700  0.911000  0.316300  1
  C  C218  1  0.658300  0.089000  0.683700  1
  C  C219  1  0.267100  0.913400  0.313500  1
  C  C220  1  0.732900  0.086600  0.686500  1
  C  C221  1  0.410000  0.801100  0.319100  1
  C  C222  1  0.590000  0.198900  0.680900  1
  C  C223  1  0.392000  0.876100  0.312200  1
  C  C224  1  0.608000  0.123900  0.687800  1
  C  C225  1  0.279000  0.145600  0.304100  1
  C  C226  1  0.721000  0.854400  0.695900  1
  C  C227  1  0.318500  0.181700  0.309200  1
  C  C228  1  0.681500  0.818300  0.690800  1
  C  C229  1  0.113000  0.096100  0.283700  1
  C  C230  1  0.887000  0.903900  0.716300  1
  C  C231  1  0.209000  0.138900  0.297400  1
  C  C232  1  0.791000  0.861100  0.702600  1
  C  C233  1  0.386100  0.168000  0.315700  1
  C  C234  1  0.613900  0.832000  0.684300  1
  C  C235  1  0.482000  0.266900  0.328600  1
  C  C236  1  0.518000  0.733100  0.671400  1
  C  C237  1  0.445000  0.195400  0.324300  1
  C  C238  1  0.555000  0.804600  0.675700  1
  C  C239  1  0.706900  0.034100  0.261800  1
  C  C240  1  0.293100  0.965900  0.738200  1
  C  C241  1  0.669700  0.073100  0.255100  1
  C  C242  1  0.330300  0.926900  0.744900  1
  C  C243  1  0.799000  0.160100  0.252600  1
  C  C244  1  0.201000  0.839900  0.747400  1
  C  C245  1  0.696000  0.114700  0.254000  1
  C  C246  1  0.304000  0.885300  0.746000  1
  C  C247  1  0.657300  0.000900  0.261800  1
  C  C248  1  0.342700  0.999100  0.738200  1
  C  C249  1  0.622000  0.884900  0.280900  1
  C  C250  1  0.378000  0.115100  0.719100  1
  C  C251  1  0.674800  0.953300  0.268000  1
  C  C252  1  0.325200  0.046700  0.732000  1
  C  C253  1  0.313500  0.923300  0.239700  1
  C  C254  1  0.686500  0.076700  0.760300  1
  C  C255  1  0.385400  0.922400  0.241700  1
  C  C256  1  0.614600  0.077600  0.758300  1
  C  C257  1  0.462000  0.819000  0.242700  1
  C  C258  1  0.538000  0.181000  0.757300  1
  C  C259  1  0.442000  0.892100  0.238200  1
  C  C260  1  0.558000  0.107900  0.761800  1
  C  C261  1  0.286800  0.964600  0.242200  1
  C  C262  1  0.713200  0.035400  0.757800  1
  C  C263  1  0.086000  0.958000  0.238600  1
  C  C264  1  0.914000  0.042000  0.761400  1
  C  C265  1  0.210000  0.978900  0.245300  1
  C  C266  1  0.790000  0.021100  0.754700  1
  C  C267  1  0.346400  0.193100  0.236500  1
  C  C268  1  0.653600  0.806900  0.763500  1
  C  C269  1  0.314000  0.151500  0.232900  1
  C  C270  1  0.686000  0.848500  0.767100  1
  C  C271  1  0.130000  0.176000  0.206700  1
  C  C272  1  0.870000  0.824000  0.793300  1
  C  C273  1  0.241000  0.147600  0.224600  1
  C  C274  1  0.759000  0.852400  0.775400  1
  C  C275  1  0.413900  0.182700  0.243300  1
  C  C276  1  0.586100  0.817300  0.756700  1
  C  C277  1  0.500000  0.286000  0.251500  1
  C  C278  1  0.500000  0.714000  0.748500  1
  C  C279  1  0.471000  0.209900  0.249700  1
  C  C280  1  0.529000  0.790100  0.750300  1
  C  C281  1  0.705000  0.022000  0.191000  1
  C  C282  1  0.295000  0.978000  0.809000  1
  C  C283  1  0.750800  0.058000  0.188600  1
  C  C284  1  0.249200  0.942000  0.811400  1
  C  C285  1  0.708000  0.094400  0.183400  1
  C  C286  1  0.292000  0.905600  0.816600  1
  C  C287  1  0.686000  0.903500  0.204100  1
  C  C288  1  0.314000  0.096500  0.795900  1
  C  C289  1  0.723500  0.975900  0.195200  1
  C  C290  1  0.276500  0.024100  0.804800  1
  C  C291  1  0.336000  0.979300  0.171100  1
  C  C292  1  0.664000  0.020700  0.828900  1
  C  C293  1  0.364000  0.938800  0.167600  1
  C  C294  1  0.636000  0.061200  0.832400  1
  C  C295  1  0.437000  0.940000  0.169500  1
  C  C296  1  0.563000  0.060000  0.830500  1
  C  C297  1  0.526000  0.836000  0.163100  1
  C  C298  1  0.474000  0.164000  0.836900  1
  C  C299  1  0.495000  0.907800  0.167800  1
  C  C300  1  0.505000  0.092200  0.832200  1
  C  C301  1  0.731000  0.138500  0.177600  1
  C  C302  1  0.269000  0.861500  0.822400  1
  C  C303  1  0.450800  0.197400  0.171900  1
  C  C304  1  0.549200  0.802600  0.828100  1
  C  C305  1  0.381900  0.205800  0.162900  1
  C  C306  1  0.618100  0.794200  0.837100  1
  C  C307  1  0.347600  0.167400  0.162500  1
  C  C308  1  0.652400  0.832600  0.837500  1
  C  C309  1  0.815000  0.191300  0.171800  1
  C  C310  1  0.185000  0.808700  0.828200  1
  C  C311  1  0.173000  0.040000  0.183000  1
  C  C312  1  0.827000  0.960000  0.817000  1
  C  C313  1  0.262000  0.989000  0.170300  1
  C  C314  1  0.738000  0.011000  0.829700  1
  C  C315  1  0.174000  0.185000  0.130800  1
  C  C316  1  0.826000  0.815000  0.869200  1
  C  C317  1  0.279000  0.156800  0.154100  1
  C  C318  1  0.721000  0.843200  0.845900  1
  C  C319  1  0.607000  0.239600  0.201100  1
  C  C320  1  0.393000  0.760400  0.798900  1
  C  C321  1  0.501000  0.226600  0.176300  1
  C  C322  1  0.499000  0.773400  0.823700  1
  C  C323  1  0.115700  0.574500  0.329200  1
  C  C324  1  0.884300  0.425500  0.670800  1
  C  C325  1  0.164200  0.539800  0.332200  1
  C  C326  1  0.835800  0.460200  0.667800  1
  C  C327  1  0.126300  0.503200  0.327800  1
  C  C328  1  0.873700  0.496800  0.672200  1
  C  C329  1  0.879400  0.398300  0.316200  1
  C  C330  1  0.120600  0.601700  0.683800  1
  C  C331  1  0.808700  0.391600  0.309100  1
  C  C332  1  0.191300  0.608400  0.690900  1
  C  C333  1  0.773200  0.431100  0.308700  1
  C  C334  1  0.226800  0.568900  0.691300  1
  C  C335  1  0.945000  0.370800  0.317400  1
  C  C336  1  0.055000  0.629200  0.682600  1
  C  C337  1  0.741400  0.614300  0.313800  1
  C  C338  1  0.258600  0.385700  0.686200  1
  C  C339  1  0.763400  0.657100  0.312500  1
  C  C340  1  0.236600  0.342900  0.687500  1
  C  C341  1  0.838000  0.656800  0.312100  1
  C  C342  1  0.162000  0.343200  0.687900  1
  C  C343  1  0.133000  0.613700  0.333800  1
  C  C344  1  0.867000  0.386300  0.666200  1
  C  C345  1  0.067000  0.684000  0.351800  1
  C  C346  1  0.933000  0.316000  0.648200  1
  C  C347  1  0.154000  0.459000  0.330900  1
  C  C348  1  0.846000  0.541000  0.669100  1
  C  C349  1  0.252000  0.408000  0.338000  1
  C  C350  1  0.748000  0.592000  0.662000  1
  C  C351  1  0.973000  0.287000  0.330900  1
  C  C352  1  0.027000  0.713000  0.669100  1
  C  C353  1  0.698000  0.436400  0.306900  1
  C  C354  1  0.302000  0.563600  0.693100  1
  C  C355  1  0.610000  0.489500  0.282400  1
  C  C356  1  0.390000  0.510500  0.717600  1
  C  C357  1  0.670000  0.597300  0.313800  1
  C  C358  1  0.330000  0.402700  0.686200  1
  C  C359  1  0.543000  0.606600  0.315500  1
  C  C360  1  0.457000  0.393400  0.684500  1
  C  C361  1  0.884000  0.691500  0.315300  1
  C  C362  1  0.116000  0.308500  0.684700  1
  C  C363  1  0.905000  0.765900  0.319300  1
  C  C364  1  0.095000  0.234100  0.680700  1
  C  C365  1  0.153300  0.592500  0.260500  1
  C  C366  1  0.846700  0.407500  0.739500  1
  C  C367  1  0.204100  0.559600  0.259800  1
  C  C368  1  0.795900  0.440400  0.740200  1
  C  C369  1  0.164600  0.522600  0.257100  1
  C  C370  1  0.835400  0.477400  0.742900  1
  C  C371  1  0.191800  0.478300  0.254800  1
  C  C372  1  0.808200  0.521700  0.745200  1
  C  C373  1  0.314100  0.432500  0.257000  1
  C  C374  1  0.685900  0.567500  0.743000  1
  C  C375  1  0.913500  0.418200  0.245100  1
  C  C376  1  0.086500  0.581800  0.754900  1
  C  C377  1  0.842300  0.410600  0.239400  1
  C  C378  1  0.157700  0.589400  0.760600  1
  C  C379  1  0.809000  0.451400  0.237000  1
  C  C380  1  0.191000  0.548600  0.763000  1
  C  C381  1  0.966000  0.388000  0.248300  1
  C  C382  1  0.034000  0.612000  0.751700  1
  C  C383  1  0.018000  0.311000  0.252000  1
  C  C384  1  0.982000  0.689000  0.748000  1
  C  C385  1  0.779100  0.637500  0.243200  1
  C  C386  1  0.220900  0.362500  0.756800  1
  C  C387  1  0.806700  0.678500  0.240400  1
  C  C388  1  0.193300  0.321500  0.759600  1
  C  C389  1  0.880200  0.677400  0.243500  1
  C  C390  1  0.119800  0.322600  0.756500  1
  C  C391  1  0.929000  0.711800  0.244300  1
  C  C392  1  0.071000  0.288200  0.755700  1
  C  C393  1  0.953000  0.786000  0.238900  1
  C  C394  1  0.047000  0.214000  0.761100  1
  C  C395  1  0.172000  0.639000  0.263000  1
  C  C396  1  0.828000  0.361000  0.737000  1
  C  C397  1  0.109000  0.701800  0.283600  1
  C  C398  1  0.891000  0.298200  0.716400  1
  C  C399  1  0.739000  0.459000  0.233400  1
  C  C400  1  0.261000  0.541000  0.766600  1
  C  C401  1  0.640000  0.433000  0.209000  1
  C  C402  1  0.360000  0.567000  0.791000  1
  C  C403  1  0.703300  0.619800  0.243900  1
  C  C404  1  0.296700  0.380200  0.756100  1
  C  C405  1  0.580000  0.642700  0.241000  1
  C  C406  1  0.420000  0.357300  0.759000  1
  C  C407  1  0.201700  0.533300  0.186900  1
  C  C408  1  0.798300  0.466700  0.813100  1
  C  C409  1  0.243600  0.569700  0.188100  1
  C  C410  1  0.756400  0.430300  0.811900  1
  C  C411  1  0.196700  0.604200  0.189000  1
  C  C412  1  0.803300  0.395800  0.811000  1
  C  C413  1  0.846000  0.469800  0.168400  1
  C  C414  1  0.154000  0.530200  0.831600  1
  C  C415  1  0.882400  0.430200  0.169900  1
  C  C416  1  0.117600  0.569800  0.830100  1
  C  C417  1  0.951200  0.437400  0.176600  1
  C  C418  1  0.048800  0.562600  0.823400  1
  C  C419  1  0.923800  0.692400  0.174900  1
  C  C420  1  0.076200  0.307600  0.825100  1
  C  C421  1  0.850600  0.695000  0.169500  1
  C  C422  1  0.149400  0.305000  0.830500  1
  C  C423  1  0.826200  0.652900  0.170800  1
  C  C424  1  0.173800  0.347100  0.829200  1
  C  C425  1  0.212900  0.650400  0.190600  1
  C  C426  1  0.787100  0.349600  0.809400  1
  C  C427  1  0.323000  0.705000  0.193000  1
  C  C428  1  0.677000  0.295000  0.807000  1
  C  C429  1  0.230900  0.499000  0.182500  1
  C  C430  1  0.769100  0.501000  0.817500  1
  C  C431  1  0.333000  0.439300  0.172300  1
  C  C432  1  0.667000  0.560700  0.827700  1
  C  C433  1  0.004600  0.400900  0.179600  1
  C  C434  1  0.995400  0.599100  0.820400  1
  C  C435  1  0.113000  0.381300  0.208800  1
  C  C436  1  0.887000  0.618700  0.791200  1
  C  C437  1  0.774000  0.478600  0.165500  1
  C  C438  1  0.226000  0.521400  0.834500  1
  C  C439  1  0.668000  0.450900  0.135600  1
  C  C440  1  0.332000  0.549100  0.864400  1
  C  C441  1  0.749000  0.640000  0.171200  1
  C  C442  1  0.251000  0.360000  0.828800  1
  C  C443  1  0.658000  0.590000  0.181300  1
  C  C444  1  0.342000  0.410000  0.818700  1
  C  C445  1  0.979000  0.728200  0.171500  1
  C  C446  1  0.021000  0.271800  0.828500  1
  C  C447  1  0.004000  0.804000  0.160100  1
  C  C448  1  0.996000  0.196000  0.839900  1
  C  C449  1  0.341000  0.989900  0.382700  1
  C  C450  1  0.659000  0.010100  0.617300  1
  C  C451  1  0.355000  0.065700  0.381800  1
  C  C452  1  0.645000  0.934300  0.618200  1
  C  C453  1  0.455000  0.017900  0.389900  1
  C  C454  1  0.545000  0.982100  0.610100  1
  C  C455  1  0.325500  0.181500  0.387900  1
  C  C456  1  0.674500  0.818500  0.612100  1
  C  C457  1  0.356200  0.141700  0.385700  1
  C  C458  1  0.643800  0.858300  0.614300  1
  C  C459  1  0.314600  0.108200  0.380200  1
  C  C460  1  0.685400  0.891800  0.619800  1
  C  C461  1  0.243000  0.115100  0.375900  1
  C  C462  1  0.757000  0.884900  0.624100  1
  C  C463  1  0.214800  0.151900  0.378700  1
  C  C464  1  0.785200  0.848100  0.621300  1
  C  C465  1  0.632000  0.969400  0.407200  1
  C  C466  1  0.368000  0.030600  0.592800  1
  C  C467  1  0.560900  0.974000  0.400000  1
  C  C468  1  0.439100  0.026000  0.600000  1
  C  C469  1  0.533300  0.014200  0.394700  1
  C  C470  1  0.466700  0.985800  0.605300  1
  C  C471  1  0.572600  0.049600  0.397800  1
  C  C472  1  0.427400  0.950400  0.602200  1
  C  C473  1  0.645000  0.044900  0.405800  1
  C  C474  1  0.355000  0.955100  0.594200  1
  C  C475  1  0.182000  0.918400  0.383100  1
  C  C476  1  0.818000  0.081600  0.616900  1
  C  C477  1  0.223800  0.956100  0.381100  1
  C  C478  1  0.776200  0.043900  0.618900  1
  C  C479  1  0.297000  0.950700  0.381000  1
  C  C480  1  0.703000  0.049300  0.619000  1
  C  C481  1  0.326200  0.910600  0.383100  1
  C  C482  1  0.673800  0.089400  0.616900  1
  C  C483  1  0.282000  0.874900  0.386600  1
  C  C484  1  0.718000  0.125100  0.613400  1
  C  C485  1  0.498400  0.118200  0.107000  1
  C  C486  1  0.501600  0.881800  0.893000  1
  C  C487  1  0.488900  0.041700  0.107500  1
  C  C488  1  0.511100  0.958300  0.892500  1
  C  C489  1  0.602500  0.073300  0.112600  1
  C  C490  1  0.397500  0.926700  0.887400  1
  C  C491  1  0.797000  0.099600  0.113600  1
  C  C492  1  0.203000  0.900400  0.886400  1
  C  C493  1  0.724500  0.103800  0.114300  1
  C  C494  1  0.275500  0.896200  0.885700  1
  C  C495  1  0.682100  0.067900  0.116200  1
  C  C496  1  0.317900  0.932100  0.883800  1
  C  C497  1  0.713600  0.027600  0.120500  1
  C  C498  1  0.286400  0.972400  0.879500  1
  C  C499  1  0.785000  0.023800  0.120900  1
  C  C500  1  0.215000  0.976200  0.879100  1
  C  C501  1  0.362900  0.207400  0.089700  1
  C  C502  1  0.637100  0.792600  0.910300  1
  C  C503  1  0.391100  0.167000  0.094700  1
  C  C504  1  0.608900  0.833000  0.905300  1
  C  C505  1  0.459000  0.160900  0.103700  1
  C  C506  1  0.541000  0.839100  0.896300  1
  C  C507  1  0.501500  0.197800  0.104100  1
  C  C508  1  0.498500  0.802200  0.895900  1
  C  C509  1  0.475000  0.236600  0.097200  1
  C  C510  1  0.525000  0.763400  0.902800  1
  C  C511  1  0.443000  0.927500  0.096300  1
  C  C512  1  0.557000  0.072500  0.903700  1
  C  C513  1  0.482100  0.961900  0.101300  1
  C  C514  1  0.517900  0.038100  0.898700  1
  C  C515  1  0.449000  0.001400  0.103400  1
  C  C516  1  0.551000  0.998600  0.896600  1
  C  C517  1  0.376600  0.004600  0.100900  1
  C  C518  1  0.623400  0.995400  0.899100  1
  C  C519  1  0.339000  0.971200  0.093300  1
  C  C520  1  0.661000  0.028800  0.906700  1
  C  C521  1  0.942000  0.008800  0.166800  1
  C  C522  1  0.058000  0.991200  0.833200  1
  C  C523  1  0.939000  0.003300  0.196000  1
  C  C524  1  0.061000  0.996700  0.804000  1
  C  C525  1  0.939400  0.039000  0.210800  1
  C  C526  1  0.060600  0.961000  0.789200  1
  C  C527  1  0.945100  0.080000  0.196200  1
  C  C528  1  0.054900  0.920000  0.803800  1
  C  C529  1  0.947000  0.085000  0.167100  1
  C  C530  1  0.053000  0.915000  0.832900  1
  C  C531  1  0.928800  0.030800  0.242500  1
  C  C532  1  0.071200  0.969200  0.757500  1
  C  C533  1  0.895400  0.992100  0.256400  1
  C  C534  1  0.104600  0.007900  0.743600  1
  C  C535  1  0.878500  0.986600  0.283500  1
  C  C536  1  0.121500  0.013400  0.716500  1
  C  C537  1  0.894600  0.019000  0.301400  1
  C  C538  1  0.105400  0.981000  0.698600  1
  C  C539  1  0.928100  0.056000  0.288400  1
  C  C540  1  0.071900  0.944000  0.711600  1
  C  C541  1  0.944500  0.062400  0.260600  1
  C  C542  1  0.055500  0.937600  0.739400  1
  C  C543  1  0.871000  0.012100  0.332200  1
  C  C544  1  0.129000  0.987900  0.667800  1
  C  C545  1  0.856200  0.971600  0.346400  1
  C  C546  1  0.143800  0.028400  0.653600  1
  C  C547  1  0.831500  0.966100  0.374000  1
  C  C548  1  0.168500  0.033900  0.626000  1
  C  C549  1  0.831100  0.042800  0.374500  1
  C  C550  1  0.168900  0.957200  0.625500  1
  C  C551  1  0.857100  0.048600  0.347200  1
  C  C552  1  0.142900  0.951400  0.652800  1
  C  C553  1  0.223000  0.881000  0.126800  1
  C  C554  1  0.777000  0.119000  0.873200  1
  C  C555  1  0.198200  0.870900  0.154700  1
  C  C556  1  0.801800  0.129100  0.845300  1
  C  C557  1  0.235700  0.841000  0.172600  1
  C  C558  1  0.764300  0.159000  0.827400  1
  C  C559  1  0.296800  0.820700  0.161700  1
  C  C560  1  0.703200  0.179300  0.838300  1
  C  C561  1  0.322800  0.832800  0.134200  1
  C  C562  1  0.677200  0.167200  0.865800  1
  C  C563  1  0.214500  0.830800  0.203400  1
  C  C564  1  0.785500  0.169200  0.796600  1
  C  C565  1  0.146900  0.844000  0.215500  1
  C  C566  1  0.853100  0.156000  0.784500  1
  C  C567  1  0.130700  0.839100  0.242600  1
  C  C568  1  0.869300  0.160900  0.757400  1
  C  C569  1  0.178800  0.817800  0.262500  1
  C  C570  1  0.821200  0.182200  0.737500  1
  C  C571  1  0.244100  0.803200  0.250500  1
  C  C572  1  0.755900  0.196800  0.749500  1
  C  C573  1  0.260300  0.807900  0.223100  1
  C  C574  1  0.739700  0.192100  0.776900  1
  C  C575  1  0.166600  0.817200  0.293500  1
  C  C576  1  0.833400  0.182800  0.706500  1
  C  C577  1  0.109600  0.839300  0.306100  1
  C  C578  1  0.890400  0.160700  0.693900  1
  C  C579  1  0.102600  0.841500  0.333600  1
  C  C580  1  0.897400  0.158500  0.666400  1
  C  C581  1  0.203400  0.793700  0.340100  1
  C  C582  1  0.796600  0.206300  0.659900  1
  C  C583  1  0.211000  0.792100  0.313200  1
  C  C584  1  0.789000  0.207900  0.686800  1
  C  C585  1  0.387800  0.325500  0.133500  1
  C  C586  1  0.612200  0.674500  0.866500  1
  C  C587  1  0.272500  0.298200  0.125400  1
  C  C588  1  0.727500  0.701800  0.874600  1
  C  C589  1  0.367200  0.327400  0.161800  1
  C  C590  1  0.632800  0.672600  0.838200  1
  C  C591  1  0.299100  0.313400  0.172100  1
  C  C592  1  0.700900  0.686600  0.827900  1
  C  C593  1  0.250200  0.300800  0.153500  1
  C  C594  1  0.749800  0.699200  0.846500  1
  C  C595  1  0.234900  0.291900  0.294100  1
  C  C596  1  0.765100  0.708100  0.705900  1
  C  C597  1  0.287600  0.301400  0.313700  1
  C  C598  1  0.712400  0.698600  0.686300  1
  C  C599  1  0.174300  0.270700  0.306400  1
  C  C600  1  0.825700  0.729300  0.693600  1
  C  C601  1  0.275300  0.290100  0.341300  1
  C  C602  1  0.724700  0.709900  0.658700  1
  C  C603  1  0.164600  0.256600  0.333200  1
  C  C604  1  0.835400  0.743400  0.666800  1
  C  C605  1  0.280000  0.313300  0.202900  1
  C  C606  1  0.720000  0.686700  0.797100  1
  C  C607  1  0.324100  0.327900  0.222900  1
  C  C608  1  0.675900  0.672100  0.777100  1
  C  C609  1  0.217000  0.288500  0.216700  1
  C  C610  1  0.783000  0.711500  0.783300  1
  C  C611  1  0.311800  0.324100  0.249900  1
  C  C612  1  0.688200  0.675900  0.750100  1
  C  C613  1  0.247800  0.301100  0.263000  1
  C  C614  1  0.752200  0.698900  0.737000  1
  C  C615  1  0.203700  0.287200  0.242500  1
  C  C616  1  0.796300  0.712800  0.757500  1
  C  C617  1  0.790100  0.997700  0.484100  1
  C  C618  1  0.209900  0.002300  0.515900  1
  C  C619  1  0.856000  0.972600  0.474400  1
  C  C620  1  0.144000  0.027400  0.525600  1
  C  C621  1  0.691000  0.951200  0.476500  1
  C  C622  1  0.309000  0.048800  0.523500  1
  C  C623  1  0.674000  0.025400  0.474900  1
  C  C624  1  0.326000  0.974600  0.525100  1
  C  C625  1  0.912000  0.950400  0.434200  1
  C  C626  1  0.088000  0.049600  0.565800  1
  C  C627  1  0.913000  0.026100  0.438800  1
  C  C628  1  0.087000  0.973900  0.561200  1
  C  C629  1  0.106000  0.793000  0.451000  1
  C  C630  1  0.894000  0.207000  0.549000  1
  C  C631  1  0.056000  0.774000  0.431100  1
  C  C632  1  0.944000  0.226000  0.568900  1
  C  C633  1  0.088000  0.870300  0.442100  1
  C  C634  1  0.912000  0.129700  0.557900  1
  C  C635  1  0.197000  0.836000  0.450000  1
  C  C636  1  0.803000  0.164000  0.550000  1
  C  C637  1  0.018000  0.771000  0.385900  1
  C  C638  1  0.982000  0.229000  0.614100  1
  C  C639  1  0.126000  0.733100  0.400200  1
  C  C640  1  0.874000  0.266900  0.599800  1
  C  C641  1  0.170000  0.252300  0.451700  1
  C  C642  1  0.830000  0.747700  0.548300  1
  C  C643  1  0.122000  0.282800  0.433800  1
  C  C644  1  0.878000  0.717200  0.566200  1
  C  C645  1  0.247000  0.191000  0.447300  1
  C  C646  1  0.753000  0.809000  0.552700  1
  C  C647  1  0.124000  0.186800  0.437400  1
  C  C648  1  0.876000  0.813200  0.562600  1
  C  C649  1  0.201000  0.334300  0.405200  1
  C  C650  1  0.799000  0.665700  0.594800  1
  C  C651  1  0.094000  0.312800  0.388000  1
  C  C652  1  0.906000  0.687200  0.612000  1
  C  C653  1  0.999000  0.071000  0.054000  1
  C  C654  1  0.001000  0.929000  0.946000  1
  C  C655  1  0.052000  0.046000  0.073000  1
  C  C656  1  0.948000  0.954000  0.927000  1
  C  C657  1  0.894000  0.097000  0.059000  1
  C  C658  1  0.106000  0.903000  0.941000  1
  C  C659  1  0.894000  0.017000  0.063800  1
  C  C660  1  0.106000  0.983000  0.936200  1
  C  C661  1  0.074100  0.090000  0.112400  1
  C  C662  1  0.925900  0.910000  0.887600  1
  C  C663  1  0.067600  0.012400  0.120000  1
  C  C664  1  0.932400  0.987600  0.880000  1
  C  C665  1  0.318000  0.881000  0.018000  1
  C  C666  1  0.682000  0.119000  0.982000  1
  C  C667  1  0.311000  0.834000  0.031800  1
  C  C668  1  0.689000  0.166000  0.968200  1
  C  C669  1  0.440000  0.891000  0.037100  1
  C  C670  1  0.560000  0.109000  0.962900  1
  C  C671  1  0.343000  0.945200  0.029600  1
  C  C672  1  0.657000  0.054800  0.970400  1
  C  C673  1  0.293000  0.794400  0.075200  1
  C  C674  1  0.707000  0.205600  0.924800  1
  C  C675  1  0.198800  0.841700  0.062300  1
  C  C676  1  0.801200  0.158300  0.937700  1
  C  C677  1  0.398000  0.338700  0.019300  1
  C  C678  1  0.602000  0.661300  0.980700  1
  C  C679  1  0.331000  0.361000  0.030300  1
  C  C680  1  0.669000  0.639000  0.969700  1
  C  C681  1  0.351000  0.264000  0.027100  1
  C  C682  1  0.649000  0.736000  0.972900  1
  C  C683  1  0.473000  0.282000  0.035200  1
  C  C684  1  0.527000  0.718000  0.964800  1
  C  C685  1  0.267000  0.369500  0.070600  1
  C  C686  1  0.733000  0.630500  0.929400  1
  C  C687  1  0.394000  0.391600  0.067000  1
  C  C688  1  0.606000  0.608400  0.933000  1
  C  C689  1  0.851700  0.473100  0.383400  1
  C  C690  1  0.148300  0.526900  0.616600  1
  C  C691  1  0.834600  0.548400  0.384000  1
  C  C692  1  0.165400  0.451600  0.616000  1
  C  C693  1  0.951100  0.517700  0.389500  1
  C  C694  1  0.048900  0.482300  0.610500  1
  C  C695  1  0.712100  0.387300  0.382800  1
  C  C696  1  0.287900  0.612700  0.617200  1
  C  C697  1  0.742700  0.428100  0.380400  1
  C  C698  1  0.257300  0.571900  0.619600  1
  C  C699  1  0.815700  0.430200  0.383000  1
  C  C700  1  0.184300  0.569800  0.617000  1
  C  C701  1  0.855400  0.393600  0.386100  1
  C  C702  1  0.144600  0.606400  0.613900  1
  C  C703  1  0.825100  0.353700  0.387800  1
  C  C704  1  0.174900  0.646300  0.612200  1
  C  C705  1  0.139600  0.481900  0.406000  1
  C  C706  1  0.860400  0.518100  0.594000  1
  C  C707  1  0.069100  0.481800  0.396800  1
  C  C708  1  0.930900  0.518200  0.603200  1
  C  C709  1  0.029800  0.517200  0.395100  1
  C  C710  1  0.970200  0.482800  0.604900  1
  C  C711  1  0.058300  0.557200  0.398200  1
  C  C712  1  0.941700  0.442800  0.601800  1
  C  C713  1  0.128700  0.557600  0.406600  1
  C  C714  1  0.871300  0.442400  0.593400  1
  C  C715  1  0.778000  0.664300  0.387800  1
  C  C716  1  0.222000  0.335700  0.612200  1
  C  C717  1  0.821300  0.629200  0.385100  1
  C  C718  1  0.178700  0.370800  0.614900  1
  C  C719  1  0.793100  0.590300  0.382400  1
  C  C720  1  0.206900  0.409700  0.617600  1
  C  C721  1  0.720500  0.584900  0.382300  1
  C  C722  1  0.279500  0.415100  0.617700  1
  C  C723  1  0.676800  0.620900  0.383500  1
  C  C724  1  0.323200  0.379100  0.616500  1
  C  C725  1  0.983200  0.619300  0.103400  1
  C  C726  1  0.016800  0.380700  0.896600  1
  C  C727  1  0.994400  0.543300  0.106600  1
  C  C728  1  0.005600  0.456700  0.893400  1
  C  C729  1  0.095500  0.585700  0.111000  1
  C  C730  1  0.904500  0.414300  0.889000  1
  C  C731  1  0.176400  0.587400  0.115700  1
  C  C732  1  0.823600  0.412600  0.884300  1
  C  C733  1  0.209800  0.626800  0.117200  1
  C  C734  1  0.790200  0.373200  0.882800  1
  C  C735  1  0.282500  0.629200  0.117600  1
  C  C736  1  0.717500  0.370800  0.882400  1
  C  C737  1  0.292700  0.554600  0.113200  1
  C  C738  1  0.707300  0.445400  0.886800  1
  C  C739  1  0.220000  0.551200  0.115400  1
  C  C740  1  0.780000  0.448800  0.884600  1
  C  C741  1  0.979200  0.421900  0.100800  1
  C  C742  1  0.020800  0.578100  0.899200  1
  C  C743  1  0.006400  0.460900  0.105400  1
  C  C744  1  0.993600  0.539100  0.894600  1
  C  C745  1  0.964200  0.497600  0.104600  1
  C  C746  1  0.035800  0.502400  0.895400  1
  C  C747  1  0.892300  0.493600  0.098300  1
  C  C748  1  0.107700  0.506400  0.901700  1
  C  C749  1  0.866500  0.455100  0.093000  1
  C  C750  1  0.133500  0.544900  0.907000  1
  C  C751  1  0.821900  0.694200  0.095800  1
  C  C752  1  0.178100  0.305800  0.904200  1
  C  C753  1  0.863400  0.657800  0.097500  1
  C  C754  1  0.136600  0.342200  0.902500  1
  C  C755  1  0.935500  0.659600  0.103100  1
  C  C756  1  0.064500  0.340400  0.896900  1
  C  C757  1  0.965700  0.700500  0.101600  1
  C  C758  1  0.034300  0.299500  0.898400  1
  C  C759  1  0.924300  0.736700  0.098700  1
  C  C760  1  0.075700  0.263300  0.901300  1
  C  C761  1  0.323700  0.577100  0.372900  1
  C  C762  1  0.676300  0.422900  0.627100  1
  C  C763  1  0.350000  0.584900  0.345500  1
  C  C764  1  0.650000  0.415100  0.654500  1
  C  C765  1  0.367800  0.548500  0.329800  1
  C  C766  1  0.632200  0.451500  0.670200  1
  C  C767  1  0.356000  0.506500  0.342900  1
  C  C768  1  0.644000  0.493500  0.657100  1
  C  C769  1  0.330000  0.500900  0.371300  1
  C  C770  1  0.670000  0.499100  0.628700  1
  C  C771  1  0.392700  0.557000  0.299200  1
  C  C772  1  0.607300  0.443000  0.700800  1
  C  C773  1  0.374100  0.596300  0.283700  1
  C  C774  1  0.625900  0.403700  0.716300  1
  C  C775  1  0.391900  0.603100  0.255000  1
  C  C776  1  0.608100  0.396900  0.745000  1
  C  C777  1  0.425700  0.570300  0.241200  1
  C  C778  1  0.574300  0.429700  0.758800  1
  C  C779  1  0.444500  0.531200  0.256800  1
  C  C780  1  0.555500  0.468800  0.743200  1
  C  C781  1  0.428500  0.524900  0.285600  1
  C  C782  1  0.571500  0.475100  0.714400  1
  C  C783  1  0.434000  0.575600  0.209300  1
  C  C784  1  0.566000  0.424400  0.790700  1
  C  C785  1  0.434000  0.617500  0.195100  1
  C  C786  1  0.566000  0.382500  0.804900  1
  C  C787  1  0.436000  0.623200  0.165600  1
  C  C788  1  0.564000  0.376800  0.834400  1
  C  C789  1  0.444000  0.546200  0.164500  1
  C  C790  1  0.556000  0.453800  0.835500  1
  C  C791  1  0.441000  0.539800  0.194000  1
  C  C792  1  0.559000  0.460200  0.806000  1
  C  C793  1  0.773800  0.267900  0.340900  1
  C  C794  1  0.226200  0.732100  0.659100  1
  C  C795  1  0.784700  0.267400  0.310900  1
  C  C796  1  0.215300  0.732600  0.689100  1
  C  C797  1  0.733500  0.287700  0.293900  1
  C  C798  1  0.266500  0.712300  0.706100  1
  C  C799  1  0.669500  0.304700  0.306100  1
  C  C800  1  0.330500  0.695300  0.693900  1
  C  C801  1  0.662900  0.303700  0.335300  1
  C  C802  1  0.337100  0.696300  0.664700  1
  C  C803  1  0.748100  0.292700  0.262100  1
  C  C804  1  0.251900  0.707300  0.737900  1
  C  C805  1  0.808000  0.272000  0.250300  1
  C  C806  1  0.192000  0.728000  0.749700  1
  C  C807  1  0.824900  0.279400  0.221600  1
  C  C808  1  0.175100  0.720600  0.778400  1
  C  C809  1  0.780700  0.305500  0.203900  1
  C  C810  1  0.219300  0.694500  0.796100  1
  C  C811  1  0.718900  0.324200  0.215400  1
  C  C812  1  0.281100  0.675800  0.784600  1
  C  C813  1  0.703000  0.318200  0.244300  1
  C  C814  1  0.297000  0.681800  0.755700  1
  C  C815  1  0.802800  0.318700  0.172900  1
  C  C816  1  0.197200  0.681300  0.827100  1
  C  C817  1  0.872400  0.309100  0.162900  1
  C  C818  1  0.127600  0.690900  0.837100  1
  C  C819  1  0.893200  0.320400  0.134500  1
  C  C820  1  0.106800  0.679600  0.865500  1
  C  C821  1  0.777500  0.352500  0.126300  1
  C  C822  1  0.222500  0.647500  0.873700  1
  C  C823  1  0.755200  0.340700  0.154400  1
  C  C824  1  0.244800  0.659300  0.845600  1
  C  C825  1  0.600000  0.719500  0.338100  1
  C  C826  1  0.400000  0.280500  0.661900  1
  C  C827  1  0.698200  0.762100  0.347000  1
  C  C828  1  0.301800  0.237900  0.653000  1
  C  C829  1  0.605100  0.734100  0.310100  1
  C  C830  1  0.394900  0.265900  0.689900  1
  C  C831  1  0.660800  0.761600  0.297700  1
  C  C832  1  0.339200  0.238400  0.702300  1
  C  C833  1  0.703000  0.775600  0.318500  1
  C  C834  1  0.297000  0.224400  0.681500  1
  C  C835  1  0.668600  0.770900  0.266300  1
  C  C836  1  0.331400  0.229100  0.733700  1
  C  C837  1  0.619700  0.758500  0.247200  1
  C  C838  1  0.380300  0.241500  0.752800  1
  C  C839  1  0.730400  0.794400  0.255700  1
  C  C840  1  0.269600  0.205600  0.744300  1
  C  C841  1  0.638500  0.762400  0.218900  1
  C  C842  1  0.361500  0.237600  0.781100  1
  C  C843  1  0.701600  0.784800  0.207600  1
  C  C844  1  0.298400  0.215200  0.792400  1
  C  C845  1  0.746100  0.801200  0.227000  1
  C  C846  1  0.253900  0.198800  0.773000  1
  C  C847  1  0.723000  0.786700  0.176300  1
  C  C848  1  0.277000  0.213300  0.823700  1
  C  C849  1  0.681200  0.766800  0.157600  1
  C  C850  1  0.318800  0.233200  0.842400  1
  C  C851  1  0.779600  0.813300  0.164300  1
  C  C852  1  0.220400  0.186700  0.835700  1
  C  C853  1  0.705500  0.765800  0.129600  1
  C  C854  1  0.294500  0.234200  0.870400  1
  C  C855  1  0.802500  0.812600  0.136000  1
  C  C856  1  0.197500  0.187400  0.864000  1
  C  C857  1  0.290300  0.503300  0.483100  1
  C  C858  1  0.709700  0.496700  0.516900  1
  C  C859  1  0.355000  0.531700  0.472900  1
  C  C860  1  0.645000  0.468300  0.527100  1
  C  C861  1  0.181000  0.476900  0.467500  1
  C  C862  1  0.819000  0.523100  0.532500  1
  C  C863  1  0.188000  0.552300  0.471200  1
  C  C864  1  0.812000  0.447700  0.528800  1
  C  C865  1  0.407400  0.491100  0.435500  1
  C  C866  1  0.592600  0.508900  0.564500  1
  C  C867  1  0.399000  0.567300  0.431800  1
  C  C868  1  0.601000  0.432700  0.568200  1
  C  C869  1  0.679000  0.254800  0.452000  1
  C  C870  1  0.321000  0.745200  0.548000  1
  C  C871  1  0.629000  0.234400  0.433100  1
  C  C872  1  0.371000  0.765600  0.566900  1
  C  C873  1  0.629000  0.328600  0.438200  1
  C  C874  1  0.371000  0.671400  0.561800  1
  C  C875  1  0.752000  0.314000  0.445100  1
  C  C876  1  0.248000  0.686000  0.554900  1
  C  C877  1  0.597900  0.229300  0.387000  1
  C  C878  1  0.402100  0.770700  0.613000  1
  C  C879  1  0.710000  0.200400  0.397000  1
  C  C880  1  0.290000  0.799600  0.603000  1
  C  C881  1  0.597000  0.718700  0.456200  1
  C  C882  1  0.403000  0.281300  0.543800  1
  C  C883  1  0.551000  0.750000  0.437700  1
  C  C884  1  0.449000  0.250000  0.562300  1
  C  C885  1  0.698000  0.687000  0.449700  1
  C  C886  1  0.302000  0.313000  0.550300  1
  C  C887  1  0.590000  0.646700  0.440500  1
  C  C888  1  0.410000  0.353300  0.559500  1
  C  C889  1  0.624000  0.796900  0.407800  1
  C  C890  1  0.376000  0.203100  0.592200  1
  C  C891  1  0.519000  0.765000  0.390000  1
  C  C892  1  0.481000  0.235000  0.610000  1
  C  C893  1  0.837000  0.832000  0.027300  1
  C  C894  1  0.163000  0.168000  0.972700  1
  C  C895  1  0.757000  0.840000  0.034000  1
  C  C896  1  0.243000  0.160000  0.966000  1
  C  C897  1  0.796000  0.760000  0.022400  1
  C  C898  1  0.204000  0.240000  0.977600  1
  C  C899  1  0.916000  0.771000  0.034000  1
  C  C900  1  0.084000  0.229000  0.966000  1
  C  C901  1  0.803000  0.877100  0.071000  1
  C  C902  1  0.197000  0.122900  0.929000  1
  C  C903  1  0.684000  0.850000  0.075400  1
  C  C904  1  0.316000  0.150000  0.924600  1
  C  C905  1  0.892000  0.367000  0.019400  1
  C  C906  1  0.108000  0.633000  0.980600  1
  C  C907  1  0.871000  0.321500  0.032000  1
  C  C908  1  0.129000  0.678500  0.968000  1
  C  C909  1  0.998000  0.381000  0.035400  1
  C  C910  1  0.002000  0.619000  0.964600  1
  C  C911  1  0.886000  0.432800  0.027800  1
  C  C912  1  0.114000  0.567200  0.972200  1
  C  C913  1  0.881000  0.277000  0.074800  1
  C  C914  1  0.119000  0.723000  0.925200  1
  C  C915  1  0.774000  0.311500  0.060600  1
  C  C916  1  0.226000  0.688500  0.939400  1
  C  C917  1  0.483000  0.624000  0.054900  1
  C  C918  1  0.517000  0.376000  0.945100  1
  C  C919  1  0.542000  0.597000  0.070100  1
  C  C920  1  0.458000  0.403000  0.929900  1
  C  C921  1  0.375000  0.650000  0.059500  1
  C  C922  1  0.625000  0.350000  0.940500  1
  C  C923  1  0.403000  0.568000  0.055200  1
  C  C924  1  0.597000  0.432000  0.944800  1
  C  C925  1  0.564400  0.637900  0.110000  1
  C  C926  1  0.435600  0.362100  0.890000  1
  C  C927  1  0.568100  0.561100  0.112700  1
  C  C928  1  0.431900  0.438900  0.887300  1
  N  N929  1  0.557500  0.003000  0.325700  1
  N  N930  1  0.442500  0.997000  0.674300  1
  N  N931  1  0.566700  0.046500  0.321400  1
  N  N932  1  0.433300  0.953500  0.678600  1
  N  N933  1  0.307100  0.980400  0.311300  1
  N  N934  1  0.692900  0.019600  0.688700  1
  N  N935  1  0.364400  0.953300  0.311200  1
  N  N936  1  0.635600  0.046700  0.688800  1
  N  N937  1  0.326500  0.112000  0.308600  1
  N  N938  1  0.673500  0.888000  0.691400  1
  N  N939  1  0.391200  0.124700  0.314000  1
  N  N940  1  0.608800  0.875300  0.686000  1
  N  N941  1  0.600900  0.063000  0.253100  1
  N  N942  1  0.399100  0.937000  0.746900  1
  N  N943  1  0.592400  0.018700  0.256800  1
  N  N944  1  0.407600  0.981300  0.743200  1
  N  N945  1  0.403300  0.967200  0.243000  1
  N  N946  1  0.596700  0.032800  0.757000  1
  N  N947  1  0.340400  0.991300  0.243400  1
  N  N948  1  0.659600  0.008700  0.756600  1
  N  N949  1  0.361100  0.122400  0.240100  1
  N  N950  1  0.638900  0.877600  0.759900  1
  N  N951  1  0.421800  0.138800  0.245800  1
  N  N952  1  0.578200  0.861200  0.754200  1
  N  N953  1  0.640500  0.083200  0.185100  1
  N  N954  1  0.359500  0.916800  0.814900  1
  N  N955  1  0.637600  0.038600  0.189400  1
  N  N956  1  0.362400  0.961400  0.810600  1
  N  N957  1  0.451400  0.982800  0.174900  1
  N  N958  1  0.548600  0.017200  0.825100  1
  N  N959  1  0.388000  0.005400  0.175700  1
  N  N960  1  0.612000  0.994600  0.824300  1
  N  N961  1  0.397000  0.135300  0.171500  1
  N  N962  1  0.603000  0.864700  0.828500  1
  N  N963  1  0.457100  0.153300  0.177100  1
  N  N964  1  0.542900  0.846700  0.822900  1
  N  N965  1  0.057700  0.514300  0.323200  1
  N  N966  1  0.942300  0.485700  0.676800  1
  N  N967  1  0.051900  0.557600  0.324100  1
  N  N968  1  0.948100  0.442400  0.675900  1
  N  N969  1  0.823800  0.461100  0.310400  1
  N  N970  1  0.176200  0.538900  0.689600  1
  N  N971  1  0.887900  0.441900  0.315100  1
  N  N972  1  0.112100  0.558100  0.684900  1
  N  N973  1  0.801100  0.588700  0.312600  1
  N  N974  1  0.198900  0.411300  0.687400  1
  N  N975  1  0.858300  0.614500  0.313800  1
  N  N976  1  0.141700  0.385500  0.686200  1
  N  N977  1  0.094000  0.533400  0.255300  1
  N  N978  1  0.906000  0.466600  0.744700  1
  N  N979  1  0.087700  0.576600  0.256500  1
  N  N980  1  0.912300  0.423400  0.743500  1
  N  N981  1  0.857400  0.480900  0.241500  1
  N  N982  1  0.142600  0.519100  0.758500  1
  N  N983  1  0.920900  0.461200  0.246300  1
  N  N984  1  0.079100  0.538800  0.753700  1
  N  N985  1  0.894800  0.634400  0.245300  1
  N  N986  1  0.105200  0.365600  0.754700  1
  N  N987  1  0.835800  0.610200  0.245100  1
  N  N988  1  0.164200  0.389800  0.754900  1
  N  N989  1  0.129200  0.589100  0.188400  1
  N  N990  1  0.870800  0.410900  0.811600  1
  N  N991  1  0.133200  0.546600  0.186200  1
  N  N992  1  0.866800  0.453400  0.813800  1
  N  N993  1  0.957600  0.480200  0.178400  1
  N  N994  1  0.042400  0.519800  0.821600  1
  N  N995  1  0.893700  0.499700  0.173800  1
  N  N996  1  0.106300  0.500300  0.826200  1
  N  N997  1  0.883400  0.626500  0.176000  1
  N  N998  1  0.116600  0.373500  0.824000  1
  N  N999  1  0.942600  0.650200  0.176500  1
  N  N1000  1  0.057400  0.349800  0.823500  1
  N  N1001  1  0.311200  0.030900  0.379100  1
  N  N1002  1  0.688800  0.969100  0.620900  1
  N  N1003  1  0.431500  0.058900  0.383700  1
  N  N1004  1  0.568500  0.941100  0.616300  1
  N  N1005  1  0.413200  0.983200  0.387100  1
  N  N1006  1  0.586800  0.016800  0.612900  1
  N  N1007  1  0.254400  0.187500  0.384700  1
  N  N1008  1  0.745600  0.812500  0.615300  1
  N  N1009  1  0.669700  0.004100  0.411700  1
  N  N1010  1  0.330300  0.995900  0.588300  1
  N  N1011  1  0.210200  0.880300  0.386400  1
  N  N1012  1  0.789800  0.119700  0.613600  1
  N  N1013  1  0.457500  0.082300  0.105000  1
  N  N1014  1  0.542500  0.917700  0.895000  1
  N  N1015  1  0.560800  0.037300  0.112200  1
  N  N1016  1  0.439200  0.962700  0.887800  1
  N  N1017  1  0.569600  0.113500  0.112900  1
  N  N1018  1  0.430400  0.886500  0.887100  1
  N  N1019  1  0.828100  0.059200  0.116000  1
  N  N1020  1  0.171900  0.940800  0.884000  1
  N  N1021  1  0.404700  0.242400  0.089900  1
  N  N1022  1  0.595300  0.757600  0.910100  1
  N  N1023  1  0.372700  0.931800  0.091900  1
  N  N1024  1  0.627300  0.068200  0.908100  1
  N  N1025  1  0.944700  0.049600  0.152700  1
  N  N1026  1  0.055300  0.950400  0.847300  1
  N  N1027  1  0.816600  0.003200  0.387700  1
  N  N1028  1  0.183400  0.996800  0.612300  1
  N  N1029  1  0.283800  0.861300  0.116400  1
  N  N1030  1  0.716200  0.138700  0.883600  1
  N  N1031  1  0.148600  0.819300  0.351700  1
  N  N1032  1  0.851400  0.180700  0.648300  1
  N  N1033  1  0.340200  0.311200  0.115800  1
  N  N1034  1  0.659800  0.688800  0.884200  1
  N  N1035  1  0.214100  0.266200  0.354300  1
  N  N1036  1  0.785900  0.733800  0.645700  1
  N  N1037  1  0.726900  0.992500  0.467600  1
  N  N1038  1  0.273100  0.007500  0.532400  1
  N  N1039  1  0.869700  0.986500  0.444300  1
  N  N1040  1  0.130300  0.013500  0.555700  1
  N  N1041  1  0.132000  0.833300  0.434500  1
  N  N1042  1  0.868000  0.166700  0.565500  1
  N  N1043  1  0.082000  0.772300  0.402100  1
  N  N1044  1  0.918000  0.227700  0.597900  1
  N  N1045  1  0.185900  0.216000  0.435400  1
  N  N1046  1  0.814100  0.784000  0.564600  1
  N  N1047  1  0.153000  0.297400  0.405800  1
  N  N1048  1  0.847000  0.702600  0.594200  1
  N  N1049  1  0.932000  0.056700  0.068600  1
  N  N1050  1  0.068000  0.943300  0.931400  1
  N  N1051  1  0.042900  0.051500  0.103100  1
  N  N1052  1  0.957100  0.948500  0.896900  1
  N  N1053  1  0.363000  0.900200  0.037300  1
  N  N1054  1  0.637000  0.099800  0.962700  1
  N  N1055  1  0.276000  0.835700  0.059700  1
  N  N1056  1  0.724000  0.164300  0.940300  1
  N  N1057  1  0.398000  0.296200  0.036300  1
  N  N1058  1  0.602000  0.703800  0.963700  1
  N  N1059  1  0.340000  0.361600  0.060400  1
  N  N1060  1  0.660000  0.638400  0.939600  1
  N  N1061  1  0.807600  0.509000  0.381300  1
  N  N1062  1  0.192400  0.491000  0.618700  1
  N  N1063  1  0.909800  0.554200  0.384400  1
  N  N1064  1  0.090200  0.445800  0.615600  1
  N  N1065  1  0.925300  0.477700  0.387000  1
  N  N1066  1  0.074700  0.522300  0.613000  1
  N  N1067  1  0.750500  0.351600  0.386600  1
  N  N1068  1  0.249500  0.648400  0.613400  1
  N  N1069  1  0.167400  0.520900  0.409800  1
  N  N1070  1  0.832600  0.479100  0.590200  1
  N  N1071  1  0.704800  0.658700  0.389000  1
  N  N1072  1  0.295200  0.341300  0.611000  1
  N  N1073  1  0.058400  0.624800  0.106600  1
  N  N1074  1  0.941600  0.375200  0.893400  1
  N  N1075  1  0.948600  0.578900  0.101800  1
  N  N1076  1  0.051400  0.421100  0.898200  1
  N  N1077  1  0.069700  0.545800  0.104800  1
  N  N1078  1  0.930300  0.454200  0.895200  1
  N  N1079  1  0.320900  0.592700  0.118300  1
  N  N1080  1  0.679100  0.407300  0.881700  1
  N  N1081  1  0.909600  0.420400  0.095300  1
  N  N1082  1  0.090400  0.579600  0.904700  1
  N  N1083  1  0.852600  0.732500  0.097600  1
  N  N1084  1  0.147400  0.267500  0.902400  1
  N  N1085  1  0.314400  0.534200  0.385800  1
  N  N1086  1  0.685600  0.465800  0.614200  1
  N  N1087  1  0.437000  0.587700  0.150700  1
  N  N1088  1  0.563000  0.412300  0.849300  1
  N  N1089  1  0.713500  0.285000  0.352400  1
  N  N1090  1  0.286500  0.715000  0.647600  1
  N  N1091  1  0.848100  0.345500  0.117100  1
  N  N1092  1  0.151900  0.654500  0.882900  1
  N  N1093  1  0.644500  0.733500  0.356800  1
  N  N1094  1  0.355500  0.266500  0.643200  1
  N  N1095  1  0.765600  0.788600  0.118700  1
  N  N1096  1  0.234400  0.211400  0.881300  1
  N  N1097  1  0.228700  0.513900  0.465000  1
  N  N1098  1  0.771300  0.486100  0.535000  1
  N  N1099  1  0.363500  0.527500  0.442800  1
  N  N1100  1  0.636500  0.472500  0.557200  1
  N  N1101  1  0.687300  0.297000  0.435000  1
  N  N1102  1  0.312700  0.703000  0.565000  1
  N  N1103  1  0.658200  0.233800  0.404000  1
  N  N1104  1  0.341800  0.766200  0.596000  1
  N  N1105  1  0.628000  0.687700  0.438100  1
  N  N1106  1  0.372000  0.312300  0.561900  1
  N  N1107  1  0.578000  0.759300  0.408700  1
  N  N1108  1  0.422000  0.240700  0.591300  1
  N  N1109  1  0.841000  0.785800  0.038500  1
  N  N1110  1  0.159000  0.214200  0.961500  1
  N  N1111  1  0.758000  0.840500  0.065000  1
  N  N1112  1  0.242000  0.159500  0.935000  1
  N  N1113  1  0.922000  0.393000  0.039300  1
  N  N1114  1  0.078000  0.607000  0.960700  1
  N  N1115  1  0.851000  0.317100  0.061600  1
  N  N1116  1  0.149000  0.682900  0.938400  1
  N  N1117  1  0.412000  0.609000  0.067200  1
  N  N1118  1  0.588000  0.391000  0.932800  1
  N  N1119  1  0.531300  0.599900  0.100300  1
  N  N1120  1  0.468700  0.400100  0.899700  1
  N  N1121  1  0.405000  0.280000  0.409100  1
  N  N1122  1  0.595000  0.720000  0.590900  1
  N  N1123  1  0.296000  0.018000  0.444500  1
  N  N1124  1  0.704000  0.982000  0.555500  1
  O  O1125  1  0.629800  0.128000  0.309700  1
  O  O1126  1  0.370200  0.872000  0.690300  1
  O  O1127  1  0.708200  0.107600  0.342600  1
  O  O1128  1  0.291800  0.892400  0.657400  1
  O  O1129  1  0.696100  0.926700  0.340100  1
  O  O1130  1  0.303900  0.073300  0.659900  1
  O  O1131  1  0.575900  0.913100  0.344100  1
  O  O1132  1  0.424100  0.086900  0.655900  1
  O  O1133  1  0.124800  0.944100  0.311100  1
  O  O1134  1  0.875200  0.055900  0.688900  1
  O  O1135  1  0.162200  0.011200  0.321000  1
  O  O1136  1  0.837800  0.988800  0.679000  1
  O  O1137  1  0.362400  0.837600  0.321000  1
  O  O1138  1  0.637600  0.162400  0.679000  1
  O  O1139  1  0.457500  0.878200  0.305000  1
  O  O1140  1  0.542500  0.121800  0.695000  1
  O  O1141  1  0.183400  0.102100  0.294400  1
  O  O1142  1  0.816600  0.897900  0.705600  1
  O  O1143  1  0.164800  0.169700  0.300600  1
  O  O1144  1  0.835200  0.830300  0.699400  1
  O  O1145  1  0.425800  0.236600  0.319400  1
  O  O1146  1  0.574200  0.763400  0.680600  1
  O  O1147  1  0.496300  0.179700  0.337000  1
  O  O1148  1  0.503700  0.820300  0.663000  1
  O  O1149  1  0.761800  0.118500  0.260300  1
  O  O1150  1  0.238200  0.881500  0.739700  1
  O  O1151  1  0.663000  0.146400  0.238500  1
  O  O1152  1  0.337000  0.853600  0.761500  1
  O  O1153  1  0.612400  0.931600  0.273000  1
  O  O1154  1  0.387600  0.068400  0.727000  1
  O  O1155  1  0.731400  0.940100  0.266700  1
  O  O1156  1  0.268600  0.059900  0.733300  1
  O  O1157  1  0.411600  0.852100  0.243400  1
  O  O1158  1  0.588400  0.147900  0.756600  1
  O  O1159  1  0.502300  0.896600  0.232700  1
  O  O1160  1  0.497700  0.103400  0.767300  1
  O  O1161  1  0.167200  0.950500  0.235400  1
  O  O1162  1  0.832800  0.049500  0.764600  1
  O  O1163  1  0.191200  0.013300  0.251200  1
  O  O1164  1  0.808800  0.986700  0.748800  1
  O  O1165  1  0.194900  0.184300  0.219900  1
  O  O1166  1  0.805100  0.815700  0.780100  1
  O  O1167  1  0.215400  0.110900  0.222600  1
  O  O1168  1  0.784600  0.889100  0.777400  1
  O  O1169  1  0.456200  0.251700  0.242400  1
  O  O1170  1  0.543800  0.748300  0.757600  1
  O  O1171  1  0.522100  0.196900  0.265000  1
  O  O1172  1  0.477900  0.803100  0.735000  1
  O  O1173  1  0.668400  0.950800  0.201600  1
  O  O1174  1  0.331600  0.049200  0.798400  1
  O  O1175  1  0.785000  0.964400  0.193500  1
  O  O1176  1  0.215000  0.035600  0.806500  1
  O  O1177  1  0.466700  0.868600  0.168100  1
  O  O1178  1  0.533300  0.131400  0.831900  1
  O  O1179  1  0.557700  0.917300  0.163100  1
  O  O1180  1  0.442300  0.082700  0.836900  1
  O  O1181  1  0.795200  0.146200  0.182800  1
  O  O1182  1  0.204800  0.853800  0.817200  1
  O  O1183  1  0.690900  0.166900  0.167400  1
  O  O1184  1  0.309100  0.833100  0.832600  1
  O  O1185  1  0.247000  0.023500  0.181700  1
  O  O1186  1  0.753000  0.976500  0.818300  1
  O  O1187  1  0.218000  0.973600  0.154700  1
  O  O1188  1  0.782000  0.026400  0.845300  1
  O  O1189  1  0.243000  0.193700  0.143500  1
  O  O1190  1  0.757000  0.806300  0.856500  1
  O  O1191  1  0.257000  0.121900  0.147900  1
  O  O1192  1  0.743000  0.878100  0.852100  1
  O  O1193  1  0.552200  0.212100  0.191600  1
  O  O1194  1  0.447800  0.787900  0.808400  1
  O  O1195  1  0.503400  0.266200  0.166300  1
  O  O1196  1  0.496600  0.733800  0.833700  1
  O  O1197  1  0.077000  0.640900  0.340000  1
  O  O1198  1  0.923000  0.359100  0.660000  1
  O  O1199  1  0.192800  0.633200  0.336200  1
  O  O1200  1  0.807200  0.366800  0.663800  1
  O  O1201  1  0.130000  0.436700  0.313200  1
  O  O1202  1  0.870000  0.563300  0.686800  1
  O  O1203  1  0.212900  0.447200  0.339700  1
  O  O1204  1  0.787100  0.552800  0.660300  1
  O  O1205  1  0.925100  0.326400  0.322000  1
  O  O1206  1  0.074900  0.673600  0.678000  1
  O  O1207  1  0.988800  0.378900  0.335800  1
  O  O1208  1  0.011200  0.621100  0.664200  1
  O  O1209  1  0.686000  0.475900  0.291100  1
  O  O1210  1  0.314000  0.524100  0.708900  1
  O  O1211  1  0.649700  0.409100  0.311100  1
  O  O1212  1  0.350300  0.590900  0.688900  1
  O  O1213  1  0.616100  0.623700  0.313100  1
  O  O1214  1  0.383900  0.376300  0.686900  1
  O  O1215  1  0.660200  0.557000  0.321100  1
  O  O1216  1  0.339800  0.443000  0.678900  1
  O  O1217  1  0.858100  0.731300  0.315400  1
  O  O1218  1  0.141900  0.268700  0.684600  1
  O  O1219  1  0.946400  0.688600  0.311300  1
  O  O1220  1  0.053600  0.311400  0.688700  1
  O  O1221  1  0.263200  0.470400  0.260400  1
  O  O1222  1  0.736800  0.529600  0.739600  1
  O  O1223  1  0.163000  0.453500  0.248300  1
  O  O1224  1  0.837000  0.546500  0.751700  1
  O  O1225  1  0.960500  0.345700  0.246700  1
  O  O1226  1  0.039500  0.654300  0.753300  1
  O  O1227  1  0.019800  0.394400  0.263100  1
  O  O1228  1  0.980200  0.605600  0.736900  1
  O  O1229  1  0.904000  0.752000  0.239600  1
  O  O1230  1  0.096000  0.248000  0.760400  1
  O  O1231  1  0.991400  0.704200  0.236700  1
  O  O1232  1  0.008600  0.295800  0.763300  1
  O  O1233  1  0.105000  0.663200  0.267700  1
  O  O1234  1  0.895000  0.336800  0.732300  1
  O  O1235  1  0.228700  0.653600  0.263500  1
  O  O1236  1  0.771300  0.346400  0.736500  1
  O  O1237  1  0.686100  0.429200  0.233100  1
  O  O1238  1  0.313900  0.570800  0.766900  1
  O  O1239  1  0.720600  0.499600  0.220300  1
  O  O1240  1  0.279400  0.500400  0.779700  1
  O  O1241  1  0.654600  0.653200  0.237500  1
  O  O1242  1  0.345400  0.346800  0.762500  1
  O  O1243  1  0.690600  0.584700  0.252400  1
  O  O1244  1  0.309400  0.415300  0.747600  1
  O  O1245  1  0.283000  0.663600  0.190200  1
  O  O1246  1  0.717000  0.336400  0.809800  1
  O  O1247  1  0.172000  0.682000  0.192200  1
  O  O1248  1  0.828000  0.318000  0.807800  1
  O  O1249  1  0.296000  0.478600  0.182600  1
  O  O1250  1  0.704000  0.521400  0.817400  1
  O  O1251  1  0.182000  0.464900  0.171700  1
  O  O1252  1  0.818000  0.535100  0.828300  1
  O  O1253  1  0.065000  0.410600  0.190100  1
  O  O1254  1  0.935000  0.589400  0.809900  1
  O  O1255  1  0.001600  0.365900  0.172600  1
  O  O1256  1  0.998400  0.634100  0.827400  1
  O  O1257  1  0.731100  0.447800  0.153900  1
  O  O1258  1  0.268900  0.552200  0.846100  1
  O  O1259  1  0.759200  0.519000  0.150500  1
  O  O1260  1  0.240800  0.481000  0.849500  1
  O  O1261  1  0.736500  0.606600  0.182200  1
  O  O1262  1  0.263500  0.393400  0.817800  1
  O  O1263  1  0.706600  0.663900  0.155400  1
  O  O1264  1  0.293400  0.336100  0.844600  1
  O  O1265  1  0.950700  0.769400  0.164800  1
  O  O1266  1  0.049300  0.230600  0.835200  1
  O  O1267  1  0.045000  0.716800  0.169400  1
  O  O1268  1  0.955000  0.283200  0.830600  1
  O  O1269  1  0.987800  0.459100  0.470200  1
  O  O1270  1  0.012200  0.540900  0.529800  1
  O  O1271  1  0.396000  0.286800  0.387700  1
  O  O1272  1  0.604000  0.713200  0.612300  1
  O  O1273  1  0.464000  0.295600  0.422900  1
  O  O1274  1  0.536000  0.704400  0.577100  1
  O  O1275  1  0.360000  0.273000  0.433000  1
  O  O1276  1  0.640000  0.727000  0.567000  1
  O  O1277  1  0.972000  0.187000  0.113000  1
  O  O1278  1  0.028000  0.813000  0.887000  1
  O  O1279  1  0.974000  0.175000  0.229200  1
  O  O1280  1  0.026000  0.825000  0.770800  1
  O  O1281  1  0.922000  0.200000  0.292900  1
  O  O1282  1  0.078000  0.800000  0.707100  1
  O  O1283  1  0.835000  0.164000  0.340900  1
  O  O1284  1  0.165000  0.836000  0.659100  1
  O  O1285  1  0.260000  0.982700  0.444300  1
  O  O1286  1  0.740000  0.017300  0.555700  1
  O  O1287  1  0.258000  0.064800  0.444600  1
  O  O1288  1  0.742000  0.935200  0.555400  1
  O  O1289  1  0.361000  0.015700  0.446700  1
  O  O1290  1  0.639000  0.984300  0.553300  1
