
#######################################################################
#
#                 Cambridge Crystallographic Data Centre
#                                CCDC 
#
#######################################################################
#
# If this CIF has been generated from an entry in the Cambridge 
# Structural Database, then it will include bibliographic, chemical, 
# crystal, experimental, refinement or atomic coordinate data resulting 
# from the CCDC's data processing and validation procedures.
#
#######################################################################

data_OSUBAG
_chemical_formula_moiety         'C32 H44 Co4 N16 O16,28(H2 O1)'
_chemical_name_systematic        
'tetrakis(\m~2~-4,5-imidazoledicarboxylato)-tetrakis(1,2-propanediamine)-tetra-cobalt octacosahydrate'
_symmetry_cell_setting           tetragonal
_symmetry_space_group_name_H-M   'I 41/a m d'
_symmetry_Int_Tables_number      141
_space_group_name_Hall           '-I 4bd 2'
loop_
_symmetry_equiv_pos_site_id
_symmetry_equiv_pos_as_xyz
1 x,y,z
2 1/2-x,-y,1/2+z
3 1/4-y,3/4+x,1/4+z
4 1/4+y,1/4-x,3/4+z
5 1/2-x,y,1/2-z
6 x,-y,-z
7 1/4+y,3/4+x,1/4-z
8 1/4-y,1/4-x,3/4-z
9 1/2+x,1/2+y,1/2+z
10 -x,1/2-y,z
11 3/4-y,1/4+x,3/4+z
12 3/4+y,3/4-x,1/4+z
13 -x,1/2+y,-z
14 1/2+x,1/2-y,1/2-z
15 3/4+y,1/4+x,3/4-z
16 3/4-y,3/4-x,1/4-z
17 -x,-y,-z
18 1/2+x,y,1/2-z
19 3/4+y,1/4-x,3/4-z
20 3/4-y,3/4+x,1/4-z
21 1/2+x,-y,1/2+z
22 -x,y,z
23 3/4-y,1/4-x,3/4+z
24 3/4+y,3/4+x,1/4+z
25 1/2-x,1/2-y,1/2-z
26 x,1/2+y,-z
27 1/4+y,3/4-x,1/4-z
28 1/4-y,1/4+x,3/4-z
29 x,1/2-y,z
30 1/2-x,1/2+y,1/2+z
31 1/4-y,3/4-x,1/4+z
32 1/4+y,1/4+x,3/4+z
_cell_length_a                   18.057(3)
_cell_length_b                   18.057(3)
_cell_length_c                   23.058(5)
_cell_angle_alpha                90
_cell_angle_beta                 90
_cell_angle_gamma                90
_cell_volume                     7518.18
_exptl_crystal_colour            red
_exptl_crystal_description       block
_cell_formula_units_Z            4
loop_
_atom_site_label
_atom_site_type_symbol
_atom_site_fract_x
_atom_site_fract_y
_atom_site_fract_z
O3 O 0.1074(3) 0.7500 0.13147(19)
H1 H 0.132(3) 0.7500 0.1712(15)
O4 O 0.1912(3) 0.7500 0.0328(2)
H3 H 0.2443(13) 0.7500 0.045(2)
H4 H 0.161(3) 0.7500 0.0697(17)
O5 O 0.3974(2) 0.6270(2) 0.21035(15)
H5 H 0.436(2) 0.605(3) 0.2350(17)
H6 H 0.427(2) 0.649(3) 0.1786(15)
O6 O 0.3392(3) 0.2500 -0.0559(3)
H7 H 0.3833(17) 0.217(2) -0.051(2)
H7BA H 0.3833(17) 0.283(2) -0.051(2)
O7 O 0.1731(3) 0.7500 0.2416(2)
H8 H 0.139(2) 0.714(2) 0.263(2)
H8BA H 0.139(2) 0.786(2) 0.263(2)
O8 O 0.5000 0.3277(3) -0.12570(16)
H9 H 0.466(2) 0.309(3) -0.0954(16)
H9U H 0.534(2) 0.309(3) -0.0954(16)
Co1 Co 0.33380(2) 0.41620(2) 0.1250
O1 O 0.41055(13) 0.39598(14) -0.03392(8)
O2 O 0.33526(11) 0.41240(12) 0.04171(10)
N1 N 0.43890(14) 0.41729(13) 0.11726(9)
N2 N 0.33040(16) 0.52353(15) 0.12494(11)
C1 C 0.46181(16) 0.41059(15) 0.06086(11)
C2 C 0.5000 0.4215(2) 0.15002(17)
H10 H 0.5000 0.4266 0.1902
C3 C 0.40025(17) 0.40559(16) 0.01825(11)
C4 C 0.2491(4) 0.5463(5) 0.1349(4)
C6 C 0.2279(8) 0.6232(5) 0.1302(5)
Co1S Co 0.33380(2) 0.08380(2) 0.1250
Co1F Co 0.66620(2) 0.08380(2) 0.1250
Co1U Co 0.66620(2) 0.41620(2) 0.1250
O1O O 0.35402(14) 0.33945(13) 0.28392(8)
O1S O 0.35402(14) 0.16055(13) 0.28392(8)
O1BA O 0.41055(13) 0.10402(14) -0.03392(8)
O1I O 0.58945(13) 0.10402(14) -0.03392(8)
O1F O 0.64598(14) 0.16055(13) 0.28392(8)
O1Z O 0.64598(14) 0.33945(13) 0.28392(8)
O1U O 0.58945(13) 0.39598(14) -0.03392(8)
O2O O 0.33760(12) 0.41474(11) 0.20829(10)
O2S O 0.33760(12) 0.08526(11) 0.20829(10)
O2BA O 0.33526(11) 0.08760(12) 0.04171(10)
O2I O 0.66474(11) 0.08760(12) 0.04171(10)
O2F O 0.66240(12) 0.08526(11) 0.20829(10)
O2Z O 0.66240(12) 0.41474(11) 0.20829(10)
O2U O 0.66474(11) 0.41240(12) 0.04171(10)
N1O N 0.33271(13) 0.31110(14) 0.13274(9)
N1S N 0.33271(13) 0.18890(14) 0.13274(9)
N1BA N 0.43890(14) 0.08271(13) 0.11726(9)
N1I N 0.56110(14) 0.08271(13) 0.11726(9)
N1F N 0.66729(13) 0.18890(14) 0.13274(9)
N1Z N 0.66729(13) 0.31110(14) 0.13274(9)
N1U N 0.56110(14) 0.41729(13) 0.11726(9)
N2O N 0.22647(15) 0.41960(16) 0.12506(11)
N2S N 0.22647(15) 0.08040(16) 0.12506(11)
N2BA N 0.33040(16) -0.02353(15) 0.12494(11)
N2I N 0.66960(16) -0.02353(15) 0.12494(11)
N2F N 0.77353(15) 0.08040(16) 0.12506(11)
N2Z N 0.77353(15) 0.41960(16) 0.12506(11)
N2U N 0.66960(16) 0.52353(15) 0.12494(11)
C1O C 0.33941(15) 0.28819(16) 0.18914(11)
C1S C 0.33941(15) 0.21181(16) 0.18914(11)
C1BA C 0.46181(16) 0.08941(15) 0.06086(11)
C1I C 0.53819(16) 0.08941(15) 0.06086(11)
C1F C 0.66059(15) 0.21181(16) 0.18914(11)
C1Z C 0.66059(15) 0.28819(16) 0.18914(11)
C1U C 0.53819(16) 0.41059(15) 0.06086(11)
C2O C 0.3285(2) 0.2500 0.09998(17)
C2I C 0.5000 0.0785(2) 0.15002(17)
C2F C 0.6715(2) 0.2500 0.09998(17)
H10F H 0.6766 0.2500 0.0598
H10I H 0.5000 0.0734 0.1902
H10O H 0.3234 0.2500 0.0598
C3O C 0.34441(16) 0.34975(17) 0.23175(11)
C3S C 0.34441(16) 0.15025(17) 0.23175(11)
C3BA C 0.40025(17) 0.09441(16) 0.01825(11)
C3I C 0.59975(17) 0.09441(16) 0.01825(11)
C3F C 0.65559(16) 0.15025(17) 0.23175(11)
C3Z C 0.65559(16) 0.34975(17) 0.23175(11)
C3U C 0.59975(17) 0.40559(16) 0.01825(11)
C4O C 0.2037(5) 0.5009(4) 0.1151(4)
C4S C 0.2037(5) -0.0009(4) 0.1151(4)
C4BA C 0.2491(4) -0.0463(5) 0.1349(4)
C4I C 0.7509(4) -0.0463(5) 0.1349(4)
C4F C 0.7963(5) -0.0009(4) 0.1151(4)
C4Z C 0.7963(5) 0.5009(4) 0.1151(4)
C4U C 0.7509(4) 0.5463(5) 0.1349(4)
C6O C 0.1268(5) 0.5221(8) 0.1198(5)
C6BA C 0.2279(8) -0.1232(5) 0.1302(5)
C6S C 0.1268(5) -0.0221(8) 0.1198(5)
C6F C 0.8732(5) -0.0221(8) 0.1198(5)
C6I C 0.7721(8) -0.1232(5) 0.1302(5)
C6U C 0.7721(8) 0.6232(5) 0.1302(5)
C6Z C 0.8732(5) 0.5221(8) 0.1198(5)
loop_
_geom_bond_atom_site_label_1
_geom_bond_atom_site_label_2
_geom_bond_site_symmetry_1
_geom_bond_site_symmetry_2
Co1 O2 1_555 1_555
O1 C3 1_555 1_555
O2 C3 1_555 1_555
O3 H1 1_555 1_555
O4 H3 1_555 1_555
O5 H5 1_555 1_555
O6 H7 1_555 1_555
O7 H8 1_555 1_555
O8 H9 1_555 1_555
H4 O4 1_555 1_555
H6 O5 1_555 1_555
N1 Co1 1_555 1_555
N2 Co1 1_555 1_555
C1 N1 1_555 1_555
C2 N1 1_555 1_555
H10 C2 1_555 1_555
C3 C1 1_555 1_555
C4 N2 1_555 1_555
C6 C4 1_555 1_555
Co1S O2S 1_555 1_555
Co1F O2I 1_555 1_555
Co1U O2Z 1_555 1_555
O1O C3O 1_555 1_555
O1S C3S 1_555 1_555
O1BA C3BA 1_555 1_555
O1I C3I 1_555 1_555
O1F C3F 1_555 1_555
O1Z C3Z 1_555 1_555
O1U C3U 1_555 1_555
O2O Co1 1_555 1_555
O2S C3S 1_555 1_555
O2BA Co1S 1_555 1_555
O2I C3I 1_555 1_555
O2F Co1F 1_555 1_555
O2Z C3Z 1_555 1_555
O2U Co1U 1_555 1_555
H7BA O6 1_555 1_555
H8BA O7 1_555 1_555
H9U O8 1_555 1_555
N1O Co1 1_555 1_555
N1S Co1S 1_555 1_555
N1BA Co1S 1_555 1_555
N1I Co1F 1_555 1_555
N1F Co1F 1_555 1_555
N1Z Co1U 1_555 1_555
N1U C2 1_555 1_555
N2O Co1 1_555 1_555
N2S Co1S 1_555 1_555
N2BA Co1S 1_555 1_555
N2I Co1F 1_555 1_555
N2F Co1F 1_555 1_555
N2Z Co1U 1_555 1_555
N2U Co1U 1_555 1_555
C1O N1O 1_555 1_555
C1S N1S 1_555 1_555
C1BA N1BA 1_555 1_555
C1I N1I 1_555 1_555
C1F N1F 1_555 1_555
C1Z N1Z 1_555 1_555
C1U C1 1_555 1_555
C2O N1O 1_555 1_555
C2I N1BA 1_555 1_555
C2F N1F 1_555 1_555
H10F C2F 1_555 1_555
H10I C2I 1_555 1_555
H10O C2O 1_555 1_555
C3O O2O 1_555 1_555
C3S C1S 1_555 1_555
C3BA O2BA 1_555 1_555
C3I C1I 1_555 1_555
C3F O2F 1_555 1_555
C3Z C1Z 1_555 1_555
C3U O2U 1_555 1_555
C4O C4 1_555 1_555
C4S N2S 1_555 1_555
C4BA N2BA 1_555 1_555
C4I N2I 1_555 1_555
C4F N2F 1_555 1_555
C4Z N2Z 1_555 1_555
C4U N2U 1_555 1_555
C6O C4O 1_555 1_555
C6BA C4BA 1_555 1_555
C6S C4S 1_555 1_555
C6F C4F 1_555 1_555
C6I C4I 1_555 1_555
C6U C4U 1_555 1_555
C6Z C4Z 1_555 1_555
Co1U N1U 1_555 1_555
N1S C2O 1_555 1_555
N1I C2I 1_555 1_555
N1Z C2F 1_555 1_555
N1U C1U 1_555 1_555
N2O C4O 1_555 1_555
C1O C1S 1_555 1_555
C1O C3O 1_555 1_555
C1BA C1I 1_555 1_555
C1BA C3BA 1_555 1_555
C1F C1Z 1_555 1_555
C1F C3F 1_555 1_555
C1U C3U 1_555 1_555
C4S C4BA 1_555 1_555
C4I C4F 1_555 1_555
C4Z C4U 1_555 1_555

#END
