# generated using pymatgen
data_Co4P13H144C192(N6F13)6
_symmetry_space_group_name_H-M   'P 1'
_cell_length_a   18.67230000
_cell_length_b   38.77720000
_cell_length_c   38.79470000
_cell_angle_alpha   90.00000000
_cell_angle_beta   92.08400000
_cell_angle_gamma   90.00000000
_symmetry_Int_Tables_number   1
_chemical_formula_structural   Co4P13H144C192(N6F13)6
_chemical_formula_sum   'Co16 P52 H576 C768 N144 F312'
_cell_volume   28071.09267795
_cell_formula_units_Z   4
loop_
 _symmetry_equiv_pos_site_id
 _symmetry_equiv_pos_as_xyz
  1  'x, y, z'
loop_
 _atom_site_type_symbol
 _atom_site_label
 _atom_site_symmetry_multiplicity
 _atom_site_fract_x
 _atom_site_fract_y
 _atom_site_fract_z
 _atom_site_occupancy
  Co  Co1  1  0.825500  0.836610  0.886260  1
  Co  Co2  1  0.174500  0.336610  0.613740  1
  Co  Co3  1  0.174500  0.163390  0.113740  1
  Co  Co4  1  0.825500  0.663390  0.386260  1
  Co  Co5  1  0.883070  0.589520  0.652140  1
  Co  Co6  1  0.116930  0.089520  0.847860  1
  Co  Co7  1  0.116930  0.410480  0.347860  1
  Co  Co8  1  0.883070  0.910480  0.152140  1
  Co  Co9  1  0.318150  0.599190  0.844570  1
  Co  Co10  1  0.681850  0.099190  0.655430  1
  Co  Co11  1  0.681850  0.400810  0.155430  1
  Co  Co12  1  0.318150  0.900810  0.344570  1
  Co  Co13  1  0.398970  0.835430  0.603730  1
  Co  Co14  1  0.601030  0.335430  0.896270  1
  Co  Co15  1  0.601030  0.164570  0.396270  1
  Co  Co16  1  0.398970  0.664570  0.103730  1
  P  P17  1  0.674900  0.773400  0.799100  1
  P  P18  1  0.325100  0.273400  0.700900  1
  P  P19  1  0.325100  0.226600  0.200900  1
  P  P20  1  0.674900  0.726600  0.299100  1
  P  P21  1  0.079600  0.505600  0.762000  1
  P  P22  1  0.920400  0.005600  0.738000  1
  P  P23  1  0.920400  0.494400  0.238000  1
  P  P24  1  0.079600  0.994400  0.262000  1
  P  P25  1  0.804700  0.545600  0.846900  1
  P  P26  1  0.195300  0.045600  0.653100  1
  P  P27  1  0.195300  0.454400  0.153100  1
  P  P28  1  0.804700  0.954400  0.346900  1
  P  P29  1  0.102900  0.871700  0.740900  1
  P  P30  1  0.897100  0.371700  0.759100  1
  P  P31  1  0.897100  0.128300  0.259100  1
  P  P32  1  0.102900  0.628300  0.240900  1
  P  P33  1  0.261900  0.742000  0.959600  1
  P  P34  1  0.738100  0.242000  0.540400  1
  P  P35  1  0.738100  0.258000  0.040400  1
  P  P36  1  0.261900  0.758000  0.459600  1
  P  P37  1  0.974500  0.735000  0.533700  1
  P  P38  1  0.025500  0.235000  0.966300  1
  P  P39  1  0.025500  0.265000  0.466300  1
  P  P40  1  0.974500  0.765000  0.033700  1
  P  P41  1  0.618900  0.958400  0.527400  1
  P  P42  1  0.381100  0.458400  0.972600  1
  P  P43  1  0.381100  0.041600  0.472600  1
  P  P44  1  0.618900  0.541600  0.027400  1
  P  P45  1  0.848500  0.800000  0.662700  1
  P  P46  1  0.151500  0.300000  0.837300  1
  P  P47  1  0.151500  0.200000  0.337300  1
  P  P48  1  0.848500  0.700000  0.162700  1
  P  P49  1  0.686200  0.672300  0.714700  1
  P  P50  1  0.313800  0.172300  0.785300  1
  P  P51  1  0.313800  0.327700  0.285300  1
  P  P52  1  0.686200  0.827700  0.214700  1
  P  P53  1  0.353700  0.805500  0.824200  1
  P  P54  1  0.646300  0.305500  0.675800  1
  P  P55  1  0.646300  0.194500  0.175800  1
  P  P56  1  0.353700  0.694500  0.324200  1
  P  P57  1  0.802800  0.442800  0.521500  1
  P  P58  1  0.197200  0.942800  0.978500  1
  P  P59  1  0.197200  0.557200  0.478500  1
  P  P60  1  0.802800  0.057200  0.021500  1
  P  P61  1  0.340600  0.652600  0.599600  1
  P  P62  1  0.659400  0.152600  0.900400  1
  P  P63  1  0.659400  0.347400  0.400400  1
  P  P64  1  0.340600  0.847400  0.099600  1
  P  P65  1  0.518900  0.675300  0.775600  1
  P  P66  1  0.481100  0.175300  0.724400  1
  P  P67  1  0.481100  0.324700  0.224400  1
  P  P68  1  0.518900  0.824700  0.275600  1
  H  H69  1  0.198400  0.630100  0.635100  1
  H  H70  1  0.801600  0.130100  0.864900  1
  H  H71  1  0.801600  0.369900  0.364900  1
  H  H72  1  0.198400  0.869900  0.135100  1
  H  H73  1  0.244500  0.577500  0.655400  1
  H  H74  1  0.755500  0.077500  0.844600  1
  H  H75  1  0.755500  0.422500  0.344600  1
  H  H76  1  0.244500  0.922500  0.155400  1
  H  H77  1  0.166600  0.534200  0.673000  1
  H  H78  1  0.833400  0.034200  0.827000  1
  H  H79  1  0.833400  0.465800  0.327000  1
  H  H80  1  0.166600  0.965800  0.173000  1
  H  H81  1  0.042700  0.543500  0.670400  1
  H  H82  1  0.957300  0.043500  0.829600  1
  H  H83  1  0.957300  0.456500  0.329600  1
  H  H84  1  0.042700  0.956500  0.170400  1
  H  H85  1  0.237700  0.888500  0.580100  1
  H  H86  1  0.762300  0.388500  0.919900  1
  H  H87  1  0.762300  0.111500  0.419900  1
  H  H88  1  0.237700  0.611500  0.080100  1
  H  H89  1  0.102100  0.890500  0.578300  1
  H  H90  1  0.897900  0.390500  0.921700  1
  H  H91  1  0.897900  0.109500  0.421700  1
  H  H92  1  0.102100  0.609500  0.078300  1
  H  H93  1  0.079900  0.854200  0.527900  1
  H  H94  1  0.920100  0.354200  0.972100  1
  H  H95  1  0.920100  0.145800  0.472100  1
  H  H96  1  0.079900  0.645800  0.027900  1
  H  H97  1  0.096500  0.792200  0.537500  1
  H  H98  1  0.903500  0.292200  0.962500  1
  H  H99  1  0.903500  0.207800  0.462500  1
  H  H100  1  0.096500  0.707800  0.037500  1
  H  H101  1  0.833900  0.916200  0.933200  1
  H  H102  1  0.166100  0.416200  0.566800  1
  H  H103  1  0.166100  0.083800  0.066800  1
  H  H104  1  0.833900  0.583800  0.433200  1
  H  H105  1  0.846100  0.976000  0.942500  1
  H  H106  1  0.153900  0.476000  0.557500  1
  H  H107  1  0.153900  0.024000  0.057500  1
  H  H108  1  0.846100  0.524000  0.442500  1
  H  H109  1  0.899800  0.009900  0.895300  1
  H  H110  1  0.100200  0.509900  0.604700  1
  H  H111  1  0.100200  0.990100  0.104700  1
  H  H112  1  0.899800  0.490100  0.395300  1
  H  H113  1  0.925700  0.981400  0.845300  1
  H  H114  1  0.074300  0.481400  0.654700  1
  H  H115  1  0.074300  0.018600  0.154700  1
  H  H116  1  0.925700  0.518600  0.345300  1
  H  H117  1  0.942500  0.949400  0.801800  1
  H  H118  1  0.057500  0.449400  0.698200  1
  H  H119  1  0.057500  0.050600  0.198200  1
  H  H120  1  0.942500  0.550600  0.301800  1
  H  H121  1  0.976500  0.912000  0.796200  1
  H  H122  1  0.023500  0.412000  0.703800  1
  H  H123  1  0.023500  0.088000  0.203800  1
  H  H124  1  0.976500  0.588000  0.296200  1
  H  H125  1  0.896100  0.919900  0.782700  1
  H  H126  1  0.103900  0.419900  0.717300  1
  H  H127  1  0.103900  0.080100  0.217300  1
  H  H128  1  0.896100  0.580100  0.282700  1
  H  H129  1  0.933800  0.862200  0.776900  1
  H  H130  1  0.066200  0.362200  0.723100  1
  H  H131  1  0.066200  0.137800  0.223100  1
  H  H132  1  0.933800  0.637800  0.276900  1
  H  H133  1  0.921800  0.806800  0.753900  1
  H  H134  1  0.078200  0.306800  0.746100  1
  H  H135  1  0.078200  0.193200  0.246100  1
  H  H136  1  0.921800  0.693200  0.253900  1
  H  H137  1  0.845400  0.773600  0.840800  1
  H  H138  1  0.154600  0.273600  0.659200  1
  H  H139  1  0.154600  0.226400  0.159200  1
  H  H140  1  0.845400  0.726400  0.340800  1
  H  H141  1  0.877200  0.760400  0.731500  1
  H  H142  1  0.122800  0.260400  0.768500  1
  H  H143  1  0.122800  0.239600  0.268500  1
  H  H144  1  0.877200  0.739600  0.231500  1
  H  H145  1  0.855300  0.703600  0.716100  1
  H  H146  1  0.144700  0.203600  0.783900  1
  H  H147  1  0.144700  0.296400  0.283900  1
  H  H148  1  0.855300  0.796400  0.216100  1
  H  H149  1  0.925200  0.670300  0.809700  1
  H  H150  1  0.074800  0.170300  0.690300  1
  H  H151  1  0.074800  0.329700  0.190300  1
  H  H152  1  0.925200  0.829700  0.309700  1
  H  H153  1  0.922000  0.723200  0.831300  1
  H  H154  1  0.078000  0.223200  0.668700  1
  H  H155  1  0.078000  0.276800  0.168700  1
  H  H156  1  0.922000  0.776800  0.331300  1
  H  H157  1  0.920900  0.509500  0.607300  1
  H  H158  1  0.079100  0.009500  0.892700  1
  H  H159  1  0.079100  0.490500  0.392700  1
  H  H160  1  0.920900  0.990500  0.107300  1
  H  H161  1  0.925500  0.447500  0.606500  1
  H  H162  1  0.074500  0.947500  0.893500  1
  H  H163  1  0.074500  0.552500  0.393500  1
  H  H164  1  0.925500  0.052500  0.106500  1
  H  H165  1  0.900700  0.417600  0.654500  1
  H  H166  1  0.099300  0.917600  0.845500  1
  H  H167  1  0.099300  0.582400  0.345500  1
  H  H168  1  0.900700  0.082400  0.154500  1
  H  H169  1  0.871600  0.440200  0.706500  1
  H  H170  1  0.128400  0.940200  0.793500  1
  H  H171  1  0.128400  0.559800  0.293500  1
  H  H172  1  0.871600  0.059800  0.206500  1
  H  H173  1  0.860400  0.476100  0.752900  1
  H  H174  1  0.139600  0.976100  0.747100  1
  H  H175  1  0.139600  0.523900  0.247100  1
  H  H176  1  0.860400  0.023900  0.252900  1
  H  H177  1  0.899400  0.509500  0.768900  1
  H  H178  1  0.100600  0.009500  0.731100  1
  H  H179  1  0.100600  0.490500  0.231100  1
  H  H180  1  0.899400  0.990500  0.268900  1
  H  H181  1  0.817100  0.511500  0.756100  1
  H  H182  1  0.182900  0.011500  0.743900  1
  H  H183  1  0.182900  0.488500  0.243900  1
  H  H184  1  0.817100  0.988500  0.256100  1
  H  H185  1  0.890400  0.561000  0.775900  1
  H  H186  1  0.109600  0.061000  0.724100  1
  H  H187  1  0.109600  0.439000  0.224100  1
  H  H188  1  0.890400  0.939000  0.275900  1
  H  H189  1  0.891400  0.616900  0.793800  1
  H  H190  1  0.108600  0.116900  0.706200  1
  H  H191  1  0.108600  0.383100  0.206200  1
  H  H192  1  0.891400  0.883100  0.293800  1
  H  H193  1  0.893300  0.653800  0.697200  1
  H  H194  1  0.106700  0.153800  0.802800  1
  H  H195  1  0.106700  0.346200  0.302800  1
  H  H196  1  0.893300  0.846200  0.197200  1
  H  H197  1  0.988700  0.887500  0.900100  1
  H  H198  1  0.011300  0.387500  0.599900  1
  H  H199  1  0.011300  0.112500  0.099900  1
  H  H200  1  0.988700  0.612500  0.400100  1
  H  H201  1  0.109300  0.891300  0.906500  1
  H  H202  1  0.890700  0.391300  0.593500  1
  H  H203  1  0.890700  0.108700  0.093500  1
  H  H204  1  0.109300  0.608700  0.406500  1
  H  H205  1  0.177400  0.847900  0.929900  1
  H  H206  1  0.822600  0.347900  0.570100  1
  H  H207  1  0.822600  0.152100  0.070100  1
  H  H208  1  0.177400  0.652100  0.429900  1
  H  H209  1  0.129700  0.787100  0.937300  1
  H  H210  1  0.870300  0.287100  0.562700  1
  H  H211  1  0.870300  0.212900  0.062700  1
  H  H212  1  0.129700  0.712900  0.437300  1
  H  H213  1  0.051500  0.742800  0.942100  1
  H  H214  1  0.948500  0.242800  0.557900  1
  H  H215  1  0.948500  0.257200  0.057900  1
  H  H216  1  0.051500  0.757200  0.442100  1
  H  H217  1  0.972800  0.735400  0.955400  1
  H  H218  1  0.027200  0.235400  0.544600  1
  H  H219  1  0.027200  0.264600  0.044600  1
  H  H220  1  0.972800  0.764600  0.455400  1
  H  H221  1  0.989900  0.728900  0.915800  1
  H  H222  1  0.010100  0.228900  0.584200  1
  H  H223  1  0.010100  0.271100  0.084200  1
  H  H224  1  0.989900  0.771100  0.415800  1
  H  H225  1  0.869400  0.726800  0.940300  1
  H  H226  1  0.130600  0.226800  0.559700  1
  H  H227  1  0.130600  0.273200  0.059700  1
  H  H228  1  0.869400  0.773200  0.440300  1
  H  H229  1  0.749900  0.705200  0.930000  1
  H  H230  1  0.250100  0.205200  0.570000  1
  H  H231  1  0.250100  0.294800  0.070000  1
  H  H232  1  0.749900  0.794800  0.430000  1
  H  H233  1  0.698300  0.788800  0.878300  1
  H  H234  1  0.301700  0.288800  0.621700  1
  H  H235  1  0.301700  0.211200  0.121700  1
  H  H236  1  0.698300  0.711200  0.378300  1
  H  H237  1  0.661200  0.678800  0.901900  1
  H  H238  1  0.338800  0.178800  0.598100  1
  H  H239  1  0.338800  0.321200  0.098100  1
  H  H240  1  0.661200  0.821200  0.401900  1
  H  H241  1  0.547900  0.658900  0.894900  1
  H  H242  1  0.452100  0.158900  0.605100  1
  H  H243  1  0.452100  0.341100  0.105100  1
  H  H244  1  0.547900  0.841100  0.394900  1
  H  H245  1  0.482100  0.754700  0.867100  1
  H  H246  1  0.517900  0.254700  0.632900  1
  H  H247  1  0.517900  0.245300  0.132900  1
  H  H248  1  0.482100  0.745300  0.367100  1
  H  H249  1  0.592100  0.776500  0.889800  1
  H  H250  1  0.407900  0.276500  0.610200  1
  H  H251  1  0.407900  0.223500  0.110200  1
  H  H252  1  0.592100  0.723500  0.389800  1
  H  H253  1  0.152800  0.554100  0.837400  1
  H  H254  1  0.847200  0.054100  0.662600  1
  H  H255  1  0.847200  0.445900  0.162600  1
  H  H256  1  0.152800  0.945900  0.337400  1
  H  H257  1  0.028500  0.550100  0.836100  1
  H  H258  1  0.971500  0.050100  0.663900  1
  H  H259  1  0.971500  0.449900  0.163900  1
  H  H260  1  0.028500  0.949900  0.336100  1
  H  H261  1  0.957400  0.597000  0.845200  1
  H  H262  1  0.042600  0.097000  0.654800  1
  H  H263  1  0.042600  0.403000  0.154800  1
  H  H264  1  0.957400  0.903000  0.345200  1
  H  H265  1  0.001100  0.649400  0.864300  1
  H  H266  1  0.998900  0.149400  0.635700  1
  H  H267  1  0.998900  0.350600  0.135700  1
  H  H268  1  0.001100  0.850600  0.364300  1
  H  H269  1  0.174600  0.712000  0.872800  1
  H  H270  1  0.825400  0.212000  0.627200  1
  H  H271  1  0.825400  0.288000  0.127200  1
  H  H272  1  0.174600  0.788000  0.372800  1
  H  H273  1  0.106700  0.706800  0.846900  1
  H  H274  1  0.893300  0.206800  0.653100  1
  H  H275  1  0.893300  0.293200  0.153100  1
  H  H276  1  0.106700  0.793200  0.346900  1
  H  H277  1  0.099600  0.699700  0.887300  1
  H  H278  1  0.900400  0.199700  0.612700  1
  H  H279  1  0.900400  0.300300  0.112700  1
  H  H280  1  0.099600  0.800300  0.387300  1
  H  H281  1  0.259500  0.716800  0.875000  1
  H  H282  1  0.740500  0.216800  0.625000  1
  H  H283  1  0.740500  0.283200  0.125000  1
  H  H284  1  0.259500  0.783200  0.375000  1
  H  H285  1  0.375900  0.738000  0.884300  1
  H  H286  1  0.624100  0.238000  0.615700  1
  H  H287  1  0.624100  0.262000  0.115700  1
  H  H288  1  0.375900  0.762000  0.384300  1
  H  H289  1  0.456500  0.644400  0.860100  1
  H  H290  1  0.543500  0.144400  0.639900  1
  H  H291  1  0.543500  0.355600  0.139900  1
  H  H292  1  0.456500  0.855600  0.360100  1
  H  H293  1  0.905800  0.840200  0.971500  1
  H  H294  1  0.094200  0.340200  0.528500  1
  H  H295  1  0.094200  0.159800  0.028500  1
  H  H296  1  0.905800  0.659800  0.471500  1
  H  H297  1  0.896800  0.853500  0.029900  1
  H  H298  1  0.103200  0.353500  0.470100  1
  H  H299  1  0.103200  0.146500  0.970100  1
  H  H300  1  0.896800  0.646500  0.529900  1
  H  H301  1  0.800300  0.869000  0.056000  1
  H  H302  1  0.199700  0.369000  0.444000  1
  H  H303  1  0.199700  0.131000  0.944000  1
  H  H304  1  0.800300  0.631000  0.556000  1
  H  H305  1  0.697400  0.883100  0.026200  1
  H  H306  1  0.302600  0.383100  0.473800  1
  H  H307  1  0.302600  0.116900  0.973800  1
  H  H308  1  0.697400  0.616900  0.526200  1
  H  H309  1  0.611300  0.888600  0.983400  1
  H  H310  1  0.388700  0.388600  0.516600  1
  H  H311  1  0.388700  0.111400  0.016600  1
  H  H312  1  0.611300  0.611400  0.483400  1
  H  H313  1  0.602000  0.904000  0.945200  1
  H  H314  1  0.398000  0.404000  0.554800  1
  H  H315  1  0.398000  0.096000  0.054800  1
  H  H316  1  0.602000  0.596000  0.445200  1
  H  H317  1  0.579100  0.865000  0.952700  1
  H  H318  1  0.420900  0.365000  0.547300  1
  H  H319  1  0.420900  0.135000  0.047300  1
  H  H320  1  0.579100  0.635000  0.452700  1
  H  H321  1  0.582500  0.874600  0.895600  1
  H  H322  1  0.417500  0.374600  0.604400  1
  H  H323  1  0.417500  0.125400  0.104400  1
  H  H324  1  0.582500  0.625400  0.395600  1
  H  H325  1  0.550200  0.867800  0.835200  1
  H  H326  1  0.449800  0.367800  0.664800  1
  H  H327  1  0.449800  0.132200  0.164800  1
  H  H328  1  0.550200  0.632200  0.335200  1
  H  H329  1  0.746700  0.838700  0.814600  1
  H  H330  1  0.253300  0.338700  0.685400  1
  H  H331  1  0.253300  0.161300  0.185400  1
  H  H332  1  0.746700  0.661300  0.314600  1
  H  H333  1  0.520400  0.842100  0.786600  1
  H  H334  1  0.479600  0.342100  0.713400  1
  H  H335  1  0.479600  0.157900  0.213400  1
  H  H336  1  0.520400  0.657900  0.286600  1
  H  H337  1  0.491200  0.841600  0.727500  1
  H  H338  1  0.508800  0.341600  0.772500  1
  H  H339  1  0.508800  0.158400  0.272500  1
  H  H340  1  0.491200  0.658400  0.227500  1
  H  H341  1  0.697400  0.863900  0.707100  1
  H  H342  1  0.302600  0.363900  0.792900  1
  H  H343  1  0.302600  0.136100  0.292900  1
  H  H344  1  0.697400  0.636100  0.207100  1
  H  H345  1  0.726700  0.864300  0.766200  1
  H  H346  1  0.273300  0.364300  0.733800  1
  H  H347  1  0.273300  0.135700  0.233800  1
  H  H348  1  0.726700  0.635700  0.266200  1
  H  H349  1  0.328100  0.841300  0.516300  1
  H  H350  1  0.671900  0.341300  0.983700  1
  H  H351  1  0.671900  0.158700  0.483700  1
  H  H352  1  0.328100  0.658700  0.016300  1
  H  H353  1  0.336100  0.844800  0.454500  1
  H  H354  1  0.663900  0.344800  0.045500  1
  H  H355  1  0.663900  0.155200  0.545500  1
  H  H356  1  0.336100  0.655200  0.954500  1
  H  H357  1  0.446500  0.855000  0.433500  1
  H  H358  1  0.553500  0.355000  0.066500  1
  H  H359  1  0.553500  0.145000  0.566500  1
  H  H360  1  0.446500  0.645000  0.933500  1
  H  H361  1  0.550400  0.864800  0.466400  1
  H  H362  1  0.449600  0.364800  0.033600  1
  H  H363  1  0.449600  0.135200  0.533600  1
  H  H364  1  0.550400  0.635200  0.966400  1
  H  H365  1  0.637300  0.862700  0.508200  1
  H  H366  1  0.362700  0.362700  0.991800  1
  H  H367  1  0.362700  0.137300  0.491800  1
  H  H368  1  0.637300  0.637300  0.008200  1
  H  H369  1  0.651000  0.876300  0.546800  1
  H  H370  1  0.349000  0.376300  0.953200  1
  H  H371  1  0.349000  0.123700  0.453200  1
  H  H372  1  0.651000  0.623700  0.046800  1
  H  H373  1  0.647300  0.835700  0.539300  1
  H  H374  1  0.352700  0.335700  0.960700  1
  H  H375  1  0.352700  0.164300  0.460700  1
  H  H376  1  0.647300  0.664300  0.039300  1
  H  H377  1  0.647900  0.859500  0.596700  1
  H  H378  1  0.352100  0.359500  0.903300  1
  H  H379  1  0.352100  0.140500  0.403300  1
  H  H380  1  0.647900  0.640500  0.096700  1
  H  H381  1  0.680200  0.865300  0.658400  1
  H  H382  1  0.319800  0.365300  0.841600  1
  H  H383  1  0.319800  0.134700  0.341600  1
  H  H384  1  0.680200  0.634700  0.158400  1
  H  H385  1  0.471300  0.844100  0.674400  1
  H  H386  1  0.528700  0.344100  0.825600  1
  H  H387  1  0.528700  0.155900  0.325600  1
  H  H388  1  0.471300  0.655900  0.174400  1
  H  H389  1  0.857200  0.534000  0.495600  1
  H  H390  1  0.142800  0.034000  0.004400  1
  H  H391  1  0.142800  0.466000  0.504400  1
  H  H392  1  0.857200  0.966000  0.995600  1
  H  H393  1  0.976400  0.548200  0.491200  1
  H  H394  1  0.023600  0.048200  0.008800  1
  H  H395  1  0.023600  0.451800  0.508800  1
  H  H396  1  0.976400  0.951800  0.991200  1
  H  H397  1  0.049500  0.574000  0.528600  1
  H  H398  1  0.950500  0.074000  0.971400  1
  H  H399  1  0.950500  0.426000  0.471400  1
  H  H400  1  0.049500  0.926000  0.028600  1
  H  H401  1  0.005200  0.590700  0.584500  1
  H  H402  1  0.994800  0.090700  0.915500  1
  H  H403  1  0.994800  0.409300  0.415500  1
  H  H404  1  0.005200  0.909300  0.084500  1
  H  H405  1  0.707000  0.519700  0.556400  1
  H  H406  1  0.293000  0.019700  0.943600  1
  H  H407  1  0.293000  0.480300  0.443600  1
  H  H408  1  0.707000  0.980300  0.056400  1
  H  H409  1  0.734600  0.539900  0.523400  1
  H  H410  1  0.265400  0.039900  0.976600  1
  H  H411  1  0.265400  0.460100  0.476600  1
  H  H412  1  0.734600  0.960100  0.023400  1
  H  H413  1  0.770800  0.504100  0.534800  1
  H  H414  1  0.229200  0.004100  0.965200  1
  H  H415  1  0.229200  0.495900  0.465200  1
  H  H416  1  0.770800  0.995900  0.034800  1
  H  H417  1  0.688100  0.520700  0.608700  1
  H  H418  1  0.311900  0.020700  0.891300  1
  H  H419  1  0.311900  0.479300  0.391300  1
  H  H420  1  0.688100  0.979300  0.108700  1
  H  H421  1  0.603000  0.537400  0.656800  1
  H  H422  1  0.397000  0.037400  0.843200  1
  H  H423  1  0.397000  0.462600  0.343200  1
  H  H424  1  0.603000  0.962600  0.156800  1
  H  H425  1  0.757500  0.591100  0.701800  1
  H  H426  1  0.242500  0.091100  0.798200  1
  H  H427  1  0.242500  0.408900  0.298200  1
  H  H428  1  0.757500  0.908900  0.201800  1
  H  H429  1  0.723200  0.573800  0.748600  1
  H  H430  1  0.276800  0.073800  0.751400  1
  H  H431  1  0.276800  0.426200  0.251400  1
  H  H432  1  0.723200  0.926200  0.248600  1
  H  H433  1  0.661400  0.576000  0.799900  1
  H  H434  1  0.338600  0.076000  0.700100  1
  H  H435  1  0.338600  0.424000  0.200100  1
  H  H436  1  0.661400  0.924000  0.299900  1
  H  H437  1  0.473900  0.561000  0.746100  1
  H  H438  1  0.526100  0.061000  0.753900  1
  H  H439  1  0.526100  0.439000  0.253900  1
  H  H440  1  0.473900  0.939000  0.246100  1
  H  H441  1  0.535700  0.558900  0.694700  1
  H  H442  1  0.464300  0.058900  0.805300  1
  H  H443  1  0.464300  0.441100  0.305300  1
  H  H444  1  0.535700  0.941100  0.194700  1
  H  H445  1  0.196400  0.602500  0.911900  1
  H  H446  1  0.803600  0.102500  0.588100  1
  H  H447  1  0.803600  0.397500  0.088100  1
  H  H448  1  0.196400  0.897500  0.411900  1
  H  H449  1  0.169800  0.603200  0.975800  1
  H  H450  1  0.830200  0.103200  0.524200  1
  H  H451  1  0.830200  0.396800  0.024200  1
  H  H452  1  0.169800  0.896800  0.475800  1
  H  H453  1  0.241900  0.573400  0.012100  1
  H  H454  1  0.758100  0.073400  0.487900  1
  H  H455  1  0.758100  0.426600  0.987900  1
  H  H456  1  0.241900  0.926600  0.512100  1
  H  H457  1  0.356400  0.555400  0.999500  1
  H  H458  1  0.643600  0.055400  0.500500  1
  H  H459  1  0.643600  0.444600  0.000500  1
  H  H460  1  0.356400  0.944600  0.499500  1
  H  H461  1  0.508800  0.547400  0.935100  1
  H  H462  1  0.491200  0.047400  0.564900  1
  H  H463  1  0.491200  0.452600  0.064900  1
  H  H464  1  0.508800  0.952600  0.435100  1
  H  H465  1  0.485800  0.568400  0.968500  1
  H  H466  1  0.514200  0.068400  0.531500  1
  H  H467  1  0.514200  0.431600  0.031500  1
  H  H468  1  0.485800  0.931600  0.468500  1
  H  H469  1  0.459900  0.529400  0.963000  1
  H  H470  1  0.540100  0.029400  0.537000  1
  H  H471  1  0.540100  0.470600  0.037000  1
  H  H472  1  0.459900  0.970600  0.463000  1
  H  H473  1  0.536600  0.546400  0.892200  1
  H  H474  1  0.463400  0.046400  0.607800  1
  H  H475  1  0.463400  0.453600  0.107800  1
  H  H476  1  0.536600  0.953600  0.392200  1
  H  H477  1  0.601200  0.546700  0.841700  1
  H  H478  1  0.398800  0.046700  0.658300  1
  H  H479  1  0.398800  0.453300  0.158300  1
  H  H480  1  0.601200  0.953300  0.341700  1
  H  H481  1  0.434700  0.593900  0.791000  1
  H  H482  1  0.565300  0.093900  0.709000  1
  H  H483  1  0.565300  0.406100  0.209000  1
  H  H484  1  0.434700  0.906100  0.291000  1
  H  H485  1  0.040700  0.695400  0.615900  1
  H  H486  1  0.959300  0.195400  0.884100  1
  H  H487  1  0.959300  0.304600  0.384100  1
  H  H488  1  0.040700  0.804600  0.115900  1
  H  H489  1  0.108700  0.689500  0.641500  1
  H  H490  1  0.891300  0.189500  0.858500  1
  H  H491  1  0.891300  0.310500  0.358500  1
  H  H492  1  0.108700  0.810500  0.141500  1
  H  H493  1  0.111500  0.677700  0.602100  1
  H  H494  1  0.888500  0.177700  0.897900  1
  H  H495  1  0.888500  0.322300  0.397900  1
  H  H496  1  0.111500  0.822300  0.102100  1
  H  H497  1  0.955500  0.703500  0.615300  1
  H  H498  1  0.044500  0.203500  0.884700  1
  H  H499  1  0.044500  0.296500  0.384700  1
  H  H500  1  0.955500  0.796500  0.115300  1
  H  H501  1  0.841800  0.725700  0.610400  1
  H  H502  1  0.158200  0.225700  0.889600  1
  H  H503  1  0.158200  0.274300  0.389600  1
  H  H504  1  0.841800  0.774300  0.110400  1
  H  H505  1  0.758300  0.635600  0.633700  1
  H  H506  1  0.241700  0.135600  0.866300  1
  H  H507  1  0.241700  0.364400  0.366300  1
  H  H508  1  0.758300  0.864400  0.133700  1
  H  H509  1  0.737600  0.746800  0.622200  1
  H  H510  1  0.262400  0.246800  0.877800  1
  H  H511  1  0.262400  0.253200  0.377800  1
  H  H512  1  0.737600  0.753200  0.122200  1
  H  H513  1  0.622200  0.769300  0.612600  1
  H  H514  1  0.377800  0.269300  0.887400  1
  H  H515  1  0.377800  0.230700  0.387400  1
  H  H516  1  0.622200  0.730700  0.112600  1
  H  H517  1  0.549400  0.674100  0.586200  1
  H  H518  1  0.450600  0.174100  0.913800  1
  H  H519  1  0.450600  0.325900  0.413800  1
  H  H520  1  0.549400  0.825900  0.086200  1
  H  H521  1  0.664700  0.651700  0.595700  1
  H  H522  1  0.335300  0.151700  0.904300  1
  H  H523  1  0.335300  0.348300  0.404300  1
  H  H524  1  0.664700  0.848300  0.095700  1
  H  H525  1  0.249900  0.727400  0.558900  1
  H  H526  1  0.750100  0.227400  0.941100  1
  H  H527  1  0.750100  0.272600  0.441100  1
  H  H528  1  0.249900  0.772600  0.058900  1
  H  H529  1  0.176200  0.738400  0.575600  1
  H  H530  1  0.823800  0.238400  0.924400  1
  H  H531  1  0.823800  0.261600  0.424400  1
  H  H532  1  0.176200  0.761600  0.075600  1
  H  H533  1  0.185600  0.742300  0.534900  1
  H  H534  1  0.814400  0.242300  0.965100  1
  H  H535  1  0.814400  0.257700  0.465100  1
  H  H536  1  0.185600  0.757700  0.034900  1
  H  H537  1  0.345800  0.729200  0.550100  1
  H  H538  1  0.654200  0.229200  0.949900  1
  H  H539  1  0.654200  0.270800  0.449900  1
  H  H540  1  0.345800  0.770800  0.050100  1
  H  H541  1  0.448000  0.697300  0.569100  1
  H  H542  1  0.552000  0.197300  0.930900  1
  H  H543  1  0.552000  0.302700  0.430900  1
  H  H544  1  0.448000  0.802700  0.069100  1
  H  H545  1  0.519900  0.785000  0.614500  1
  H  H546  1  0.480100  0.285000  0.885500  1
  H  H547  1  0.480100  0.215000  0.385500  1
  H  H548  1  0.519900  0.715000  0.114500  1
  H  H549  1  0.285000  0.522700  0.893900  1
  H  H550  1  0.715000  0.022700  0.606100  1
  H  H551  1  0.715000  0.477300  0.106100  1
  H  H552  1  0.285000  0.977300  0.393900  1
  H  H553  1  0.269100  0.461500  0.898700  1
  H  H554  1  0.730900  0.961500  0.601300  1
  H  H555  1  0.730900  0.538500  0.101300  1
  H  H556  1  0.269100  0.038500  0.398700  1
  H  H557  1  0.257200  0.427200  0.852500  1
  H  H558  1  0.742800  0.927200  0.647500  1
  H  H559  1  0.742800  0.572800  0.147500  1
  H  H560  1  0.257200  0.072800  0.352500  1
  H  H561  1  0.258500  0.448800  0.796900  1
  H  H562  1  0.741500  0.948800  0.703100  1
  H  H563  1  0.741500  0.551200  0.203100  1
  H  H564  1  0.258500  0.051200  0.296900  1
  H  H565  1  0.284500  0.481500  0.749500  1
  H  H566  1  0.715500  0.981500  0.750500  1
  H  H567  1  0.715500  0.518500  0.250500  1
  H  H568  1  0.284500  0.018500  0.249500  1
  H  H569  1  0.251800  0.516900  0.734600  1
  H  H570  1  0.748200  0.016900  0.765400  1
  H  H571  1  0.748200  0.483100  0.265400  1
  H  H572  1  0.251800  0.983100  0.234600  1
  H  H573  1  0.336600  0.512800  0.740800  1
  H  H574  1  0.663400  0.012800  0.759200  1
  H  H575  1  0.663400  0.487200  0.259200  1
  H  H576  1  0.336600  0.987200  0.240800  1
  H  H577  1  0.281300  0.567100  0.723800  1
  H  H578  1  0.718700  0.067100  0.776200  1
  H  H579  1  0.718700  0.432900  0.276200  1
  H  H580  1  0.281300  0.932900  0.223800  1
  H  H581  1  0.286600  0.622200  0.701600  1
  H  H582  1  0.713400  0.122200  0.798400  1
  H  H583  1  0.713400  0.377800  0.298400  1
  H  H584  1  0.286600  0.877800  0.201600  1
  H  H585  1  0.324400  0.659900  0.794200  1
  H  H586  1  0.675600  0.159900  0.705800  1
  H  H587  1  0.675600  0.340100  0.205800  1
  H  H588  1  0.324400  0.840100  0.294200  1
  H  H589  1  0.305800  0.669800  0.682400  1
  H  H590  1  0.694200  0.169800  0.817600  1
  H  H591  1  0.694200  0.330200  0.317600  1
  H  H592  1  0.305800  0.830200  0.182400  1
  H  H593  1  0.329400  0.726200  0.661700  1
  H  H594  1  0.670600  0.226200  0.838300  1
  H  H595  1  0.670600  0.273800  0.338300  1
  H  H596  1  0.329400  0.773800  0.161700  1
  H  H597  1  0.301200  0.766100  0.755000  1
  H  H598  1  0.698800  0.266100  0.745000  1
  H  H599  1  0.698800  0.233900  0.245000  1
  H  H600  1  0.301200  0.733900  0.255000  1
  H  H601  1  0.299500  0.709400  0.776000  1
  H  H602  1  0.700500  0.209400  0.724000  1
  H  H603  1  0.700500  0.290600  0.224000  1
  H  H604  1  0.299500  0.790600  0.276000  1
  H  H605  1  0.431900  0.916000  0.557900  1
  H  H606  1  0.568100  0.416000  0.942100  1
  H  H607  1  0.568100  0.084000  0.442100  1
  H  H608  1  0.431900  0.584000  0.057900  1
  H  H609  1  0.420300  0.972000  0.547500  1
  H  H610  1  0.579700  0.472000  0.952500  1
  H  H611  1  0.579700  0.028000  0.452500  1
  H  H612  1  0.420300  0.528000  0.047500  1
  H  H613  1  0.361300  0.008300  0.583100  1
  H  H614  1  0.638700  0.508300  0.916900  1
  H  H615  1  0.638700  0.991700  0.416900  1
  H  H616  1  0.361300  0.491700  0.083100  1
  H  H617  1  0.305700  0.986500  0.630500  1
  H  H618  1  0.694300  0.486500  0.869500  1
  H  H619  1  0.694300  0.013500  0.369500  1
  H  H620  1  0.305700  0.513500  0.130500  1
  H  H621  1  0.260000  0.950900  0.678300  1
  H  H622  1  0.740000  0.450900  0.821700  1
  H  H623  1  0.740000  0.049100  0.321700  1
  H  H624  1  0.260000  0.549100  0.178300  1
  H  H625  1  0.224500  0.913400  0.679500  1
  H  H626  1  0.775500  0.413400  0.820500  1
  H  H627  1  0.775500  0.086600  0.320500  1
  H  H628  1  0.224500  0.586600  0.179500  1
  H  H629  1  0.299700  0.920500  0.699300  1
  H  H630  1  0.700300  0.420500  0.800700  1
  H  H631  1  0.700300  0.079500  0.300700  1
  H  H632  1  0.299700  0.579500  0.199300  1
  H  H633  1  0.262700  0.865500  0.702800  1
  H  H634  1  0.737300  0.365500  0.797200  1
  H  H635  1  0.737300  0.134500  0.297200  1
  H  H636  1  0.262700  0.634500  0.202800  1
  H  H637  1  0.262400  0.812900  0.728900  1
  H  H638  1  0.737600  0.312900  0.771100  1
  H  H639  1  0.737600  0.187100  0.271100  1
  H  H640  1  0.262400  0.687100  0.228900  1
  H  H641  1  0.374200  0.774800  0.649000  1
  H  H642  1  0.625800  0.274800  0.851000  1
  H  H643  1  0.625800  0.225200  0.351000  1
  H  H644  1  0.374200  0.725200  0.149000  1
  C  C645  1  0.805400  0.555100  0.599400  1
  C  C646  1  0.194600  0.055100  0.900600  1
  C  C647  1  0.194600  0.444900  0.400600  1
  C  C648  1  0.805400  0.944900  0.099400  1
  C  C649  1  0.908500  0.570800  0.572900  1
  C  C650  1  0.091500  0.070800  0.927100  1
  C  C651  1  0.091500  0.429200  0.427100  1
  C  C652  1  0.908500  0.929200  0.072900  1
  C  C653  1  0.863700  0.553200  0.548300  1
  C  C654  1  0.136300  0.053200  0.951700  1
  C  C655  1  0.136300  0.446800  0.451700  1
  C  C656  1  0.863700  0.946800  0.048300  1
  C  C657  1  0.983000  0.636700  0.635400  1
  C  C658  1  0.017000  0.136700  0.864600  1
  C  C659  1  0.017000  0.363300  0.364600  1
  C  C660  1  0.983000  0.863300  0.135400  1
  C  C661  1  0.093200  0.618100  0.640700  1
  C  C662  1  0.906800  0.118100  0.859300  1
  C  C663  1  0.906800  0.381900  0.359300  1
  C  C664  1  0.093200  0.881900  0.140700  1
  C  C665  1  0.166800  0.612500  0.642200  1
  C  C666  1  0.833200  0.112500  0.857800  1
  C  C667  1  0.833200  0.387500  0.357800  1
  C  C668  1  0.166800  0.887500  0.142200  1
  C  C669  1  0.194200  0.581300  0.654300  1
  C  C670  1  0.805800  0.081300  0.845700  1
  C  C671  1  0.805800  0.418700  0.345700  1
  C  C672  1  0.194200  0.918700  0.154300  1
  C  C673  1  0.147900  0.555500  0.664800  1
  C  C674  1  0.852100  0.055500  0.835200  1
  C  C675  1  0.852100  0.444500  0.335200  1
  C  C676  1  0.147900  0.944500  0.164800  1
  C  C677  1  0.074300  0.561100  0.663200  1
  C  C678  1  0.925700  0.061100  0.836800  1
  C  C679  1  0.925700  0.438900  0.336800  1
  C  C680  1  0.074300  0.938900  0.163200  1
  C  C681  1  0.047000  0.592400  0.651200  1
  C  C682  1  0.953000  0.092400  0.848800  1
  C  C683  1  0.953000  0.407600  0.348800  1
  C  C684  1  0.047000  0.907600  0.151200  1
  C  C685  1  0.308600  0.787500  0.573300  1
  C  C686  1  0.691400  0.287500  0.926700  1
  C  C687  1  0.691400  0.212500  0.426700  1
  C  C688  1  0.308600  0.712500  0.073300  1
  C  C689  1  0.195100  0.808800  0.562900  1
  C  C690  1  0.804900  0.308800  0.937100  1
  C  C691  1  0.804900  0.191200  0.437100  1
  C  C692  1  0.195100  0.691200  0.062900  1
  C  C693  1  0.240200  0.836700  0.573200  1
  C  C694  1  0.759800  0.336700  0.926800  1
  C  C695  1  0.759800  0.163300  0.426800  1
  C  C696  1  0.240200  0.663300  0.073200  1
  C  C697  1  0.208700  0.868900  0.574900  1
  C  C698  1  0.791300  0.368900  0.925100  1
  C  C699  1  0.791300  0.131100  0.425100  1
  C  C700  1  0.208700  0.631100  0.074900  1
  C  C701  1  0.132000  0.873200  0.568900  1
  C  C702  1  0.868000  0.373200  0.931100  1
  C  C703  1  0.868000  0.126800  0.431100  1
  C  C704  1  0.132000  0.626800  0.068900  1
  C  C705  1  0.110000  0.846800  0.546600  1
  C  C706  1  0.890000  0.346800  0.953400  1
  C  C707  1  0.890000  0.153200  0.453400  1
  C  C708  1  0.110000  0.653200  0.046600  1
  C  C709  1  0.125500  0.810500  0.546400  1
  C  C710  1  0.874500  0.310500  0.953600  1
  C  C711  1  0.874500  0.189500  0.453600  1
  C  C712  1  0.125500  0.689500  0.046400  1
  C  C713  1  0.866700  0.914900  0.884400  1
  C  C714  1  0.133300  0.414900  0.615600  1
  C  C715  1  0.133300  0.085100  0.115600  1
  C  C716  1  0.866700  0.585100  0.384400  1
  C  C717  1  0.851100  0.930300  0.915300  1
  C  C718  1  0.148900  0.430300  0.584700  1
  C  C719  1  0.148900  0.069700  0.084700  1
  C  C720  1  0.851100  0.569700  0.415300  1
  C  C721  1  0.859500  0.965600  0.921500  1
  C  C722  1  0.140500  0.465600  0.578500  1
  C  C723  1  0.140500  0.034400  0.078500  1
  C  C724  1  0.859500  0.534400  0.421500  1
  C  C725  1  0.890800  0.985900  0.893000  1
  C  C726  1  0.109200  0.485900  0.607000  1
  C  C727  1  0.109200  0.014100  0.107000  1
  C  C728  1  0.890800  0.514100  0.393000  1
  C  C729  1  0.906000  0.969000  0.863900  1
  C  C730  1  0.094000  0.469000  0.636100  1
  C  C731  1  0.094000  0.031000  0.136100  1
  C  C732  1  0.906000  0.531000  0.363900  1
  C  C733  1  0.894200  0.936000  0.860700  1
  C  C734  1  0.105800  0.436000  0.639300  1
  C  C735  1  0.105800  0.064000  0.139300  1
  C  C736  1  0.894200  0.564000  0.360700  1
  C  C737  1  0.932400  0.924600  0.801000  1
  C  C738  1  0.067600  0.424600  0.699000  1
  C  C739  1  0.067600  0.075400  0.199000  1
  C  C740  1  0.932400  0.575400  0.301000  1
  C  C741  1  0.887700  0.881900  0.841500  1
  C  C742  1  0.112300  0.381900  0.658500  1
  C  C743  1  0.112300  0.118100  0.158500  1
  C  C744  1  0.887700  0.618100  0.341500  1
  C  C745  1  0.886700  0.850400  0.822900  1
  C  C746  1  0.113300  0.350400  0.677100  1
  C  C747  1  0.113300  0.149600  0.177100  1
  C  C748  1  0.886700  0.649600  0.322900  1
  C  C749  1  0.913500  0.844100  0.789800  1
  C  C750  1  0.086500  0.344100  0.710200  1
  C  C751  1  0.086500  0.155900  0.210200  1
  C  C752  1  0.913500  0.655900  0.289800  1
  C  C753  1  0.909300  0.811000  0.777100  1
  C  C754  1  0.090700  0.311000  0.722900  1
  C  C755  1  0.090700  0.189000  0.222900  1
  C  C756  1  0.909300  0.689000  0.277100  1
  C  C757  1  0.888000  0.784700  0.796600  1
  C  C758  1  0.112000  0.284700  0.703400  1
  C  C759  1  0.112000  0.215300  0.203400  1
  C  C760  1  0.888000  0.715300  0.296600  1
  C  C761  1  0.863700  0.792000  0.827500  1
  C  C762  1  0.136300  0.292000  0.672500  1
  C  C763  1  0.136300  0.208000  0.172500  1
  C  C764  1  0.863700  0.708000  0.327500  1
  C  C765  1  0.893100  0.748600  0.786600  1
  C  C766  1  0.106900  0.248600  0.713400  1
  C  C767  1  0.106900  0.251400  0.213400  1
  C  C768  1  0.893100  0.751400  0.286600  1
  C  C769  1  0.880400  0.742200  0.747900  1
  C  C770  1  0.119600  0.242200  0.752100  1
  C  C771  1  0.119600  0.257800  0.252100  1
  C  C772  1  0.880400  0.757800  0.247900  1
  C  C773  1  0.873800  0.707900  0.738800  1
  C  C774  1  0.126200  0.207900  0.761200  1
  C  C775  1  0.126200  0.292100  0.261200  1
  C  C776  1  0.873800  0.792100  0.238800  1
  C  C777  1  0.891300  0.678100  0.759200  1
  C  C778  1  0.108700  0.178100  0.740800  1
  C  C779  1  0.108700  0.321900  0.240800  1
  C  C780  1  0.891300  0.821900  0.259200  1
  C  C781  1  0.910700  0.688300  0.794400  1
  C  C782  1  0.089300  0.188300  0.705600  1
  C  C783  1  0.089300  0.311700  0.205600  1
  C  C784  1  0.910700  0.811700  0.294400  1
  C  C785  1  0.910400  0.719900  0.807400  1
  C  C786  1  0.089600  0.219900  0.692600  1
  C  C787  1  0.089600  0.280100  0.192600  1
  C  C788  1  0.910400  0.780100  0.307400  1
  C  C789  1  0.906600  0.509600  0.660600  1
  C  C790  1  0.093400  0.009600  0.839400  1
  C  C791  1  0.093400  0.490400  0.339400  1
  C  C792  1  0.906600  0.990400  0.160600  1
  C  C793  1  0.915400  0.495800  0.627300  1
  C  C794  1  0.084600  0.995800  0.872700  1
  C  C795  1  0.084600  0.504200  0.372700  1
  C  C796  1  0.915400  0.004200  0.127300  1
  C  C797  1  0.915300  0.459700  0.627000  1
  C  C798  1  0.084700  0.959700  0.873000  1
  C  C799  1  0.084700  0.540300  0.373000  1
  C  C800  1  0.915300  0.040300  0.127000  1
  C  C801  1  0.900100  0.442000  0.656600  1
  C  C802  1  0.099900  0.942000  0.843400  1
  C  C803  1  0.099900  0.558000  0.343400  1
  C  C804  1  0.900100  0.058000  0.156600  1
  C  C805  1  0.885000  0.453500  0.687200  1
  C  C806  1  0.115000  0.953500  0.812800  1
  C  C807  1  0.115000  0.546500  0.312800  1
  C  C808  1  0.885000  0.046500  0.187200  1
  C  C809  1  0.892200  0.487300  0.686000  1
  C  C810  1  0.107800  0.987300  0.814000  1
  C  C811  1  0.107800  0.512700  0.314000  1
  C  C812  1  0.892200  0.012700  0.186000  1
  C  C813  1  0.863800  0.501300  0.751600  1
  C  C814  1  0.136200  0.001300  0.748400  1
  C  C815  1  0.136200  0.498700  0.248400  1
  C  C816  1  0.863800  0.998700  0.251600  1
  C  C817  1  0.896200  0.542600  0.705300  1
  C  C818  1  0.103800  0.042600  0.794700  1
  C  C819  1  0.103800  0.457400  0.294700  1
  C  C820  1  0.896200  0.957400  0.205300  1
  C  C821  1  0.893000  0.576900  0.722600  1
  C  C822  1  0.107000  0.076900  0.777400  1
  C  C823  1  0.107000  0.423100  0.277400  1
  C  C824  1  0.893000  0.923100  0.222600  1
  C  C825  1  0.891400  0.580000  0.760400  1
  C  C826  1  0.108600  0.080000  0.739600  1
  C  C827  1  0.108600  0.420000  0.239600  1
  C  C828  1  0.891400  0.920000  0.260400  1
  C  C829  1  0.891600  0.612600  0.769700  1
  C  C830  1  0.108400  0.112600  0.730300  1
  C  C831  1  0.108400  0.387400  0.230300  1
  C  C832  1  0.891600  0.887400  0.269700  1
  C  C833  1  0.892100  0.642200  0.748100  1
  C  C834  1  0.107900  0.142200  0.751900  1
  C  C835  1  0.107900  0.357800  0.251900  1
  C  C836  1  0.892100  0.857800  0.248100  1
  C  C837  1  0.891900  0.635200  0.713100  1
  C  C838  1  0.108100  0.135200  0.786900  1
  C  C839  1  0.108100  0.364800  0.286900  1
  C  C840  1  0.891900  0.864800  0.213100  1
  C  C841  1  0.981000  0.833900  0.912200  1
  C  C842  1  0.019000  0.333900  0.587800  1
  C  C843  1  0.019000  0.166100  0.087800  1
  C  C844  1  0.981000  0.666100  0.412200  1
  C  C845  1  0.016200  0.867900  0.906900  1
  C  C846  1  0.983800  0.367900  0.593100  1
  C  C847  1  0.983800  0.132100  0.093100  1
  C  C848  1  0.016200  0.632100  0.406900  1
  C  C849  1  0.086500  0.870200  0.912000  1
  C  C850  1  0.913500  0.370200  0.588000  1
  C  C851  1  0.913500  0.129800  0.088000  1
  C  C852  1  0.086500  0.629800  0.412000  1
  C  C853  1  0.128200  0.843300  0.924700  1
  C  C854  1  0.871800  0.343300  0.575300  1
  C  C855  1  0.871800  0.156700  0.075300  1
  C  C856  1  0.128200  0.656700  0.424700  1
  C  C857  1  0.100700  0.806400  0.931000  1
  C  C858  1  0.899300  0.306400  0.569000  1
  C  C859  1  0.899300  0.193600  0.069000  1
  C  C860  1  0.100700  0.693600  0.431000  1
  C  C861  1  0.023000  0.805900  0.925900  1
  C  C862  1  0.977000  0.305900  0.574100  1
  C  C863  1  0.977000  0.194100  0.074100  1
  C  C864  1  0.023000  0.694100  0.425900  1
  C  C865  1  0.000100  0.743700  0.936000  1
  C  C866  1  0.999900  0.243700  0.564000  1
  C  C867  1  0.999900  0.256300  0.064000  1
  C  C868  1  0.000100  0.756300  0.436000  1
  C  C869  1  0.915700  0.789000  0.918700  1
  C  C870  1  0.084300  0.289000  0.581300  1
  C  C871  1  0.084300  0.211000  0.081300  1
  C  C872  1  0.915700  0.711000  0.418700  1
  C  C873  1  0.848300  0.771000  0.915200  1
  C  C874  1  0.151700  0.271000  0.584800  1
  C  C875  1  0.151700  0.229000  0.084800  1
  C  C876  1  0.848300  0.729000  0.415200  1
  C  C877  1  0.834400  0.739800  0.927600  1
  C  C878  1  0.165600  0.239800  0.572400  1
  C  C879  1  0.165600  0.260200  0.072400  1
  C  C880  1  0.834400  0.760200  0.427600  1
  C  C881  1  0.762200  0.726900  0.920500  1
  C  C882  1  0.237800  0.226900  0.579500  1
  C  C883  1  0.237800  0.273100  0.079500  1
  C  C884  1  0.762200  0.773100  0.420500  1
  C  C885  1  0.712800  0.743300  0.901600  1
  C  C886  1  0.287200  0.243300  0.598400  1
  C  C887  1  0.287200  0.256700  0.098400  1
  C  C888  1  0.712800  0.756700  0.401600  1
  C  C889  1  0.732900  0.775500  0.891000  1
  C  C890  1  0.267100  0.275500  0.609000  1
  C  C891  1  0.267100  0.224500  0.109000  1
  C  C892  1  0.732900  0.724500  0.391000  1
  C  C893  1  0.639400  0.729200  0.894700  1
  C  C894  1  0.360600  0.229200  0.605300  1
  C  C895  1  0.360600  0.270800  0.105300  1
  C  C896  1  0.639400  0.770800  0.394700  1
  C  C897  1  0.623700  0.694700  0.896500  1
  C  C898  1  0.376300  0.194700  0.603500  1
  C  C899  1  0.376300  0.305300  0.103500  1
  C  C900  1  0.623700  0.805300  0.396500  1
  C  C901  1  0.556600  0.682600  0.890800  1
  C  C902  1  0.443400  0.182600  0.609200  1
  C  C903  1  0.443400  0.317400  0.109200  1
  C  C904  1  0.556600  0.817400  0.390800  1
  C  C905  1  0.496900  0.704100  0.878700  1
  C  C906  1  0.503100  0.204100  0.621300  1
  C  C907  1  0.503100  0.295900  0.121300  1
  C  C908  1  0.496900  0.795900  0.378700  1
  C  C909  1  0.516600  0.739000  0.876500  1
  C  C910  1  0.483400  0.239000  0.623500  1
  C  C911  1  0.483400  0.261000  0.123500  1
  C  C912  1  0.516600  0.761000  0.376500  1
  C  C913  1  0.584500  0.752300  0.887500  1
  C  C914  1  0.415500  0.252300  0.612500  1
  C  C915  1  0.415500  0.247700  0.112500  1
  C  C916  1  0.584500  0.747700  0.387500  1
  C  C917  1  0.149200  0.606400  0.849000  1
  C  C918  1  0.850800  0.106400  0.651000  1
  C  C919  1  0.850800  0.393600  0.151000  1
  C  C920  1  0.149200  0.893600  0.349000  1
  C  C921  1  0.122900  0.573400  0.841600  1
  C  C922  1  0.877100  0.073400  0.658400  1
  C  C923  1  0.877100  0.426600  0.158400  1
  C  C924  1  0.122900  0.926600  0.341600  1
  C  C925  1  0.050900  0.571600  0.841100  1
  C  C926  1  0.949100  0.071600  0.658900  1
  C  C927  1  0.949100  0.428400  0.158900  1
  C  C928  1  0.050900  0.928400  0.341100  1
  C  C929  1  0.007700  0.600000  0.847700  1
  C  C930  1  0.992300  0.100000  0.652300  1
  C  C931  1  0.992300  0.400000  0.152300  1
  C  C932  1  0.007700  0.900000  0.347700  1
  C  C933  1  0.031200  0.631200  0.857200  1
  C  C934  1  0.968800  0.131200  0.642800  1
  C  C935  1  0.968800  0.368800  0.142800  1
  C  C936  1  0.031200  0.868800  0.357200  1
  C  C937  1  0.111500  0.633900  0.855500  1
  C  C938  1  0.888500  0.133900  0.644500  1
  C  C939  1  0.888500  0.366100  0.144500  1
  C  C940  1  0.111500  0.866100  0.355500  1
  C  C941  1  0.131500  0.698100  0.867900  1
  C  C942  1  0.868500  0.198100  0.632100  1
  C  C943  1  0.868500  0.301900  0.132100  1
  C  C944  1  0.131500  0.801900  0.367900  1
  C  C945  1  0.221800  0.650500  0.859100  1
  C  C946  1  0.778200  0.150500  0.640900  1
  C  C947  1  0.778200  0.349500  0.140900  1
  C  C948  1  0.221800  0.849500  0.359100  1
  C  C949  1  0.299500  0.702100  0.872000  1
  C  C950  1  0.700500  0.202100  0.628000  1
  C  C951  1  0.700500  0.297900  0.128000  1
  C  C952  1  0.299500  0.797900  0.372000  1
  C  C953  1  0.368600  0.714700  0.877500  1
  C  C954  1  0.631400  0.214700  0.622500  1
  C  C955  1  0.631400  0.285300  0.122500  1
  C  C956  1  0.368600  0.785300  0.377500  1
  C  C957  1  0.427200  0.693200  0.873100  1
  C  C958  1  0.572800  0.193200  0.626900  1
  C  C959  1  0.572800  0.306800  0.126900  1
  C  C960  1  0.427200  0.806800  0.373100  1
  C  C961  1  0.416500  0.659100  0.863100  1
  C  C962  1  0.583500  0.159100  0.636900  1
  C  C963  1  0.583500  0.340900  0.136900  1
  C  C964  1  0.416500  0.840900  0.363100  1
  C  C965  1  0.288900  0.667900  0.862100  1
  C  C966  1  0.711100  0.167900  0.637900  1
  C  C967  1  0.711100  0.332100  0.137900  1
  C  C968  1  0.288900  0.832100  0.362100  1
  C  C969  1  0.800500  0.858000  0.962200  1
  C  C970  1  0.199500  0.358000  0.537800  1
  C  C971  1  0.199500  0.142000  0.037800  1
  C  C972  1  0.800500  0.642000  0.462200  1
  C  C973  1  0.863700  0.849500  0.981000  1
  C  C974  1  0.136300  0.349500  0.519000  1
  C  C975  1  0.136300  0.150500  0.019000  1
  C  C976  1  0.863700  0.650500  0.481000  1
  C  C977  1  0.855100  0.856600  0.015500  1
  C  C978  1  0.144900  0.356600  0.484500  1
  C  C979  1  0.144900  0.143400  0.984500  1
  C  C980  1  0.855100  0.643400  0.515500  1
  C  C981  1  0.797700  0.867100  0.031600  1
  C  C982  1  0.202300  0.367100  0.468400  1
  C  C983  1  0.202300  0.132900  0.968400  1
  C  C984  1  0.797700  0.632900  0.531600  1
  C  C985  1  0.738900  0.874700  0.015400  1
  C  C986  1  0.261100  0.374700  0.484600  1
  C  C987  1  0.261100  0.125300  0.984600  1
  C  C988  1  0.738900  0.625300  0.515400  1
  C  C989  1  0.743400  0.868600  0.976200  1
  C  C990  1  0.256600  0.368600  0.523800  1
  C  C991  1  0.256600  0.131400  0.023800  1
  C  C992  1  0.743400  0.631400  0.476200  1
  C  C993  1  0.613600  0.883300  0.958800  1
  C  C994  1  0.386400  0.383300  0.541200  1
  C  C995  1  0.386400  0.116700  0.041200  1
  C  C996  1  0.613600  0.616700  0.458800  1
  C  C997  1  0.718200  0.861700  0.924100  1
  C  C998  1  0.281800  0.361700  0.575900  1
  C  C999  1  0.281800  0.138300  0.075900  1
  C  C1000  1  0.718200  0.638300  0.424100  1
  C  C1001  1  0.684700  0.857100  0.888600  1
  C  C1002  1  0.315300  0.357100  0.611400  1
  C  C1003  1  0.315300  0.142900  0.111400  1
  C  C1004  1  0.684700  0.642900  0.388600  1
  C  C1005  1  0.615700  0.866600  0.879400  1
  C  C1006  1  0.384300  0.366600  0.620600  1
  C  C1007  1  0.384300  0.133400  0.120600  1
  C  C1008  1  0.615700  0.633400  0.379400  1
  C  C1009  1  0.598000  0.863400  0.843300  1
  C  C1010  1  0.402000  0.363400  0.656700  1
  C  C1011  1  0.402000  0.136600  0.156700  1
  C  C1012  1  0.598000  0.636600  0.343300  1
  C  C1013  1  0.647500  0.854200  0.820100  1
  C  C1014  1  0.352500  0.354200  0.679900  1
  C  C1015  1  0.352500  0.145800  0.179900  1
  C  C1016  1  0.647500  0.645800  0.320100  1
  C  C1017  1  0.713000  0.846100  0.830800  1
  C  C1018  1  0.287000  0.346100  0.669200  1
  C  C1019  1  0.287000  0.153900  0.169200  1
  C  C1020  1  0.713000  0.653900  0.330800  1
  C  C1021  1  0.626300  0.853200  0.782000  1
  C  C1022  1  0.373700  0.353200  0.718000  1
  C  C1023  1  0.373700  0.146800  0.218000  1
  C  C1024  1  0.626300  0.646800  0.282000  1
  C  C1025  1  0.556400  0.846500  0.770500  1
  C  C1026  1  0.443600  0.346500  0.729500  1
  C  C1027  1  0.443600  0.153500  0.229500  1
  C  C1028  1  0.556400  0.653500  0.270500  1
  C  C1029  1  0.539000  0.846200  0.735300  1
  C  C1030  1  0.461000  0.346200  0.764700  1
  C  C1031  1  0.461000  0.153800  0.264700  1
  C  C1032  1  0.539000  0.653800  0.235300  1
  C  C1033  1  0.591500  0.852700  0.711700  1
  C  C1034  1  0.408500  0.352700  0.788300  1
  C  C1035  1  0.408500  0.147300  0.288300  1
  C  C1036  1  0.591500  0.647300  0.211700  1
  C  C1037  1  0.661500  0.859400  0.723200  1
  C  C1038  1  0.338500  0.359400  0.776800  1
  C  C1039  1  0.338500  0.140600  0.276800  1
  C  C1040  1  0.661500  0.640600  0.223200  1
  C  C1041  1  0.678900  0.859700  0.758400  1
  C  C1042  1  0.321100  0.359700  0.741600  1
  C  C1043  1  0.321100  0.140300  0.241600  1
  C  C1044  1  0.678900  0.640300  0.258400  1
  C  C1045  1  0.433200  0.848900  0.526800  1
  C  C1046  1  0.566800  0.348900  0.973200  1
  C  C1047  1  0.566800  0.151100  0.473200  1
  C  C1048  1  0.433200  0.651100  0.026800  1
  C  C1049  1  0.373000  0.845300  0.506200  1
  C  C1050  1  0.627000  0.345300  0.993800  1
  C  C1051  1  0.627000  0.154700  0.493800  1
  C  C1052  1  0.373000  0.654700  0.006200  1
  C  C1053  1  0.377000  0.847600  0.469600  1
  C  C1054  1  0.623000  0.347600  0.030400  1
  C  C1055  1  0.623000  0.152400  0.530400  1
  C  C1056  1  0.377000  0.652400  0.969600  1
  C  C1057  1  0.443200  0.854100  0.457800  1
  C  C1058  1  0.556800  0.354100  0.042200  1
  C  C1059  1  0.556800  0.145900  0.542200  1
  C  C1060  1  0.443200  0.645900  0.957800  1
  C  C1061  1  0.506100  0.859400  0.476400  1
  C  C1062  1  0.493900  0.359400  0.023600  1
  C  C1063  1  0.493900  0.140600  0.523600  1
  C  C1064  1  0.506100  0.640600  0.976400  1
  C  C1065  1  0.497000  0.855900  0.513100  1
  C  C1066  1  0.503000  0.355900  0.986900  1
  C  C1067  1  0.503000  0.144100  0.486900  1
  C  C1068  1  0.497000  0.644100  0.013100  1
  C  C1069  1  0.627900  0.858300  0.532500  1
  C  C1070  1  0.372100  0.358300  0.967500  1
  C  C1071  1  0.372100  0.141700  0.467500  1
  C  C1072  1  0.627900  0.641700  0.032500  1
  C  C1073  1  0.519200  0.854000  0.566000  1
  C  C1074  1  0.480800  0.354000  0.934000  1
  C  C1075  1  0.480800  0.146000  0.434000  1
  C  C1076  1  0.519200  0.646000  0.066000  1
  C  C1077  1  0.547100  0.852100  0.603800  1
  C  C1078  1  0.452900  0.352100  0.896200  1
  C  C1079  1  0.452900  0.147900  0.396200  1
  C  C1080  1  0.547100  0.647900  0.103800  1
  C  C1081  1  0.612400  0.857000  0.613400  1
  C  C1082  1  0.387600  0.357000  0.886600  1
  C  C1083  1  0.387600  0.143000  0.386600  1
  C  C1084  1  0.612400  0.643000  0.113400  1
  C  C1085  1  0.633300  0.858900  0.650500  1
  C  C1086  1  0.366700  0.358900  0.849500  1
  C  C1087  1  0.366700  0.141100  0.349500  1
  C  C1088  1  0.633300  0.641100  0.150500  1
  C  C1089  1  0.578000  0.850300  0.673700  1
  C  C1090  1  0.422000  0.350300  0.826300  1
  C  C1091  1  0.422000  0.149700  0.326300  1
  C  C1092  1  0.578000  0.649700  0.173700  1
  C  C1093  1  0.510000  0.846300  0.659400  1
  C  C1094  1  0.490000  0.346300  0.840600  1
  C  C1095  1  0.490000  0.153700  0.340600  1
  C  C1096  1  0.510000  0.653700  0.159400  1
  C  C1097  1  0.886000  0.544300  0.513600  1
  C  C1098  1  0.114000  0.044300  0.986400  1
  C  C1099  1  0.114000  0.455700  0.486400  1
  C  C1100  1  0.886000  0.955700  0.013600  1
  C  C1101  1  0.956000  0.553900  0.512500  1
  C  C1102  1  0.044000  0.053900  0.987500  1
  C  C1103  1  0.044000  0.446100  0.487500  1
  C  C1104  1  0.956000  0.946100  0.012500  1
  C  C1105  1  0.001500  0.569500  0.534600  1
  C  C1106  1  0.998500  0.069500  0.965400  1
  C  C1107  1  0.998500  0.430500  0.465400  1
  C  C1108  1  0.001500  0.930500  0.034600  1
  C  C1109  1  0.975900  0.579100  0.567600  1
  C  C1110  1  0.024100  0.079100  0.932400  1
  C  C1111  1  0.024100  0.420900  0.432400  1
  C  C1112  1  0.975900  0.920900  0.067600  1
  C  C1113  1  0.749000  0.525400  0.543100  1
  C  C1114  1  0.251000  0.025400  0.956900  1
  C  C1115  1  0.251000  0.474600  0.456900  1
  C  C1116  1  0.749000  0.974600  0.043100  1
  C  C1117  1  0.753000  0.557100  0.627000  1
  C  C1118  1  0.247000  0.057100  0.873000  1
  C  C1119  1  0.247000  0.442900  0.373000  1
  C  C1120  1  0.753000  0.942900  0.127000  1
  C  C1121  1  0.698000  0.537300  0.626100  1
  C  C1122  1  0.302000  0.037300  0.873900  1
  C  C1123  1  0.302000  0.462700  0.373900  1
  C  C1124  1  0.698000  0.962700  0.126100  1
  C  C1125  1  0.652000  0.544000  0.657200  1
  C  C1126  1  0.348000  0.044000  0.842800  1
  C  C1127  1  0.348000  0.456000  0.342800  1
  C  C1128  1  0.652000  0.956000  0.157200  1
  C  C1129  1  0.682800  0.559700  0.685200  1
  C  C1130  1  0.317200  0.059700  0.814800  1
  C  C1131  1  0.317200  0.440300  0.314800  1
  C  C1132  1  0.682800  0.940300  0.185200  1
  C  C1133  1  0.742000  0.577200  0.682800  1
  C  C1134  1  0.258000  0.077200  0.817200  1
  C  C1135  1  0.258000  0.422800  0.317200  1
  C  C1136  1  0.742000  0.922800  0.182800  1
  C  C1137  1  0.635300  0.566100  0.716800  1
  C  C1138  1  0.364700  0.066100  0.783200  1
  C  C1139  1  0.364700  0.433900  0.283200  1
  C  C1140  1  0.635300  0.933900  0.216800  1
  C  C1141  1  0.672600  0.571200  0.748100  1
  C  C1142  1  0.327400  0.071200  0.751900  1
  C  C1143  1  0.327400  0.428800  0.251900  1
  C  C1144  1  0.672600  0.928800  0.248100  1
  C  C1145  1  0.635900  0.572500  0.778600  1
  C  C1146  1  0.364100  0.072500  0.721400  1
  C  C1147  1  0.364100  0.427500  0.221400  1
  C  C1148  1  0.635900  0.927500  0.278600  1
  C  C1149  1  0.561800  0.568700  0.777800  1
  C  C1150  1  0.438200  0.068700  0.722200  1
  C  C1151  1  0.438200  0.431300  0.222200  1
  C  C1152  1  0.561800  0.931300  0.277800  1
  C  C1153  1  0.524500  0.563600  0.746600  1
  C  C1154  1  0.475500  0.063600  0.753400  1
  C  C1155  1  0.475500  0.436400  0.253400  1
  C  C1156  1  0.524500  0.936400  0.246600  1
  C  C1157  1  0.561200  0.562300  0.716100  1
  C  C1158  1  0.438800  0.062300  0.783900  1
  C  C1159  1  0.438800  0.437700  0.283900  1
  C  C1160  1  0.561200  0.937700  0.216100  1
  C  C1161  1  0.300000  0.585900  0.923200  1
  C  C1162  1  0.700000  0.085900  0.576800  1
  C  C1163  1  0.700000  0.414100  0.076800  1
  C  C1164  1  0.300000  0.914100  0.423200  1
  C  C1165  1  0.230000  0.595400  0.929500  1
  C  C1166  1  0.770000  0.095400  0.570500  1
  C  C1167  1  0.770000  0.404600  0.070500  1
  C  C1168  1  0.230000  0.904600  0.429500  1
  C  C1169  1  0.212500  0.593200  0.967700  1
  C  C1170  1  0.787500  0.093200  0.532300  1
  C  C1171  1  0.787500  0.406800  0.032300  1
  C  C1172  1  0.212500  0.906800  0.467700  1
  C  C1173  1  0.257800  0.577200  0.989400  1
  C  C1174  1  0.742200  0.077200  0.510600  1
  C  C1175  1  0.742200  0.422800  0.010600  1
  C  C1176  1  0.257800  0.922800  0.489400  1
  C  C1177  1  0.325000  0.565700  0.982700  1
  C  C1178  1  0.675000  0.065700  0.517300  1
  C  C1179  1  0.675000  0.434300  0.017300  1
  C  C1180  1  0.325000  0.934300  0.482700  1
  C  C1181  1  0.343100  0.571000  0.946900  1
  C  C1182  1  0.656900  0.071000  0.553100  1
  C  C1183  1  0.656900  0.429000  0.053100  1
  C  C1184  1  0.343100  0.929000  0.446900  1
  C  C1185  1  0.470400  0.551100  0.951300  1
  C  C1186  1  0.529600  0.051100  0.548700  1
  C  C1187  1  0.529600  0.448900  0.048700  1
  C  C1188  1  0.470400  0.948900  0.451300  1
  C  C1189  1  0.397000  0.572000  0.898100  1
  C  C1190  1  0.603000  0.072000  0.601900  1
  C  C1191  1  0.603000  0.428000  0.101900  1
  C  C1192  1  0.397000  0.928000  0.398100  1
  C  C1193  1  0.447300  0.569900  0.871700  1
  C  C1194  1  0.552700  0.069900  0.628300  1
  C  C1195  1  0.552700  0.430100  0.128300  1
  C  C1196  1  0.447300  0.930100  0.371700  1
  C  C1197  1  0.515900  0.556000  0.871700  1
  C  C1198  1  0.484100  0.056000  0.628300  1
  C  C1199  1  0.484100  0.444000  0.128300  1
  C  C1200  1  0.515900  0.944000  0.371700  1
  C  C1201  1  0.554300  0.556200  0.841600  1
  C  C1202  1  0.445700  0.056200  0.658400  1
  C  C1203  1  0.445700  0.443800  0.158400  1
  C  C1204  1  0.554300  0.943800  0.341600  1
  C  C1205  1  0.524000  0.570300  0.811600  1
  C  C1206  1  0.476000  0.070300  0.688400  1
  C  C1207  1  0.476000  0.429700  0.188400  1
  C  C1208  1  0.524000  0.929700  0.311600  1
  C  C1209  1  0.455400  0.584200  0.811500  1
  C  C1210  1  0.544600  0.084200  0.688500  1
  C  C1211  1  0.544600  0.415800  0.188500  1
  C  C1212  1  0.455400  0.915800  0.311500  1
  C  C1213  1  0.080800  0.679900  0.621900  1
  C  C1214  1  0.919200  0.179900  0.878100  1
  C  C1215  1  0.919200  0.320100  0.378100  1
  C  C1216  1  0.080800  0.820100  0.121900  1
  C  C1217  1  0.916800  0.657200  0.628600  1
  C  C1218  1  0.083200  0.157200  0.871400  1
  C  C1219  1  0.083200  0.342800  0.371400  1
  C  C1220  1  0.916800  0.842800  0.128600  1
  C  C1221  1  0.914200  0.689900  0.619100  1
  C  C1222  1  0.085800  0.189900  0.880900  1
  C  C1223  1  0.085800  0.310100  0.380900  1
  C  C1224  1  0.914200  0.810100  0.119100  1
  C  C1225  1  0.847400  0.701900  0.615500  1
  C  C1226  1  0.152600  0.201900  0.884500  1
  C  C1227  1  0.152600  0.298100  0.384500  1
  C  C1228  1  0.847400  0.798100  0.115500  1
  C  C1229  1  0.786700  0.683000  0.618500  1
  C  C1230  1  0.213300  0.183000  0.881500  1
  C  C1231  1  0.213300  0.317000  0.381500  1
  C  C1232  1  0.786700  0.817000  0.118500  1
  C  C1233  1  0.798500  0.649800  0.629500  1
  C  C1234  1  0.201500  0.149800  0.870500  1
  C  C1235  1  0.201500  0.350200  0.370500  1
  C  C1236  1  0.798500  0.850200  0.129500  1
  C  C1237  1  0.712000  0.697100  0.609800  1
  C  C1238  1  0.288000  0.197100  0.890200  1
  C  C1239  1  0.288000  0.302900  0.390200  1
  C  C1240  1  0.712000  0.802900  0.109800  1
  C  C1241  1  0.699400  0.732100  0.614900  1
  C  C1242  1  0.300600  0.232100  0.885100  1
  C  C1243  1  0.300600  0.267900  0.385100  1
  C  C1244  1  0.699400  0.767900  0.114900  1
  C  C1245  1  0.630900  0.745400  0.609200  1
  C  C1246  1  0.369100  0.245400  0.890800  1
  C  C1247  1  0.369100  0.254600  0.390800  1
  C  C1248  1  0.630900  0.754600  0.109200  1
  C  C1249  1  0.575000  0.723800  0.598500  1
  C  C1250  1  0.425000  0.223800  0.901500  1
  C  C1251  1  0.425000  0.276200  0.401500  1
  C  C1252  1  0.575000  0.776200  0.098500  1
  C  C1253  1  0.587600  0.688900  0.593500  1
  C  C1254  1  0.412400  0.188900  0.906500  1
  C  C1255  1  0.412400  0.311100  0.406500  1
  C  C1256  1  0.587600  0.811100  0.093500  1
  C  C1257  1  0.656100  0.675500  0.599100  1
  C  C1258  1  0.343900  0.175500  0.900900  1
  C  C1259  1  0.343900  0.324500  0.400900  1
  C  C1260  1  0.656100  0.824500  0.099100  1
  C  C1261  1  0.210100  0.743800  0.557600  1
  C  C1262  1  0.789900  0.243800  0.942400  1
  C  C1263  1  0.789900  0.256200  0.442400  1
  C  C1264  1  0.210100  0.756200  0.057600  1
  C  C1265  1  0.369600  0.767700  0.579100  1
  C  C1266  1  0.630400  0.267700  0.920900  1
  C  C1267  1  0.630400  0.232300  0.420900  1
  C  C1268  1  0.369600  0.732300  0.079100  1
  C  C1269  1  0.380300  0.738900  0.565800  1
  C  C1270  1  0.619700  0.238900  0.934200  1
  C  C1271  1  0.619700  0.261100  0.434200  1
  C  C1272  1  0.380300  0.761100  0.065800  1
  C  C1273  1  0.444000  0.721100  0.574500  1
  C  C1274  1  0.556000  0.221100  0.925500  1
  C  C1275  1  0.556000  0.278900  0.425500  1
  C  C1276  1  0.444000  0.778900  0.074500  1
  C  C1277  1  0.505300  0.739000  0.592200  1
  C  C1278  1  0.494700  0.239000  0.907800  1
  C  C1279  1  0.494700  0.261000  0.407800  1
  C  C1280  1  0.505300  0.761000  0.092200  1
  C  C1281  1  0.484900  0.771900  0.601900  1
  C  C1282  1  0.515100  0.271900  0.898100  1
  C  C1283  1  0.515100  0.228100  0.398100  1
  C  C1284  1  0.484900  0.728100  0.101900  1
  C  C1285  1  0.284000  0.521500  0.840700  1
  C  C1286  1  0.716000  0.021500  0.659300  1
  C  C1287  1  0.716000  0.478500  0.159300  1
  C  C1288  1  0.284000  0.978500  0.340700  1
  C  C1289  1  0.280800  0.508400  0.874100  1
  C  C1290  1  0.719200  0.008400  0.625900  1
  C  C1291  1  0.719200  0.491600  0.125900  1
  C  C1292  1  0.280800  0.991600  0.374100  1
  C  C1293  1  0.270600  0.471700  0.876400  1
  C  C1294  1  0.729400  0.971700  0.623600  1
  C  C1295  1  0.729400  0.528300  0.123600  1
  C  C1296  1  0.270600  0.028300  0.376400  1
  C  C1297  1  0.263300  0.451200  0.849000  1
  C  C1298  1  0.736700  0.951200  0.651000  1
  C  C1299  1  0.736700  0.548800  0.151000  1
  C  C1300  1  0.263300  0.048800  0.349000  1
  C  C1301  1  0.264300  0.463300  0.816600  1
  C  C1302  1  0.735700  0.963300  0.683400  1
  C  C1303  1  0.735700  0.536700  0.183400  1
  C  C1304  1  0.264300  0.036700  0.316600  1
  C  C1305  1  0.273900  0.497200  0.814400  1
  C  C1306  1  0.726100  0.997200  0.685600  1
  C  C1307  1  0.726100  0.502800  0.185600  1
  C  C1308  1  0.273900  0.002800  0.314400  1
  C  C1309  1  0.289600  0.506600  0.749500  1
  C  C1310  1  0.710400  0.006600  0.750500  1
  C  C1311  1  0.710400  0.493400  0.250500  1
  C  C1312  1  0.289600  0.993400  0.249500  1
  C  C1313  1  0.288600  0.552400  0.793000  1
  C  C1314  1  0.711400  0.052400  0.707000  1
  C  C1315  1  0.711400  0.447600  0.207000  1
  C  C1316  1  0.288600  0.947600  0.293000  1
  C  C1317  1  0.294200  0.581800  0.774400  1
  C  C1318  1  0.705800  0.081800  0.725600  1
  C  C1319  1  0.705800  0.418200  0.225600  1
  C  C1320  1  0.294200  0.918200  0.274400  1
  C  C1321  1  0.288000  0.586300  0.738800  1
  C  C1322  1  0.712000  0.086300  0.761200  1
  C  C1323  1  0.712000  0.413700  0.261200  1
  C  C1324  1  0.288000  0.913700  0.238800  1
  C  C1325  1  0.291700  0.619400  0.725900  1
  C  C1326  1  0.708300  0.119400  0.774100  1
  C  C1327  1  0.708300  0.380600  0.274100  1
  C  C1328  1  0.291700  0.880600  0.225900  1
  C  C1329  1  0.302400  0.648600  0.745500  1
  C  C1330  1  0.697600  0.148600  0.754500  1
  C  C1331  1  0.697600  0.351400  0.254500  1
  C  C1332  1  0.302400  0.851400  0.245500  1
  C  C1333  1  0.312700  0.641000  0.779500  1
  C  C1334  1  0.687300  0.141000  0.720500  1
  C  C1335  1  0.687300  0.359000  0.220500  1
  C  C1336  1  0.312700  0.859000  0.279500  1
  C  C1337  1  0.304300  0.684000  0.732900  1
  C  C1338  1  0.695700  0.184000  0.767100  1
  C  C1339  1  0.695700  0.316000  0.267100  1
  C  C1340  1  0.304300  0.816000  0.232900  1
  C  C1341  1  0.308900  0.688800  0.697900  1
  C  C1342  1  0.691100  0.188800  0.802100  1
  C  C1343  1  0.691100  0.311200  0.302100  1
  C  C1344  1  0.308900  0.811200  0.197900  1
  C  C1345  1  0.318400  0.723200  0.685200  1
  C  C1346  1  0.681600  0.223200  0.814800  1
  C  C1347  1  0.681600  0.276800  0.314800  1
  C  C1348  1  0.318400  0.776800  0.185200  1
  C  C1349  1  0.312400  0.751300  0.705300  1
  C  C1350  1  0.687600  0.251300  0.794700  1
  C  C1351  1  0.687600  0.248700  0.294700  1
  C  C1352  1  0.312400  0.748700  0.205300  1
  C  C1353  1  0.304800  0.747000  0.739800  1
  C  C1354  1  0.695200  0.247000  0.760200  1
  C  C1355  1  0.695200  0.253000  0.260200  1
  C  C1356  1  0.304800  0.753000  0.239800  1
  C  C1357  1  0.302600  0.712500  0.751800  1
  C  C1358  1  0.697400  0.212500  0.748200  1
  C  C1359  1  0.697400  0.287500  0.248200  1
  C  C1360  1  0.302600  0.787500  0.251800  1
  C  C1361  1  0.371000  0.916500  0.603800  1
  C  C1362  1  0.629000  0.416500  0.896200  1
  C  C1363  1  0.629000  0.083500  0.396200  1
  C  C1364  1  0.371000  0.583500  0.103800  1
  C  C1365  1  0.405900  0.930400  0.572800  1
  C  C1366  1  0.594100  0.430400  0.927200  1
  C  C1367  1  0.594100  0.069600  0.427200  1
  C  C1368  1  0.405900  0.569600  0.072800  1
  C  C1369  1  0.399100  0.962600  0.567300  1
  C  C1370  1  0.600900  0.462600  0.932700  1
  C  C1371  1  0.600900  0.037400  0.432700  1
  C  C1372  1  0.399100  0.537400  0.067300  1
  C  C1373  1  0.363300  0.984300  0.588100  1
  C  C1374  1  0.636700  0.484300  0.911900  1
  C  C1375  1  0.636700  0.015700  0.411900  1
  C  C1376  1  0.363300  0.515700  0.088100  1
  C  C1377  1  0.330800  0.971700  0.615700  1
  C  C1378  1  0.669200  0.471700  0.884300  1
  C  C1379  1  0.669200  0.028300  0.384300  1
  C  C1380  1  0.330800  0.528300  0.115700  1
  C  C1381  1  0.334600  0.937000  0.622000  1
  C  C1382  1  0.665400  0.437000  0.878000  1
  C  C1383  1  0.665400  0.063000  0.378000  1
  C  C1384  1  0.334600  0.563000  0.122000  1
  C  C1385  1  0.269800  0.926100  0.678800  1
  C  C1386  1  0.730200  0.426100  0.821200  1
  C  C1387  1  0.730200  0.073900  0.321200  1
  C  C1388  1  0.269800  0.573900  0.178800  1
  C  C1389  1  0.326500  0.884800  0.642300  1
  C  C1390  1  0.673500  0.384800  0.857700  1
  C  C1391  1  0.673500  0.115200  0.357700  1
  C  C1392  1  0.326500  0.615200  0.142300  1
  C  C1393  1  0.320100  0.852000  0.662400  1
  C  C1394  1  0.679900  0.352000  0.837600  1
  C  C1395  1  0.679900  0.148000  0.337600  1
  C  C1396  1  0.320100  0.648000  0.162400  1
  C  C1397  1  0.286200  0.846700  0.692300  1
  C  C1398  1  0.713800  0.346700  0.807700  1
  C  C1399  1  0.713800  0.153300  0.307700  1
  C  C1400  1  0.286200  0.653300  0.192300  1
  C  C1401  1  0.284900  0.815600  0.707500  1
  C  C1402  1  0.715100  0.315600  0.792500  1
  C  C1403  1  0.715100  0.184400  0.292500  1
  C  C1404  1  0.284900  0.684400  0.207500  1
  C  C1405  1  0.317400  0.786000  0.691500  1
  C  C1406  1  0.682600  0.286000  0.808500  1
  C  C1407  1  0.682600  0.214000  0.308500  1
  C  C1408  1  0.317400  0.714000  0.191500  1
  C  C1409  1  0.351200  0.793000  0.660600  1
  C  C1410  1  0.648800  0.293000  0.839400  1
  C  C1411  1  0.648800  0.207000  0.339400  1
  C  C1412  1  0.351200  0.707000  0.160600  1
  N  N1413  1  0.863400  0.823500  0.841000  1
  N  N1414  1  0.136600  0.323500  0.659000  1
  N  N1415  1  0.136600  0.176500  0.159000  1
  N  N1416  1  0.863400  0.676500  0.341000  1
  N  N1417  1  0.861800  0.883600  0.872400  1
  N  N1418  1  0.138200  0.383600  0.627600  1
  N  N1419  1  0.138200  0.116400  0.127600  1
  N  N1420  1  0.861800  0.616400  0.372400  1
  N  N1421  1  0.906400  0.913600  0.833600  1
  N  N1422  1  0.093600  0.413600  0.666400  1
  N  N1423  1  0.093600  0.086400  0.166400  1
  N  N1424  1  0.906400  0.586400  0.333600  1
  N  N1425  1  0.889800  0.602600  0.701100  1
  N  N1426  1  0.110200  0.102600  0.798900  1
  N  N1427  1  0.110200  0.397400  0.298900  1
  N  N1428  1  0.889800  0.897400  0.201100  1
  N  N1429  1  0.903700  0.545300  0.671300  1
  N  N1430  1  0.096300  0.045300  0.828700  1
  N  N1431  1  0.096300  0.454700  0.328700  1
  N  N1432  1  0.903700  0.954700  0.171300  1
  N  N1433  1  0.885300  0.511300  0.717700  1
  N  N1434  1  0.114700  0.011300  0.782300  1
  N  N1435  1  0.114700  0.488700  0.282300  1
  N  N1436  1  0.885300  0.988700  0.217700  1
  N  N1437  1  0.797000  0.789500  0.897000  1
  N  N1438  1  0.203000  0.289500  0.603000  1
  N  N1439  1  0.203000  0.210500  0.103000  1
  N  N1440  1  0.797000  0.710500  0.397000  1
  N  N1441  1  0.913300  0.822000  0.909300  1
  N  N1442  1  0.086700  0.322000  0.590700  1
  N  N1443  1  0.086700  0.178000  0.090700  1
  N  N1444  1  0.913300  0.678000  0.409300  1
  N  N1445  1  0.979800  0.778600  0.927900  1
  N  N1446  1  0.020200  0.278600  0.572100  1
  N  N1447  1  0.020200  0.221400  0.072100  1
  N  N1448  1  0.979800  0.721400  0.427900  1
  N  N1449  1  0.223000  0.618200  0.849600  1
  N  N1450  1  0.777000  0.118200  0.650400  1
  N  N1451  1  0.777000  0.381800  0.150400  1
  N  N1452  1  0.223000  0.881800  0.349600  1
  N  N1453  1  0.151800  0.662600  0.862800  1
  N  N1454  1  0.848200  0.162600  0.637200  1
  N  N1455  1  0.848200  0.337400  0.137200  1
  N  N1456  1  0.151800  0.837400  0.362800  1
  N  N1457  1  0.733200  0.848200  0.865300  1
  N  N1458  1  0.266800  0.348200  0.634700  1
  N  N1459  1  0.266800  0.151800  0.134700  1
  N  N1460  1  0.733200  0.651800  0.365300  1
  N  N1461  1  0.780900  0.852000  0.927100  1
  N  N1462  1  0.219100  0.352000  0.572900  1
  N  N1463  1  0.219100  0.148000  0.072900  1
  N  N1464  1  0.780900  0.648000  0.427100  1
  N  N1465  1  0.685000  0.871800  0.951300  1
  N  N1466  1  0.315000  0.371800  0.548700  1
  N  N1467  1  0.315000  0.128200  0.048700  1
  N  N1468  1  0.685000  0.628200  0.451300  1
  N  N1469  1  0.495200  0.845300  0.624200  1
  N  N1470  1  0.504800  0.345300  0.875800  1
  N  N1471  1  0.504800  0.154700  0.375800  1
  N  N1472  1  0.495200  0.654700  0.124200  1
  N  N1473  1  0.450100  0.847100  0.561600  1
  N  N1474  1  0.549900  0.347100  0.938400  1
  N  N1475  1  0.549900  0.152900  0.438400  1
  N  N1476  1  0.450100  0.652900  0.061600  1
  N  N1477  1  0.551700  0.858800  0.537300  1
  N  N1478  1  0.448300  0.358800  0.962700  1
  N  N1479  1  0.448300  0.141200  0.462700  1
  N  N1480  1  0.551700  0.641200  0.037300  1
  N  N1481  1  0.782700  0.576400  0.654400  1
  N  N1482  1  0.217300  0.076400  0.845600  1
  N  N1483  1  0.217300  0.423600  0.345600  1
  N  N1484  1  0.782700  0.923600  0.154400  1
  N  N1485  1  0.800000  0.543500  0.564700  1
  N  N1486  1  0.200000  0.043500  0.935300  1
  N  N1487  1  0.200000  0.456500  0.435300  1
  N  N1488  1  0.800000  0.956500  0.064700  1
  N  N1489  1  0.872400  0.572000  0.604500  1
  N  N1490  1  0.127600  0.072000  0.895500  1
  N  N1491  1  0.127600  0.428000  0.395500  1
  N  N1492  1  0.872400  0.928000  0.104500  1
  N  N1493  1  0.333500  0.585200  0.891300  1
  N  N1494  1  0.666500  0.085200  0.608700  1
  N  N1495  1  0.666500  0.414800  0.108700  1
  N  N1496  1  0.333500  0.914800  0.391300  1
  N  N1497  1  0.405600  0.563400  0.932400  1
  N  N1498  1  0.594400  0.063400  0.567600  1
  N  N1499  1  0.594400  0.436600  0.067600  1
  N  N1500  1  0.405600  0.936600  0.432400  1
  N  N1501  1  0.862700  0.637000  0.634400  1
  N  N1502  1  0.137300  0.137000  0.865600  1
  N  N1503  1  0.137300  0.363000  0.365600  1
  N  N1504  1  0.862700  0.863000  0.134400  1
  N  N1505  1  0.053800  0.646700  0.630800  1
  N  N1506  1  0.946200  0.146700  0.869200  1
  N  N1507  1  0.946200  0.353300  0.369200  1
  N  N1508  1  0.053800  0.853300  0.130800  1
  N  N1509  1  0.980200  0.604100  0.646600  1
  N  N1510  1  0.019800  0.104100  0.853400  1
  N  N1511  1  0.019800  0.395900  0.353400  1
  N  N1512  1  0.980200  0.895900  0.146600  1
  N  N1513  1  0.421600  0.787500  0.595600  1
  N  N1514  1  0.578400  0.287500  0.904400  1
  N  N1515  1  0.578400  0.212500  0.404400  1
  N  N1516  1  0.421600  0.712500  0.095600  1
  N  N1517  1  0.310300  0.823600  0.579700  1
  N  N1518  1  0.689700  0.323600  0.920300  1
  N  N1519  1  0.689700  0.176400  0.420300  1
  N  N1520  1  0.310300  0.676400  0.079700  1
  N  N1521  1  0.237400  0.778400  0.562900  1
  N  N1522  1  0.762600  0.278400  0.937100  1
  N  N1523  1  0.762600  0.221600  0.437100  1
  N  N1524  1  0.237400  0.721600  0.062900  1
  N  N1525  1  0.308700  0.610700  0.794900  1
  N  N1526  1  0.691300  0.110700  0.705100  1
  N  N1527  1  0.691300  0.389300  0.205100  1
  N  N1528  1  0.308700  0.889300  0.294900  1
  N  N1529  1  0.289900  0.554900  0.828800  1
  N  N1530  1  0.710100  0.054900  0.671200  1
  N  N1531  1  0.710100  0.445100  0.171200  1
  N  N1532  1  0.289900  0.945100  0.328800  1
  N  N1533  1  0.284000  0.519200  0.783500  1
  N  N1534  1  0.716000  0.019200  0.716500  1
  N  N1535  1  0.716000  0.480800  0.216500  1
  N  N1536  1  0.284000  0.980800  0.283500  1
  N  N1537  1  0.351800  0.824500  0.647400  1
  N  N1538  1  0.648200  0.324500  0.852600  1
  N  N1539  1  0.648200  0.175500  0.352600  1
  N  N1540  1  0.351800  0.675500  0.147400  1
  N  N1541  1  0.368400  0.882300  0.614700  1
  N  N1542  1  0.631600  0.382300  0.885300  1
  N  N1543  1  0.631600  0.117700  0.385300  1
  N  N1544  1  0.368400  0.617700  0.114700  1
  N  N1545  1  0.306900  0.916300  0.648200  1
  N  N1546  1  0.693100  0.416300  0.851800  1
  N  N1547  1  0.693100  0.083700  0.351800  1
  N  N1548  1  0.306900  0.583700  0.148200  1
  N  N1549  1  0.347400  0.646400  0.857600  1
  N  N1550  1  0.652600  0.146400  0.642400  1
  N  N1551  1  0.652600  0.353600  0.142400  1
  N  N1552  1  0.347400  0.853600  0.357600  1
  N  N1553  1  0.417100  0.584000  0.841600  1
  N  N1554  1  0.582900  0.084000  0.658400  1
  N  N1555  1  0.582900  0.416000  0.158400  1
  N  N1556  1  0.417100  0.916000  0.341600  1
  F  F1557  1  0.724200  0.779000  0.767800  1
  F  F1558  1  0.275800  0.279000  0.732200  1
  F  F1559  1  0.275800  0.221000  0.232200  1
  F  F1560  1  0.724200  0.721000  0.267800  1
  F  F1561  1  0.633900  0.809400  0.788200  1
  F  F1562  1  0.366100  0.309400  0.711800  1
  F  F1563  1  0.366100  0.190600  0.211800  1
  F  F1564  1  0.633900  0.690600  0.288200  1
  F  F1565  1  0.710100  0.740200  0.808100  1
  F  F1566  1  0.289900  0.240200  0.691900  1
  F  F1567  1  0.289900  0.259800  0.191900  1
  F  F1568  1  0.710100  0.759800  0.308100  1
  F  F1569  1  0.619500  0.755200  0.773100  1
  F  F1570  1  0.380500  0.255200  0.726900  1
  F  F1571  1  0.380500  0.244800  0.226900  1
  F  F1572  1  0.619500  0.744800  0.273100  1
  F  F1573  1  0.725800  0.794400  0.821800  1
  F  F1574  1  0.274200  0.294400  0.678200  1
  F  F1575  1  0.274200  0.205600  0.178200  1
  F  F1576  1  0.725800  0.705600  0.321800  1
  F  F1577  1  0.621400  0.769800  0.828000  1
  F  F1578  1  0.378600  0.269800  0.672000  1
  F  F1579  1  0.378600  0.230200  0.172000  1
  F  F1580  1  0.621400  0.730200  0.328000  1
  F  F1581  1  0.134800  0.535300  0.758300  1
  F  F1582  1  0.865200  0.035300  0.741700  1
  F  F1583  1  0.865200  0.464700  0.241700  1
  F  F1584  1  0.134800  0.964700  0.258300  1
  F  F1585  1  0.141800  0.478100  0.754800  1
  F  F1586  1  0.858200  0.978100  0.745200  1
  F  F1587  1  0.858200  0.521900  0.245200  1
  F  F1588  1  0.141800  0.021900  0.254800  1
  F  F1589  1  0.020400  0.531800  0.767300  1
  F  F1590  1  0.979600  0.031800  0.732700  1
  F  F1591  1  0.979600  0.468200  0.232700  1
  F  F1592  1  0.020400  0.968200  0.267300  1
  F  F1593  1  0.065700  0.506800  0.721800  1
  F  F1594  1  0.934300  0.006800  0.778200  1
  F  F1595  1  0.934300  0.493200  0.278200  1
  F  F1596  1  0.065700  0.993200  0.221800  1
  F  F1597  1  0.097300  0.502600  0.800300  1
  F  F1598  1  0.902700  0.002600  0.699700  1
  F  F1599  1  0.902700  0.497400  0.199700  1
  F  F1600  1  0.097300  0.997400  0.300300  1
  F  F1601  1  0.024700  0.475600  0.763500  1
  F  F1602  1  0.975300  0.975600  0.736500  1
  F  F1603  1  0.975300  0.524400  0.236500  1
  F  F1604  1  0.024700  0.024400  0.263500  1
  F  F1605  1  0.790200  0.575100  0.822000  1
  F  F1606  1  0.209800  0.075100  0.678000  1
  F  F1607  1  0.209800  0.424900  0.178000  1
  F  F1608  1  0.790200  0.924900  0.322000  1
  F  F1609  1  0.819400  0.519200  0.876400  1
  F  F1610  1  0.180600  0.019200  0.623600  1
  F  F1611  1  0.180600  0.480800  0.123600  1
  F  F1612  1  0.819400  0.980800  0.376400  1
  F  F1613  1  0.727800  0.551500  0.862400  1
  F  F1614  1  0.272200  0.051500  0.637600  1
  F  F1615  1  0.272200  0.448500  0.137600  1
  F  F1616  1  0.727800  0.948500  0.362400  1
  F  F1617  1  0.883100  0.541100  0.830500  1
  F  F1618  1  0.116900  0.041100  0.669500  1
  F  F1619  1  0.116900  0.458900  0.169500  1
  F  F1620  1  0.883100  0.958900  0.330500  1
  F  F1621  1  0.838200  0.569700  0.875400  1
  F  F1622  1  0.161800  0.069700  0.624600  1
  F  F1623  1  0.161800  0.430300  0.124600  1
  F  F1624  1  0.838200  0.930300  0.375400  1
  F  F1625  1  0.775800  0.517200  0.824300  1
  F  F1626  1  0.224200  0.017200  0.675700  1
  F  F1627  1  0.224200  0.482800  0.175700  1
  F  F1628  1  0.775800  0.982800  0.324300  1
  F  F1629  1  0.065700  0.907500  0.735500  1
  F  F1630  1  0.934300  0.407500  0.764500  1
  F  F1631  1  0.934300  0.092500  0.264500  1
  F  F1632  1  0.065700  0.592500  0.235500  1
  F  F1633  1  0.117900  0.870100  0.700700  1
  F  F1634  1  0.882100  0.370100  0.799300  1
  F  F1635  1  0.882100  0.129900  0.299300  1
  F  F1636  1  0.117900  0.629900  0.200700  1
  F  F1637  1  0.086300  0.873000  0.779300  1
  F  F1638  1  0.913700  0.373000  0.720700  1
  F  F1639  1  0.913700  0.127000  0.220700  1
  F  F1640  1  0.086300  0.627000  0.279300  1
  F  F1641  1  0.027900  0.855000  0.732100  1
  F  F1642  1  0.972100  0.355000  0.767900  1
  F  F1643  1  0.972100  0.145000  0.267900  1
  F  F1644  1  0.027900  0.645000  0.232100  1
  F  F1645  1  0.174600  0.889300  0.747100  1
  F  F1646  1  0.825400  0.389300  0.752900  1
  F  F1647  1  0.825400  0.110700  0.252900  1
  F  F1648  1  0.174600  0.610700  0.247100  1
  F  F1649  1  0.136300  0.835800  0.745500  1
  F  F1650  1  0.863700  0.335800  0.754500  1
  F  F1651  1  0.863700  0.164200  0.254500  1
  F  F1652  1  0.136300  0.664200  0.245500  1
  F  F1653  1  0.272000  0.782500  0.966200  1
  F  F1654  1  0.728000  0.282500  0.533800  1
  F  F1655  1  0.728000  0.217500  0.033800  1
  F  F1656  1  0.272000  0.717500  0.466200  1
  F  F1657  1  0.244400  0.699700  0.942500  1
  F  F1658  1  0.755600  0.199700  0.557500  1
  F  F1659  1  0.755600  0.300300  0.057500  1
  F  F1660  1  0.244400  0.800300  0.442500  1
  F  F1661  1  0.236800  0.760000  0.922900  1
  F  F1662  1  0.763200  0.260000  0.577100  1
  F  F1663  1  0.763200  0.240000  0.077100  1
  F  F1664  1  0.236800  0.740000  0.422900  1
  F  F1665  1  0.286200  0.726100  0.989900  1
  F  F1666  1  0.713800  0.226100  0.510100  1
  F  F1667  1  0.713800  0.273900  0.010100  1
  F  F1668  1  0.286200  0.773900  0.489900  1
  F  F1669  1  0.184700  0.740900  0.973700  1
  F  F1670  1  0.815300  0.240900  0.526300  1
  F  F1671  1  0.815300  0.259100  0.026300  1
  F  F1672  1  0.184700  0.759100  0.473700  1
  F  F1673  1  0.332200  0.736600  0.948800  1
  F  F1674  1  0.667800  0.236600  0.551200  1
  F  F1675  1  0.667800  0.263400  0.051200  1
  F  F1676  1  0.332200  0.763400  0.448800  1
  F  F1677  1  0.970400  0.772600  0.522300  1
  F  F1678  1  0.029600  0.272600  0.977700  1
  F  F1679  1  0.029600  0.227400  0.477700  1
  F  F1680  1  0.970400  0.727400  0.022300  1
  F  F1681  1  0.981900  0.697900  0.546400  1
  F  F1682  1  0.018100  0.197900  0.953600  1
  F  F1683  1  0.018100  0.302100  0.453600  1
  F  F1684  1  0.981900  0.802100  0.046400  1
  F  F1685  1  0.901300  0.735300  0.549100  1
  F  F1686  1  0.098700  0.235300  0.950900  1
  F  F1687  1  0.098700  0.264700  0.450900  1
  F  F1688  1  0.901300  0.764700  0.049100  1
  F  F1689  1  0.046800  0.733400  0.516700  1
  F  F1690  1  0.953200  0.233400  0.983300  1
  F  F1691  1  0.953200  0.266600  0.483300  1
  F  F1692  1  0.046800  0.766600  0.016700  1
  F  F1693  1  0.936100  0.722700  0.499300  1
  F  F1694  1  0.063900  0.222700  0.000700  1
  F  F1695  1  0.063900  0.277300  0.500700  1
  F  F1696  1  0.936100  0.777300  0.999300  1
  F  F1697  1  0.011100  0.745800  0.569700  1
  F  F1698  1  0.988900  0.245800  0.930300  1
  F  F1699  1  0.988900  0.254200  0.430300  1
  F  F1700  1  0.011100  0.754200  0.069700  1
  F  F1701  1  0.640700  0.981400  0.497900  1
  F  F1702  1  0.359300  0.481400  0.002100  1
  F  F1703  1  0.359300  0.018600  0.502100  1
  F  F1704  1  0.640700  0.518600  0.997900  1
  F  F1705  1  0.596300  0.933800  0.557900  1
  F  F1706  1  0.403700  0.433800  0.942100  1
  F  F1707  1  0.403700  0.066200  0.442100  1
  F  F1708  1  0.596300  0.566200  0.057900  1
  F  F1709  1  0.541400  0.970900  0.524200  1
  F  F1710  1  0.458600  0.470900  0.975800  1
  F  F1711  1  0.458600  0.029100  0.475800  1
  F  F1712  1  0.541400  0.529100  0.024200  1
  F  F1713  1  0.696200  0.943900  0.532600  1
  F  F1714  1  0.303800  0.443900  0.967400  1
  F  F1715  1  0.303800  0.056100  0.467400  1
  F  F1716  1  0.696200  0.556100  0.032600  1
  F  F1717  1  0.637800  0.987300  0.553600  1
  F  F1718  1  0.362200  0.487300  0.946400  1
  F  F1719  1  0.362200  0.012700  0.446400  1
  F  F1720  1  0.637800  0.512700  0.053600  1
  F  F1721  1  0.602700  0.928900  0.500800  1
  F  F1722  1  0.397300  0.428900  0.999200  1
  F  F1723  1  0.397300  0.071100  0.499200  1
  F  F1724  1  0.602700  0.571100  0.000800  1
  F  F1725  1  0.778600  0.806700  0.642500  1
  F  F1726  1  0.221400  0.306700  0.857500  1
  F  F1727  1  0.221400  0.193300  0.357500  1
  F  F1728  1  0.778600  0.693300  0.142500  1
  F  F1729  1  0.921400  0.793400  0.684800  1
  F  F1730  1  0.078600  0.293400  0.815200  1
  F  F1731  1  0.078600  0.206600  0.315200  1
  F  F1732  1  0.921400  0.706600  0.184800  1
  F  F1733  1  0.882200  0.783000  0.631700  1
  F  F1734  1  0.117800  0.283000  0.868300  1
  F  F1735  1  0.117800  0.217000  0.368300  1
  F  F1736  1  0.882200  0.717000  0.131700  1
  F  F1737  1  0.816800  0.815500  0.695900  1
  F  F1738  1  0.183200  0.315500  0.804100  1
  F  F1739  1  0.183200  0.184500  0.304100  1
  F  F1740  1  0.816800  0.684500  0.195900  1
  F  F1741  1  0.820500  0.763800  0.674400  1
  F  F1742  1  0.179500  0.263800  0.825600  1
  F  F1743  1  0.179500  0.236200  0.325600  1
  F  F1744  1  0.820500  0.736200  0.174400  1
  F  F1745  1  0.876900  0.835500  0.652200  1
  F  F1746  1  0.123100  0.335500  0.847800  1
  F  F1747  1  0.123100  0.164500  0.347800  1
  F  F1748  1  0.876900  0.664500  0.152200  1
  F  F1749  1  0.644700  0.703800  0.701500  1
  F  F1750  1  0.355300  0.203800  0.798500  1
  F  F1751  1  0.355300  0.296200  0.298500  1
  F  F1752  1  0.644700  0.796200  0.201500  1
  F  F1753  1  0.731200  0.640500  0.730200  1
  F  F1754  1  0.268800  0.140500  0.769800  1
  F  F1755  1  0.268800  0.359500  0.269800  1
  F  F1756  1  0.731200  0.859500  0.230200  1
  F  F1757  1  0.656800  0.649400  0.686100  1
  F  F1758  1  0.343200  0.149400  0.813900  1
  F  F1759  1  0.343200  0.350600  0.313900  1
  F  F1760  1  0.656800  0.850600  0.186100  1
  F  F1761  1  0.716100  0.694200  0.746400  1
  F  F1762  1  0.283900  0.194200  0.753600  1
  F  F1763  1  0.283900  0.305800  0.253600  1
  F  F1764  1  0.716100  0.805800  0.246400  1
  F  F1765  1  0.622200  0.662100  0.737900  1
  F  F1766  1  0.377800  0.162100  0.762100  1
  F  F1767  1  0.377800  0.337900  0.262100  1
  F  F1768  1  0.622200  0.837900  0.237900  1
  F  F1769  1  0.750600  0.683000  0.693800  1
  F  F1770  1  0.249400  0.183000  0.806200  1
  F  F1771  1  0.249400  0.317000  0.306200  1
  F  F1772  1  0.750600  0.817000  0.193800  1
  F  F1773  1  0.325100  0.815100  0.788500  1
  F  F1774  1  0.674900  0.315100  0.711500  1
  F  F1775  1  0.674900  0.184900  0.211500  1
  F  F1776  1  0.325100  0.684900  0.288500  1
  F  F1777  1  0.385300  0.796700  0.862300  1
  F  F1778  1  0.614700  0.296700  0.637700  1
  F  F1779  1  0.614700  0.203300  0.137700  1
  F  F1780  1  0.385300  0.703300  0.362300  1
  F  F1781  1  0.298100  0.777400  0.827900  1
  F  F1782  1  0.701900  0.277400  0.672100  1
  F  F1783  1  0.701900  0.222600  0.172100  1
  F  F1784  1  0.298100  0.722600  0.327900  1
  F  F1785  1  0.414200  0.833300  0.821800  1
  F  F1786  1  0.585800  0.333300  0.678200  1
  F  F1787  1  0.585800  0.166700  0.178200  1
  F  F1788  1  0.414200  0.666700  0.321800  1
  F  F1789  1  0.407000  0.778700  0.809500  1
  F  F1790  1  0.593000  0.278700  0.690500  1
  F  F1791  1  0.593000  0.221300  0.190500  1
  F  F1792  1  0.407000  0.721300  0.309500  1
  F  F1793  1  0.304000  0.832700  0.840100  1
  F  F1794  1  0.696000  0.332700  0.659900  1
  F  F1795  1  0.696000  0.167300  0.159900  1
  F  F1796  1  0.304000  0.667300  0.340100  1
  F  F1797  1  0.794200  0.421000  0.489500  1
  F  F1798  1  0.205800  0.921000  0.010500  1
  F  F1799  1  0.205800  0.579000  0.510500  1
  F  F1800  1  0.794200  0.079000  0.989500  1
  F  F1801  1  0.813000  0.467400  0.554900  1
  F  F1802  1  0.187000  0.967400  0.945100  1
  F  F1803  1  0.187000  0.532600  0.445100  1
  F  F1804  1  0.813000  0.032600  0.054900  1
  F  F1805  1  0.780200  0.414000  0.545000  1
  F  F1806  1  0.219800  0.914000  0.955000  1
  F  F1807  1  0.219800  0.586000  0.455000  1
  F  F1808  1  0.780200  0.086000  0.045000  1
  F  F1809  1  0.828000  0.473900  0.499000  1
  F  F1810  1  0.172000  0.973900  0.001000  1
  F  F1811  1  0.172000  0.526100  0.501000  1
  F  F1812  1  0.828000  0.026100  0.999000  1
  F  F1813  1  0.883200  0.432300  0.526600  1
  F  F1814  1  0.116800  0.932300  0.973400  1
  F  F1815  1  0.116800  0.567700  0.473400  1
  F  F1816  1  0.883200  0.067700  0.026600  1
  F  F1817  1  0.724900  0.456200  0.517200  1
  F  F1818  1  0.275100  0.956200  0.982800  1
  F  F1819  1  0.275100  0.543800  0.482800  1
  F  F1820  1  0.724900  0.043800  0.017200  1
  F  F1821  1  0.267700  0.667400  0.604000  1
  F  F1822  1  0.732300  0.167400  0.896000  1
  F  F1823  1  0.732300  0.332600  0.396000  1
  F  F1824  1  0.267700  0.832600  0.104000  1
  F  F1825  1  0.420400  0.636800  0.594400  1
  F  F1826  1  0.579600  0.136800  0.905600  1
  F  F1827  1  0.579600  0.363200  0.405600  1
  F  F1828  1  0.420400  0.863200  0.094400  1
  F  F1829  1  0.340400  0.633600  0.634200  1
  F  F1830  1  0.659600  0.133600  0.865800  1
  F  F1831  1  0.659600  0.366400  0.365800  1
  F  F1832  1  0.340400  0.866400  0.134200  1
  F  F1833  1  0.345800  0.669900  0.563400  1
  F  F1834  1  0.654200  0.169900  0.936600  1
  F  F1835  1  0.654200  0.330100  0.436600  1
  F  F1836  1  0.345800  0.830100  0.063400  1
  F  F1837  1  0.309900  0.620000  0.580500  1
  F  F1838  1  0.690100  0.120000  0.919500  1
  F  F1839  1  0.690100  0.380000  0.419500  1
  F  F1840  1  0.309900  0.880000  0.080500  1
  F  F1841  1  0.376200  0.684600  0.616400  1
  F  F1842  1  0.623800  0.184600  0.883600  1
  F  F1843  1  0.623800  0.315400  0.383600  1
  F  F1844  1  0.376200  0.815400  0.116400  1
  F  F1845  1  0.500200  0.697100  0.743600  1
  F  F1846  1  0.499800  0.197100  0.756400  1
  F  F1847  1  0.499800  0.302900  0.256400  1
  F  F1848  1  0.500200  0.802900  0.243600  1
  F  F1849  1  0.541600  0.653400  0.809100  1
  F  F1850  1  0.458400  0.153400  0.690900  1
  F  F1851  1  0.458400  0.346600  0.190900  1
  F  F1852  1  0.541600  0.846600  0.309100  1
  F  F1853  1  0.475700  0.644900  0.761400  1
  F  F1854  1  0.524300  0.144900  0.738600  1
  F  F1855  1  0.524300  0.355100  0.238600  1
  F  F1856  1  0.475700  0.855100  0.261400  1
  F  F1857  1  0.565700  0.705700  0.790900  1
  F  F1858  1  0.434300  0.205700  0.709100  1
  F  F1859  1  0.434300  0.294300  0.209100  1
  F  F1860  1  0.565700  0.794300  0.290900  1
  F  F1861  1  0.587800  0.661900  0.757800  1
  F  F1862  1  0.412200  0.161900  0.742200  1
  F  F1863  1  0.412200  0.338100  0.242200  1
  F  F1864  1  0.587800  0.838100  0.257800  1
  F  F1865  1  0.453700  0.689700  0.793700  1
  F  F1866  1  0.546300  0.189700  0.706300  1
  F  F1867  1  0.546300  0.310300  0.206300  1
  F  F1868  1  0.453700  0.810300  0.293700  1
