
#######################################################################
#
#                 Cambridge Crystallographic Data Centre
#                                CCDC 
#
#######################################################################
#
# If this CIF has been generated from an entry in the Cambridge 
# Structural Database, then it will include bibliographic, chemical, 
# crystal, experimental, refinement or atomic coordinate data resulting 
# from the CCDC's data processing and validation procedures.
#
#######################################################################

data_OVARUA
_chemical_formula_moiety         
'C192 H144 Co4 N36 12+,12(F6 P1 1-),29(C2 H3 N1)'
_chemical_name_systematic        
"hexakis(\m-2,2'-(1,4-phenylenedipyridine-5,2-diyl)bis(1-methyl-1H-benzimidazole))-tetra-cobalt dodecakis(hexafluorophosphate) acetonitrile solvate"
_symmetry_cell_setting           monoclinic
_symmetry_space_group_name_H-M   'P 21/c'
_symmetry_Int_Tables_number      14
_space_group_name_Hall           '-P 2ybc'
loop_
_symmetry_equiv_pos_site_id
_symmetry_equiv_pos_as_xyz
1 x,y,z
2 -x,1/2+y,1/2-z
3 -x,-y,-z
4 x,1/2-y,1/2+z
_cell_length_a                   18.6723(3)
_cell_length_b                   38.7772(8)
_cell_length_c                   38.7947(6)
_cell_angle_alpha                90
_cell_angle_beta                 92.0840(16)
_cell_angle_gamma                90
_cell_volume                     28071.1
_exptl_crystal_colour            red
_exptl_crystal_description       plate
_cell_formula_units_Z            4
_exptl_crystal_recrystallization_method 'acetonitrile/diisopropyl ether'
loop_
_atom_site_label
_atom_site_type_symbol
_atom_site_fract_x
_atom_site_fract_y
_atom_site_fract_z
P1 P 0.6749(9) 0.7734(4) 0.7991(4)
F1 F 0.7242(10) 0.7790(5) 0.7678(4)
F2 F 0.6339(9) 0.8094(4) 0.7882(5)
F3 F 0.7101(9) 0.7402(4) 0.8081(4)
F4 F 0.6195(10) 0.7552(5) 0.7731(5)
F5 F 0.7258(10) 0.7944(5) 0.8218(5)
F6 F 0.6214(10) 0.7698(5) 0.8280(5)
P2 P 0.0796(5) 0.5056(2) 0.7620(2)
F7 F 0.1348(6) 0.5353(3) 0.7583(4)
F8 F 0.1418(6) 0.4781(3) 0.7548(3)
F9 F 0.0204(6) 0.5318(3) 0.7673(3)
F10 F 0.0657(7) 0.5068(3) 0.7218(3)
F11 F 0.0973(8) 0.5026(3) 0.8003(3)
F12 F 0.0247(6) 0.4756(3) 0.7635(3)
P3 P 0.8047(5) 0.5456(3) 0.8469(2)
F13 F 0.7902(8) 0.5751(5) 0.8220(4)
F14 F 0.8194(8) 0.5192(5) 0.8764(4)
F15 F 0.7278(8) 0.5515(4) 0.8624(4)
F16 F 0.8831(7) 0.5411(4) 0.8305(4)
F17 F 0.8382(9) 0.5697(6) 0.8754(5)
F18 F 0.7758(8) 0.5172(5) 0.8243(4)
P4 P 0.1029(5) 0.8717(3) 0.7409(2)
F19 F 0.0657(9) 0.9075(4) 0.7355(4)
F20 F 0.1179(7) 0.8701(4) 0.7007(3)
F21 F 0.0863(7) 0.8730(4) 0.7793(3)
F22 F 0.0279(7) 0.8550(4) 0.7321(4)
F23 F 0.1746(7) 0.8893(5) 0.7471(4)
F24 F 0.1363(9) 0.8358(4) 0.7455(4)
P5 P 0.2619(9) 0.7420(5) 0.9596(4)
F25 F 0.2720(13) 0.7825(8) 0.9662(6)
F26 F 0.2444(13) 0.6997(7) 0.9425(6)
F27 F 0.2368(11) 0.7600(6) 0.9229(5)
F28 F 0.2862(13) 0.7261(7) 0.9899(6)
F29 F 0.1847(14) 0.7409(7) 0.9737(5)
F30 F 0.3322(14) 0.7366(7) 0.9488(6)
P6 P 0.9745(5) 0.7350(3) 0.5337(2)
F31 F 0.9704(11) 0.7726(6) 0.5223(5)
F32 F 0.9819(9) 0.6979(5) 0.5464(4)
F33 F 0.9013(12) 0.7353(6) 0.5491(5)
F34 F 1.0468(10) 0.7334(6) 0.5167(5)
F35 F 0.9361(11) 0.7227(5) 0.4993(4)
F36 F 1.0111(11) 0.7458(5) 0.5697(5)
P7 P 0.6189(5) 0.9584(2) 0.5274(2)
F37 F 0.6407(10) 0.9814(4) 0.4979(4)
F38 F 0.5963(9) 0.9338(4) 0.5579(4)
F39 F 0.5414(8) 0.9709(5) 0.5242(5)
F40 F 0.6962(7) 0.9439(4) 0.5326(4)
F41 F 0.6378(8) 0.9873(3) 0.5536(3)
F42 F 0.6027(9) 0.9289(4) 0.5008(4)
P8 P 0.8485(7) 0.8000(3) 0.6627(3)
F43 F 0.7786(10) 0.8067(6) 0.6425(6)
F44 F 0.9214(11) 0.7934(7) 0.6848(6)
F45 F 0.8822(12) 0.7830(6) 0.6317(5)
F46 F 0.8168(14) 0.8155(6) 0.6959(5)
F47 F 0.8205(10) 0.7638(4) 0.6744(5)
F48 F 0.8769(12) 0.8355(5) 0.6522(6)
P9 P 0.6862(9) 0.6723(4) 0.7147(4)
F49 F 0.6447(14) 0.7038(6) 0.7015(7)
F50 F 0.7312(14) 0.6405(5) 0.7302(6)
F51 F 0.6568(13) 0.6494(6) 0.6861(6)
F52 F 0.7161(14) 0.6942(6) 0.7464(5)
F53 F 0.6222(13) 0.6621(8) 0.7379(7)
F54 F 0.7506(12) 0.6830(6) 0.6938(6)
P10 P 0.3537(9) 0.8055(4) 0.8242(4)
F55 F 0.3251(12) 0.8151(6) 0.7885(5)
F56 F 0.3853(12) 0.7967(6) 0.8623(5)
F57 F 0.2981(10) 0.7774(5) 0.8279(5)
F58 F 0.4142(12) 0.8333(6) 0.8218(7)
F59 F 0.4070(11) 0.7787(6) 0.8095(6)
F60 F 0.3040(12) 0.8327(5) 0.8401(6)
P11 P 0.8028(8) 0.4428(4) 0.5215(4)
F61 F 0.7942(11) 0.4210(5) 0.4895(5)
F62 F 0.8130(11) 0.4674(5) 0.5549(4)
F63 F 0.7802(12) 0.4140(5) 0.5450(5)
F64 F 0.8280(11) 0.4739(5) 0.4990(5)
F65 F 0.8832(9) 0.4323(5) 0.5266(5)
F66 F 0.7249(9) 0.4562(5) 0.5172(5)
P12 P 1.3406(8) 0.6526(4) 0.5996(4)
F67 F 1.2677(9) 0.6674(5) 0.6040(5)
F68 F 1.4204(8) 0.6368(5) 0.5944(5)
F69 F 1.3404(10) 0.6336(5) 0.6342(4)
F70 F 1.3458(10) 0.6699(5) 0.5634(4)
F71 F 1.3099(10) 0.6200(4) 0.5805(5)
F72 F 1.3762(11) 0.6846(5) 0.6164(5)
Co1 Co 0.82550(18) 0.83661(9) 0.88626(8)
Co2 Co 0.88307(19) 0.58952(10) 0.65214(8)
Co3 Co 0.31815(18) 0.59919(9) 0.84457(8)
Co4 Co 0.39897(18) 0.83543(10) 0.60373(8)
N1 N 0.8634(9) 0.8235(5) 0.8410(4)
N2 N 0.8618(8) 0.8836(4) 0.8724(4)
N3 N 0.9064(9) 0.9136(5) 0.8336(4)
N4 N 0.8898(8) 0.6026(4) 0.7011(4)
N5 N 0.9037(9) 0.5453(5) 0.6713(5)
N6 N 0.8853(9) 0.5113(5) 0.7177(4)
N7 N 0.7970(10) 0.7895(5) 0.8970(4)
N8 N 0.9133(8) 0.8220(4) 0.9093(4)
N9 N 0.9798(10) 0.7786(5) 0.9279(4)
N10 N 0.2230(9) 0.6182(4) 0.8496(4)
N11 N 0.1518(10) 0.6626(5) 0.8628(4)
N12 N 0.7332(9) 0.8482(4) 0.8653(4)
N13 N 0.7809(10) 0.8520(4) 0.9271(4)
N14 N 0.6850(10) 0.8718(4) 0.9513(5)
N15 N 0.4952(9) 0.8453(4) 0.6242(4)
N16 N 0.4501(10) 0.8471(4) 0.5616(4)
N17 N 0.5517(10) 0.8588(5) 0.5373(5)
N18 N 0.7827(10) 0.5764(5) 0.6544(5)
N19 N 0.8000(10) 0.5435(5) 0.5647(6)
C1 C 0.8054(8) 0.5551(5) 0.5994(5)
N20 N 0.8724(9) 0.5720(4) 0.6045(4)
C2 C 0.9085(8) 0.5708(5) 0.5729(5)
C3 C 0.8637(12) 0.5532(5) 0.5483(3)
N21 N 0.3335(9) 0.5852(4) 0.8913(4)
N22 N 0.4056(10) 0.5634(5) 0.9324(5)
N23 N 0.8627(11) 0.6370(5) 0.6344(4)
N24 N 1.0538(10) 0.6467(5) 0.6308(5)
C4 C 0.9830(13) 0.6367(6) 0.6354(6)
N25 N 0.9802(10) 0.6041(5) 0.6466(5)
C5 C 1.0932(9) 0.6181(3) 0.6407(4)
C6 C 1.1668(8) 0.6125(3) 0.6422(3)
H1 H 1.1984 0.6301 0.6351
C7 C 1.1942(6) 0.5813(4) 0.6543(3)
H2 H 1.2445 0.5775 0.6554
C8 C 1.1479(8) 0.5555(3) 0.6648(3)
H3 H 1.1666 0.5342 0.6730
C9 C 1.0743(7) 0.5611(4) 0.6632(3)
H4 H 1.0427 0.5435 0.6704
C10 C 1.0470(6) 0.5924(4) 0.6512(4)
N26 N 0.4216(9) 0.7875(4) 0.5956(4)
N27 N 0.3103(7) 0.8236(4) 0.5797(3)
C11 C 0.3086(8) 0.7875(4) 0.5733(4)
N28 N 0.2374(9) 0.7784(4) 0.5629(4)
C12 C 0.1951(6) 0.8088(5) 0.5629(5)
C13 C 0.2402(9) 0.8367(3) 0.5732(4)
C14 C 0.2087(17) 0.8689(8) 0.5749(7)
H5 H 0.2377 0.8885 0.5801
C15 C 0.132(2) 0.8732(10) 0.5689(9)
H6 H 0.1021 0.8905 0.5783
C16 C 0.110(2) 0.8468(12) 0.5466(11)
H7 H 0.0799 0.8542 0.5279
C17 C 0.1255(19) 0.8105(10) 0.5464(9)
H8 H 0.0965 0.7922 0.5375
N29 N 0.3087(8) 0.6107(5) 0.7949(4)
N30 N 0.2899(8) 0.5549(4) 0.8288(4)
N31 N 0.2840(10) 0.5192(5) 0.7835(5)
N32 N 0.3518(8) 0.8245(5) 0.6474(4)
N33 N 0.3684(9) 0.8823(4) 0.6147(4)
N34 N 0.3069(9) 0.9163(5) 0.6482(5)
C18 C 0.8667(11) 0.9149(6) 0.8844(6)
C19 C 0.8511(13) 0.9303(7) 0.9153(7)
H9 H 0.8339 0.9162 0.9332
C20 C 0.8595(13) 0.9656(7) 0.9215(7)
H10 H 0.8461 0.9760 0.9425
C21 C 0.8908(14) 0.9859(8) 0.8930(7)
H11 H 0.8998 1.0099 0.8953
C22 C 0.9060(12) 0.9690(7) 0.8639(6)
H12 H 0.9257 0.9814 0.8453
C23 C 0.8942(11) 0.9360(6) 0.8607(6)
C24 C 0.9324(13) 0.9246(7) 0.8010(5)
H13 H 0.9425 0.9494 0.8018
H14 H 0.9765 0.9120 0.7962
H15 H 0.8961 0.9199 0.7827
C25 C 0.8877(10) 0.8819(6) 0.8415(5)
C26 C 0.8867(10) 0.8504(5) 0.8229(5)
C27 C 0.9135(12) 0.8441(6) 0.7898(6)
H16 H 0.9338 0.8622 0.7769
C28 C 0.9093(13) 0.8110(7) 0.7771(7)
H17 H 0.9218 0.8068 0.7539
C29 C 0.8880(11) 0.7847(6) 0.7966(5)
C30 C 0.8637(10) 0.7920(5) 0.8275(5)
H18 H 0.8454 0.7736 0.8408
C31 C 0.8931(12) 0.7486(7) 0.7866(6)
C32 C 0.8804(15) 0.7422(9) 0.7479(8)
H19 H 0.8772 0.7604 0.7315
C33 C 0.8738(13) 0.7079(7) 0.7388(7)
H20 H 0.8553 0.7036 0.7161
C34 C 0.8913(12) 0.6781(7) 0.7592(6)
C35 C 0.9107(13) 0.6883(7) 0.7944(7)
H21 H 0.9252 0.6703 0.8097
C36 C 0.9104(13) 0.7199(7) 0.8074(7)
H22 H 0.9220 0.7232 0.8313
C37 C 0.9066(14) 0.5096(8) 0.6606(8)
C38 C 0.9154(13) 0.4958(7) 0.6273(7)
H23 H 0.9209 0.5095 0.6073
C39 C 0.9153(13) 0.4597(7) 0.6270(7)
H24 H 0.9255 0.4475 0.6065
C40 C 0.9001(14) 0.4420(8) 0.6566(8)
H25 H 0.9007 0.4176 0.6545
C41 C 0.8850(13) 0.4535(8) 0.6872(7)
H26 H 0.8716 0.4402 0.7065
C42 C 0.8922(14) 0.4873(8) 0.6860(7)
C43 C 0.8638(14) 0.5013(7) 0.7516(5)
H27 H 0.8604 0.4761 0.7529
H28 H 0.8994 0.5095 0.7689
H29 H 0.8171 0.5115 0.7561
C44 C 0.8962(11) 0.5426(6) 0.7053(6)
C45 C 0.8930(12) 0.5769(6) 0.7226(6)
C46 C 0.8914(9) 0.5800(6) 0.7604(5)
H30 H 0.8904 0.5610 0.7759
C47 C 0.8916(12) 0.6126(6) 0.7697(6)
H31 H 0.8914 0.6169 0.7938
C48 C 0.8921(11) 0.6422(6) 0.7481(6)
C49 C 0.8919(10) 0.6352(6) 0.7131(6)
H32 H 0.8933 0.6538 0.6972
C50 C 0.9810(12) 0.8339(6) 0.9122(5)
C51 C 1.0162(14) 0.8679(7) 0.9069(6)
H33 H 0.9887 0.8875 0.9001
C52 C 1.0865(16) 0.8702(8) 0.9120(7)
H34 H 1.1093 0.8913 0.9065
C53 C 1.1282(18) 0.8433(9) 0.9247(8)
H35 H 1.1774 0.8479 0.9299
C54 C 1.1007(16) 0.8064(8) 0.9310(7)
H36 H 1.1297 0.7871 0.9373
C55 C 1.0230(13) 0.8059(6) 0.9259(6)
C56 C 1.0001(12) 0.7437(5) 0.9360(6)
H37 H 1.0515 0.7428 0.9421
H38 H 0.9728 0.7354 0.9554
H39 H 0.9899 0.7289 0.9158
C57 C 0.9157(11) 0.7890(5) 0.9187(5)
C58 C 0.8483(11) 0.7710(6) 0.9152(5)
C59 C 0.8344(13) 0.7398(6) 0.9276(6)
H40 H 0.8694 0.7268 0.9403
C60 C 0.7622(16) 0.7269(8) 0.9205(7)
H41 H 0.7499 0.7052 0.9300
C61 C 0.7128(11) 0.7433(6) 0.9016(5)
C62 C 0.7329(12) 0.7755(6) 0.8910(5)
H42 H 0.6983 0.7888 0.8783
C63 C 0.6394(14) 0.7292(7) 0.8947(6)
C64 C 0.6237(13) 0.6947(6) 0.8965(5)
H43 H 0.6612 0.6788 0.9019
C65 C 0.5566(12) 0.6826(6) 0.8908(5)
H44 H 0.5479 0.6589 0.8949
C66 C 0.4969(12) 0.7041(6) 0.8787(5)
C67 C 0.5166(14) 0.7390(7) 0.8765(6)
H45 H 0.4821 0.7547 0.8671
C68 C 0.5845(14) 0.7523(7) 0.8875(6)
H46 H 0.5921 0.7765 0.8898
C69 C 0.1492(13) 0.6064(7) 0.8490(5)
C70 C 0.1229(12) 0.5734(6) 0.8416(5)
H47 H 0.1528 0.5541 0.8374
C71 C 0.0509(14) 0.5716(7) 0.8411(6)
H48 H 0.0285 0.5501 0.8361
C72 C 0.0077(14) 0.6000(7) 0.8477(6)
H49 H -0.0426 0.5970 0.8452
C73 C 0.0312(15) 0.6312(8) 0.8572(6)
H50 H 0.0011 0.6494 0.8643
C74 C 0.1115(13) 0.6339(6) 0.8555(5)
C75 C 0.1315(13) 0.6981(5) 0.8679(6)
H51 H 0.1746 0.7120 0.8728
H52 H 0.1067 0.7068 0.8469
H53 H 0.0996 0.6997 0.8873
C76 C 0.2218(12) 0.6505(6) 0.8591(5)
C77 C 0.2995(8) 0.7021(4) 0.8720(4)
H54 H 0.2595 0.7168 0.8750
C78 C 0.3686(9) 0.7147(3) 0.8775(4)
H55 H 0.3759 0.7380 0.8843
C79 C 0.4272(7) 0.6932(4) 0.8731(4)
C80 C 0.4165(6) 0.6591(3) 0.8631(3)
H56 H 0.4565 0.6444 0.8601
N35 N 0.3474(8) 0.6464(3) 0.8576(3)
C81 C 0.2889(6) 0.6679(4) 0.8621(3)
C82 C 0.8005(13) 0.8580(6) 0.9622(6)
C83 C 0.8637(12) 0.8495(5) 0.9810(6)
H57 H 0.9058 0.8402 0.9715
C84 C 0.8551(14) 0.8566(6) 1.0155(6)
H58 H 0.8968 0.8535 1.0299
C85 C 0.7977(14) 0.8671(6) 1.0316(7)
H59 H 0.8003 0.8690 1.0560
C86 C 0.7389(16) 0.8747(7) 1.0154(7)
H60 H 0.6974 0.8831 1.0262
C87 C 0.7434(15) 0.8686(6) 0.9762(7)
C88 C 0.6136(12) 0.8833(7) 0.9588(7)
H61 H 0.6113 0.8886 0.9834
H62 H 0.6020 0.9040 0.9452
H63 H 0.5791 0.8650 0.9527
C89 C 0.7182(13) 0.8617(6) 0.9241(6)
C90 C 0.6847(13) 0.8571(6) 0.8886(6)
C91 C 0.6157(12) 0.8666(5) 0.8794(6)
H64 H 0.5825 0.8746 0.8956
C92 C 0.5980(16) 0.8634(7) 0.8433(7)
H65 H 0.5502 0.8678 0.8352
C93 C 0.6475(15) 0.8542(6) 0.8201(6)
C94 C 0.7130(11) 0.8461(5) 0.8308(5)
H66 H 0.7467 0.8387 0.8146
C95 C 0.6263(12) 0.8532(5) 0.7820(4)
C96 C 0.5564(10) 0.8465(5) 0.7705(5)
H67 H 0.5204 0.8421 0.7866
C97 C 0.5390(8) 0.8462(5) 0.7353(5)
H68 H 0.4912 0.8416 0.7275
C98 C 0.5915(12) 0.8527(5) 0.7117(4)
C99 C 0.6615(11) 0.8594(5) 0.7232(5)
H69 H 0.6974 0.8639 0.7071
C100 C 0.6789(8) 0.8597(5) 0.7584(6)
H70 H 0.7267 0.8643 0.7662
C101 C 0.4332(12) 0.8489(5) 0.5268(6)
C102 C 0.3730(14) 0.8453(6) 0.5062(6)
H71 H 0.3281 0.8413 0.5163
C103 C 0.3770(13) 0.8476(5) 0.4696(6)
H72 H 0.3361 0.8448 0.4545
C104 C 0.4432(12) 0.8541(5) 0.4578(6)
H73 H 0.4465 0.8550 0.4335
C105 C 0.5061(13) 0.8594(5) 0.4764(6)
H74 H 0.5504 0.8648 0.4664
C106 C 0.4970(13) 0.8559(6) 0.5131(6)
C107 C 0.6279(11) 0.8583(6) 0.5325(6)
H75 H 0.6373 0.8627 0.5082
H76 H 0.6510 0.8763 0.5468
H77 H 0.6473 0.8357 0.5393
C108 C 0.5192(15) 0.8540(6) 0.5660(7)
C109 C 0.5471(12) 0.8521(5) 0.6038(5)
C110 C 0.6124(14) 0.8570(6) 0.6134(6)
H78 H 0.6479 0.8595 0.5967
C111 C 0.6333(14) 0.8589(6) 0.6505(6)
H79 H 0.6802 0.8653 0.6584
C112 C 0.5780(13) 0.8503(6) 0.6737(6)
C113 C 0.5100(12) 0.8463(5) 0.6594(5)
H80 H 0.4713 0.8441 0.6744
C114 C 0.886(3) 0.5443(11) 0.5136(11)
H81 H 0.8572 0.5340 0.4956
C115 C 0.956(2) 0.5539(10) 0.5125(10)
H82 H 0.9764 0.5482 0.4912
C116 C 1.0015(17) 0.5695(7) 0.5346(8)
H83 H 1.0495 0.5740 0.5286
C117 C 0.9759(13) 0.5791(6) 0.5676(7)
H84 H 1.0052 0.5907 0.5845
C118 C 0.749(2) 0.5254(11) 0.5431(10)
H85 H 0.7070 0.5197 0.5564
H86 H 0.7346 0.5399 0.5234
H87 H 0.7708 0.5041 0.5348
C119 C 0.753(2) 0.5571(9) 0.6270(9)
C120 C 0.698(2) 0.5373(11) 0.6261(10)
H88 H 0.6881 0.5207 0.6087
C121 C 0.6520(19) 0.5440(8) 0.6572(9)
H89 H 0.6030 0.5374 0.6568
C122 C 0.6828(15) 0.5597(7) 0.6852(7)
C123 C 0.7420(12) 0.5772(6) 0.6828(6)
H90 H 0.7575 0.5911 0.7018
C124 C 0.6353(10) 0.5661(4) 0.7168(4)
C125 C 0.6726(7) 0.5712(4) 0.7481(5)
H91 H 0.7232 0.5738 0.7486
C126 C 0.6359(10) 0.5725(4) 0.7786(4)
H92 H 0.6614 0.5760 0.7999
C127 C 0.5618(10) 0.5687(4) 0.7778(4)
C128 C 0.5245(7) 0.5636(4) 0.7466(5)
H93 H 0.4739 0.5610 0.7461
C129 C 0.5612(10) 0.5623(4) 0.7161(4)
H94 H 0.5357 0.5589 0.6947
C130 C 0.3000(12) 0.5859(5) 0.9232(5)
C131 C 0.2300(14) 0.5954(6) 0.9295(7)
H95 H 0.1964 0.6025 0.9119
C132 C 0.2125(15) 0.5932(6) 0.9677(7)
H96 H 0.1698 0.6032 0.9758
C133 C 0.2578(15) 0.5772(7) 0.9894(7)
H97 H 0.2419 0.5734 1.0121
C134 C 0.3250(13) 0.5657(6) 0.9827(6)
H98 H 0.3564 0.5554 0.9995
C135 C 0.3431(13) 0.5710(6) 0.9469(6)
C136 C 0.4704(12) 0.5511(7) 0.9513(6)
H99 H 0.5088 0.5474 0.9351
H100 H 0.4858 0.5684 0.9685
H101 H 0.4599 0.5294 0.9630
C137 C 0.3970(12) 0.5720(5) 0.8981(5)
C138 C 0.4473(8) 0.5699(4) 0.8717(3)
C139 C 0.5159(8) 0.5560(4) 0.8717(3)
H102 H 0.5366 0.5464 0.8922
C140 C 0.5543(6) 0.5562(4) 0.8416(5)
H103 H 0.6012 0.5467 0.8417
C141 C 0.5240(7) 0.5703(4) 0.8116(3)
C142 C 0.4554(7) 0.5842(3) 0.8115(3)
H104 H 0.4347 0.5939 0.7910
N36 N 0.4171(6) 0.5840(3) 0.8416(4)
C143 C 1.0808(12) 0.6799(5) 0.6219(6)
H105 H 1.0407 0.6954 0.6159
H106 H 1.1087 0.6895 0.6415
H107 H 1.1115 0.6777 0.6021
C144 C 0.9168(12) 0.6572(6) 0.6286(5)
C145 C 0.9142(13) 0.6899(6) 0.6191(5)
H108 H 0.9555 0.7035 0.6153
C146 C 0.8474(15) 0.7019(7) 0.6155(6)
H109 H 0.8418 0.7257 0.6104
C147 C 0.7867(13) 0.6830(6) 0.6185(6)
C148 C 0.7985(12) 0.6498(6) 0.6295(5)
H110 H 0.7583 0.6356 0.6337
C149 C 0.7120(7) 0.6971(5) 0.6098(4)
C150 C 0.6994(8) 0.7321(4) 0.6149(4)
H111 H 0.7376 0.7468 0.6222
C151 C 0.6309(10) 0.7454(3) 0.6092(4)
H112 H 0.6222 0.7693 0.6126
C152 C 0.5750(7) 0.7238(4) 0.5985(4)
C153 C 0.5876(8) 0.6889(4) 0.5935(4)
H113 H 0.5494 0.6741 0.5862
C154 C 0.6561(9) 0.6755(3) 0.5991(4)
H114 H 0.6647 0.6517 0.5957
C155 C 0.2101(14) 0.7438(5) 0.5576(7)
H115 H 0.2499 0.7274 0.5589
H116 H 0.1762 0.7384 0.5756
H117 H 0.1856 0.7423 0.5349
C156 C 0.3696(13) 0.7677(7) 0.5791(6)
C157 C 0.3803(15) 0.7389(8) 0.5658(7)
H118 H 0.3458 0.7292 0.5501
C158 C 0.444(2) 0.7211(11) 0.5745(9)
H119 H 0.4480 0.6973 0.5691
C159 C 0.5053(12) 0.7390(6) 0.5922(6)
C160 C 0.4849(12) 0.7719(6) 0.6019(5)
H120 H 0.5199 0.7850 0.6145
C161 C 0.2840(11) 0.5215(6) 0.8407(6)
C162 C 0.2808(11) 0.5084(6) 0.8741(6)
H121 H 0.2850 0.5227 0.8939
C163 C 0.2706(12) 0.4717(7) 0.8764(7)
H122 H 0.2691 0.4615 0.8987
C164 C 0.2633(13) 0.4512(7) 0.8490(7)
H123 H 0.2572 0.4272 0.8525
C165 C 0.2643(14) 0.4633(8) 0.8166(7)
H124 H 0.2585 0.4488 0.7969
C166 C 0.2739(13) 0.4972(7) 0.8144(6)
C167 C 0.2896(12) 0.5066(6) 0.7495(5)
H125 H 0.2845 0.4815 0.7495
H126 H 0.2518 0.5169 0.7346
H127 H 0.3366 0.5128 0.7408
C168 C 0.2886(11) 0.5524(6) 0.7930(6)
C169 C 0.2942(11) 0.5818(6) 0.7744(6)
C170 C 0.2880(11) 0.5863(6) 0.7388(6)
H128 H 0.2813 0.5671 0.7238
C171 C 0.2917(13) 0.6194(7) 0.7259(7)
H129 H 0.2866 0.6222 0.7016
C172 C 0.3024(11) 0.6486(6) 0.7455(6)
C173 C 0.3127(11) 0.6410(6) 0.7795(6)
H130 H 0.3244 0.6599 0.7942
C174 C 0.3043(11) 0.6840(6) 0.7329(6)
C175 C 0.3089(14) 0.6888(8) 0.6979(8)
H131 H 0.3058 0.6698 0.6824
C176 C 0.3184(15) 0.7232(8) 0.6852(8)
H132 H 0.3294 0.7262 0.6617
C177 C 0.3124(13) 0.7513(7) 0.7053(7)
C178 C 0.3048(13) 0.7470(7) 0.7398(7)
H133 H 0.3012 0.7661 0.7550
C179 C 0.3026(15) 0.7125(8) 0.7518(8)
H134 H 0.2995 0.7094 0.7760
C180 C 0.3710(11) 0.9165(6) 0.6038(6)
C181 C 0.4059(11) 0.9304(6) 0.5728(5)
H135 H 0.4319 0.9160 0.5579
C182 C 0.3991(11) 0.9626(6) 0.5673(5)
H136 H 0.4203 0.9720 0.5475
C183 C 0.3633(12) 0.9843(6) 0.5881(6)
H137 H 0.3613 1.0083 0.5831
C184 C 0.3308(13) 0.9717(7) 0.6157(6)
H138 H 0.3057 0.9865 0.6305
C185 C 0.3346(12) 0.9370(6) 0.6220(6)
C186 C 0.2698(15) 0.9261(8) 0.6788(6)
H139 H 0.2600 0.9509 0.6783
H140 H 0.2245 0.9134 0.6795
H141 H 0.2997 0.9205 0.6993
C187 C 0.3265(12) 0.8848(6) 0.6423(6)
C188 C 0.3201(12) 0.8520(6) 0.6624(6)
C189 C 0.2862(12) 0.8467(6) 0.6923(6)
H142 H 0.2627 0.8655 0.7028
C190 C 0.2849(12) 0.8156(6) 0.7075(6)
H143 H 0.2624 0.8129 0.7289
C191 C 0.3174(12) 0.7860(6) 0.6915(6)
C192 C 0.3512(10) 0.7930(6) 0.6606(5)
H144 H 0.3742 0.7748 0.6490
loop_
_geom_bond_atom_site_label_1
_geom_bond_atom_site_label_2
_geom_bond_site_symmetry_1
_geom_bond_site_symmetry_2
Co1 N1 1_555 1_555
Co2 N4 1_555 1_555
Co3 N10 1_555 1_555
Co4 N15 1_555 1_555
N1 C26 1_555 1_555
N2 Co1 1_555 1_555
N3 C23 1_555 1_555
N4 C45 1_555 1_555
N5 Co2 1_555 1_555
N6 C42 1_555 1_555
N7 Co1 1_555 1_555
N8 Co1 1_555 1_555
N9 C55 1_555 1_555
N10 C69 1_555 1_555
N11 C74 1_555 1_555
N12 Co1 1_555 1_555
N13 Co1 1_555 1_555
N14 C87 1_555 1_555
N15 C109 1_555 1_555
N16 Co4 1_555 1_555
N17 C106 1_555 1_555
N18 Co2 1_555 1_555
N19 C1 1_555 1_555
C1 N20 1_555 1_555
N20 Co2 1_555 1_555
C2 N20 1_555 1_555
C3 N19 1_555 1_555
N21 Co3 1_555 1_555
N22 C135 1_555 1_555
N23 Co2 1_555 1_555
N24 C4 1_555 1_555
C4 N25 1_555 1_555
N25 Co2 1_555 1_555
C5 N24 1_555 1_555
C6 C5 1_555 1_555
H1 C6 1_555 1_555
C7 C6 1_555 1_555
H2 C7 1_555 1_555
C8 C7 1_555 1_555
H3 C8 1_555 1_555
C9 C8 1_555 1_555
H4 C9 1_555 1_555
C10 N25 1_555 1_555
N26 Co4 1_555 1_555
N27 Co4 1_555 1_555
C11 N27 1_555 1_555
N28 C11 1_555 1_555
C12 N28 1_555 1_555
C13 N27 1_555 1_555
C14 C13 1_555 1_555
H5 C14 1_555 1_555
C15 C14 1_555 1_555
H6 C15 1_555 1_555
C16 C15 1_555 1_555
H7 C16 1_555 1_555
C17 C12 1_555 1_555
H8 C17 1_555 1_555
N29 Co3 1_555 1_555
N30 Co3 1_555 1_555
N31 C166 1_555 1_555
N32 Co4 1_555 1_555
N33 Co4 1_555 1_555
N34 C185 1_555 1_555
C18 N2 1_555 1_555
C19 C18 1_555 1_555
H9 C19 1_555 1_555
C20 C19 1_555 1_555
H10 C20 1_555 1_555
C21 C20 1_555 1_555
H11 C21 1_555 1_555
C22 C21 1_555 1_555
H12 C22 1_555 1_555
C23 C18 1_555 1_555
C24 N3 1_555 1_555
H13 C24 1_555 1_555
H14 C24 1_555 1_555
H15 C24 1_555 1_555
C25 N2 1_555 1_555
C26 C25 1_555 1_555
C27 C26 1_555 1_555
H16 C27 1_555 1_555
C28 C27 1_555 1_555
H17 C28 1_555 1_555
C29 C28 1_555 1_555
C30 N1 1_555 1_555
H18 C30 1_555 1_555
C31 C29 1_555 1_555
C32 C31 1_555 1_555
H19 C32 1_555 1_555
C33 C32 1_555 1_555
H20 C33 1_555 1_555
C34 C33 1_555 1_555
C35 C34 1_555 1_555
H21 C35 1_555 1_555
C36 C31 1_555 1_555
H22 C36 1_555 1_555
C37 N5 1_555 1_555
C38 C37 1_555 1_555
H23 C38 1_555 1_555
C39 C38 1_555 1_555
H24 C39 1_555 1_555
C40 C39 1_555 1_555
H25 C40 1_555 1_555
C41 C40 1_555 1_555
H26 C41 1_555 1_555
C42 C37 1_555 1_555
C43 N6 1_555 1_555
H27 C43 1_555 1_555
H28 C43 1_555 1_555
H29 C43 1_555 1_555
C44 N5 1_555 1_555
C45 C44 1_555 1_555
C46 C45 1_555 1_555
H30 C46 1_555 1_555
C47 C46 1_555 1_555
H31 C47 1_555 1_555
C48 C34 1_555 1_555
C49 N4 1_555 1_555
H32 C49 1_555 1_555
C50 N8 1_555 1_555
C51 C50 1_555 1_555
H33 C51 1_555 1_555
C52 C51 1_555 1_555
H34 C52 1_555 1_555
C53 C52 1_555 1_555
H35 C53 1_555 1_555
C54 C53 1_555 1_555
H36 C54 1_555 1_555
C55 C50 1_555 1_555
C56 N9 1_555 1_555
H37 C56 1_555 1_555
H38 C56 1_555 1_555
H39 C56 1_555 1_555
C57 N8 1_555 1_555
C58 N7 1_555 1_555
C59 C58 1_555 1_555
H40 C59 1_555 1_555
C60 C59 1_555 1_555
H41 C60 1_555 1_555
C61 C60 1_555 1_555
C62 N7 1_555 1_555
H42 C62 1_555 1_555
C63 C61 1_555 1_555
C64 C63 1_555 1_555
H43 C64 1_555 1_555
C65 C64 1_555 1_555
H44 C65 1_555 1_555
C66 C65 1_555 1_555
C67 C66 1_555 1_555
H45 C67 1_555 1_555
C68 C63 1_555 1_555
H46 C68 1_555 1_555
C69 C70 1_555 1_555
C70 H47 1_555 1_555
C71 C70 1_555 1_555
H48 C71 1_555 1_555
C72 C71 1_555 1_555
H49 C72 1_555 1_555
C73 C72 1_555 1_555
H50 C73 1_555 1_555
C74 C69 1_555 1_555
C75 N11 1_555 1_555
H51 C75 1_555 1_555
H52 C75 1_555 1_555
H53 C75 1_555 1_555
C76 N10 1_555 1_555
C77 H54 1_555 1_555
C78 C77 1_555 1_555
H55 C78 1_555 1_555
C79 C66 1_555 1_555
C80 C79 1_555 1_555
H56 C80 1_555 1_555
N35 Co3 1_555 1_555
C81 C76 1_555 1_555
C82 N13 1_555 1_555
C83 C82 1_555 1_555
H57 C83 1_555 1_555
C84 C83 1_555 1_555
H58 C84 1_555 1_555
C85 C84 1_555 1_555
H59 C85 1_555 1_555
C86 C85 1_555 1_555
H60 C86 1_555 1_555
C87 C82 1_555 1_555
C88 N14 1_555 1_555
H61 C88 1_555 1_555
H62 C88 1_555 1_555
H63 C88 1_555 1_555
C89 N13 1_555 1_555
C90 N12 1_555 1_555
C91 C90 1_555 1_555
H64 C91 1_555 1_555
C92 C91 1_555 1_555
H65 C92 1_555 1_555
C93 C92 1_555 1_555
C94 N12 1_555 1_555
H66 C94 1_555 1_555
C95 C93 1_555 1_555
C96 C95 1_555 1_555
H67 C96 1_555 1_555
C97 C96 1_555 1_555
H68 C97 1_555 1_555
C98 C97 1_555 1_555
C99 C98 1_555 1_555
H69 C99 1_555 1_555
C100 C95 1_555 1_555
H70 C100 1_555 1_555
C101 N16 1_555 1_555
C102 C101 1_555 1_555
H71 C102 1_555 1_555
C103 C102 1_555 1_555
H72 C103 1_555 1_555
C104 C103 1_555 1_555
H73 C104 1_555 1_555
C105 C104 1_555 1_555
H74 C105 1_555 1_555
C106 C101 1_555 1_555
C107 N17 1_555 1_555
H75 C107 1_555 1_555
H76 C107 1_555 1_555
H77 C107 1_555 1_555
C108 N16 1_555 1_555
C109 C108 1_555 1_555
C110 C109 1_555 1_555
H78 C110 1_555 1_555
C111 C110 1_555 1_555
H79 C111 1_555 1_555
C112 C98 1_555 1_555
C113 N15 1_555 1_555
H80 C113 1_555 1_555
C114 C3 1_555 1_555
H81 C114 1_555 1_555
C115 C114 1_555 1_555
H82 C115 1_555 1_555
C116 C115 1_555 1_555
H83 C116 1_555 1_555
C117 C2 1_555 1_555
H84 C117 1_555 1_555
C118 N19 1_555 1_555
H85 C118 1_555 1_555
H86 C118 1_555 1_555
H87 C118 1_555 1_555
C119 N18 1_555 1_555
C120 C119 1_555 1_555
H88 C120 1_555 1_555
C121 C120 1_555 1_555
H89 C121 1_555 1_555
C122 C121 1_555 1_555
C123 N18 1_555 1_555
H90 C123 1_555 1_555
C124 C122 1_555 1_555
C125 C124 1_555 1_555
H91 C125 1_555 1_555
C126 C125 1_555 1_555
H92 C126 1_555 1_555
C127 C126 1_555 1_555
C128 C127 1_555 1_555
H93 C128 1_555 1_555
C129 C124 1_555 1_555
H94 C129 1_555 1_555
C130 N21 1_555 1_555
C131 C130 1_555 1_555
H95 C131 1_555 1_555
C132 C131 1_555 1_555
H96 C132 1_555 1_555
C133 C132 1_555 1_555
H97 C133 1_555 1_555
C134 C133 1_555 1_555
H98 C134 1_555 1_555
C135 C130 1_555 1_555
C136 N22 1_555 1_555
H99 C136 1_555 1_555
H100 C136 1_555 1_555
H101 C136 1_555 1_555
C137 N21 1_555 1_555
C138 C137 1_555 1_555
C139 C138 1_555 1_555
H102 C139 1_555 1_555
C140 C139 1_555 1_555
H103 C140 1_555 1_555
C141 C127 1_555 1_555
C142 C141 1_555 1_555
H104 C142 1_555 1_555
N36 Co3 1_555 1_555
C143 N24 1_555 1_555
H105 C143 1_555 1_555
H106 C143 1_555 1_555
H107 C143 1_555 1_555
C144 N23 1_555 1_555
C145 C144 1_555 1_555
H108 C145 1_555 1_555
C146 C145 1_555 1_555
H109 C146 1_555 1_555
C147 C146 1_555 1_555
C148 N23 1_555 1_555
H110 C148 1_555 1_555
C149 C147 1_555 1_555
C150 C149 1_555 1_555
H111 C150 1_555 1_555
C151 C150 1_555 1_555
H112 C151 1_555 1_555
C152 C151 1_555 1_555
C153 C152 1_555 1_555
H113 C153 1_555 1_555
C154 C149 1_555 1_555
H114 C154 1_555 1_555
C155 N28 1_555 1_555
H115 C155 1_555 1_555
H116 C155 1_555 1_555
H117 C155 1_555 1_555
C156 N26 1_555 1_555
C157 C156 1_555 1_555
H118 C157 1_555 1_555
C158 C157 1_555 1_555
H119 C158 1_555 1_555
C159 C152 1_555 1_555
C160 N26 1_555 1_555
H120 C160 1_555 1_555
C161 N30 1_555 1_555
C162 C161 1_555 1_555
H121 C162 1_555 1_555
C163 C162 1_555 1_555
H122 C163 1_555 1_555
C164 C163 1_555 1_555
H123 C164 1_555 1_555
C165 C164 1_555 1_555
H124 C165 1_555 1_555
C166 C161 1_555 1_555
C167 N31 1_555 1_555
H125 C167 1_555 1_555
H126 C167 1_555 1_555
H127 C167 1_555 1_555
C168 N30 1_555 1_555
C169 N29 1_555 1_555
C170 C169 1_555 1_555
H128 C170 1_555 1_555
C171 C170 1_555 1_555
H129 C171 1_555 1_555
C172 C171 1_555 1_555
C173 N29 1_555 1_555
H130 C173 1_555 1_555
C174 C172 1_555 1_555
C175 C174 1_555 1_555
H131 C175 1_555 1_555
C176 C175 1_555 1_555
H132 C176 1_555 1_555
C177 C176 1_555 1_555
C178 C177 1_555 1_555
H133 C178 1_555 1_555
C179 C174 1_555 1_555
H134 C179 1_555 1_555
C180 N33 1_555 1_555
C181 C180 1_555 1_555
H135 C181 1_555 1_555
C182 C181 1_555 1_555
H136 C182 1_555 1_555
C183 C182 1_555 1_555
H137 C183 1_555 1_555
C184 C183 1_555 1_555
H138 C184 1_555 1_555
C185 C180 1_555 1_555
C186 N34 1_555 1_555
H139 C186 1_555 1_555
H140 C186 1_555 1_555
H141 C186 1_555 1_555
C187 N33 1_555 1_555
C188 N32 1_555 1_555
C189 C188 1_555 1_555
H142 C189 1_555 1_555
C190 C189 1_555 1_555
H143 C190 1_555 1_555
C191 C177 1_555 1_555
C192 N32 1_555 1_555
H144 C192 1_555 1_555
P1 F1 1_555 1_555
F2 P1 1_555 1_555
F3 P1 1_555 1_555
F4 P1 1_555 1_555
F5 P1 1_555 1_555
F6 P1 1_555 1_555
P2 F7 1_555 1_555
F8 P2 1_555 1_555
F9 P2 1_555 1_555
F10 P2 1_555 1_555
F11 P2 1_555 1_555
F12 P2 1_555 1_555
P3 F13 1_555 1_555
F14 P3 1_555 1_555
F15 P3 1_555 1_555
F16 P3 1_555 1_555
F17 P3 1_555 1_555
F18 P3 1_555 1_555
P4 F19 1_555 1_555
F20 P4 1_555 1_555
F21 P4 1_555 1_555
F22 P4 1_555 1_555
F23 P4 1_555 1_555
F24 P4 1_555 1_555
P5 F25 1_555 1_555
F26 P5 1_555 1_555
F27 P5 1_555 1_555
F28 P5 1_555 1_555
F29 P5 1_555 1_555
F30 P5 1_555 1_555
P6 F31 1_555 1_555
F32 P6 1_555 1_555
F33 P6 1_555 1_555
F34 P6 1_555 1_555
F35 P6 1_555 1_555
F36 P6 1_555 1_555
P7 F37 1_555 1_555
F38 P7 1_555 1_555
F39 P7 1_555 1_555
F40 P7 1_555 1_555
F41 P7 1_555 1_555
F42 P7 1_555 1_555
P8 F43 1_555 1_555
F44 P8 1_555 1_555
F45 P8 1_555 1_555
F46 P8 1_555 1_555
F47 P8 1_555 1_555
F48 P8 1_555 1_555
P9 F49 1_555 1_555
F50 P9 1_555 1_555
F51 P9 1_555 1_555
F52 P9 1_555 1_555
F53 P9 1_555 1_555
F54 P9 1_555 1_555
P10 F55 1_555 1_555
F56 P10 1_555 1_555
F57 P10 1_555 1_555
F58 P10 1_555 1_555
F59 P10 1_555 1_555
F60 P10 1_555 1_555
P11 F61 1_555 1_555
F62 P11 1_555 1_555
F63 P11 1_555 1_555
F64 P11 1_555 1_555
F65 P11 1_555 1_555
F66 P11 1_555 1_555
P12 F67 1_555 1_555
F68 P12 1_555 1_555
F69 P12 1_555 1_555
F70 P12 1_555 1_555
F71 P12 1_555 1_555
F72 P12 1_555 1_555
N3 C25 1_555 1_555
N6 C44 1_555 1_555
N9 C57 1_555 1_555
N11 C76 1_555 1_555
N14 C89 1_555 1_555
N17 C108 1_555 1_555
C1 C119 1_555 1_555
C2 C3 1_555 1_555
N22 C137 1_555 1_555
C4 C144 1_555 1_555
C5 C10 1_555 1_555
C9 C10 1_555 1_555
C11 C156 1_555 1_555
C12 C13 1_555 1_555
C16 C17 1_555 1_555
N31 C168 1_555 1_555
N34 C187 1_555 1_555
C22 C23 1_555 1_555
C29 C30 1_555 1_555
C35 C36 1_555 1_555
C41 C42 1_555 1_555
C47 C48 1_555 1_555
C48 C49 1_555 1_555
C54 C55 1_555 1_555
C57 C58 1_555 1_555
C61 C62 1_555 1_555
C67 C68 1_555 1_555
C73 C74 1_555 1_555
C77 C81 1_555 1_555
C78 C79 1_555 1_555
C80 N35 1_555 1_555
N35 C81 1_555 1_555
C86 C87 1_555 1_555
C89 C90 1_555 1_555
C93 C94 1_555 1_555
C99 C100 1_555 1_555
C105 C106 1_555 1_555
C111 C112 1_555 1_555
C112 C113 1_555 1_555
C116 C117 1_555 1_555
C122 C123 1_555 1_555
C128 C129 1_555 1_555
C134 C135 1_555 1_555
C138 N36 1_555 1_555
C140 C141 1_555 1_555
C142 N36 1_555 1_555
C147 C148 1_555 1_555
C153 C154 1_555 1_555
C158 C159 1_555 1_555
C159 C160 1_555 1_555
C165 C166 1_555 1_555
C168 C169 1_555 1_555
C172 C173 1_555 1_555
C178 C179 1_555 1_555
C184 C185 1_555 1_555
C187 C188 1_555 1_555
C190 C191 1_555 1_555
C191 C192 1_555 1_555

#END
