
#######################################################################
#
#                 Cambridge Crystallographic Data Centre
#                                CCDC 
#
#######################################################################
#
# If this CIF has been generated from an entry in the Cambridge 
# Structural Database, then it will include bibliographic, chemical, 
# crystal, experimental, refinement or atomic coordinate data resulting 
# from the CCDC's data processing and validation procedures.
#
#######################################################################

data_OVASOV
_chemical_formula_moiety         'C84 H66 Co2 N12 6+,6(B1 F4 1-),6(C2 H3 N1)'
_chemical_name_systematic        
"tris(\m-(5-(4-(2,2'-bipyridin-5-yl)-2,5-dimethylphenyl)-2,2'-bipyridine))-di-cobalt(iii) hexakis(tetrafluoroborate) acetonitrile solvate"
_symmetry_cell_setting           rhombohedral
_symmetry_space_group_name_H-M   'R -3 c'
_symmetry_Int_Tables_number      167
_space_group_name_Hall           '-R 3 2"c'
loop_
_symmetry_equiv_pos_site_id
_symmetry_equiv_pos_as_xyz
1 x,y,z
2 -y,x-y,z
3 -x+y,-x,z
4 y,x,1/2-z
5 x-y,-y,1/2-z
6 -x,-x+y,1/2-z
7 2/3+x,1/3+y,1/3+z
8 2/3-y,1/3+x-y,1/3+z
9 2/3-x+y,1/3-x,1/3+z
10 2/3+y,1/3+x,5/6-z
11 2/3+x-y,1/3-y,5/6-z
12 2/3-x,1/3-x+y,5/6-z
13 1/3+x,2/3+y,2/3+z
14 1/3-y,2/3+x-y,2/3+z
15 1/3-x+y,2/3-x,2/3+z
16 1/3+y,2/3+x,1/6-z
17 1/3+x-y,2/3-y,1/6-z
18 1/3-x,2/3-x+y,1/6-z
19 -x,-y,-z
20 y,-x+y,-z
21 x-y,x,-z
22 -y,-x,1/2+z
23 -x+y,y,1/2+z
24 x,x-y,1/2+z
25 1/3-x,2/3-y,2/3-z
26 1/3+y,2/3-x+y,2/3-z
27 1/3+x-y,2/3+x,2/3-z
28 1/3-y,2/3-x,1/6+z
29 1/3-x+y,2/3+y,1/6+z
30 1/3+x,2/3+x-y,1/6+z
31 2/3-x,1/3-y,1/3-z
32 2/3+y,1/3-x+y,1/3-z
33 2/3+x-y,1/3+x,1/3-z
34 2/3-y,1/3-x,5/6+z
35 2/3-x+y,1/3+y,5/6+z
36 2/3+x,1/3+x-y,5/6+z
_cell_length_a                   17.3577(3)
_cell_length_b                   17.3577(3)
_cell_length_c                   104.263(2)
_cell_angle_alpha                90
_cell_angle_beta                 90
_cell_angle_gamma                120
_cell_volume                     27204.8
_exptl_crystal_colour            yellow
_exptl_crystal_description       block
_cell_formula_units_Z            12
_exptl_crystal_recrystallization_method 'acetonitrile/diisopropyl ether'
loop_
_atom_site_label
_atom_site_type_symbol
_atom_site_fract_x
_atom_site_fract_y
_atom_site_fract_z
F1 F 0.2829(3) 0.2518(2) 0.55137(3)
F2 F 0.4085(3) 0.3711(3) 0.55905(5)
F3 F 0.3999(4) 0.3270(4) 0.53870(5)
F4 F 0.4051(4) 0.2425(4) 0.55497(6)
B1 B 0.3753(6) 0.2959(6) 0.55117(8)
F5 F 0.0009(3) 0.2899(3) 0.50855(4)
F6 F 0.0883(3) 0.4256(3) 0.51773(4)
F7 F 0.0738(3) 0.3017(3) 0.52731(4)
F8 F 0.1521(4) 0.3589(5) 0.50910(5)
B2 B 0.0700(7) 0.3432(7) 0.51670(9)
Co1 Co 0.3333 0.6667 0.51304(2)
Co2 Co 0.3333 0.6667 0.62437(2)
N1 N 0.3000(3) 0.5610(3) 0.52308(4)
N2 N 0.3959(3) 0.6229(3) 0.50272(4)
N3 N 0.2322(4) 0.6476(4) 0.63468(4)
N4 N 0.2427(3) 0.5688(3) 0.61442(4)
C1 C 0.2207(4) 0.4599(4) 0.55546(5)
C2 C 0.3763(4) 0.5392(4) 0.50579(5)
C3 C 0.3270(4) 0.5060(4) 0.51796(5)
C4 C 0.2483(4) 0.4680(4) 0.54166(5)
C5 C 0.1816(4) 0.4777(4) 0.59567(5)
C6 C 0.1479(4) 0.4660(4) 0.55979(5)
C7 C 0.2595(4) 0.5404(4) 0.53451(5)
H1 H 0.2375 0.5767 0.5378
C8 C 0.1545(5) 0.5726(4) 0.63152(5)
C9 C 0.4455(4) 0.6617(4) 0.49225(5)
H2 H 0.4611 0.7211 0.4903
C10 C 0.1601(4) 0.5303(4) 0.61962(5)
C11 C 0.2769(4) 0.4521(4) 0.56426(5)
H3 H 0.3241 0.4446 0.5611
C12 C 0.2533(4) 0.5411(4) 0.60279(5)
H4 H 0.3115 0.5657 0.5993
C13 C 0.2740(4) 0.4112(4) 0.53620(5)
H5 H 0.2646 0.3595 0.5407
C14 C 0.1953(4) 0.4637(4) 0.58191(5)
C15 C 0.2668(4) 0.4548(4) 0.57742(5)
C16 C 0.1364(4) 0.4669(4) 0.57307(5)
H6 H 0.0865 0.4698 0.5762
C17 C 0.0810(4) 0.4693(5) 0.55091(6)
H7 H 0.1029 0.5309 0.5482
H8 H 0.0242 0.4472 0.5554
H9 H 0.0723 0.4321 0.5434
C18 C 0.4743(4) 0.6178(5) 0.48433(5)
H10 H 0.5110 0.6472 0.4771
C19 C 0.3133(4) 0.4304(4) 0.52424(5)
H11 H 0.3307 0.3919 0.5204
C20 C 0.0871(5) 0.4630(4) 0.61339(6)
H12 H 0.0303 0.4352 0.6174
C21 C 0.3999(4) 0.4909(4) 0.49804(6)
H13 H 0.3830 0.4313 0.5002
C22 C 0.0792(5) 0.5419(5) 0.63880(6)
H14 H 0.0264 0.4889 0.6365
C23 C 0.3323(5) 0.4479(5) 0.58622(6)
H15 H 0.3576 0.4156 0.5818
H16 H 0.3016 0.4158 0.5940
H17 H 0.3800 0.5077 0.5885
C24 C 0.0977(5) 0.4367(4) 0.60133(6)
H18 H 0.0479 0.3909 0.5969
C25 C 0.4490(4) 0.5301(5) 0.48699(6)
H19 H 0.4648 0.4973 0.4814
C26 C 0.1587(5) 0.6692(5) 0.65237(6)
H20 H 0.1601 0.7049 0.6594
C27 C 0.0816(5) 0.5898(5) 0.64964(6)
H21 H 0.0311 0.5685 0.6551
C28 C 0.2325(5) 0.6956(5) 0.64491(5)
H22 H 0.2856 0.7492 0.6470
N1A N 0.4390(3) 0.7390(4) 0.52308(4)
N2A N 0.3771(3) 0.7730(4) 0.50272(4)
N3A N 0.3524(4) 0.5846(6) 0.63468(4)
N4A N 0.4312(3) 0.6739(4) 0.61442(4)
C1A C 0.5401(4) 0.7608(6) 0.55546(5)
C2A C 0.4608(4) 0.8371(6) 0.50579(5)
C3A C 0.4940(4) 0.8210(6) 0.51796(5)
C4A C 0.5320(4) 0.7803(6) 0.54166(5)
C5A C 0.5223(4) 0.7039(6) 0.59567(5)
C6A C 0.5340(4) 0.6819(6) 0.55979(5)
C7A C 0.4596(4) 0.7191(6) 0.53451(5)
H1A H 0.4233 0.6608 0.5378
C8A C 0.4274(4) 0.5819(6) 0.63152(5)
C9A C 0.3383(4) 0.7838(6) 0.49225(5)
H2A H 0.2789 0.7400 0.4903
C10A C 0.4697(4) 0.6298(6) 0.61962(5)
C11A C 0.5479(4) 0.8248(6) 0.56426(5)
H3A H 0.5554 0.8795 0.5611
C12A C 0.4589(4) 0.7122(6) 0.60279(5)
H4A H 0.4343 0.7458 0.5993
C13A C 0.5888(4) 0.8628(6) 0.53620(5)
H5A H 0.6405 0.9051 0.5407
C14A C 0.5363(4) 0.7316(6) 0.58191(5)
C15A C 0.5452(4) 0.8120(6) 0.57742(5)
C16A C 0.5331(4) 0.6695(6) 0.57307(5)
H6A H 0.5302 0.6167 0.5762
C17A C 0.5307(5) 0.6117(6) 0.55091(6)
H7A H 0.4691 0.5720 0.5482
H8A H 0.5528 0.5770 0.5554
H9A H 0.5679 0.6402 0.5434
C18A C 0.3822(5) 0.8565(6) 0.48433(5)
H10A H 0.3528 0.8638 0.4771
C19A C 0.5696(4) 0.8829(6) 0.52424(5)
H11A H 0.6081 0.9388 0.5204
C20A C 0.5370(4) 0.6241(6) 0.61339(6)
H12A H 0.5648 0.5951 0.6174
C21A C 0.5091(4) 0.9090(6) 0.49804(6)
H13A H 0.5687 0.9517 0.5002
C22A C 0.4581(5) 0.5373(7) 0.63880(6)
H14A H 0.5111 0.5375 0.6365
C23A C 0.5521(5) 0.8844(7) 0.58622(6)
H15A H 0.5844 0.9420 0.5818
H16A H 0.5842 0.8858 0.5940
H17A H 0.4923 0.8723 0.5885
C24A C 0.5633(4) 0.6610(6) 0.60133(6)
H18A H 0.6091 0.6570 0.5969
C25A C 0.4699(5) 0.9189(6) 0.48699(6)
H19A H 0.5027 0.9675 0.4814
C26A C 0.3308(5) 0.4895(7) 0.65237(6)
H20A H 0.2951 0.4552 0.6594
C27A C 0.4102(5) 0.4918(7) 0.64964(6)
H21A H 0.4315 0.4626 0.6551
C28A C 0.3044(5) 0.5369(7) 0.64491(5)
H22A H 0.2508 0.5364 0.6470
N1B N 0.2610(4) 0.7000(3) 0.52308(4)
N2B N 0.2270(4) 0.6041(3) 0.50272(4)
N3B N 0.4154(6) 0.7678(4) 0.63468(4)
N4B N 0.3261(4) 0.7573(3) 0.61442(4)
C1B C 0.2392(6) 0.7793(4) 0.55546(5)
C2B C 0.1629(6) 0.6237(4) 0.50579(5)
C3B C 0.1790(6) 0.6730(4) 0.51796(5)
C4B C 0.2197(6) 0.7517(4) 0.54166(5)
C5B C 0.2961(6) 0.8184(4) 0.59567(5)
C6B C 0.3181(6) 0.8521(4) 0.55979(5)
C7B C 0.2809(6) 0.7405(4) 0.53451(5)
H1B H 0.3392 0.7625 0.5378
C8B C 0.4181(6) 0.8455(5) 0.63152(5)
C9B C 0.2162(6) 0.5545(4) 0.49225(5)
H2B H 0.2600 0.5389 0.4903
C10B C 0.3702(6) 0.8399(4) 0.61962(5)
C11B C 0.1752(6) 0.7231(4) 0.56426(5)
H3B H 0.1205 0.6759 0.5611
C12B C 0.2878(6) 0.7467(4) 0.60279(5)
H4B H 0.2542 0.6885 0.5993
C13B C 0.1372(6) 0.7260(4) 0.53620(5)
H5B H 0.0949 0.7354 0.5407
C14B C 0.2684(6) 0.8047(4) 0.58191(5)
C15B C 0.1880(6) 0.7332(4) 0.57742(5)
C16B C 0.3305(6) 0.8636(4) 0.57307(5)
H6B H 0.3833 0.9135 0.5762
C17B C 0.3883(6) 0.9190(4) 0.55091(6)
H7B H 0.4280 0.8971 0.5482
H8B H 0.4230 0.9758 0.5554
H9B H 0.3598 0.9277 0.5434
C18B C 0.1435(6) 0.5257(4) 0.48433(5)
H10B H 0.1362 0.4890 0.4771
C19B C 0.1171(6) 0.6867(4) 0.52424(5)
H11B H 0.0612 0.6693 0.5204
C20B C 0.3759(6) 0.9129(5) 0.61339(6)
H12B H 0.4049 0.9697 0.6174
C21B C 0.0910(6) 0.6001(4) 0.49804(6)
H13B H 0.0483 0.6170 0.5002
C22B C 0.4627(7) 0.9208(5) 0.63880(6)
H14B H 0.4625 0.9736 0.6365
C23B C 0.1156(7) 0.6677(5) 0.58622(6)
H15B H 0.0580 0.6424 0.5818
H16B H 0.1142 0.6984 0.5940
H17B H 0.1277 0.6200 0.5885
C24B C 0.3390(6) 0.9023(5) 0.60133(6)
H18B H 0.3430 0.9521 0.5969
C25B C 0.0811(6) 0.5510(4) 0.48699(6)
H19B H 0.0325 0.5352 0.4814
C26B C 0.5105(7) 0.8413(5) 0.65237(6)
H20B H 0.5448 0.8399 0.6594
C27B C 0.5082(7) 0.9184(5) 0.64964(6)
H21B H 0.5374 0.9689 0.6551
C28B C 0.4631(7) 0.7675(5) 0.64491(5)
H22B H 0.4636 0.7144 0.6470
loop_
_geom_bond_atom_site_label_1
_geom_bond_atom_site_label_2
_geom_bond_site_symmetry_1
_geom_bond_site_symmetry_2
Co1 N1 1_555 1_555
Co2 N3 1_555 1_555
N1 C3 1_555 1_555
N2 Co1 1_555 1_555
N3 C8 1_555 1_555
N4 Co2 1_555 1_555
C1 C4 1_555 1_555
C2 N2 1_555 1_555
C3 C2 1_555 1_555
C4 C7 1_555 1_555
C5 C12 1_555 1_555
C6 C1 1_555 1_555
C7 N1 1_555 1_555
H1 C7 1_555 1_555
C8 C10 1_555 1_555
C9 N2 1_555 1_555
H2 C9 1_555 1_555
C10 N4 1_555 1_555
C11 C1 1_555 1_555
H3 C11 1_555 1_555
C12 N4 1_555 1_555
H4 C12 1_555 1_555
C13 C4 1_555 1_555
H5 C13 1_555 1_555
C14 C5 1_555 1_555
C15 C11 1_555 1_555
C16 C6 1_555 1_555
H6 C16 1_555 1_555
C17 C6 1_555 1_555
H7 C17 1_555 1_555
H8 C17 1_555 1_555
H9 C17 1_555 1_555
C18 C9 1_555 1_555
H10 C18 1_555 1_555
C19 C3 1_555 1_555
H11 C19 1_555 1_555
C20 C10 1_555 1_555
H12 C20 1_555 1_555
C21 C2 1_555 1_555
H13 C21 1_555 1_555
C22 C8 1_555 1_555
H14 C22 1_555 1_555
C23 C15 1_555 1_555
H15 C23 1_555 1_555
H16 C23 1_555 1_555
H17 C23 1_555 1_555
C24 C5 1_555 1_555
H18 C24 1_555 1_555
C25 C18 1_555 1_555
H19 C25 1_555 1_555
C26 H20 1_555 1_555
C27 C22 1_555 1_555
H21 C27 1_555 1_555
C28 N3 1_555 1_555
H22 C28 1_555 1_555
F1 B1 1_555 1_555
F2 B1 1_555 1_555
F3 B1 1_555 1_555
F4 B1 1_555 1_555
F5 B2 1_555 1_555
F6 B2 1_555 1_555
F7 B2 1_555 1_555
F8 B2 1_555 1_555
N1A Co1 1_555 1_555
N2A Co1 1_555 1_555
N3A Co2 1_555 1_555
N4A Co2 1_555 1_555
C1A C4A 1_555 1_555
C2A N2A 1_555 1_555
C3A N1A 1_555 1_555
C4A C7A 1_555 1_555
C5A C12A 1_555 1_555
C6A C1A 1_555 1_555
C7A N1A 1_555 1_555
H1A C7A 1_555 1_555
C8A N3A 1_555 1_555
C9A N2A 1_555 1_555
H2A C9A 1_555 1_555
C10A N4A 1_555 1_555
C11A C1A 1_555 1_555
H3A C11A 1_555 1_555
C12A N4A 1_555 1_555
H4A C12A 1_555 1_555
C13A C4A 1_555 1_555
H5A C13A 1_555 1_555
C14A C5A 1_555 1_555
C15A C11A 1_555 1_555
C16A C6A 1_555 1_555
H6A C16A 1_555 1_555
C17A C6A 1_555 1_555
H7A C17A 1_555 1_555
H8A C17A 1_555 1_555
H9A C17A 1_555 1_555
C18A C9A 1_555 1_555
H10A C18A 1_555 1_555
C19A C3A 1_555 1_555
H11A C19A 1_555 1_555
C20A C10A 1_555 1_555
H12A C20A 1_555 1_555
C21A C2A 1_555 1_555
H13A C21A 1_555 1_555
C22A C8A 1_555 1_555
H14A C22A 1_555 1_555
C23A C15A 1_555 1_555
H15A C23A 1_555 1_555
H16A C23A 1_555 1_555
H17A C23A 1_555 1_555
C24A C5A 1_555 1_555
H18A C24A 1_555 1_555
C25A C18A 1_555 1_555
H19A C25A 1_555 1_555
C26A H20A 1_555 1_555
C27A C22A 1_555 1_555
H21A C27A 1_555 1_555
C28A N3A 1_555 1_555
H22A C28A 1_555 1_555
N1B Co1 1_555 1_555
N2B Co1 1_555 1_555
N3B Co2 1_555 1_555
N4B Co2 1_555 1_555
C1B C4B 1_555 1_555
C2B N2B 1_555 1_555
C3B N1B 1_555 1_555
C4B C7B 1_555 1_555
C5B C12B 1_555 1_555
C6B C1B 1_555 1_555
C7B N1B 1_555 1_555
H1B C7B 1_555 1_555
C8B N3B 1_555 1_555
C9B N2B 1_555 1_555
H2B C9B 1_555 1_555
C10B N4B 1_555 1_555
C11B C1B 1_555 1_555
H3B C11B 1_555 1_555
C12B N4B 1_555 1_555
H4B C12B 1_555 1_555
C13B C4B 1_555 1_555
H5B C13B 1_555 1_555
C14B C5B 1_555 1_555
C15B C11B 1_555 1_555
C16B C6B 1_555 1_555
H6B C16B 1_555 1_555
C17B C6B 1_555 1_555
H7B C17B 1_555 1_555
H8B C17B 1_555 1_555
H9B C17B 1_555 1_555
C18B C9B 1_555 1_555
H10B C18B 1_555 1_555
C19B C3B 1_555 1_555
H11B C19B 1_555 1_555
C20B C10B 1_555 1_555
H12B C20B 1_555 1_555
C21B C2B 1_555 1_555
H13B C21B 1_555 1_555
C22B C8B 1_555 1_555
H14B C22B 1_555 1_555
C23B C15B 1_555 1_555
H15B C23B 1_555 1_555
H16B C23B 1_555 1_555
H17B C23B 1_555 1_555
C24B C5B 1_555 1_555
H18B C24B 1_555 1_555
C25B C18B 1_555 1_555
H19B C25B 1_555 1_555
C26B H20B 1_555 1_555
C27B C22B 1_555 1_555
H21B C27B 1_555 1_555
C28B N3B 1_555 1_555
H22B C28B 1_555 1_555
C13 C19 1_555 1_555
C14 C15 1_555 1_555
C14 C16 1_555 1_555
C20 C24 1_555 1_555
C21 C25 1_555 1_555
C26 C27 1_555 1_555
C26 C28 1_555 1_555
C2A C3A 1_555 1_555
C8A C10A 1_555 1_555
C13A C19A 1_555 1_555
C14A C15A 1_555 1_555
C14A C16A 1_555 1_555
C20A C24A 1_555 1_555
C21A C25A 1_555 1_555
C26A C27A 1_555 1_555
C26A C28A 1_555 1_555
C2B C3B 1_555 1_555
C8B C10B 1_555 1_555
C13B C19B 1_555 1_555
C14B C15B 1_555 1_555
C14B C16B 1_555 1_555
C20B C24B 1_555 1_555
C21B C25B 1_555 1_555
C26B C27B 1_555 1_555
C26B C28B 1_555 1_555

#END
