# generated using pymatgen
data_Co2P6H78C87N12F37
_symmetry_space_group_name_H-M   'P 1'
_cell_length_a   20.59960000
_cell_length_b   20.59960000
_cell_length_c   66.15101045
_cell_angle_alpha   81.04252692
_cell_angle_beta   81.04252692
_cell_angle_gamma   60.00000000
_symmetry_Int_Tables_number   1
_chemical_formula_structural   Co2P6H78C87N12F37
_chemical_formula_sum   'Co16 P48 H624 C696 N96 F296'
_cell_volume   23913.86113016
_cell_formula_units_Z   8
loop_
 _symmetry_equiv_pos_site_id
 _symmetry_equiv_pos_as_xyz
  1  'x, y, z'
loop_
 _atom_site_type_symbol
 _atom_site_label
 _atom_site_symmetry_multiplicity
 _atom_site_fract_x
 _atom_site_fract_y
 _atom_site_fract_z
 _atom_site_occupancy
  C  C1  1  0.273550  0.643450  0.223750  1
  C  C2  1  0.859250  0.273550  0.223750  1
  C  C3  1  0.643450  0.859250  0.223750  1
  C  C4  1  0.640750  0.856550  0.276250  1
  C  C5  1  0.856550  0.226450  0.276250  1
  C  C6  1  0.226450  0.640750  0.276250  1
  C  C7  1  0.726450  0.356550  0.776250  1
  C  C8  1  0.140750  0.726450  0.776250  1
  C  C9  1  0.356550  0.140750  0.776250  1
  C  C10  1  0.359250  0.143450  0.723750  1
  C  C11  1  0.143450  0.773550  0.723750  1
  C  C12  1  0.773550  0.359250  0.723750  1
  C  C13  1  0.468970  0.610470  0.147490  1
  C  C14  1  0.773070  0.468970  0.147490  1
  C  C15  1  0.610470  0.773070  0.147490  1
  C  C16  1  0.726930  0.889530  0.352510  1
  C  C17  1  0.889530  0.031030  0.352510  1
  C  C18  1  0.031030  0.726930  0.352510  1
  C  C19  1  0.531030  0.389530  0.852510  1
  C  C20  1  0.226930  0.531030  0.852510  1
  C  C21  1  0.389530  0.226930  0.852510  1
  C  C22  1  0.273070  0.110470  0.647490  1
  C  C23  1  0.110470  0.968970  0.647490  1
  C  C24  1  0.968970  0.273070  0.647490  1
  C  C25  1  0.137840  0.784040  0.067780  1.0
  C  C26  1  0.010340  0.137840  0.067780  1.0
  C  C27  1  0.784040  0.010340  0.067780  1.0
  C  C28  1  0.489660  0.715960  0.432220  1.0
  C  C29  1  0.715960  0.362160  0.432220  1.0
  C  C30  1  0.362160  0.489660  0.432220  1.0
  C  C31  1  0.862160  0.215960  0.932220  1.0
  C  C32  1  0.989660  0.862160  0.932220  1.0
  C  C33  1  0.215960  0.989660  0.932220  1.0
  C  C34  1  0.510340  0.284040  0.567780  1.0
  C  C35  1  0.284040  0.637840  0.567780  1.0
  C  C36  1  0.637840  0.510340  0.567780  1.0
  C  C37  1  0.112860  0.825760  0.049420  1.0
  C  C38  1  0.011960  0.112860  0.049420  1.0
  C  C39  1  0.825760  0.011960  0.049420  1.0
  C  C40  1  0.488040  0.674240  0.450580  1.0
  C  C41  1  0.674240  0.387140  0.450580  1.0
  C  C42  1  0.387140  0.488040  0.450580  1.0
  C  C43  1  0.887140  0.174240  0.950580  1.0
  C  C44  1  0.988040  0.887140  0.950580  1.0
  C  C45  1  0.174240  0.988040  0.950580  1.0
  C  C46  1  0.511960  0.325760  0.549420  1.0
  C  C47  1  0.325760  0.612860  0.549420  1.0
  C  C48  1  0.612860  0.511960  0.549420  1.0
  C  C49  1  0.161530  0.809730  0.031810  1.0
  C  C50  1  0.996930  0.161530  0.031810  1.0
  C  C51  1  0.809730  0.996930  0.031810  1.0
  C  C52  1  0.503070  0.690270  0.468190  1.0
  C  C53  1  0.690270  0.338470  0.468190  1.0
  C  C54  1  0.338470  0.503070  0.468190  1.0
  C  C55  1  0.838470  0.190270  0.968190  1.0
  C  C56  1  0.003070  0.838470  0.968190  1.0
  C  C57  1  0.190270  0.003070  0.968190  1.0
  C  C58  1  0.496930  0.309730  0.531810  1.0
  C  C59  1  0.309730  0.661530  0.531810  1.0
  C  C60  1  0.661530  0.496930  0.531810  1.0
  C  C61  1  0.235990  0.752090  0.033130  1.0
  C  C62  1  0.978790  0.235990  0.033130  1.0
  C  C63  1  0.752090  0.978790  0.033130  1.0
  C  C64  1  0.521210  0.747910  0.466870  1.0
  C  C65  1  0.747910  0.264010  0.466870  1.0
  C  C66  1  0.264010  0.521210  0.466870  1.0
  C  C67  1  0.764010  0.247910  0.966870  1.0
  C  C68  1  0.021210  0.764010  0.966870  1.0
  C  C69  1  0.247910  0.021210  0.966870  1.0
  C  C70  1  0.478790  0.252090  0.533130  1.0
  C  C71  1  0.252090  0.735990  0.533130  1.0
  C  C72  1  0.735990  0.478790  0.533130  1.0
  C  C73  1  0.257380  0.713580  0.052060  1.0
  C  C74  1  0.976980  0.257380  0.052060  1.0
  C  C75  1  0.713580  0.976980  0.052060  1.0
  C  C76  1  0.523020  0.786420  0.447940  1.0
  C  C77  1  0.786420  0.242620  0.447940  1.0
  C  C78  1  0.242620  0.523020  0.447940  1.0
  C  C79  1  0.742620  0.286420  0.947940  1.0
  C  C80  1  0.023020  0.742620  0.947940  1.0
  C  C81  1  0.286420  0.023020  0.947940  1.0
  C  C82  1  0.476980  0.213580  0.552060  1.0
  C  C83  1  0.213580  0.757380  0.552060  1.0
  C  C84  1  0.757380  0.476980  0.552060  1.0
  C  C85  1  0.333800  0.652900  0.055600  1.0
  C  C86  1  0.957700  0.333800  0.055600  1.0
  C  C87  1  0.652900  0.957700  0.055600  1.0
  C  C88  1  0.542300  0.847100  0.444400  1.0
  C  C89  1  0.847100  0.166200  0.444400  1.0
  C  C90  1  0.166200  0.542300  0.444400  1.0
  C  C91  1  0.666200  0.347100  0.944400  1.0
  C  C92  1  0.042300  0.666200  0.944400  1.0
  C  C93  1  0.347100  0.042300  0.944400  1.0
  C  C94  1  0.457700  0.152900  0.555600  1.0
  C  C95  1  0.152900  0.833800  0.555600  1.0
  C  C96  1  0.833800  0.457700  0.555600  1.0
  C  C97  1  0.392040  0.624140  0.040780  1.0
  C  C98  1  0.943040  0.392040  0.040780  1.0
  C  C99  1  0.624140  0.943040  0.040780  1.0
  C  C100  1  0.556960  0.875860  0.459220  1.0
  C  C101  1  0.875860  0.107960  0.459220  1.0
  C  C102  1  0.107960  0.556960  0.459220  1.0
  C  C103  1  0.607960  0.375860  0.959220  1.0
  C  C104  1  0.056960  0.607960  0.959220  1.0
  C  C105  1  0.375860  0.056960  0.959220  1.0
  C  C106  1  0.443040  0.124140  0.540780  1.0
  C  C107  1  0.124140  0.892040  0.540780  1.0
  C  C108  1  0.892040  0.443040  0.540780  1.0
  C  C109  1  0.462530  0.568230  0.046210  1.0
  C  C110  1  0.923030  0.462530  0.046210  1.0
  C  C111  1  0.568230  0.923030  0.046210  1.0
  C  C112  1  0.576970  0.931770  0.453790  1.0
  C  C113  1  0.931770  0.037470  0.453790  1.0
  C  C114  1  0.037470  0.576970  0.453790  1.0
  C  C115  1  0.537470  0.431770  0.953790  1.0
  C  C116  1  0.076970  0.537470  0.953790  1.0
  C  C117  1  0.431770  0.076970  0.953790  1.0
  C  C118  1  0.423030  0.068230  0.546210  1.0
  C  C119  1  0.068230  0.962530  0.546210  1.0
  C  C120  1  0.962530  0.423030  0.546210  1.0
  C  C121  1  0.473520  0.543420  0.066640  1.0
  C  C122  1  0.916420  0.473520  0.066640  1.0
  C  C123  1  0.543420  0.916420  0.066640  1.0
  C  C124  1  0.583580  0.956580  0.433360  1.0
  C  C125  1  0.956580  0.026480  0.433360  1.0
  C  C126  1  0.026480  0.583580  0.433360  1.0
  C  C127  1  0.526480  0.456580  0.933360  1.0
  C  C128  1  0.083580  0.526480  0.933360  1.0
  C  C129  1  0.456580  0.083580  0.933360  1.0
  C  C130  1  0.416420  0.043420  0.566640  1.0
  C  C131  1  0.043420  0.973520  0.566640  1.0
  C  C132  1  0.973520  0.416420  0.566640  1.0
  C  C133  1  0.412250  0.573650  0.080950  1.0
  C  C134  1  0.933150  0.412250  0.080950  1.0
  C  C135  1  0.573650  0.933150  0.080950  1.0
  C  C136  1  0.566850  0.926350  0.419050  1.0
  C  C137  1  0.926350  0.087750  0.419050  1.0
  C  C138  1  0.087750  0.566850  0.419050  1.0
  C  C139  1  0.587750  0.426350  0.919050  1.0
  C  C140  1  0.066850  0.587750  0.919050  1.0
  C  C141  1  0.426350  0.066850  0.919050  1.0
  C  C142  1  0.433150  0.073650  0.580950  1.0
  C  C143  1  0.073650  0.912250  0.580950  1.0
  C  C144  1  0.912250  0.433150  0.580950  1.0
  C  C145  1  0.547570  0.483370  0.073990  1.0
  C  C146  1  0.895070  0.547570  0.073990  1.0
  C  C147  1  0.483370  0.895070  0.073990  1.0
  C  C148  1  0.604930  0.016630  0.426010  1.0
  C  C149  1  0.016630  0.952430  0.426010  1.0
  C  C150  1  0.952430  0.604930  0.426010  1.0
  C  C151  1  0.452430  0.516630  0.926010  1.0
  C  C152  1  0.104930  0.452430  0.926010  1.0
  C  C153  1  0.516630  0.104930  0.926010  1.0
  C  C154  1  0.395070  0.983370  0.573990  1.0
  C  C155  1  0.983370  0.047570  0.573990  1.0
  C  C156  1  0.047570  0.395070  0.573990  1.0
  C  C157  1  0.569020  0.409520  0.074440  1.0
  C  C158  1  0.947020  0.569020  0.074440  1.0
  C  C159  1  0.409520  0.947020  0.074440  1.0
  C  C160  1  0.552980  0.090480  0.425560  1.0
  C  C161  1  0.090480  0.930980  0.425560  1.0
  C  C162  1  0.930980  0.552980  0.425560  1.0
  C  C163  1  0.430980  0.590480  0.925560  1.0
  C  C164  1  0.052980  0.430980  0.925560  1.0
  C  C165  1  0.590480  0.052980  0.925560  1.0
  C  C166  1  0.447020  0.909520  0.574440  1.0
  C  C167  1  0.909520  0.069020  0.574440  1.0
  C  C168  1  0.069020  0.447020  0.574440  1.0
  C  C169  1  0.636890  0.358090  0.082630  1.0
  C  C170  1  0.922390  0.636890  0.082630  1.0
  C  C171  1  0.358090  0.922390  0.082630  1.0
  C  C172  1  0.577610  0.141910  0.417370  1.0
  C  C173  1  0.141910  0.863110  0.417370  1.0
  C  C174  1  0.863110  0.577610  0.417370  1.0
  C  C175  1  0.363110  0.641910  0.917370  1.0
  C  C176  1  0.077610  0.363110  0.917370  1.0
  C  C177  1  0.641910  0.077610  0.917370  1.0
  C  C178  1  0.422390  0.858090  0.582630  1.0
  C  C179  1  0.858090  0.136890  0.582630  1.0
  C  C180  1  0.136890  0.422390  0.582630  1.0
  C  C181  1  0.683750  0.377450  0.089350  1.0
  C  C182  1  0.849450  0.683750  0.089350  1.0
  C  C183  1  0.377450  0.849450  0.089350  1.0
  C  C184  1  0.650550  0.122550  0.410650  1.0
  C  C185  1  0.122550  0.816250  0.410650  1.0
  C  C186  1  0.816250  0.650550  0.410650  1.0
  C  C187  1  0.316250  0.622550  0.910650  1.0
  C  C188  1  0.150550  0.316250  0.910650  1.0
  C  C189  1  0.622550  0.150550  0.910650  1.0
  C  C190  1  0.349450  0.877450  0.589350  1.0
  C  C191  1  0.877450  0.183750  0.589350  1.0
  C  C192  1  0.183750  0.349450  0.589350  1.0
  C  C193  1  0.662670  0.453270  0.088390  1.0
  C  C194  1  0.795670  0.662670  0.088390  1.0
  C  C195  1  0.453270  0.795670  0.088390  1.0
  C  C196  1  0.704330  0.046730  0.411610  1.0
  C  C197  1  0.046730  0.837330  0.411610  1.0
  C  C198  1  0.837330  0.704330  0.411610  1.0
  C  C199  1  0.337330  0.546730  0.911610  1.0
  C  C200  1  0.204330  0.337330  0.911610  1.0
  C  C201  1  0.546730  0.204330  0.911610  1.0
  C  C202  1  0.295670  0.953270  0.588390  1.0
  C  C203  1  0.953270  0.162670  0.588390  1.0
  C  C204  1  0.162670  0.295670  0.588390  1.0
  C  C205  1  0.593070  0.505070  0.080590  1.0
  C  C206  1  0.821270  0.593070  0.080590  1.0
  C  C207  1  0.505070  0.821270  0.080590  1.0
  C  C208  1  0.678730  0.994930  0.419410  1.0
  C  C209  1  0.994930  0.906930  0.419410  1.0
  C  C210  1  0.906930  0.678730  0.419410  1.0
  C  C211  1  0.406930  0.494930  0.919410  1.0
  C  C212  1  0.178730  0.406930  0.919410  1.0
  C  C213  1  0.494930  0.178730  0.919410  1.0
  C  C214  1  0.321270  0.005070  0.580590  1.0
  C  C215  1  0.005070  0.093070  0.580590  1.0
  C  C216  1  0.093070  0.321270  0.580590  1.0
  C  C217  1  0.518230  0.383830  0.068110  1.0
  C  C218  1  0.029830  0.518230  0.068110  1.0
  C  C219  1  0.383830  0.029830  0.068110  1.0
  C  C220  1  0.470170  0.116170  0.431890  1.0
  C  C221  1  0.116170  0.981770  0.431890  1.0
  C  C222  1  0.981770  0.470170  0.431890  1.0
  C  C223  1  0.481770  0.616170  0.931890  1.0
  C  C224  1  0.970170  0.481770  0.931890  1.0
  C  C225  1  0.616170  0.970170  0.931890  1.0
  C  C226  1  0.529830  0.883830  0.568110  1.0
  C  C227  1  0.883830  0.018230  0.568110  1.0
  C  C228  1  0.018230  0.529830  0.568110  1.0
  C  C229  1  0.706140  0.482340  0.095680  1.0
  C  C230  1  0.715840  0.706140  0.095680  1.0
  C  C231  1  0.482340  0.715840  0.095680  1.0
  C  C232  1  0.784160  0.017660  0.404320  1.0
  C  C233  1  0.017660  0.793860  0.404320  1.0
  C  C234  1  0.793860  0.784160  0.404320  1.0
  C  C235  1  0.293860  0.517660  0.904320  1.0
  C  C236  1  0.284160  0.293860  0.904320  1.0
  C  C237  1  0.517660  0.284160  0.904320  1.0
  C  C238  1  0.215840  0.982340  0.595680  1.0
  C  C239  1  0.982340  0.206140  0.595680  1.0
  C  C240  1  0.206140  0.215840  0.595680  1.0
  C  C241  1  0.822340  0.315940  0.092680  1.0
  C  C242  1  0.769040  0.822340  0.092680  1.0
  C  C243  1  0.315940  0.769040  0.092680  1.0
  C  C244  1  0.730960  0.184060  0.407320  1.0
  C  C245  1  0.184060  0.677660  0.407320  1.0
  C  C246  1  0.677660  0.730960  0.407320  1.0
  C  C247  1  0.177660  0.684060  0.907320  1.0
  C  C248  1  0.230960  0.177660  0.907320  1.0
  C  C249  1  0.684060  0.230960  0.907320  1.0
  C  C250  1  0.269040  0.815940  0.592680  1.0
  C  C251  1  0.815940  0.322340  0.592680  1.0
  C  C252  1  0.322340  0.269040  0.592680  1.0
  C  C253  1  0.753770  0.317070  0.097990  1.0
  C  C254  1  0.831170  0.753770  0.097990  1.0
  C  C255  1  0.317070  0.831170  0.097990  1.0
  C  C256  1  0.668830  0.182930  0.402010  1.0
  C  C257  1  0.182930  0.746230  0.402010  1.0
  C  C258  1  0.746230  0.668830  0.402010  1.0
  C  C259  1  0.246230  0.682930  0.902010  1.0
  C  C260  1  0.168830  0.246230  0.902010  1.0
  C  C261  1  0.682930  0.168830  0.902010  1.0
  C  C262  1  0.331170  0.817070  0.597990  1.0
  C  C263  1  0.817070  0.253770  0.597990  1.0
  C  C264  1  0.253770  0.331170  0.597990  1.0
  C  C265  1  0.753110  0.258110  0.111670  1.0
  C  C266  1  0.877110  0.753110  0.111670  1.0
  C  C267  1  0.258110  0.877110  0.111670  1.0
  C  C268  1  0.622890  0.241890  0.388330  1.0
  C  C269  1  0.241890  0.746890  0.388330  1.0
  C  C270  1  0.746890  0.622890  0.388330  1.0
  C  C271  1  0.246890  0.741890  0.888330  1.0
  C  C272  1  0.122890  0.246890  0.888330  1.0
  C  C273  1  0.741890  0.122890  0.888330  1.0
  C  C274  1  0.377110  0.758110  0.611670  1.0
  C  C275  1  0.758110  0.253110  0.611670  1.0
  C  C276  1  0.253110  0.377110  0.611670  1.0
  C  C277  1  0.818960  0.202260  0.119320  1.0
  C  C278  1  0.859460  0.818960  0.119320  1.0
  C  C279  1  0.202260  0.859460  0.119320  1.0
  C  C280  1  0.640540  0.297740  0.380680  1.0
  C  C281  1  0.297740  0.681040  0.380680  1.0
  C  C282  1  0.681040  0.640540  0.380680  1.0
  C  C283  1  0.181040  0.797740  0.880680  1.0
  C  C284  1  0.140540  0.181040  0.880680  1.0
  C  C285  1  0.797740  0.140540  0.880680  1.0
  C  C286  1  0.359460  0.702260  0.619320  1.0
  C  C287  1  0.702260  0.318960  0.619320  1.0
  C  C288  1  0.318960  0.359460  0.619320  1.0
  C  C289  1  0.885110  0.205310  0.113770  1.0
  C  C290  1  0.795810  0.885110  0.113770  1.0
  C  C291  1  0.205310  0.795810  0.113770  1.0
  C  C292  1  0.704190  0.294690  0.386230  1.0
  C  C293  1  0.294690  0.614890  0.386230  1.0
  C  C294  1  0.614890  0.704190  0.386230  1.0
  C  C295  1  0.114890  0.794690  0.886230  1.0
  C  C296  1  0.204190  0.114890  0.886230  1.0
  C  C297  1  0.794690  0.204190  0.886230  1.0
  C  C298  1  0.295810  0.705310  0.613770  1.0
  C  C299  1  0.705310  0.385110  0.613770  1.0
  C  C300  1  0.385110  0.295810  0.613770  1.0
  C  C301  1  0.958100  0.150700  0.121600  1.0
  C  C302  1  0.769600  0.958100  0.121600  1.0
  C  C303  1  0.150700  0.769600  0.121600  1.0
  C  C304  1  0.730400  0.349300  0.378400  1.0
  C  C305  1  0.349300  0.541900  0.378400  1.0
  C  C306  1  0.541900  0.730400  0.378400  1.0
  C  C307  1  0.041900  0.849300  0.878400  1.0
  C  C308  1  0.230400  0.041900  0.878400  1.0
  C  C309  1  0.849300  0.230400  0.878400  1.0
  C  C310  1  0.269600  0.650700  0.621600  1.0
  C  C311  1  0.650700  0.458100  0.621600  1.0
  C  C312  1  0.458100  0.269600  0.621600  1.0
  C  C313  1  0.967790  0.095690  0.137830  1.0
  C  C314  1  0.798690  0.967790  0.137830  1.0
  C  C315  1  0.095690  0.798690  0.137830  1.0
  C  C316  1  0.701310  0.404310  0.362170  1.0
  C  C317  1  0.404310  0.532210  0.362170  1.0
  C  C318  1  0.532210  0.701310  0.362170  1.0
  C  C319  1  0.032210  0.904310  0.862170  1.0
  C  C320  1  0.201310  0.032210  0.862170  1.0
  C  C321  1  0.904310  0.201310  0.862170  1.0
  C  C322  1  0.298690  0.595690  0.637830  1.0
  C  C323  1  0.595690  0.467790  0.637830  1.0
  C  C324  1  0.467790  0.298690  0.637830  1.0
  C  C325  1  0.038980  0.049380  0.143860  1.0
  C  C326  1  0.767780  0.038980  0.143860  1.0
  C  C327  1  0.049380  0.767780  0.143860  1.0
  C  C328  1  0.732220  0.450620  0.356140  1.0
  C  C329  1  0.450620  0.461020  0.356140  1.0
  C  C330  1  0.461020  0.732220  0.356140  1.0
  C  C331  1  0.961020  0.950620  0.856140  1.0
  C  C332  1  0.232220  0.961020  0.856140  1.0
  C  C333  1  0.950620  0.232220  0.856140  1.0
  C  C334  1  0.267780  0.549380  0.643860  1.0
  C  C335  1  0.549380  0.538980  0.643860  1.0
  C  C336  1  0.538980  0.267780  0.643860  1.0
  C  C337  1  0.098910  0.057710  0.134170  1.0
  C  C338  1  0.709210  0.098910  0.134170  1.0
  C  C339  1  0.057710  0.709210  0.134170  1.0
  C  C340  1  0.790790  0.442290  0.365830  1.0
  C  C341  1  0.442290  0.401090  0.365830  1.0
  C  C342  1  0.401090  0.790790  0.365830  1.0
  C  C343  1  0.901090  0.942290  0.865830  1.0
  C  C344  1  0.290790  0.901090  0.865830  1.0
  C  C345  1  0.942290  0.290790  0.865830  1.0
  C  C346  1  0.209210  0.557710  0.634170  1.0
  C  C347  1  0.557710  0.598910  0.634170  1.0
  C  C348  1  0.598910  0.209210  0.634170  1.0
  C  C349  1  0.086220  0.114020  0.117940  1.0
  C  C350  1  0.681820  0.086220  0.117940  1.0
  C  C351  1  0.114020  0.681820  0.117940  1.0
  C  C352  1  0.818180  0.385980  0.382060  1.0
  C  C353  1  0.385980  0.413780  0.382060  1.0
  C  C354  1  0.413780  0.818180  0.382060  1.0
  C  C355  1  0.913780  0.885980  0.882060  1.0
  C  C356  1  0.318180  0.913780  0.882060  1.0
  C  C357  1  0.885980  0.318180  0.882060  1.0
  C  C358  1  0.181820  0.614020  0.617940  1.0
  C  C359  1  0.614020  0.586220  0.617940  1.0
  C  C360  1  0.586220  0.181820  0.617940  1.0
  C  C361  1  0.215670  0.577270  0.072190  1.0
  C  C362  1  0.134870  0.215670  0.072190  1.0
  C  C363  1  0.577270  0.134870  0.072190  1.0
  C  C364  1  0.365130  0.922730  0.427810  1.0
  C  C365  1  0.922730  0.284330  0.427810  1.0
  C  C366  1  0.284330  0.365130  0.427810  1.0
  C  C367  1  0.784330  0.422730  0.927810  1.0
  C  C368  1  0.865130  0.784330  0.927810  1.0
  C  C369  1  0.422730  0.865130  0.927810  1.0
  C  C370  1  0.634870  0.077270  0.572190  1.0
  C  C371  1  0.077270  0.715670  0.572190  1.0
  C  C372  1  0.715670  0.634870  0.572190  1.0
  C  C373  1  0.218390  0.512090  0.068830  1.0
  C  C374  1  0.200690  0.218390  0.068830  1.0
  C  C375  1  0.512090  0.200690  0.068830  1.0
  C  C376  1  0.299310  0.987910  0.431170  1.0
  C  C377  1  0.987910  0.281610  0.431170  1.0
  C  C378  1  0.281610  0.299310  0.431170  1.0
  C  C379  1  0.781610  0.487910  0.931170  1.0
  C  C380  1  0.799310  0.781610  0.931170  1.0
  C  C381  1  0.487910  0.799310  0.931170  1.0
  C  C382  1  0.700690  0.012090  0.568830  1.0
  C  C383  1  0.012090  0.718390  0.568830  1.0
  C  C384  1  0.718390  0.700690  0.568830  1.0
  C  C385  1  0.250870  0.449470  0.082690  1.0
  C  C386  1  0.216970  0.250870  0.082690  1.0
  C  C387  1  0.449470  0.216970  0.082690  1.0
  C  C388  1  0.283030  0.050530  0.417310  1.0
  C  C389  1  0.050530  0.249130  0.417310  1.0
  C  C390  1  0.249130  0.283030  0.417310  1.0
  C  C391  1  0.749130  0.550530  0.917310  1.0
  C  C392  1  0.783030  0.749130  0.917310  1.0
  C  C393  1  0.550530  0.783030  0.917310  1.0
  C  C394  1  0.716970  0.949470  0.582690  1.0
  C  C395  1  0.949470  0.750870  0.582690  1.0
  C  C396  1  0.750870  0.716970  0.582690  1.0
  C  C397  1  0.279270  0.455070  0.099790  1.0
  C  C398  1  0.165870  0.279270  0.099790  1.0
  C  C399  1  0.455070  0.165870  0.099790  1.0
  C  C400  1  0.334130  0.044930  0.400210  1.0
  C  C401  1  0.044930  0.220730  0.400210  1.0
  C  C402  1  0.220730  0.334130  0.400210  1.0
  C  C403  1  0.720730  0.544930  0.900210  1.0
  C  C404  1  0.834130  0.720730  0.900210  1.0
  C  C405  1  0.544930  0.834130  0.900210  1.0
  C  C406  1  0.665870  0.955070  0.599790  1.0
  C  C407  1  0.955070  0.779270  0.599790  1.0
  C  C408  1  0.779270  0.665870  0.599790  1.0
  C  C409  1  0.274110  0.522910  0.102370  1.0
  C  C410  1  0.100610  0.274110  0.102370  1.0
  C  C411  1  0.522910  0.100610  0.102370  1.0
  C  C412  1  0.399390  0.977090  0.397630  1.0
  C  C413  1  0.977090  0.225890  0.397630  1.0
  C  C414  1  0.225890  0.399390  0.397630  1.0
  C  C415  1  0.725890  0.477090  0.897630  1.0
  C  C416  1  0.899390  0.725890  0.897630  1.0
  C  C417  1  0.477090  0.899390  0.897630  1.0
  C  C418  1  0.600610  0.022910  0.602370  1.0
  C  C419  1  0.022910  0.774110  0.602370  1.0
  C  C420  1  0.774110  0.600610  0.602370  1.0
  C  C421  1  0.299110  0.536610  0.119770  1.0
  C  C422  1  0.044510  0.299110  0.119770  1.0
  C  C423  1  0.536610  0.044510  0.119770  1.0
  C  C424  1  0.455490  0.963390  0.380230  1.0
  C  C425  1  0.963390  0.200890  0.380230  1.0
  C  C426  1  0.200890  0.455490  0.380230  1.0
  C  C427  1  0.700890  0.463390  0.880230  1.0
  C  C428  1  0.955490  0.700890  0.880230  1.0
  C  C429  1  0.463390  0.955490  0.880230  1.0
  C  C430  1  0.544510  0.036610  0.619770  1.0
  C  C431  1  0.036610  0.799110  0.619770  1.0
  C  C432  1  0.799110  0.544510  0.619770  1.0
  C  C433  1  0.320880  0.486480  0.137560  1.0
  C  C434  1  0.055080  0.320880  0.137560  1.0
  C  C435  1  0.486480  0.055080  0.137560  1.0
  C  C436  1  0.444920  0.013520  0.362440  1.0
  C  C437  1  0.013520  0.179120  0.362440  1.0
  C  C438  1  0.179120  0.444920  0.362440  1.0
  C  C439  1  0.679120  0.513520  0.862440  1.0
  C  C440  1  0.944920  0.679120  0.862440  1.0
  C  C441  1  0.513520  0.944920  0.862440  1.0
  C  C442  1  0.555080  0.986480  0.637560  1.0
  C  C443  1  0.986480  0.820880  0.637560  1.0
  C  C444  1  0.820880  0.555080  0.637560  1.0
  C  C445  1  0.340870  0.507370  0.153490  1.0
  C  C446  1  0.998270  0.340870  0.153490  1.0
  C  C447  1  0.507370  0.998270  0.153490  1.0
  C  C448  1  0.501730  0.992630  0.346510  1.0
  C  C449  1  0.992630  0.159130  0.346510  1.0
  C  C450  1  0.159130  0.501730  0.346510  1.0
  C  C451  1  0.659130  0.492630  0.846510  1.0
  C  C452  1  0.001730  0.659130  0.846510  1.0
  C  C453  1  0.492630  0.001730  0.846510  1.0
  C  C454  1  0.498270  0.007370  0.653490  1.0
  C  C455  1  0.007370  0.840870  0.653490  1.0
  C  C456  1  0.840870  0.498270  0.653490  1.0
  C  C457  1  0.339210  0.576010  0.151870  1.0
  C  C458  1  0.932910  0.339210  0.151870  1.0
  C  C459  1  0.576010  0.932910  0.151870  1.0
  C  C460  1  0.567090  0.923990  0.348130  1.0
  C  C461  1  0.923990  0.160790  0.348130  1.0
  C  C462  1  0.160790  0.567090  0.348130  1.0
  C  C463  1  0.660790  0.423990  0.848130  1.0
  C  C464  1  0.067090  0.660790  0.848130  1.0
  C  C465  1  0.423990  0.067090  0.848130  1.0
  C  C466  1  0.432910  0.076010  0.651870  1.0
  C  C467  1  0.076010  0.839210  0.651870  1.0
  C  C468  1  0.839210  0.432910  0.651870  1.0
  C  C469  1  0.318210  0.621810  0.133570  1.0
  C  C470  1  0.926410  0.318210  0.133570  1.0
  C  C471  1  0.621810  0.926410  0.133570  1.0
  C  C472  1  0.573590  0.878190  0.366430  1.0
  C  C473  1  0.878190  0.181790  0.366430  1.0
  C  C474  1  0.181790  0.573590  0.366430  1.0
  C  C475  1  0.681790  0.378190  0.866430  1.0
  C  C476  1  0.073590  0.681790  0.866430  1.0
  C  C477  1  0.378190  0.073590  0.866430  1.0
  C  C478  1  0.426410  0.121810  0.633570  1.0
  C  C479  1  0.121810  0.818210  0.633570  1.0
  C  C480  1  0.818210  0.426410  0.633570  1.0
  C  C481  1  0.356970  0.602070  0.168790  1.0
  C  C482  1  0.872170  0.356970  0.168790  1.0
  C  C483  1  0.602070  0.872170  0.168790  1.0
  C  C484  1  0.627830  0.897930  0.331210  1.0
  C  C485  1  0.897930  0.143030  0.331210  1.0
  C  C486  1  0.143030  0.627830  0.331210  1.0
  C  C487  1  0.643030  0.397930  0.831210  1.0
  C  C488  1  0.127830  0.643030  0.831210  1.0
  C  C489  1  0.397930  0.127830  0.831210  1.0
  C  C490  1  0.372170  0.102070  0.668790  1.0
  C  C491  1  0.102070  0.856970  0.668790  1.0
  C  C492  1  0.856970  0.372170  0.668790  1.0
  C  C493  1  0.389010  0.648010  0.201670  1.0
  C  C494  1  0.761310  0.389010  0.201670  1.0
  C  C495  1  0.648010  0.761310  0.201670  1.0
  C  C496  1  0.738690  0.851990  0.298330  1.0
  C  C497  1  0.851990  0.110990  0.298330  1.0
  C  C498  1  0.110990  0.738690  0.298330  1.0
  C  C499  1  0.610990  0.351990  0.798330  1.0
  C  C500  1  0.238690  0.610990  0.798330  1.0
  C  C501  1  0.351990  0.238690  0.798330  1.0
  C  C502  1  0.261310  0.148010  0.701670  1.0
  C  C503  1  0.148010  0.889010  0.701670  1.0
  C  C504  1  0.889010  0.261310  0.701670  1.0
  C  C505  1  0.414360  0.619560  0.166420  1.0
  C  C506  1  0.799660  0.414360  0.166420  1.0
  C  C507  1  0.619560  0.799660  0.166420  1.0
  C  C508  1  0.700340  0.880440  0.333580  1.0
  C  C509  1  0.880440  0.085640  0.333580  1.0
  C  C510  1  0.085640  0.700340  0.333580  1.0
  C  C511  1  0.585640  0.380440  0.833580  1.0
  C  C512  1  0.200340  0.585640  0.833580  1.0
  C  C513  1  0.380440  0.200340  0.833580  1.0
  C  C514  1  0.299660  0.119560  0.666420  1.0
  C  C515  1  0.119560  0.914360  0.666420  1.0
  C  C516  1  0.914360  0.299660  0.666420  1.0
  C  C517  1  0.429880  0.642480  0.182860  1.0
  C  C518  1  0.744780  0.429880  0.182860  1.0
  C  C519  1  0.642480  0.744780  0.182860  1.0
  C  C520  1  0.755220  0.857520  0.317140  1.0
  C  C521  1  0.857520  0.070120  0.317140  1.0
  C  C522  1  0.070120  0.755220  0.317140  1.0
  C  C523  1  0.570120  0.357520  0.817140  1.0
  C  C524  1  0.255220  0.570120  0.817140  1.0
  C  C525  1  0.357520  0.255220  0.817140  1.0
  C  C526  1  0.244780  0.142480  0.682860  1.0
  C  C527  1  0.142480  0.929880  0.682860  1.0
  C  C528  1  0.929880  0.244780  0.682860  1.0
  C  C529  1  0.329430  0.632230  0.204010  1.0
  C  C530  1  0.834330  0.329430  0.204010  1.0
  C  C531  1  0.632230  0.834330  0.204010  1.0
  C  C532  1  0.665670  0.867770  0.295990  1.0
  C  C533  1  0.867770  0.170570  0.295990  1.0
  C  C534  1  0.170570  0.665670  0.295990  1.0
  C  C535  1  0.670570  0.367770  0.795990  1.0
  C  C536  1  0.165670  0.670570  0.795990  1.0
  C  C537  1  0.367770  0.165670  0.795990  1.0
  C  C538  1  0.334330  0.132230  0.704010  1.0
  C  C539  1  0.132230  0.829430  0.704010  1.0
  C  C540  1  0.829430  0.334330  0.704010  1.0
  C  C541  1  0.314140  0.608540  0.187780  1.0
  C  C542  1  0.889540  0.314140  0.187780  1.0
  C  C543  1  0.608540  0.889540  0.187780  1.0
  C  C544  1  0.610460  0.891460  0.312220  1.0
  C  C545  1  0.891460  0.185860  0.312220  1.0
  C  C546  1  0.185860  0.610460  0.312220  1.0
  C  C547  1  0.685860  0.391460  0.812220  1.0
  C  C548  1  0.110460  0.685860  0.812220  1.0
  C  C549  1  0.391460  0.110460  0.812220  1.0
  C  C550  1  0.389540  0.108540  0.687780  1.0
  C  C551  1  0.108540  0.814140  0.687780  1.0
  C  C552  1  0.814140  0.389540  0.687780  1.0
  C  C553  1  0.244560  0.599260  0.191620  1.0
  C  C554  1  0.964560  0.244560  0.191620  1.0
  C  C555  1  0.599260  0.964560  0.191620  1.0
  C  C556  1  0.535440  0.900740  0.308380  1.0
  C  C557  1  0.900740  0.255440  0.308380  1.0
  C  C558  1  0.255440  0.535440  0.308380  1.0
  C  C559  1  0.755440  0.400740  0.808380  1.0
  C  C560  1  0.035440  0.755440  0.808380  1.0
  C  C561  1  0.400740  0.035440  0.808380  1.0
  C  C562  1  0.464560  0.099260  0.691620  1.0
  C  C563  1  0.099260  0.744560  0.691620  1.0
  C  C564  1  0.744560  0.464560  0.691620  1.0
  C  C565  1  0.499330  0.657730  0.177610  1.0
  C  C566  1  0.665330  0.499330  0.177610  1.0
  C  C567  1  0.657730  0.665330  0.177610  1.0
  C  C568  1  0.834670  0.842270  0.322390  1.0
  C  C569  1  0.842270  0.000670  0.322390  1.0
  C  C570  1  0.000670  0.834670  0.322390  1.0
  C  C571  1  0.500670  0.342270  0.822390  1.0
  C  C572  1  0.334670  0.500670  0.822390  1.0
  C  C573  1  0.342270  0.334670  0.822390  1.0
  C  C574  1  0.165330  0.157730  0.677610  1.0
  C  C575  1  0.157730  0.999330  0.677610  1.0
  C  C576  1  0.999330  0.165330  0.677610  1.0
  C  C577  1  0.475130  0.625230  0.227710  1.0
  C  C578  1  0.671930  0.475130  0.227710  1.0
  C  C579  1  0.625230  0.671930  0.227710  1.0
  C  C580  1  0.828070  0.874770  0.272290  1.0
  C  C581  1  0.874770  0.024870  0.272290  1.0
  C  C582  1  0.024870  0.828070  0.272290  1.0
  C  C583  1  0.524870  0.374770  0.772290  1.0
  C  C584  1  0.328070  0.524870  0.772290  1.0
  C  C585  1  0.374770  0.328070  0.772290  1.0
  C  C586  1  0.171930  0.125230  0.727710  1.0
  C  C587  1  0.125230  0.975130  0.727710  1.0
  C  C588  1  0.975130  0.171930  0.727710  1.0
  C  C589  1  0.405780  0.671280  0.219460  1.0
  C  C590  1  0.703480  0.405780  0.219460  1.0
  C  C591  1  0.671280  0.703480  0.219460  1.0
  C  C592  1  0.796520  0.828720  0.280540  1.0
  C  C593  1  0.828720  0.094220  0.280540  1.0
  C  C594  1  0.094220  0.796520  0.280540  1.0
  C  C595  1  0.594220  0.328720  0.780540  1.0
  C  C596  1  0.296520  0.594220  0.780540  1.0
  C  C597  1  0.328720  0.296520  0.780540  1.0
  C  C598  1  0.203480  0.171280  0.719460  1.0
  C  C599  1  0.171280  0.905780  0.719460  1.0
  C  C600  1  0.905780  0.203480  0.719460  1.0
  C  C601  1  0.355140  0.736240  0.228280  1.0
  C  C602  1  0.680340  0.355140  0.228280  1.0
  C  C603  1  0.736240  0.680340  0.228280  1.0
  C  C604  1  0.819660  0.763760  0.271720  1.0
  C  C605  1  0.763760  0.144860  0.271720  1.0
  C  C606  1  0.144860  0.819660  0.271720  1.0
  C  C607  1  0.644860  0.263760  0.771720  1.0
  C  C608  1  0.319660  0.644860  0.771720  1.0
  C  C609  1  0.263760  0.319660  0.771720  1.0
  C  C610  1  0.180340  0.236240  0.728280  1.0
  C  C611  1  0.236240  0.855140  0.728280  1.0
  C  C612  1  0.855140  0.180340  0.728280  1.0
  C  C613  1  0.374180  0.756280  0.244960  1.0
  C  C614  1  0.624580  0.374180  0.244960  1.0
  C  C615  1  0.756280  0.624580  0.244960  1.0
  C  C616  1  0.875420  0.743720  0.255040  1.0
  C  C617  1  0.743720  0.125820  0.255040  1.0
  C  C618  1  0.125820  0.875420  0.255040  1.0
  C  C619  1  0.625820  0.243720  0.755040  1.0
  C  C620  1  0.375420  0.625820  0.755040  1.0
  C  C621  1  0.243720  0.375420  0.755040  1.0
  C  C622  1  0.124580  0.256280  0.744960  1.0
  C  C623  1  0.256280  0.874180  0.744960  1.0
  C  C624  1  0.874180  0.124580  0.744960  1.0
  C  C625  1  0.444000  0.708600  0.252100  1.0
  C  C626  1  0.595300  0.444000  0.252100  1.0
  C  C627  1  0.708600  0.595300  0.252100  1.0
  C  C628  1  0.904700  0.791400  0.247900  1.0
  C  C629  1  0.791400  0.056000  0.247900  1.0
  C  C630  1  0.056000  0.904700  0.247900  1.0
  C  C631  1  0.556000  0.291400  0.747900  1.0
  C  C632  1  0.404700  0.556000  0.747900  1.0
  C  C633  1  0.291400  0.404700  0.747900  1.0
  C  C634  1  0.095300  0.208600  0.752100  1.0
  C  C635  1  0.208600  0.944000  0.752100  1.0
  C  C636  1  0.944000  0.095300  0.752100  1.0
  C  C637  1  0.471560  0.723860  0.269020  1.0
  C  C638  1  0.535560  0.471560  0.269020  1.0
  C  C639  1  0.723860  0.535560  0.269020  1.0
  C  C640  1  0.964440  0.776140  0.230980  1.0
  C  C641  1  0.776140  0.028440  0.230980  1.0
  C  C642  1  0.028440  0.964440  0.230980  1.0
  C  C643  1  0.528440  0.276140  0.730980  1.0
  C  C644  1  0.464440  0.528440  0.730980  1.0
  C  C645  1  0.276140  0.464440  0.730980  1.0
  C  C646  1  0.035560  0.223860  0.769020  1.0
  C  C647  1  0.223860  0.971560  0.769020  1.0
  C  C648  1  0.971560  0.035560  0.769020  1.0
  C  C649  1  0.434730  0.790030  0.278410  1.0
  C  C650  1  0.496830  0.434730  0.278410  1.0
  C  C651  1  0.790030  0.496830  0.278410  1.0
  C  C652  1  0.003170  0.709970  0.221590  1.0
  C  C653  1  0.709970  0.065270  0.221590  1.0
  C  C654  1  0.065270  0.003170  0.221590  1.0
  C  C655  1  0.565270  0.209970  0.721590  1.0
  C  C656  1  0.503170  0.565270  0.721590  1.0
  C  C657  1  0.209970  0.503170  0.721590  1.0
  C  C658  1  0.996830  0.290030  0.778410  1.0
  C  C659  1  0.290030  0.934730  0.778410  1.0
  C  C660  1  0.934730  0.996830  0.778410  1.0
  C  C661  1  0.466940  0.796940  0.294280  1.0
  C  C662  1  0.441840  0.466940  0.294280  1.0
  C  C663  1  0.796940  0.441840  0.294280  1.0
  C  C664  1  0.058160  0.703060  0.205720  1.0
  C  C665  1  0.703060  0.033060  0.205720  1.0
  C  C666  1  0.033060  0.058160  0.205720  1.0
  C  C667  1  0.533060  0.203060  0.705720  1.0
  C  C668  1  0.558160  0.533060  0.705720  1.0
  C  C669  1  0.203060  0.558160  0.705720  1.0
  C  C670  1  0.941840  0.296940  0.794280  1.0
  C  C671  1  0.296940  0.966940  0.794280  1.0
  C  C672  1  0.966940  0.941840  0.794280  1.0
  C  C673  1  0.534000  0.738500  0.300400  1.0
  C  C674  1  0.427100  0.534000  0.300400  1.0
  C  C675  1  0.738500  0.427100  0.300400  1.0
  C  C676  1  0.072900  0.761500  0.199600  1.0
  C  C677  1  0.761500  0.966000  0.199600  1.0
  C  C678  1  0.966000  0.072900  0.199600  1.0
  C  C679  1  0.466000  0.261500  0.699600  1.0
  C  C680  1  0.572900  0.466000  0.699600  1.0
  C  C681  1  0.261500  0.572900  0.699600  1.0
  C  C682  1  0.927100  0.238500  0.800400  1.0
  C  C683  1  0.238500  0.034000  0.800400  1.0
  C  C684  1  0.034000  0.927100  0.800400  1.0
  C  C685  1  0.568560  0.673660  0.290320  1.0
  C  C686  1  0.467460  0.568560  0.290320  1.0
  C  C687  1  0.673660  0.467460  0.290320  1.0
  C  C688  1  0.032540  0.826340  0.209680  1.0
  C  C689  1  0.826340  0.931440  0.209680  1.0
  C  C690  1  0.931440  0.032540  0.209680  1.0
  C  C691  1  0.431440  0.326340  0.709680  1.0
  C  C692  1  0.532540  0.431440  0.709680  1.0
  C  C693  1  0.326340  0.532540  0.709680  1.0
  C  C694  1  0.967460  0.173660  0.790320  1.0
  C  C695  1  0.173660  0.068560  0.790320  1.0
  C  C696  1  0.068560  0.967460  0.790320  1.0
  Co  Co697  1  0.580273  0.580273  0.259180  1
  Co  Co698  1  0.919727  0.919727  0.240820  1
  Co  Co699  1  0.419727  0.419727  0.740820  1
  Co  Co700  1  0.080273  0.080273  0.759180  1
  Co  Co701  1  0.252030  0.668320  0.093820  1.0
  Co  Co702  1  0.985830  0.252030  0.093820  1.0
  Co  Co703  1  0.668320  0.985830  0.093820  1.0
  Co  Co704  1  0.514170  0.831680  0.406180  1.0
  Co  Co705  1  0.831680  0.247970  0.406180  1.0
  Co  Co706  1  0.247970  0.514170  0.406180  1.0
  Co  Co707  1  0.747970  0.331680  0.906180  1.0
  Co  Co708  1  0.014170  0.747970  0.906180  1.0
  Co  Co709  1  0.331680  0.014170  0.906180  1.0
  Co  Co710  1  0.485830  0.168320  0.593820  1.0
  Co  Co711  1  0.168320  0.752030  0.593820  1.0
  Co  Co712  1  0.752030  0.485830  0.593820  1.0
  F  F713  1  0.284690  0.679590  0.329830  1
  F  F714  1  0.705890  0.284690  0.329830  1
  F  F715  1  0.679590  0.705890  0.329830  1
  F  F716  1  0.794110  0.820410  0.170170  1
  F  F717  1  0.820410  0.215310  0.170170  1
  F  F718  1  0.215310  0.794110  0.170170  1
  F  F719  1  0.715310  0.320410  0.670170  1
  F  F720  1  0.294110  0.715310  0.670170  1
  F  F721  1  0.320410  0.294110  0.670170  1
  F  F722  1  0.205890  0.179590  0.829830  1
  F  F723  1  0.179590  0.784690  0.829830  1
  F  F724  1  0.784690  0.205890  0.829830  1
  F  F725  1  0.383380  0.699140  0.321970  1
  F  F726  1  0.595510  0.383380  0.321970  1
  F  F727  1  0.699140  0.595510  0.321970  1
  F  F728  1  0.904490  0.800860  0.178030  1
  F  F729  1  0.800860  0.116620  0.178030  1
  F  F730  1  0.116620  0.904490  0.178030  1
  F  F731  1  0.616620  0.300860  0.678030  1
  F  F732  1  0.404490  0.616620  0.678030  1
  F  F733  1  0.300860  0.404490  0.678030  1
  F  F734  1  0.095510  0.199140  0.821970  1
  F  F735  1  0.199140  0.883380  0.821970  1
  F  F736  1  0.883380  0.095510  0.821970  1
  F  F737  1  0.308450  0.720870  0.297670  1
  F  F738  1  0.673010  0.308450  0.297670  1
  F  F739  1  0.720870  0.673010  0.297670  1
  F  F740  1  0.826990  0.779130  0.202330  1
  F  F741  1  0.779130  0.191550  0.202330  1
  F  F742  1  0.191550  0.826990  0.202330  1
  F  F743  1  0.691550  0.279130  0.702330  1
  F  F744  1  0.326990  0.691550  0.702330  1
  F  F745  1  0.279130  0.326990  0.702330  1
  F  F746  1  0.173010  0.220870  0.797670  1
  F  F747  1  0.220870  0.808450  0.797670  1
  F  F748  1  0.808450  0.173010  0.797670  1
  F  F749  1  0.304760  0.818860  0.309820  1
  F  F750  1  0.566560  0.304760  0.309820  1
  F  F751  1  0.818860  0.566560  0.309820  1
  F  F752  1  0.933440  0.681140  0.190180  1
  F  F753  1  0.681140  0.195240  0.190180  1
  F  F754  1  0.195240  0.933440  0.190180  1
  F  F755  1  0.695240  0.181140  0.690180  1
  F  F756  1  0.433440  0.695240  0.690180  1
  F  F757  1  0.181140  0.433440  0.690180  1
  F  F758  1  0.066560  0.318860  0.809820  1
  F  F759  1  0.318860  0.804760  0.809820  1
  F  F760  1  0.804760  0.066560  0.809820  1
  F  F761  1  0.206920  0.797400  0.317470  1
  F  F762  1  0.678210  0.206920  0.317470  1
  F  F763  1  0.797400  0.678210  0.317470  1
  F  F764  1  0.821790  0.702600  0.182530  1
  F  F765  1  0.702600  0.293080  0.182530  1
  F  F766  1  0.293080  0.821790  0.182530  1
  F  F767  1  0.793080  0.202600  0.682530  1
  F  F768  1  0.321790  0.793080  0.682530  1
  F  F769  1  0.202600  0.321790  0.682530  1
  F  F770  1  0.178210  0.297400  0.817470  1
  F  F771  1  0.297400  0.706920  0.817470  1
  F  F772  1  0.706920  0.178210  0.817470  1
  F  F773  1  0.281930  0.777730  0.341710  1
  F  F774  1  0.598630  0.281930  0.341710  1
  F  F775  1  0.777730  0.598630  0.341710  1
  F  F776  1  0.901370  0.722270  0.158290  1
  F  F777  1  0.722270  0.218070  0.158290  1
  F  F778  1  0.218070  0.901370  0.158290  1
  F  F779  1  0.718070  0.222270  0.658290  1
  F  F780  1  0.401370  0.718070  0.658290  1
  F  F781  1  0.222270  0.401370  0.658290  1
  F  F782  1  0.098630  0.277730  0.841710  1
  F  F783  1  0.277730  0.781930  0.841710  1
  F  F784  1  0.781930  0.098630  0.841710  1
  F  F785  1  0.508930  0.211630  0.136510  1
  F  F786  1  0.142930  0.508930  0.136510  1
  F  F787  1  0.211630  0.142930  0.136510  1
  F  F788  1  0.357070  0.288370  0.363490  1
  F  F789  1  0.288370  0.991070  0.363490  1
  F  F790  1  0.991070  0.357070  0.363490  1
  F  F791  1  0.491070  0.788370  0.863490  1
  F  F792  1  0.857070  0.491070  0.863490  1
  F  F793  1  0.788370  0.857070  0.863490  1
  F  F794  1  0.642930  0.711630  0.636510  1
  F  F795  1  0.711630  0.008930  0.636510  1
  F  F796  1  0.008930  0.642930  0.636510  1
  F  F797  1  0.555150  0.259650  0.110650  1
  F  F798  1  0.074550  0.555150  0.110650  1
  F  F799  1  0.259650  0.074550  0.110650  1
  F  F800  1  0.425450  0.240350  0.389350  1
  F  F801  1  0.240350  0.944850  0.389350  1
  F  F802  1  0.944850  0.425450  0.389350  1
  F  F803  1  0.444850  0.740350  0.889350  1
  F  F804  1  0.925450  0.444850  0.889350  1
  F  F805  1  0.740350  0.925450  0.889350  1
  F  F806  1  0.574550  0.759650  0.610650  1
  F  F807  1  0.759650  0.055150  0.610650  1
  F  F808  1  0.055150  0.574550  0.610650  1
  F  F809  1  0.429390  0.317490  0.118930  1
  F  F810  1  0.134190  0.429390  0.118930  1
  F  F811  1  0.317490  0.134190  0.118930  1
  F  F812  1  0.365810  0.182510  0.381070  1
  F  F813  1  0.182510  0.070610  0.381070  1
  F  F814  1  0.070610  0.365810  0.381070  1
  F  F815  1  0.570610  0.682510  0.881070  1
  F  F816  1  0.865810  0.570610  0.881070  1
  F  F817  1  0.682510  0.865810  0.881070  1
  F  F818  1  0.634190  0.817490  0.618930  1
  F  F819  1  0.817490  0.929390  0.618930  1
  F  F820  1  0.929390  0.634190  0.618930  1
  F  F821  1  0.492670  0.372070  0.122290  1
  F  F822  1  0.012970  0.492670  0.122290  1
  F  F823  1  0.372070  0.012970  0.122290  1
  F  F824  1  0.487030  0.127930  0.377710  1
  F  F825  1  0.127930  0.007330  0.377710  1
  F  F826  1  0.007330  0.487030  0.377710  1
  F  F827  1  0.507330  0.627930  0.877710  1
  F  F828  1  0.987030  0.507330  0.877710  1
  F  F829  1  0.627930  0.987030  0.877710  1
  F  F830  1  0.512970  0.872070  0.622290  1
  F  F831  1  0.872070  0.992670  0.622290  1
  F  F832  1  0.992670  0.512970  0.622290  1
  F  F833  1  0.449130  0.327230  0.149710  1
  F  F834  1  0.073930  0.449130  0.149710  1
  F  F835  1  0.327230  0.073930  0.149710  1
  F  F836  1  0.426070  0.172770  0.350290  1
  F  F837  1  0.172770  0.050870  0.350290  1
  F  F838  1  0.050870  0.426070  0.350290  1
  F  F839  1  0.550870  0.672770  0.850290  1
  F  F840  1  0.926070  0.550870  0.850290  1
  F  F841  1  0.672770  0.926070  0.850290  1
  F  F842  1  0.573930  0.827230  0.649710  1
  F  F843  1  0.827230  0.949130  0.649710  1
  F  F844  1  0.949130  0.573930  0.649710  1
  F  F845  1  0.569530  0.268830  0.141610  1
  F  F846  1  0.020030  0.569530  0.141610  1
  F  F847  1  0.268830  0.020030  0.141610  1
  F  F848  1  0.479970  0.231170  0.358390  1
  F  F849  1  0.231170  0.930470  0.358390  1
  F  F850  1  0.930470  0.479970  0.358390  1
  F  F851  1  0.430470  0.731170  0.858390  1
  F  F852  1  0.979970  0.430470  0.858390  1
  F  F853  1  0.731170  0.979970  0.858390  1
  F  F854  1  0.520030  0.768830  0.641610  1
  F  F855  1  0.768830  0.069530  0.641610  1
  F  F856  1  0.069530  0.520030  0.641610  1
  F  F857  1  0.165240  0.541540  0.023080  1
  F  F858  1  0.270140  0.165240  0.023080  1
  F  F859  1  0.541540  0.270140  0.023080  1
  F  F860  1  0.229860  0.958460  0.476920  1
  F  F861  1  0.958460  0.334760  0.476920  1
  F  F862  1  0.334760  0.229860  0.476920  1
  F  F863  1  0.834760  0.458460  0.976920  1
  F  F864  1  0.729860  0.834760  0.976920  1
  F  F865  1  0.458460  0.729860  0.976920  1
  F  F866  1  0.770140  0.041540  0.523080  1
  F  F867  1  0.041540  0.665240  0.523080  1
  F  F868  1  0.665240  0.770140  0.523080  1
  F  F869  1  0.168820  0.599220  0.994040  1
  F  F870  1  0.237920  0.168820  0.994040  1
  F  F871  1  0.599220  0.237920  0.994040  1
  F  F872  1  0.262080  0.900780  0.505960  1
  F  F873  1  0.900780  0.331180  0.505960  1
  F  F874  1  0.331180  0.262080  0.505960  1
  F  F875  1  0.831180  0.400780  0.005960  1
  F  F876  1  0.762080  0.831180  0.005960  1
  F  F877  1  0.400780  0.762080  0.005960  1
  F  F878  1  0.737920  0.099220  0.494040  1
  F  F879  1  0.099220  0.668820  0.494040  1
  F  F880  1  0.668820  0.737920  0.494040  1
  F  F881  1  0.065010  0.637410  0.009070  1
  F  F882  1  0.288510  0.065010  0.009070  1
  F  F883  1  0.637410  0.288510  0.009070  1
  F  F884  1  0.211490  0.862590  0.490930  1
  F  F885  1  0.862590  0.434990  0.490930  1
  F  F886  1  0.434990  0.211490  0.490930  1
  F  F887  1  0.934990  0.362590  0.990930  1
  F  F888  1  0.711490  0.934990  0.990930  1
  F  F889  1  0.362590  0.711490  0.990930  1
  F  F890  1  0.788510  0.137410  0.509070  1
  F  F891  1  0.137410  0.565010  0.509070  1
  F  F892  1  0.565010  0.788510  0.509070  1
  F  F893  1  0.135540  0.699940  0.004480  1
  F  F894  1  0.160040  0.135540  0.004480  1
  F  F895  1  0.699940  0.160040  0.004480  1
  F  F896  1  0.339960  0.800060  0.495520  1
  F  F897  1  0.800060  0.364460  0.495520  1
  F  F898  1  0.364460  0.339960  0.495520  1
  F  F899  1  0.864460  0.300060  0.995520  1
  F  F900  1  0.839960  0.864460  0.995520  1
  F  F901  1  0.300060  0.839960  0.995520  1
  F  F902  1  0.660040  0.199940  0.504480  1
  F  F903  1  0.199940  0.635540  0.504480  1
  F  F904  1  0.635540  0.660040  0.504480  1
  F  F905  1  0.111030  0.650430  0.036910  1
  F  F906  1  0.201630  0.111030  0.036910  1
  F  F907  1  0.650430  0.201630  0.036910  1
  F  F908  1  0.298370  0.849570  0.463090  1
  F  F909  1  0.849570  0.388970  0.463090  1
  F  F910  1  0.388970  0.298370  0.463090  1
  F  F911  1  0.888970  0.349570  0.963090  1
  F  F912  1  0.798370  0.888970  0.963090  1
  F  F913  1  0.349570  0.798370  0.963090  1
  F  F914  1  0.701630  0.150430  0.536910  1
  F  F915  1  0.150430  0.611030  0.536910  1
  F  F916  1  0.611030  0.701630  0.536910  1
  F  F917  1  0.219030  0.603930  0.021310  1
  F  F918  1  0.155730  0.219030  0.021310  1
  F  F919  1  0.603930  0.155730  0.021310  1
  F  F920  1  0.344270  0.896070  0.478690  1
  F  F921  1  0.896070  0.280970  0.478690  1
  F  F922  1  0.280970  0.344270  0.478690  1
  F  F923  1  0.780970  0.396070  0.978690  1
  F  F924  1  0.844270  0.780970  0.978690  1
  F  F925  1  0.396070  0.844270  0.978690  1
  F  F926  1  0.655730  0.103930  0.521310  1
  F  F927  1  0.103930  0.719030  0.521310  1
  F  F928  1  0.719030  0.655730  0.521310  1
  F  F929  1  0.975217  0.975217  0.074350  1
  F  F930  1  0.524783  0.524783  0.425650  1
  F  F931  1  0.024783  0.024783  0.925650  1
  F  F932  1  0.475217  0.475217  0.574350  1
  F  F933  1  0.958997  0.958997  0.123010  1
  F  F934  1  0.541003  0.541003  0.376990  1
  F  F935  1  0.041003  0.041003  0.876990  1
  F  F936  1  0.458997  0.458997  0.623010  1
  F  F937  1  0.950730  0.904130  0.099910  1
  F  F938  1  0.045230  0.950730  0.099910  1
  F  F939  1  0.904130  0.045230  0.099910  1
  F  F940  1  0.454770  0.595870  0.400090  1
  F  F941  1  0.595870  0.549270  0.400090  1
  F  F942  1  0.549270  0.454770  0.400090  1
  F  F943  1  0.049270  0.095870  0.900090  1
  F  F944  1  0.954770  0.049270  0.900090  1
  F  F945  1  0.095870  0.954770  0.900090  1
  F  F946  1  0.545230  0.404130  0.599910  1
  F  F947  1  0.404130  0.450730  0.599910  1
  F  F948  1  0.450730  0.545230  0.599910  1
  F  F949  1  0.034080  0.887980  0.097660  1
  F  F950  1  0.980280  0.034080  0.097660  1
  F  F951  1  0.887980  0.980280  0.097660  1
  F  F952  1  0.519720  0.612020  0.402340  1
  F  F953  1  0.612020  0.465920  0.402340  1
  F  F954  1  0.465920  0.519720  0.402340  1
  F  F955  1  0.965920  0.112020  0.902340  1
  F  F956  1  0.019720  0.965920  0.902340  1
  F  F957  1  0.112020  0.019720  0.902340  1
  F  F958  1  0.480280  0.387980  0.597660  1
  F  F959  1  0.387980  0.534080  0.597660  1
  F  F960  1  0.534080  0.480280  0.597660  1
  F  F961  1  0.274600  0.044500  0.235600  1.0
  F  F962  1  0.445300  0.274600  0.235600  1.0
  F  F963  1  0.044500  0.445300  0.235600  1.0
  F  F964  1  0.054700  0.455500  0.264400  1.0
  F  F965  1  0.455500  0.225400  0.264400  1.0
  F  F966  1  0.225400  0.054700  0.264400  1.0
  F  F967  1  0.725400  0.955500  0.764400  1.0
  F  F968  1  0.554700  0.725400  0.764400  1.0
  F  F969  1  0.955500  0.554700  0.764400  1.0
  F  F970  1  0.945300  0.544500  0.735600  1.0
  F  F971  1  0.544500  0.774600  0.735600  1.0
  F  F972  1  0.774600  0.945300  0.735600  1.0
  F  F973  1  0.333900  0.943000  0.245200  1.0
  F  F974  1  0.477900  0.333900  0.245200  1.0
  F  F975  1  0.943000  0.477900  0.245200  1.0
  F  F976  1  0.022100  0.557000  0.254800  1.0
  F  F977  1  0.557000  0.166100  0.254800  1.0
  F  F978  1  0.166100  0.022100  0.254800  1.0
  F  F979  1  0.666100  0.057000  0.754800  1.0
  F  F980  1  0.522100  0.666100  0.754800  1.0
  F  F981  1  0.057000  0.522100  0.754800  1.0
  F  F982  1  0.977900  0.443000  0.745200  1.0
  F  F983  1  0.443000  0.833900  0.745200  1.0
  F  F984  1  0.833900  0.977900  0.745200  1.0
  F  F985  1  0.252300  0.928400  0.264700  1.0
  F  F986  1  0.554600  0.252300  0.264700  1.0
  F  F987  1  0.928400  0.554600  0.264700  1.0
  F  F988  1  0.945400  0.571600  0.235300  1.0
  F  F989  1  0.571600  0.247700  0.235300  1.0
  F  F990  1  0.247700  0.945400  0.235300  1.0
  F  F991  1  0.747700  0.071600  0.735300  1.0
  F  F992  1  0.445400  0.747700  0.735300  1.0
  F  F993  1  0.071600  0.445400  0.735300  1.0
  F  F994  1  0.054600  0.428400  0.764700  1.0
  F  F995  1  0.428400  0.752300  0.764700  1.0
  F  F996  1  0.752300  0.054600  0.764700  1.0
  F  F997  1  0.992620  0.933540  0.013630  1.0
  F  F998  1  0.060210  0.992620  0.013630  1.0
  F  F999  1  0.933540  0.060210  0.013630  1.0
  F  F1000  1  0.439790  0.566460  0.486370  1.0
  F  F1001  1  0.566460  0.507380  0.486370  1.0
  F  F1002  1  0.507380  0.439790  0.486370  1.0
  F  F1003  1  0.007380  0.066460  0.986370  1.0
  F  F1004  1  0.939790  0.007380  0.986370  1.0
  F  F1005  1  0.066460  0.939790  0.986370  1.0
  F  F1006  1  0.560210  0.433540  0.513630  1.0
  F  F1007  1  0.433540  0.492620  0.513630  1.0
  F  F1008  1  0.492620  0.560210  0.513630  1.0
  H  H1009  1  0.469500  0.654500  0.181000  1
  H  H1010  1  0.695000  0.469500  0.181000  1
  H  H1011  1  0.654500  0.695000  0.181000  1
  H  H1012  1  0.805000  0.845500  0.319000  1
  H  H1013  1  0.845500  0.030500  0.319000  1
  H  H1014  1  0.030500  0.805000  0.319000  1
  H  H1015  1  0.530500  0.345500  0.819000  1
  H  H1016  1  0.305000  0.530500  0.819000  1
  H  H1017  1  0.345500  0.305000  0.819000  1
  H  H1018  1  0.195000  0.154500  0.681000  1
  H  H1019  1  0.154500  0.969500  0.681000  1
  H  H1020  1  0.969500  0.195000  0.681000  1
  H  H1021  1  0.274600  0.596500  0.189400  1
  H  H1022  1  0.939500  0.274600  0.189400  1
  H  H1023  1  0.596500  0.939500  0.189400  1
  H  H1024  1  0.560500  0.903500  0.310600  1
  H  H1025  1  0.903500  0.225400  0.310600  1
  H  H1026  1  0.225400  0.560500  0.310600  1
  H  H1027  1  0.725400  0.403500  0.810600  1
  H  H1028  1  0.060500  0.725400  0.810600  1
  H  H1029  1  0.403500  0.060500  0.810600  1
  H  H1030  1  0.439500  0.096500  0.689400  1
  H  H1031  1  0.096500  0.774600  0.689400  1
  H  H1032  1  0.774600  0.439500  0.689400  1
  H  H1033  1  0.301400  0.610700  0.235300  1
  H  H1034  1  0.852600  0.301400  0.235300  1
  H  H1035  1  0.610700  0.852600  0.235300  1
  H  H1036  1  0.647400  0.889300  0.264700  1
  H  H1037  1  0.889300  0.198600  0.264700  1
  H  H1038  1  0.198600  0.647400  0.264700  1
  H  H1039  1  0.698600  0.389300  0.764700  1
  H  H1040  1  0.147400  0.698600  0.764700  1
  H  H1041  1  0.389300  0.147400  0.764700  1
  H  H1042  1  0.352600  0.110700  0.735300  1
  H  H1043  1  0.110700  0.801400  0.735300  1
  H  H1044  1  0.801400  0.352600  0.735300  1
  H  H1045  1  0.235600  0.630500  0.221500  1
  H  H1046  1  0.912400  0.235600  0.221500  1
  H  H1047  1  0.630500  0.912400  0.221500  1
  H  H1048  1  0.587600  0.869500  0.278500  1
  H  H1049  1  0.869500  0.264400  0.278500  1
  H  H1050  1  0.264400  0.587600  0.278500  1
  H  H1051  1  0.764400  0.369500  0.778500  1
  H  H1052  1  0.087600  0.764400  0.778500  1
  H  H1053  1  0.369500  0.087600  0.778500  1
  H  H1054  1  0.412400  0.130500  0.721500  1
  H  H1055  1  0.130500  0.735600  0.721500  1
  H  H1056  1  0.735600  0.412400  0.721500  1
  H  H1057  1  0.248600  0.696100  0.226900  1
  H  H1058  1  0.828400  0.248600  0.226900  1
  H  H1059  1  0.696100  0.828400  0.226900  1
  H  H1060  1  0.671600  0.803900  0.273100  1
  H  H1061  1  0.803900  0.251400  0.273100  1
  H  H1062  1  0.251400  0.671600  0.273100  1
  H  H1063  1  0.751400  0.303900  0.773100  1
  H  H1064  1  0.171600  0.751400  0.773100  1
  H  H1065  1  0.303900  0.171600  0.773100  1
  H  H1066  1  0.328400  0.196100  0.726900  1
  H  H1067  1  0.196100  0.748600  0.726900  1
  H  H1068  1  0.748600  0.328400  0.726900  1
  H  H1069  1  0.504000  0.627100  0.149800  1
  H  H1070  1  0.719100  0.504000  0.149800  1
  H  H1071  1  0.627100  0.719100  0.149800  1
  H  H1072  1  0.780900  0.872900  0.350200  1
  H  H1073  1  0.872900  0.996000  0.350200  1
  H  H1074  1  0.996000  0.780900  0.350200  1
  H  H1075  1  0.496000  0.372900  0.850200  1
  H  H1076  1  0.280900  0.496000  0.850200  1
  H  H1077  1  0.372900  0.280900  0.850200  1
  H  H1078  1  0.219100  0.127100  0.649800  1
  H  H1079  1  0.127100  0.004000  0.649800  1
  H  H1080  1  0.004000  0.219100  0.649800  1
  H  H1081  1  0.497200  0.557400  0.144700  1
  H  H1082  1  0.800700  0.497200  0.144700  1
  H  H1083  1  0.557400  0.800700  0.144700  1
  H  H1084  1  0.699300  0.942600  0.355300  1
  H  H1085  1  0.942600  0.002800  0.355300  1
  H  H1086  1  0.002800  0.699300  0.355300  1
  H  H1087  1  0.502800  0.442600  0.855300  1
  H  H1088  1  0.199300  0.502800  0.855300  1
  H  H1089  1  0.442600  0.199300  0.855300  1
  H  H1090  1  0.300700  0.057400  0.644700  1
  H  H1091  1  0.057400  0.997200  0.644700  1
  H  H1092  1  0.997200  0.300700  0.644700  1
  H  H1093  1  0.441000  0.641100  0.135700  1
  H  H1094  1  0.782200  0.441000  0.135700  1
  H  H1095  1  0.641100  0.782200  0.135700  1
  H  H1096  1  0.717800  0.858900  0.364300  1
  H  H1097  1  0.858900  0.059000  0.364300  1
  H  H1098  1  0.059000  0.717800  0.364300  1
  H  H1099  1  0.559000  0.358900  0.864300  1
  H  H1100  1  0.217800  0.559000  0.864300  1
  H  H1101  1  0.358900  0.217800  0.864300  1
  H  H1102  1  0.282200  0.141100  0.635700  1
  H  H1103  1  0.141100  0.941000  0.635700  1
  H  H1104  1  0.941000  0.282200  0.635700  1
  H  H1105  1  0.103600  0.795300  0.079900  1.0
  H  H1106  1  0.021200  0.103600  0.079900  1.0
  H  H1107  1  0.795300  0.021200  0.079900  1.0
  H  H1108  1  0.478800  0.704700  0.420100  1.0
  H  H1109  1  0.704700  0.396400  0.420100  1.0
  H  H1110  1  0.396400  0.478800  0.420100  1.0
  H  H1111  1  0.896400  0.204700  0.920100  1.0
  H  H1112  1  0.978800  0.896400  0.920100  1.0
  H  H1113  1  0.204700  0.978800  0.920100  1.0
  H  H1114  1  0.521200  0.295300  0.579900  1.0
  H  H1115  1  0.295300  0.603600  0.579900  1.0
  H  H1116  1  0.603600  0.521200  0.579900  1.0
  H  H1117  1  0.062300  0.865300  0.049000  1.0
  H  H1118  1  0.023400  0.062300  0.049000  1.0
  H  H1119  1  0.865300  0.023400  0.049000  1.0
  H  H1120  1  0.476600  0.634700  0.451000  1.0
  H  H1121  1  0.634700  0.437700  0.451000  1.0
  H  H1122  1  0.437700  0.476600  0.451000  1.0
  H  H1123  1  0.937700  0.134700  0.951000  1.0
  H  H1124  1  0.976600  0.937700  0.951000  1.0
  H  H1125  1  0.134700  0.976600  0.951000  1.0
  H  H1126  1  0.523400  0.365300  0.549000  1.0
  H  H1127  1  0.365300  0.562300  0.549000  1.0
  H  H1128  1  0.562300  0.523400  0.549000  1.0
  H  H1129  1  0.144900  0.837300  0.019000  1.0
  H  H1130  1  0.998800  0.144900  0.019000  1.0
  H  H1131  1  0.837300  0.998800  0.019000  1.0
  H  H1132  1  0.501200  0.662700  0.481000  1.0
  H  H1133  1  0.662700  0.355100  0.481000  1.0
  H  H1134  1  0.355100  0.501200  0.481000  1.0
  H  H1135  1  0.855100  0.162700  0.981000  1.0
  H  H1136  1  0.001200  0.855100  0.981000  1.0
  H  H1137  1  0.162700  0.001200  0.981000  1.0
  H  H1138  1  0.498800  0.337300  0.519000  1.0
  H  H1139  1  0.337300  0.644900  0.519000  1.0
  H  H1140  1  0.644900  0.498800  0.519000  1.0
  H  H1141  1  0.271000  0.739600  0.021400  1.0
  H  H1142  1  0.968000  0.271000  0.021400  1.0
  H  H1143  1  0.739600  0.968000  0.021400  1.0
  H  H1144  1  0.532000  0.760400  0.478600  1.0
  H  H1145  1  0.760400  0.229000  0.478600  1.0
  H  H1146  1  0.229000  0.532000  0.478600  1.0
  H  H1147  1  0.729000  0.260400  0.978600  1.0
  H  H1148  1  0.032000  0.729000  0.978600  1.0
  H  H1149  1  0.260400  0.032000  0.978600  1.0
  H  H1150  1  0.468000  0.239600  0.521400  1.0
  H  H1151  1  0.239600  0.771000  0.521400  1.0
  H  H1152  1  0.771000  0.468000  0.521400  1.0
  H  H1153  1  0.384500  0.642400  0.026800  1.0
  H  H1154  1  0.946300  0.384500  0.026800  1.0
  H  H1155  1  0.642400  0.946300  0.026800  1.0
  H  H1156  1  0.553700  0.857600  0.473200  1.0
  H  H1157  1  0.857600  0.115500  0.473200  1.0
  H  H1158  1  0.115500  0.553700  0.473200  1.0
  H  H1159  1  0.615500  0.357600  0.973200  1.0
  H  H1160  1  0.053700  0.615500  0.973200  1.0
  H  H1161  1  0.357600  0.053700  0.973200  1.0
  H  H1162  1  0.446300  0.142400  0.526800  1.0
  H  H1163  1  0.142400  0.884500  0.526800  1.0
  H  H1164  1  0.884500  0.446300  0.526800  1.0
  H  H1165  1  0.503100  0.547000  0.035800  1.0
  H  H1166  1  0.914100  0.503100  0.035800  1.0
  H  H1167  1  0.547000  0.914100  0.035800  1.0
  H  H1168  1  0.585900  0.953000  0.464200  1.0
  H  H1169  1  0.953000  0.996900  0.464200  1.0
  H  H1170  1  0.996900  0.585900  0.464200  1.0
  H  H1171  1  0.496900  0.453000  0.964200  1.0
  H  H1172  1  0.085900  0.496900  0.964200  1.0
  H  H1173  1  0.453000  0.085900  0.964200  1.0
  H  H1174  1  0.414100  0.047000  0.535800  1.0
  H  H1175  1  0.047000  0.003100  0.535800  1.0
  H  H1176  1  0.003100  0.414100  0.535800  1.0
  H  H1177  1  0.418800  0.555900  0.094900  1.0
  H  H1178  1  0.930400  0.418800  0.094900  1.0
  H  H1179  1  0.555900  0.930400  0.094900  1.0
  H  H1180  1  0.569600  0.944100  0.405100  1.0
  H  H1181  1  0.944100  0.081200  0.405100  1.0
  H  H1182  1  0.081200  0.569600  0.405100  1.0
  H  H1183  1  0.581200  0.444100  0.905100  1.0
  H  H1184  1  0.069600  0.581200  0.905100  1.0
  H  H1185  1  0.444100  0.069600  0.905100  1.0
  H  H1186  1  0.430400  0.055900  0.594900  1.0
  H  H1187  1  0.055900  0.918800  0.594900  1.0
  H  H1188  1  0.918800  0.430400  0.594900  1.0
  H  H1189  1  0.651600  0.306100  0.083500  1.0
  H  H1190  1  0.958800  0.651600  0.083500  1.0
  H  H1191  1  0.306100  0.958800  0.083500  1.0
  H  H1192  1  0.541200  0.193900  0.416500  1.0
  H  H1193  1  0.193900  0.848400  0.416500  1.0
  H  H1194  1  0.848400  0.541200  0.416500  1.0
  H  H1195  1  0.348400  0.693900  0.916500  1.0
  H  H1196  1  0.041200  0.348400  0.916500  1.0
  H  H1197  1  0.693900  0.041200  0.916500  1.0
  H  H1198  1  0.458800  0.806100  0.583500  1.0
  H  H1199  1  0.806100  0.151600  0.583500  1.0
  H  H1200  1  0.151600  0.458800  0.583500  1.0
  H  H1201  1  0.577000  0.557300  0.079900  1.0
  H  H1202  1  0.785800  0.577000  0.079900  1.0
  H  H1203  1  0.557300  0.785800  0.079900  1.0
  H  H1204  1  0.714200  0.942700  0.420100  1.0
  H  H1205  1  0.942700  0.923000  0.420100  1.0
  H  H1206  1  0.923000  0.714200  0.420100  1.0
  H  H1207  1  0.423000  0.442700  0.920100  1.0
  H  H1208  1  0.214200  0.423000  0.920100  1.0
  H  H1209  1  0.442700  0.214200  0.920100  1.0
  H  H1210  1  0.285800  0.057300  0.579900  1.0
  H  H1211  1  0.057300  0.077000  0.579900  1.0
  H  H1212  1  0.077000  0.285800  0.579900  1.0
  H  H1213  1  0.480800  0.386500  0.079600  1.0
  H  H1214  1  0.053100  0.480800  0.079600  1.0
  H  H1215  1  0.386500  0.053100  0.079600  1.0
  H  H1216  1  0.446900  0.113500  0.420400  1.0
  H  H1217  1  0.113500  0.019200  0.420400  1.0
  H  H1218  1  0.019200  0.446900  0.420400  1.0
  H  H1219  1  0.519200  0.613500  0.920400  1.0
  H  H1220  1  0.946900  0.519200  0.920400  1.0
  H  H1221  1  0.613500  0.946900  0.920400  1.0
  H  H1222  1  0.553100  0.886500  0.579600  1.0
  H  H1223  1  0.886500  0.980800  0.579600  1.0
  H  H1224  1  0.980800  0.553100  0.579600  1.0
  H  H1225  1  0.548700  0.331900  0.064300  1.0
  H  H1226  1  0.055100  0.548700  0.064300  1.0
  H  H1227  1  0.331900  0.055100  0.064300  1.0
  H  H1228  1  0.444900  0.168100  0.435700  1.0
  H  H1229  1  0.168100  0.951300  0.435700  1.0
  H  H1230  1  0.951300  0.444900  0.435700  1.0
  H  H1231  1  0.451300  0.668100  0.935700  1.0
  H  H1232  1  0.944900  0.451300  0.935700  1.0
  H  H1233  1  0.668100  0.944900  0.935700  1.0
  H  H1234  1  0.555100  0.831900  0.564300  1.0
  H  H1235  1  0.831900  0.048700  0.564300  1.0
  H  H1236  1  0.048700  0.555100  0.564300  1.0
  H  H1237  1  0.492500  0.416700  0.056200  1.0
  H  H1238  1  0.034600  0.492500  0.056200  1.0
  H  H1239  1  0.416700  0.034600  0.056200  1.0
  H  H1240  1  0.465400  0.083300  0.443800  1.0
  H  H1241  1  0.083300  0.007500  0.443800  1.0
  H  H1242  1  0.007500  0.465400  0.443800  1.0
  H  H1243  1  0.507500  0.583300  0.943800  1.0
  H  H1244  1  0.965400  0.507500  0.943800  1.0
  H  H1245  1  0.583300  0.965400  0.943800  1.0
  H  H1246  1  0.534600  0.916700  0.556200  1.0
  H  H1247  1  0.916700  0.992500  0.556200  1.0
  H  H1248  1  0.992500  0.534600  0.556200  1.0
  H  H1249  1  0.684400  0.536500  0.091300  1.0
  H  H1250  1  0.687800  0.684400  0.091300  1.0
  H  H1251  1  0.536500  0.687800  0.091300  1.0
  H  H1252  1  0.812200  0.963500  0.408700  1.0
  H  H1253  1  0.963500  0.815600  0.408700  1.0
  H  H1254  1  0.815600  0.812200  0.408700  1.0
  H  H1255  1  0.315600  0.463500  0.908700  1.0
  H  H1256  1  0.312200  0.315600  0.908700  1.0
  H  H1257  1  0.463500  0.312200  0.908700  1.0
  H  H1258  1  0.187800  0.036500  0.591300  1.0
  H  H1259  1  0.036500  0.184400  0.591300  1.0
  H  H1260  1  0.184400  0.187800  0.591300  1.0
  H  H1261  1  0.758400  0.456000  0.089800  1.0
  H  H1262  1  0.695800  0.758400  0.089800  1.0
  H  H1263  1  0.456000  0.695800  0.089800  1.0
  H  H1264  1  0.804200  0.044000  0.410200  1.0
  H  H1265  1  0.044000  0.741600  0.410200  1.0
  H  H1266  1  0.741600  0.804200  0.410200  1.0
  H  H1267  1  0.241600  0.544000  0.910200  1.0
  H  H1268  1  0.304200  0.241600  0.910200  1.0
  H  H1269  1  0.544000  0.304200  0.910200  1.0
  H  H1270  1  0.195800  0.956000  0.589800  1.0
  H  H1271  1  0.956000  0.258400  0.589800  1.0
  H  H1272  1  0.258400  0.195800  0.589800  1.0
  H  H1273  1  0.704500  0.474200  0.110800  1.0
  H  H1274  1  0.710500  0.704500  0.110800  1.0
  H  H1275  1  0.474200  0.710500  0.110800  1.0
  H  H1276  1  0.789500  0.025800  0.389200  1.0
  H  H1277  1  0.025800  0.795500  0.389200  1.0
  H  H1278  1  0.795500  0.789500  0.389200  1.0
  H  H1279  1  0.295500  0.525800  0.889200  1.0
  H  H1280  1  0.289500  0.295500  0.889200  1.0
  H  H1281  1  0.525800  0.289500  0.889200  1.0
  H  H1282  1  0.210500  0.974200  0.610800  1.0
  H  H1283  1  0.974200  0.204500  0.610800  1.0
  H  H1284  1  0.204500  0.210500  0.610800  1.0
  H  H1285  1  0.823900  0.355000  0.083200  1.0
  H  H1286  1  0.737900  0.823900  0.083200  1.0
  H  H1287  1  0.355000  0.737900  0.083200  1.0
  H  H1288  1  0.762100  0.145000  0.416800  1.0
  H  H1289  1  0.145000  0.676100  0.416800  1.0
  H  H1290  1  0.676100  0.762100  0.416800  1.0
  H  H1291  1  0.176100  0.645000  0.916800  1.0
  H  H1292  1  0.262100  0.176100  0.916800  1.0
  H  H1293  1  0.645000  0.262100  0.916800  1.0
  H  H1294  1  0.237900  0.855000  0.583200  1.0
  H  H1295  1  0.855000  0.323900  0.583200  1.0
  H  H1296  1  0.323900  0.237900  0.583200  1.0
  H  H1297  1  0.707400  0.256800  0.115600  1.0
  H  H1298  1  0.920200  0.707400  0.115600  1.0
  H  H1299  1  0.256800  0.920200  0.115600  1.0
  H  H1300  1  0.579800  0.243200  0.384400  1.0
  H  H1301  1  0.243200  0.792600  0.384400  1.0
  H  H1302  1  0.792600  0.579800  0.384400  1.0
  H  H1303  1  0.292600  0.743200  0.884400  1.0
  H  H1304  1  0.079800  0.292600  0.884400  1.0
  H  H1305  1  0.743200  0.079800  0.884400  1.0
  H  H1306  1  0.420200  0.756800  0.615600  1.0
  H  H1307  1  0.756800  0.207400  0.615600  1.0
  H  H1308  1  0.207400  0.420200  0.615600  1.0
  H  H1309  1  0.819100  0.161500  0.128500  1.0
  H  H1310  1  0.890900  0.819100  0.128500  1.0
  H  H1311  1  0.161500  0.890900  0.128500  1.0
  H  H1312  1  0.609100  0.338500  0.371500  1.0
  H  H1313  1  0.338500  0.680900  0.371500  1.0
  H  H1314  1  0.680900  0.609100  0.371500  1.0
  H  H1315  1  0.180900  0.838500  0.871500  1.0
  H  H1316  1  0.109100  0.180900  0.871500  1.0
  H  H1317  1  0.838500  0.109100  0.871500  1.0
  H  H1318  1  0.390900  0.661500  0.628500  1.0
  H  H1319  1  0.661500  0.319100  0.628500  1.0
  H  H1320  1  0.319100  0.390900  0.628500  1.0
  H  H1321  1  0.926300  0.090400  0.144400  1.0
  H  H1322  1  0.838900  0.926300  0.144400  1.0
  H  H1323  1  0.090400  0.838900  0.144400  1.0
  H  H1324  1  0.661100  0.409600  0.355600  1.0
  H  H1325  1  0.409600  0.573700  0.355600  1.0
  H  H1326  1  0.573700  0.661100  0.355600  1.0
  H  H1327  1  0.073700  0.909600  0.855600  1.0
  H  H1328  1  0.161100  0.073700  0.855600  1.0
  H  H1329  1  0.909600  0.161100  0.855600  1.0
  H  H1330  1  0.338900  0.590400  0.644400  1.0
  H  H1331  1  0.590400  0.426300  0.644400  1.0
  H  H1332  1  0.426300  0.338900  0.644400  1.0
  H  H1333  1  0.046900  0.011300  0.154900  1.0
  H  H1334  1  0.786900  0.046900  0.154900  1.0
  H  H1335  1  0.011300  0.786900  0.154900  1.0
  H  H1336  1  0.713100  0.488700  0.345100  1.0
  H  H1337  1  0.488700  0.453100  0.345100  1.0
  H  H1338  1  0.453100  0.713100  0.345100  1.0
  H  H1339  1  0.953100  0.988700  0.845100  1.0
  H  H1340  1  0.213100  0.953100  0.845100  1.0
  H  H1341  1  0.988700  0.213100  0.845100  1.0
  H  H1342  1  0.286900  0.511300  0.654900  1.0
  H  H1343  1  0.511300  0.546900  0.654900  1.0
  H  H1344  1  0.546900  0.286900  0.654900  1.0
  H  H1345  1  0.148000  0.025900  0.138400  1.0
  H  H1346  1  0.687700  0.148000  0.138400  1.0
  H  H1347  1  0.025900  0.687700  0.138400  1.0
  H  H1348  1  0.812300  0.474100  0.361600  1.0
  H  H1349  1  0.474100  0.352000  0.361600  1.0
  H  H1350  1  0.352000  0.812300  0.361600  1.0
  H  H1351  1  0.852000  0.974100  0.861600  1.0
  H  H1352  1  0.312300  0.852000  0.861600  1.0
  H  H1353  1  0.974100  0.312300  0.861600  1.0
  H  H1354  1  0.187700  0.525900  0.638400  1.0
  H  H1355  1  0.525900  0.648000  0.638400  1.0
  H  H1356  1  0.648000  0.187700  0.638400  1.0
  H  H1357  1  0.127400  0.119600  0.111100  1.0
  H  H1358  1  0.641900  0.127400  0.111100  1.0
  H  H1359  1  0.119600  0.641900  0.111100  1.0
  H  H1360  1  0.858100  0.380400  0.388900  1.0
  H  H1361  1  0.380400  0.372600  0.388900  1.0
  H  H1362  1  0.372600  0.858100  0.388900  1.0
  H  H1363  1  0.872600  0.880400  0.888900  1.0
  H  H1364  1  0.358100  0.872600  0.888900  1.0
  H  H1365  1  0.880400  0.358100  0.888900  1.0
  H  H1366  1  0.141900  0.619600  0.611100  1.0
  H  H1367  1  0.619600  0.627400  0.611100  1.0
  H  H1368  1  0.627400  0.141900  0.611100  1.0
  H  H1369  1  0.193600  0.620000  0.062500  1.0
  H  H1370  1  0.123900  0.193600  0.062500  1.0
  H  H1371  1  0.620000  0.123900  0.062500  1.0
  H  H1372  1  0.376100  0.880000  0.437500  1.0
  H  H1373  1  0.880000  0.306400  0.437500  1.0
  H  H1374  1  0.306400  0.376100  0.437500  1.0
  H  H1375  1  0.806400  0.380000  0.937500  1.0
  H  H1376  1  0.876100  0.806400  0.937500  1.0
  H  H1377  1  0.380000  0.876100  0.937500  1.0
  H  H1378  1  0.623900  0.120000  0.562500  1.0
  H  H1379  1  0.120000  0.693600  0.562500  1.0
  H  H1380  1  0.693600  0.623900  0.562500  1.0
  H  H1381  1  0.198300  0.509900  0.057100  1.0
  H  H1382  1  0.234700  0.198300  0.057100  1.0
  H  H1383  1  0.509900  0.234700  0.057100  1.0
  H  H1384  1  0.265300  0.990100  0.442900  1.0
  H  H1385  1  0.990100  0.301700  0.442900  1.0
  H  H1386  1  0.301700  0.265300  0.442900  1.0
  H  H1387  1  0.801700  0.490100  0.942900  1.0
  H  H1388  1  0.765300  0.801700  0.942900  1.0
  H  H1389  1  0.490100  0.765300  0.942900  1.0
  H  H1390  1  0.734700  0.009900  0.557100  1.0
  H  H1391  1  0.009900  0.698300  0.557100  1.0
  H  H1392  1  0.698300  0.734700  0.557100  1.0
  H  H1393  1  0.253900  0.403400  0.080500  1.0
  H  H1394  1  0.262200  0.253900  0.080500  1.0
  H  H1395  1  0.403400  0.262200  0.080500  1.0
  H  H1396  1  0.237800  0.096600  0.419500  1.0
  H  H1397  1  0.096600  0.246100  0.419500  1.0
  H  H1398  1  0.246100  0.237800  0.419500  1.0
  H  H1399  1  0.746100  0.596600  0.919500  1.0
  H  H1400  1  0.737800  0.746100  0.919500  1.0
  H  H1401  1  0.596600  0.737800  0.919500  1.0
  H  H1402  1  0.762200  0.903400  0.580500  1.0
  H  H1403  1  0.903400  0.753900  0.580500  1.0
  H  H1404  1  0.753900  0.762200  0.580500  1.0
  H  H1405  1  0.301800  0.412800  0.109600  1.0
  H  H1406  1  0.175800  0.301800  0.109600  1.0
  H  H1407  1  0.412800  0.175800  0.109600  1.0
  H  H1408  1  0.324200  0.087200  0.390400  1.0
  H  H1409  1  0.087200  0.198200  0.390400  1.0
  H  H1410  1  0.198200  0.324200  0.390400  1.0
  H  H1411  1  0.698200  0.587200  0.890400  1.0
  H  H1412  1  0.824200  0.698200  0.890400  1.0
  H  H1413  1  0.587200  0.824200  0.890400  1.0
  H  H1414  1  0.675800  0.912800  0.609600  1.0
  H  H1415  1  0.912800  0.801800  0.609600  1.0
  H  H1416  1  0.801800  0.675800  0.609600  1.0
  H  H1417  1  0.322000  0.439400  0.138700  1.0
  H  H1418  1  0.099900  0.322000  0.138700  1.0
  H  H1419  1  0.439400  0.099900  0.138700  1.0
  H  H1420  1  0.400100  0.060600  0.361300  1.0
  H  H1421  1  0.060600  0.178000  0.361300  1.0
  H  H1422  1  0.178000  0.400100  0.361300  1.0
  H  H1423  1  0.678000  0.560600  0.861300  1.0
  H  H1424  1  0.900100  0.678000  0.861300  1.0
  H  H1425  1  0.560600  0.900100  0.861300  1.0
  H  H1426  1  0.599900  0.939400  0.638700  1.0
  H  H1427  1  0.939400  0.822000  0.638700  1.0
  H  H1428  1  0.822000  0.599900  0.638700  1.0
  H  H1429  1  0.355800  0.474300  0.165700  1.0
  H  H1430  1  0.004200  0.355800  0.165700  1.0
  H  H1431  1  0.474300  0.004200  0.165700  1.0
  H  H1432  1  0.495800  0.025700  0.334300  1.0
  H  H1433  1  0.025700  0.144200  0.334300  1.0
  H  H1434  1  0.144200  0.495800  0.334300  1.0
  H  H1435  1  0.644200  0.525700  0.834300  1.0
  H  H1436  1  0.995800  0.644200  0.834300  1.0
  H  H1437  1  0.525700  0.995800  0.834300  1.0
  H  H1438  1  0.504200  0.974300  0.665700  1.0
  H  H1439  1  0.974300  0.855800  0.665700  1.0
  H  H1440  1  0.855800  0.504200  0.665700  1.0
  H  H1441  1  0.318000  0.668600  0.132100  1.0
  H  H1442  1  0.881300  0.318000  0.132100  1.0
  H  H1443  1  0.668600  0.881300  0.132100  1.0
  H  H1444  1  0.618700  0.831400  0.367900  1.0
  H  H1445  1  0.831400  0.182000  0.367900  1.0
  H  H1446  1  0.182000  0.618700  0.367900  1.0
  H  H1447  1  0.682000  0.331400  0.867900  1.0
  H  H1448  1  0.118700  0.682000  0.867900  1.0
  H  H1449  1  0.331400  0.118700  0.867900  1.0
  H  H1450  1  0.381300  0.168600  0.632100  1.0
  H  H1451  1  0.168600  0.818000  0.632100  1.0
  H  H1452  1  0.818000  0.381300  0.632100  1.0
  H  H1453  1  0.443200  0.616100  0.153400  1.0
  H  H1454  1  0.787300  0.443200  0.153400  1.0
  H  H1455  1  0.616100  0.787300  0.153400  1.0
  H  H1456  1  0.712700  0.883900  0.346600  1.0
  H  H1457  1  0.883900  0.056800  0.346600  1.0
  H  H1458  1  0.056800  0.712700  0.346600  1.0
  H  H1459  1  0.556800  0.383900  0.846600  1.0
  H  H1460  1  0.212700  0.556800  0.846600  1.0
  H  H1461  1  0.383900  0.212700  0.846600  1.0
  H  H1462  1  0.287300  0.116100  0.653400  1.0
  H  H1463  1  0.116100  0.943200  0.653400  1.0
  H  H1464  1  0.943200  0.287300  0.653400  1.0
  H  H1465  1  0.299400  0.638000  0.216700  1.0
  H  H1466  1  0.845900  0.299400  0.216700  1.0
  H  H1467  1  0.638000  0.845900  0.216700  1.0
  H  H1468  1  0.654100  0.862000  0.283300  1.0
  H  H1469  1  0.862000  0.200600  0.283300  1.0
  H  H1470  1  0.200600  0.654100  0.283300  1.0
  H  H1471  1  0.700600  0.362000  0.783300  1.0
  H  H1472  1  0.154100  0.700600  0.783300  1.0
  H  H1473  1  0.362000  0.154100  0.783300  1.0
  H  H1474  1  0.345900  0.138000  0.716700  1.0
  H  H1475  1  0.138000  0.799400  0.716700  1.0
  H  H1476  1  0.799400  0.345900  0.716700  1.0
  H  H1477  1  0.258900  0.546800  0.190600  1.0
  H  H1478  1  0.003700  0.258900  0.190600  1.0
  H  H1479  1  0.546800  0.003700  0.190600  1.0
  H  H1480  1  0.496300  0.953200  0.309400  1.0
  H  H1481  1  0.953200  0.241100  0.309400  1.0
  H  H1482  1  0.241100  0.496300  0.309400  1.0
  H  H1483  1  0.741100  0.453200  0.809400  1.0
  H  H1484  1  0.996300  0.741100  0.809400  1.0
  H  H1485  1  0.453200  0.996300  0.809400  1.0
  H  H1486  1  0.503700  0.046800  0.690600  1.0
  H  H1487  1  0.046800  0.758900  0.690600  1.0
  H  H1488  1  0.758900  0.503700  0.690600  1.0
  H  H1489  1  0.209300  0.632200  0.181300  1.0
  H  H1490  1  0.977200  0.209300  0.181300  1.0
  H  H1491  1  0.632200  0.977200  0.181300  1.0
  H  H1492  1  0.522800  0.867800  0.318700  1.0
  H  H1493  1  0.867800  0.290700  0.318700  1.0
  H  H1494  1  0.290700  0.522800  0.318700  1.0
  H  H1495  1  0.790700  0.367800  0.818700  1.0
  H  H1496  1  0.022800  0.790700  0.818700  1.0
  H  H1497  1  0.367800  0.022800  0.818700  1.0
  H  H1498  1  0.477200  0.132200  0.681300  1.0
  H  H1499  1  0.132200  0.709300  0.681300  1.0
  H  H1500  1  0.709300  0.477200  0.681300  1.0
  H  H1501  1  0.220500  0.613000  0.205300  1.0
  H  H1502  1  0.961200  0.220500  0.205300  1.0
  H  H1503  1  0.613000  0.961200  0.205300  1.0
  H  H1504  1  0.538800  0.887000  0.294700  1.0
  H  H1505  1  0.887000  0.279500  0.294700  1.0
  H  H1506  1  0.279500  0.538800  0.294700  1.0
  H  H1507  1  0.779500  0.387000  0.794700  1.0
  H  H1508  1  0.038800  0.779500  0.794700  1.0
  H  H1509  1  0.387000  0.038800  0.794700  1.0
  H  H1510  1  0.461200  0.113000  0.705300  1.0
  H  H1511  1  0.113000  0.720500  0.705300  1.0
  H  H1512  1  0.720500  0.461200  0.705300  1.0
  H  H1513  1  0.507100  0.667600  0.162700  1.0
  H  H1514  1  0.662600  0.507100  0.162700  1.0
  H  H1515  1  0.667600  0.662600  0.162700  1.0
  H  H1516  1  0.837400  0.832400  0.337300  1.0
  H  H1517  1  0.832400  0.992900  0.337300  1.0
  H  H1518  1  0.992900  0.837400  0.337300  1.0
  H  H1519  1  0.492900  0.332400  0.837300  1.0
  H  H1520  1  0.337400  0.492900  0.837300  1.0
  H  H1521  1  0.332400  0.337400  0.837300  1.0
  H  H1522  1  0.162600  0.167600  0.662700  1.0
  H  H1523  1  0.167600  0.007100  0.662700  1.0
  H  H1524  1  0.007100  0.162600  0.662700  1.0
  H  H1525  1  0.544700  0.613500  0.182500  1.0
  H  H1526  1  0.659300  0.544700  0.182500  1.0
  H  H1527  1  0.613500  0.659300  0.182500  1.0
  H  H1528  1  0.840700  0.886500  0.317500  1.0
  H  H1529  1  0.886500  0.955300  0.317500  1.0
  H  H1530  1  0.955300  0.840700  0.317500  1.0
  H  H1531  1  0.455300  0.386500  0.817500  1.0
  H  H1532  1  0.340700  0.455300  0.817500  1.0
  H  H1533  1  0.386500  0.340700  0.817500  1.0
  H  H1534  1  0.159300  0.113500  0.682500  1.0
  H  H1535  1  0.113500  0.044700  0.682500  1.0
  H  H1536  1  0.044700  0.159300  0.682500  1.0
  H  H1537  1  0.489100  0.701400  0.184300  1.0
  H  H1538  1  0.625200  0.489100  0.184300  1.0
  H  H1539  1  0.701400  0.625200  0.184300  1.0
  H  H1540  1  0.874800  0.798600  0.315700  1.0
  H  H1541  1  0.798600  0.010900  0.315700  1.0
  H  H1542  1  0.010900  0.874800  0.315700  1.0
  H  H1543  1  0.510900  0.298600  0.815700  1.0
  H  H1544  1  0.374800  0.510900  0.815700  1.0
  H  H1545  1  0.298600  0.374800  0.815700  1.0
  H  H1546  1  0.125200  0.201400  0.684300  1.0
  H  H1547  1  0.201400  0.989100  0.684300  1.0
  H  H1548  1  0.989100  0.125200  0.684300  1.0
  H  H1549  1  0.510200  0.579700  0.221800  1.0
  H  H1550  1  0.688300  0.510200  0.221800  1.0
  H  H1551  1  0.579700  0.688300  0.221800  1.0
  H  H1552  1  0.811700  0.920300  0.278200  1.0
  H  H1553  1  0.920300  0.989800  0.278200  1.0
  H  H1554  1  0.989800  0.811700  0.278200  1.0
  H  H1555  1  0.489800  0.420300  0.778200  1.0
  H  H1556  1  0.311700  0.489800  0.778200  1.0
  H  H1557  1  0.420300  0.311700  0.778200  1.0
  H  H1558  1  0.188300  0.079700  0.721800  1.0
  H  H1559  1  0.079700  0.010200  0.721800  1.0
  H  H1560  1  0.010200  0.188300  0.721800  1.0
  H  H1561  1  0.307300  0.767700  0.223300  1.0
  H  H1562  1  0.701700  0.307300  0.223300  1.0
  H  H1563  1  0.767700  0.701700  0.223300  1.0
  H  H1564  1  0.798300  0.732300  0.276700  1.0
  H  H1565  1  0.732300  0.192700  0.276700  1.0
  H  H1566  1  0.192700  0.798300  0.276700  1.0
  H  H1567  1  0.692700  0.232300  0.776700  1.0
  H  H1568  1  0.298300  0.692700  0.776700  1.0
  H  H1569  1  0.232300  0.298300  0.776700  1.0
  H  H1570  1  0.201700  0.267700  0.723300  1.0
  H  H1571  1  0.267700  0.807300  0.723300  1.0
  H  H1572  1  0.807300  0.201700  0.723300  1.0
  H  H1573  1  0.339900  0.801300  0.251200  1.0
  H  H1574  1  0.607600  0.339900  0.251200  1.0
  H  H1575  1  0.801300  0.607600  0.251200  1.0
  H  H1576  1  0.892400  0.698700  0.248800  1.0
  H  H1577  1  0.698700  0.160100  0.248800  1.0
  H  H1578  1  0.160100  0.892400  0.248800  1.0
  H  H1579  1  0.660100  0.198700  0.748800  1.0
  H  H1580  1  0.392400  0.660100  0.748800  1.0
  H  H1581  1  0.198700  0.392400  0.748800  1.0
  H  H1582  1  0.107600  0.301300  0.751200  1.0
  H  H1583  1  0.301300  0.839900  0.751200  1.0
  H  H1584  1  0.839900  0.107600  0.751200  1.0
  H  H1585  1  0.388200  0.830200  0.274000  1.0
  H  H1586  1  0.507600  0.388200  0.274000  1.0
  H  H1587  1  0.830200  0.507600  0.274000  1.0
  H  H1588  1  0.992400  0.669800  0.226000  1.0
  H  H1589  1  0.669800  0.111800  0.226000  1.0
  H  H1590  1  0.111800  0.992400  0.226000  1.0
  H  H1591  1  0.611800  0.169800  0.726000  1.0
  H  H1592  1  0.492400  0.611800  0.726000  1.0
  H  H1593  1  0.169800  0.492400  0.726000  1.0
  H  H1594  1  0.007600  0.330200  0.774000  1.0
  H  H1595  1  0.330200  0.888200  0.774000  1.0
  H  H1596  1  0.888200  0.007600  0.774000  1.0
  H  H1597  1  0.442600  0.842000  0.301000  1.0
  H  H1598  1  0.414400  0.442600  0.301000  1.0
  H  H1599  1  0.842000  0.414400  0.301000  1.0
  H  H1600  1  0.085600  0.658000  0.199000  1.0
  H  H1601  1  0.658000  0.057400  0.199000  1.0
  H  H1602  1  0.057400  0.085600  0.199000  1.0
  H  H1603  1  0.557400  0.158000  0.699000  1.0
  H  H1604  1  0.585600  0.557400  0.699000  1.0
  H  H1605  1  0.158000  0.585600  0.699000  1.0
  H  H1606  1  0.914400  0.342000  0.801000  1.0
  H  H1607  1  0.342000  0.942600  0.801000  1.0
  H  H1608  1  0.942600  0.914400  0.801000  1.0
  H  H1609  1  0.556400  0.742500  0.311200  1.0
  H  H1610  1  0.389900  0.556400  0.311200  1.0
  H  H1611  1  0.742500  0.389900  0.311200  1.0
  H  H1612  1  0.110100  0.757500  0.188800  1.0
  H  H1613  1  0.757500  0.943600  0.188800  1.0
  H  H1614  1  0.943600  0.110100  0.188800  1.0
  H  H1615  1  0.443600  0.257500  0.688800  1.0
  H  H1616  1  0.610100  0.443600  0.688800  1.0
  H  H1617  1  0.257500  0.610100  0.688800  1.0
  H  H1618  1  0.889900  0.242500  0.811200  1.0
  H  H1619  1  0.242500  0.056400  0.811200  1.0
  H  H1620  1  0.056400  0.889900  0.811200  1.0
  H  H1621  1  0.615500  0.633300  0.294400  1.0
  H  H1622  1  0.456800  0.615500  0.294400  1.0
  H  H1623  1  0.633300  0.456800  0.294400  1.0
  H  H1624  1  0.043200  0.866700  0.205600  1.0
  H  H1625  1  0.866700  0.884500  0.205600  1.0
  H  H1626  1  0.884500  0.043200  0.205600  1.0
  H  H1627  1  0.384500  0.366700  0.705600  1.0
  H  H1628  1  0.543200  0.384500  0.705600  1.0
  H  H1629  1  0.366700  0.543200  0.705600  1.0
  H  H1630  1  0.956800  0.133300  0.794400  1.0
  H  H1631  1  0.133300  0.115500  0.794400  1.0
  H  H1632  1  0.115500  0.956800  0.794400  1.0
  N  N1633  1  0.208780  0.728180  0.069160  1.0
  N  N1634  1  0.993880  0.208780  0.069160  1.0
  N  N1635  1  0.728180  0.993880  0.069160  1.0
  N  N1636  1  0.506120  0.771820  0.430840  1.0
  N  N1637  1  0.771820  0.291220  0.430840  1.0
  N  N1638  1  0.291220  0.506120  0.430840  1.0
  N  N1639  1  0.791220  0.271820  0.930840  1.0
  N  N1640  1  0.006120  0.791220  0.930840  1.0
  N  N1641  1  0.271820  0.006120  0.930840  1.0
  N  N1642  1  0.493880  0.228180  0.569160  1.0
  N  N1643  1  0.228180  0.708780  0.569160  1.0
  N  N1644  1  0.708780  0.493880  0.569160  1.0
  N  N1645  1  0.343470  0.627560  0.075790  1.0
  N  N1646  1  0.953180  0.343470  0.075790  1.0
  N  N1647  1  0.627560  0.953180  0.075790  1.0
  N  N1648  1  0.546820  0.872440  0.424210  1.0
  N  N1649  1  0.872440  0.156530  0.424210  1.0
  N  N1650  1  0.156530  0.546820  0.424210  1.0
  N  N1651  1  0.656530  0.372440  0.924210  1.0
  N  N1652  1  0.046820  0.656530  0.924210  1.0
  N  N1653  1  0.372440  0.046820  0.924210  1.0
  N  N1654  1  0.453180  0.127560  0.575790  1.0
  N  N1655  1  0.127560  0.843470  0.575790  1.0
  N  N1656  1  0.843470  0.453180  0.575790  1.0
  N  N1657  1  0.887260  0.261460  0.100420  1.0
  N  N1658  1  0.750860  0.887260  0.100420  1.0
  N  N1659  1  0.261460  0.750860  0.100420  1.0
  N  N1660  1  0.749140  0.238540  0.399580  1.0
  N  N1661  1  0.238540  0.612740  0.399580  1.0
  N  N1662  1  0.612740  0.749140  0.399580  1.0
  N  N1663  1  0.112740  0.738540  0.899580  1.0
  N  N1664  1  0.249140  0.112740  0.899580  1.0
  N  N1665  1  0.738540  0.249140  0.899580  1.0
  N  N1666  1  0.250860  0.761460  0.600420  1.0
  N  N1667  1  0.761460  0.387260  0.600420  1.0
  N  N1668  1  0.387260  0.250860  0.600420  1.0
  N  N1669  1  0.016600  0.160300  0.112000  1.0
  N  N1670  1  0.711100  0.016600  0.112000  1.0
  N  N1671  1  0.160300  0.711100  0.112000  1.0
  N  N1672  1  0.788900  0.339700  0.388000  1.0
  N  N1673  1  0.339700  0.483400  0.388000  1.0
  N  N1674  1  0.483400  0.788900  0.388000  1.0
  N  N1675  1  0.983400  0.839700  0.888000  1.0
  N  N1676  1  0.288900  0.983400  0.888000  1.0
  N  N1677  1  0.839700  0.288900  0.888000  1.0
  N  N1678  1  0.211100  0.660300  0.612000  1.0
  N  N1679  1  0.660300  0.516600  0.612000  1.0
  N  N1680  1  0.516600  0.211100  0.612000  1.0
  N  N1681  1  0.242840  0.583600  0.088540  1.0
  N  N1682  1  0.085020  0.242840  0.088540  1.0
  N  N1683  1  0.583600  0.085020  0.088540  1.0
  N  N1684  1  0.414980  0.916400  0.411460  1.0
  N  N1685  1  0.916400  0.257160  0.411460  1.0
  N  N1686  1  0.257160  0.414980  0.411460  1.0
  N  N1687  1  0.757160  0.416400  0.911460  1.0
  N  N1688  1  0.914980  0.757160  0.911460  1.0
  N  N1689  1  0.416400  0.914980  0.911460  1.0
  N  N1690  1  0.585020  0.083600  0.588540  1.0
  N  N1691  1  0.083600  0.742840  0.588540  1.0
  N  N1692  1  0.742840  0.585020  0.588540  1.0
  N  N1693  1  0.298110  0.602990  0.118000  1.0
  N  N1694  1  0.980900  0.298110  0.118000  1.0
  N  N1695  1  0.602990  0.980900  0.118000  1.0
  N  N1696  1  0.519100  0.897010  0.382000  1.0
  N  N1697  1  0.897010  0.201890  0.382000  1.0
  N  N1698  1  0.201890  0.519100  0.382000  1.0
  N  N1699  1  0.701890  0.397010  0.882000  1.0
  N  N1700  1  0.019100  0.701890  0.882000  1.0
  N  N1701  1  0.397010  0.019100  0.882000  1.0
  N  N1702  1  0.480900  0.102990  0.618000  1.0
  N  N1703  1  0.102990  0.798110  0.618000  1.0
  N  N1704  1  0.798110  0.480900  0.618000  1.0
  N  N1705  1  0.493700  0.643510  0.244000  1.0
  N  N1706  1  0.618790  0.493700  0.244000  1.0
  N  N1707  1  0.643510  0.618790  0.244000  1.0
  N  N1708  1  0.881210  0.856490  0.256000  1.0
  N  N1709  1  0.856490  0.006300  0.256000  1.0
  N  N1710  1  0.006300  0.881210  0.256000  1.0
  N  N1711  1  0.506300  0.356490  0.756000  1.0
  N  N1712  1  0.381210  0.506300  0.756000  1.0
  N  N1713  1  0.356490  0.381210  0.756000  1.0
  N  N1714  1  0.118790  0.143510  0.744000  1.0
  N  N1715  1  0.143510  0.993700  0.744000  1.0
  N  N1716  1  0.993700  0.118790  0.744000  1.0
  N  N1717  1  0.537260  0.666340  0.275020  1.0
  N  N1718  1  0.521380  0.537260  0.275020  1.0
  N  N1719  1  0.666340  0.521380  0.275020  1.0
  N  N1720  1  0.978620  0.833660  0.224980  1.0
  N  N1721  1  0.833660  0.962740  0.224980  1.0
  N  N1722  1  0.962740  0.978620  0.224980  1.0
  N  N1723  1  0.462740  0.333660  0.724980  1.0
  N  N1724  1  0.478620  0.462740  0.724980  1.0
  N  N1725  1  0.333660  0.478620  0.724980  1.0
  N  N1726  1  0.021380  0.166340  0.775020  1.0
  N  N1727  1  0.166340  0.037260  0.775020  1.0
  N  N1728  1  0.037260  0.021380  0.775020  1.0
  P  P1729  1  0.294280  0.749090  0.319690  1
  P  P1730  1  0.636940  0.294280  0.319690  1
  P  P1731  1  0.749090  0.636940  0.319690  1
  P  P1732  1  0.863060  0.750910  0.180310  1
  P  P1733  1  0.750910  0.205720  0.180310  1
  P  P1734  1  0.205720  0.863060  0.180310  1
  P  P1735  1  0.705720  0.250910  0.680310  1
  P  P1736  1  0.363060  0.705720  0.680310  1
  P  P1737  1  0.250910  0.363060  0.680310  1
  P  P1738  1  0.136940  0.249090  0.819690  1
  P  P1739  1  0.249090  0.794280  0.819690  1
  P  P1740  1  0.794280  0.136940  0.819690  1
  P  P1741  1  0.501220  0.291580  0.130060  1
  P  P1742  1  0.077140  0.501220  0.130060  1
  P  P1743  1  0.291580  0.077140  0.130060  1
  P  P1744  1  0.422860  0.208420  0.369940  1
  P  P1745  1  0.208420  0.998780  0.369940  1
  P  P1746  1  0.998780  0.422860  0.369940  1
  P  P1747  1  0.498780  0.708420  0.869940  1
  P  P1748  1  0.922860  0.498780  0.869940  1
  P  P1749  1  0.708420  0.922860  0.869940  1
  P  P1750  1  0.577140  0.791580  0.630060  1
  P  P1751  1  0.791580  0.001220  0.630060  1
  P  P1752  1  0.001220  0.577140  0.630060  1
  P  P1753  1  0.137570  0.627400  0.015790  1
  P  P1754  1  0.219240  0.137570  0.015790  1
  P  P1755  1  0.627400  0.219240  0.015790  1
  P  P1756  1  0.280760  0.872600  0.484210  1
  P  P1757  1  0.872600  0.362430  0.484210  1
  P  P1758  1  0.362430  0.280760  0.484210  1
  P  P1759  1  0.862430  0.372600  0.984210  1
  P  P1760  1  0.780760  0.862430  0.984210  1
  P  P1761  1  0.372600  0.780760  0.984210  1
  P  P1762  1  0.719240  0.127400  0.515790  1
  P  P1763  1  0.127400  0.637570  0.515790  1
  P  P1764  1  0.637570  0.719240  0.515790  1
  P  P1765  1  0.000033  0.999967  1.000000  1
  P  P1766  1  0.500000  0.500033  0.500000  1
  P  P1767  1  0.250000  0.995300  0.250000  1
  P  P1768  1  0.504700  0.250000  0.250000  1
  P  P1769  1  0.995300  0.504700  0.250000  1
  P  P1770  1  0.750000  0.004700  0.750000  1
  P  P1771  1  0.495300  0.750000  0.750000  1
  P  P1772  1  0.004700  0.495300  0.750000  1
  P  P1773  1  0.967087  0.967087  0.098740  1
  P  P1774  1  0.532913  0.532913  0.401260  1
  P  P1775  1  0.032913  0.032913  0.901260  1
  P  P1776  1  0.467087  0.467087  0.598740  1
