
#######################################################################
#
#                 Cambridge Crystallographic Data Centre
#                                CCDC 
#
#######################################################################
#
# If this CIF has been generated from an entry in the Cambridge 
# Structural Database, then it will include bibliographic, chemical, 
# crystal, experimental, refinement or atomic coordinate data resulting 
# from the CCDC's data processing and validation procedures.
#
#######################################################################

data_OVASAH
_chemical_formula_moiety         
'C78 H54 Co2 N12 6+,7(C2 H3 N1),6(B1 F4 1-),0.5(H2 O1)'
_chemical_name_systematic        
"tris(\m-5,5'-(1,4-phenylene)bis(2,2'-bipyridine))-di-cobalt(iii) hexakis(tetrafluoroborate) acetonitrile solvate hemihydrate"
_symmetry_cell_setting           triclinic
_symmetry_space_group_name_H-M   'P -1'
_symmetry_Int_Tables_number      2
_space_group_name_Hall           '-P 1'
loop_
_symmetry_equiv_pos_site_id
_symmetry_equiv_pos_as_xyz
1 x,y,z
2 -x,-y,-z
_cell_length_a                   15.00712(20)
_cell_length_b                   16.8669(2)
_cell_length_c                   20.4390(3)
_cell_angle_alpha                73.1727(12)
_cell_angle_beta                 68.6423(12)
_cell_angle_gamma                80.3164(11)
_cell_volume                     4600.53
_exptl_crystal_colour            yellow
_exptl_crystal_description       block
_cell_formula_units_Z            2
_exptl_crystal_recrystallization_method 'acetonitrile / diisopropyl ether'
loop_
_atom_site_label
_atom_site_type_symbol
_atom_site_fract_x
_atom_site_fract_y
_atom_site_fract_z
Co1 Co 0.18292(2) 0.21931(2) 0.46170(2)
Co2 Co 0.69821(2) 0.73492(2) 0.10763(2)
N1 N 0.07088(13) 0.23314(11) 0.54382(10)
N2 N 0.24249(13) 0.27738(11) 0.50206(10)
N3 N 0.82384(14) 0.71056(11) 0.04313(10)
N4 N 0.73143(13) 0.63617(11) 0.17347(10)
N5 N 0.11367(13) 0.17097(12) 0.42127(10)
N6 N 0.14321(13) 0.32216(12) 0.40358(10)
N7 N 0.74222(13) 0.80128(11) 0.15077(10)
N8 N 0.57508(13) 0.75439(11) 0.17840(10)
N9 N 0.22596(13) 0.11390(12) 0.51441(10)
N10 N 0.30205(13) 0.20263(11) 0.38540(10)
N11 N 0.66497(13) 0.82855(11) 0.03809(10)
N12 N 0.64393(13) 0.67312(11) 0.06707(10)
C1 C -0.01685(16) 0.20660(14) 0.56148(13)
H1 H -0.0283 0.1808 0.5300
C2 C -0.09066(17) 0.21597(15) 0.62421(13)
H2 H -0.1515 0.1961 0.6357
C3 C -0.07520(17) 0.25444(16) 0.66991(14)
H3 H -0.1251 0.2611 0.7132
C4 C 0.01470(17) 0.28345(16) 0.65162(13)
H4 H 0.0269 0.3105 0.6821
C5 C 0.08605(16) 0.27217(14) 0.58820(12)
C6 C 0.18240(16) 0.30127(14) 0.56232(12)
C7 C 0.21008(17) 0.35378(15) 0.59126(12)
H5 H 0.1684 0.3676 0.6348
C8 C 0.29927(17) 0.38602(15) 0.55605(12)
H6 H 0.3180 0.4242 0.5741
C9 C 0.36184(16) 0.36214(14) 0.49366(12)
C10 C 0.33072(15) 0.30542(13) 0.47064(11)
H7 H 0.3740 0.2854 0.4307
C11 C 0.45367(15) 0.39991(14) 0.44751(11)
C12 C 0.53079(16) 0.35370(14) 0.40850(13)
H8 H 0.5282 0.2955 0.4177
C13 C 0.61084(16) 0.39224(14) 0.35659(13)
H9 H 0.6627 0.3602 0.3306
C14 C 0.61562(15) 0.47822(14) 0.34224(12)
C15 C 0.54093(16) 0.52319(14) 0.38434(12)
H10 H 0.5451 0.5808 0.3772
C16 C 0.46067(16) 0.48464(14) 0.43647(12)
H11 H 0.4106 0.5160 0.4646
C17 C 0.86501(17) 0.75373(15) -0.02553(13)
H12 H 0.8314 0.8021 -0.0453
C18 C 0.95542(18) 0.72945(17) -0.06838(14)
H13 H 0.9829 0.7608 -0.1168
C19 C 1.00495(17) 0.65937(16) -0.03999(13)
H14 H 1.0672 0.6423 -0.0684
C20 C 0.96244(16) 0.61432(15) 0.03059(13)
H15 H 0.9951 0.5658 0.0511
C21 C 0.87178(16) 0.64087(13) 0.07085(12)
C22 C 0.81757(15) 0.59731(13) 0.14483(12)
C23 C 0.84553(16) 0.51995(14) 0.18219(13)
H16 H 0.9071 0.4941 0.1622
C24 C 0.78327(17) 0.48067(14) 0.24866(13)
H17 H 0.8015 0.4275 0.2742
C25 C 0.69305(16) 0.51998(14) 0.27805(12)
C26 C 0.67210(15) 0.59907(13) 0.23911(12)
H18 H 0.6133 0.6282 0.2598
C27 C 0.10718(17) 0.08939(14) 0.43064(13)
H19 H 0.1433 0.0499 0.4566
C28 C 0.04948(19) 0.06139(16) 0.40348(14)
H20 H 0.0470 0.0036 0.4100
C29 C -0.00471(18) 0.11905(16) 0.36646(14)
H21 H -0.0469 0.1011 0.3494
C30 C 0.00358(17) 0.20316(16) 0.35476(13)
H22 H -0.0319 0.2435 0.3288
C31 C 0.06459(16) 0.22736(14) 0.38164(12)
C32 C 0.08563(15) 0.31323(14) 0.36845(12)
C33 C 0.05814(17) 0.38059(15) 0.31977(13)
H23 H 0.0148 0.3742 0.2978
C34 C 0.09423(17) 0.45687(15) 0.30352(13)
H24 H 0.0773 0.5027 0.2693
C35 C 0.15588(15) 0.46577(14) 0.33808(12)
C36 C 0.17489(15) 0.39737(14) 0.38981(12)
H25 H 0.2119 0.4040 0.4167
C37 C 0.20952(15) 0.54009(13) 0.31774(12)
C38 C 0.22780(16) 0.56681(14) 0.37003(12)
H26 H 0.1974 0.5424 0.4200
C39 C 0.28992(16) 0.62858(14) 0.34944(12)
H27 H 0.3007 0.6470 0.3855
C40 C 0.33692(15) 0.66406(13) 0.27594(12)
C41 C 0.31562(16) 0.63956(14) 0.22380(12)
H28 H 0.3450 0.6648 0.1738
C42 C 0.25202(16) 0.57878(14) 0.24429(12)
H29 H 0.2373 0.5634 0.2084
C43 C 0.83306(16) 0.81856(14) 0.13431(13)
H30 H 0.8821 0.7989 0.0964
C44 C 0.85723(18) 0.86444(16) 0.17120(15)
H31 H 0.9222 0.8752 0.1593
C45 C 0.7853(2) 0.89440(17) 0.22561(15)
H32 H 0.8004 0.9262 0.2512
C46 C 0.69114(19) 0.87751(16) 0.24234(14)
H33 H 0.6408 0.8985 0.2788
C47 C 0.67161(16) 0.82965(14) 0.20516(12)
C48 C 0.57720(16) 0.80086(13) 0.22193(12)
C49 C 0.49722(17) 0.81190(15) 0.28104(13)
H34 H 0.4980 0.8477 0.3091
C50 C 0.41641(17) 0.77013(14) 0.29860(13)
H35 H 0.3624 0.7756 0.3400
C51 C 0.41422(15) 0.72000(13) 0.25546(12)
C52 C 0.49469(16) 0.71686(13) 0.19415(12)
H36 H 0.4927 0.6868 0.1620
C53 C 0.18142(16) 0.07314(14) 0.58347(12)
H37 H 0.1219 0.0965 0.6103
C54 C 0.21933(17) -0.00151(15) 0.61665(13)
H38 H 0.1859 -0.0290 0.6653
C55 C 0.30671(18) -0.03579(15) 0.57818(13)
H39 H 0.3340 -0.0870 0.5999
C56 C 0.35355(17) 0.00643(14) 0.50713(13)
H40 H 0.4134 -0.0157 0.4796
C57 C 0.31215(16) 0.08106(13) 0.47686(12)
C58 C 0.35624(16) 0.13268(13) 0.40377(12)
C59 C 0.44826(17) 0.11638(14) 0.35736(13)
H41 H 0.4838 0.0654 0.3695
C60 C 0.48732(17) 0.17528(14) 0.29338(13)
H42 H 0.5505 0.1655 0.2620
C61 C 0.43334(16) 0.24913(14) 0.27524(12)
C62 C 0.33924(16) 0.25833(14) 0.32230(12)
H43 H 0.2999 0.3062 0.3090
C63 C 0.47249(16) 0.32055(13) 0.21432(11)
C64 C 0.41249(17) 0.37774(14) 0.18166(12)
H44 H 0.3482 0.3658 0.1928
C65 C 0.44601(16) 0.45157(14) 0.13326(12)
H45 H 0.4043 0.4903 0.1120
C66 C 0.54121(16) 0.46958(13) 0.11545(11)
C67 C 0.60281(16) 0.41044(14) 0.14473(12)
H46 H 0.6682 0.4208 0.1311
C68 C 0.56888(16) 0.33634(14) 0.19371(12)
H47 H 0.6113 0.2964 0.2132
C69 C 0.67725(17) 0.90860(14) 0.02928(13)
H48 H 0.7096 0.9221 0.0564
C70 C 0.64370(18) 0.97178(15) -0.01850(14)
H49 H 0.6523 1.0280 -0.0234
C71 C 0.59762(17) 0.95276(14) -0.05909(13)
H50 H 0.5752 0.9956 -0.0925
C72 C 0.58461(17) 0.87010(14) -0.05031(12)
H51 H 0.5531 0.8555 -0.0775
C73 C 0.61860(15) 0.80942(13) -0.00103(12)
C74 C 0.60474(15) 0.72077(13) 0.01673(11)
C75 C 0.55076(17) 0.68644(14) -0.00934(12)
H52 H 0.5272 0.7193 -0.0468
C76 C 0.53166(17) 0.60356(14) 0.01997(12)
H53 H 0.4927 0.5799 0.0039
C77 C 0.56972(16) 0.55447(13) 0.07322(12)
C78 C 0.62835(15) 0.59187(13) 0.09282(12)
H54 H 0.6589 0.5586 0.1259
F1 F -0.07203(11) 0.66453(10) 0.21803(9)
F2 F 0.02915(11) 0.72293(10) 0.10566(9)
F3 F 0.08467(11) 0.67474(11) 0.20097(9)
F4 F 0.04510(13) 0.58317(10) 0.15489(9)
B1 B 0.0219(2) 0.66132(18) 0.16992(15)
F5 F 0.57114(14) 1.15318(12) 0.12000(12)
F6 F 0.64886(18) 1.06777(15) 0.19331(13)
F7 F 0.69991(14) 1.06613(15) 0.07521(12)
F8 F 0.55827(14) 1.01314(13) 0.14905(12)
B2 B 0.61905(19) 1.07513(18) 0.13723(17)
F9 F 0.8892(3) 0.4691(3) 0.4498(2)
F10 F 0.8487(4) 0.4269(7) 0.3712(3)
F11 F 0.8776(3) 0.3336(2) 0.4678(3)
F12 F 0.74367(13) 0.41508(13) 0.48259(10)
B3 B 0.8396(2) 0.4079(2) 0.43926(18)
F16 F 0.8690(3) 0.2908(2) 0.2548(3)
F17 F 0.88359(17) 0.16096(14) 0.23992(15)
F18 F 0.7292(2) 0.2137(2) 0.29437(15)
F19 F 0.80806(18) 0.2705(2) 0.17770(13)
B4 B 0.82132(15) 0.23536(14) 0.24010(11)
F20 F 0.47648(13) 0.22572(9) 0.57164(9)
F21 F 0.48730(11) 0.08479(9) 0.60767(8)
F22 F 0.48784(12) 0.14969(10) 0.49254(8)
F23 F 0.35082(11) 0.15377(10) 0.58921(9)
B5 B 0.4497(2) 0.15412(17) 0.56521(15)
F24 F 0.2060(2) 0.22066(15) 0.14690(14)
F25 F 0.21204(18) 0.14999(13) 0.25814(12)
F26 F 0.34105(16) 0.21451(16) 0.17311(13)
F27 F 0.20947(13) 0.29080(11) 0.22709(10)
B6 B 0.2398(3) 0.2192(2) 0.2011(2)
O1 O 0.9651(4) 0.5517(3) 0.4792(3)
H55 H 0.9837 0.4961 0.4704
H56 H 1.0126 0.5481 0.5058
N13 N -0.02113(19) -0.05971(18) 0.25658(15)
C79 C 0.0319(2) -0.00932(18) 0.22984(15)
C80 C 0.0987(2) 0.05598(19) 0.19585(19)
H57 H 0.1438 0.0467 0.1496
H58 H 0.1342 0.0552 0.2279
H59 H 0.0630 0.1100 0.1871
N14 N 0.17655(16) 0.51256(15) -0.02514(13)
C81 C 0.18293(18) 0.47884(16) 0.03041(15)
C82 C 0.1917(3) 0.4348(2) 0.10036(17)
H60 H 0.2583 0.4129 0.0939
H61 H 0.1495 0.3888 0.1224
H62 H 0.1733 0.4730 0.1320
N15 N 0.3050(2) 0.6070(2) 0.05802(16)
C83 C 0.2753(2) 0.65841(18) 0.02015(15)
C84 C 0.2360(2) 0.7241(2) -0.02770(17)
H63 H 0.2404 0.7054 -0.0700
H64 H 0.2725 0.7734 -0.0438
H65 H 0.1687 0.7380 -0.0017
N16 N 0.3841(2) 0.81020(19) 0.08450(17)
C85 C 0.3034(2) 0.82586(17) 0.09804(17)
C86 C 0.2006(2) 0.8474(2) 0.1162(2)
H66 H 0.1879 0.8889 0.0752
H67 H 0.1773 0.8702 0.1590
H68 H 0.1674 0.7976 0.1266
N17 N 1.0830(3) 1.0470(3) 0.0337(2)
C87 C 1.0028(3) 1.0648(2) 0.0559(2)
C88 C 0.9009(3) 1.0881(3) 0.0864(4)
H69 H 0.8649 1.0687 0.0632
H70 H 0.8910 1.1487 0.0779
H71 H 0.8783 1.0627 0.1387
N18 N 0.8122(2) 0.11031(17) 0.54107(16)
C89 C 0.7684(2) 0.15884(18) 0.51119(16)
C90 C 0.7122(2) 0.2201(2) 0.4729(2)
H72 H 0.7431 0.2265 0.4206
H73 H 0.7080 0.2735 0.4843
H74 H 0.6475 0.2017 0.4881
N19 N 0.2624(2) -0.08444(19) 0.24589(18)
C91 C 0.3023(2) -0.04657(19) 0.26332(18)
C92 C 0.3536(2) 0.0006(2) 0.2857(2)
H75 H 0.4198 0.0045 0.2523
H76 H 0.3535 -0.0275 0.3349
H77 H 0.3219 0.0564 0.2850
loop_
_geom_bond_atom_site_label_1
_geom_bond_atom_site_label_2
_geom_bond_site_symmetry_1
_geom_bond_site_symmetry_2
Co1 N1 1_555 1_555
Co2 N3 1_555 1_555
N1 C1 1_555 1_555
N2 Co1 1_555 1_555
N3 C17 1_555 1_555
N4 Co2 1_555 1_555
N5 Co1 1_555 1_555
N6 Co1 1_555 1_555
N7 Co2 1_555 1_555
N8 Co2 1_555 1_555
N9 Co1 1_555 1_555
N10 Co1 1_555 1_555
N11 Co2 1_555 1_555
N12 Co2 1_555 1_555
C1 H1 1_555 1_555
C2 C1 1_555 1_555
H2 C2 1_555 1_555
C3 C2 1_555 1_555
H3 C3 1_555 1_555
C4 C3 1_555 1_555
H4 C4 1_555 1_555
C5 N1 1_555 1_555
C6 N2 1_555 1_555
C7 C6 1_555 1_555
H5 C7 1_555 1_555
C8 C7 1_555 1_555
H6 C8 1_555 1_555
C9 C8 1_555 1_555
C10 N2 1_555 1_555
H7 C10 1_555 1_555
C11 C9 1_555 1_555
C12 C11 1_555 1_555
H8 C12 1_555 1_555
C13 C12 1_555 1_555
H9 C13 1_555 1_555
C14 C13 1_555 1_555
C15 C14 1_555 1_555
H10 C15 1_555 1_555
C16 C11 1_555 1_555
H11 C16 1_555 1_555
C17 H12 1_555 1_555
C18 C17 1_555 1_555
H13 C18 1_555 1_555
C19 C18 1_555 1_555
H14 C19 1_555 1_555
C20 C19 1_555 1_555
H15 C20 1_555 1_555
C21 N3 1_555 1_555
C22 N4 1_555 1_555
C23 C22 1_555 1_555
H16 C23 1_555 1_555
C24 C23 1_555 1_555
H17 C24 1_555 1_555
C25 C14 1_555 1_555
C26 N4 1_555 1_555
H18 C26 1_555 1_555
C27 N5 1_555 1_555
H19 C27 1_555 1_555
C28 C27 1_555 1_555
H20 C28 1_555 1_555
C29 C28 1_555 1_555
H21 C29 1_555 1_555
C30 C29 1_555 1_555
H22 C30 1_555 1_555
C31 N5 1_555 1_555
C32 N6 1_555 1_555
C33 C32 1_555 1_555
H23 C33 1_555 1_555
C34 C33 1_555 1_555
H24 C34 1_555 1_555
C35 C34 1_555 1_555
C36 N6 1_555 1_555
H25 C36 1_555 1_555
C37 C35 1_555 1_555
C38 C37 1_555 1_555
H26 C38 1_555 1_555
C39 C38 1_555 1_555
H27 C39 1_555 1_555
C40 C39 1_555 1_555
C41 C40 1_555 1_555
H28 C41 1_555 1_555
C42 C37 1_555 1_555
H29 C42 1_555 1_555
C43 N7 1_555 1_555
H30 C43 1_555 1_555
C44 C43 1_555 1_555
H31 C44 1_555 1_555
C45 C44 1_555 1_555
H32 C45 1_555 1_555
C46 C45 1_555 1_555
H33 C46 1_555 1_555
C47 N7 1_555 1_555
C48 N8 1_555 1_555
C49 C48 1_555 1_555
H34 C49 1_555 1_555
C50 C49 1_555 1_555
H35 C50 1_555 1_555
C51 C40 1_555 1_555
C52 N8 1_555 1_555
H36 C52 1_555 1_555
C53 N9 1_555 1_555
H37 C53 1_555 1_555
C54 C53 1_555 1_555
H38 C54 1_555 1_555
C55 C54 1_555 1_555
H39 C55 1_555 1_555
C56 C55 1_555 1_555
H40 C56 1_555 1_555
C57 N9 1_555 1_555
C58 N10 1_555 1_555
C59 C58 1_555 1_555
H41 C59 1_555 1_555
C60 C59 1_555 1_555
H42 C60 1_555 1_555
C61 C60 1_555 1_555
C62 N10 1_555 1_555
H43 C62 1_555 1_555
C63 C61 1_555 1_555
C64 C63 1_555 1_555
H44 C64 1_555 1_555
C65 C64 1_555 1_555
H45 C65 1_555 1_555
C66 C65 1_555 1_555
C67 C66 1_555 1_555
H46 C67 1_555 1_555
C68 C63 1_555 1_555
H47 C68 1_555 1_555
C69 N11 1_555 1_555
H48 C69 1_555 1_555
C70 C69 1_555 1_555
H49 C70 1_555 1_555
C71 C70 1_555 1_555
H50 C71 1_555 1_555
C72 C71 1_555 1_555
H51 C72 1_555 1_555
C73 N11 1_555 1_555
C74 N12 1_555 1_555
C75 C74 1_555 1_555
H52 C75 1_555 1_555
C76 C75 1_555 1_555
H53 C76 1_555 1_555
C77 C66 1_555 1_555
C78 N12 1_555 1_555
H54 C78 1_555 1_555
F1 B1 1_555 1_555
F2 B1 1_555 1_555
F3 B1 1_555 1_555
F4 B1 1_555 1_555
F5 B2 1_555 1_555
F6 B2 1_555 1_555
F7 B2 1_555 1_555
F8 B2 1_555 1_555
F9 B3 1_555 1_555
F10 B3 1_555 1_555
F11 B3 1_555 1_555
F12 B3 1_555 1_555
F16 B4 1_555 1_555
F17 B4 1_555 1_555
F18 B4 1_555 1_555
F19 B4 1_555 1_555
F20 B5 1_555 1_555
F21 B5 1_555 1_555
F22 B5 1_555 1_555
F23 B5 1_555 1_555
F24 B6 1_555 1_555
F25 B6 1_555 1_555
F26 B6 1_555 1_555
F27 B6 1_555 1_555
O1 H55 1_555 1_555
H56 O1 1_555 1_555
N13 C79 1_555 1_555
C79 C80 1_555 1_555
C80 H57 1_555 1_555
H58 C80 1_555 1_555
H59 C80 1_555 1_555
N14 C81 1_555 1_555
C81 C82 1_555 1_555
C82 H60 1_555 1_555
H61 C82 1_555 1_555
H62 C82 1_555 1_555
N15 C83 1_555 1_555
C83 C84 1_555 1_555
C84 H63 1_555 1_555
H64 C84 1_555 1_555
H65 C84 1_555 1_555
N16 C85 1_555 1_555
C85 C86 1_555 1_555
C86 H66 1_555 1_555
H67 C86 1_555 1_555
H68 C86 1_555 1_555
N17 C87 1_555 1_555
C87 C88 1_555 1_555
C88 H69 1_555 1_555
H70 C88 1_555 1_555
H71 C88 1_555 1_555
N18 C89 1_555 1_555
C89 C90 1_555 1_555
C90 H72 1_555 1_555
H73 C90 1_555 1_555
H74 C90 1_555 1_555
N19 C91 1_555 1_555
C91 C92 1_555 1_555
C92 H75 1_555 1_555
H76 C92 1_555 1_555
H77 C92 1_555 1_555
C4 C5 1_555 1_555
C5 C6 1_555 1_555
C9 C10 1_555 1_555
C15 C16 1_555 1_555
C20 C21 1_555 1_555
C21 C22 1_555 1_555
C24 C25 1_555 1_555
C25 C26 1_555 1_555
C30 C31 1_555 1_555
C31 C32 1_555 1_555
C35 C36 1_555 1_555
C41 C42 1_555 1_555
C46 C47 1_555 1_555
C47 C48 1_555 1_555
C50 C51 1_555 1_555
C51 C52 1_555 1_555
C56 C57 1_555 1_555
C57 C58 1_555 1_555
C61 C62 1_555 1_555
C67 C68 1_555 1_555
C72 C73 1_555 1_555
C73 C74 1_555 1_555
C76 C77 1_555 1_555
C77 C78 1_555 1_555

#END
