
#######################################################################
#
#                 Cambridge Crystallographic Data Centre
#                                CCDC 
#
#######################################################################
#
# If this CIF has been generated from an entry in the Cambridge 
# Structural Database, then it will include bibliographic, chemical, 
# crystal, experimental, refinement or atomic coordinate data resulting 
# from the CCDC's data processing and validation procedures.
#
#######################################################################

data_OVASEL
_chemical_formula_moiety         'C168 H132 Co4 N24 12+,12(F6 P1 1-)'
_chemical_name_systematic        
"hexakis(\m-5,5'-(2,5-dimethyl-1,4-phenylene)bis(2,2'-bipyridine))-tetra-cobalt dodecakis(hexafluorophosphate) unknown solvate"
_symmetry_cell_setting           rhombohedral
_symmetry_space_group_name_H-M   'R -3 c'
_symmetry_Int_Tables_number      167
_space_group_name_Hall           '-R 3 2"c'
loop_
_symmetry_equiv_pos_site_id
_symmetry_equiv_pos_as_xyz
1 x,y,z
2 -y,x-y,z
3 -x+y,-x,z
4 y,x,1/2-z
5 x-y,-y,1/2-z
6 -x,-x+y,1/2-z
7 2/3+x,1/3+y,1/3+z
8 2/3-y,1/3+x-y,1/3+z
9 2/3-x+y,1/3-x,1/3+z
10 2/3+y,1/3+x,5/6-z
11 2/3+x-y,1/3-y,5/6-z
12 2/3-x,1/3-x+y,5/6-z
13 1/3+x,2/3+y,2/3+z
14 1/3-y,2/3+x-y,2/3+z
15 1/3-x+y,2/3-x,2/3+z
16 1/3+y,2/3+x,1/6-z
17 1/3+x-y,2/3-y,1/6-z
18 1/3-x,2/3-x+y,1/6-z
19 -x,-y,-z
20 y,-x+y,-z
21 x-y,x,-z
22 -y,-x,1/2+z
23 -x+y,y,1/2+z
24 x,x-y,1/2+z
25 1/3-x,2/3-y,2/3-z
26 1/3+y,2/3-x+y,2/3-z
27 1/3+x-y,2/3+x,2/3-z
28 1/3-y,2/3-x,1/6+z
29 1/3-x+y,2/3+y,1/6+z
30 1/3+x,2/3+x-y,1/6+z
31 2/3-x,1/3-y,1/3-z
32 2/3+y,1/3-x+y,1/3-z
33 2/3+x-y,1/3+x,1/3-z
34 2/3-y,1/3-x,5/6+z
35 2/3-x+y,1/3+y,5/6+z
36 2/3+x,1/3+x-y,5/6+z
_cell_length_a                   20.5996(2)
_cell_length_b                   20.5996(2)
_cell_length_c                   195.2193(18)
_cell_angle_alpha                90
_cell_angle_beta                 90
_cell_angle_gamma                120
_cell_volume                     71741.6
_exptl_crystal_colour            yellow
_exptl_crystal_description       prism
_cell_formula_units_Z            12
_exptl_crystal_recrystallization_method 'acetonitrile /diisopropyl ether'
loop_
_atom_site_label
_atom_site_type_symbol
_atom_site_fract_x
_atom_site_fract_y
_atom_site_fract_z
Co1 Co 1.05003(4) 0.68377(4) 0.69794(2)
Co2 Co 0.6667 0.3333 0.75306(2)
N1 N 1.1015(2) 0.6836(2) 0.68972(2)
N2 N 0.96460(18) 0.64511(19) 0.69193(2)
N3 N 0.4126(2) 0.4510(2) 0.70014(2)
N4 N 0.2794(2) 0.4151(2) 0.70400(2)
N5 N 1.06098(19) 0.7812(2) 0.69618(2)
N6 N 0.99589(18) 0.6869(2) 0.70600(2)
N7 N 0.7583(2) 0.36679(19) 0.74800(2)
N8 N 0.7044(2) 0.27972(19) 0.75834(2)
C1 C 1.1729(3) 0.6996(4) 0.68926(3)
H1 H 1.2031 0.7145 0.6933
C2 C 1.2040(3) 0.6951(4) 0.68314(3)
H2 H 1.2547 0.7064 0.6830
C3 C 1.1612(3) 0.6742(4) 0.67727(2)
H3 H 1.1821 0.6718 0.6730
C4 C 1.0863(3) 0.6565(4) 0.67771(2)
H4 H 1.0552 0.6418 0.6738
C5 C 1.0586(3) 0.6610(3) 0.68402(2)
C6 C 0.9810(3) 0.6429(3) 0.68520(2)
C7 C 0.9277(4) 0.6233(5) 0.68026(3)
H5 H 0.9399 0.6219 0.6756
C8 C 0.8554(4) 0.6051(5) 0.68207(3)
H6 H 0.8183 0.5927 0.6786
C9 C 0.8376(2) 0.6053(3) 0.68888(2)
C10 C 0.8941(2) 0.6268(2) 0.69365(2)
H7 H 0.8829 0.6287 0.6983
C11 C 0.7611(3) 0.5864(3) 0.69133(2)
C12 C 0.7395(3) 0.6385(3) 0.69148(4)
C13 C 0.6689(3) 0.6166(3) 0.69421(4)
H8 H 0.6539 0.6533 0.6945
C14 C 0.6198(3) 0.5459(3) 0.69645(2)
C15 C 0.6412(4) 0.4918(4) 0.69613(4)
C16 C 0.7134(4) 0.5148(4) 0.69353(5)
H9 H 0.7297 0.4791 0.6933
C17 C 0.7924(6) 0.7192(5) 0.68937(8)
H10 H 0.8260 0.7463 0.6932
H11 H 0.7632 0.7432 0.6881
H12 H 0.8221 0.7200 0.6854
C18 C 0.5953(6) 0.4144(6) 0.69856(9)
H13 H 0.6185 0.3849 0.6971
H14 H 0.5450 0.3924 0.6966
H15 H 0.5919 0.4141 0.7036
C19 C 0.4801(2) 0.4666(2) 0.69756(2)
H16 H 0.4817 0.4323 0.6944
C20 C 0.5469(2) 0.5305(3) 0.69933(2)
C21 C 0.5430(3) 0.5810(3) 0.70389(3)
H17 H 0.5874 0.6254 0.7052
C22 C 0.4746(3) 0.5659(3) 0.70644(2)
H18 H 0.4714 0.6004 0.7095
C23 C 0.4103(3) 0.5004(3) 0.70459(2)
C24 C 0.3347(2) 0.4768(3) 0.70720(2)
C25 C 0.3196(3) 0.5113(3) 0.71261(2)
H19 H 0.3589 0.5537 0.7148
C26 C 0.2464(3) 0.4824(3) 0.71462(2)
H20 H 0.2348 0.5052 0.7183
C27 C 0.1897(3) 0.4206(3) 0.71139(2)
H21 H 0.1392 0.4005 0.7128
C28 C 0.2078(3) 0.3878(3) 0.70598(2)
H22 H 0.1689 0.3456 0.7037
C29 C 1.0936(3) 0.8256(3) 0.69073(2)
H23 H 1.1189 0.8114 0.6875
C30 C 1.0920(4) 0.8903(3) 0.68961(3)
H24 H 1.1160 0.9204 0.6857
C31 C 1.0549(4) 0.9112(4) 0.69423(3)
H25 H 1.0526 0.9557 0.6935
C32 C 1.0208(4) 0.8658(3) 0.69993(3)
H26 H 0.9950 0.8790 0.7032
C33 C 1.0251(3) 0.8014(3) 0.70079(2)
C34 C 0.9943(2) 0.7511(3) 0.70659(2)
C35 C 0.9666(3) 0.7676(3) 0.71252(2)
H27 H 0.9651 0.8128 0.7129
C36 C 0.9413(3) 0.7161(3) 0.71783(2)
H28 H 0.9223 0.7261 0.7219
C37 C 0.9435(2) 0.6502(3) 0.71729(2)
C38 C 0.9706(2) 0.6376(3) 0.71119(2)
H29 H 0.9713 0.5920 0.7107
C39 C 0.9201(2) 0.5951(3) 0.72293(2)
C40 C 0.8771(3) 0.4952(3) 0.73389(2)
C41 C 0.8635(3) 0.5218(3) 0.72214(2)
H30 H 0.8390 0.5051 0.7178
C42 C 0.8425(3) 0.4724(3) 0.72762(2)
C43 C 0.9359(3) 0.5690(3) 0.73467(2)
H31 H 0.9617 0.5848 0.7389
C44 C 0.9566(3) 0.6188(3) 0.72926(3)
C45 C 1.0249(7) 0.6951(7) 0.73054(6)
H32 H 1.0109 0.7339 0.7302
H33 H 1.0636 0.7043 0.7271
H34 H 1.0444 0.6963 0.7351
C46 C 0.7748(8) 0.3912(6) 0.72587(5)
H35 H 0.7720 0.3835 0.7209
H36 H 0.7278 0.3868 0.7275
H37 H 0.7828 0.3533 0.7281
C47 C 0.7823(3) 0.4145(3) 0.74257(2)
H38 H 0.7492 0.4289 0.7406
C48 C 0.8544(3) 0.4433(3) 0.73982(2)
C49 C 0.9021(3) 0.4231(3) 0.74276(2)
H39 H 0.9516 0.4428 0.7411
C50 C 0.8775(3) 0.3729(3) 0.74832(2)
H40 H 0.9097 0.3580 0.7504
C51 C 0.8053(2) 0.3460(3) 0.75070(2)
C52 C 0.7721(3) 0.2919(3) 0.75634(2)
C53 C 0.8058(3) 0.2563(4) 0.75947(3)
H41 H 0.8538 0.2656 0.7580
C54 C 0.7683(4) 0.2066(4) 0.76476(4)
H42 H 0.7904 0.1814 0.7670
C55 C 0.6992(3) 0.1939(3) 0.76680(3)
H43 H 0.6732 0.1603 0.7704
C56 C 0.6680(3) 0.2309(3) 0.76344(2)
H44 H 0.6197 0.2216 0.7648
Co1A Co 0.31623(4) 0.36626(6) 0.69794(2)
N1A N 0.3164(2) 0.4179(3) 0.68972(2)
N2A N 0.35489(19) 0.31949(26) 0.69193(2)
N3A N 0.5490(2) -0.0384(3) 0.70014(2)
N4A N 0.5849(2) -0.1357(3) 0.70400(2)
N5A N 0.2188(2) 0.27978(28) 0.69618(2)
N6A N 0.3131(2) 0.30899(27) 0.70600(2)
N7A N 0.63321(19) 0.39151(28) 0.74800(2)
N8A N 0.72028(19) 0.42468(28) 0.75834(2)
C1A C 0.3004(4) 0.4733(5) 0.68926(3)
H1A H 0.2855 0.4886 0.6933
C2A C 0.3049(4) 0.5089(5) 0.68314(3)
H2A H 0.2936 0.5483 0.6830
C3A C 0.3258(4) 0.4870(5) 0.67727(2)
H3A H 0.3282 0.5103 0.6730
C4A C 0.3435(4) 0.4298(5) 0.67771(2)
H4A H 0.3582 0.4134 0.6738
C5A C 0.3390(3) 0.3976(4) 0.68402(2)
C6A C 0.3571(3) 0.3381(4) 0.68520(2)
C7A C 0.3767(5) 0.3044(6) 0.68026(3)
H5A H 0.3781 0.3180 0.6756
C8A C 0.3949(5) 0.2503(6) 0.68207(3)
H6A H 0.4073 0.2256 0.6786
C9A C 0.3947(3) 0.2323(4) 0.68888(2)
C10A C 0.3732(2) 0.2673(3) 0.69365(2)
H7A H 0.3713 0.2542 0.6983
C11A C 0.4136(3) 0.1747(4) 0.69133(2)
C12A C 0.3615(3) 0.1010(4) 0.69148(4)
C13A C 0.3834(3) 0.0523(4) 0.69421(4)
H8A H 0.3467 0.0006 0.6945
C14A C 0.4541(3) 0.0739(4) 0.69645(2)
C15A C 0.5082(4) 0.1494(6) 0.69613(4)
C16A C 0.4852(4) 0.1986(6) 0.69353(5)
H9A H 0.5209 0.2506 0.6933
C17A C 0.2808(5) 0.0732(8) 0.68937(8)
H10A H 0.2537 0.0797 0.6932
H11A H 0.2568 0.0200 0.6881
H12A H 0.2800 0.1021 0.6854
C18A C 0.5856(6) 0.1809(8) 0.69856(9)
H13A H 0.6151 0.2336 0.6971
H14A H 0.6076 0.1526 0.6966
H15A H 0.5859 0.1778 0.7036
C19A C 0.5334(2) 0.0135(3) 0.69756(2)
H16A H 0.5677 0.0494 0.6944
C20A C 0.4695(3) 0.0164(4) 0.69933(2)
C21A C 0.4190(3) -0.0380(4) 0.70389(3)
H17A H 0.3746 -0.0380 0.7052
C22A C 0.4341(3) -0.0913(4) 0.70644(2)
H18A H 0.3996 -0.1290 0.7095
C23A C 0.4996(3) -0.0901(4) 0.70459(2)
C24A C 0.5232(3) -0.1421(4) 0.70720(2)
C25A C 0.4887(3) -0.1917(4) 0.71261(2)
H19A H 0.4463 -0.1948 0.7148
C26A C 0.5176(3) -0.2360(4) 0.71462(2)
H20A H 0.4948 -0.2704 0.7183
C27A C 0.5794(3) -0.2309(4) 0.71139(2)
H21A H 0.5995 -0.2613 0.7128
C28A C 0.6122(3) -0.1800(4) 0.70598(2)
H22A H 0.6544 -0.1767 0.7037
C29A C 0.1744(3) 0.2680(4) 0.69073(2)
H23A H 0.1886 0.3075 0.6875
C30A C 0.1097(3) 0.2017(5) 0.68961(3)
H24A H 0.0796 0.1956 0.6857
C31A C 0.0888(4) 0.1437(6) 0.69423(3)
H25A H 0.0443 0.0969 0.6935
C32A C 0.1342(3) 0.1550(5) 0.69993(3)
H26A H 0.1210 0.1160 0.7032
C33A C 0.1986(3) 0.2237(4) 0.70079(2)
C34A C 0.2489(3) 0.2432(4) 0.70659(2)
C35A C 0.2324(3) 0.1990(4) 0.71252(2)
H27A H 0.1872 0.1523 0.7129
C36A C 0.2839(3) 0.2252(4) 0.71783(2)
H28A H 0.2739 0.1962 0.7219
C37A C 0.3498(3) 0.2933(4) 0.71729(2)
C38A C 0.3624(3) 0.3330(4) 0.71119(2)
H29A H 0.4080 0.3793 0.7107
C39A C 0.4049(3) 0.3250(4) 0.72293(2)
C40A C 0.5048(3) 0.3819(4) 0.73389(2)
C41A C 0.4782(3) 0.3417(4) 0.72214(2)
H30A H 0.4949 0.3339 0.7178
C42A C 0.5276(3) 0.3701(4) 0.72762(2)
C43A C 0.4310(3) 0.3669(4) 0.73467(2)
H31A H 0.4152 0.3769 0.7389
C44A C 0.3812(3) 0.3378(4) 0.72926(3)
C45A C 0.3049(7) 0.3298(10) 0.73054(6)
H32A H 0.2661 0.2770 0.7302
H33A H 0.2957 0.3593 0.7271
H34A H 0.3037 0.3481 0.7351
C46A C 0.6088(6) 0.3836(10) 0.72587(5)
H35A H 0.6165 0.3885 0.7209
H36A H 0.6132 0.3410 0.7275
H37A H 0.6467 0.4295 0.7281
C47A C 0.5855(3) 0.3678(4) 0.74257(2)
H38A H 0.5711 0.3203 0.7406
C48A C 0.5567(3) 0.4111(4) 0.73982(2)
C49A C 0.5769(3) 0.4790(4) 0.74276(2)
H39A H 0.5572 0.5088 0.7411
C50A C 0.6271(3) 0.5046(4) 0.74832(2)
H40A H 0.6420 0.5517 0.7504
C51A C 0.6540(3) 0.4593(4) 0.75070(2)
C52A C 0.7081(3) 0.4802(4) 0.75634(2)
C53A C 0.7437(4) 0.5495(5) 0.75947(3)
H41A H 0.7344 0.5882 0.7580
C54A C 0.7934(4) 0.5617(6) 0.76476(4)
H42A H 0.8186 0.6090 0.7670
C55A C 0.8061(3) 0.5053(4) 0.76680(3)
H43A H 0.8397 0.5129 0.7704
C56A C 0.7691(3) 0.4371(4) 0.76344(2)
H44A H 0.7784 0.3981 0.7648
Co1B Co 0.63374(6) -0.05003(4) 0.69794(2)
N1B N 0.5821(3) -0.1015(2) 0.68972(2)
N2B N 0.68051(26) 0.03540(18) 0.69193(2)
N3B N 1.0384(3) 0.5874(2) 0.70014(2)
N4B N 1.1357(3) 0.7206(2) 0.70400(2)
N5B N 0.72022(28) -0.06098(19) 0.69618(2)
N6B N 0.69101(27) 0.00411(18) 0.70600(2)
N7B N 0.60849(28) 0.2417(2) 0.74800(2)
N8B N 0.57532(28) 0.2956(2) 0.75834(2)
C1B C 0.5267(5) -0.1729(3) 0.68926(3)
H1B H 0.5114 -0.2031 0.6933
C2B C 0.4911(5) -0.2040(3) 0.68314(3)
H2B H 0.4517 -0.2547 0.6830
C3B C 0.5130(5) -0.1612(3) 0.67727(2)
H3B H 0.4897 -0.1821 0.6730
C4B C 0.5702(5) -0.0863(3) 0.67771(2)
H4B H 0.5866 -0.0552 0.6738
C5B C 0.6024(4) -0.0586(3) 0.68402(2)
C6B C 0.6619(4) 0.0190(3) 0.68520(2)
C7B C 0.6956(6) 0.0723(4) 0.68026(3)
H5B H 0.6820 0.0601 0.6756
C8B C 0.7497(6) 0.1446(4) 0.68207(3)
H6B H 0.7744 0.1817 0.6786
C9B C 0.7677(4) 0.1624(2) 0.68888(2)
C10B C 0.7327(3) 0.1059(2) 0.69365(2)
H7B H 0.7458 0.1171 0.6983
C11B C 0.8253(4) 0.2389(3) 0.69133(2)
C12B C 0.8990(4) 0.2605(3) 0.69148(4)
C13B C 0.9477(4) 0.3311(3) 0.69421(4)
H8B H 0.9994 0.3461 0.6945
C14B C 0.9261(4) 0.3802(3) 0.69645(2)
C15B C 0.8506(6) 0.3588(4) 0.69613(4)
C16B C 0.8014(6) 0.2866(4) 0.69353(5)
H9B H 0.7494 0.2703 0.6933
C17B C 0.9268(8) 0.2076(6) 0.68937(8)
H10B H 0.9203 0.1740 0.6932
H11B H 0.9800 0.2368 0.6881
H12B H 0.8979 0.1779 0.6854
C18B C 0.8191(8) 0.4047(6) 0.69856(9)
H13B H 0.7664 0.3815 0.6971
H14B H 0.8474 0.4550 0.6966
H15B H 0.8222 0.4081 0.7036
C19B C 0.9865(3) 0.5199(2) 0.69756(2)
H16B H 0.9506 0.5183 0.6944
C20B C 0.9836(4) 0.4531(2) 0.69933(2)
C21B C 1.0380(4) 0.4570(3) 0.70389(3)
H17B H 1.0380 0.4126 0.7052
C22B C 1.0913(4) 0.5254(3) 0.70644(2)
H18B H 1.1290 0.5286 0.7095
C23B C 1.0901(4) 0.5897(3) 0.70459(2)
C24B C 1.1421(4) 0.6653(2) 0.70720(2)
C25B C 1.1917(4) 0.6804(3) 0.71261(2)
H19B H 1.1948 0.6411 0.7148
C26B C 1.2360(4) 0.7536(3) 0.71462(2)
H20B H 1.2704 0.7652 0.7183
C27B C 1.2309(4) 0.8103(3) 0.71139(2)
H21B H 1.2613 0.8608 0.7128
C28B C 1.1800(4) 0.7922(3) 0.70598(2)
H22B H 1.1767 0.8311 0.7037
C29B C 0.7320(4) -0.0936(3) 0.69073(2)
H23B H 0.6925 -0.1189 0.6875
C30B C 0.7983(5) -0.0920(4) 0.68961(3)
H24B H 0.8044 -0.1160 0.6857
C31B C 0.8563(6) -0.0549(4) 0.69423(3)
H25B H 0.9031 -0.0526 0.6935
C32B C 0.8450(5) -0.0208(4) 0.69993(3)
H26B H 0.8840 0.0050 0.7032
C33B C 0.7763(4) -0.0251(3) 0.70079(2)
C34B C 0.7568(4) 0.0057(2) 0.70659(2)
C35B C 0.8010(4) 0.0334(3) 0.71252(2)
H27B H 0.8477 0.0349 0.7129
C36B C 0.7748(4) 0.0587(3) 0.71783(2)
H28B H 0.8038 0.0777 0.7219
C37B C 0.7067(4) 0.0565(2) 0.71729(2)
C38B C 0.6670(4) 0.0294(2) 0.71119(2)
H29B H 0.6207 0.0287 0.7107
C39B C 0.6750(4) 0.0799(2) 0.72293(2)
C40B C 0.6181(4) 0.1229(3) 0.73389(2)
C41B C 0.6583(4) 0.1365(3) 0.72214(2)
H30B H 0.6661 0.1610 0.7178
C42B C 0.6299(4) 0.1575(3) 0.72762(2)
C43B C 0.6331(4) 0.0641(3) 0.73467(2)
H31B H 0.6231 0.0383 0.7389
C44B C 0.6622(4) 0.0434(3) 0.72926(3)
C45B C 0.6702(10) -0.0249(7) 0.73054(6)
H32B H 0.7230 -0.0109 0.7302
H33B H 0.6407 -0.0636 0.7271
H34B H 0.6519 -0.0444 0.7351
C46B C 0.6164(10) 0.2252(8) 0.72587(5)
H35B H 0.6115 0.2280 0.7209
H36B H 0.6590 0.2722 0.7275
H37B H 0.5705 0.2172 0.7281
C47B C 0.6322(4) 0.2177(3) 0.74257(2)
H38B H 0.6797 0.2508 0.7406
C48B C 0.5889(4) 0.1456(3) 0.73982(2)
C49B C 0.5210(4) 0.0979(3) 0.74276(2)
H39B H 0.4912 0.0484 0.7411
C50B C 0.4954(4) 0.1225(3) 0.74832(2)
H40B H 0.4483 0.0903 0.7504
C51B C 0.5407(4) 0.1947(2) 0.75070(2)
C52B C 0.5198(4) 0.2279(3) 0.75634(2)
C53B C 0.4505(5) 0.1942(3) 0.75947(3)
H41B H 0.4118 0.1462 0.7580
C54B C 0.4383(6) 0.2317(4) 0.76476(4)
H42B H 0.3910 0.2096 0.7670
C55B C 0.4947(4) 0.3008(3) 0.76680(3)
H43B H 0.4871 0.3268 0.7704
C56B C 0.5629(4) 0.3320(3) 0.76344(2)
H44B H 0.6019 0.3803 0.7648
P1 P 0.93249(8) 0.41017(9) 0.77323(2)
F1 F 0.9387(2) 0.4825(2) 0.77661(2)
F2 F 0.84263(18) 0.3695(2) 0.77399(2)
F3 F 0.92566(19) 0.4389(3) 0.76589(2)
F4 F 0.9253(2) 0.3365(3) 0.76994(2)
F5 F 1.02059(18) 0.4507(2) 0.77249(2)
F6 F 0.9375(2) 0.3792(2) 0.78057(2)
P2 P 0.78876(12) 0.78716(15) 0.71002(2)
F7 F 0.7789(3) 0.8551(3) 0.71217(3)
F8 F 0.7413(4) 0.7781(5) 0.70355(4)
F9 F 0.8643(3) 0.8405(4) 0.70631(4)
F10 F 0.7999(4) 0.7204(4) 0.70743(5)
F11 F 0.8343(4) 0.7905(5) 0.71657(4)
F12 F 0.7166(4) 0.7339(5) 0.71387(6)
P3 P 1.1905(2) 0.89117(17) 0.67193(2)
F13 F 1.1604(6) 0.9445(5) 0.67436(5)
F14 F 1.1665(7) 0.9026(7) 0.66468(4)
F15 F 1.2653(4) 0.9582(4) 0.66969(3)
F16 F 1.1963(5) 0.8282(4) 0.66816(3)
F17 F 1.2100(4) 0.8806(5) 0.67897(3)
F18 F 1.1072(5) 0.8295(5) 0.67377(4)
P4 P 1.3333 0.6667 0.6667
F19 F 1.33617(18) 0.73142(17) 0.67121(2)
F19A F 1.26858(17) 0.60475(25) 0.67121(2)
F19B F 1.39525(25) 0.66383(18) 0.67121(2)
F19DA F 1.33050(18) 0.60191(17) 0.66212(2)
F19EA F 1.39809(17) 0.72858(25) 0.66212(2)
F19FA F 1.27142(25) 0.66950(18) 0.66212(2)
P5 P 1.0000 0.2547(2) 0.7500
F20 F 0.9802(8) 0.1905(6) 0.74520(6)
F21 F 0.9177(6) 0.2263(11) 0.74840(11)
F22 F 0.9928(6) 0.3095(6) 0.75490(5)
F20E F 1.0198(8) 0.2103(10) 0.75480(6)
F21E F 1.0823(6) 0.3086(13) 0.75160(11)
F22E F 1.0072(6) 0.3167(8) 0.74510(5)
loop_
_geom_bond_atom_site_label_1
_geom_bond_atom_site_label_2
_geom_bond_site_symmetry_1
_geom_bond_site_symmetry_2
Co1 N1 1_555 1_555
Co2 N7 1_555 1_555
N1 C1 1_555 1_555
N2 Co1 1_555 1_555
N3 C19 1_555 1_555
N4 C24 1_555 1_555
N5 Co1 1_555 1_555
N6 Co1 1_555 1_555
N7 C47 1_555 1_555
N8 Co2 1_555 1_555
C1 H1 1_555 1_555
C2 C1 1_555 1_555
H2 C2 1_555 1_555
C3 C2 1_555 1_555
H3 C3 1_555 1_555
C4 C3 1_555 1_555
H4 C4 1_555 1_555
C5 N1 1_555 1_555
C6 N2 1_555 1_555
C7 C6 1_555 1_555
H5 C7 1_555 1_555
C8 C7 1_555 1_555
H6 C8 1_555 1_555
C9 C8 1_555 1_555
C10 N2 1_555 1_555
H7 C10 1_555 1_555
C11 C9 1_555 1_555
C12 C11 1_555 1_555
C13 C12 1_555 1_555
H8 C13 1_555 1_555
C14 C13 1_555 1_555
C15 C14 1_555 1_555
C16 C11 1_555 1_555
H9 C16 1_555 1_555
C17 C12 1_555 1_555
H10 C17 1_555 1_555
H11 C17 1_555 1_555
H12 C17 1_555 1_555
C18 C15 1_555 1_555
H13 C18 1_555 1_555
H14 C18 1_555 1_555
H15 C18 1_555 1_555
C19 H16 1_555 1_555
C20 C14 1_555 1_555
C21 C20 1_555 1_555
H17 C21 1_555 1_555
C22 C21 1_555 1_555
H18 C22 1_555 1_555
C23 N3 1_555 1_555
C24 C23 1_555 1_555
C25 C24 1_555 1_555
H19 C25 1_555 1_555
C26 C25 1_555 1_555
H20 C26 1_555 1_555
C27 C26 1_555 1_555
H21 C27 1_555 1_555
C28 N4 1_555 1_555
H22 C28 1_555 1_555
C29 N5 1_555 1_555
H23 C29 1_555 1_555
C30 C29 1_555 1_555
H24 C30 1_555 1_555
C31 C30 1_555 1_555
H25 C31 1_555 1_555
C32 C31 1_555 1_555
H26 C32 1_555 1_555
C33 N5 1_555 1_555
C34 N6 1_555 1_555
C35 C34 1_555 1_555
H27 C35 1_555 1_555
C36 C35 1_555 1_555
H28 C36 1_555 1_555
C37 C36 1_555 1_555
C38 N6 1_555 1_555
H29 C38 1_555 1_555
C39 C37 1_555 1_555
C40 C42 1_555 1_555
C41 C39 1_555 1_555
H30 C41 1_555 1_555
C42 C41 1_555 1_555
C43 C40 1_555 1_555
H31 C43 1_555 1_555
C44 C39 1_555 1_555
C45 C44 1_555 1_555
H32 C45 1_555 1_555
H33 C45 1_555 1_555
H34 C45 1_555 1_555
C46 C42 1_555 1_555
H35 C46 1_555 1_555
H36 C46 1_555 1_555
H37 C46 1_555 1_555
C47 H38 1_555 1_555
C48 C40 1_555 1_555
C49 C48 1_555 1_555
H39 C49 1_555 1_555
C50 C49 1_555 1_555
H40 C50 1_555 1_555
C51 N7 1_555 1_555
C52 N8 1_555 1_555
C53 C52 1_555 1_555
H41 C53 1_555 1_555
C54 C53 1_555 1_555
H42 C54 1_555 1_555
C55 C54 1_555 1_555
H43 C55 1_555 1_555
C56 N8 1_555 1_555
H44 C56 1_555 1_555
P1 F1 1_555 1_555
F2 P1 1_555 1_555
F3 P1 1_555 1_555
F4 P1 1_555 1_555
F5 P1 1_555 1_555
F6 P1 1_555 1_555
P2 F7 1_555 1_555
F8 P2 1_555 1_555
F9 P2 1_555 1_555
F10 P2 1_555 1_555
F11 P2 1_555 1_555
F12 P2 1_555 1_555
P3 F13 1_555 1_555
F14 P3 1_555 1_555
F15 P3 1_555 1_555
F16 P3 1_555 1_555
F17 P3 1_555 1_555
F18 P3 1_555 1_555
P4 F19 1_555 1_555
P5 F20 1_555 1_555
F21 P5 1_555 1_555
F22 P5 1_555 1_555
Co1A N3 1_555 1_555
N1A Co1A 1_555 1_555
N2A Co1A 1_555 1_555
N3A C19A 1_555 1_555
N4A C24A 1_555 1_555
N5A Co1A 1_555 1_555
N6A Co1A 1_555 1_555
N7A Co2 1_555 1_555
N8A Co2 1_555 1_555
C1A N1A 1_555 1_555
H1A C1A 1_555 1_555
C2A C1A 1_555 1_555
H2A C2A 1_555 1_555
C3A C2A 1_555 1_555
H3A C3A 1_555 1_555
C4A C3A 1_555 1_555
H4A C4A 1_555 1_555
C5A N1A 1_555 1_555
C6A N2A 1_555 1_555
C7A C6A 1_555 1_555
H5A C7A 1_555 1_555
C8A C7A 1_555 1_555
H6A C8A 1_555 1_555
C9A C8A 1_555 1_555
C10A N2A 1_555 1_555
H7A C10A 1_555 1_555
C11A C9A 1_555 1_555
C12A C11A 1_555 1_555
C13A C12A 1_555 1_555
H8A C13A 1_555 1_555
C14A C13A 1_555 1_555
C15A C14A 1_555 1_555
C16A C11A 1_555 1_555
H9A C16A 1_555 1_555
C17A C12A 1_555 1_555
H10A C17A 1_555 1_555
H11A C17A 1_555 1_555
H12A C17A 1_555 1_555
C18A C15A 1_555 1_555
H13A C18A 1_555 1_555
H14A C18A 1_555 1_555
H15A C18A 1_555 1_555
C19A H16A 1_555 1_555
C20A C14A 1_555 1_555
C21A C20A 1_555 1_555
H17A C21A 1_555 1_555
C22A C21A 1_555 1_555
H18A C22A 1_555 1_555
C23A N3A 1_555 1_555
C24A C23A 1_555 1_555
C25A C24A 1_555 1_555
H19A C25A 1_555 1_555
C26A C25A 1_555 1_555
H20A C26A 1_555 1_555
C27A C26A 1_555 1_555
H21A C27A 1_555 1_555
C28A N4A 1_555 1_555
H22A C28A 1_555 1_555
C29A N5A 1_555 1_555
H23A C29A 1_555 1_555
C30A C29A 1_555 1_555
H24A C30A 1_555 1_555
C31A C30A 1_555 1_555
H25A C31A 1_555 1_555
C32A C31A 1_555 1_555
H26A C32A 1_555 1_555
C33A N5A 1_555 1_555
C34A N6A 1_555 1_555
C35A C34A 1_555 1_555
H27A C35A 1_555 1_555
C36A C35A 1_555 1_555
H28A C36A 1_555 1_555
C37A C36A 1_555 1_555
C38A N6A 1_555 1_555
H29A C38A 1_555 1_555
C39A C37A 1_555 1_555
C40A C42A 1_555 1_555
C41A C39A 1_555 1_555
H30A C41A 1_555 1_555
C42A C41A 1_555 1_555
C43A C40A 1_555 1_555
H31A C43A 1_555 1_555
C44A C39A 1_555 1_555
C45A C44A 1_555 1_555
H32A C45A 1_555 1_555
H33A C45A 1_555 1_555
H34A C45A 1_555 1_555
C46A C42A 1_555 1_555
H35A C46A 1_555 1_555
H36A C46A 1_555 1_555
H37A C46A 1_555 1_555
C47A N7A 1_555 1_555
H38A C47A 1_555 1_555
C48A C40A 1_555 1_555
C49A C48A 1_555 1_555
H39A C49A 1_555 1_555
C50A C49A 1_555 1_555
H40A C50A 1_555 1_555
C51A N7A 1_555 1_555
C52A N8A 1_555 1_555
C53A C52A 1_555 1_555
H41A C53A 1_555 1_555
C54A C53A 1_555 1_555
H42A C54A 1_555 1_555
C55A C54A 1_555 1_555
H43A C55A 1_555 1_555
C56A N8A 1_555 1_555
H44A C56A 1_555 1_555
Co1B N3A 1_555 1_555
N1B Co1B 1_555 1_555
N2B Co1B 1_555 1_555
N3B Co1 1_555 1_555
N4B Co1 1_555 1_555
N5B Co1B 1_555 1_555
N6B Co1B 1_555 1_555
N7B Co2 1_555 1_555
N8B Co2 1_555 1_555
C1B N1B 1_555 1_555
H1B C1B 1_555 1_555
C2B C1B 1_555 1_555
H2B C2B 1_555 1_555
C3B C2B 1_555 1_555
H3B C3B 1_555 1_555
C4B C3B 1_555 1_555
H4B C4B 1_555 1_555
C5B N1B 1_555 1_555
C6B N2B 1_555 1_555
C7B C6B 1_555 1_555
H5B C7B 1_555 1_555
C8B C7B 1_555 1_555
H6B C8B 1_555 1_555
C9B C8B 1_555 1_555
C10B N2B 1_555 1_555
H7B C10B 1_555 1_555
C11B C9B 1_555 1_555
C12B C11B 1_555 1_555
C13B C12B 1_555 1_555
H8B C13B 1_555 1_555
C14B C13B 1_555 1_555
C15B C14B 1_555 1_555
C16B C11B 1_555 1_555
H9B C16B 1_555 1_555
C17B C12B 1_555 1_555
H10B C17B 1_555 1_555
H11B C17B 1_555 1_555
H12B C17B 1_555 1_555
C18B C15B 1_555 1_555
H13B C18B 1_555 1_555
H14B C18B 1_555 1_555
H15B C18B 1_555 1_555
C19B N3B 1_555 1_555
H16B C19B 1_555 1_555
C20B C14B 1_555 1_555
C21B C20B 1_555 1_555
H17B C21B 1_555 1_555
C22B C21B 1_555 1_555
H18B C22B 1_555 1_555
C23B N3B 1_555 1_555
C24B N4B 1_555 1_555
C25B C24B 1_555 1_555
H19B C25B 1_555 1_555
C26B C25B 1_555 1_555
H20B C26B 1_555 1_555
C27B C26B 1_555 1_555
H21B C27B 1_555 1_555
C28B N4B 1_555 1_555
H22B C28B 1_555 1_555
C29B N5B 1_555 1_555
H23B C29B 1_555 1_555
C30B C29B 1_555 1_555
H24B C30B 1_555 1_555
C31B C30B 1_555 1_555
H25B C31B 1_555 1_555
C32B C31B 1_555 1_555
H26B C32B 1_555 1_555
C33B N5B 1_555 1_555
C34B N6B 1_555 1_555
C35B C34B 1_555 1_555
H27B C35B 1_555 1_555
C36B C35B 1_555 1_555
H28B C36B 1_555 1_555
C37B C36B 1_555 1_555
C38B N6B 1_555 1_555
H29B C38B 1_555 1_555
C39B C37B 1_555 1_555
C40B C42B 1_555 1_555
C41B C39B 1_555 1_555
H30B C41B 1_555 1_555
C42B C41B 1_555 1_555
C43B C40B 1_555 1_555
H31B C43B 1_555 1_555
C44B C39B 1_555 1_555
C45B C44B 1_555 1_555
H32B C45B 1_555 1_555
H33B C45B 1_555 1_555
H34B C45B 1_555 1_555
C46B C42B 1_555 1_555
H35B C46B 1_555 1_555
H36B C46B 1_555 1_555
H37B C46B 1_555 1_555
C47B N7B 1_555 1_555
H38B C47B 1_555 1_555
C48B C40B 1_555 1_555
C49B C48B 1_555 1_555
H39B C49B 1_555 1_555
C50B C49B 1_555 1_555
H40B C50B 1_555 1_555
C51B N7B 1_555 1_555
C52B N8B 1_555 1_555
C53B C52B 1_555 1_555
H41B C53B 1_555 1_555
C54B C53B 1_555 1_555
H42B C54B 1_555 1_555
C55B C54B 1_555 1_555
H43B C55B 1_555 1_555
C56B N8B 1_555 1_555
H44B C56B 1_555 1_555
F19A P4 1_555 1_555
F19B P4 1_555 1_555
F19DA P4 1_555 1_555
F19EA P4 1_555 1_555
F19FA P4 1_555 1_555
F20E P5 1_555 1_555
F21E P5 1_555 1_555
F22E P5 1_555 1_555
N4 Co1A 1_555 1_555
C4 C5 1_555 1_555
C5 C6 1_555 1_555
C9 C10 1_555 1_555
C15 C16 1_555 1_555
C19 C20 1_555 1_555
C22 C23 1_555 1_555
C27 C28 1_555 1_555
C32 C33 1_555 1_555
C33 C34 1_555 1_555
C37 C38 1_555 1_555
C43 C44 1_555 1_555
C47 C48 1_555 1_555
C50 C51 1_555 1_555
C51 C52 1_555 1_555
C55 C56 1_555 1_555
N4A Co1B 1_555 1_555
C4A C5A 1_555 1_555
C5A C6A 1_555 1_555
C9A C10A 1_555 1_555
C15A C16A 1_555 1_555
C19A C20A 1_555 1_555
C22A C23A 1_555 1_555
C27A C28A 1_555 1_555
C32A C33A 1_555 1_555
C33A C34A 1_555 1_555
C37A C38A 1_555 1_555
C43A C44A 1_555 1_555
C47A C48A 1_555 1_555
C50A C51A 1_555 1_555
C51A C52A 1_555 1_555
C55A C56A 1_555 1_555
C4B C5B 1_555 1_555
C5B C6B 1_555 1_555
C9B C10B 1_555 1_555
C15B C16B 1_555 1_555
C19B C20B 1_555 1_555
C22B C23B 1_555 1_555
C23B C24B 1_555 1_555
C27B C28B 1_555 1_555
C32B C33B 1_555 1_555
C33B C34B 1_555 1_555
C37B C38B 1_555 1_555
C43B C44B 1_555 1_555
C47B C48B 1_555 1_555
C50B C51B 1_555 1_555
C51B C52B 1_555 1_555
C55B C56B 1_555 1_555

#END
