# generated using pymatgen
data_Ni2B3H72C88(N5F3)4
_symmetry_space_group_name_H-M   'P 1'
_cell_length_a   26.97200000
_cell_length_b   36.79300000
_cell_length_c   40.86900000
_cell_angle_alpha   90.00000000
_cell_angle_beta   109.16500000
_cell_angle_gamma   90.00000000
_symmetry_Int_Tables_number   1
_chemical_formula_structural   Ni2B3H72C88(N5F3)4
_chemical_formula_sum   'Ni32 B48 H1152 C1408 N320 F192'
_cell_volume   38309.78982877
_cell_formula_units_Z   16
loop_
 _symmetry_equiv_pos_site_id
 _symmetry_equiv_pos_as_xyz
  1  'x, y, z'
loop_
 _atom_site_type_symbol
 _atom_site_label
 _atom_site_symmetry_multiplicity
 _atom_site_fract_x
 _atom_site_fract_y
 _atom_site_fract_z
 _atom_site_occupancy
  Ni  Ni1  1  0.744380  0.308430  0.585800  1
  Ni  Ni2  1  0.255620  0.808430  0.914200  1
  Ni  Ni3  1  0.255620  0.691570  0.414200  1
  Ni  Ni4  1  0.744380  0.191570  0.085800  1
  Ni  Ni5  1  0.968450  0.323080  0.840230  1
  Ni  Ni6  1  0.031550  0.823080  0.659770  1
  Ni  Ni7  1  0.031550  0.676920  0.159770  1
  Ni  Ni8  1  0.968450  0.176920  0.340230  1
  Ni  Ni9  1  0.022810  0.511210  0.655750  1
  Ni  Ni10  1  0.977190  0.011210  0.844250  1
  Ni  Ni11  1  0.977190  0.488790  0.344250  1
  Ni  Ni12  1  0.022810  0.988790  0.155750  1
  Ni  Ni13  1  0.429100  0.344290  0.666950  1
  Ni  Ni14  1  0.570900  0.844290  0.833050  1
  Ni  Ni15  1  0.570900  0.655710  0.333050  1
  Ni  Ni16  1  0.429100  0.155710  0.166950  1
  Ni  Ni17  1  0.404750  0.520140  0.861090  1
  Ni  Ni18  1  0.595250  0.020140  0.638910  1
  Ni  Ni19  1  0.595250  0.479860  0.138910  1
  Ni  Ni20  1  0.404750  0.979860  0.361090  1
  Ni  Ni21  1  0.385400  0.620830  0.624960  1
  Ni  Ni22  1  0.614600  0.120830  0.875040  1
  Ni  Ni23  1  0.614600  0.379170  0.375040  1
  Ni  Ni24  1  0.385400  0.879170  0.124960  1
  Ni  Ni25  1  0.840720  0.544230  0.945530  1
  Ni  Ni26  1  0.159280  0.044230  0.554470  1
  Ni  Ni27  1  0.159280  0.455770  0.054470  1
  Ni  Ni28  1  0.840720  0.955770  0.445530  1
  Ni  Ni29  1  0.749850  0.696830  0.731890  1
  Ni  Ni30  1  0.250150  0.196830  0.768110  1
  Ni  Ni31  1  0.250150  0.303170  0.268110  1
  Ni  Ni32  1  0.749850  0.803170  0.231890  1
  B  B33  1  0.889900  0.534500  0.786000  1
  B  B34  1  0.110100  0.034500  0.714000  1
  B  B35  1  0.110100  0.465500  0.214000  1
  B  B36  1  0.889900  0.965500  0.286000  1
  B  B37  1  0.630500  0.523500  0.769600  1
  B  B38  1  0.369500  0.023500  0.730400  1
  B  B39  1  0.369500  0.476500  0.230400  1
  B  B40  1  0.630500  0.976500  0.269600  1
  B  B41  1  0.176700  0.341500  0.896700  1
  B  B42  1  0.823300  0.841500  0.603300  1
  B  B43  1  0.823300  0.658500  0.103300  1
  B  B44  1  0.176700  0.158500  0.396700  1
  B  B45  1  0.178800  0.614200  0.705100  1
  B  B46  1  0.821200  0.114200  0.794900  1
  B  B47  1  0.821200  0.385800  0.294900  1
  B  B48  1  0.178800  0.885800  0.205100  1
  B  B49  1  0.493700  0.589800  0.517800  1
  B  B50  1  0.506300  0.089800  0.982200  1
  B  B51  1  0.506300  0.410200  0.482200  1
  B  B52  1  0.493700  0.910200  0.017800  1
  B  B53  1  0.680200  0.300300  0.777000  1
  B  B54  1  0.319800  0.800300  0.723000  1
  B  B55  1  0.319800  0.699700  0.223000  1
  B  B56  1  0.680200  0.199700  0.277000  1
  B  B57  1  0.137400  0.525500  0.933600  1
  B  B58  1  0.862600  0.025500  0.566400  1
  B  B59  1  0.862600  0.474500  0.066400  1
  B  B60  1  0.137400  0.974500  0.433600  1
  B  B61  1  0.580500  0.635700  0.849700  1
  B  B62  1  0.419500  0.135700  0.650300  1
  B  B63  1  0.419500  0.364300  0.150300  1
  B  B64  1  0.580500  0.864300  0.349700  1
  B  B65  1  0.943200  0.772600  0.822200  1
  B  B66  1  0.056800  0.272600  0.677800  1
  B  B67  1  0.056800  0.227400  0.177800  1
  B  B68  1  0.943200  0.727400  0.322200  1
  B  B69  1  0.706900  0.489900  0.574300  1
  B  B70  1  0.293100  0.989900  0.925700  1
  B  B71  1  0.293100  0.510100  0.425700  1
  B  B72  1  0.706900  0.010100  0.074300  1
  B  B73  1  0.202900  0.454400  0.544500  1
  B  B74  1  0.797100  0.954400  0.955500  1
  B  B75  1  0.797100  0.545600  0.455500  1
  B  B76  1  0.202900  0.045600  0.044500  1
  B  B77  1  0.560800  0.311000  0.933500  1
  B  B78  1  0.439200  0.811000  0.566500  1
  B  B79  1  0.439200  0.689000  0.066500  1
  B  B80  1  0.560800  0.189000  0.433500  1
  H  H81  1  0.873900  0.334100  0.525700  1
  H  H82  1  0.126100  0.834100  0.974300  1
  H  H83  1  0.126100  0.665900  0.474300  1
  H  H84  1  0.873900  0.165900  0.025700  1
  H  H85  1  0.814700  0.350300  0.471600  1
  H  H86  1  0.185300  0.850300  0.028400  1
  H  H87  1  0.185300  0.649700  0.528400  1
  H  H88  1  0.814700  0.149700  0.971600  1
  H  H89  1  0.725100  0.355200  0.464000  1
  H  H90  1  0.274900  0.855200  0.036000  1
  H  H91  1  0.274900  0.644800  0.536000  1
  H  H92  1  0.725100  0.144800  0.964000  1
  H  H93  1  0.694700  0.344000  0.510400  1
  H  H94  1  0.305300  0.844000  0.989600  1
  H  H95  1  0.305300  0.656000  0.489600  1
  H  H96  1  0.694700  0.156000  0.010400  1
  H  H97  1  0.929400  0.325800  0.587000  1
  H  H98  1  0.070600  0.825800  0.913000  1
  H  H99  1  0.070600  0.674200  0.413000  1
  H  H100  1  0.929400  0.174200  0.087000  1
  H  H101  1  0.950100  0.288100  0.641900  1
  H  H102  1  0.049900  0.788100  0.858100  1
  H  H103  1  0.049900  0.711900  0.358100  1
  H  H104  1  0.950100  0.211900  0.141900  1
  H  H105  1  0.879500  0.238300  0.660100  1
  H  H106  1  0.120500  0.738300  0.839900  1
  H  H107  1  0.120500  0.761700  0.339900  1
  H  H108  1  0.879500  0.261700  0.160100  1
  H  H109  1  0.818900  0.247700  0.641700  1
  H  H110  1  0.181100  0.747700  0.858300  1
  H  H111  1  0.181100  0.752300  0.358300  1
  H  H112  1  0.818900  0.252300  0.141700  1
  H  H113  1  0.963900  0.457900  0.832800  1
  H  H114  1  0.036100  0.957900  0.667200  1
  H  H115  1  0.036100  0.542100  0.167200  1
  H  H116  1  0.963900  0.042100  0.332800  1
  H  H117  1  0.042700  0.470300  0.877100  1
  H  H118  1  0.957300  0.970300  0.622900  1
  H  H119  1  0.957300  0.529700  0.122900  1
  H  H120  1  0.042700  0.029700  0.377100  1
  H  H121  1  0.095400  0.422500  0.907000  1
  H  H122  1  0.904600  0.922500  0.593000  1
  H  H123  1  0.904600  0.577500  0.093000  1
  H  H124  1  0.095400  0.077500  0.407000  1
  H  H125  1  0.069400  0.362300  0.892600  1
  H  H126  1  0.930600  0.862300  0.607400  1
  H  H127  1  0.930600  0.637700  0.107400  1
  H  H128  1  0.069400  0.137700  0.392600  1
  H  H129  1  0.876400  0.439600  0.788500  1
  H  H130  1  0.123600  0.939600  0.711500  1
  H  H131  1  0.123600  0.560400  0.211500  1
  H  H132  1  0.876400  0.060400  0.288500  1
  H  H133  1  0.802800  0.395000  0.761000  1
  H  H134  1  0.197200  0.895000  0.739000  1
  H  H135  1  0.197200  0.605000  0.239000  1
  H  H136  1  0.802800  0.105000  0.261000  1
  H  H137  1  0.792700  0.323300  0.773100  1
  H  H138  1  0.207300  0.823300  0.726900  1
  H  H139  1  0.207300  0.676700  0.226900  1
  H  H140  1  0.792700  0.176700  0.273100  1
  H  H141  1  0.844000  0.303000  0.797000  1
  H  H142  1  0.156000  0.803000  0.703000  1
  H  H143  1  0.156000  0.697000  0.203000  1
  H  H144  1  0.844000  0.197000  0.297000  1
  H  H145  1  0.878900  0.325400  0.681900  1
  H  H146  1  0.121100  0.825400  0.818100  1
  H  H147  1  0.121100  0.674600  0.318100  1
  H  H148  1  0.878900  0.174600  0.181900  1
  H  H149  1  0.867600  0.349800  0.731800  1
  H  H150  1  0.132400  0.849800  0.768200  1
  H  H151  1  0.132400  0.650200  0.268200  1
  H  H152  1  0.867600  0.150200  0.231800  1
  H  H153  1  0.791800  0.257100  0.774400  1
  H  H154  1  0.208200  0.757100  0.725600  1
  H  H155  1  0.208200  0.742900  0.225600  1
  H  H156  1  0.791800  0.242900  0.274400  1
  H  H157  1  0.779300  0.194600  0.763100  1
  H  H158  1  0.220700  0.694600  0.736900  1
  H  H159  1  0.220700  0.805400  0.236900  1
  H  H160  1  0.779300  0.305400  0.263100  1
  H  H161  1  0.791300  0.171400  0.713000  1
  H  H162  1  0.208700  0.671400  0.787000  1
  H  H163  1  0.208700  0.828600  0.287000  1
  H  H164  1  0.791300  0.328600  0.213000  1
  H  H165  1  0.831500  0.206000  0.681100  1
  H  H166  1  0.168500  0.706000  0.818900  1
  H  H167  1  0.168500  0.794000  0.318900  1
  H  H168  1  0.831500  0.294000  0.181100  1
  H  H169  1  0.716300  0.316000  0.701100  1
  H  H170  1  0.283700  0.816000  0.798900  1
  H  H171  1  0.283700  0.684000  0.298900  1
  H  H172  1  0.716300  0.184000  0.201100  1
  H  H173  1  0.680300  0.258100  0.701300  1
  H  H174  1  0.319700  0.758100  0.798700  1
  H  H175  1  0.319700  0.741900  0.298700  1
  H  H176  1  0.680300  0.241900  0.201300  1
  H  H177  1  0.672900  0.217900  0.655600  1
  H  H178  1  0.327100  0.717900  0.844400  1
  H  H179  1  0.327100  0.782100  0.344400  1
  H  H180  1  0.672900  0.282100  0.155600  1
  H  H181  1  0.701500  0.235400  0.609800  1
  H  H182  1  0.298500  0.735400  0.890200  1
  H  H183  1  0.298500  0.764600  0.390200  1
  H  H184  1  0.701500  0.264600  0.109800  1
  H  H185  1  0.756500  0.378800  0.694200  1
  H  H186  1  0.243500  0.878800  0.805800  1
  H  H187  1  0.243500  0.621200  0.305800  1
  H  H188  1  0.756500  0.121200  0.194200  1
  H  H189  1  0.779000  0.428500  0.658300  1
  H  H190  1  0.221000  0.928500  0.841700  1
  H  H191  1  0.221000  0.571500  0.341700  1
  H  H192  1  0.779000  0.071500  0.158300  1
  H  H193  1  0.764000  0.432500  0.589700  1
  H  H194  1  0.236000  0.932500  0.910300  1
  H  H195  1  0.236000  0.567500  0.410300  1
  H  H196  1  0.764000  0.067500  0.089700  1
  H  H197  1  0.759900  0.395000  0.569200  1
  H  H198  1  0.240100  0.895000  0.930800  1
  H  H199  1  0.240100  0.605000  0.430800  1
  H  H200  1  0.759900  0.105000  0.069200  1
  H  H201  1  0.151300  0.450500  0.757600  1
  H  H202  1  0.848700  0.950500  0.742400  1
  H  H203  1  0.848700  0.549500  0.242400  1
  H  H204  1  0.151300  0.049500  0.257600  1
  H  H205  1  0.188100  0.502600  0.789100  1
  H  H206  1  0.811900  0.002600  0.710900  1
  H  H207  1  0.811900  0.497400  0.210900  1
  H  H208  1  0.188100  0.997400  0.289100  1
  H  H209  1  0.157500  0.560200  0.767400  1
  H  H210  1  0.842500  0.060200  0.732600  1
  H  H211  1  0.842500  0.439800  0.232600  1
  H  H212  1  0.157500  0.939800  0.267400  1
  H  H213  1  0.090100  0.565700  0.714200  1
  H  H214  1  0.909900  0.065700  0.785800  1
  H  H215  1  0.909900  0.434300  0.285800  1
  H  H216  1  0.090100  0.934300  0.214200  1
  H  H217  1  0.104600  0.398100  0.721100  1
  H  H218  1  0.895400  0.898100  0.778900  1
  H  H219  1  0.895400  0.601900  0.278900  1
  H  H220  1  0.104600  0.101900  0.221100  1
  H  H221  1  0.056100  0.368800  0.663200  1
  H  H222  1  0.943900  0.868800  0.836800  1
  H  H223  1  0.943900  0.631200  0.336800  1
  H  H224  1  0.056100  0.131200  0.163200  1
  H  H225  1  0.009900  0.401600  0.596400  1
  H  H226  1  0.990100  0.901600  0.903600  1
  H  H227  1  0.990100  0.598400  0.403600  1
  H  H228  1  0.009900  0.098400  0.096400  1
  H  H229  1  0.001300  0.444600  0.597500  1
  H  H230  1  0.998700  0.944600  0.902500  1
  H  H231  1  0.998700  0.555400  0.402500  1
  H  H232  1  0.001300  0.055400  0.097500  1
  H  H233  1  0.861400  0.397800  0.647900  1
  H  H234  1  0.138600  0.897800  0.852100  1
  H  H235  1  0.138600  0.602200  0.352100  1
  H  H236  1  0.861400  0.102200  0.147900  1
  H  H237  1  0.951000  0.402700  0.655400  1
  H  H238  1  0.049000  0.902700  0.844600  1
  H  H239  1  0.049000  0.597300  0.344600  1
  H  H240  1  0.951000  0.097300  0.155400  1
  H  H241  1  0.956400  0.423600  0.545500  1
  H  H242  1  0.043600  0.923600  0.954500  1
  H  H243  1  0.043600  0.576400  0.454500  1
  H  H244  1  0.956400  0.076400  0.045500  1
  H  H245  1  0.894900  0.434000  0.490800  1
  H  H246  1  0.105100  0.934000  0.009200  1
  H  H247  1  0.105100  0.566000  0.509200  1
  H  H248  1  0.894900  0.066000  0.990800  1
  H  H249  1  0.804900  0.435800  0.485300  1
  H  H250  1  0.195100  0.935800  0.014700  1
  H  H251  1  0.195100  0.564200  0.514700  1
  H  H252  1  0.804900  0.064200  0.985300  1
  H  H253  1  0.778000  0.427800  0.533900  1
  H  H254  1  0.222000  0.927800  0.966100  1
  H  H255  1  0.222000  0.572200  0.466100  1
  H  H256  1  0.778000  0.072200  0.033900  1
  H  H257  1  0.949200  0.214600  0.767200  1
  H  H258  1  0.050800  0.714600  0.732800  1
  H  H259  1  0.050800  0.785400  0.232800  1
  H  H260  1  0.949200  0.285400  0.267200  1
  H  H261  1  0.905100  0.177300  0.793600  1
  H  H262  1  0.094900  0.677300  0.706400  1
  H  H263  1  0.094900  0.822700  0.206400  1
  H  H264  1  0.905100  0.322700  0.293600  1
  H  H265  1  0.885800  0.199600  0.842100  1
  H  H266  1  0.114200  0.699600  0.657900  1
  H  H267  1  0.114200  0.800400  0.157900  1
  H  H268  1  0.885800  0.300400  0.342100  1
  H  H269  1  0.906700  0.259100  0.859800  1
  H  H270  1  0.093300  0.759100  0.640200  1
  H  H271  1  0.093300  0.740900  0.140200  1
  H  H272  1  0.906700  0.240900  0.359800  1
  H  H273  1  0.982000  0.260800  0.734600  1
  H  H274  1  0.018000  0.760800  0.765400  1
  H  H275  1  0.018000  0.739200  0.265400  1
  H  H276  1  0.982000  0.239200  0.234600  1
  H  H277  1  0.039900  0.315100  0.736800  1
  H  H278  1  0.960100  0.815100  0.763200  1
  H  H279  1  0.960100  0.684900  0.263200  1
  H  H280  1  0.039900  0.184900  0.236800  1
  H  H281  1  0.089300  0.355900  0.790600  1
  H  H282  1  0.910700  0.855900  0.709400  1
  H  H283  1  0.910700  0.644100  0.209400  1
  H  H284  1  0.089300  0.144100  0.290600  1
  H  H285  1  0.061000  0.360200  0.819000  1
  H  H286  1  0.939000  0.860200  0.681000  1
  H  H287  1  0.939000  0.639800  0.181000  1
  H  H288  1  0.061000  0.139800  0.319000  1
  H  H289  1  0.838200  0.504400  0.584200  1
  H  H290  1  0.161800  0.004400  0.915800  1
  H  H291  1  0.161800  0.495600  0.415800  1
  H  H292  1  0.838200  0.995600  0.084200  1
  H  H293  1  0.842200  0.512500  0.529300  1
  H  H294  1  0.157800  0.012500  0.970700  1
  H  H295  1  0.157800  0.487500  0.470700  1
  H  H296  1  0.842200  0.987500  0.029300  1
  H  H297  1  0.926300  0.522400  0.525100  1
  H  H298  1  0.073700  0.022400  0.974900  1
  H  H299  1  0.073700  0.477600  0.474900  1
  H  H300  1  0.926300  0.977600  0.025100  1
  H  H301  1  0.001000  0.519600  0.576300  1
  H  H302  1  0.999000  0.019600  0.923700  1
  H  H303  1  0.999000  0.480400  0.423700  1
  H  H304  1  0.001000  0.980400  0.076300  1
  H  H305  1  0.833200  0.497900  0.644000  1
  H  H306  1  0.166800  0.997900  0.856000  1
  H  H307  1  0.166800  0.502100  0.356000  1
  H  H308  1  0.833200  0.002100  0.144000  1
  H  H309  1  0.867500  0.494000  0.706400  1
  H  H310  1  0.132500  0.994000  0.793600  1
  H  H311  1  0.132500  0.506000  0.293600  1
  H  H312  1  0.867500  0.006000  0.206400  1
  H  H313  1  0.962900  0.516200  0.747700  1
  H  H314  1  0.037100  0.016200  0.752300  1
  H  H315  1  0.037100  0.483800  0.252300  1
  H  H316  1  0.962900  0.983800  0.247700  1
  H  H317  1  0.009000  0.516300  0.731300  1
  H  H318  1  0.991000  0.016300  0.768700  1
  H  H319  1  0.991000  0.483700  0.268700  1
  H  H320  1  0.009000  0.983700  0.231300  1
  H  H321  1  0.975200  0.378500  0.738700  1
  H  H322  1  0.024800  0.878500  0.761300  1
  H  H323  1  0.024800  0.621500  0.261300  1
  H  H324  1  0.975200  0.121500  0.238700  1
  H  H325  1  0.943800  0.435000  0.714300  1
  H  H326  1  0.056200  0.935000  0.785700  1
  H  H327  1  0.056200  0.565000  0.285700  1
  H  H328  1  0.943800  0.065000  0.214300  1
  H  H329  1  0.049100  0.518500  0.790200  1
  H  H330  1  0.950900  0.018500  0.709800  1
  H  H331  1  0.950900  0.481500  0.209800  1
  H  H332  1  0.049100  0.981500  0.290200  1
  H  H333  1  0.119100  0.513900  0.841800  1
  H  H334  1  0.880900  0.013900  0.658200  1
  H  H335  1  0.880900  0.486100  0.158200  1
  H  H336  1  0.119100  0.986100  0.341800  1
  H  H337  1  0.163300  0.458600  0.857600  1
  H  H338  1  0.836700  0.958600  0.642400  1
  H  H339  1  0.836700  0.541400  0.142400  1
  H  H340  1  0.163300  0.041400  0.357600  1
  H  H341  1  0.123500  0.405400  0.830000  1
  H  H342  1  0.876500  0.905400  0.670000  1
  H  H343  1  0.876500  0.594600  0.170000  1
  H  H344  1  0.123500  0.094600  0.330000  1
  H  H345  1  0.512000  0.428800  0.606200  1
  H  H346  1  0.488000  0.928800  0.893800  1
  H  H347  1  0.488000  0.571200  0.393800  1
  H  H348  1  0.512000  0.071200  0.106200  1
  H  H349  1  0.488700  0.399300  0.552500  1
  H  H350  1  0.511300  0.899300  0.947500  1
  H  H351  1  0.511300  0.600700  0.447500  1
  H  H352  1  0.488700  0.100700  0.052500  1
  H  H353  1  0.438400  0.346100  0.543400  1
  H  H354  1  0.561600  0.846100  0.956600  1
  H  H355  1  0.561600  0.653900  0.456600  1
  H  H356  1  0.438400  0.153900  0.043400  1
  H  H357  1  0.411300  0.322500  0.588000  1
  H  H358  1  0.588700  0.822500  0.912000  1
  H  H359  1  0.588700  0.677500  0.412000  1
  H  H360  1  0.411300  0.177500  0.088000  1
  H  H361  1  0.535800  0.456900  0.664000  1
  H  H362  1  0.464200  0.956900  0.836000  1
  H  H363  1  0.464200  0.543100  0.336000  1
  H  H364  1  0.535800  0.043100  0.164000  1
  H  H365  1  0.546800  0.456200  0.728100  1
  H  H366  1  0.453200  0.956200  0.771900  1
  H  H367  1  0.453200  0.543800  0.271900  1
  H  H368  1  0.546800  0.043800  0.228100  1
  H  H369  1  0.534700  0.398400  0.768400  1
  H  H370  1  0.465300  0.898400  0.731600  1
  H  H371  1  0.465300  0.601600  0.231600  1
  H  H372  1  0.534700  0.101600  0.268400  1
  H  H373  1  0.497300  0.366300  0.748100  1
  H  H374  1  0.502700  0.866300  0.751900  1
  H  H375  1  0.502700  0.633700  0.251900  1
  H  H376  1  0.497300  0.133700  0.248100  1
  H  H377  1  0.273500  0.611200  0.795000  1
  H  H378  1  0.726500  0.111200  0.705000  1
  H  H379  1  0.726500  0.388800  0.205000  1
  H  H380  1  0.273500  0.888800  0.295000  1
  H  H381  1  0.299500  0.659200  0.834500  1
  H  H382  1  0.700500  0.159200  0.665500  1
  H  H383  1  0.700500  0.340800  0.165500  1
  H  H384  1  0.299500  0.840800  0.334500  1
  H  H385  1  0.374900  0.653600  0.883200  1
  H  H386  1  0.625100  0.153600  0.616800  1
  H  H387  1  0.625100  0.346400  0.116800  1
  H  H388  1  0.374900  0.846400  0.383200  1
  H  H389  1  0.424200  0.600000  0.892300  1
  H  H390  1  0.575800  0.100000  0.607700  1
  H  H391  1  0.575800  0.400000  0.107700  1
  H  H392  1  0.424200  0.900000  0.392300  1
  H  H393  1  0.262500  0.558900  0.752500  1
  H  H394  1  0.737500  0.058900  0.747500  1
  H  H395  1  0.737500  0.441100  0.247500  1
  H  H396  1  0.262500  0.941100  0.252500  1
  H  H397  1  0.263800  0.491400  0.740100  1
  H  H398  1  0.736200  0.991400  0.759900  1
  H  H399  1  0.736200  0.508600  0.259900  1
  H  H400  1  0.263800  0.008600  0.240100  1
  H  H401  1  0.299900  0.436000  0.785900  1
  H  H402  1  0.700100  0.936000  0.714100  1
  H  H403  1  0.700100  0.564000  0.214100  1
  H  H404  1  0.299900  0.064000  0.285900  1
  H  H405  1  0.343300  0.446300  0.822000  1
  H  H406  1  0.656700  0.946300  0.678000  1
  H  H407  1  0.656700  0.553700  0.178000  1
  H  H408  1  0.343300  0.053700  0.322000  1
  H  H409  1  0.438600  0.452300  0.730200  1
  H  H410  1  0.561400  0.952300  0.769800  1
  H  H411  1  0.561400  0.547700  0.269800  1
  H  H412  1  0.438600  0.047700  0.230200  1
  H  H413  1  0.370800  0.474700  0.748400  1
  H  H414  1  0.629200  0.974700  0.751600  1
  H  H415  1  0.629200  0.525300  0.251600  1
  H  H416  1  0.370800  0.025300  0.248400  1
  H  H417  1  0.353300  0.388700  0.826100  1
  H  H418  1  0.646700  0.888700  0.673900  1
  H  H419  1  0.646700  0.611300  0.173900  1
  H  H420  1  0.353300  0.111300  0.326100  1
  H  H421  1  0.403300  0.340400  0.855600  1
  H  H422  1  0.596700  0.840400  0.644400  1
  H  H423  1  0.596700  0.659600  0.144400  1
  H  H424  1  0.403300  0.159600  0.355600  1
  H  H425  1  0.473600  0.319900  0.838800  1
  H  H426  1  0.526400  0.819900  0.661200  1
  H  H427  1  0.526400  0.680100  0.161200  1
  H  H428  1  0.473600  0.180100  0.338800  1
  H  H429  1  0.503700  0.353800  0.800900  1
  H  H430  1  0.496300  0.853800  0.699100  1
  H  H431  1  0.496300  0.646200  0.199100  1
  H  H432  1  0.503700  0.146200  0.300900  1
  H  H433  1  0.315300  0.342700  0.742200  1
  H  H434  1  0.684700  0.842700  0.757800  1
  H  H435  1  0.684700  0.657300  0.257800  1
  H  H436  1  0.315300  0.157300  0.242200  1
  H  H437  1  0.355100  0.294200  0.778200  1
  H  H438  1  0.644900  0.794200  0.721800  1
  H  H439  1  0.644900  0.705800  0.221800  1
  H  H440  1  0.355100  0.205800  0.278200  1
  H  H441  1  0.430100  0.266700  0.772500  1
  H  H442  1  0.569900  0.766700  0.727500  1
  H  H443  1  0.569900  0.733300  0.227500  1
  H  H444  1  0.430100  0.233300  0.272500  1
  H  H445  1  0.465300  0.287900  0.730800  1
  H  H446  1  0.534700  0.787900  0.769200  1
  H  H447  1  0.534700  0.712100  0.269200  1
  H  H448  1  0.465300  0.212100  0.230800  1
  H  H449  1  0.275000  0.390900  0.699400  1
  H  H450  1  0.725000  0.890900  0.800600  1
  H  H451  1  0.725000  0.609100  0.300600  1
  H  H452  1  0.275000  0.109100  0.199400  1
  H  H453  1  0.255600  0.422700  0.641500  1
  H  H454  1  0.744400  0.922700  0.858500  1
  H  H455  1  0.744400  0.577300  0.358500  1
  H  H456  1  0.255600  0.077300  0.141500  1
  H  H457  1  0.295400  0.411400  0.586800  1
  H  H458  1  0.704600  0.911400  0.913200  1
  H  H459  1  0.704600  0.588600  0.413200  1
  H  H460  1  0.295400  0.088600  0.086800  1
  H  H461  1  0.348300  0.387700  0.596200  1
  H  H462  1  0.651700  0.887700  0.903800  1
  H  H463  1  0.651700  0.612300  0.403800  1
  H  H464  1  0.348300  0.112300  0.096200  1
  H  H465  1  0.512100  0.626700  0.745200  1
  H  H466  1  0.487900  0.126700  0.754800  1
  H  H467  1  0.487900  0.373300  0.254800  1
  H  H468  1  0.512100  0.873300  0.245200  1
  H  H469  1  0.486500  0.682500  0.762200  1
  H  H470  1  0.513500  0.182500  0.737800  1
  H  H471  1  0.513500  0.317500  0.237800  1
  H  H472  1  0.486500  0.817500  0.262200  1
  H  H473  1  0.416300  0.714700  0.724200  1
  H  H474  1  0.583700  0.214700  0.775800  1
  H  H475  1  0.583700  0.285300  0.275800  1
  H  H476  1  0.416300  0.785300  0.224200  1
  H  H477  1  0.371600  0.691200  0.669200  1
  H  H478  1  0.628400  0.191200  0.830800  1
  H  H479  1  0.628400  0.308800  0.330800  1
  H  H480  1  0.371600  0.808800  0.169200  1
  H  H481  1  0.537500  0.569900  0.724800  1
  H  H482  1  0.462500  0.069900  0.775200  1
  H  H483  1  0.462500  0.430100  0.275200  1
  H  H484  1  0.537500  0.930100  0.224800  1
  H  H485  1  0.539300  0.525800  0.677500  1
  H  H486  1  0.460700  0.025800  0.822500  1
  H  H487  1  0.460700  0.474200  0.322500  1
  H  H488  1  0.539300  0.974200  0.177500  1
  H  H489  1  0.494800  0.527500  0.609400  1
  H  H490  1  0.505200  0.027500  0.890600  1
  H  H491  1  0.505200  0.472500  0.390600  1
  H  H492  1  0.494800  0.972500  0.109400  1
  H  H493  1  0.444100  0.552600  0.593400  1
  H  H494  1  0.555900  0.052600  0.906600  1
  H  H495  1  0.555900  0.447400  0.406600  1
  H  H496  1  0.444100  0.947400  0.093400  1
  H  H497  1  0.370400  0.455800  0.657800  1
  H  H498  1  0.629600  0.955800  0.842200  1
  H  H499  1  0.629600  0.544200  0.342200  1
  H  H500  1  0.370400  0.044200  0.157800  1
  H  H501  1  0.423900  0.506700  0.660900  1
  H  H502  1  0.576100  0.006700  0.839100  1
  H  H503  1  0.576100  0.493300  0.339100  1
  H  H504  1  0.423900  0.993300  0.160900  1
  H  H505  1  0.441900  0.513000  0.551800  1
  H  H506  1  0.558100  0.013000  0.948200  1
  H  H507  1  0.558100  0.487000  0.448200  1
  H  H508  1  0.441900  0.987000  0.051800  1
  H  H509  1  0.409800  0.479000  0.501900  1
  H  H510  1  0.590200  0.979000  0.998100  1
  H  H511  1  0.590200  0.521000  0.498100  1
  H  H512  1  0.409800  0.021000  0.001900  1
  H  H513  1  0.354600  0.429500  0.498500  1
  H  H514  1  0.645400  0.929500  0.001500  1
  H  H515  1  0.645400  0.570500  0.501500  1
  H  H516  1  0.354600  0.070500  0.998500  1
  H  H517  1  0.337100  0.411400  0.548700  1
  H  H518  1  0.662900  0.911400  0.951300  1
  H  H519  1  0.662900  0.588600  0.451300  1
  H  H520  1  0.337100  0.088600  0.048700  1
  H  H521  1  0.525100  0.416200  0.868600  1
  H  H522  1  0.474900  0.916200  0.631400  1
  H  H523  1  0.474900  0.583800  0.131400  1
  H  H524  1  0.525100  0.083800  0.368600  1
  H  H525  1  0.498400  0.380000  0.906800  1
  H  H526  1  0.501600  0.880000  0.593200  1
  H  H527  1  0.501600  0.620000  0.093200  1
  H  H528  1  0.498400  0.120000  0.406800  1
  H  H529  1  0.427200  0.398000  0.923700  1
  H  H530  1  0.572800  0.898000  0.576300  1
  H  H531  1  0.572800  0.602000  0.076300  1
  H  H532  1  0.427200  0.102000  0.423700  1
  H  H533  1  0.382800  0.452100  0.902500  1
  H  H534  1  0.617200  0.952100  0.597500  1
  H  H535  1  0.617200  0.547900  0.097500  1
  H  H536  1  0.382800  0.047900  0.402500  1
  H  H537  1  0.548900  0.460100  0.828000  1
  H  H538  1  0.451100  0.960100  0.672000  1
  H  H539  1  0.451100  0.539900  0.172000  1
  H  H540  1  0.548900  0.039900  0.328000  1
  H  H541  1  0.550700  0.522800  0.802600  1
  H  H542  1  0.449300  0.022800  0.697400  1
  H  H543  1  0.449300  0.477200  0.197400  1
  H  H544  1  0.550700  0.977200  0.302600  1
  H  H545  1  0.507500  0.585400  0.814900  1
  H  H546  1  0.492500  0.085400  0.685100  1
  H  H547  1  0.492500  0.414600  0.185100  1
  H  H548  1  0.507500  0.914600  0.314900  1
  H  H549  1  0.464500  0.581600  0.833900  1
  H  H550  1  0.535500  0.081600  0.666100  1
  H  H551  1  0.535500  0.418400  0.166100  1
  H  H552  1  0.464500  0.918400  0.333900  1
  H  H553  1  0.284500  0.522200  0.547800  1
  H  H554  1  0.715500  0.022200  0.952200  1
  H  H555  1  0.715500  0.477800  0.452200  1
  H  H556  1  0.284500  0.977800  0.047800  1
  H  H557  1  0.310300  0.534200  0.499500  1
  H  H558  1  0.689700  0.034200  0.000500  1
  H  H559  1  0.689700  0.465800  0.500500  1
  H  H560  1  0.310300  0.965800  0.999500  1
  H  H561  1  0.367000  0.582700  0.500600  1
  H  H562  1  0.633000  0.082700  0.999400  1
  H  H563  1  0.633000  0.417300  0.499400  1
  H  H564  1  0.367000  0.917300  0.000600  1
  H  H565  1  0.397900  0.619200  0.550100  1
  H  H566  1  0.602100  0.119200  0.949900  1
  H  H567  1  0.602100  0.380800  0.449900  1
  H  H568  1  0.397900  0.880800  0.050100  1
  H  H569  1  0.262800  0.513900  0.602100  1
  H  H570  1  0.737200  0.013900  0.897900  1
  H  H571  1  0.737200  0.486100  0.397900  1
  H  H572  1  0.262800  0.986100  0.102100  1
  H  H573  1  0.253200  0.534900  0.658900  1
  H  H574  1  0.746800  0.034900  0.841100  1
  H  H575  1  0.746800  0.465100  0.341100  1
  H  H576  1  0.253200  0.965100  0.158900  1
  H  H577  1  0.274500  0.602100  0.689000  1
  H  H578  1  0.725500  0.102100  0.811000  1
  H  H579  1  0.725500  0.397900  0.311000  1
  H  H580  1  0.274500  0.897900  0.189000  1
  H  H581  1  0.314100  0.626800  0.677100  1
  H  H582  1  0.685900  0.126800  0.822900  1
  H  H583  1  0.685900  0.373200  0.322900  1
  H  H584  1  0.314100  0.873200  0.177100  1
  H  H585  1  0.435900  0.531500  0.756500  1
  H  H586  1  0.564100  0.031500  0.743500  1
  H  H587  1  0.564100  0.468500  0.243500  1
  H  H588  1  0.435900  0.968500  0.256500  1
  H  H589  1  0.368300  0.543700  0.704700  1
  H  H590  1  0.631700  0.043700  0.795300  1
  H  H591  1  0.631700  0.456300  0.295300  1
  H  H592  1  0.368300  0.956300  0.204700  1
  H  H593  1  0.305700  0.655400  0.720200  1
  H  H594  1  0.694300  0.155400  0.779800  1
  H  H595  1  0.694300  0.344600  0.279800  1
  H  H596  1  0.305700  0.844600  0.220200  1
  H  H597  1  0.328800  0.700800  0.762600  1
  H  H598  1  0.671200  0.200800  0.737400  1
  H  H599  1  0.671200  0.299200  0.237400  1
  H  H600  1  0.328800  0.799200  0.262600  1
  H  H601  1  0.402300  0.691100  0.812100  1
  H  H602  1  0.597700  0.191100  0.687900  1
  H  H603  1  0.597700  0.308900  0.187900  1
  H  H604  1  0.402300  0.808900  0.312100  1
  H  H605  1  0.449300  0.636900  0.821200  1
  H  H606  1  0.550700  0.136900  0.678800  1
  H  H607  1  0.550700  0.363100  0.178800  1
  H  H608  1  0.449300  0.863100  0.321200  1
  H  H609  1  0.631100  0.237000  0.486900  1
  H  H610  1  0.368900  0.737000  0.013100  1
  H  H611  1  0.368900  0.763000  0.513100  1
  H  H612  1  0.631100  0.263000  0.986900  1
  H  H613  1  0.690500  0.190900  0.486100  1
  H  H614  1  0.309500  0.690900  0.013900  1
  H  H615  1  0.309500  0.809100  0.513900  1
  H  H616  1  0.690500  0.309100  0.986100  1
  H  H617  1  0.773300  0.189200  0.528800  1
  H  H618  1  0.226700  0.689200  0.971200  1
  H  H619  1  0.226700  0.810800  0.471200  1
  H  H620  1  0.773300  0.310800  0.028800  1
  H  H621  1  0.796700  0.233500  0.572200  1
  H  H622  1  0.203300  0.733500  0.927800  1
  H  H623  1  0.203300  0.766500  0.427800  1
  H  H624  1  0.796700  0.266500  0.072200  1
  H  H625  1  0.570900  0.285700  0.490700  1
  H  H626  1  0.429100  0.785700  0.009300  1
  H  H627  1  0.429100  0.714300  0.509300  1
  H  H628  1  0.570900  0.214300  0.990700  1
  H  H629  1  0.548500  0.344800  0.514600  1
  H  H630  1  0.451500  0.844800  0.985400  1
  H  H631  1  0.451500  0.655200  0.485400  1
  H  H632  1  0.548500  0.155200  0.014600  1
  H  H633  1  0.605800  0.388700  0.566400  1
  H  H634  1  0.394200  0.888700  0.933600  1
  H  H635  1  0.394200  0.611300  0.433600  1
  H  H636  1  0.605800  0.111300  0.066400  1
  H  H637  1  0.664900  0.376700  0.585700  1
  H  H638  1  0.335100  0.876700  0.914300  1
  H  H639  1  0.335100  0.623300  0.414300  1
  H  H640  1  0.664900  0.123300  0.085700  1
  H  H641  1  0.406900  0.213200  0.635000  1
  H  H642  1  0.593100  0.713200  0.865000  1
  H  H643  1  0.593100  0.786800  0.365000  1
  H  H644  1  0.406900  0.286800  0.135000  1
  H  H645  1  0.318900  0.214400  0.599600  1
  H  H646  1  0.681100  0.714400  0.900400  1
  H  H647  1  0.681100  0.785600  0.400400  1
  H  H648  1  0.318900  0.285600  0.099600  1
  H  H649  1  0.272100  0.269100  0.590500  1
  H  H650  1  0.727900  0.769100  0.909500  1
  H  H651  1  0.727900  0.730900  0.409500  1
  H  H652  1  0.272100  0.230900  0.090500  1
  H  H653  1  0.313300  0.322600  0.616800  1
  H  H654  1  0.686700  0.822600  0.883200  1
  H  H655  1  0.686700  0.677400  0.383200  1
  H  H656  1  0.313300  0.177400  0.116800  1
  H  H657  1  0.502200  0.217800  0.678600  1
  H  H658  1  0.497800  0.717800  0.821400  1
  H  H659  1  0.497800  0.782200  0.321400  1
  H  H660  1  0.502200  0.282200  0.178600  1
  H  H661  1  0.585200  0.252700  0.710200  1
  H  H662  1  0.414800  0.752700  0.789800  1
  H  H663  1  0.414800  0.747300  0.289800  1
  H  H664  1  0.585200  0.247300  0.210200  1
  H  H665  1  0.564600  0.352100  0.706000  1
  H  H666  1  0.435400  0.852100  0.794000  1
  H  H667  1  0.435400  0.647900  0.294000  1
  H  H668  1  0.564600  0.147900  0.206000  1
  H  H669  1  0.611200  0.323200  0.715900  1
  H  H670  1  0.388800  0.823200  0.784100  1
  H  H671  1  0.388800  0.676800  0.284100  1
  H  H672  1  0.611200  0.176800  0.215900  1
  H  H673  1  0.582800  0.309500  0.591300  1
  H  H674  1  0.417200  0.809500  0.908700  1
  H  H675  1  0.417200  0.690500  0.408700  1
  H  H676  1  0.582800  0.190500  0.091300  1
  H  H677  1  0.562100  0.293200  0.640600  1
  H  H678  1  0.437900  0.793200  0.859400  1
  H  H679  1  0.437900  0.706800  0.359400  1
  H  H680  1  0.562100  0.206800  0.140600  1
  H  H681  1  0.627200  0.386800  0.718400  1
  H  H682  1  0.372800  0.886800  0.781600  1
  H  H683  1  0.372800  0.613200  0.281600  1
  H  H684  1  0.627200  0.113200  0.218400  1
  H  H685  1  0.664700  0.443600  0.714500  1
  H  H686  1  0.335300  0.943600  0.785500  1
  H  H687  1  0.335300  0.556400  0.285500  1
  H  H688  1  0.664700  0.056400  0.214500  1
  H  H689  1  0.670100  0.464600  0.661500  1
  H  H690  1  0.329900  0.964600  0.838500  1
  H  H691  1  0.329900  0.535400  0.338500  1
  H  H692  1  0.670100  0.035400  0.161500  1
  H  H693  1  0.649400  0.425100  0.614800  1
  H  H694  1  0.350600  0.925100  0.885200  1
  H  H695  1  0.350600  0.574900  0.385200  1
  H  H696  1  0.649400  0.074900  0.114800  1
  H  H697  1  0.064900  0.270400  0.955800  1
  H  H698  1  0.935100  0.770400  0.544200  1
  H  H699  1  0.935100  0.729600  0.044200  1
  H  H700  1  0.064900  0.229600  0.455800  1
  H  H701  1  0.126800  0.236200  0.940200  1
  H  H702  1  0.873200  0.736200  0.559800  1
  H  H703  1  0.873200  0.763800  0.059800  1
  H  H704  1  0.126800  0.263800  0.440200  1
  H  H705  1  0.129700  0.239300  0.883700  1
  H  H706  1  0.870300  0.739300  0.616300  1
  H  H707  1  0.870300  0.760700  0.116300  1
  H  H708  1  0.129700  0.260700  0.383700  1
  H  H709  1  0.070500  0.276500  0.842700  1
  H  H710  1  0.929500  0.776500  0.657300  1
  H  H711  1  0.929500  0.723500  0.157300  1
  H  H712  1  0.070500  0.223500  0.342700  1
  H  H713  1  0.994700  0.310600  0.968400  1
  H  H714  1  0.005300  0.810600  0.531600  1
  H  H715  1  0.005300  0.689400  0.031600  1
  H  H716  1  0.994700  0.189400  0.468400  1
  H  H717  1  0.903800  0.338700  0.947800  1
  H  H718  1  0.096200  0.838700  0.552200  1
  H  H719  1  0.096200  0.661300  0.052200  1
  H  H720  1  0.903800  0.161300  0.447800  1
  H  H721  1  0.831300  0.338800  0.885200  1
  H  H722  1  0.168700  0.838800  0.614800  1
  H  H723  1  0.168700  0.661200  0.114800  1
  H  H724  1  0.831300  0.161200  0.385200  1
  H  H725  1  0.850800  0.337300  0.852300  1
  H  H726  1  0.149200  0.837300  0.647700  1
  H  H727  1  0.149200  0.662700  0.147700  1
  H  H728  1  0.850800  0.162700  0.352300  1
  H  H729  1  0.035500  0.550600  0.979800  1
  H  H730  1  0.964500  0.050600  0.520200  1
  H  H731  1  0.964500  0.449400  0.020200  1
  H  H732  1  0.035500  0.949400  0.479800  1
  H  H733  1  0.055700  0.557300  0.039700  1
  H  H734  1  0.944300  0.057300  0.460300  1
  H  H735  1  0.944300  0.442700  0.960300  1
  H  H736  1  0.055700  0.942700  0.539700  1
  H  H737  1  0.989300  0.552400  0.064600  1
  H  H738  1  0.010700  0.052400  0.435400  1
  H  H739  1  0.010700  0.447600  0.935400  1
  H  H740  1  0.989300  0.947600  0.564600  1
  H  H741  1  0.902800  0.540800  0.029700  1
  H  H742  1  0.097200  0.040800  0.470300  1
  H  H743  1  0.097200  0.459200  0.970300  1
  H  H744  1  0.902800  0.959200  0.529700  1
  H  H745  1  0.005700  0.543100  0.916200  1
  H  H746  1  0.994300  0.043100  0.583800  1
  H  H747  1  0.994300  0.456900  0.083800  1
  H  H748  1  0.005700  0.956900  0.416200  1
  H  H749  1  0.941900  0.526800  0.857000  1
  H  H750  1  0.058100  0.026800  0.643000  1
  H  H751  1  0.058100  0.473200  0.143000  1
  H  H752  1  0.941900  0.973200  0.357000  1
  H  H753  1  0.832800  0.509800  0.834000  1
  H  H754  1  0.167200  0.009800  0.666000  1
  H  H755  1  0.167200  0.490200  0.166000  1
  H  H756  1  0.832800  0.990200  0.334000  1
  H  H757  1  0.805600  0.512000  0.863400  1
  H  H758  1  0.194400  0.012000  0.636600  1
  H  H759  1  0.194400  0.488000  0.136600  1
  H  H760  1  0.805600  0.988000  0.363400  1
  H  H761  1  0.926900  0.399200  0.903100  1
  H  H762  1  0.073100  0.899200  0.596900  1
  H  H763  1  0.073100  0.600800  0.096900  1
  H  H764  1  0.926900  0.100800  0.403100  1
  H  H765  1  0.919700  0.462300  0.896300  1
  H  H766  1  0.080300  0.962300  0.603700  1
  H  H767  1  0.080300  0.537700  0.103700  1
  H  H768  1  0.919700  0.037700  0.396300  1
  H  H769  1  0.750000  0.480800  0.821500  1
  H  H770  1  0.250000  0.980800  0.678500  1
  H  H771  1  0.250000  0.519200  0.178500  1
  H  H772  1  0.750000  0.019200  0.321500  1
  H  H773  1  0.677400  0.443000  0.797300  1
  H  H774  1  0.322600  0.943000  0.702700  1
  H  H775  1  0.322600  0.557000  0.202700  1
  H  H776  1  0.677400  0.057000  0.297300  1
  H  H777  1  0.688100  0.380800  0.800200  1
  H  H778  1  0.311900  0.880800  0.699800  1
  H  H779  1  0.311900  0.619200  0.199800  1
  H  H780  1  0.688100  0.119200  0.300200  1
  H  H781  1  0.765600  0.354800  0.835000  1
  H  H782  1  0.234400  0.854800  0.665000  1
  H  H783  1  0.234400  0.645200  0.165000  1
  H  H784  1  0.765600  0.145200  0.335000  1
  H  H785  1  0.360200  0.538800  0.969200  1
  H  H786  1  0.639800  0.038800  0.530800  1
  H  H787  1  0.639800  0.461200  0.030800  1
  H  H788  1  0.360200  0.961200  0.469200  1
  H  H789  1  0.268900  0.533200  0.945600  1
  H  H790  1  0.731100  0.033200  0.554400  1
  H  H791  1  0.731100  0.466800  0.054400  1
  H  H792  1  0.268900  0.966800  0.445600  1
  H  H793  1  0.229800  0.519500  0.886800  1
  H  H794  1  0.770200  0.019500  0.613200  1
  H  H795  1  0.770200  0.480500  0.113200  1
  H  H796  1  0.229800  0.980500  0.386800  1
  H  H797  1  0.282000  0.511200  0.851600  1
  H  H798  1  0.718000  0.011200  0.648400  1
  H  H799  1  0.718000  0.488800  0.148400  1
  H  H800  1  0.282000  0.988800  0.351600  1
  H  H801  1  0.460200  0.535700  0.991800  1
  H  H802  1  0.539800  0.035700  0.508200  1
  H  H803  1  0.539800  0.464300  0.008200  1
  H  H804  1  0.460200  0.964300  0.491800  1
  H  H805  1  0.548900  0.543800  0.983800  1
  H  H806  1  0.451100  0.043800  0.516200  1
  H  H807  1  0.451100  0.456200  0.016200  1
  H  H808  1  0.548900  0.956200  0.483800  1
  H  H809  1  0.544100  0.567400  0.900900  1
  H  H810  1  0.455900  0.067400  0.599100  1
  H  H811  1  0.455900  0.432600  0.099100  1
  H  H812  1  0.544100  0.932600  0.400900  1
  H  H813  1  0.539800  0.524800  0.892500  1
  H  H814  1  0.460200  0.024800  0.607500  1
  H  H815  1  0.460200  0.475200  0.107500  1
  H  H816  1  0.539800  0.975200  0.392500  1
  H  H817  1  0.889600  0.665100  0.999600  1
  H  H818  1  0.110400  0.165100  0.500400  1
  H  H819  1  0.110400  0.334900  0.000400  1
  H  H820  1  0.889600  0.834900  0.499600  1
  H  H821  1  0.932000  0.689300  0.962900  1
  H  H822  1  0.068000  0.189300  0.537100  1
  H  H823  1  0.068000  0.310700  0.037100  1
  H  H824  1  0.932000  0.810700  0.462900  1
  H  H825  1  0.933200  0.656800  0.914000  1
  H  H826  1  0.066800  0.156800  0.586000  1
  H  H827  1  0.066800  0.343200  0.086000  1
  H  H828  1  0.933200  0.843200  0.414000  1
  H  H829  1  0.891900  0.600000  0.901700  1
  H  H830  1  0.108100  0.100000  0.598300  1
  H  H831  1  0.108100  0.400000  0.098300  1
  H  H832  1  0.891900  0.900000  0.401700  1
  H  H833  1  0.845100  0.635300  0.037200  1
  H  H834  1  0.154900  0.135300  0.462800  1
  H  H835  1  0.154900  0.364700  0.962800  1
  H  H836  1  0.845100  0.864700  0.537200  1
  H  H837  1  0.793700  0.584800  0.053700  1
  H  H838  1  0.206300  0.084800  0.446300  1
  H  H839  1  0.206300  0.415200  0.946300  1
  H  H840  1  0.793700  0.915200  0.553700  1
  H  H841  1  0.763000  0.518700  0.025800  1
  H  H842  1  0.237000  0.018700  0.474200  1
  H  H843  1  0.237000  0.481300  0.974200  1
  H  H844  1  0.763000  0.981300  0.525800  1
  H  H845  1  0.783700  0.507400  0.994800  1
  H  H846  1  0.216300  0.007400  0.505200  1
  H  H847  1  0.216300  0.492600  0.005200  1
  H  H848  1  0.783700  0.992600  0.494800  1
  H  H849  1  0.622300  0.591300  0.935900  1
  H  H850  1  0.377700  0.091300  0.564100  1
  H  H851  1  0.377700  0.408700  0.064100  1
  H  H852  1  0.622300  0.908700  0.435900  1
  H  H853  1  0.710000  0.584300  0.970800  1
  H  H854  1  0.290000  0.084300  0.529200  1
  H  H855  1  0.290000  0.415700  0.029200  1
  H  H856  1  0.710000  0.915700  0.470800  1
  H  H857  1  0.554200  0.474200  0.926000  1
  H  H858  1  0.445800  0.974200  0.574000  1
  H  H859  1  0.445800  0.525800  0.074000  1
  H  H860  1  0.554200  0.025800  0.426000  1
  H  H861  1  0.589100  0.417800  0.946800  1
  H  H862  1  0.410900  0.917800  0.553200  1
  H  H863  1  0.410900  0.582200  0.053200  1
  H  H864  1  0.589100  0.082200  0.446800  1
  H  H865  1  0.678800  0.410700  0.976300  1
  H  H866  1  0.321200  0.910700  0.523700  1
  H  H867  1  0.321200  0.589300  0.023700  1
  H  H868  1  0.678800  0.089300  0.476300  1
  H  H869  1  0.731400  0.462300  0.992800  1
  H  H870  1  0.268600  0.962300  0.507200  1
  H  H871  1  0.268600  0.537700  0.007200  1
  H  H872  1  0.731400  0.037700  0.492800  1
  H  H873  1  0.121600  0.593900  0.602000  1
  H  H874  1  0.878400  0.093900  0.898000  1
  H  H875  1  0.878400  0.406100  0.398000  1
  H  H876  1  0.121600  0.906100  0.102000  1
  H  H877  1  0.167900  0.549300  0.583300  1
  H  H878  1  0.832100  0.049300  0.916700  1
  H  H879  1  0.832100  0.450700  0.416700  1
  H  H880  1  0.167900  0.950700  0.083300  1
  H  H881  1  0.157900  0.487900  0.595000  1
  H  H882  1  0.842100  0.987900  0.905000  1
  H  H883  1  0.842100  0.512100  0.405000  1
  H  H884  1  0.157900  0.012100  0.095000  1
  H  H885  1  0.101600  0.471300  0.625400  1
  H  H886  1  0.898400  0.971300  0.874600  1
  H  H887  1  0.898400  0.528700  0.374600  1
  H  H888  1  0.101600  0.028700  0.125400  1
  H  H889  1  0.065400  0.636200  0.621800  1
  H  H890  1  0.934600  0.136200  0.878200  1
  H  H891  1  0.934600  0.363800  0.378200  1
  H  H892  1  0.065400  0.863800  0.121800  1
  H  H893  1  0.997200  0.654700  0.649100  1
  H  H894  1  0.002800  0.154700  0.850900  1
  H  H895  1  0.002800  0.345300  0.350900  1
  H  H896  1  0.997200  0.845300  0.149100  1
  H  H897  1  0.959000  0.575100  0.691600  1
  H  H898  1  0.041000  0.075100  0.808400  1
  H  H899  1  0.041000  0.424900  0.308400  1
  H  H900  1  0.959000  0.924900  0.191600  1
  H  H901  1  0.917700  0.587200  0.655100  1
  H  H902  1  0.082300  0.087200  0.844900  1
  H  H903  1  0.082300  0.412800  0.344900  1
  H  H904  1  0.917700  0.912800  0.155100  1
  H  H905  1  0.676500  0.783100  0.633500  1
  H  H906  1  0.323500  0.283100  0.866500  1
  H  H907  1  0.323500  0.216900  0.366500  1
  H  H908  1  0.676500  0.716900  0.133500  1
  H  H909  1  0.587600  0.773700  0.625800  1
  H  H910  1  0.412400  0.273700  0.874200  1
  H  H911  1  0.412400  0.226300  0.374200  1
  H  H912  1  0.587600  0.726300  0.125800  1
  H  H913  1  0.563100  0.735000  0.663300  1
  H  H914  1  0.436900  0.235000  0.836700  1
  H  H915  1  0.436900  0.265000  0.336700  1
  H  H916  1  0.563100  0.765000  0.163300  1
  H  H917  1  0.627500  0.705800  0.708500  1
  H  H918  1  0.372500  0.205800  0.791500  1
  H  H919  1  0.372500  0.294200  0.291500  1
  H  H920  1  0.627500  0.794200  0.208500  1
  H  H921  1  0.777300  0.793200  0.650300  1
  H  H922  1  0.222700  0.293200  0.849700  1
  H  H923  1  0.222700  0.206800  0.349700  1
  H  H924  1  0.777300  0.706800  0.150300  1
  H  H925  1  0.872700  0.779400  0.683800  1
  H  H926  1  0.127300  0.279400  0.816200  1
  H  H927  1  0.127300  0.220600  0.316200  1
  H  H928  1  0.872700  0.720600  0.183800  1
  H  H929  1  0.881500  0.713900  0.753700  1
  H  H930  1  0.118500  0.213900  0.746300  1
  H  H931  1  0.118500  0.286100  0.246300  1
  H  H932  1  0.881500  0.786100  0.253700  1
  H  H933  1  0.917600  0.740800  0.740800  1
  H  H934  1  0.082400  0.240800  0.759200  1
  H  H935  1  0.082400  0.259200  0.259200  1
  H  H936  1  0.917600  0.759200  0.240800  1
  H  H937  1  0.874200  0.638600  0.648900  1
  H  H938  1  0.125800  0.138600  0.851100  1
  H  H939  1  0.125800  0.361400  0.351100  1
  H  H940  1  0.874200  0.861400  0.148900  1
  H  H941  1  0.846600  0.690200  0.671600  1
  H  H942  1  0.153400  0.190200  0.828400  1
  H  H943  1  0.153400  0.309800  0.328400  1
  H  H944  1  0.846600  0.809800  0.171600  1
  H  H945  1  0.972100  0.706300  0.778500  1
  H  H946  1  0.027900  0.206300  0.721500  1
  H  H947  1  0.027900  0.293700  0.221500  1
  H  H948  1  0.972100  0.793700  0.278500  1
  H  H949  1  0.048400  0.676800  0.810500  1
  H  H950  1  0.951600  0.176800  0.689500  1
  H  H951  1  0.951600  0.323200  0.189500  1
  H  H952  1  0.048400  0.823200  0.310500  1
  H  H953  1  0.080000  0.628800  0.785400  1
  H  H954  1  0.920000  0.128800  0.714600  1
  H  H955  1  0.920000  0.371200  0.214600  1
  H  H956  1  0.080000  0.871200  0.285400  1
  H  H957  1  0.031900  0.606100  0.731000  1
  H  H958  1  0.968100  0.106100  0.769000  1
  H  H959  1  0.968100  0.393900  0.269000  1
  H  H960  1  0.031900  0.893900  0.231000  1
  H  H961  1  0.725500  0.438900  0.894200  1
  H  H962  1  0.274500  0.938900  0.605800  1
  H  H963  1  0.274500  0.561100  0.105800  1
  H  H964  1  0.725500  0.061100  0.394200  1
  H  H965  1  0.778100  0.394000  0.929400  1
  H  H966  1  0.221900  0.894000  0.570600  1
  H  H967  1  0.221900  0.606000  0.070600  1
  H  H968  1  0.778100  0.106000  0.429400  1
  H  H969  1  0.854200  0.410300  0.974400  1
  H  H970  1  0.145800  0.910300  0.525600  1
  H  H971  1  0.145800  0.589700  0.025600  1
  H  H972  1  0.854200  0.089700  0.474400  1
  H  H973  1  0.877600  0.471600  0.984200  1
  H  H974  1  0.122400  0.971600  0.515800  1
  H  H975  1  0.122400  0.528400  0.015800  1
  H  H976  1  0.877600  0.028400  0.484200  1
  H  H977  1  0.667500  0.496500  0.866100  1
  H  H978  1  0.332500  0.996500  0.633900  1
  H  H979  1  0.332500  0.503500  0.133900  1
  H  H980  1  0.667500  0.003500  0.366100  1
  H  H981  1  0.651900  0.564000  0.855000  1
  H  H982  1  0.348100  0.064000  0.645000  1
  H  H983  1  0.348100  0.436000  0.145000  1
  H  H984  1  0.651900  0.936000  0.355000  1
  H  H985  1  0.755700  0.611800  0.920000  1
  H  H986  1  0.244300  0.111800  0.580000  1
  H  H987  1  0.244300  0.388200  0.080000  1
  H  H988  1  0.755700  0.888200  0.420000  1
  H  H989  1  0.702500  0.619800  0.889100  1
  H  H990  1  0.297500  0.119800  0.610900  1
  H  H991  1  0.297500  0.380200  0.110900  1
  H  H992  1  0.702500  0.880200  0.389100  1
  H  H993  1  0.815100  0.593100  0.680500  1
  H  H994  1  0.184900  0.093100  0.819500  1
  H  H995  1  0.184900  0.406900  0.319500  1
  H  H996  1  0.815100  0.906900  0.180500  1
  H  H997  1  0.752100  0.592300  0.625200  1
  H  H998  1  0.247900  0.092300  0.874800  1
  H  H999  1  0.247900  0.407700  0.374800  1
  H  H1000  1  0.752100  0.907700  0.125200  1
  H  H1001  1  0.682100  0.633500  0.611200  1
  H  H1002  1  0.317900  0.133500  0.888800  1
  H  H1003  1  0.317900  0.366500  0.388800  1
  H  H1004  1  0.682100  0.866500  0.111200  1
  H  H1005  1  0.675200  0.675400  0.652600  1
  H  H1006  1  0.324800  0.175400  0.847400  1
  H  H1007  1  0.324800  0.324600  0.347400  1
  H  H1008  1  0.675200  0.824600  0.152600  1
  H  H1009  1  0.880400  0.596400  0.740100  1
  H  H1010  1  0.119600  0.096400  0.759900  1
  H  H1011  1  0.119600  0.403600  0.259900  1
  H  H1012  1  0.880400  0.903600  0.240100  1
  H  H1013  1  0.916500  0.622800  0.800700  1
  H  H1014  1  0.083500  0.122800  0.699300  1
  H  H1015  1  0.083500  0.377200  0.199300  1
  H  H1016  1  0.916500  0.877200  0.300700  1
  H  H1017  1  0.841300  0.702900  0.809800  1
  H  H1018  1  0.158700  0.202900  0.690200  1
  H  H1019  1  0.158700  0.297100  0.190200  1
  H  H1020  1  0.841300  0.797100  0.309800  1
  H  H1021  1  0.891900  0.679700  0.830800  1
  H  H1022  1  0.108100  0.179700  0.669200  1
  H  H1023  1  0.108100  0.320300  0.169200  1
  H  H1024  1  0.891900  0.820300  0.330800  1
  H  H1025  1  0.763100  0.584200  0.841600  1
  H  H1026  1  0.236900  0.084200  0.658400  1
  H  H1027  1  0.236900  0.415800  0.158400  1
  H  H1028  1  0.763100  0.915800  0.341600  1
  H  H1029  1  0.809600  0.612200  0.809200  1
  H  H1030  1  0.190400  0.112200  0.690800  1
  H  H1031  1  0.190400  0.387800  0.190800  1
  H  H1032  1  0.809600  0.887800  0.309200  1
  H  H1033  1  0.853900  0.725100  0.859300  1
  H  H1034  1  0.146100  0.225100  0.640700  1
  H  H1035  1  0.146100  0.274900  0.140700  1
  H  H1036  1  0.853900  0.774900  0.359300  1
  H  H1037  1  0.846300  0.752900  0.908700  1
  H  H1038  1  0.153700  0.252900  0.591300  1
  H  H1039  1  0.153700  0.247100  0.091300  1
  H  H1040  1  0.846300  0.747100  0.408700  1
  H  H1041  1  0.795600  0.727200  0.938700  1
  H  H1042  1  0.204400  0.227200  0.561300  1
  H  H1043  1  0.204400  0.272800  0.061300  1
  H  H1044  1  0.795600  0.772800  0.438700  1
  H  H1045  1  0.760700  0.669500  0.924100  1
  H  H1046  1  0.239300  0.169500  0.575900  1
  H  H1047  1  0.239300  0.330500  0.075900  1
  H  H1048  1  0.760700  0.830500  0.424100  1
  H  H1049  1  0.700900  0.744900  0.830500  1
  H  H1050  1  0.299100  0.244900  0.669500  1
  H  H1051  1  0.299100  0.255100  0.169500  1
  H  H1052  1  0.700900  0.755100  0.330500  1
  H  H1053  1  0.746700  0.799900  0.837900  1
  H  H1054  1  0.253300  0.299900  0.662100  1
  H  H1055  1  0.253300  0.200100  0.162100  1
  H  H1056  1  0.746700  0.700100  0.337900  1
  H  H1057  1  0.797000  0.813900  0.802500  1
  H  H1058  1  0.203000  0.313900  0.697500  1
  H  H1059  1  0.203000  0.186100  0.197500  1
  H  H1060  1  0.797000  0.686100  0.302500  1
  H  H1061  1  0.801500  0.772900  0.759900  1
  H  H1062  1  0.198500  0.272900  0.740100  1
  H  H1063  1  0.198500  0.227100  0.240100  1
  H  H1064  1  0.801500  0.727100  0.259900  1
  H  H1065  1  0.662000  0.683300  0.823500  1
  H  H1066  1  0.338000  0.183300  0.676500  1
  H  H1067  1  0.338000  0.316700  0.176500  1
  H  H1068  1  0.662000  0.816700  0.323500  1
  H  H1069  1  0.641400  0.621300  0.795200  1
  H  H1070  1  0.358600  0.121300  0.704800  1
  H  H1071  1  0.358600  0.378700  0.204800  1
  H  H1072  1  0.641400  0.878700  0.295200  1
  H  H1073  1  0.674200  0.588100  0.749500  1
  H  H1074  1  0.325800  0.088100  0.750500  1
  H  H1075  1  0.325800  0.411900  0.250500  1
  H  H1076  1  0.674200  0.911900  0.249500  1
  H  H1077  1  0.712700  0.610000  0.734000  1
  H  H1078  1  0.287300  0.110000  0.766000  1
  H  H1079  1  0.287300  0.390000  0.266000  1
  H  H1080  1  0.712700  0.890000  0.234000  1
  H  H1081  1  0.337300  0.745100  0.577900  1
  H  H1082  1  0.662700  0.245100  0.922100  1
  H  H1083  1  0.662700  0.254900  0.422100  1
  H  H1084  1  0.337300  0.754900  0.077900  1
  H  H1085  1  0.249400  0.745900  0.575500  1
  H  H1086  1  0.750600  0.245900  0.924500  1
  H  H1087  1  0.750600  0.254100  0.424500  1
  H  H1088  1  0.249400  0.754100  0.075500  1
  H  H1089  1  0.212300  0.694400  0.591700  1
  H  H1090  1  0.787700  0.194400  0.908300  1
  H  H1091  1  0.787700  0.305600  0.408300  1
  H  H1092  1  0.212300  0.805600  0.091700  1
  H  H1093  1  0.263000  0.642000  0.610400  1
  H  H1094  1  0.737000  0.142000  0.889600  1
  H  H1095  1  0.737000  0.358000  0.389600  1
  H  H1096  1  0.263000  0.858000  0.110400  1
  H  H1097  1  0.429200  0.741000  0.584100  1
  H  H1098  1  0.570800  0.241000  0.915900  1
  H  H1099  1  0.570800  0.259000  0.415900  1
  H  H1100  1  0.429200  0.759000  0.084100  1
  H  H1101  1  0.513300  0.707300  0.589000  1
  H  H1102  1  0.486700  0.207300  0.911000  1
  H  H1103  1  0.486700  0.292700  0.411000  1
  H  H1104  1  0.513300  0.792700  0.089000  1
  H  H1105  1  0.536100  0.636000  0.590200  1
  H  H1106  1  0.463900  0.136000  0.909800  1
  H  H1107  1  0.463900  0.364000  0.409800  1
  H  H1108  1  0.536100  0.864000  0.090200  1
  H  H1109  1  0.496600  0.608100  0.598600  1
  H  H1110  1  0.503400  0.108100  0.901400  1
  H  H1111  1  0.503400  0.391900  0.401400  1
  H  H1112  1  0.496600  0.891900  0.098600  1
  H  H1113  1  0.593600  0.651700  0.722100  1
  H  H1114  1  0.406400  0.151700  0.777900  1
  H  H1115  1  0.406400  0.348300  0.277900  1
  H  H1116  1  0.593600  0.848300  0.222100  1
  H  H1117  1  0.530700  0.664200  0.668100  1
  H  H1118  1  0.469300  0.164200  0.831900  1
  H  H1119  1  0.469300  0.335800  0.331900  1
  H  H1120  1  0.530700  0.835800  0.168100  1
  H  H1121  1  0.567400  0.583200  0.593500  1
  H  H1122  1  0.432600  0.083200  0.906500  1
  H  H1123  1  0.432600  0.416800  0.406500  1
  H  H1124  1  0.567400  0.916800  0.093500  1
  H  H1125  1  0.630500  0.537900  0.599000  1
  H  H1126  1  0.369500  0.037900  0.901000  1
  H  H1127  1  0.369500  0.462100  0.401000  1
  H  H1128  1  0.630500  0.962100  0.099000  1
  H  H1129  1  0.695300  0.527700  0.652500  1
  H  H1130  1  0.304700  0.027700  0.847500  1
  H  H1131  1  0.304700  0.472300  0.347500  1
  H  H1132  1  0.695300  0.972300  0.152500  1
  H  H1133  1  0.697000  0.562900  0.700600  1
  H  H1134  1  0.303000  0.062900  0.799400  1
  H  H1135  1  0.303000  0.437100  0.299400  1
  H  H1136  1  0.697000  0.937100  0.200600  1
  H  H1137  1  0.302600  0.379700  0.975300  1
  H  H1138  1  0.697400  0.879700  0.524700  1
  H  H1139  1  0.697400  0.620300  0.024700  1
  H  H1140  1  0.302600  0.120300  0.475300  1
  H  H1141  1  0.339000  0.362600  0.955200  1
  H  H1142  1  0.661000  0.862600  0.544800  1
  H  H1143  1  0.661000  0.637400  0.044800  1
  H  H1144  1  0.339000  0.137400  0.455200  1
  H  H1145  1  0.287200  0.384700  0.934300  1
  H  H1146  1  0.712800  0.884700  0.565700  1
  H  H1147  1  0.712800  0.615300  0.065700  1
  H  H1148  1  0.287200  0.115300  0.434300  1
  H  H1149  1  0.416600  0.809700  0.660500  1
  H  H1150  1  0.583400  0.309700  0.839500  1
  H  H1151  1  0.583400  0.190300  0.339500  1
  H  H1152  1  0.416600  0.690300  0.160500  1
  H  H1153  1  0.377700  0.777200  0.661400  1
  H  H1154  1  0.622300  0.277200  0.838600  1
  H  H1155  1  0.622300  0.222800  0.338600  1
  H  H1156  1  0.377700  0.722800  0.161400  1
  H  H1157  1  0.398500  0.781300  0.629200  1
  H  H1158  1  0.601500  0.281300  0.870800  1
  H  H1159  1  0.601500  0.218700  0.370800  1
  H  H1160  1  0.398500  0.718700  0.129200  1
  H  H1161  1  0.681300  0.350600  0.883800  1
  H  H1162  1  0.318700  0.850600  0.616200  1
  H  H1163  1  0.318700  0.649400  0.116200  1
  H  H1164  1  0.681300  0.149400  0.383800  1
  H  H1165  1  0.642500  0.356200  0.905700  1
  H  H1166  1  0.357500  0.856200  0.594300  1
  H  H1167  1  0.357500  0.643800  0.094300  1
  H  H1168  1  0.642500  0.143800  0.405700  1
  H  H1169  1  0.685300  0.386600  0.906400  1
  H  H1170  1  0.314700  0.886600  0.593600  1
  H  H1171  1  0.314700  0.613400  0.093600  1
  H  H1172  1  0.685300  0.113400  0.406400  1
  H  H1173  1  0.207100  0.611900  0.906400  1
  H  H1174  1  0.792900  0.111900  0.593600  1
  H  H1175  1  0.792900  0.388100  0.093600  1
  H  H1176  1  0.207100  0.888100  0.406400  1
  H  H1177  1  0.225800  0.649800  0.895100  1
  H  H1178  1  0.774200  0.149800  0.604900  1
  H  H1179  1  0.774200  0.350200  0.104900  1
  H  H1180  1  0.225800  0.850200  0.395100  1
  H  H1181  1  0.259900  0.613800  0.896700  1
  H  H1182  1  0.740100  0.113800  0.603300  1
  H  H1183  1  0.740100  0.386200  0.103300  1
  H  H1184  1  0.259900  0.886200  0.396700  1
  H  H1185  1  0.797100  0.705700  0.019200  1
  H  H1186  1  0.202900  0.205700  0.480800  1
  H  H1187  1  0.202900  0.294300  0.980800  1
  H  H1188  1  0.797100  0.794300  0.519200  1
  H  H1189  1  0.747100  0.706900  0.032100  1
  H  H1190  1  0.252900  0.206900  0.467900  1
  H  H1191  1  0.252900  0.293100  0.967900  1
  H  H1192  1  0.747100  0.793100  0.532100  1
  H  H1193  1  0.749200  0.732400  0.000900  1
  H  H1194  1  0.250800  0.232400  0.499100  1
  H  H1195  1  0.250800  0.267600  0.999100  1
  H  H1196  1  0.749200  0.767600  0.500900  1
  H  H1197  1  0.730600  0.761700  0.573700  1
  H  H1198  1  0.269400  0.261700  0.926300  1
  H  H1199  1  0.269400  0.238300  0.426300  1
  H  H1200  1  0.730600  0.738300  0.073700  1
  H  H1201  1  0.701400  0.738900  0.595200  1
  H  H1202  1  0.298600  0.238900  0.904800  1
  H  H1203  1  0.298600  0.261100  0.404800  1
  H  H1204  1  0.701400  0.761100  0.095200  1
  H  H1205  1  0.689100  0.730900  0.554900  1
  H  H1206  1  0.310900  0.230900  0.945100  1
  H  H1207  1  0.310900  0.269100  0.445100  1
  H  H1208  1  0.689100  0.769100  0.054900  1
  H  H1209  1  0.765500  0.492000  0.771400  1
  H  H1210  1  0.234500  0.992000  0.728600  1
  H  H1211  1  0.234500  0.508000  0.228600  1
  H  H1212  1  0.765500  0.008000  0.271400  1
  H  H1213  1  0.718600  0.503600  0.737400  1
  H  H1214  1  0.281400  0.003600  0.762600  1
  H  H1215  1  0.281400  0.496400  0.262600  1
  H  H1216  1  0.718600  0.996400  0.237400  1
  H  H1217  1  0.772300  0.526200  0.749100  1
  H  H1218  1  0.227700  0.026200  0.750900  1
  H  H1219  1  0.227700  0.473800  0.250900  1
  H  H1220  1  0.772300  0.973800  0.249100  1
  H  H1221  1  0.288000  0.353700  0.865900  1
  H  H1222  1  0.712000  0.853700  0.634100  1
  H  H1223  1  0.712000  0.646300  0.134100  1
  H  H1224  1  0.288000  0.146300  0.365900  1
  H  H1225  1  0.258500  0.360100  0.825500  1
  H  H1226  1  0.741500  0.860100  0.674500  1
  H  H1227  1  0.741500  0.639900  0.174500  1
  H  H1228  1  0.258500  0.139900  0.325500  1
  H  H1229  1  0.226000  0.360300  0.851900  1
  H  H1230  1  0.774000  0.860300  0.648100  1
  H  H1231  1  0.774000  0.639700  0.148100  1
  H  H1232  1  0.226000  0.139700  0.351900  1
  C  C1233  1  0.819500  0.329500  0.550200  1
  C  C1234  1  0.180500  0.829500  0.949800  1
  C  C1235  1  0.180500  0.670500  0.449800  1
  C  C1236  1  0.819500  0.170500  0.050200  1
  C  C1237  1  0.837500  0.336100  0.522600  1
  C  C1238  1  0.162500  0.836100  0.977400  1
  C  C1239  1  0.162500  0.663900  0.477400  1
  C  C1240  1  0.837500  0.163900  0.022600  1
  C  C1241  1  0.802400  0.345700  0.490500  1
  C  C1242  1  0.197600  0.845700  0.009500  1
  C  C1243  1  0.197600  0.654300  0.509500  1
  C  C1244  1  0.802400  0.154300  0.990500  1
  C  C1245  1  0.749100  0.348700  0.485900  1
  C  C1246  1  0.250900  0.848700  0.014100  1
  C  C1247  1  0.250900  0.651300  0.514100  1
  C  C1248  1  0.749100  0.151300  0.985900  1
  C  C1249  1  0.731100  0.342000  0.513500  1
  C  C1250  1  0.268900  0.842000  0.986500  1
  C  C1251  1  0.268900  0.658000  0.486500  1
  C  C1252  1  0.731100  0.158000  0.013500  1
  C  C1253  1  0.849000  0.317700  0.581100  1
  C  C1254  1  0.151000  0.817700  0.918900  1
  C  C1255  1  0.151000  0.682300  0.418900  1
  C  C1256  1  0.849000  0.182300  0.081100  1
  C  C1257  1  0.904500  0.315200  0.596000  1
  C  C1258  1  0.095500  0.815200  0.904000  1
  C  C1259  1  0.095500  0.684800  0.404000  1
  C  C1260  1  0.904500  0.184800  0.096000  1
  C  C1261  1  0.916000  0.294100  0.626700  1
  C  C1262  1  0.084000  0.794100  0.873300  1
  C  C1263  1  0.084000  0.705900  0.373300  1
  C  C1264  1  0.916000  0.205900  0.126700  1
  C  C1265  1  0.853600  0.258400  0.654300  1
  C  C1266  1  0.146400  0.758400  0.845700  1
  C  C1267  1  0.146400  0.741600  0.345700  1
  C  C1268  1  0.853600  0.241600  0.154300  1
  C  C1269  1  0.969800  0.402700  0.836400  1
  C  C1270  1  0.030200  0.902700  0.663600  1
  C  C1271  1  0.030200  0.597300  0.163600  1
  C  C1272  1  0.969800  0.097300  0.336400  1
  C  C1273  1  0.985300  0.438500  0.844900  1
  C  C1274  1  0.014700  0.938500  0.655100  1
  C  C1275  1  0.014700  0.561500  0.155100  1
  C  C1276  1  0.985300  0.061500  0.344900  1
  C  C1277  1  0.032100  0.445900  0.871200  1
  C  C1278  1  0.967900  0.945900  0.628800  1
  C  C1279  1  0.967900  0.554100  0.128800  1
  C  C1280  1  0.032100  0.054100  0.371200  1
  C  C1281  1  0.063400  0.417500  0.889000  1
  C  C1282  1  0.936600  0.917500  0.611000  1
  C  C1283  1  0.936600  0.582500  0.111000  1
  C  C1284  1  0.063400  0.082500  0.389000  1
  C  C1285  1  0.048000  0.381700  0.880500  1
  C  C1286  1  0.952000  0.881700  0.619500  1
  C  C1287  1  0.952000  0.618300  0.119500  1
  C  C1288  1  0.048000  0.118300  0.380500  1
  C  C1289  1  0.921600  0.394100  0.813300  1
  C  C1290  1  0.078400  0.894100  0.686700  1
  C  C1291  1  0.078400  0.605900  0.186700  1
  C  C1292  1  0.921600  0.105900  0.313300  1
  C  C1293  1  0.877900  0.414100  0.791900  1
  C  C1294  1  0.122100  0.914100  0.708100  1
  C  C1295  1  0.122100  0.585900  0.208100  1
  C  C1296  1  0.877900  0.085900  0.291900  1
  C  C1297  1  0.836600  0.389100  0.776500  1
  C  C1298  1  0.163400  0.889100  0.723500  1
  C  C1299  1  0.163400  0.610900  0.223500  1
  C  C1300  1  0.836600  0.110900  0.276500  1
  C  C1301  1  0.830800  0.320400  0.777600  1
  C  C1302  1  0.169200  0.820400  0.722400  1
  C  C1303  1  0.169200  0.679600  0.222400  1
  C  C1304  1  0.830800  0.179600  0.277600  1
  C  C1305  1  0.851600  0.274800  0.686900  1
  C  C1306  1  0.148400  0.774800  0.813100  1
  C  C1307  1  0.148400  0.725200  0.313100  1
  C  C1308  1  0.851600  0.225200  0.186900  1
  C  C1309  1  0.865100  0.310700  0.696000  1
  C  C1310  1  0.134900  0.810700  0.804000  1
  C  C1311  1  0.134900  0.689300  0.304000  1
  C  C1312  1  0.865100  0.189300  0.196000  1
  C  C1313  1  0.858400  0.325200  0.725600  1
  C  C1314  1  0.141600  0.825200  0.774400  1
  C  C1315  1  0.141600  0.674800  0.274400  1
  C  C1316  1  0.858400  0.174800  0.225600  1
  C  C1317  1  0.838200  0.303700  0.746300  1
  C  C1318  1  0.161800  0.803700  0.753700  1
  C  C1319  1  0.161800  0.696300  0.253700  1
  C  C1320  1  0.838200  0.196300  0.246300  1
  C  C1321  1  0.824700  0.267800  0.737200  1
  C  C1322  1  0.175300  0.767800  0.762800  1
  C  C1323  1  0.175300  0.732200  0.262800  1
  C  C1324  1  0.824700  0.232200  0.237200  1
  C  C1325  1  0.831400  0.253300  0.707500  1
  C  C1326  1  0.168600  0.753300  0.792500  1
  C  C1327  1  0.168600  0.746700  0.292500  1
  C  C1328  1  0.831400  0.246700  0.207500  1
  C  C1329  1  0.801300  0.246500  0.756200  1
  C  C1330  1  0.198700  0.746500  0.743800  1
  C  C1331  1  0.198700  0.753500  0.243800  1
  C  C1332  1  0.801300  0.253500  0.256200  1
  C  C1333  1  0.791700  0.209800  0.748700  1
  C  C1334  1  0.208300  0.709800  0.751300  1
  C  C1335  1  0.208300  0.790200  0.251300  1
  C  C1336  1  0.791700  0.290200  0.248700  1
  C  C1337  1  0.800600  0.195900  0.719500  1
  C  C1338  1  0.199400  0.695900  0.780500  1
  C  C1339  1  0.199400  0.804100  0.280500  1
  C  C1340  1  0.800600  0.304100  0.219500  1
  C  C1341  1  0.822600  0.216600  0.699600  1
  C  C1342  1  0.177400  0.716600  0.800400  1
  C  C1343  1  0.177400  0.783400  0.300400  1
  C  C1344  1  0.822600  0.283400  0.199600  1
  C  C1345  1  0.730300  0.310100  0.655400  1
  C  C1346  1  0.269700  0.810100  0.844600  1
  C  C1347  1  0.269700  0.689900  0.344600  1
  C  C1348  1  0.730300  0.189900  0.155400  1
  C  C1349  1  0.713300  0.299600  0.682600  1
  C  C1350  1  0.286700  0.799600  0.817400  1
  C  C1351  1  0.286700  0.700400  0.317400  1
  C  C1352  1  0.713300  0.200400  0.182600  1
  C  C1353  1  0.691900  0.265300  0.682700  1
  C  C1354  1  0.308100  0.765300  0.817300  1
  C  C1355  1  0.308100  0.734700  0.317300  1
  C  C1356  1  0.691900  0.234700  0.182700  1
  C  C1357  1  0.687600  0.241400  0.655600  1
  C  C1358  1  0.312400  0.741400  0.844400  1
  C  C1359  1  0.312400  0.758600  0.344400  1
  C  C1360  1  0.687600  0.258600  0.155600  1
  C  C1361  1  0.704500  0.251800  0.628300  1
  C  C1362  1  0.295500  0.751800  0.871700  1
  C  C1363  1  0.295500  0.748200  0.371700  1
  C  C1364  1  0.704500  0.248200  0.128300  1
  C  C1365  1  0.746300  0.344100  0.651000  1
  C  C1366  1  0.253700  0.844100  0.849000  1
  C  C1367  1  0.253700  0.655900  0.349000  1
  C  C1368  1  0.746300  0.155900  0.151000  1
  C  C1369  1  0.757400  0.376300  0.671200  1
  C  C1370  1  0.242600  0.876300  0.828800  1
  C  C1371  1  0.242600  0.623700  0.328800  1
  C  C1372  1  0.757400  0.123700  0.171200  1
  C  C1373  1  0.770000  0.404100  0.651200  1
  C  C1374  1  0.230000  0.904100  0.848800  1
  C  C1375  1  0.230000  0.595900  0.348800  1
  C  C1376  1  0.770000  0.095900  0.151200  1
  C  C1377  1  0.778100  0.407500  0.591400  1
  C  C1378  1  0.221900  0.907500  0.908600  1
  C  C1379  1  0.221900  0.592500  0.408600  1
  C  C1380  1  0.778100  0.092500  0.091400  1
  C  C1381  1  0.098800  0.477200  0.717200  1
  C  C1382  1  0.901200  0.977200  0.782800  1
  C  C1383  1  0.901200  0.522800  0.282800  1
  C  C1384  1  0.098800  0.022800  0.217200  1
  C  C1385  1  0.138800  0.473900  0.748800  1
  C  C1386  1  0.861200  0.973900  0.751200  1
  C  C1387  1  0.861200  0.526100  0.251200  1
  C  C1388  1  0.138800  0.026100  0.248800  1
  C  C1389  1  0.160700  0.504800  0.767500  1
  C  C1390  1  0.839300  0.004800  0.732500  1
  C  C1391  1  0.839300  0.495200  0.232500  1
  C  C1392  1  0.160700  0.995200  0.267500  1
  C  C1393  1  0.142600  0.539000  0.754600  1
  C  C1394  1  0.857400  0.039000  0.745400  1
  C  C1395  1  0.857400  0.461000  0.245400  1
  C  C1396  1  0.142600  0.961000  0.254600  1
  C  C1397  1  0.102500  0.542300  0.723000  1
  C  C1398  1  0.897500  0.042300  0.777000  1
  C  C1399  1  0.897500  0.457700  0.277000  1
  C  C1400  1  0.102500  0.957700  0.223000  1
  C  C1401  1  0.075800  0.448600  0.697200  1
  C  C1402  1  0.924200  0.948600  0.802800  1
  C  C1403  1  0.924200  0.551400  0.302800  1
  C  C1404  1  0.075800  0.051400  0.197200  1
  C  C1405  1  0.084300  0.410500  0.700700  1
  C  C1406  1  0.915700  0.910500  0.799300  1
  C  C1407  1  0.915700  0.589500  0.299300  1
  C  C1408  1  0.084300  0.089500  0.200700  1
  C  C1409  1  0.057200  0.394100  0.668300  1
  C  C1410  1  0.942800  0.894100  0.831700  1
  C  C1411  1  0.942800  0.605900  0.331700  1
  C  C1412  1  0.057200  0.105900  0.168300  1
  C  C1413  1  0.998000  0.421200  0.608700  1
  C  C1414  1  0.002000  0.921200  0.891300  1
  C  C1415  1  0.002000  0.578800  0.391300  1
  C  C1416  1  0.998000  0.078800  0.108700  1
  C  C1417  1  0.835500  0.409300  0.596300  1
  C  C1418  1  0.164500  0.909300  0.903700  1
  C  C1419  1  0.164500  0.590700  0.403700  1
  C  C1420  1  0.835500  0.090700  0.096300  1
  C  C1421  1  0.872500  0.403700  0.628700  1
  C  C1422  1  0.127500  0.903700  0.871300  1
  C  C1423  1  0.127500  0.596300  0.371300  1
  C  C1424  1  0.872500  0.096300  0.128700  1
  C  C1425  1  0.925700  0.406600  0.633200  1
  C  C1426  1  0.074300  0.906600  0.866800  1
  C  C1427  1  0.074300  0.593400  0.366800  1
  C  C1428  1  0.925700  0.093400  0.133200  1
  C  C1429  1  0.941800  0.415100  0.605100  1
  C  C1430  1  0.058200  0.915100  0.894900  1
  C  C1431  1  0.058200  0.584900  0.394900  1
  C  C1432  1  0.941800  0.084900  0.105100  1
  C  C1433  1  0.904800  0.420800  0.572600  1
  C  C1434  1  0.095200  0.920800  0.927400  1
  C  C1435  1  0.095200  0.579200  0.427400  1
  C  C1436  1  0.904800  0.079200  0.072600  1
  C  C1437  1  0.851600  0.417900  0.568200  1
  C  C1438  1  0.148400  0.917900  0.931800  1
  C  C1439  1  0.148400  0.582100  0.431800  1
  C  C1440  1  0.851600  0.082100  0.068200  1
  C  C1441  1  0.920200  0.424900  0.543100  1
  C  C1442  1  0.079800  0.924900  0.956900  1
  C  C1443  1  0.079800  0.575100  0.456900  1
  C  C1444  1  0.920200  0.075100  0.043100  1
  C  C1445  1  0.883900  0.430700  0.510400  1
  C  C1446  1  0.116100  0.930700  0.989600  1
  C  C1447  1  0.116100  0.569300  0.489600  1
  C  C1448  1  0.883900  0.069300  0.010400  1
  C  C1449  1  0.830400  0.431500  0.507300  1
  C  C1450  1  0.169600  0.931500  0.992700  1
  C  C1451  1  0.169600  0.568500  0.492700  1
  C  C1452  1  0.830400  0.068500  0.007300  1
  C  C1453  1  0.814100  0.426000  0.536100  1
  C  C1454  1  0.185900  0.926000  0.963900  1
  C  C1455  1  0.185900  0.574000  0.463900  1
  C  C1456  1  0.814100  0.074000  0.036100  1
  C  C1457  1  0.945000  0.259400  0.794200  1
  C  C1458  1  0.055000  0.759400  0.705800  1
  C  C1459  1  0.055000  0.740600  0.205800  1
  C  C1460  1  0.945000  0.240600  0.294200  1
  C  C1461  1  0.937600  0.223800  0.785100  1
  C  C1462  1  0.062400  0.723800  0.714900  1
  C  C1463  1  0.062400  0.776200  0.214900  1
  C  C1464  1  0.937600  0.276200  0.285100  1
  C  C1465  1  0.913700  0.201600  0.801400  1
  C  C1466  1  0.086300  0.701600  0.698600  1
  C  C1467  1  0.086300  0.798400  0.198600  1
  C  C1468  1  0.913700  0.298400  0.301400  1
  C  C1469  1  0.902100  0.214900  0.829800  1
  C  C1470  1  0.097900  0.714900  0.670200  1
  C  C1471  1  0.097900  0.785100  0.170200  1
  C  C1472  1  0.902100  0.285100  0.329800  1
  C  C1473  1  0.914000  0.250000  0.840100  1
  C  C1474  1  0.086000  0.750000  0.659900  1
  C  C1475  1  0.086000  0.750000  0.159900  1
  C  C1476  1  0.914000  0.250000  0.340100  1
  C  C1477  1  0.973700  0.282100  0.780900  1
  C  C1478  1  0.026300  0.782100  0.719100  1
  C  C1479  1  0.026300  0.717900  0.219100  1
  C  C1480  1  0.973700  0.217900  0.280900  1
  C  C1481  1  0.990600  0.279400  0.751600  1
  C  C1482  1  0.009400  0.779400  0.748400  1
  C  C1483  1  0.009400  0.720600  0.248400  1
  C  C1484  1  0.990600  0.220600  0.251600  1
  C  C1485  1  0.022100  0.309500  0.752700  1
  C  C1486  1  0.977900  0.809500  0.747300  1
  C  C1487  1  0.977900  0.690500  0.247300  1
  C  C1488  1  0.022100  0.190500  0.252700  1
  C  C1489  1  0.054800  0.359800  0.793700  1
  C  C1490  1  0.945200  0.859800  0.706300  1
  C  C1491  1  0.945200  0.640200  0.206300  1
  C  C1492  1  0.054800  0.140200  0.293700  1
  C  C1493  1  0.912900  0.505600  0.609500  1
  C  C1494  1  0.087100  0.005600  0.890500  1
  C  C1495  1  0.087100  0.494400  0.390500  1
  C  C1496  1  0.912900  0.994400  0.109500  1
  C  C1497  1  0.871600  0.507200  0.581500  1
  C  C1498  1  0.128400  0.007200  0.918500  1
  C  C1499  1  0.128400  0.492800  0.418500  1
  C  C1500  1  0.871600  0.992800  0.081500  1
  C  C1501  1  0.873000  0.512400  0.549100  1
  C  C1502  1  0.127000  0.012400  0.950900  1
  C  C1503  1  0.127000  0.487600  0.450900  1
  C  C1504  1  0.873000  0.987600  0.049100  1
  C  C1505  1  0.922000  0.517600  0.546800  1
  C  C1506  1  0.078000  0.017600  0.953200  1
  C  C1507  1  0.078000  0.482400  0.453200  1
  C  C1508  1  0.922000  0.982400  0.046800  1
  C  C1509  1  0.966900  0.515800  0.577700  1
  C  C1510  1  0.033100  0.015800  0.922300  1
  C  C1511  1  0.033100  0.484200  0.422300  1
  C  C1512  1  0.966900  0.984200  0.077700  1
  C  C1513  1  0.910400  0.503100  0.644500  1
  C  C1514  1  0.089600  0.003100  0.855500  1
  C  C1515  1  0.089600  0.496900  0.355500  1
  C  C1516  1  0.910400  0.996900  0.144500  1
  C  C1517  1  0.869300  0.499100  0.657600  1
  C  C1518  1  0.130700  0.999100  0.842400  1
  C  C1519  1  0.130700  0.500900  0.342400  1
  C  C1520  1  0.869300  0.000900  0.157600  1
  C  C1521  1  0.886800  0.497200  0.691000  1
  C  C1522  1  0.113200  0.997200  0.809000  1
  C  C1523  1  0.113200  0.502800  0.309000  1
  C  C1524  1  0.886800  0.002800  0.191000  1
  C  C1525  1  0.978300  0.502400  0.732700  1
  C  C1526  1  0.021700  0.002400  0.767300  1
  C  C1527  1  0.021700  0.497600  0.267300  1
  C  C1528  1  0.978300  0.997600  0.232700  1
  C  C1529  1  0.035300  0.398400  0.779300  1
  C  C1530  1  0.964700  0.898400  0.720700  1
  C  C1531  1  0.964700  0.601600  0.220700  1
  C  C1532  1  0.035300  0.101600  0.279300  1
  C  C1533  1  0.992000  0.400200  0.749300  1
  C  C1534  1  0.008000  0.900200  0.750700  1
  C  C1535  1  0.008000  0.599800  0.250700  1
  C  C1536  1  0.992000  0.099800  0.249300  1
  C  C1537  1  0.973400  0.433800  0.734800  1
  C  C1538  1  0.026600  0.933800  0.765200  1
  C  C1539  1  0.026600  0.566200  0.265200  1
  C  C1540  1  0.973400  0.066200  0.234800  1
  C  C1541  1  0.998000  0.465500  0.750300  1
  C  C1542  1  0.002000  0.965500  0.749700  1
  C  C1543  1  0.002000  0.534500  0.249700  1
  C  C1544  1  0.998000  0.034500  0.250300  1
  C  C1545  1  0.041300  0.463700  0.780300  1
  C  C1546  1  0.958700  0.963700  0.719700  1
  C  C1547  1  0.958700  0.536300  0.219700  1
  C  C1548  1  0.041300  0.036300  0.280300  1
  C  C1549  1  0.059900  0.430200  0.794900  1
  C  C1550  1  0.940100  0.930200  0.705100  1
  C  C1551  1  0.940100  0.569800  0.205100  1
  C  C1552  1  0.059900  0.069800  0.294900  1
  C  C1553  1  0.063500  0.495400  0.798400  1
  C  C1554  1  0.936500  0.995400  0.701600  1
  C  C1555  1  0.936500  0.504600  0.201600  1
  C  C1556  1  0.063500  0.004600  0.298400  1
  C  C1557  1  0.106300  0.492700  0.828400  1
  C  C1558  1  0.893700  0.992700  0.671600  1
  C  C1559  1  0.893700  0.507300  0.171600  1
  C  C1560  1  0.106300  0.007300  0.328400  1
  C  C1561  1  0.130900  0.459700  0.839100  1
  C  C1562  1  0.869100  0.959700  0.660900  1
  C  C1563  1  0.869100  0.540300  0.160900  1
  C  C1564  1  0.130900  0.040300  0.339100  1
  C  C1565  1  0.107500  0.428300  0.822600  1
  C  C1566  1  0.892500  0.928300  0.677400  1
  C  C1567  1  0.892500  0.571700  0.177400  1
  C  C1568  1  0.107500  0.071700  0.322600  1
  C  C1569  1  0.475400  0.393200  0.628900  1
  C  C1570  1  0.524600  0.893200  0.871100  1
  C  C1571  1  0.524600  0.606800  0.371100  1
  C  C1572  1  0.475400  0.106800  0.128900  1
  C  C1573  1  0.491500  0.407200  0.602500  1
  C  C1574  1  0.508500  0.907200  0.897500  1
  C  C1575  1  0.508500  0.592800  0.397500  1
  C  C1576  1  0.491500  0.092800  0.102500  1
  C  C1577  1  0.477700  0.389700  0.570600  1
  C  C1578  1  0.522300  0.889700  0.929400  1
  C  C1579  1  0.522300  0.610300  0.429400  1
  C  C1580  1  0.477700  0.110300  0.070600  1
  C  C1581  1  0.447900  0.358100  0.565200  1
  C  C1582  1  0.552100  0.858100  0.934800  1
  C  C1583  1  0.552100  0.641900  0.434800  1
  C  C1584  1  0.447900  0.141900  0.065200  1
  C  C1585  1  0.431800  0.344000  0.591700  1
  C  C1586  1  0.568200  0.844000  0.908300  1
  C  C1587  1  0.568200  0.656000  0.408300  1
  C  C1588  1  0.431800  0.156000  0.091700  1
  C  C1589  1  0.492400  0.408000  0.660100  1
  C  C1590  1  0.507600  0.908000  0.839900  1
  C  C1591  1  0.507600  0.592000  0.339900  1
  C  C1592  1  0.492400  0.092000  0.160100  1
  C  C1593  1  0.522300  0.439000  0.675600  1
  C  C1594  1  0.477700  0.939000  0.824400  1
  C  C1595  1  0.477700  0.561000  0.324400  1
  C  C1596  1  0.522300  0.061000  0.175600  1
  C  C1597  1  0.528500  0.438600  0.711500  1
  C  C1598  1  0.471500  0.938600  0.788500  1
  C  C1599  1  0.471500  0.561400  0.288500  1
  C  C1600  1  0.528500  0.061400  0.211500  1
  C  C1601  1  0.500900  0.393100  0.750200  1
  C  C1602  1  0.499100  0.893100  0.749800  1
  C  C1603  1  0.499100  0.606900  0.249800  1
  C  C1604  1  0.500900  0.106900  0.250200  1
  C  C1605  1  0.333400  0.577100  0.820200  1
  C  C1606  1  0.666600  0.077100  0.679800  1
  C  C1607  1  0.666600  0.422900  0.179800  1
  C  C1608  1  0.333400  0.922900  0.320200  1
  C  C1609  1  0.304100  0.608900  0.814800  1
  C  C1610  1  0.695900  0.108900  0.685200  1
  C  C1611  1  0.695900  0.391100  0.185200  1
  C  C1612  1  0.304100  0.891100  0.314800  1
  C  C1613  1  0.319500  0.637500  0.838200  1
  C  C1614  1  0.680500  0.137500  0.661800  1
  C  C1615  1  0.680500  0.362500  0.161800  1
  C  C1616  1  0.319500  0.862500  0.338200  1
  C  C1617  1  0.364300  0.634100  0.867100  1
  C  C1618  1  0.635700  0.134100  0.632900  1
  C  C1619  1  0.635700  0.365900  0.132900  1
  C  C1620  1  0.364300  0.865900  0.367100  1
  C  C1621  1  0.393600  0.602300  0.872600  1
  C  C1622  1  0.606400  0.102300  0.627400  1
  C  C1623  1  0.606400  0.397700  0.127400  1
  C  C1624  1  0.393600  0.897700  0.372600  1
  C  C1625  1  0.321300  0.547800  0.800700  1
  C  C1626  1  0.678700  0.047800  0.699300  1
  C  C1627  1  0.678700  0.452200  0.199300  1
  C  C1628  1  0.321300  0.952200  0.300700  1
  C  C1629  1  0.284100  0.541200  0.767500  1
  C  C1630  1  0.715900  0.041200  0.732500  1
  C  C1631  1  0.715900  0.458800  0.232500  1
  C  C1632  1  0.284100  0.958800  0.267500  1
  C  C1633  1  0.284800  0.503400  0.760500  1
  C  C1634  1  0.715200  0.003400  0.739500  1
  C  C1635  1  0.715200  0.496600  0.239500  1
  C  C1636  1  0.284800  0.996600  0.260500  1
  C  C1637  1  0.332700  0.449900  0.796700  1
  C  C1638  1  0.667300  0.949900  0.703300  1
  C  C1639  1  0.667300  0.550100  0.203300  1
  C  C1640  1  0.332700  0.050100  0.296700  1
  C  C1641  1  0.455400  0.408300  0.762200  1
  C  C1642  1  0.544600  0.908300  0.737800  1
  C  C1643  1  0.544600  0.591700  0.237800  1
  C  C1644  1  0.455400  0.091700  0.262200  1
  C  C1645  1  0.429100  0.439800  0.747600  1
  C  C1646  1  0.570900  0.939800  0.752400  1
  C  C1647  1  0.570900  0.560200  0.252400  1
  C  C1648  1  0.429100  0.060200  0.247600  1
  C  C1649  1  0.388800  0.453100  0.758400  1
  C  C1650  1  0.611200  0.953100  0.741600  1
  C  C1651  1  0.611200  0.546900  0.241600  1
  C  C1652  1  0.388800  0.046900  0.258400  1
  C  C1653  1  0.374900  0.434800  0.783800  1
  C  C1654  1  0.625100  0.934800  0.716200  1
  C  C1655  1  0.625100  0.565200  0.216200  1
  C  C1656  1  0.374900  0.065200  0.283800  1
  C  C1657  1  0.401200  0.403300  0.798400  1
  C  C1658  1  0.598800  0.903300  0.701600  1
  C  C1659  1  0.598800  0.596700  0.201600  1
  C  C1660  1  0.401200  0.096700  0.298400  1
  C  C1661  1  0.441500  0.390000  0.787600  1
  C  C1662  1  0.558500  0.890000  0.712400  1
  C  C1663  1  0.558500  0.610000  0.212400  1
  C  C1664  1  0.441500  0.110000  0.287600  1
  C  C1665  1  0.384600  0.382300  0.821700  1
  C  C1666  1  0.615400  0.882300  0.678300  1
  C  C1667  1  0.615400  0.617700  0.178300  1
  C  C1668  1  0.384600  0.117700  0.321700  1
  C  C1669  1  0.412700  0.352900  0.838100  1
  C  C1670  1  0.587300  0.852900  0.661900  1
  C  C1671  1  0.587300  0.647100  0.161900  1
  C  C1672  1  0.412700  0.147100  0.338100  1
  C  C1673  1  0.455500  0.341400  0.828700  1
  C  C1674  1  0.544500  0.841400  0.671300  1
  C  C1675  1  0.544500  0.658600  0.171300  1
  C  C1676  1  0.455500  0.158600  0.328700  1
  C  C1677  1  0.472300  0.360400  0.805200  1
  C  C1678  1  0.527700  0.860400  0.694800  1
  C  C1679  1  0.527700  0.639600  0.194800  1
  C  C1680  1  0.472300  0.139600  0.305200  1
  C  C1681  1  0.366600  0.344100  0.715100  1
  C  C1682  1  0.633400  0.844100  0.784900  1
  C  C1683  1  0.633400  0.655900  0.284900  1
  C  C1684  1  0.366600  0.155900  0.215100  1
  C  C1685  1  0.345700  0.331600  0.739900  1
  C  C1686  1  0.654300  0.831600  0.760100  1
  C  C1687  1  0.654300  0.668400  0.260100  1
  C  C1688  1  0.345700  0.168400  0.239900  1
  C  C1689  1  0.369400  0.302800  0.761300  1
  C  C1690  1  0.630600  0.802800  0.738700  1
  C  C1691  1  0.630600  0.697200  0.238700  1
  C  C1692  1  0.369400  0.197200  0.261300  1
  C  C1693  1  0.413900  0.286500  0.757900  1
  C  C1694  1  0.586100  0.786500  0.742100  1
  C  C1695  1  0.586100  0.713500  0.242100  1
  C  C1696  1  0.413900  0.213500  0.257900  1
  C  C1697  1  0.434800  0.299000  0.733100  1
  C  C1698  1  0.565200  0.799000  0.766900  1
  C  C1699  1  0.565200  0.701000  0.266900  1
  C  C1700  1  0.434800  0.201000  0.233100  1
  C  C1701  1  0.343000  0.369800  0.691100  1
  C  C1702  1  0.657000  0.869800  0.808900  1
  C  C1703  1  0.657000  0.630200  0.308900  1
  C  C1704  1  0.343000  0.130200  0.191100  1
  C  C1705  1  0.295700  0.389700  0.684600  1
  C  C1706  1  0.704300  0.889700  0.815400  1
  C  C1707  1  0.704300  0.610300  0.315400  1
  C  C1708  1  0.295700  0.110300  0.184600  1
  C  C1709  1  0.284900  0.407500  0.652200  1
  C  C1710  1  0.715100  0.907500  0.847800  1
  C  C1711  1  0.715100  0.592500  0.347800  1
  C  C1712  1  0.284900  0.092500  0.152200  1
  C  C1713  1  0.330600  0.407800  0.604100  1
  C  C1714  1  0.669400  0.907800  0.895900  1
  C  C1715  1  0.669400  0.592200  0.395900  1
  C  C1716  1  0.330600  0.092200  0.104100  1
  C  C1717  1  0.457000  0.625900  0.697100  1
  C  C1718  1  0.543000  0.125900  0.802900  1
  C  C1719  1  0.543000  0.374100  0.302900  1
  C  C1720  1  0.457000  0.874100  0.197100  1
  C  C1721  1  0.483500  0.639800  0.729800  1
  C  C1722  1  0.516500  0.139800  0.770200  1
  C  C1723  1  0.516500  0.360200  0.270200  1
  C  C1724  1  0.483500  0.860200  0.229800  1
  C  C1725  1  0.468400  0.672900  0.739900  1
  C  C1726  1  0.531600  0.172900  0.760100  1
  C  C1727  1  0.531600  0.327100  0.260100  1
  C  C1728  1  0.468400  0.827100  0.239900  1
  C  C1729  1  0.426600  0.692100  0.717300  1
  C  C1730  1  0.573400  0.192100  0.782700  1
  C  C1731  1  0.573400  0.307900  0.282700  1
  C  C1732  1  0.426600  0.807900  0.217300  1
  C  C1733  1  0.400100  0.678100  0.684600  1
  C  C1734  1  0.599900  0.178100  0.815400  1
  C  C1735  1  0.599900  0.321900  0.315400  1
  C  C1736  1  0.400100  0.821900  0.184600  1
  C  C1737  1  0.472700  0.595000  0.687200  1
  C  C1738  1  0.527300  0.095000  0.812800  1
  C  C1739  1  0.527300  0.405000  0.312800  1
  C  C1740  1  0.472700  0.905000  0.187200  1
  C  C1741  1  0.514300  0.570100  0.701600  1
  C  C1742  1  0.485700  0.070100  0.798400  1
  C  C1743  1  0.485700  0.429900  0.298400  1
  C  C1744  1  0.514300  0.929900  0.201600  1
  C  C1745  1  0.515300  0.545400  0.675100  1
  C  C1746  1  0.484700  0.045400  0.824900  1
  C  C1747  1  0.484700  0.454600  0.324900  1
  C  C1748  1  0.515300  0.954600  0.175100  1
  C  C1749  1  0.461900  0.536000  0.612700  1
  C  C1750  1  0.538100  0.036000  0.887300  1
  C  C1751  1  0.538100  0.464000  0.387300  1
  C  C1752  1  0.461900  0.964000  0.112700  1
  C  C1753  1  0.362500  0.442400  0.607900  1
  C  C1754  1  0.637500  0.942400  0.892100  1
  C  C1755  1  0.637500  0.557600  0.392100  1
  C  C1756  1  0.362500  0.057600  0.107900  1
  C  C1757  1  0.380100  0.462600  0.638300  1
  C  C1758  1  0.619900  0.962600  0.861700  1
  C  C1759  1  0.619900  0.537400  0.361700  1
  C  C1760  1  0.380100  0.037400  0.138300  1
  C  C1761  1  0.411900  0.492800  0.640100  1
  C  C1762  1  0.588100  0.992800  0.859900  1
  C  C1763  1  0.588100  0.507200  0.359900  1
  C  C1764  1  0.411900  0.007200  0.140100  1
  C  C1765  1  0.426000  0.502800  0.611600  1
  C  C1766  1  0.574000  0.002800  0.888400  1
  C  C1767  1  0.574000  0.497200  0.388400  1
  C  C1768  1  0.426000  0.997200  0.111600  1
  C  C1769  1  0.408400  0.482600  0.581200  1
  C  C1770  1  0.591600  0.982600  0.918800  1
  C  C1771  1  0.591600  0.517400  0.418800  1
  C  C1772  1  0.408400  0.017400  0.081200  1
  C  C1773  1  0.376700  0.452300  0.579400  1
  C  C1774  1  0.623300  0.952300  0.920600  1
  C  C1775  1  0.623300  0.547700  0.420600  1
  C  C1776  1  0.376700  0.047700  0.079400  1
  C  C1777  1  0.420400  0.492400  0.551400  1
  C  C1778  1  0.579600  0.992400  0.948600  1
  C  C1779  1  0.579600  0.507600  0.448600  1
  C  C1780  1  0.420400  0.007600  0.051400  1
  C  C1781  1  0.400900  0.472300  0.521700  1
  C  C1782  1  0.599100  0.972300  0.978300  1
  C  C1783  1  0.599100  0.527700  0.478300  1
  C  C1784  1  0.400900  0.027700  0.021700  1
  C  C1785  1  0.368700  0.442500  0.519500  1
  C  C1786  1  0.631300  0.942500  0.980500  1
  C  C1787  1  0.631300  0.557500  0.480500  1
  C  C1788  1  0.368700  0.057500  0.019500  1
  C  C1789  1  0.357800  0.432400  0.549200  1
  C  C1790  1  0.642200  0.932400  0.950800  1
  C  C1791  1  0.642200  0.567600  0.450800  1
  C  C1792  1  0.357800  0.067600  0.049200  1
  C  C1793  1  0.469900  0.455700  0.862800  1
  C  C1794  1  0.530100  0.955700  0.637200  1
  C  C1795  1  0.530100  0.544300  0.137200  1
  C  C1796  1  0.469900  0.044300  0.362800  1
  C  C1797  1  0.496200  0.423500  0.875400  1
  C  C1798  1  0.503800  0.923500  0.624600  1
  C  C1799  1  0.503800  0.576500  0.124600  1
  C  C1800  1  0.496200  0.076500  0.375400  1
  C  C1801  1  0.480300  0.402000  0.898100  1
  C  C1802  1  0.519700  0.902000  0.601900  1
  C  C1803  1  0.519700  0.598000  0.101900  1
  C  C1804  1  0.480300  0.098000  0.398100  1
  C  C1805  1  0.438100  0.412700  0.908200  1
  C  C1806  1  0.561900  0.912700  0.591800  1
  C  C1807  1  0.561900  0.587300  0.091800  1
  C  C1808  1  0.438100  0.087300  0.408200  1
  C  C1809  1  0.411700  0.444900  0.895600  1
  C  C1810  1  0.588300  0.944900  0.604400  1
  C  C1811  1  0.588300  0.555100  0.104400  1
  C  C1812  1  0.411700  0.055100  0.395600  1
  C  C1813  1  0.485700  0.479300  0.843400  1
  C  C1814  1  0.514300  0.979300  0.656600  1
  C  C1815  1  0.514300  0.520700  0.156600  1
  C  C1816  1  0.485700  0.020700  0.343400  1
  C  C1817  1  0.526300  0.479800  0.828400  1
  C  C1818  1  0.473700  0.979800  0.671600  1
  C  C1819  1  0.473700  0.520200  0.171600  1
  C  C1820  1  0.526300  0.020200  0.328400  1
  C  C1821  1  0.527400  0.514900  0.814200  1
  C  C1822  1  0.472600  0.014900  0.685800  1
  C  C1823  1  0.472600  0.485100  0.185800  1
  C  C1824  1  0.527400  0.985100  0.314200  1
  C  C1825  1  0.475400  0.572100  0.814700  1
  C  C1826  1  0.524600  0.072100  0.685300  1
  C  C1827  1  0.524600  0.427900  0.185300  1
  C  C1828  1  0.475400  0.927900  0.314700  1
  C  C1829  1  0.325800  0.563600  0.577600  1
  C  C1830  1  0.674200  0.063600  0.922400  1
  C  C1831  1  0.674200  0.436400  0.422400  1
  C  C1832  1  0.325800  0.936400  0.077600  1
  C  C1833  1  0.307500  0.541900  0.548200  1
  C  C1834  1  0.692500  0.041900  0.951800  1
  C  C1835  1  0.692500  0.458100  0.451800  1
  C  C1836  1  0.307500  0.958100  0.048200  1
  C  C1837  1  0.322900  0.549000  0.519600  1
  C  C1838  1  0.677100  0.049000  0.980400  1
  C  C1839  1  0.677100  0.451000  0.480400  1
  C  C1840  1  0.322900  0.951000  0.019600  1
  C  C1841  1  0.356500  0.577800  0.520200  1
  C  C1842  1  0.643500  0.077800  0.979800  1
  C  C1843  1  0.643500  0.422200  0.479800  1
  C  C1844  1  0.356500  0.922200  0.020200  1
  C  C1845  1  0.374900  0.599500  0.549600  1
  C  C1846  1  0.625100  0.099500  0.950400  1
  C  C1847  1  0.625100  0.400500  0.450400  1
  C  C1848  1  0.374900  0.900500  0.049600  1
  C  C1849  1  0.312900  0.559400  0.606100  1
  C  C1850  1  0.687100  0.059400  0.893900  1
  C  C1851  1  0.687100  0.440600  0.393900  1
  C  C1852  1  0.312900  0.940600  0.106100  1
  C  C1853  1  0.279000  0.534700  0.615100  1
  C  C1854  1  0.721000  0.034700  0.884900  1
  C  C1855  1  0.721000  0.465300  0.384900  1
  C  C1856  1  0.279000  0.965300  0.115100  1
  C  C1857  1  0.273700  0.546400  0.646800  1
  C  C1858  1  0.726300  0.046400  0.853200  1
  C  C1859  1  0.726300  0.453600  0.353200  1
  C  C1860  1  0.273700  0.953600  0.146800  1
  C  C1861  1  0.308500  0.602000  0.684600  1
  C  C1862  1  0.691500  0.102000  0.815400  1
  C  C1863  1  0.691500  0.398000  0.315400  1
  C  C1864  1  0.308500  0.898000  0.184600  1
  C  C1865  1  0.431300  0.579800  0.779900  1
  C  C1866  1  0.568700  0.079800  0.720100  1
  C  C1867  1  0.568700  0.420200  0.220100  1
  C  C1868  1  0.431300  0.920200  0.279900  1
  C  C1869  1  0.417700  0.554100  0.753500  1
  C  C1870  1  0.582300  0.054100  0.746500  1
  C  C1871  1  0.582300  0.445900  0.246500  1
  C  C1872  1  0.417700  0.945900  0.253500  1
  C  C1873  1  0.377600  0.561300  0.722700  1
  C  C1874  1  0.622400  0.061300  0.777300  1
  C  C1875  1  0.622400  0.438700  0.277300  1
  C  C1876  1  0.377600  0.938700  0.222700  1
  C  C1877  1  0.351000  0.594300  0.718300  1
  C  C1878  1  0.649000  0.094300  0.781700  1
  C  C1879  1  0.649000  0.405700  0.281700  1
  C  C1880  1  0.351000  0.905700  0.218300  1
  C  C1881  1  0.364600  0.620000  0.744700  1
  C  C1882  1  0.635400  0.120000  0.755300  1
  C  C1883  1  0.635400  0.380000  0.255300  1
  C  C1884  1  0.364600  0.880000  0.244700  1
  C  C1885  1  0.404700  0.612800  0.775500  1
  C  C1886  1  0.595300  0.112800  0.724500  1
  C  C1887  1  0.595300  0.387200  0.224500  1
  C  C1888  1  0.404700  0.887200  0.275500  1
  C  C1889  1  0.335200  0.652100  0.740500  1
  C  C1890  1  0.664800  0.152100  0.759500  1
  C  C1891  1  0.664800  0.347900  0.259500  1
  C  C1892  1  0.335200  0.847900  0.240500  1
  C  C1893  1  0.348300  0.678900  0.765400  1
  C  C1894  1  0.651700  0.178900  0.734600  1
  C  C1895  1  0.651700  0.321100  0.234600  1
  C  C1896  1  0.348300  0.821100  0.265400  1
  C  C1897  1  0.391800  0.672500  0.795100  1
  C  C1898  1  0.608200  0.172500  0.704900  1
  C  C1899  1  0.608200  0.327500  0.204900  1
  C  C1900  1  0.391800  0.827500  0.295100  1
  C  C1901  1  0.420100  0.640300  0.800700  1
  C  C1902  1  0.579900  0.140300  0.699300  1
  C  C1903  1  0.579900  0.359700  0.199300  1
  C  C1904  1  0.420100  0.859700  0.300700  1
  C  C1905  1  0.678600  0.262600  0.530000  1
  C  C1906  1  0.321400  0.762600  0.970000  1
  C  C1907  1  0.321400  0.737400  0.470000  1
  C  C1908  1  0.678600  0.237400  0.030000  1
  C  C1909  1  0.664700  0.236300  0.504200  1
  C  C1910  1  0.335300  0.736300  0.995800  1
  C  C1911  1  0.335300  0.763700  0.495800  1
  C  C1912  1  0.664700  0.263700  0.004200  1
  C  C1913  1  0.700000  0.208900  0.503700  1
  C  C1914  1  0.300000  0.708900  0.996300  1
  C  C1915  1  0.300000  0.791100  0.496300  1
  C  C1916  1  0.700000  0.291100  0.003700  1
  C  C1917  1  0.749200  0.207900  0.529100  1
  C  C1918  1  0.250800  0.707900  0.970900  1
  C  C1919  1  0.250800  0.792100  0.470900  1
  C  C1920  1  0.749200  0.292100  0.029100  1
  C  C1921  1  0.763100  0.234200  0.554900  1
  C  C1922  1  0.236900  0.734200  0.945100  1
  C  C1923  1  0.236900  0.765800  0.445100  1
  C  C1924  1  0.763100  0.265800  0.054900  1
  C  C1925  1  0.643500  0.287400  0.531900  1
  C  C1926  1  0.356500  0.787400  0.968100  1
  C  C1927  1  0.356500  0.712600  0.468100  1
  C  C1928  1  0.643500  0.212600  0.031900  1
  C  C1929  1  0.592700  0.298300  0.510500  1
  C  C1930  1  0.407300  0.798300  0.989500  1
  C  C1931  1  0.407300  0.701700  0.489500  1
  C  C1932  1  0.592700  0.201700  0.010500  1
  C  C1933  1  0.580200  0.331400  0.523800  1
  C  C1934  1  0.419800  0.831400  0.976200  1
  C  C1935  1  0.419800  0.668600  0.476200  1
  C  C1936  1  0.580200  0.168600  0.023800  1
  C  C1937  1  0.628100  0.368000  0.578000  1
  C  C1938  1  0.371900  0.868000  0.922000  1
  C  C1939  1  0.371900  0.632000  0.422000  1
  C  C1940  1  0.628100  0.132000  0.078000  1
  C  C1941  1  0.412400  0.267100  0.646900  1
  C  C1942  1  0.587600  0.767100  0.853100  1
  C  C1943  1  0.587600  0.732900  0.353100  1
  C  C1944  1  0.412400  0.232900  0.146900  1
  C  C1945  1  0.387900  0.235400  0.631300  1
  C  C1946  1  0.612100  0.735400  0.868700  1
  C  C1947  1  0.612100  0.764600  0.368700  1
  C  C1948  1  0.387900  0.264600  0.131300  1
  C  C1949  1  0.335600  0.236100  0.610300  1
  C  C1950  1  0.664400  0.736100  0.889700  1
  C  C1951  1  0.664400  0.763900  0.389700  1
  C  C1952  1  0.335600  0.263900  0.110300  1
  C  C1953  1  0.307800  0.268600  0.604900  1
  C  C1954  1  0.692200  0.768600  0.895100  1
  C  C1955  1  0.692200  0.731400  0.395100  1
  C  C1956  1  0.307800  0.231400  0.104900  1
  C  C1957  1  0.332300  0.300400  0.620500  1
  C  C1958  1  0.667700  0.800400  0.879500  1
  C  C1959  1  0.667700  0.699600  0.379500  1
  C  C1960  1  0.332300  0.199600  0.120500  1
  C  C1961  1  0.464800  0.269100  0.666000  1
  C  C1962  1  0.535200  0.769100  0.834000  1
  C  C1963  1  0.535200  0.730900  0.334000  1
  C  C1964  1  0.464800  0.230900  0.166000  1
  C  C1965  1  0.505500  0.243500  0.680500  1
  C  C1966  1  0.494500  0.743500  0.819500  1
  C  C1967  1  0.494500  0.756500  0.319500  1
  C  C1968  1  0.505500  0.256500  0.180500  1
  C  C1969  1  0.551900  0.263100  0.698100  1
  C  C1970  1  0.448100  0.763100  0.801900  1
  C  C1971  1  0.448100  0.736900  0.301900  1
  C  C1972  1  0.551900  0.236900  0.198100  1
  C  C1973  1  0.578100  0.330100  0.697700  1
  C  C1974  1  0.421900  0.830100  0.802300  1
  C  C1975  1  0.421900  0.669900  0.302300  1
  C  C1976  1  0.578100  0.169900  0.197700  1
  C  C1977  1  0.614600  0.358800  0.609400  1
  C  C1978  1  0.385400  0.858800  0.890600  1
  C  C1979  1  0.385400  0.641200  0.390600  1
  C  C1980  1  0.614600  0.141200  0.109400  1
  C  C1981  1  0.590700  0.325600  0.610600  1
  C  C1982  1  0.409300  0.825600  0.889400  1
  C  C1983  1  0.409300  0.674400  0.389400  1
  C  C1984  1  0.590700  0.174400  0.110600  1
  C  C1985  1  0.578400  0.315900  0.639800  1
  C  C1986  1  0.421600  0.815900  0.860200  1
  C  C1987  1  0.421600  0.684100  0.360200  1
  C  C1988  1  0.578400  0.184100  0.139800  1
  C  C1989  1  0.589900  0.339400  0.668000  1
  C  C1990  1  0.410100  0.839400  0.832000  1
  C  C1991  1  0.410100  0.660600  0.332000  1
  C  C1992  1  0.589900  0.160600  0.168000  1
  C  C1993  1  0.613800  0.372700  0.666800  1
  C  C1994  1  0.386200  0.872700  0.833200  1
  C  C1995  1  0.386200  0.627300  0.333200  1
  C  C1996  1  0.613800  0.127300  0.166800  1
  C  C1997  1  0.626100  0.382400  0.637500  1
  C  C1998  1  0.373900  0.882400  0.862500  1
  C  C1999  1  0.373900  0.617600  0.362500  1
  C  C2000  1  0.626100  0.117600  0.137500  1
  C  C2001  1  0.630800  0.394800  0.697200  1
  C  C2002  1  0.369200  0.894800  0.802800  1
  C  C2003  1  0.369200  0.605200  0.302800  1
  C  C2004  1  0.630800  0.105200  0.197200  1
  C  C2005  1  0.652900  0.428500  0.694600  1
  C  C2006  1  0.347100  0.928500  0.805400  1
  C  C2007  1  0.347100  0.571500  0.305400  1
  C  C2008  1  0.652900  0.071500  0.194600  1
  C  C2009  1  0.658100  0.440800  0.663400  1
  C  C2010  1  0.341900  0.940800  0.836600  1
  C  C2011  1  0.341900  0.559200  0.336600  1
  C  C2012  1  0.658100  0.059200  0.163400  1
  C  C2013  1  0.645200  0.417300  0.635900  1
  C  C2014  1  0.354800  0.917300  0.864100  1
  C  C2015  1  0.354800  0.582700  0.364100  1
  C  C2016  1  0.645200  0.082700  0.135900  1
  C  C2017  1  0.030900  0.293700  0.908500  1
  C  C2018  1  0.969100  0.793700  0.591500  1
  C  C2019  1  0.969100  0.706300  0.091500  1
  C  C2020  1  0.030900  0.206300  0.408500  1
  C  C2021  1  0.066000  0.271600  0.932800  1
  C  C2022  1  0.934000  0.771600  0.567200  1
  C  C2023  1  0.934000  0.728400  0.067200  1
  C  C2024  1  0.066000  0.228400  0.432800  1
  C  C2025  1  0.102800  0.251300  0.923600  1
  C  C2026  1  0.897200  0.751300  0.576400  1
  C  C2027  1  0.897200  0.748700  0.076400  1
  C  C2028  1  0.102800  0.248700  0.423600  1
  C  C2029  1  0.104500  0.253100  0.890000  1
  C  C2030  1  0.895500  0.753100  0.610000  1
  C  C2031  1  0.895500  0.746900  0.110000  1
  C  C2032  1  0.104500  0.246900  0.390000  1
  C  C2033  1  0.069400  0.275300  0.865600  1
  C  C2034  1  0.930600  0.775300  0.634400  1
  C  C2035  1  0.930600  0.724700  0.134400  1
  C  C2036  1  0.069400  0.224700  0.365600  1
  C  C2037  1  0.990000  0.309300  0.915500  1
  C  C2038  1  0.010000  0.809300  0.584500  1
  C  C2039  1  0.010000  0.690700  0.084500  1
  C  C2040  1  0.990000  0.190700  0.415500  1
  C  C2041  1  0.974600  0.315800  0.945100  1
  C  C2042  1  0.025400  0.815800  0.554900  1
  C  C2043  1  0.025400  0.684200  0.054900  1
  C  C2044  1  0.974600  0.184200  0.445100  1
  C  C2045  1  0.923700  0.331600  0.933500  1
  C  C2046  1  0.076300  0.831600  0.566500  1
  C  C2047  1  0.076300  0.668400  0.066500  1
  C  C2048  1  0.923700  0.168400  0.433500  1
  C  C2049  1  0.858400  0.348000  0.875700  1
  C  C2050  1  0.141600  0.848000  0.624300  1
  C  C2051  1  0.141600  0.652000  0.124300  1
  C  C2052  1  0.858400  0.152000  0.375700  1
  C  C2053  1  0.957200  0.541800  0.969100  1
  C  C2054  1  0.042800  0.041800  0.530900  1
  C  C2055  1  0.042800  0.458200  0.030900  1
  C  C2056  1  0.957200  0.958200  0.469100  1
  C  C2057  1  0.008600  0.548600  0.989900  1
  C  C2058  1  0.991400  0.048600  0.510100  1
  C  C2059  1  0.991400  0.451400  0.010100  1
  C  C2060  1  0.008600  0.951400  0.489900  1
  C  C2061  1  0.020500  0.552600  0.025500  1
  C  C2062  1  0.979500  0.052600  0.474500  1
  C  C2063  1  0.979500  0.447400  0.974500  1
  C  C2064  1  0.020500  0.947400  0.525500  1
  C  C2065  1  0.981100  0.549700  0.040300  1
  C  C2066  1  0.018900  0.049700  0.459700  1
  C  C2067  1  0.018900  0.450300  0.959700  1
  C  C2068  1  0.981100  0.950300  0.540300  1
  C  C2069  1  0.929700  0.542800  0.019500  1
  C  C2070  1  0.070300  0.042800  0.480500  1
  C  C2071  1  0.070300  0.457200  0.980500  1
  C  C2072  1  0.929700  0.957200  0.519500  1
  C  C2073  1  0.941600  0.537300  0.935000  1
  C  C2074  1  0.058400  0.037300  0.565000  1
  C  C2075  1  0.058400  0.462700  0.065000  1
  C  C2076  1  0.941600  0.962700  0.435000  1
  C  C2077  1  0.969500  0.537700  0.911000  1
  C  C2078  1  0.030500  0.037700  0.589000  1
  C  C2079  1  0.030500  0.462300  0.089000  1
  C  C2080  1  0.969500  0.962300  0.411000  1
  C  C2081  1  0.933800  0.528500  0.877900  1
  C  C2082  1  0.066200  0.028500  0.622100  1
  C  C2083  1  0.066200  0.471500  0.122100  1
  C  C2084  1  0.933800  0.971500  0.377900  1
  C  C2085  1  0.837300  0.503800  0.858400  1
  C  C2086  1  0.162700  0.003800  0.641600  1
  C  C2087  1  0.162700  0.496200  0.141600  1
  C  C2088  1  0.837300  0.996200  0.358400  1
  C  C2089  1  0.852500  0.387500  0.872000  1
  C  C2090  1  0.147500  0.887500  0.628000  1
  C  C2091  1  0.147500  0.612500  0.128000  1
  C  C2092  1  0.852500  0.112500  0.372000  1
  C  C2093  1  0.894900  0.409700  0.888800  1
  C  C2094  1  0.105100  0.909700  0.611200  1
  C  C2095  1  0.105100  0.590300  0.111200  1
  C  C2096  1  0.894900  0.090300  0.388800  1
  C  C2097  1  0.890600  0.447200  0.884800  1
  C  C2098  1  0.109400  0.947200  0.615200  1
  C  C2099  1  0.109400  0.552800  0.115200  1
  C  C2100  1  0.890600  0.052800  0.384800  1
  C  C2101  1  0.843900  0.462500  0.863900  1
  C  C2102  1  0.156100  0.962500  0.636100  1
  C  C2103  1  0.156100  0.537500  0.136100  1
  C  C2104  1  0.843900  0.037500  0.363900  1
  C  C2105  1  0.801400  0.440400  0.847000  1
  C  C2106  1  0.198600  0.940400  0.653000  1
  C  C2107  1  0.198600  0.559600  0.153000  1
  C  C2108  1  0.801400  0.059600  0.347000  1
  C  C2109  1  0.805700  0.402900  0.851100  1
  C  C2110  1  0.194300  0.902900  0.648900  1
  C  C2111  1  0.194300  0.597100  0.148900  1
  C  C2112  1  0.805700  0.097100  0.351100  1
  C  C2113  1  0.753100  0.455300  0.825400  1
  C  C2114  1  0.246900  0.955300  0.674600  1
  C  C2115  1  0.246900  0.544700  0.174600  1
  C  C2116  1  0.753100  0.044700  0.325400  1
  C  C2117  1  0.710600  0.432800  0.809800  1
  C  C2118  1  0.289400  0.932800  0.690200  1
  C  C2119  1  0.289400  0.567200  0.190200  1
  C  C2120  1  0.710600  0.067200  0.309800  1
  C  C2121  1  0.716500  0.396000  0.812600  1
  C  C2122  1  0.283500  0.896000  0.687400  1
  C  C2123  1  0.283500  0.604000  0.187400  1
  C  C2124  1  0.716500  0.104000  0.312600  1
  C  C2125  1  0.762600  0.380500  0.833000  1
  C  C2126  1  0.237400  0.880500  0.667000  1
  C  C2127  1  0.237400  0.619500  0.167000  1
  C  C2128  1  0.762600  0.119500  0.333000  1
  C  C2129  1  0.375300  0.528300  0.924400  1
  C  C2130  1  0.624700  0.028300  0.575600  1
  C  C2131  1  0.624700  0.471700  0.075600  1
  C  C2132  1  0.375300  0.971700  0.424400  1
  C  C2133  1  0.344300  0.533200  0.945300  1
  C  C2134  1  0.655700  0.033200  0.554700  1
  C  C2135  1  0.655700  0.466800  0.054700  1
  C  C2136  1  0.344300  0.966800  0.445300  1
  C  C2137  1  0.290100  0.529900  0.931300  1
  C  C2138  1  0.709900  0.029900  0.568700  1
  C  C2139  1  0.709900  0.470100  0.068700  1
  C  C2140  1  0.290100  0.970100  0.431300  1
  C  C2141  1  0.266800  0.521700  0.896400  1
  C  C2142  1  0.733200  0.021700  0.603600  1
  C  C2143  1  0.733200  0.478300  0.103600  1
  C  C2144  1  0.266800  0.978300  0.396400  1
  C  C2145  1  0.297800  0.516800  0.875500  1
  C  C2146  1  0.702200  0.016800  0.624500  1
  C  C2147  1  0.702200  0.483200  0.124500  1
  C  C2148  1  0.297800  0.983200  0.375500  1
  C  C2149  1  0.428400  0.531700  0.937000  1
  C  C2150  1  0.571600  0.031700  0.563000  1
  C  C2151  1  0.571600  0.468300  0.063000  1
  C  C2152  1  0.428400  0.968300  0.437000  1
  C  C2153  1  0.466600  0.535900  0.970300  1
  C  C2154  1  0.533400  0.035900  0.529700  1
  C  C2155  1  0.533400  0.464100  0.029700  1
  C  C2156  1  0.466600  0.964100  0.470300  1
  C  C2157  1  0.516300  0.540400  0.965800  1
  C  C2158  1  0.483700  0.040400  0.534200  1
  C  C2159  1  0.483700  0.459600  0.034200  1
  C  C2160  1  0.516300  0.959600  0.465800  1
  C  C2161  1  0.547500  0.542900  0.911400  1
  C  C2162  1  0.452500  0.042900  0.588600  1
  C  C2163  1  0.452500  0.457100  0.088600  1
  C  C2164  1  0.547500  0.957100  0.411400  1
  C  C2165  1  0.865500  0.618200  0.972500  1
  C  C2166  1  0.134500  0.118200  0.527500  1
  C  C2167  1  0.134500  0.381800  0.027500  1
  C  C2168  1  0.865500  0.881800  0.472500  1
  C  C2169  1  0.890000  0.651900  0.979700  1
  C  C2170  1  0.110000  0.151900  0.520300  1
  C  C2171  1  0.110000  0.348100  0.020300  1
  C  C2172  1  0.890000  0.848100  0.479700  1
  C  C2173  1  0.915200  0.666300  0.957900  1
  C  C2174  1  0.084800  0.166300  0.542100  1
  C  C2175  1  0.084800  0.333700  0.042100  1
  C  C2176  1  0.915200  0.833700  0.457900  1
  C  C2177  1  0.915900  0.646900  0.928900  1
  C  C2178  1  0.084100  0.146900  0.571100  1
  C  C2179  1  0.084100  0.353100  0.071100  1
  C  C2180  1  0.915900  0.853100  0.428900  1
  C  C2181  1  0.891400  0.613300  0.921600  1
  C  C2182  1  0.108600  0.113300  0.578400  1
  C  C2183  1  0.108600  0.386700  0.078400  1
  C  C2184  1  0.891400  0.886700  0.421600  1
  C  C2185  1  0.840100  0.604000  0.992600  1
  C  C2186  1  0.159900  0.104000  0.507400  1
  C  C2187  1  0.159900  0.396000  0.007400  1
  C  C2188  1  0.840100  0.896000  0.492600  1
  C  C2189  1  0.832800  0.613700  0.024400  1
  C  C2190  1  0.167200  0.113700  0.475600  1
  C  C2191  1  0.167200  0.386300  0.975600  1
  C  C2192  1  0.832800  0.886300  0.524400  1
  C  C2193  1  0.804100  0.585400  0.033600  1
  C  C2194  1  0.195900  0.085400  0.466400  1
  C  C2195  1  0.195900  0.414600  0.966400  1
  C  C2196  1  0.804100  0.914600  0.533600  1
  C  C2197  1  0.764800  0.526600  0.003000  1
  C  C2198  1  0.235200  0.026600  0.497000  1
  C  C2199  1  0.235200  0.473400  0.997000  1
  C  C2200  1  0.764800  0.973400  0.503000  1
  C  C2201  1  0.602700  0.537700  0.935200  1
  C  C2202  1  0.397300  0.037700  0.564800  1
  C  C2203  1  0.397300  0.462300  0.064800  1
  C  C2204  1  0.602700  0.962300  0.435200  1
  C  C2205  1  0.635500  0.567900  0.944100  1
  C  C2206  1  0.364500  0.067900  0.555900  1
  C  C2207  1  0.364500  0.432100  0.055900  1
  C  C2208  1  0.635500  0.932100  0.444100  1
  C  C2209  1  0.687600  0.563700  0.964700  1
  C  C2210  1  0.312400  0.063700  0.535300  1
  C  C2211  1  0.312400  0.436300  0.035300  1
  C  C2212  1  0.687600  0.936300  0.464700  1
  C  C2213  1  0.706900  0.529400  0.976600  1
  C  C2214  1  0.293100  0.029400  0.523400  1
  C  C2215  1  0.293100  0.470600  0.023400  1
  C  C2216  1  0.706900  0.970600  0.476600  1
  C  C2217  1  0.674100  0.499300  0.967800  1
  C  C2218  1  0.325900  0.999300  0.532200  1
  C  C2219  1  0.325900  0.500700  0.032200  1
  C  C2220  1  0.674100  0.000700  0.467800  1
  C  C2221  1  0.622000  0.503400  0.947100  1
  C  C2222  1  0.378000  0.003400  0.552900  1
  C  C2223  1  0.378000  0.496600  0.052900  1
  C  C2224  1  0.622000  0.996600  0.447100  1
  C  C2225  1  0.590200  0.472200  0.939400  1
  C  C2226  1  0.409800  0.972200  0.560600  1
  C  C2227  1  0.409800  0.527800  0.060600  1
  C  C2228  1  0.590200  0.027800  0.439400  1
  C  C2229  1  0.611400  0.438500  0.951400  1
  C  C2230  1  0.388600  0.938500  0.548600  1
  C  C2231  1  0.388600  0.561500  0.048600  1
  C  C2232  1  0.611400  0.061500  0.451400  1
  C  C2233  1  0.664300  0.434200  0.970000  1
  C  C2234  1  0.335700  0.934200  0.530000  1
  C  C2235  1  0.335700  0.565800  0.030000  1
  C  C2236  1  0.664300  0.065800  0.470000  1
  C  C2237  1  0.695500  0.464600  0.979000  1
  C  C2238  1  0.304500  0.964600  0.521000  1
  C  C2239  1  0.304500  0.535400  0.021000  1
  C  C2240  1  0.695500  0.035400  0.479000  1
  C  C2241  1  0.084100  0.559100  0.624900  1
  C  C2242  1  0.915900  0.059100  0.875100  1
  C  C2243  1  0.915900  0.440900  0.375100  1
  C  C2244  1  0.084100  0.940900  0.124900  1
  C  C2245  1  0.117500  0.569000  0.606800  1
  C  C2246  1  0.882500  0.069000  0.893200  1
  C  C2247  1  0.882500  0.431000  0.393200  1
  C  C2248  1  0.117500  0.931000  0.106800  1
  C  C2249  1  0.145100  0.542500  0.595600  1
  C  C2250  1  0.854900  0.042500  0.904400  1
  C  C2251  1  0.854900  0.457500  0.404400  1
  C  C2252  1  0.145100  0.957500  0.095600  1
  C  C2253  1  0.139100  0.506100  0.602600  1
  C  C2254  1  0.860900  0.006100  0.897400  1
  C  C2255  1  0.860900  0.493900  0.397400  1
  C  C2256  1  0.139100  0.993900  0.102600  1
  C  C2257  1  0.105600  0.496100  0.620700  1
  C  C2258  1  0.894400  0.996100  0.879300  1
  C  C2259  1  0.894400  0.503900  0.379300  1
  C  C2260  1  0.105600  0.003900  0.120700  1
  C  C2261  1  0.053400  0.582000  0.635400  1
  C  C2262  1  0.946600  0.082000  0.864600  1
  C  C2263  1  0.946600  0.418000  0.364600  1
  C  C2264  1  0.053400  0.918000  0.135400  1
  C  C2265  1  0.047200  0.620300  0.632300  1
  C  C2266  1  0.952800  0.120300  0.867700  1
  C  C2267  1  0.952800  0.379700  0.367700  1
  C  C2268  1  0.047200  0.879700  0.132300  1
  C  C2269  1  0.009100  0.630700  0.647600  1
  C  C2270  1  0.990900  0.130700  0.852400  1
  C  C2271  1  0.990900  0.369300  0.352400  1
  C  C2272  1  0.009100  0.869300  0.147600  1
  C  C2273  1  0.950100  0.594500  0.673800  1
  C  C2274  1  0.049900  0.094500  0.826200  1
  C  C2275  1  0.049900  0.405500  0.326200  1
  C  C2276  1  0.950100  0.905500  0.173800  1
  C  C2277  1  0.704800  0.750000  0.675500  1
  C  C2278  1  0.295200  0.250000  0.824500  1
  C  C2279  1  0.295200  0.250000  0.324500  1
  C  C2280  1  0.704800  0.750000  0.175500  1
  C  C2281  1  0.666500  0.767400  0.648700  1
  C  C2282  1  0.333500  0.267400  0.851300  1
  C  C2283  1  0.333500  0.232600  0.351300  1
  C  C2284  1  0.666500  0.732600  0.148700  1
  C  C2285  1  0.613700  0.761800  0.644100  1
  C  C2286  1  0.386300  0.261800  0.855900  1
  C  C2287  1  0.386300  0.238200  0.355900  1
  C  C2288  1  0.613700  0.738200  0.144100  1
  C  C2289  1  0.599200  0.738800  0.666400  1
  C  C2290  1  0.400800  0.238800  0.833600  1
  C  C2291  1  0.400800  0.261200  0.333600  1
  C  C2292  1  0.599200  0.761200  0.166400  1
  C  C2293  1  0.637400  0.721500  0.693200  1
  C  C2294  1  0.362600  0.221500  0.806800  1
  C  C2295  1  0.362600  0.278500  0.306800  1
  C  C2296  1  0.637400  0.778500  0.193200  1
  C  C2297  1  0.757900  0.752800  0.681100  1
  C  C2298  1  0.242100  0.252800  0.818900  1
  C  C2299  1  0.242100  0.247200  0.318900  1
  C  C2300  1  0.757900  0.747200  0.181100  1
  C  C2301  1  0.789600  0.775700  0.668300  1
  C  C2302  1  0.210400  0.275700  0.831700  1
  C  C2303  1  0.210400  0.224300  0.331700  1
  C  C2304  1  0.789600  0.724300  0.168300  1
  C  C2305  1  0.843000  0.768000  0.687100  1
  C  C2306  1  0.157000  0.268000  0.812900  1
  C  C2307  1  0.157000  0.232000  0.312900  1
  C  C2308  1  0.843000  0.732000  0.187100  1
  C  C2309  1  0.888900  0.722700  0.732900  1
  C  C2310  1  0.111100  0.222700  0.767100  1
  C  C2311  1  0.111100  0.277300  0.267100  1
  C  C2312  1  0.888900  0.777300  0.232900  1
  C  C2313  1  0.940700  0.630000  0.689800  1
  C  C2314  1  0.059300  0.130000  0.810200  1
  C  C2315  1  0.059300  0.370000  0.310200  1
  C  C2316  1  0.940700  0.870000  0.189800  1
  C  C2317  1  0.894500  0.647500  0.671000  1
  C  C2318  1  0.105500  0.147500  0.829000  1
  C  C2319  1  0.105500  0.352500  0.329000  1
  C  C2320  1  0.894500  0.852500  0.171000  1
  C  C2321  1  0.878200  0.678200  0.684500  1
  C  C2322  1  0.121800  0.178200  0.815500  1
  C  C2323  1  0.121800  0.321800  0.315500  1
  C  C2324  1  0.878200  0.821800  0.184500  1
  C  C2325  1  0.908000  0.691300  0.716900  1
  C  C2326  1  0.092000  0.191300  0.783100  1
  C  C2327  1  0.092000  0.308700  0.283100  1
  C  C2328  1  0.908000  0.808700  0.216900  1
  C  C2329  1  0.954200  0.673700  0.735800  1
  C  C2330  1  0.045800  0.173700  0.764200  1
  C  C2331  1  0.045800  0.326300  0.264200  1
  C  C2332  1  0.954200  0.826300  0.235800  1
  C  C2333  1  0.970600  0.643100  0.722200  1
  C  C2334  1  0.029400  0.143100  0.777800  1
  C  C2335  1  0.029400  0.356900  0.277800  1
  C  C2336  1  0.970600  0.856900  0.222200  1
  C  C2337  1  0.983800  0.685900  0.768900  1
  C  C2338  1  0.016200  0.185900  0.731100  1
  C  C2339  1  0.016200  0.314100  0.231100  1
  C  C2340  1  0.983800  0.814100  0.268900  1
  C  C2341  1  0.029300  0.668900  0.787700  1
  C  C2342  1  0.970700  0.168900  0.712300  1
  C  C2343  1  0.970700  0.331100  0.212300  1
  C  C2344  1  0.029300  0.831100  0.287700  1
  C  C2345  1  0.047300  0.639700  0.772900  1
  C  C2346  1  0.952700  0.139700  0.727100  1
  C  C2347  1  0.952700  0.360300  0.227100  1
  C  C2348  1  0.047300  0.860300  0.272900  1
  C  C2349  1  0.019200  0.626100  0.740700  1
  C  C2350  1  0.980800  0.126100  0.759300  1
  C  C2351  1  0.980800  0.373900  0.259300  1
  C  C2352  1  0.019200  0.873900  0.240700  1
  C  C2353  1  0.770300  0.481900  0.918400  1
  C  C2354  1  0.229700  0.981900  0.581600  1
  C  C2355  1  0.229700  0.518100  0.081600  1
  C  C2356  1  0.770300  0.018100  0.418400  1
  C  C2357  1  0.756400  0.445600  0.912500  1
  C  C2358  1  0.243600  0.945600  0.587500  1
  C  C2359  1  0.243600  0.554400  0.087500  1
  C  C2360  1  0.756400  0.054400  0.412500  1
  C  C2361  1  0.787600  0.418900  0.933400  1
  C  C2362  1  0.212400  0.918900  0.566600  1
  C  C2363  1  0.212400  0.581100  0.066600  1
  C  C2364  1  0.787600  0.081100  0.433400  1
  C  C2365  1  0.832800  0.428600  0.960100  1
  C  C2366  1  0.167200  0.928600  0.539900  1
  C  C2367  1  0.167200  0.571400  0.039900  1
  C  C2368  1  0.832800  0.071400  0.460100  1
  C  C2369  1  0.846700  0.464900  0.965900  1
  C  C2370  1  0.153300  0.964900  0.534100  1
  C  C2371  1  0.153300  0.535100  0.034100  1
  C  C2372  1  0.846700  0.035100  0.465900  1
  C  C2373  1  0.743200  0.510700  0.900000  1
  C  C2374  1  0.256800  0.010700  0.600000  1
  C  C2375  1  0.256800  0.489300  0.100000  1
  C  C2376  1  0.743200  0.989300  0.400000  1
  C  C2377  1  0.691800  0.515300  0.876200  1
  C  C2378  1  0.308200  0.015300  0.623800  1
  C  C2379  1  0.308200  0.484700  0.123800  1
  C  C2380  1  0.691800  0.984700  0.376200  1
  C  C2381  1  0.683000  0.553200  0.869900  1
  C  C2382  1  0.317000  0.053200  0.630100  1
  C  C2383  1  0.317000  0.446800  0.130100  1
  C  C2384  1  0.683000  0.946800  0.369900  1
  C  C2385  1  0.737200  0.607700  0.895000  1
  C  C2386  1  0.262800  0.107700  0.605000  1
  C  C2387  1  0.262800  0.392300  0.105000  1
  C  C2388  1  0.737200  0.892300  0.395000  1
  C  C2389  1  0.782500  0.634700  0.699400  1
  C  C2390  1  0.217500  0.134700  0.800600  1
  C  C2391  1  0.217500  0.365300  0.300600  1
  C  C2392  1  0.782500  0.865300  0.199400  1
  C  C2393  1  0.786700  0.609800  0.674900  1
  C  C2394  1  0.213300  0.109800  0.825100  1
  C  C2395  1  0.213300  0.390200  0.325100  1
  C  C2396  1  0.786700  0.890200  0.174900  1
  C  C2397  1  0.749300  0.609300  0.642000  1
  C  C2398  1  0.250700  0.109300  0.858000  1
  C  C2399  1  0.250700  0.390700  0.358000  1
  C  C2400  1  0.749300  0.890700  0.142000  1
  C  C2401  1  0.707700  0.633800  0.633700  1
  C  C2402  1  0.292300  0.133800  0.866300  1
  C  C2403  1  0.292300  0.366200  0.366300  1
  C  C2404  1  0.707700  0.866200  0.133700  1
  C  C2405  1  0.703600  0.658700  0.658200  1
  C  C2406  1  0.296400  0.158700  0.841800  1
  C  C2407  1  0.296400  0.341300  0.341800  1
  C  C2408  1  0.703600  0.841300  0.158200  1
  C  C2409  1  0.819300  0.635300  0.730800  1
  C  C2410  1  0.180700  0.135300  0.769200  1
  C  C2411  1  0.180700  0.364700  0.269200  1
  C  C2412  1  0.819300  0.864700  0.230800  1
  C  C2413  1  0.865600  0.615900  0.749000  1
  C  C2414  1  0.134400  0.115900  0.751000  1
  C  C2415  1  0.134400  0.384100  0.251000  1
  C  C2416  1  0.865600  0.884100  0.249000  1
  C  C2417  1  0.885800  0.630600  0.782900  1
  C  C2418  1  0.114200  0.130600  0.717100  1
  C  C2419  1  0.114200  0.369400  0.217100  1
  C  C2420  1  0.885800  0.869400  0.282900  1
  C  C2421  1  0.854700  0.677900  0.815900  1
  C  C2422  1  0.145300  0.177900  0.684100  1
  C  C2423  1  0.145300  0.322100  0.184100  1
  C  C2424  1  0.854700  0.822100  0.315900  1
  C  C2425  1  0.768200  0.626400  0.874800  1
  C  C2426  1  0.231800  0.126400  0.625200  1
  C  C2427  1  0.231800  0.373600  0.125200  1
  C  C2428  1  0.768200  0.873600  0.374800  1
  C  C2429  1  0.776400  0.608100  0.847300  1
  C  C2430  1  0.223600  0.108100  0.652700  1
  C  C2431  1  0.223600  0.391900  0.152700  1
  C  C2432  1  0.776400  0.891900  0.347300  1
  C  C2433  1  0.804000  0.624700  0.828000  1
  C  C2434  1  0.196000  0.124700  0.672000  1
  C  C2435  1  0.196000  0.375300  0.172000  1
  C  C2436  1  0.804000  0.875300  0.328000  1
  C  C2437  1  0.823500  0.659700  0.836300  1
  C  C2438  1  0.176500  0.159700  0.663700  1
  C  C2439  1  0.176500  0.340300  0.163700  1
  C  C2440  1  0.823500  0.840300  0.336300  1
  C  C2441  1  0.815400  0.678100  0.863800  1
  C  C2442  1  0.184600  0.178100  0.636200  1
  C  C2443  1  0.184600  0.321900  0.136200  1
  C  C2444  1  0.815400  0.821900  0.363800  1
  C  C2445  1  0.787700  0.661400  0.883100  1
  C  C2446  1  0.212300  0.161400  0.616900  1
  C  C2447  1  0.212300  0.338600  0.116900  1
  C  C2448  1  0.787700  0.838600  0.383100  1
  C  C2449  1  0.836100  0.713200  0.872800  1
  C  C2450  1  0.163900  0.213200  0.627200  1
  C  C2451  1  0.163900  0.286800  0.127200  1
  C  C2452  1  0.836100  0.786800  0.372800  1
  C  C2453  1  0.830100  0.730000  0.901600  1
  C  C2454  1  0.169900  0.230000  0.598400  1
  C  C2455  1  0.169900  0.270000  0.098400  1
  C  C2456  1  0.830100  0.770000  0.401600  1
  C  C2457  1  0.801100  0.714400  0.920000  1
  C  C2458  1  0.198900  0.214400  0.580000  1
  C  C2459  1  0.198900  0.285600  0.080000  1
  C  C2460  1  0.801100  0.785600  0.420000  1
  C  C2461  1  0.780300  0.680400  0.911200  1
  C  C2462  1  0.219700  0.180400  0.588800  1
  C  C2463  1  0.219700  0.319600  0.088800  1
  C  C2464  1  0.780300  0.819600  0.411200  1
  C  C2465  1  0.724000  0.726200  0.790800  1
  C  C2466  1  0.276000  0.226200  0.709200  1
  C  C2467  1  0.276000  0.273800  0.209200  1
  C  C2468  1  0.724000  0.773800  0.290800  1
  C  C2469  1  0.721300  0.750600  0.816200  1
  C  C2470  1  0.278700  0.250600  0.683800  1
  C  C2471  1  0.278700  0.249400  0.183800  1
  C  C2472  1  0.721300  0.749400  0.316200  1
  C  C2473  1  0.748600  0.783200  0.820600  1
  C  C2474  1  0.251400  0.283200  0.679400  1
  C  C2475  1  0.251400  0.216800  0.179400  1
  C  C2476  1  0.748600  0.716800  0.320600  1
  C  C2477  1  0.778400  0.791600  0.799600  1
  C  C2478  1  0.221600  0.291600  0.700400  1
  C  C2479  1  0.221600  0.208400  0.200400  1
  C  C2480  1  0.778400  0.708400  0.299600  1
  C  C2481  1  0.781100  0.767200  0.774200  1
  C  C2482  1  0.218900  0.267200  0.725800  1
  C  C2483  1  0.218900  0.232800  0.225800  1
  C  C2484  1  0.781100  0.732800  0.274200  1
  C  C2485  1  0.699200  0.695200  0.786400  1
  C  C2486  1  0.300800  0.195200  0.713600  1
  C  C2487  1  0.300800  0.304800  0.213600  1
  C  C2488  1  0.699200  0.804800  0.286400  1
  C  C2489  1  0.671300  0.675000  0.804300  1
  C  C2490  1  0.328700  0.175000  0.695700  1
  C  C2491  1  0.328700  0.325000  0.195700  1
  C  C2492  1  0.671300  0.825000  0.304300  1
  C  C2493  1  0.659800  0.640300  0.788400  1
  C  C2494  1  0.340200  0.140300  0.711600  1
  C  C2495  1  0.340200  0.359700  0.211600  1
  C  C2496  1  0.659800  0.859700  0.288400  1
  C  C2497  1  0.678700  0.611200  0.738400  1
  C  C2498  1  0.321300  0.111200  0.761600  1
  C  C2499  1  0.321300  0.388800  0.261600  1
  C  C2500  1  0.678700  0.888800  0.238400  1
  C  C2501  1  0.352300  0.693100  0.595600  1
  C  C2502  1  0.647700  0.193100  0.904400  1
  C  C2503  1  0.647700  0.306900  0.404400  1
  C  C2504  1  0.352300  0.806900  0.095600  1
  C  C2505  1  0.322200  0.724200  0.584500  1
  C  C2506  1  0.677800  0.224200  0.915500  1
  C  C2507  1  0.677800  0.275800  0.415500  1
  C  C2508  1  0.322200  0.775800  0.084500  1
  C  C2509  1  0.270000  0.724700  0.583100  1
  C  C2510  1  0.730000  0.224700  0.916900  1
  C  C2511  1  0.730000  0.275300  0.416900  1
  C  C2512  1  0.270000  0.775300  0.083100  1
  C  C2513  1  0.247900  0.694100  0.592700  1
  C  C2514  1  0.752100  0.194100  0.907300  1
  C  C2515  1  0.752100  0.305900  0.407300  1
  C  C2516  1  0.247900  0.805900  0.092700  1
  C  C2517  1  0.278100  0.663000  0.603800  1
  C  C2518  1  0.721900  0.163000  0.896200  1
  C  C2519  1  0.721900  0.337000  0.396200  1
  C  C2520  1  0.278100  0.837000  0.103800  1
  C  C2521  1  0.401500  0.691400  0.598400  1
  C  C2522  1  0.598500  0.191400  0.901600  1
  C  C2523  1  0.598500  0.308600  0.401600  1
  C  C2524  1  0.401500  0.808600  0.098400  1
  C  C2525  1  0.436200  0.716200  0.590300  1
  C  C2526  1  0.563800  0.216200  0.909700  1
  C  C2527  1  0.563800  0.283800  0.409700  1
  C  C2528  1  0.436200  0.783800  0.090300  1
  C  C2529  1  0.483300  0.697300  0.593000  1
  C  C2530  1  0.516700  0.197300  0.907000  1
  C  C2531  1  0.516700  0.302700  0.407000  1
  C  C2532  1  0.483300  0.802700  0.093000  1
  C  C2533  1  0.516300  0.631000  0.606300  1
  C  C2534  1  0.483700  0.131000  0.893700  1
  C  C2535  1  0.483700  0.369000  0.393700  1
  C  C2536  1  0.516300  0.869000  0.106300  1
  C  C2537  1  0.636100  0.614700  0.705000  1
  C  C2538  1  0.363900  0.114700  0.795000  1
  C  C2539  1  0.363900  0.385300  0.295000  1
  C  C2540  1  0.636100  0.885300  0.205000  1
  C  C2541  1  0.595000  0.639300  0.702000  1
  C  C2542  1  0.405000  0.139300  0.798000  1
  C  C2543  1  0.405000  0.360700  0.298000  1
  C  C2544  1  0.595000  0.860700  0.202000  1
  C  C2545  1  0.556200  0.645700  0.670200  1
  C  C2546  1  0.443800  0.145700  0.829800  1
  C  C2547  1  0.443800  0.354300  0.329800  1
  C  C2548  1  0.556200  0.854300  0.170200  1
  C  C2549  1  0.555200  0.625100  0.641900  1
  C  C2550  1  0.444800  0.125100  0.858100  1
  C  C2551  1  0.444800  0.374900  0.358100  1
  C  C2552  1  0.555200  0.874900  0.141900  1
  C  C2553  1  0.633200  0.593900  0.675600  1
  C  C2554  1  0.366800  0.093900  0.824400  1
  C  C2555  1  0.366800  0.406100  0.324400  1
  C  C2556  1  0.633200  0.906100  0.175600  1
  C  C2557  1  0.594700  0.600000  0.643800  1
  C  C2558  1  0.405300  0.100000  0.856200  1
  C  C2559  1  0.405300  0.400000  0.356200  1
  C  C2560  1  0.594700  0.900000  0.143800  1
  C  C2561  1  0.593700  0.579100  0.615200  1
  C  C2562  1  0.406300  0.079100  0.884800  1
  C  C2563  1  0.406300  0.420900  0.384800  1
  C  C2564  1  0.593700  0.920900  0.115200  1
  C  C2565  1  0.631200  0.552200  0.618500  1
  C  C2566  1  0.368800  0.052200  0.881500  1
  C  C2567  1  0.368800  0.447800  0.381500  1
  C  C2568  1  0.631200  0.947800  0.118500  1
  C  C2569  1  0.669700  0.546100  0.650300  1
  C  C2570  1  0.330300  0.046100  0.849700  1
  C  C2571  1  0.330300  0.453900  0.349700  1
  C  C2572  1  0.669700  0.953900  0.150300  1
  C  C2573  1  0.670700  0.567000  0.678900  1
  C  C2574  1  0.329300  0.067000  0.821100  1
  C  C2575  1  0.329300  0.433000  0.321100  1
  C  C2576  1  0.670700  0.933000  0.178900  1
  C  C2577  1  0.316400  0.383200  0.956200  1
  C  C2578  1  0.683600  0.883200  0.543800  1
  C  C2579  1  0.683600  0.616800  0.043800  1
  C  C2580  1  0.316400  0.116800  0.456200  1
  C  C2581  1  0.346600  0.416400  0.961500  1
  C  C2582  1  0.653400  0.916400  0.538500  1
  C  C2583  1  0.653400  0.583600  0.038500  1
  C  C2584  1  0.346600  0.083600  0.461500  1
  C  C2585  1  0.407700  0.784300  0.654300  1
  C  C2586  1  0.592300  0.284300  0.845700  1
  C  C2587  1  0.592300  0.215700  0.345700  1
  C  C2588  1  0.407700  0.715700  0.154300  1
  C  C2589  1  0.452400  0.761300  0.671800  1
  C  C2590  1  0.547600  0.261300  0.828200  1
  C  C2591  1  0.547600  0.238700  0.328200  1
  C  C2592  1  0.452400  0.738700  0.171800  1
  C  C2593  1  0.661300  0.368500  0.892000  1
  C  C2594  1  0.338700  0.868500  0.608000  1
  C  C2595  1  0.338700  0.631500  0.108000  1
  C  C2596  1  0.661300  0.131500  0.392000  1
  C  C2597  1  0.623800  0.386400  0.862500  1
  C  C2598  1  0.376200  0.886400  0.637500  1
  C  C2599  1  0.376200  0.613600  0.137500  1
  C  C2600  1  0.623800  0.113600  0.362500  1
  C  C2601  1  0.224200  0.623500  0.891300  1
  C  C2602  1  0.775800  0.123500  0.608700  1
  C  C2603  1  0.775800  0.376500  0.108700  1
  C  C2604  1  0.224200  0.876500  0.391300  1
  C  C2605  1  0.194000  0.615700  0.854800  1
  C  C2606  1  0.806000  0.115700  0.645200  1
  C  C2607  1  0.806000  0.384300  0.145200  1
  C  C2608  1  0.194000  0.884300  0.354800  1
  C  C2609  1  0.758900  0.708600  0.011900  1
  C  C2610  1  0.241100  0.208600  0.488100  1
  C  C2611  1  0.241100  0.291400  0.988100  1
  C  C2612  1  0.758900  0.791400  0.511900  1
  C  C2613  1  0.734000  0.680100  0.987200  1
  C  C2614  1  0.266000  0.180100  0.512800  1
  C  C2615  1  0.266000  0.319900  0.012800  1
  C  C2616  1  0.734000  0.819900  0.487200  1
  C  C2617  1  0.716400  0.737800  0.576500  1
  C  C2618  1  0.283600  0.237800  0.923500  1
  C  C2619  1  0.283600  0.262200  0.423500  1
  C  C2620  1  0.716400  0.762200  0.076500  1
  C  C2621  1  0.758200  0.711100  0.584800  1
  C  C2622  1  0.241800  0.211100  0.915200  1
  C  C2623  1  0.241800  0.288900  0.415200  1
  C  C2624  1  0.758200  0.788900  0.084800  1
  C  C2625  1  0.756800  0.502000  0.747900  1
  C  C2626  1  0.243200  0.002000  0.752100  1
  C  C2627  1  0.243200  0.498000  0.252100  1
  C  C2628  1  0.756800  0.998000  0.247900  1
  C  C2629  1  0.777200  0.478800  0.727600  1
  C  C2630  1  0.222800  0.978800  0.772400  1
  C  C2631  1  0.222800  0.521200  0.272400  1
  C  C2632  1  0.777200  0.021200  0.227600  1
  C  C2633  1  0.259400  0.366800  0.848900  1
  C  C2634  1  0.740600  0.866800  0.651100  1
  C  C2635  1  0.740600  0.633200  0.151100  1
  C  C2636  1  0.259400  0.133200  0.348900  1
  C  C2637  1  0.268000  0.405800  0.853700  1
  C  C2638  1  0.732000  0.905800  0.646300  1
  C  C2639  1  0.732000  0.594200  0.146300  1
  C  C2640  1  0.268000  0.094200  0.353700  1
  N  N2641  1  0.766200  0.332400  0.545700  1
  N  N2642  1  0.233800  0.832400  0.954300  1
  N  N2643  1  0.233800  0.667600  0.454300  1
  N  N2644  1  0.766200  0.167600  0.045700  1
  N  N2645  1  0.867800  0.283600  0.630800  1
  N  N2646  1  0.132200  0.783600  0.869200  1
  N  N2647  1  0.132200  0.716400  0.369200  1
  N  N2648  1  0.867800  0.216400  0.130800  1
  N  N2649  1  0.826400  0.298100  0.602600  1
  N  N2650  1  0.173600  0.798100  0.897400  1
  N  N2651  1  0.173600  0.701900  0.397400  1
  N  N2652  1  0.826400  0.201900  0.102600  1
  N  N2653  1  0.001200  0.374300  0.854200  1
  N  N2654  1  0.998800  0.874300  0.645800  1
  N  N2655  1  0.998800  0.625700  0.145800  1
  N  N2656  1  0.001200  0.125700  0.354200  1
  N  N2657  1  0.854900  0.353700  0.788400  1
  N  N2658  1  0.145100  0.853700  0.711600  1
  N  N2659  1  0.145100  0.646300  0.211600  1
  N  N2660  1  0.854900  0.146300  0.288400  1
  N  N2661  1  0.907400  0.356800  0.811100  1
  N  N2662  1  0.092600  0.856800  0.688900  1
  N  N2663  1  0.092600  0.643200  0.188900  1
  N  N2664  1  0.907400  0.143200  0.311100  1
  N  N2665  1  0.725900  0.286100  0.628200  1
  N  N2666  1  0.274100  0.786100  0.871800  1
  N  N2667  1  0.274100  0.713900  0.371800  1
  N  N2668  1  0.725900  0.213900  0.128200  1
  N  N2669  1  0.766800  0.389000  0.618500  1
  N  N2670  1  0.233200  0.889000  0.881500  1
  N  N2671  1  0.233200  0.611000  0.381500  1
  N  N2672  1  0.766800  0.111000  0.118500  1
  N  N2673  1  0.752100  0.351900  0.618400  1
  N  N2674  1  0.247900  0.851900  0.881600  1
  N  N2675  1  0.247900  0.648100  0.381600  1
  N  N2676  1  0.752100  0.148100  0.118400  1
  N  N2677  1  0.080600  0.511400  0.704300  1
  N  N2678  1  0.919400  0.011400  0.795700  1
  N  N2679  1  0.919400  0.488600  0.295700  1
  N  N2680  1  0.080600  0.988600  0.204300  1
  N  N2681  1  0.031900  0.422000  0.644800  1
  N  N2682  1  0.968100  0.922000  0.855200  1
  N  N2683  1  0.968100  0.578000  0.355200  1
  N  N2684  1  0.031900  0.078000  0.144800  1
  N  N2685  1  0.043400  0.455700  0.662600  1
  N  N2686  1  0.956600  0.955700  0.837400  1
  N  N2687  1  0.956600  0.544300  0.337400  1
  N  N2688  1  0.043400  0.044300  0.162600  1
  N  N2689  1  0.936400  0.272000  0.822000  1
  N  N2690  1  0.063600  0.772000  0.678000  1
  N  N2691  1  0.063600  0.728000  0.178000  1
  N  N2692  1  0.936400  0.228000  0.322000  1
  N  N2693  1  0.022900  0.328800  0.779700  1
  N  N2694  1  0.977100  0.828800  0.720300  1
  N  N2695  1  0.977100  0.671200  0.220300  1
  N  N2696  1  0.022900  0.171200  0.279700  1
  N  N2697  1  0.995300  0.313800  0.798000  1
  N  N2698  1  0.004700  0.813800  0.702000  1
  N  N2699  1  0.004700  0.686200  0.202000  1
  N  N2700  1  0.995300  0.186200  0.298000  1
  N  N2701  1  0.961500  0.509300  0.606900  1
  N  N2702  1  0.038500  0.009300  0.893100  1
  N  N2703  1  0.038500  0.490700  0.393100  1
  N  N2704  1  0.961500  0.990700  0.106900  1
  N  N2705  1  0.940400  0.500900  0.698800  1
  N  N2706  1  0.059600  0.000900  0.801200  1
  N  N2707  1  0.059600  0.499100  0.301200  1
  N  N2708  1  0.940400  0.999100  0.198800  1
  N  N2709  1  0.954000  0.503500  0.670200  1
  N  N2710  1  0.046000  0.003500  0.829800  1
  N  N2711  1  0.046000  0.496500  0.329800  1
  N  N2712  1  0.954000  0.996500  0.170200  1
  N  N2713  1  0.445600  0.361600  0.623500  1
  N  N2714  1  0.554400  0.861600  0.876500  1
  N  N2715  1  0.554400  0.638400  0.376500  1
  N  N2716  1  0.445600  0.138400  0.123500  1
  N  N2717  1  0.502500  0.407300  0.718200  1
  N  N2718  1  0.497500  0.907300  0.781800  1
  N  N2719  1  0.497500  0.592700  0.281800  1
  N  N2720  1  0.502500  0.092700  0.218200  1
  N  N2721  1  0.480200  0.388400  0.686400  1
  N  N2722  1  0.519800  0.888400  0.813600  1
  N  N2723  1  0.519800  0.611600  0.313600  1
  N  N2724  1  0.480200  0.111600  0.186400  1
  N  N2725  1  0.378200  0.573800  0.849100  1
  N  N2726  1  0.621800  0.073800  0.650900  1
  N  N2727  1  0.621800  0.426200  0.150900  1
  N  N2728  1  0.378200  0.926200  0.349100  1
  N  N2729  1  0.322400  0.486700  0.789400  1
  N  N2730  1  0.677600  0.986700  0.710600  1
  N  N2731  1  0.677600  0.513300  0.210600  1
  N  N2732  1  0.322400  0.013300  0.289400  1
  N  N2733  1  0.345000  0.514200  0.814300  1
  N  N2734  1  0.655000  0.014200  0.685700  1
  N  N2735  1  0.655000  0.485800  0.185700  1
  N  N2736  1  0.345000  0.985800  0.314300  1
  N  N2737  1  0.411200  0.327800  0.711700  1
  N  N2738  1  0.588800  0.827800  0.788300  1
  N  N2739  1  0.588800  0.672200  0.288300  1
  N  N2740  1  0.411200  0.172200  0.211700  1
  N  N2741  1  0.325500  0.398600  0.638600  1
  N  N2742  1  0.674500  0.898600  0.861400  1
  N  N2743  1  0.674500  0.601400  0.361400  1
  N  N2744  1  0.325500  0.101400  0.138600  1
  N  N2745  1  0.361400  0.375300  0.662600  1
  N  N2746  1  0.638600  0.875300  0.837400  1
  N  N2747  1  0.638600  0.624700  0.337400  1
  N  N2748  1  0.361400  0.124700  0.162600  1
  N  N2749  1  0.415300  0.645000  0.674500  1
  N  N2750  1  0.584700  0.145000  0.825500  1
  N  N2751  1  0.584700  0.355000  0.325500  1
  N  N2752  1  0.415300  0.855000  0.174500  1
  N  N2753  1  0.474300  0.555100  0.644400  1
  N  N2754  1  0.525700  0.055100  0.855600  1
  N  N2755  1  0.525700  0.444900  0.355600  1
  N  N2756  1  0.474300  0.944900  0.144400  1
  N  N2757  1  0.447900  0.585800  0.651900  1
  N  N2758  1  0.552100  0.085800  0.848100  1
  N  N2759  1  0.552100  0.414200  0.348100  1
  N  N2760  1  0.447900  0.914200  0.151900  1
  N  N2761  1  0.427600  0.466300  0.872900  1
  N  N2762  1  0.572400  0.966300  0.627100  1
  N  N2763  1  0.572400  0.533700  0.127100  1
  N  N2764  1  0.427600  0.033700  0.372900  1
  N  N2765  1  0.487400  0.536100  0.820400  1
  N  N2766  1  0.512600  0.036100  0.679600  1
  N  N2767  1  0.512600  0.463900  0.179600  1
  N  N2768  1  0.487400  0.963900  0.320400  1
  N  N2769  1  0.461700  0.514100  0.838500  1
  N  N2770  1  0.538300  0.014100  0.661500  1
  N  N2771  1  0.538300  0.485900  0.161500  1
  N  N2772  1  0.461700  0.985900  0.338500  1
  N  N2773  1  0.359500  0.592400  0.578300  1
  N  N2774  1  0.640500  0.092400  0.921700  1
  N  N2775  1  0.640500  0.407600  0.421700  1
  N  N2776  1  0.359500  0.907600  0.078300  1
  N  N2777  1  0.304200  0.578400  0.657400  1
  N  N2778  1  0.695800  0.078400  0.842600  1
  N  N2779  1  0.695800  0.421600  0.342600  1
  N  N2780  1  0.304200  0.921600  0.157400  1
  N  N2781  1  0.328500  0.586400  0.632200  1
  N  N2782  1  0.671500  0.086400  0.867800  1
  N  N2783  1  0.671500  0.413600  0.367800  1
  N  N2784  1  0.328500  0.913600  0.132200  1
  N  N2785  1  0.727800  0.261600  0.555300  1
  N  N2786  1  0.272200  0.761600  0.944700  1
  N  N2787  1  0.272200  0.738400  0.444700  1
  N  N2788  1  0.727800  0.238400  0.055300  1
  N  N2789  1  0.623200  0.341000  0.553400  1
  N  N2790  1  0.376800  0.841000  0.946600  1
  N  N2791  1  0.376800  0.659000  0.446600  1
  N  N2792  1  0.623200  0.159000  0.053400  1
  N  N2793  1  0.662400  0.313800  0.558400  1
  N  N2794  1  0.337600  0.813800  0.941600  1
  N  N2795  1  0.337600  0.686200  0.441600  1
  N  N2796  1  0.662400  0.186200  0.058400  1
  N  N2797  1  0.384600  0.299600  0.641500  1
  N  N2798  1  0.615400  0.799600  0.858500  1
  N  N2799  1  0.615400  0.700400  0.358500  1
  N  N2800  1  0.384600  0.200400  0.141500  1
  N  N2801  1  0.539900  0.300700  0.694600  1
  N  N2802  1  0.460100  0.800700  0.805400  1
  N  N2803  1  0.460100  0.699300  0.305400  1
  N  N2804  1  0.539900  0.199300  0.194600  1
  N  N2805  1  0.486100  0.304500  0.674700  1
  N  N2806  1  0.513900  0.804500  0.825300  1
  N  N2807  1  0.513900  0.695500  0.325300  1
  N  N2808  1  0.486100  0.195500  0.174700  1
  N  N2809  1  0.032500  0.295600  0.874900  1
  N  N2810  1  0.967500  0.795600  0.625100  1
  N  N2811  1  0.967500  0.704400  0.125100  1
  N  N2812  1  0.032500  0.204400  0.374900  1
  N  N2813  1  0.907700  0.334800  0.896900  1
  N  N2814  1  0.092300  0.834800  0.603100  1
  N  N2815  1  0.092300  0.665200  0.103100  1
  N  N2816  1  0.907700  0.165200  0.396900  1
  N  N2817  1  0.948700  0.321100  0.885800  1
  N  N2818  1  0.051300  0.821100  0.614200  1
  N  N2819  1  0.051300  0.678900  0.114200  1
  N  N2820  1  0.948700  0.178900  0.385800  1
  N  N2821  1  0.917800  0.538900  0.984000  1
  N  N2822  1  0.082200  0.038900  0.516000  1
  N  N2823  1  0.082200  0.461100  0.016000  1
  N  N2824  1  0.917800  0.961100  0.484000  1
  N  N2825  1  0.883800  0.522500  0.881400  1
  N  N2826  1  0.116200  0.022500  0.618600  1
  N  N2827  1  0.116200  0.477500  0.118600  1
  N  N2828  1  0.883800  0.977500  0.381400  1
  N  N2829  1  0.888600  0.527900  0.916800  1
  N  N2830  1  0.111400  0.027900  0.583200  1
  N  N2831  1  0.111400  0.472100  0.083200  1
  N  N2832  1  0.888600  0.972100  0.416800  1
  N  N2833  1  0.352100  0.520100  0.889500  1
  N  N2834  1  0.647900  0.020100  0.610500  1
  N  N2835  1  0.647900  0.479900  0.110500  1
  N  N2836  1  0.352100  0.979900  0.389500  1
  N  N2837  1  0.508700  0.539100  0.929800  1
  N  N2838  1  0.491300  0.039100  0.570200  1
  N  N2839  1  0.491300  0.460900  0.070200  1
  N  N2840  1  0.508700  0.960900  0.429800  1
  N  N2841  1  0.454400  0.533700  0.912000  1
  N  N2842  1  0.545600  0.033700  0.588000  1
  N  N2843  1  0.545600  0.466300  0.088000  1
  N  N2844  1  0.454400  0.966300  0.412000  1
  N  N2845  1  0.866300  0.598900  0.943400  1
  N  N2846  1  0.133700  0.098900  0.556600  1
  N  N2847  1  0.133700  0.401100  0.056600  1
  N  N2848  1  0.866300  0.901100  0.443400  1
  N  N2849  1  0.793600  0.558200  0.007600  1
  N  N2850  1  0.206400  0.058200  0.492400  1
  N  N2851  1  0.206400  0.441800  0.992400  1
  N  N2852  1  0.793600  0.941800  0.507600  1
  N  N2853  1  0.815800  0.569700  0.982300  1
  N  N2854  1  0.184200  0.069700  0.517700  1
  N  N2855  1  0.184200  0.430300  0.017700  1
  N  N2856  1  0.815800  0.930300  0.482300  1
  N  N2857  1  0.078100  0.522700  0.631800  1
  N  N2858  1  0.921900  0.022700  0.868200  1
  N  N2859  1  0.921900  0.477300  0.368200  1
  N  N2860  1  0.078100  0.977300  0.131800  1
  N  N2861  1  0.991700  0.598800  0.660100  1
  N  N2862  1  0.008300  0.098800  0.839900  1
  N  N2863  1  0.008300  0.401200  0.339900  1
  N  N2864  1  0.991700  0.901200  0.160100  1
  N  N2865  1  0.019100  0.568700  0.652600  1
  N  N2866  1  0.980900  0.068700  0.847400  1
  N  N2867  1  0.980900  0.431300  0.347400  1
  N  N2868  1  0.019100  0.931300  0.152600  1
  N  N2869  1  0.690200  0.727100  0.697800  1
  N  N2870  1  0.309800  0.227100  0.802200  1
  N  N2871  1  0.309800  0.272900  0.302200  1
  N  N2872  1  0.690200  0.772900  0.197800  1
  N  N2873  1  0.844300  0.740300  0.711500  1
  N  N2874  1  0.155700  0.240300  0.788500  1
  N  N2875  1  0.155700  0.259700  0.288500  1
  N  N2876  1  0.844300  0.759700  0.211500  1
  N  N2877  1  0.791700  0.730900  0.707800  1
  N  N2878  1  0.208300  0.230900  0.792200  1
  N  N2879  1  0.208300  0.269100  0.292200  1
  N  N2880  1  0.791700  0.769100  0.207800  1
  N  N2881  1  0.815500  0.491600  0.945100  1
  N  N2882  1  0.184500  0.991600  0.554900  1
  N  N2883  1  0.184500  0.508400  0.054900  1
  N  N2884  1  0.815500  0.008400  0.445100  1
  N  N2885  1  0.729000  0.571900  0.889900  1
  N  N2886  1  0.271000  0.071900  0.610100  1
  N  N2887  1  0.271000  0.428100  0.110100  1
  N  N2888  1  0.729000  0.928100  0.389900  1
  N  N2889  1  0.766200  0.545600  0.908500  1
  N  N2890  1  0.233800  0.045600  0.591500  1
  N  N2891  1  0.233800  0.454400  0.091500  1
  N  N2892  1  0.766200  0.954400  0.408500  1
  N  N2893  1  0.741000  0.659100  0.691100  1
  N  N2894  1  0.259000  0.159100  0.808900  1
  N  N2895  1  0.259000  0.340900  0.308900  1
  N  N2896  1  0.741000  0.840900  0.191100  1
  N  N2897  1  0.852000  0.659200  0.785600  1
  N  N2898  1  0.148000  0.159200  0.714400  1
  N  N2899  1  0.148000  0.340800  0.214400  1
  N  N2900  1  0.852000  0.840800  0.285600  1
  N  N2901  1  0.810800  0.662100  0.753400  1
  N  N2902  1  0.189200  0.162100  0.746600  1
  N  N2903  1  0.189200  0.337900  0.246600  1
  N  N2904  1  0.810800  0.837900  0.253400  1
  N  N2905  1  0.753900  0.734500  0.769900  1
  N  N2906  1  0.246100  0.234500  0.730100  1
  N  N2907  1  0.246100  0.265500  0.230100  1
  N  N2908  1  0.753900  0.765500  0.269900  1
  N  N2909  1  0.680600  0.639000  0.760700  1
  N  N2910  1  0.319400  0.139000  0.739300  1
  N  N2911  1  0.319400  0.361000  0.239300  1
  N  N2912  1  0.680600  0.861000  0.260700  1
  N  N2913  1  0.705000  0.672900  0.759500  1
  N  N2914  1  0.295000  0.172900  0.740500  1
  N  N2915  1  0.295000  0.327100  0.240500  1
  N  N2916  1  0.705000  0.827100  0.259500  1
  N  N2917  1  0.330300  0.662500  0.605200  1
  N  N2918  1  0.669700  0.162500  0.894800  1
  N  N2919  1  0.669700  0.337500  0.394800  1
  N  N2920  1  0.330300  0.837500  0.105200  1
  N  N2921  1  0.477800  0.660900  0.602800  1
  N  N2922  1  0.522200  0.160900  0.897200  1
  N  N2923  1  0.522200  0.339100  0.397200  1
  N  N2924  1  0.477800  0.839100  0.102800  1
  N  N2925  1  0.427200  0.657200  0.606100  1
  N  N2926  1  0.572800  0.157200  0.893900  1
  N  N2927  1  0.572800  0.342800  0.393900  1
  N  N2928  1  0.427200  0.842800  0.106100  1
  N  N2929  1  0.373400  0.441900  0.966200  1
  N  N2930  1  0.626600  0.941900  0.533800  1
  N  N2931  1  0.626600  0.558100  0.033800  1
  N  N2932  1  0.373400  0.058100  0.466200  1
  N  N2933  1  0.488800  0.744300  0.682200  1
  N  N2934  1  0.511200  0.244300  0.817800  1
  N  N2935  1  0.511200  0.255700  0.317800  1
  N  N2936  1  0.488800  0.755700  0.182200  1
  N  N2937  1  0.600200  0.398100  0.836500  1
  N  N2938  1  0.399800  0.898100  0.663500  1
  N  N2939  1  0.399800  0.601900  0.163500  1
  N  N2940  1  0.600200  0.101900  0.336500  1
  N  N2941  1  0.173300  0.599000  0.829700  1
  N  N2942  1  0.826700  0.099000  0.670300  1
  N  N2943  1  0.826700  0.401000  0.170300  1
  N  N2944  1  0.173300  0.901000  0.329700  1
  N  N2945  1  0.713600  0.658200  0.967800  1
  N  N2946  1  0.286400  0.158200  0.532200  1
  N  N2947  1  0.286400  0.341800  0.032200  1
  N  N2948  1  0.713600  0.841800  0.467800  1
  N  N2949  1  0.790700  0.691500  0.582300  1
  N  N2950  1  0.209300  0.191500  0.917700  1
  N  N2951  1  0.209300  0.308500  0.417700  1
  N  N2952  1  0.790700  0.808500  0.082300  1
  N  N2953  1  0.792600  0.455000  0.717200  1
  N  N2954  1  0.207400  0.955000  0.782800  1
  N  N2955  1  0.207400  0.545000  0.282800  1
  N  N2956  1  0.792600  0.045000  0.217200  1
  N  N2957  1  0.272500  0.436700  0.855000  1
  N  N2958  1  0.727500  0.936700  0.645000  1
  N  N2959  1  0.727500  0.563300  0.145000  1
  N  N2960  1  0.272500  0.063300  0.355000  1
  F  F2961  1  0.895500  0.498600  0.797100  1
  F  F2962  1  0.104500  0.998600  0.702900  1
  F  F2963  1  0.104500  0.501400  0.202900  1
  F  F2964  1  0.895500  0.001400  0.297100  1
  F  F2965  1  0.858700  0.552400  0.800600  1
  F  F2966  1  0.141300  0.052400  0.699400  1
  F  F2967  1  0.141300  0.447600  0.199400  1
  F  F2968  1  0.858700  0.947600  0.300600  1
  F  F2969  1  0.868800  0.534700  0.750100  1
  F  F2970  1  0.131200  0.034700  0.749900  1
  F  F2971  1  0.131200  0.465300  0.249900  1
  F  F2972  1  0.868800  0.965300  0.250100  1
  F  F2973  1  0.938300  0.550400  0.794200  1
  F  F2974  1  0.061700  0.050400  0.705800  1
  F  F2975  1  0.061700  0.449600  0.205800  1
  F  F2976  1  0.938300  0.949600  0.294200  1
  F  F2977  1  0.602500  0.553900  0.774500  1
  F  F2978  1  0.397500  0.053900  0.725500  1
  F  F2979  1  0.397500  0.446100  0.225500  1
  F  F2980  1  0.602500  0.946100  0.274500  1
  F  F2981  1  0.613000  0.493200  0.783000  1
  F  F2982  1  0.387000  0.993200  0.717000  1
  F  F2983  1  0.387000  0.506800  0.217000  1
  F  F2984  1  0.613000  0.006800  0.283000  1
  F  F2985  1  0.622700  0.518300  0.735100  1
  F  F2986  1  0.377300  0.018300  0.764900  1
  F  F2987  1  0.377300  0.481700  0.264900  1
  F  F2988  1  0.622700  0.981700  0.235100  1
  F  F2989  1  0.683400  0.528400  0.787200  1
  F  F2990  1  0.316600  0.028400  0.712800  1
  F  F2991  1  0.316600  0.471600  0.212800  1
  F  F2992  1  0.683400  0.971600  0.287200  1
  F  F2993  1  0.147200  0.333600  0.862100  1
  F  F2994  1  0.852800  0.833600  0.637900  1
  F  F2995  1  0.852800  0.666400  0.137900  1
  F  F2996  1  0.147200  0.166400  0.362100  1
  F  F2997  1  0.222500  0.321000  0.904900  1
  F  F2998  1  0.777500  0.821000  0.595100  1
  F  F2999  1  0.777500  0.679000  0.095100  1
  F  F3000  1  0.222500  0.179000  0.404900  1
  F  F3001  1  0.189500  0.377600  0.898100  1
  F  F3002  1  0.810500  0.877600  0.601900  1
  F  F3003  1  0.810500  0.622400  0.101900  1
  F  F3004  1  0.189500  0.122400  0.398100  1
  F  F3005  1  0.147300  0.331100  0.917000  1
  F  F3006  1  0.852700  0.831100  0.583000  1
  F  F3007  1  0.852700  0.668900  0.083000  1
  F  F3008  1  0.147300  0.168900  0.417000  1
  F  F3009  1  0.181400  0.581400  0.690900  1
  F  F3010  1  0.818600  0.081400  0.809100  1
  F  F3011  1  0.818600  0.418600  0.309100  1
  F  F3012  1  0.181400  0.918600  0.190900  1
  F  F3013  1  0.133100  0.617700  0.712300  1
  F  F3014  1  0.866900  0.117700  0.787700  1
  F  F3015  1  0.866900  0.382300  0.287700  1
  F  F3016  1  0.133100  0.882300  0.212300  1
  F  F3017  1  0.181000  0.641800  0.682900  1
  F  F3018  1  0.819000  0.141800  0.817100  1
  F  F3019  1  0.819000  0.358200  0.317100  1
  F  F3020  1  0.181000  0.858200  0.182900  1
  F  F3021  1  0.221200  0.618900  0.734200  1
  F  F3022  1  0.778800  0.118900  0.765800  1
  F  F3023  1  0.778800  0.381100  0.265800  1
  F  F3024  1  0.221200  0.881100  0.234200  1
  F  F3025  1  0.453600  0.587400  0.485900  1
  F  F3026  1  0.546400  0.087400  0.014100  1
  F  F3027  1  0.546400  0.412600  0.514100  1
  F  F3028  1  0.453600  0.912600  0.985900  1
  F  F3029  1  0.481200  0.569700  0.543000  1
  F  F3030  1  0.518800  0.069700  0.957000  1
  F  F3031  1  0.518800  0.430300  0.457000  1
  F  F3032  1  0.481200  0.930300  0.043000  1
  F  F3033  1  0.502100  0.626300  0.528200  1
  F  F3034  1  0.497900  0.126300  0.971800  1
  F  F3035  1  0.497900  0.373700  0.471800  1
  F  F3036  1  0.502100  0.873700  0.028200  1
  F  F3037  1  0.540600  0.577500  0.515000  1
  F  F3038  1  0.459400  0.077500  0.985000  1
  F  F3039  1  0.459400  0.422500  0.485000  1
  F  F3040  1  0.540600  0.922500  0.015000  1
  F  F3041  1  0.638300  0.318100  0.781300  1
  F  F3042  1  0.361700  0.818100  0.718700  1
  F  F3043  1  0.361700  0.681900  0.218700  1
  F  F3044  1  0.638300  0.181900  0.281300  1
  F  F3045  1  0.700500  0.318700  0.756000  1
  F  F3046  1  0.299500  0.818700  0.744000  1
  F  F3047  1  0.299500  0.681300  0.244000  1
  F  F3048  1  0.700500  0.181300  0.256000  1
  F  F3049  1  0.662300  0.266800  0.760900  1
  F  F3050  1  0.337700  0.766800  0.739100  1
  F  F3051  1  0.337700  0.733200  0.239100  1
  F  F3052  1  0.662300  0.233200  0.260900  1
  F  F3053  1  0.718300  0.296500  0.809400  1
  F  F3054  1  0.281700  0.796500  0.690600  1
  F  F3055  1  0.281700  0.703500  0.190600  1
  F  F3056  1  0.718300  0.203500  0.309400  1
  F  F3057  1  0.095000  0.537500  0.941500  1
  F  F3058  1  0.905000  0.037500  0.558500  1
  F  F3059  1  0.905000  0.462500  0.058500  1
  F  F3060  1  0.095000  0.962500  0.441500  1
  F  F3061  1  0.141100  0.489400  0.931500  1
  F  F3062  1  0.858900  0.989400  0.568500  1
  F  F3063  1  0.858900  0.510600  0.068500  1
  F  F3064  1  0.141100  0.010600  0.431500  1
  F  F3065  1  0.143000  0.543400  0.905400  1
  F  F3066  1  0.857000  0.043400  0.594600  1
  F  F3067  1  0.857000  0.456600  0.094600  1
  F  F3068  1  0.143000  0.956600  0.405400  1
  F  F3069  1  0.182200  0.541900  0.954700  1
  F  F3070  1  0.817800  0.041900  0.545300  1
  F  F3071  1  0.817800  0.458100  0.045300  1
  F  F3072  1  0.182200  0.958100  0.454700  1
  F  F3073  1  0.551400  0.660800  0.827800  1
  F  F3074  1  0.448600  0.160800  0.672200  1
  F  F3075  1  0.448600  0.339200  0.172200  1
  F  F3076  1  0.551400  0.839200  0.327800  1
  F  F3077  1  0.626500  0.652100  0.870200  1
  F  F3078  1  0.373500  0.152100  0.629800  1
  F  F3079  1  0.373500  0.347900  0.129800  1
  F  F3080  1  0.626500  0.847900  0.370200  1
  F  F3081  1  0.553300  0.623200  0.870800  1
  F  F3082  1  0.446700  0.123200  0.629200  1
  F  F3083  1  0.446700  0.376800  0.129200  1
  F  F3084  1  0.553300  0.876800  0.370800  1
  F  F3085  1  0.591700  0.607600  0.831800  1
  F  F3086  1  0.408300  0.107600  0.668200  1
  F  F3087  1  0.408300  0.392400  0.168200  1
  F  F3088  1  0.591700  0.892400  0.331800  1
  F  F3089  1  0.956600  0.806800  0.834900  1
  F  F3090  1  0.043400  0.306800  0.665100  1
  F  F3091  1  0.043400  0.193200  0.165100  1
  F  F3092  1  0.956600  0.693200  0.334900  1
  F  F3093  1  0.905500  0.776400  0.790000  1
  F  F3094  1  0.094500  0.276400  0.710000  1
  F  F3095  1  0.094500  0.223600  0.210000  1
  F  F3096  1  0.905500  0.723600  0.290000  1
  F  F3097  1  0.919300  0.755700  0.842400  1
  F  F3098  1  0.080700  0.255700  0.657600  1
  F  F3099  1  0.080700  0.244300  0.157600  1
  F  F3100  1  0.919300  0.744300  0.342400  1
  F  F3101  1  0.986600  0.757600  0.817600  1
  F  F3102  1  0.013400  0.257600  0.682400  1
  F  F3103  1  0.013400  0.242400  0.182400  1
  F  F3104  1  0.986600  0.742400  0.317600  1
  F  F3105  1  0.732000  0.489600  0.609300  1
  F  F3106  1  0.268000  0.989600  0.890700  1
  F  F3107  1  0.268000  0.510400  0.390700  1
  F  F3108  1  0.732000  0.010400  0.109300  1
  F  F3109  1  0.678900  0.521100  0.564300  1
  F  F3110  1  0.321100  0.021100  0.935700  1
  F  F3111  1  0.321100  0.478900  0.435700  1
  F  F3112  1  0.678900  0.978900  0.064300  1
  F  F3113  1  0.674400  0.460700  0.565600  1
  F  F3114  1  0.325600  0.960700  0.934400  1
  F  F3115  1  0.325600  0.539300  0.434400  1
  F  F3116  1  0.674400  0.039300  0.065600  1
  F  F3117  1  0.744200  0.489000  0.558400  1
  F  F3118  1  0.255800  0.989000  0.941600  1
  F  F3119  1  0.255800  0.511000  0.441600  1
  F  F3120  1  0.744200  0.011000  0.058400  1
  F  F3121  1  0.149800  0.460300  0.534000  1
  F  F3122  1  0.850200  0.960300  0.966000  1
  F  F3123  1  0.850200  0.539700  0.466000  1
  F  F3124  1  0.149800  0.039700  0.034000  1
  F  F3125  1  0.226400  0.479800  0.531200  1
  F  F3126  1  0.773600  0.979800  0.968800  1
  F  F3127  1  0.773600  0.520200  0.468800  1
  F  F3128  1  0.226400  0.020200  0.031200  1
  F  F3129  1  0.221600  0.455400  0.579600  1
  F  F3130  1  0.778400  0.955400  0.920400  1
  F  F3131  1  0.778400  0.544600  0.420400  1
  F  F3132  1  0.221600  0.044600  0.079600  1
  F  F3133  1  0.211900  0.421400  0.532100  1
  F  F3134  1  0.788100  0.921400  0.967900  1
  F  F3135  1  0.788100  0.578600  0.467900  1
  F  F3136  1  0.211900  0.078600  0.032100  1
  F  F3137  1  0.554700  0.292500  0.960800  1
  F  F3138  1  0.445300  0.792500  0.539200  1
  F  F3139  1  0.445300  0.707500  0.039200  1
  F  F3140  1  0.554700  0.207500  0.460800  1
  F  F3141  1  0.568100  0.346700  0.941900  1
  F  F3142  1  0.431900  0.846700  0.558100  1
  F  F3143  1  0.431900  0.653300  0.058100  1
  F  F3144  1  0.568100  0.153300  0.441900  1
  F  F3145  1  0.515000  0.306200  0.907100  1
  F  F3146  1  0.485000  0.806200  0.592900  1
  F  F3147  1  0.485000  0.693800  0.092900  1
  F  F3148  1  0.515000  0.193800  0.407100  1
  F  F3149  1  0.604700  0.299600  0.927100  1
  F  F3150  1  0.395300  0.799600  0.572900  1
  F  F3151  1  0.395300  0.700400  0.072900  1
  F  F3152  1  0.604700  0.200400  0.427100  1
