
#######################################################################
#
#                 Cambridge Crystallographic Data Centre
#                                CCDC 
#
#######################################################################
#
# If this CIF has been generated from an entry in the Cambridge 
# Structural Database, then it will include bibliographic, chemical, 
# crystal, experimental, refinement or atomic coordinate data resulting 
# from the CCDC's data processing and validation procedures.
#
#######################################################################

data_OVOJIT
_chemical_formula_moiety         
'C336 H264 N72 Ni8 16+,16(B1 F4 1-),8(C2 H3 N1)'
_chemical_name_systematic        
"dodecakis(\m~2~-2,2'-(naphthalene-1,4-diylbis(methylene-1H-pyrazole-1,3-diyl))dipyridine)-octa-nickel(ii) hexadecakis(tetrafluoroborate) acetonitrile solvate"
_symmetry_cell_setting           monoclinic
_symmetry_space_group_name_H-M   'P 21/c'
_symmetry_Int_Tables_number      14
_space_group_name_Hall           '-P 2ybc'
loop_
_symmetry_equiv_pos_site_id
_symmetry_equiv_pos_as_xyz
1 x,y,z
2 -x,1/2+y,1/2-z
3 -x,-y,-z
4 x,1/2-y,1/2+z
_cell_length_a                   26.972(3)
_cell_length_b                   36.793(4)
_cell_length_c                   40.869(6)
_cell_angle_alpha                90
_cell_angle_beta                 109.165(3)
_cell_angle_gamma                90
_cell_volume                     38309.8
_exptl_crystal_colour            colorless
_exptl_crystal_description       blade
_cell_formula_units_Z            4
loop_
_atom_site_label
_atom_site_type_symbol
_atom_site_fract_x
_atom_site_fract_y
_atom_site_fract_z
Ni1 Ni 0.74438(9) 0.30843(7) 0.58580(7)
Ni2 Ni 0.96845(9) 0.32308(6) 0.84023(7)
Ni3 Ni 1.02281(9) 0.51121(7) 0.65575(7)
Ni4 Ni 0.42910(8) 0.34429(6) 0.66695(7)
Ni5 Ni 0.40475(8) 0.52014(6) 0.86109(6)
Ni6 Ni 0.38540(11) 0.62083(7) 0.62496(7)
Ni7 Ni 0.84072(8) 0.54423(5) 0.94553(6)
Ni8 Ni 0.74985(9) 0.69683(6) 0.73189(7)
N1 N 0.7662(6) 0.3324(4) 0.5457(3)
C1 C 0.8195(5) 0.3295(4) 0.5502(3)
C2 C 0.8375(4) 0.3361(4) 0.5226(4)
H1 H 0.8739 0.3341 0.5257
C3 C 0.8024(6) 0.3457(4) 0.4905(3)
H2 H 0.8147 0.3503 0.4716
C4 C 0.7491(5) 0.3487(4) 0.4859(3)
H3 H 0.7251 0.3552 0.4640
C5 C 0.7311(4) 0.3420(4) 0.5135(4)
H4 H 0.6947 0.3440 0.5104
N2 N 0.8678(5) 0.2836(3) 0.6308(3)
N3 N 0.8264(3) 0.2981(3) 0.6026(3)
C6 C 0.8490(5) 0.3177(3) 0.5811(3)
C7 C 0.9045(5) 0.3152(3) 0.5960(4)
H5 H 0.9294 0.3258 0.5870
C8 C 0.9160(4) 0.2941(4) 0.6267(3)
H6 H 0.9501 0.2881 0.6419
C9 C 0.8536(7) 0.2584(5) 0.6543(5)
H7 H 0.8795 0.2383 0.6601
H8 H 0.8189 0.2477 0.6417
N4 N 1.0012(4) 0.3743(2) 0.8542(3)
C10 C 0.9698(3) 0.4027(3) 0.8364(3)
C11 C 0.9853(4) 0.4385(2) 0.8449(3)
H9 H 0.9639 0.4579 0.8328
C12 C 1.0321(4) 0.4459(2) 0.8712(3)
H10 H 1.0427 0.4703 0.8771
C13 C 1.0634(4) 0.4175(3) 0.8890(3)
H11 H 1.0954 0.4225 0.9070
C14 C 1.0480(4) 0.3817(3) 0.8805(3)
H12 H 1.0694 0.3623 0.8926
N5 N 0.8549(4) 0.3537(2) 0.7884(3)
N6 N 0.9074(4) 0.3568(2) 0.8111(3)
C15 C 0.9216(4) 0.3941(3) 0.8133(3)
C16 C 0.8779(5) 0.4141(2) 0.7919(3)
H13 H 0.8764 0.4396 0.7885
C17 C 0.8366(4) 0.3891(3) 0.7765(3)
H14 H 0.8028 0.3950 0.7610
C18 C 0.8308(7) 0.3204(4) 0.7776(5)
H15 H 0.7927 0.3233 0.7731
H16 H 0.8440 0.3030 0.7970
C19 C 0.8516(5) 0.2748(3) 0.6869(3)
C20 C 0.8651(4) 0.3107(3) 0.6960(3)
H17 H 0.8789 0.3254 0.6819
C21 C 0.8584(4) 0.3252(2) 0.7256(3)
H18 H 0.8676 0.3498 0.7318
C22 C 0.8382(5) 0.3037(3) 0.7463(3)
C23 C 0.8247(5) 0.2678(3) 0.7372(3)
C24 C 0.8314(4) 0.2533(2) 0.7075(4)
C25 C 0.8013(6) 0.2465(4) 0.7562(4)
H19 H 0.7918 0.2571 0.7744
C26 C 0.7917(7) 0.2098(4) 0.7487(5)
H20 H 0.7793 0.1946 0.7631
C27 C 0.8006(7) 0.1959(4) 0.7195(5)
H21 H 0.7913 0.1714 0.7130
C28 C 0.8226(7) 0.2166(4) 0.6996(4)
H22 H 0.8315 0.2060 0.6811
N7 N 0.7259(4) 0.2861(4) 0.6282(3)
C29 C 0.7303(4) 0.3101(3) 0.6554(4)
C30 C 0.7133(4) 0.2996(3) 0.6826(3)
H23 H 0.7163 0.3160 0.7011
C31 C 0.6919(4) 0.2653(4) 0.6827(3)
H24 H 0.6803 0.2581 0.7013
C32 C 0.6876(4) 0.2414(3) 0.6556(4)
H25 H 0.6729 0.2179 0.6556
C33 C 0.7045(4) 0.2518(3) 0.6283(3)
H26 H 0.7015 0.2354 0.6098
N8 N 0.7668(4) 0.3890(3) 0.6185(3)
N9 N 0.7521(4) 0.3519(3) 0.6184(3)
C34 C 0.7463(4) 0.3441(3) 0.6510(4)
C35 C 0.7574(5) 0.3763(4) 0.6712(3)
H27 H 0.7565 0.3788 0.6942
C36 C 0.7700(4) 0.4041(3) 0.6512(4)
H28 H 0.7790 0.4285 0.6583
C37 C 0.7781(7) 0.4075(5) 0.5914(6)
H29 H 0.7640 0.4325 0.5897
H30 H 0.7599 0.3950 0.5692
N10 N 1.0806(4) 0.5114(4) 0.7043(3)
C38 C 1.0988(5) 0.4772(3) 0.7172(3)
C39 C 1.1388(5) 0.4739(3) 0.7488(4)
H31 H 1.1513 0.4505 0.7576
C40 C 1.1607(4) 0.5048(4) 0.7675(3)
H32 H 1.1881 0.5026 0.7891
C41 C 1.1426(5) 0.5390(3) 0.7546(3)
H33 H 1.1575 0.5602 0.7674
C42 C 1.1025(5) 0.5423(3) 0.7230(3)
H34 H 1.0901 0.5657 0.7142
N11 N 1.0319(4) 0.4220(4) 0.6448(3)
N12 N 1.0434(4) 0.4557(3) 0.6626(3)
C43 C 1.0758(5) 0.4486(3) 0.6972(3)
C44 C 1.0843(4) 0.4105(4) 0.7007(3)
H35 H 1.1046 0.3981 0.7211
C45 C 1.0572(5) 0.3941(3) 0.6683(4)
H36 H 1.0561 0.3688 0.6632
C46 C 0.9980(6) 0.4212(5) 0.6087(5)
H37 H 1.0099 0.4016 0.5964
H38 H 1.0013 0.4446 0.5975
C47 C 0.8355(4) 0.4093(3) 0.5963(4)
C48 C 0.8725(5) 0.4037(3) 0.6287(3)
H39 H 0.8614 0.3978 0.6479
C49 C 0.9257(5) 0.4066(3) 0.6332(3)
H40 H 0.9510 0.4027 0.6554
C50 C 0.9418(4) 0.4151(3) 0.6051(4)
C51 C 0.9048(6) 0.4208(4) 0.5726(3)
C52 C 0.8516(5) 0.4179(4) 0.5682(3)
C53 C 0.9202(6) 0.4249(6) 0.5431(4)
H41 H 0.9564 0.4236 0.5455
C54 C 0.8839(7) 0.4307(6) 0.5104(4)
H42 H 0.8949 0.4340 0.4908
C55 C 0.8304(8) 0.4315(6) 0.5073(4)
H43 H 0.8049 0.4358 0.4853
C56 C 0.8141(6) 0.4260(6) 0.5361(4)
H44 H 0.7780 0.4278 0.5339
N13 N 0.9364(6) 0.2720(4) 0.8220(4)
C57 C 0.9450(7) 0.2594(5) 0.7942(6)
C58 C 0.9376(7) 0.2238(5) 0.7851(5)
H45 H 0.9492 0.2146 0.7672
C59 C 0.9137(7) 0.2016(5) 0.8014(6)
H46 H 0.9051 0.1773 0.7936
C60 C 0.9021(7) 0.2149(5) 0.8298(5)
H47 H 0.8858 0.1996 0.8421
C61 C 0.9140(7) 0.2500(5) 0.8401(5)
H48 H 0.9067 0.2591 0.8598
N14 N 1.0229(6) 0.3288(4) 0.7797(4)
N15 N 0.9953(6) 0.3138(4) 0.7980(4)
C62 C 0.9737(8) 0.2821(5) 0.7809(6)
C63 C 0.9906(7) 0.2794(5) 0.7516(6)
H49 H 0.9820 0.2608 0.7346
C64 C 1.0221(8) 0.3095(5) 0.7527(5)
H50 H 1.0399 0.3151 0.7368
C65 C 1.0548(7) 0.3598(4) 0.7937(5)
H51 H 1.0893 0.3559 0.7906
H52 H 1.0610 0.3602 0.8190
N16 N 0.9615(7) 0.5093(4) 0.6069(5)
C66 C 0.9129(8) 0.5056(5) 0.6095(6)
C67 C 0.8716(8) 0.5072(5) 0.5815(6)
H53 H 0.8382 0.5044 0.5842
C68 C 0.8730(9) 0.5124(6) 0.5491(6)
H54 H 0.8422 0.5125 0.5293
C69 C 0.9220(8) 0.5176(6) 0.5468(6)
H55 H 0.9263 0.5224 0.5251
C70 C 0.9669(9) 0.5158(6) 0.5777(6)
H56 H 1.0010 0.5196 0.5763
N17 N 0.9404(6) 0.5009(4) 0.6988(5)
N18 N 0.9540(6) 0.5035(4) 0.6702(4)
C71 C 0.9104(8) 0.5031(5) 0.6445(6)
C72 C 0.8693(8) 0.4991(5) 0.6576(6)
H57 H 0.8332 0.4979 0.6440
C73 C 0.8868(8) 0.4972(5) 0.6910(6)
H58 H 0.8675 0.4940 0.7064
C74 C 0.9783(7) 0.5024(5) 0.7327(5)
H59 H 0.9629 0.5162 0.7477
H60 H 1.0090 0.5163 0.7313
C75 C 1.0353(5) 0.3984(3) 0.7793(3)
C76 C 0.9920(4) 0.4002(3) 0.7493(3)
H61 H 0.9752 0.3785 0.7387
C77 C 0.9734(4) 0.4338(3) 0.7348(3)
H62 H 0.9438 0.4350 0.7143
C78 C 0.9980(5) 0.4655(2) 0.7503(3)
C79 C 1.0413(5) 0.4637(3) 0.7803(3)
C80 C 1.0599(4) 0.4302(4) 0.7949(3)
C81 C 1.0635(7) 0.4954(4) 0.7984(5)
H63 H 1.0491 0.5185 0.7902
C82 C 1.1063(6) 0.4927(5) 0.8284(4)
H64 H 1.1191 0.5139 0.8418
C83 C 1.1309(6) 0.4597(5) 0.8391(5)
H65 H 1.1633 0.4586 0.8576
C84 C 1.1075(6) 0.4283(4) 0.8226(4)
H66 H 1.1235 0.4054 0.8300
N19 N 0.4456(4) 0.3616(3) 0.6235(3)
C85 C 0.4754(4) 0.3932(3) 0.6289(3)
C86 C 0.4915(4) 0.4072(3) 0.6025(4)
H67 H 0.5120 0.4288 0.6062
C87 C 0.4777(5) 0.3897(4) 0.5706(3)
H68 H 0.4887 0.3993 0.5525
C88 C 0.4479(5) 0.3581(4) 0.5652(3)
H69 H 0.4384 0.3461 0.5434
C89 C 0.4318(4) 0.3440(3) 0.5917(4)
H70 H 0.4113 0.3225 0.5880
N20 N 0.5025(4) 0.4073(3) 0.7182(3)
N21 N 0.4802(4) 0.3884(2) 0.6864(4)
C90 C 0.4924(5) 0.4080(3) 0.6601(3)
C91 C 0.5223(4) 0.4390(3) 0.6756(4)
H71 H 0.5358 0.4569 0.6640
C92 C 0.5285(4) 0.4386(3) 0.7115(3)
H72 H 0.5468 0.4562 0.7281
C93 C 0.5009(7) 0.3931(5) 0.7502(5)
H73 H 0.5347 0.3984 0.7684
H74 H 0.4973 0.3663 0.7481
N22 N 0.3782(4) 0.5738(2) 0.8491(3)
C94 C 0.3334(4) 0.5771(3) 0.8202(3)
C95 C 0.3041(4) 0.6089(3) 0.8148(3)
H75 H 0.2735 0.6112 0.7950
C96 C 0.3195(4) 0.6375(2) 0.8382(3)
H76 H 0.2995 0.6592 0.8345
C97 C 0.3643(5) 0.6341(3) 0.8671(3)
H77 H 0.3749 0.6536 0.8832
C98 C 0.3936(3) 0.6023(3) 0.8726(3)
H78 H 0.4242 0.6000 0.8923
N23 N 0.3224(4) 0.4867(2) 0.7894(3)
N24 N 0.3450(4) 0.5142(3) 0.8143(2)
C99 C 0.3213(4) 0.5478(2) 0.8007(3)
C100 C 0.2841(4) 0.5412(3) 0.7675(3)
H79 H 0.2625 0.5589 0.7525
C101 C 0.2848(4) 0.5034(3) 0.7605(3)
H80 H 0.2638 0.4914 0.7401
C102 C 0.3327(7) 0.4499(4) 0.7967(5)
H81 H 0.2999 0.4360 0.7859
H82 H 0.3433 0.4463 0.8220
C103 C 0.4554(4) 0.4083(3) 0.7622(3)
C104 C 0.4291(4) 0.4398(3) 0.7476(3)
H83 H 0.4386 0.4523 0.7302
C105 C 0.3888(4) 0.4531(2) 0.7584(3)
H84 H 0.3708 0.4747 0.7484
C106 C 0.3749(4) 0.4348(3) 0.7838(3)
C107 C 0.4012(5) 0.4033(3) 0.7984(3)
C108 C 0.4415(4) 0.3900(2) 0.7876(3)
C109 C 0.3846(6) 0.3823(4) 0.8217(4)
H85 H 0.3533 0.3887 0.8261
C110 C 0.4127(7) 0.3529(4) 0.8381(5)
H86 H 0.4033 0.3404 0.8556
C111 C 0.4555(7) 0.3414(4) 0.8287(4)
H87 H 0.4736 0.3199 0.8388
C112 C 0.4723(6) 0.3604(4) 0.8052(4)
H88 H 0.5037 0.3538 0.8009
N25 N 0.4112(4) 0.3278(3) 0.7117(2)
C113 C 0.3666(4) 0.3441(2) 0.7151(3)
C114 C 0.3457(4) 0.3316(3) 0.7399(3)
H89 H 0.3153 0.3427 0.7422
C115 C 0.3694(5) 0.3028(3) 0.7613(3)
H90 H 0.3551 0.2942 0.7782
C116 C 0.4139(4) 0.2865(3) 0.7579(3)
H91 H 0.4301 0.2667 0.7725
C117 C 0.4348(3) 0.2990(3) 0.7331(3)
H92 H 0.4653 0.2879 0.7308
N26 N 0.3255(5) 0.3986(3) 0.6386(3)
N27 N 0.3614(4) 0.3753(3) 0.6626(4)
C118 C 0.3430(5) 0.3698(3) 0.6911(3)
C119 C 0.2957(5) 0.3897(3) 0.6846(3)
H93 H 0.2750 0.3909 0.6994
C120 C 0.2849(4) 0.4075(3) 0.6522(4)
H94 H 0.2556 0.4227 0.6415
C121 C 0.3306(7) 0.4078(5) 0.6041(5)
H95 H 0.2954 0.4114 0.5868
H96 H 0.3483 0.3877 0.5962
N28 N 0.4153(5) 0.6450(4) 0.6745(3)
C122 C 0.4570(5) 0.6259(3) 0.6971(4)
C123 C 0.4835(4) 0.6398(4) 0.7298(3)
H97 H 0.5121 0.6267 0.7452
C124 C 0.4684(5) 0.6729(4) 0.7399(3)
H98 H 0.4865 0.6825 0.7622
C125 C 0.4266(6) 0.6921(3) 0.7173(4)
H99 H 0.4163 0.7147 0.7242
C126 C 0.4001(4) 0.6781(4) 0.6846(3)
H100 H 0.3716 0.6912 0.6692
N29 N 0.4743(5) 0.5551(3) 0.6444(3)
N30 N 0.4479(4) 0.5858(3) 0.6519(4)
C127 C 0.4727(6) 0.5950(3) 0.6872(4)
C128 C 0.5143(5) 0.5701(4) 0.7016(3)
H101 H 0.5375 0.5699 0.7248
C129 C 0.5153(5) 0.5454(3) 0.6751(4)
H102 H 0.5393 0.5258 0.6775
C130 C 0.4619(8) 0.5360(5) 0.6127(6)
H103 H 0.4948 0.5275 0.6094
H104 H 0.4441 0.5526 0.5934
C131 C 0.3625(4) 0.4424(3) 0.6079(4)
C132 C 0.3801(5) 0.4626(3) 0.6383(3)
H105 H 0.3704 0.4558 0.6578
C133 C 0.4119(5) 0.4928(3) 0.6401(3)
H106 H 0.4239 0.5067 0.6609
C134 C 0.4260(4) 0.5028(3) 0.6116(4)
C135 C 0.4084(5) 0.4826(4) 0.5812(3)
C136 C 0.3767(5) 0.4523(3) 0.5794(3)
C137 C 0.4204(8) 0.4924(5) 0.5514(5)
H107 H 0.4419 0.5130 0.5518
C138 C 0.4009(8) 0.4723(5) 0.5217(4)
H108 H 0.4098 0.4790 0.5019
C139 C 0.3687(8) 0.4425(5) 0.5195(4)
H109 H 0.3546 0.4295 0.4985
C140 C 0.3578(7) 0.4324(4) 0.5492(4)
H110 H 0.3371 0.4114 0.5487
N31 N 0.4276(4) 0.4663(2) 0.8729(3)
C141 C 0.4699(4) 0.4557(3) 0.8628(3)
C142 C 0.4962(4) 0.4235(3) 0.8754(3)
H111 H 0.5251 0.4162 0.8686
C143 C 0.4803(4) 0.4020(2) 0.8981(3)
H112 H 0.4984 0.3800 0.9068
C144 C 0.4381(5) 0.4127(3) 0.9082(3)
H113 H 0.4272 0.3980 0.9237
C145 C 0.4117(4) 0.4449(3) 0.8956(3)
H114 H 0.3828 0.4521 0.9025
N32 N 0.4874(4) 0.5361(2) 0.8204(3)
N33 N 0.4617(3) 0.5141(3) 0.8385(3)
C146 C 0.4857(4) 0.4793(2) 0.8434(3)
C147 C 0.5263(4) 0.4798(3) 0.8284(3)
H115 H 0.5489 0.4601 0.8280
C148 C 0.5274(4) 0.5149(3) 0.8142(3)
H116 H 0.5507 0.5228 0.8026
C149 C 0.4754(6) 0.5721(4) 0.8147(4)
H117 H 0.5075 0.5854 0.8149
H118 H 0.4645 0.5816 0.8339
N34 N 0.3595(5) 0.5924(3) 0.5783(3)
C150 C 0.3258(5) 0.5636(4) 0.5776(3)
C151 C 0.3075(5) 0.5419(3) 0.5482(4)
H119 H 0.2845 0.5222 0.5478
C152 C 0.3229(5) 0.5490(4) 0.5196(3)
H120 H 0.3103 0.5342 0.4995
C153 C 0.3565(5) 0.5778(4) 0.5202(3)
H121 H 0.3670 0.5827 0.5006
C154 C 0.3749(4) 0.5995(3) 0.5496(4)
H122 H 0.3979 0.6192 0.5501
N35 N 0.3042(5) 0.5784(3) 0.6574(3)
N36 N 0.3285(4) 0.5864(3) 0.6322(4)
C155 C 0.3129(5) 0.5594(4) 0.6061(3)
C156 C 0.2790(5) 0.5347(3) 0.6151(3)
H123 H 0.2628 0.5139 0.6021
C157 C 0.2737(4) 0.5464(3) 0.6468(3)
H124 H 0.2532 0.5349 0.6589
C158 C 0.3085(7) 0.6020(5) 0.6846(5)
H125 H 0.2745 0.6021 0.6890
H126 H 0.3141 0.6268 0.6771
C159 C 0.4313(4) 0.5798(3) 0.7799(2)
C160 C 0.4177(4) 0.5541(2) 0.7535(3)
H127 H 0.4359 0.5315 0.7565
C161 C 0.3776(4) 0.5613(3) 0.7227(3)
H128 H 0.3683 0.5437 0.7047
C162 C 0.3510(4) 0.5943(3) 0.7183(3)
C163 C 0.3646(4) 0.6200(2) 0.7447(3)
C164 C 0.4047(5) 0.6128(3) 0.7755(3)
C165 C 0.3352(6) 0.6521(4) 0.7405(4)
H129 H 0.3057 0.6554 0.7202
C166 C 0.3483(7) 0.6789(4) 0.7654(4)
H130 H 0.3288 0.7008 0.7626
C167 C 0.3918(6) 0.6725(4) 0.7951(5)
H131 H 0.4023 0.6911 0.8121
C168 C 0.4201(6) 0.6403(4) 0.8007(4)
H132 H 0.4493 0.6369 0.8212
N37 N 0.7278(5) 0.2616(3) 0.5553(3)
C169 C 0.6786(5) 0.2626(3) 0.5300(4)
C170 C 0.6647(4) 0.2363(4) 0.5042(3)
H133 H 0.6311 0.2370 0.4869
C171 C 0.7000(6) 0.2089(3) 0.5037(3)
H134 H 0.6905 0.1909 0.4861
C172 C 0.7492(5) 0.2079(3) 0.5291(4)
H135 H 0.7733 0.1892 0.5288
C173 C 0.7631(4) 0.2342(4) 0.5549(3)
H136 H 0.7967 0.2335 0.5722
N38 N 0.6232(5) 0.3410(3) 0.5534(3)
N39 N 0.6624(4) 0.3138(3) 0.5584(3)
C174 C 0.6435(5) 0.2874(3) 0.5319(4)
C175 C 0.5927(5) 0.2983(4) 0.5105(3)
H137 H 0.5709 0.2857 0.4907
C176 C 0.5802(4) 0.3314(3) 0.5238(3)
H138 H 0.5485 0.3448 0.5146
C177 C 0.6281(7) 0.3680(5) 0.5780(5)
H139 H 0.6058 0.3887 0.5664
H140 H 0.6649 0.3767 0.5857
N40 N 0.3846(4) 0.2996(2) 0.6415(3)
C178 C 0.4124(3) 0.2671(3) 0.6469(3)
C179 C 0.3879(4) 0.2354(2) 0.6313(3)
H141 H 0.4069 0.2132 0.6350
C180 C 0.3356(4) 0.2361(2) 0.6103(3)
H142 H 0.3189 0.2144 0.5996
C181 C 0.3078(3) 0.2686(3) 0.6049(3)
H143 H 0.2721 0.2691 0.5905
C182 C 0.3323(4) 0.3004(2) 0.6205(3)
H144 H 0.3133 0.3226 0.6168
N41 N 0.5399(4) 0.3007(2) 0.6946(3)
N42 N 0.4861(4) 0.3045(2) 0.6747(3)
C183 C 0.4648(3) 0.2691(3) 0.6660(3)
C184 C 0.5055(5) 0.2435(2) 0.6805(3)
H145 H 0.5022 0.2178 0.6786
C185 C 0.5519(4) 0.2631(3) 0.6981(3)
H146 H 0.5852 0.2527 0.7102
C186 C 0.5781(7) 0.3301(4) 0.6977(5)
H147 H 0.5646 0.3521 0.7060
H148 H 0.6112 0.3232 0.7159
C187 C 0.6146(4) 0.3588(3) 0.6094(3)
C188 C 0.5907(4) 0.3256(3) 0.6106(3)
H149 H 0.5828 0.3095 0.5913
C189 C 0.5784(4) 0.3159(2) 0.6398(3)
H150 H 0.5621 0.2932 0.6406
C190 C 0.5899(4) 0.3394(4) 0.6680(3)
C191 C 0.6138(4) 0.3727(3) 0.6668(3)
C192 C 0.6261(4) 0.3824(2) 0.6375(4)
C193 C 0.6308(6) 0.3948(4) 0.6972(4)
H151 H 0.6272 0.3868 0.7184
C194 C 0.6529(7) 0.4285(4) 0.6946(5)
H152 H 0.6647 0.4436 0.7145
C195 C 0.6581(7) 0.4408(4) 0.6634(5)
H153 H 0.6701 0.4646 0.6615
C196 C 0.6452(7) 0.4173(4) 0.6359(4)
H154 H 0.6494 0.4251 0.6148
N43 N 1.0325(4) 0.2956(3) 0.8749(3)
C197 C 1.0309(4) 0.2937(3) 0.9085(4)
C198 C 1.0660(5) 0.2716(4) 0.9328(3)
H155 H 1.0649 0.2704 0.9558
C199 C 1.1028(4) 0.2513(3) 0.9236(3)
H156 H 1.1268 0.2362 0.9402
C200 C 1.1045(4) 0.2531(3) 0.8900(4)
H157 H 1.1297 0.2393 0.8837
C201 C 1.0694(5) 0.2753(4) 0.8656(3)
H158 H 1.0705 0.2765 0.8427
N44 N 0.9077(4) 0.3348(3) 0.8969(3)
N45 N 0.9487(5) 0.3211(3) 0.8858(3)
C202 C 0.9900(4) 0.3093(3) 0.9155(4)
C203 C 0.9746(5) 0.3158(3) 0.9451(3)
H159 H 0.9947 0.3106 0.9684
C204 C 0.9237(5) 0.3316(3) 0.9335(3)
H160 H 0.9038 0.3387 0.9478
C205 C 0.8584(6) 0.3480(4) 0.8757(5)
H161 H 0.8313 0.3388 0.8852
H162 H 0.8508 0.3373 0.8523
N46 N 0.9178(3) 0.5389(2) 0.9840(3)
C206 C 0.9572(4) 0.5418(3) 0.9691(2)
C207 C 1.0086(3) 0.5486(3) 0.9899(3)
H163 H 1.0355 0.5506 0.9798
C208 C 1.0205(3) 0.5526(3) 1.0255(3)
H164 H 1.0557 0.5573 1.0397
C209 C 0.9811(4) 0.5497(3) 1.0403(2)
H165 H 0.9893 0.5524 1.0646
C210 C 0.9297(4) 0.5428(3) 1.0195(3)
H166 H 0.9028 0.5408 1.0297
N47 N 0.8838(3) 0.5225(3) 0.8814(3)
N48 N 0.8886(4) 0.5279(2) 0.9168(3)
C211 C 0.9416(4) 0.5373(3) 0.9350(2)
C212 C 0.9695(3) 0.5377(3) 0.9110(3)
H167 H 1.0057 0.5431 0.9162
C213 C 0.9338(4) 0.5285(3) 0.8779(3)
H168 H 0.9419 0.5268 0.8570
C214 C 0.8373(6) 0.5038(4) 0.8584(5)
H169 H 0.8328 0.5098 0.8340
H170 H 0.8056 0.5120 0.8634
C215 C 0.8525(4) 0.3875(2) 0.8720(3)
C216 C 0.8949(3) 0.4097(3) 0.8888(3)
H171 H 0.9269 0.3992 0.9031
C217 C 0.8906(3) 0.4472(3) 0.8848(3)
H172 H 0.9197 0.4623 0.8963
C218 C 0.8439(4) 0.4625(2) 0.8639(3)
C219 C 0.8014(3) 0.4404(3) 0.8470(3)
C220 C 0.8057(3) 0.4029(3) 0.8511(3)
C221 C 0.7531(5) 0.4553(4) 0.8254(5)
H173 H 0.7500 0.4808 0.8215
C222 C 0.7106(5) 0.4328(4) 0.8098(5)
H174 H 0.6774 0.4430 0.7973
C223 C 0.7165(5) 0.3960(4) 0.8126(5)
H175 H 0.6881 0.3808 0.8002
C224 C 0.7626(5) 0.3805(4) 0.8330(5)
H176 H 0.7656 0.3548 0.8350
N49 N 0.3521(4) 0.5201(2) 0.8895(3)
C225 C 0.3753(3) 0.5283(3) 0.9244(3)
C226 C 0.3443(5) 0.5332(3) 0.9453(2)
H177 H 0.3602 0.5388 0.9692
C227 C 0.2901(4) 0.5299(3) 0.9313(3)
H178 H 0.2689 0.5332 0.9456
C228 C 0.2668(3) 0.5217(3) 0.8964(3)
H179 H 0.2298 0.5195 0.8868
C229 C 0.2978(4) 0.5168(3) 0.8755(2)
H180 H 0.2820 0.5112 0.8516
N50 N 0.5087(4) 0.5391(3) 0.9298(3)
N51 N 0.4544(4) 0.5337(3) 0.9120(2)
C230 C 0.4284(3) 0.5317(3) 0.9370(3)
C231 C 0.4666(5) 0.5359(3) 0.9703(3)
H181 H 0.4602 0.5357 0.9918
C232 C 0.5163(4) 0.5404(3) 0.9658(3)
H182 H 0.5489 0.5438 0.9838
C233 C 0.5475(6) 0.5429(4) 0.9114(5)
H183 H 0.5441 0.5674 0.9009
H184 H 0.5398 0.5248 0.8925
N52 N 0.8663(3) 0.5989(2) 0.9434(3)
C234 C 0.8655(4) 0.6182(3) 0.9725(3)
C235 C 0.8900(4) 0.6519(3) 0.9797(3)
H185 H 0.8896 0.6651 0.9996
C236 C 0.9152(4) 0.6663(2) 0.9579(3)
H186 H 0.9320 0.6893 0.9629
C237 C 0.9159(4) 0.6469(3) 0.9289(3)
H187 H 0.9332 0.6568 0.9140
C238 C 0.8914(4) 0.6133(3) 0.9216(2)
H188 H 0.8919 0.6000 0.9017
N53 N 0.7936(4) 0.5582(2) 1.0076(3)
N54 N 0.8158(4) 0.5697(3) 0.9823(2)
C239 C 0.8401(4) 0.6040(3) 0.9926(3)
C240 C 0.8328(5) 0.6137(3) 1.0244(3)
H189 H 0.8451 0.6353 1.0372
C241 C 0.8041(5) 0.5854(3) 1.0336(3)
H190 H 0.7937 0.5848 1.0537
C242 C 0.7648(6) 0.5266(4) 1.0030(4)
H191 H 0.7630 0.5187 1.0258
H192 H 0.7837 0.5074 0.9948
C243 C 0.6027(3) 0.5377(3) 0.9352(3)
C244 C 0.6355(4) 0.5679(2) 0.9441(3)
H193 H 0.6223 0.5913 0.9359
C245 C 0.6876(4) 0.5637(2) 0.9647(3)
H194 H 0.7100 0.5843 0.9708
C246 C 0.7069(3) 0.5294(3) 0.9766(3)
C247 C 0.6741(4) 0.4993(2) 0.9678(3)
C248 C 0.6220(4) 0.5034(2) 0.9471(3)
C249 C 0.5902(5) 0.4722(4) 0.9394(4)
H195 H 0.5542 0.4742 0.9260
C250 C 0.6114(7) 0.4385(4) 0.9514(5)
H196 H 0.5891 0.4178 0.9468
C251 C 0.6643(6) 0.4342(4) 0.9700(5)
H197 H 0.6788 0.4107 0.9763
C252 C 0.6955(5) 0.4646(4) 0.9790(5)
H198 H 0.7314 0.4623 0.9928
N55 N 1.0781(4) 0.5227(4) 0.6318(3)
C253 C 1.0841(4) 0.5591(3) 0.6249(3)
C254 C 1.1175(5) 0.5690(3) 0.6068(4)
H199 H 1.1216 0.5939 0.6020
C255 C 1.1451(4) 0.5425(4) 0.5956(3)
H200 H 1.1679 0.5493 0.5833
C256 C 1.1391(5) 0.5061(4) 0.6026(3)
H201 H 1.1579 0.4879 0.5950
C257 C 1.1056(5) 0.4961(3) 0.6207(3)
H202 H 1.1016 0.4713 0.6254
N56 N 0.9917(4) 0.5988(3) 0.6601(3)
N57 N 1.0191(5) 0.5687(2) 0.6526(3)
C258 C 1.0534(5) 0.5820(4) 0.6354(4)
C259 C 1.0472(5) 0.6203(4) 0.6323(4)
H203 H 1.0654 0.6362 0.6218
C260 C 1.0091(5) 0.6307(3) 0.6476(4)
H204 H 0.9972 0.6547 0.6491
C261 C 0.9501(7) 0.5945(5) 0.6738(5)
H205 H 0.9590 0.5751 0.6916
H206 H 0.9177 0.5872 0.6551
N58 N 0.6902(5) 0.7271(3) 0.6978(3)
C262 C 0.7048(4) 0.7500(3) 0.6755(4)
C263 C 0.6665(6) 0.7674(3) 0.6487(3)
H207 H 0.6765 0.7831 0.6335
C264 C 0.6137(5) 0.7618(3) 0.6441(3)
H208 H 0.5876 0.7737 0.6258
C265 C 0.5992(4) 0.7388(4) 0.6664(4)
H209 H 0.5631 0.7350 0.6633
C266 C 0.6374(5) 0.7215(3) 0.6932(3)
H210 H 0.6275 0.7058 0.7085
N59 N 0.8443(5) 0.7403(3) 0.7115(3)
N60 N 0.7917(6) 0.7309(3) 0.7078(4)
C267 C 0.7579(4) 0.7528(4) 0.6811(4)
C268 C 0.7896(6) 0.7757(3) 0.6683(3)
H211 H 0.7773 0.7932 0.6503
C269 C 0.8430(5) 0.7680(3) 0.6871(4)
H212 H 0.8727 0.7794 0.6838
C270 C 0.8889(8) 0.7227(5) 0.7329(6)
H213 H 0.8815 0.7139 0.7537
H214 H 0.9176 0.7408 0.7408
C271 C 0.9407(5) 0.6300(3) 0.6898(4)
C272 C 0.8945(5) 0.6475(4) 0.6710(3)
H215 H 0.8742 0.6386 0.6489
C273 C 0.8782(4) 0.6782(3) 0.6845(4)
H216 H 0.8466 0.6902 0.6716
C274 C 0.9080(5) 0.6913(3) 0.7169(4)
C275 C 0.9542(5) 0.6737(4) 0.7358(3)
C276 C 0.9706(4) 0.6431(4) 0.7222(4)
C277 C 0.9838(7) 0.6859(4) 0.7689(4)
H217 H 0.9721 0.7063 0.7785
C278 C 1.0293(7) 0.6689(5) 0.7877(5)
H218 H 1.0484 0.6768 0.8105
C279 C 1.0473(7) 0.6397(5) 0.7729(5)
H219 H 1.0800 0.6288 0.7854
C280 C 1.0192(6) 0.6261(4) 0.7407(5)
H220 H 1.0319 0.6061 0.7310
N61 N 0.8155(4) 0.4916(2) 0.9451(3)
C281 C 0.7703(4) 0.4819(2) 0.9184(3)
C282 C 0.7564(3) 0.4456(3) 0.9125(3)
H221 H 0.7255 0.4389 0.8942
C283 C 0.7876(4) 0.4189(2) 0.9334(3)
H222 H 0.7781 0.3940 0.9294
C284 C 0.8328(4) 0.4286(2) 0.9601(3)
H223 H 0.8542 0.4103 0.9744
C285 C 0.8467(3) 0.4649(3) 0.9659(2)
H224 H 0.8776 0.4716 0.9842
N62 N 0.7290(4) 0.5719(2) 0.8899(3)
N63 N 0.7662(3) 0.5456(3) 0.9085(3)
C286 C 0.7432(4) 0.5107(2) 0.9000(3)
C287 C 0.6918(4) 0.5153(3) 0.8762(3)
H225 H 0.6675 0.4965 0.8661
C288 C 0.6830(3) 0.5532(3) 0.8699(3)
H226 H 0.6519 0.5640 0.8550
C289 C 0.7372(6) 0.6077(4) 0.8950(5)
H227 H 0.7557 0.6118 0.9200
H228 H 0.7025 0.6198 0.8891
N64 N 0.7410(5) 0.6591(3) 0.6911(3)
C290 C 0.7825(5) 0.6347(4) 0.6994(3)
C291 C 0.7867(5) 0.6098(3) 0.6749(4)
H229 H 0.8151 0.5931 0.6805
C292 C 0.7493(6) 0.6093(3) 0.6420(4)
H230 H 0.7521 0.5923 0.6252
C293 C 0.7077(5) 0.6338(4) 0.6337(3)
H231 H 0.6821 0.6335 0.6112
C294 C 0.7036(4) 0.6587(3) 0.6582(4)
H232 H 0.6752 0.6754 0.6526
N65 N 0.8520(5) 0.6592(3) 0.7856(3)
N66 N 0.8108(4) 0.6621(3) 0.7534(4)
C295 C 0.8193(5) 0.6353(4) 0.7308(3)
C296 C 0.8656(6) 0.6159(3) 0.7490(4)
H233 H 0.8804 0.5964 0.7401
C297 C 0.8858(4) 0.6306(3) 0.7829(4)
H234 H 0.9165 0.6228 0.8007
C298 C 0.8547(7) 0.6779(5) 0.8159(6)
H235 H 0.8413 0.7029 0.8098
H236 H 0.8919 0.6797 0.8308
C299 C 0.7682(4) 0.6264(3) 0.8748(3)
C300 C 0.7764(4) 0.6081(2) 0.8473(3)
H237 H 0.7631 0.5842 0.8416
C301 C 0.8040(4) 0.6247(3) 0.8280(3)
H238 H 0.8096 0.6122 0.8092
C302 C 0.8235(4) 0.6597(3) 0.8363(3)
C303 C 0.8154(4) 0.6781(2) 0.8638(3)
C304 C 0.7877(5) 0.6614(3) 0.8831(3)
C305 C 0.8361(6) 0.7132(4) 0.8728(5)
H239 H 0.8539 0.7251 0.8593
C306 C 0.8301(7) 0.7300(4) 0.9016(5)
H240 H 0.8463 0.7529 0.9087
C307 C 0.8011(6) 0.7144(4) 0.9200(5)
H241 H 0.7956 0.7272 0.9387
C308 C 0.7803(6) 0.6804(4) 0.9112(4)
H242 H 0.7607 0.6695 0.9241
N67 N 0.7539(5) 0.7345(3) 0.7699(3)
C309 C 0.7240(4) 0.7262(3) 0.7908(4)
C310 C 0.7213(5) 0.7506(4) 0.8162(3)
H243 H 0.7009 0.7449 0.8305
C311 C 0.7486(5) 0.7832(3) 0.8206(3)
H244 H 0.7467 0.7999 0.8379
C312 C 0.7784(4) 0.7916(3) 0.7996(4)
H245 H 0.7970 0.8139 0.8025
C313 C 0.7811(4) 0.7672(4) 0.7742(3)
H246 H 0.8015 0.7729 0.7599
N68 N 0.6806(5) 0.6390(3) 0.7607(3)
N69 N 0.7050(4) 0.6729(4) 0.7595(3)
C314 C 0.6992(5) 0.6952(3) 0.7864(4)
C315 C 0.6713(5) 0.6750(4) 0.8043(3)
H247 H 0.6620 0.6833 0.8235
C316 C 0.6598(5) 0.6403(4) 0.7884(4)
H248 H 0.6414 0.6213 0.7952
C317 C 0.6787(8) 0.6112(5) 0.7384(6)
H249 H 0.6742 0.5881 0.7495
H250 H 0.7127 0.6100 0.7340
N70 N 0.3303(6) 0.6625(3) 0.6052(3)
C318 C 0.3523(5) 0.6931(5) 0.5956(4)
C319 C 0.3222(7) 0.7242(3) 0.5845(4)
H251 H 0.3373 0.7451 0.5779
C320 C 0.2700(7) 0.7247(4) 0.5831(4)
H252 H 0.2494 0.7459 0.5755
C321 C 0.2479(5) 0.6941(5) 0.5927(4)
H253 H 0.2123 0.6944 0.5917
C322 C 0.2781(7) 0.6630(4) 0.6038(4)
H254 H 0.2630 0.6420 0.6104
N71 N 0.4778(5) 0.6609(4) 0.6028(3)
N72 N 0.4272(6) 0.6572(3) 0.6061(3)
C323 C 0.4015(5) 0.6914(5) 0.5984(4)
C324 C 0.4362(7) 0.7162(3) 0.5903(4)
H255 H 0.4292 0.7410 0.5841
C325 C 0.4833(6) 0.6973(4) 0.5930(4)
H256 H 0.5133 0.7073 0.5890
C326 C 0.5163(8) 0.6310(6) 0.6063(5)
H257 H 0.5361 0.6360 0.5902
H258 H 0.4966 0.6081 0.5986
C327 C 0.6361(7) 0.6147(5) 0.7050(4)
C328 C 0.5950(7) 0.6393(4) 0.7020(5)
H259 H 0.5936 0.6517 0.7221
C329 C 0.5562(7) 0.6457(5) 0.6702(5)
H260 H 0.5307 0.6642 0.6681
C330 C 0.5552(6) 0.6251(5) 0.6419(5)
C331 C 0.6332(6) 0.5939(4) 0.6756(4)
C332 C 0.5947(5) 0.6000(3) 0.6438(5)
C333 C 0.5937(5) 0.5791(4) 0.6152(3)
H261 H 0.5674 0.5832 0.5935
C334 C 0.6312(7) 0.5522(4) 0.6185(4)
H262 H 0.6305 0.5379 0.5990
C335 C 0.6697(5) 0.5461(3) 0.6503(5)
H263 H 0.6953 0.5277 0.6525
C336 C 0.6707(5) 0.5670(4) 0.6789(3)
H264 H 0.6970 0.5629 0.7006
B1 B 0.8899(7) 0.5345(4) 0.7860(5)
F1 F 0.8955(4) 0.4986(3) 0.7971(3)
F2 F 0.8587(4) 0.5524(2) 0.8006(3)
F3 F 0.8688(4) 0.5347(3) 0.7501(3)
F4 F 0.9383(4) 0.5504(3) 0.7942(3)
B2 B 0.6305(6) 0.5235(4) 0.7696(4)
F5 F 0.6025(3) 0.5539(2) 0.7745(2)
F6 F 0.6130(4) 0.4932(3) 0.7830(3)
F7 F 0.6227(4) 0.5183(3) 0.7351(3)
F8 F 0.6834(3) 0.5284(2) 0.7872(3)
B3 B 0.1767(6) 0.3415(4) 0.8967(4)
F9 F 0.1472(4) 0.3336(3) 0.8621(3)
F10 F 0.2225(4) 0.3210(3) 0.9049(3)
F11 F 0.1895(4) 0.3776(3) 0.8981(3)
F12 F 0.1473(4) 0.3311(3) 0.9170(3)
B4 B 0.1788(7) 0.6142(5) 0.7051(5)
F13 F 0.1814(4) 0.5814(3) 0.6909(3)
F14 F 0.1331(4) 0.6177(3) 0.7123(3)
F15 F 0.1810(5) 0.6418(3) 0.6829(4)
F16 F 0.2212(4) 0.6189(3) 0.7342(3)
B5 B 0.4937(8) 0.5898(5) 0.5178(5)
F17 F 0.4536(5) 0.5874(3) 0.4859(3)
F18 F 0.4812(5) 0.5697(3) 0.5430(3)
F19 F 0.5021(5) 0.6263(3) 0.5282(4)
F20 F 0.5406(5) 0.5775(5) 0.5150(4)
B6 B 0.6802(8) 0.3003(6) 0.7770(5)
F21 F 0.6383(5) 0.3181(4) 0.7813(4)
F22 F 0.7005(5) 0.3187(4) 0.7560(4)
F23 F 0.6623(6) 0.2668(4) 0.7609(5)
F24 F 0.7183(7) 0.2965(6) 0.8094(4)
B7 B 0.1374(8) 0.5255(5) 0.9336(6)
F25 F 0.0950(6) 0.5375(4) 0.9415(4)
F26 F 0.1411(5) 0.4894(3) 0.9315(3)
F27 F 0.1430(7) 0.5434(4) 0.9054(5)
F28 F 0.1822(5) 0.5419(4) 0.9547(4)
B8 B 0.5805(7) 0.6357(5) 0.8497(5)
F29 F 0.5514(4) 0.6608(3) 0.8278(3)
F30 F 0.6265(3) 0.6521(2) 0.8702(2)
F31 F 0.5533(5) 0.6232(3) 0.8708(3)
F32 F 0.5917(5) 0.6076(3) 0.8318(3)
B9 B 0.9432(8) 0.7726(6) 0.8222(6)
F33 F 0.9566(5) 0.8068(4) 0.8349(4)
F34 F 0.9055(7) 0.7764(5) 0.7900(5)
F35 F 0.9193(7) 0.7557(4) 0.8424(5)
F36 F 0.9866(4) 0.7576(3) 0.8176(3)
B10 B 0.7069(8) 0.4899(6) 0.5743(5)
F37 F 0.7320(5) 0.4896(4) 0.6093(3)
F38 F 0.6789(6) 0.5211(4) 0.5643(4)
F39 F 0.6744(6) 0.4607(4) 0.5656(4)
F40 F 0.7442(5) 0.4890(3) 0.5584(3)
B11 B 0.2029(8) 0.4544(6) 0.5445(5)
F41 F 0.1498(5) 0.4603(4) 0.5340(4)
F42 F 0.2264(7) 0.4798(5) 0.5312(4)
F43 F 0.2216(5) 0.4554(4) 0.5796(3)
F44 F 0.2119(6) 0.4214(4) 0.5321(5)
B12 B 0.5608(7) 0.3110(5) 0.9335(6)
F45 F 0.5547(6) 0.2925(4) 0.9608(4)
F46 F 0.5681(6) 0.3467(4) 0.9419(4)
F47 F 0.5150(6) 0.3062(4) 0.9071(4)
F48 F 0.6047(6) 0.2996(4) 0.9271(4)
C337 C 0.3164(9) 0.3832(6) 0.9562(7)
H265 H 0.3026 0.3797 0.9753
H266 H 0.3390 0.3626 0.9552
H267 H 0.2872 0.3847 0.9343
C338 C 0.3466(9) 0.4164(6) 0.9615(7)
N73 N 0.3734(7) 0.4419(5) 0.9662(5)
C339 C 0.4077(10) 0.7843(7) 0.6543(7)
H268 H 0.4166 0.8097 0.6605
H269 H 0.3777 0.7772 0.6614
H270 H 0.3985 0.7813 0.6292
C340 C 0.4524(9) 0.7613(6) 0.6718(6)
N74 N 0.4888(9) 0.7443(6) 0.6822(6)
C341 C 0.6613(13) 0.3685(9) 0.8920(8)
H271 H 0.6813 0.3506 0.8838
H272 H 0.6425 0.3562 0.9057
H273 H 0.6853 0.3866 0.9064
C342 C 0.6238(10) 0.3864(7) 0.8625(7)
N75 N 0.6002(8) 0.3981(5) 0.8365(6)
C343 C 0.2242(14) 0.6235(10) 0.8913(9)
H274 H 0.2071 0.6119 0.9064
H275 H 0.2258 0.6498 0.8951
H276 H 0.2599 0.6138 0.8967
C344 C 0.1940(17) 0.6157(11) 0.8548(10)
N76 N 0.1733(13) 0.5990(9) 0.8297(9)
C345 C 0.7589(12) 0.7086(8) 0.0119(8)
H277 H 0.7971 0.7057 0.0192
H278 H 0.7471 0.7069 0.0321
H279 H 0.7492 0.7324 0.0009
C346 C 0.7340(10) 0.6801(7) -0.0128(7)
N77 N 0.7136(9) 0.6582(6) -0.0322(6)
C347 C 0.7164(11) 0.7378(8) 0.5765(8)
H280 H 0.7306 0.7617 0.5737
H281 H 0.7014 0.7389 0.5952
H282 H 0.6891 0.7309 0.5549
C348 C 0.7582(12) 0.7111(8) 0.5848(9)
N78 N 0.7907(13) 0.6915(9) 0.5823(10)
C349 C 0.7568(8) 0.5020(6) 0.7479(6)
H283 H 0.7655 0.4920 0.7714
H284 H 0.7186 0.5036 0.7374
H285 H 0.7723 0.5262 0.7491
C350 C 0.7772(8) 0.4788(6) 0.7276(6)
N79 N 0.7926(8) 0.4550(5) 0.7172(5)
C351 C 0.2594(11) 0.3668(7) 0.8489(7)
H286 H 0.2880 0.3537 0.8659
H287 H 0.2585 0.3601 0.8255
H288 H 0.2260 0.3603 0.8519
C352 C 0.2680(11) 0.4058(7) 0.8537(8)
N80 N 0.2725(9) 0.4367(7) 0.8550(6)
loop_
_geom_bond_atom_site_label_1
_geom_bond_atom_site_label_2
_geom_bond_site_symmetry_1
_geom_bond_site_symmetry_2
Ni1 N1 1_555 1_555
Ni2 N4 1_555 1_555
Ni3 N10 1_555 1_555
Ni4 N19 1_555 1_555
Ni5 N22 1_555 1_555
Ni6 N28 1_555 1_555
Ni7 N46 1_555 1_555
Ni8 N58 1_555 1_555
N1 C1 1_555 1_555
C1 C2 1_555 1_555
C2 H1 1_555 1_555
C3 C2 1_555 1_555
H2 C3 1_555 1_555
C4 C3 1_555 1_555
H3 C4 1_555 1_555
C5 N1 1_555 1_555
H4 C5 1_555 1_555
N2 N3 1_555 1_555
N3 Ni1 1_555 1_555
C6 C1 1_555 1_555
C7 C6 1_555 1_555
H5 C7 1_555 1_555
C8 N2 1_555 1_555
H6 C8 1_555 1_555
C9 N2 1_555 1_555
H7 C9 1_555 1_555
H8 C9 1_555 1_555
N4 C10 1_555 1_555
C10 C11 1_555 1_555
C11 H9 1_555 1_555
C12 C11 1_555 1_555
H10 C12 1_555 1_555
C13 C12 1_555 1_555
H11 C13 1_555 1_555
C14 N4 1_555 1_555
H12 C14 1_555 1_555
N5 N6 1_555 1_555
N6 Ni2 1_555 1_555
C15 C10 1_555 1_555
C16 C15 1_555 1_555
H13 C16 1_555 1_555
C17 N5 1_555 1_555
H14 C17 1_555 1_555
C18 N5 1_555 1_555
H15 C18 1_555 1_555
H16 C18 1_555 1_555
C19 C9 1_555 1_555
C20 C19 1_555 1_555
H17 C20 1_555 1_555
C21 C20 1_555 1_555
H18 C21 1_555 1_555
C22 C18 1_555 1_555
C23 C22 1_555 1_555
C24 C19 1_555 1_555
C25 C23 1_555 1_555
H19 C25 1_555 1_555
C26 C25 1_555 1_555
H20 C26 1_555 1_555
C27 C26 1_555 1_555
H21 C27 1_555 1_555
C28 C24 1_555 1_555
H22 C28 1_555 1_555
N7 Ni1 1_555 1_555
C29 N7 1_555 1_555
C30 C29 1_555 1_555
H23 C30 1_555 1_555
C31 C30 1_555 1_555
H24 C31 1_555 1_555
C32 C31 1_555 1_555
H25 C32 1_555 1_555
C33 N7 1_555 1_555
H26 C33 1_555 1_555
N8 N9 1_555 1_555
N9 Ni1 1_555 1_555
C34 C29 1_555 1_555
C35 C34 1_555 1_555
H27 C35 1_555 1_555
C36 N8 1_555 1_555
H28 C36 1_555 1_555
C37 N8 1_555 1_555
H29 C37 1_555 1_555
H30 C37 1_555 1_555
N10 C38 1_555 1_555
C38 C39 1_555 1_555
C39 H31 1_555 1_555
C40 C39 1_555 1_555
H32 C40 1_555 1_555
C41 C40 1_555 1_555
H33 C41 1_555 1_555
C42 N10 1_555 1_555
H34 C42 1_555 1_555
N11 N12 1_555 1_555
N12 Ni3 1_555 1_555
C43 C38 1_555 1_555
C44 C43 1_555 1_555
H35 C44 1_555 1_555
C45 N11 1_555 1_555
H36 C45 1_555 1_555
C46 N11 1_555 1_555
H37 C46 1_555 1_555
H38 C46 1_555 1_555
C47 C37 1_555 1_555
C48 C47 1_555 1_555
H39 C48 1_555 1_555
C49 C48 1_555 1_555
H40 C49 1_555 1_555
C50 C46 1_555 1_555
C51 C50 1_555 1_555
C52 C47 1_555 1_555
C53 C51 1_555 1_555
H41 C53 1_555 1_555
C54 C53 1_555 1_555
H42 C54 1_555 1_555
C55 C54 1_555 1_555
H43 C55 1_555 1_555
C56 C52 1_555 1_555
H44 C56 1_555 1_555
N13 Ni2 1_555 1_555
C57 N13 1_555 1_555
C58 C57 1_555 1_555
H45 C58 1_555 1_555
C59 C58 1_555 1_555
H46 C59 1_555 1_555
C60 C59 1_555 1_555
H47 C60 1_555 1_555
C61 N13 1_555 1_555
H48 C61 1_555 1_555
N14 N15 1_555 1_555
N15 Ni2 1_555 1_555
C62 C57 1_555 1_555
C63 C62 1_555 1_555
H49 C63 1_555 1_555
C64 N14 1_555 1_555
H50 C64 1_555 1_555
C65 N14 1_555 1_555
H51 C65 1_555 1_555
H52 C65 1_555 1_555
N16 Ni3 1_555 1_555
C66 N16 1_555 1_555
C67 C66 1_555 1_555
H53 C67 1_555 1_555
C68 C67 1_555 1_555
H54 C68 1_555 1_555
C69 C68 1_555 1_555
H55 C69 1_555 1_555
C70 N16 1_555 1_555
H56 C70 1_555 1_555
N17 N18 1_555 1_555
N18 Ni3 1_555 1_555
C71 C66 1_555 1_555
C72 C71 1_555 1_555
H57 C72 1_555 1_555
C73 N17 1_555 1_555
H58 C73 1_555 1_555
C74 N17 1_555 1_555
H59 C74 1_555 1_555
H60 C74 1_555 1_555
C75 C65 1_555 1_555
C76 C75 1_555 1_555
H61 C76 1_555 1_555
C77 C76 1_555 1_555
H62 C77 1_555 1_555
C78 C74 1_555 1_555
C79 C78 1_555 1_555
C80 C75 1_555 1_555
C81 C79 1_555 1_555
H63 C81 1_555 1_555
C82 C81 1_555 1_555
H64 C82 1_555 1_555
C83 C82 1_555 1_555
H65 C83 1_555 1_555
C84 C80 1_555 1_555
H66 C84 1_555 1_555
N19 C85 1_555 1_555
C85 C86 1_555 1_555
C86 H67 1_555 1_555
C87 C86 1_555 1_555
H68 C87 1_555 1_555
C88 C87 1_555 1_555
H69 C88 1_555 1_555
C89 N19 1_555 1_555
H70 C89 1_555 1_555
N20 N21 1_555 1_555
N21 Ni4 1_555 1_555
C90 C85 1_555 1_555
C91 C90 1_555 1_555
H71 C91 1_555 1_555
C92 N20 1_555 1_555
H72 C92 1_555 1_555
C93 N20 1_555 1_555
H73 C93 1_555 1_555
H74 C93 1_555 1_555
N22 C94 1_555 1_555
C94 C95 1_555 1_555
C95 H75 1_555 1_555
C96 C95 1_555 1_555
H76 C96 1_555 1_555
C97 C96 1_555 1_555
H77 C97 1_555 1_555
C98 N22 1_555 1_555
H78 C98 1_555 1_555
N23 N24 1_555 1_555
N24 Ni5 1_555 1_555
C99 C94 1_555 1_555
C100 C99 1_555 1_555
H79 C100 1_555 1_555
C101 N23 1_555 1_555
H80 C101 1_555 1_555
C102 N23 1_555 1_555
H81 C102 1_555 1_555
H82 C102 1_555 1_555
C103 C93 1_555 1_555
C104 C103 1_555 1_555
H83 C104 1_555 1_555
C105 C104 1_555 1_555
H84 C105 1_555 1_555
C106 C102 1_555 1_555
C107 C106 1_555 1_555
C108 C103 1_555 1_555
C109 C107 1_555 1_555
H85 C109 1_555 1_555
C110 C109 1_555 1_555
H86 C110 1_555 1_555
C111 C110 1_555 1_555
H87 C111 1_555 1_555
C112 C108 1_555 1_555
H88 C112 1_555 1_555
N25 Ni4 1_555 1_555
C113 N25 1_555 1_555
C114 C113 1_555 1_555
H89 C114 1_555 1_555
C115 C114 1_555 1_555
H90 C115 1_555 1_555
C116 C115 1_555 1_555
H91 C116 1_555 1_555
C117 N25 1_555 1_555
H92 C117 1_555 1_555
N26 N27 1_555 1_555
N27 Ni4 1_555 1_555
C118 C113 1_555 1_555
C119 C118 1_555 1_555
H93 C119 1_555 1_555
C120 N26 1_555 1_555
H94 C120 1_555 1_555
C121 N26 1_555 1_555
H95 C121 1_555 1_555
H96 C121 1_555 1_555
N28 C122 1_555 1_555
C122 C123 1_555 1_555
C123 H97 1_555 1_555
C124 C123 1_555 1_555
H98 C124 1_555 1_555
C125 C124 1_555 1_555
H99 C125 1_555 1_555
C126 N28 1_555 1_555
H100 C126 1_555 1_555
N29 N30 1_555 1_555
N30 Ni6 1_555 1_555
C127 C122 1_555 1_555
C128 C127 1_555 1_555
H101 C128 1_555 1_555
C129 N29 1_555 1_555
H102 C129 1_555 1_555
C130 N29 1_555 1_555
H103 C130 1_555 1_555
H104 C130 1_555 1_555
C131 C121 1_555 1_555
C132 C131 1_555 1_555
H105 C132 1_555 1_555
C133 C132 1_555 1_555
H106 C133 1_555 1_555
C134 C130 1_555 1_555
C135 C134 1_555 1_555
C136 C131 1_555 1_555
C137 C135 1_555 1_555
H107 C137 1_555 1_555
C138 C137 1_555 1_555
H108 C138 1_555 1_555
C139 C138 1_555 1_555
H109 C139 1_555 1_555
C140 C136 1_555 1_555
H110 C140 1_555 1_555
N31 Ni5 1_555 1_555
C141 N31 1_555 1_555
C142 C141 1_555 1_555
H111 C142 1_555 1_555
C143 C142 1_555 1_555
H112 C143 1_555 1_555
C144 C143 1_555 1_555
H113 C144 1_555 1_555
C145 N31 1_555 1_555
H114 C145 1_555 1_555
N32 N33 1_555 1_555
N33 Ni5 1_555 1_555
C146 C141 1_555 1_555
C147 C146 1_555 1_555
H115 C147 1_555 1_555
C148 N32 1_555 1_555
H116 C148 1_555 1_555
C149 N32 1_555 1_555
H117 C149 1_555 1_555
H118 C149 1_555 1_555
N34 Ni6 1_555 1_555
C150 N34 1_555 1_555
C151 C150 1_555 1_555
H119 C151 1_555 1_555
C152 C151 1_555 1_555
H120 C152 1_555 1_555
C153 C152 1_555 1_555
H121 C153 1_555 1_555
C154 N34 1_555 1_555
H122 C154 1_555 1_555
N35 N36 1_555 1_555
N36 Ni6 1_555 1_555
C155 C150 1_555 1_555
C156 C155 1_555 1_555
H123 C156 1_555 1_555
C157 N35 1_555 1_555
H124 C157 1_555 1_555
C158 N35 1_555 1_555
H125 C158 1_555 1_555
H126 C158 1_555 1_555
C159 C149 1_555 1_555
C160 C159 1_555 1_555
H127 C160 1_555 1_555
C161 C160 1_555 1_555
H128 C161 1_555 1_555
C162 C158 1_555 1_555
C163 C162 1_555 1_555
C164 C159 1_555 1_555
C165 C163 1_555 1_555
H129 C165 1_555 1_555
C166 C165 1_555 1_555
H130 C166 1_555 1_555
C167 C166 1_555 1_555
H131 C167 1_555 1_555
C168 C164 1_555 1_555
H132 C168 1_555 1_555
N37 Ni1 1_555 1_555
C169 N37 1_555 1_555
C170 C169 1_555 1_555
H133 C170 1_555 1_555
C171 C170 1_555 1_555
H134 C171 1_555 1_555
C172 C171 1_555 1_555
H135 C172 1_555 1_555
C173 N37 1_555 1_555
H136 C173 1_555 1_555
N38 N39 1_555 1_555
N39 Ni1 1_555 1_555
C174 C169 1_555 1_555
C175 C174 1_555 1_555
H137 C175 1_555 1_555
C176 N38 1_555 1_555
H138 C176 1_555 1_555
C177 N38 1_555 1_555
H139 C177 1_555 1_555
H140 C177 1_555 1_555
N40 Ni4 1_555 1_555
C178 N40 1_555 1_555
C179 C178 1_555 1_555
H141 C179 1_555 1_555
C180 C179 1_555 1_555
H142 C180 1_555 1_555
C181 C180 1_555 1_555
H143 C181 1_555 1_555
C182 N40 1_555 1_555
H144 C182 1_555 1_555
N41 N42 1_555 1_555
N42 Ni4 1_555 1_555
C183 C178 1_555 1_555
C184 C183 1_555 1_555
H145 C184 1_555 1_555
C185 N41 1_555 1_555
H146 C185 1_555 1_555
C186 N41 1_555 1_555
H147 C186 1_555 1_555
H148 C186 1_555 1_555
C187 C177 1_555 1_555
C188 C187 1_555 1_555
H149 C188 1_555 1_555
C189 C188 1_555 1_555
H150 C189 1_555 1_555
C190 C186 1_555 1_555
C191 C190 1_555 1_555
C192 C187 1_555 1_555
C193 C191 1_555 1_555
H151 C193 1_555 1_555
C194 C193 1_555 1_555
H152 C194 1_555 1_555
C195 C194 1_555 1_555
H153 C195 1_555 1_555
C196 C192 1_555 1_555
H154 C196 1_555 1_555
N43 Ni2 1_555 1_555
C197 N43 1_555 1_555
C198 C197 1_555 1_555
H155 C198 1_555 1_555
C199 C198 1_555 1_555
H156 C199 1_555 1_555
C200 C199 1_555 1_555
H157 C200 1_555 1_555
C201 N43 1_555 1_555
H158 C201 1_555 1_555
N44 N45 1_555 1_555
N45 Ni2 1_555 1_555
C202 C197 1_555 1_555
C203 C202 1_555 1_555
H159 C203 1_555 1_555
C204 N44 1_555 1_555
H160 C204 1_555 1_555
C205 N44 1_555 1_555
H161 C205 1_555 1_555
H162 C205 1_555 1_555
N46 C206 1_555 1_555
C206 C207 1_555 1_555
C207 H163 1_555 1_555
C208 C207 1_555 1_555
H164 C208 1_555 1_555
C209 C208 1_555 1_555
H165 C209 1_555 1_555
C210 N46 1_555 1_555
H166 C210 1_555 1_555
N47 N48 1_555 1_555
N48 Ni7 1_555 1_555
C211 C206 1_555 1_555
C212 C211 1_555 1_555
H167 C212 1_555 1_555
C213 N47 1_555 1_555
H168 C213 1_555 1_555
C214 N47 1_555 1_555
H169 C214 1_555 1_555
H170 C214 1_555 1_555
C215 C205 1_555 1_555
C216 C215 1_555 1_555
H171 C216 1_555 1_555
C217 C216 1_555 1_555
H172 C217 1_555 1_555
C218 C214 1_555 1_555
C219 C218 1_555 1_555
C220 C215 1_555 1_555
C221 C219 1_555 1_555
H173 C221 1_555 1_555
C222 C221 1_555 1_555
H174 C222 1_555 1_555
C223 C222 1_555 1_555
H175 C223 1_555 1_555
C224 C220 1_555 1_555
H176 C224 1_555 1_555
N49 Ni5 1_555 1_555
C225 N49 1_555 1_555
C226 C225 1_555 1_555
H177 C226 1_555 1_555
C227 C226 1_555 1_555
H178 C227 1_555 1_555
C228 C227 1_555 1_555
H179 C228 1_555 1_555
C229 N49 1_555 1_555
H180 C229 1_555 1_555
N50 N51 1_555 1_555
N51 Ni5 1_555 1_555
C230 C225 1_555 1_555
C231 C230 1_555 1_555
H181 C231 1_555 1_555
C232 N50 1_555 1_555
H182 C232 1_555 1_555
C233 N50 1_555 1_555
H183 C233 1_555 1_555
H184 C233 1_555 1_555
N52 Ni7 1_555 1_555
C234 N52 1_555 1_555
C235 C234 1_555 1_555
H185 C235 1_555 1_555
C236 C235 1_555 1_555
H186 C236 1_555 1_555
C237 C236 1_555 1_555
H187 C237 1_555 1_555
C238 N52 1_555 1_555
H188 C238 1_555 1_555
N53 N54 1_555 1_555
N54 Ni7 1_555 1_555
C239 C234 1_555 1_555
C240 C239 1_555 1_555
H189 C240 1_555 1_555
C241 N53 1_555 1_555
H190 C241 1_555 1_555
C242 N53 1_555 1_555
H191 C242 1_555 1_555
H192 C242 1_555 1_555
C243 C233 1_555 1_555
C244 C243 1_555 1_555
H193 C244 1_555 1_555
C245 C244 1_555 1_555
H194 C245 1_555 1_555
C246 C242 1_555 1_555
C247 C246 1_555 1_555
C248 C243 1_555 1_555
C249 C248 1_555 1_555
H195 C249 1_555 1_555
C250 C249 1_555 1_555
H196 C250 1_555 1_555
C251 C250 1_555 1_555
H197 C251 1_555 1_555
C252 C247 1_555 1_555
H198 C252 1_555 1_555
N55 Ni3 1_555 1_555
C253 N55 1_555 1_555
C254 C253 1_555 1_555
H199 C254 1_555 1_555
C255 C254 1_555 1_555
H200 C255 1_555 1_555
C256 C255 1_555 1_555
H201 C256 1_555 1_555
C257 N55 1_555 1_555
H202 C257 1_555 1_555
N56 N57 1_555 1_555
N57 Ni3 1_555 1_555
C258 C253 1_555 1_555
C259 C258 1_555 1_555
H203 C259 1_555 1_555
C260 N56 1_555 1_555
H204 C260 1_555 1_555
C261 N56 1_555 1_555
H205 C261 1_555 1_555
H206 C261 1_555 1_555
N58 C262 1_555 1_555
C262 C263 1_555 1_555
C263 H207 1_555 1_555
C264 C263 1_555 1_555
H208 C264 1_555 1_555
C265 C264 1_555 1_555
H209 C265 1_555 1_555
C266 N58 1_555 1_555
H210 C266 1_555 1_555
N59 N60 1_555 1_555
N60 Ni8 1_555 1_555
C267 C262 1_555 1_555
C268 C267 1_555 1_555
H211 C268 1_555 1_555
C269 N59 1_555 1_555
H212 C269 1_555 1_555
C270 N59 1_555 1_555
H213 C270 1_555 1_555
H214 C270 1_555 1_555
C271 C261 1_555 1_555
C272 C271 1_555 1_555
H215 C272 1_555 1_555
C273 C272 1_555 1_555
H216 C273 1_555 1_555
C274 C270 1_555 1_555
C275 C274 1_555 1_555
C276 C271 1_555 1_555
C277 C275 1_555 1_555
H217 C277 1_555 1_555
C278 C277 1_555 1_555
H218 C278 1_555 1_555
C279 C278 1_555 1_555
H219 C279 1_555 1_555
C280 C276 1_555 1_555
H220 C280 1_555 1_555
N61 Ni7 1_555 1_555
C281 N61 1_555 1_555
C282 C281 1_555 1_555
H221 C282 1_555 1_555
C283 C282 1_555 1_555
H222 C283 1_555 1_555
C284 C283 1_555 1_555
H223 C284 1_555 1_555
C285 N61 1_555 1_555
H224 C285 1_555 1_555
N62 N63 1_555 1_555
N63 Ni7 1_555 1_555
C286 C281 1_555 1_555
C287 C286 1_555 1_555
H225 C287 1_555 1_555
C288 N62 1_555 1_555
H226 C288 1_555 1_555
C289 N62 1_555 1_555
H227 C289 1_555 1_555
H228 C289 1_555 1_555
N64 Ni8 1_555 1_555
C290 N64 1_555 1_555
C291 C290 1_555 1_555
H229 C291 1_555 1_555
C292 C291 1_555 1_555
H230 C292 1_555 1_555
C293 C292 1_555 1_555
H231 C293 1_555 1_555
C294 N64 1_555 1_555
H232 C294 1_555 1_555
N65 N66 1_555 1_555
N66 Ni8 1_555 1_555
C295 C290 1_555 1_555
C296 C295 1_555 1_555
H233 C296 1_555 1_555
C297 N65 1_555 1_555
H234 C297 1_555 1_555
C298 N65 1_555 1_555
H235 C298 1_555 1_555
H236 C298 1_555 1_555
C299 C289 1_555 1_555
C300 C299 1_555 1_555
H237 C300 1_555 1_555
C301 C300 1_555 1_555
H238 C301 1_555 1_555
C302 C298 1_555 1_555
C303 C302 1_555 1_555
C304 C299 1_555 1_555
C305 C303 1_555 1_555
H239 C305 1_555 1_555
C306 C305 1_555 1_555
H240 C306 1_555 1_555
C307 C306 1_555 1_555
H241 C307 1_555 1_555
C308 C304 1_555 1_555
H242 C308 1_555 1_555
N67 Ni8 1_555 1_555
C309 N67 1_555 1_555
C310 C309 1_555 1_555
H243 C310 1_555 1_555
C311 C310 1_555 1_555
H244 C311 1_555 1_555
C312 C311 1_555 1_555
H245 C312 1_555 1_555
C313 N67 1_555 1_555
H246 C313 1_555 1_555
N68 N69 1_555 1_555
N69 Ni8 1_555 1_555
C314 C309 1_555 1_555
C315 C314 1_555 1_555
H247 C315 1_555 1_555
C316 N68 1_555 1_555
H248 C316 1_555 1_555
C317 N68 1_555 1_555
H249 C317 1_555 1_555
H250 C317 1_555 1_555
N70 Ni6 1_555 1_555
C318 N70 1_555 1_555
C319 C318 1_555 1_555
H251 C319 1_555 1_555
C320 C319 1_555 1_555
H252 C320 1_555 1_555
C321 C320 1_555 1_555
H253 C321 1_555 1_555
C322 N70 1_555 1_555
H254 C322 1_555 1_555
N71 N72 1_555 1_555
N72 Ni6 1_555 1_555
C323 C318 1_555 1_555
C324 C323 1_555 1_555
H255 C324 1_555 1_555
C325 N71 1_555 1_555
H256 C325 1_555 1_555
C326 N71 1_555 1_555
H257 C326 1_555 1_555
H258 C326 1_555 1_555
C327 C317 1_555 1_555
C328 C327 1_555 1_555
H259 C328 1_555 1_555
C329 C328 1_555 1_555
H260 C329 1_555 1_555
C330 C326 1_555 1_555
C331 C327 1_555 1_555
C332 C330 1_555 1_555
C333 C332 1_555 1_555
H261 C333 1_555 1_555
C334 C333 1_555 1_555
H262 C334 1_555 1_555
C335 C334 1_555 1_555
H263 C335 1_555 1_555
C336 C331 1_555 1_555
H264 C336 1_555 1_555
B1 F1 1_555 1_555
F2 B1 1_555 1_555
F3 B1 1_555 1_555
F4 B1 1_555 1_555
B2 F5 1_555 1_555
F6 B2 1_555 1_555
F7 B2 1_555 1_555
F8 B2 1_555 1_555
B3 F9 1_555 1_555
F10 B3 1_555 1_555
F11 B3 1_555 1_555
F12 B3 1_555 1_555
B4 F13 1_555 1_555
F14 B4 1_555 1_555
F15 B4 1_555 1_555
F16 B4 1_555 1_555
B5 F17 1_555 1_555
F18 B5 1_555 1_555
F19 B5 1_555 1_555
F20 B5 1_555 1_555
B6 F21 1_555 1_555
F22 B6 1_555 1_555
F23 B6 1_555 1_555
F24 B6 1_555 1_555
B7 F25 1_555 1_555
F26 B7 1_555 1_555
F27 B7 1_555 1_555
F28 B7 1_555 1_555
B8 F29 1_555 1_555
F30 B8 1_555 1_555
F31 B8 1_555 1_555
F32 B8 1_555 1_555
B9 F33 1_555 1_555
F34 B9 1_555 1_555
F35 B9 1_555 1_555
F36 B9 1_555 1_555
B10 F37 1_555 1_555
F38 B10 1_555 1_555
F39 B10 1_555 1_555
F40 B10 1_555 1_555
B11 F41 1_555 1_555
F42 B11 1_555 1_555
F43 B11 1_555 1_555
F44 B11 1_555 1_555
B12 F45 1_555 1_555
F46 B12 1_555 1_555
F47 B12 1_555 1_555
F48 B12 1_555 1_555
C337 H265 1_555 1_555
H266 C337 1_555 1_555
H267 C337 1_555 1_555
C338 C337 1_555 1_555
N73 C338 1_555 1_555
C339 H268 1_555 1_555
H269 C339 1_555 1_555
H270 C339 1_555 1_555
C340 C339 1_555 1_555
N74 C340 1_555 1_555
C341 H271 1_555 1_555
H272 C341 1_555 1_555
H273 C341 1_555 1_555
C342 C341 1_555 1_555
N75 C342 1_555 1_555
C343 H274 1_555 1_555
H275 C343 1_555 1_555
H276 C343 1_555 1_555
C344 C343 1_555 1_555
N76 C344 1_555 1_555
C345 H277 1_555 1_555
H278 C345 1_555 1_555
H279 C345 1_555 1_555
C346 C345 1_555 1_555
N77 C346 1_555 1_555
C347 H280 1_555 1_555
H281 C347 1_555 1_555
H282 C347 1_555 1_555
C348 C347 1_555 1_555
N78 C348 1_555 1_555
C349 H283 1_555 1_555
H284 C349 1_555 1_555
H285 C349 1_555 1_555
C350 C349 1_555 1_555
N79 C350 1_555 1_555
C351 H286 1_555 1_555
H287 C351 1_555 1_555
H288 C351 1_555 1_555
C352 C351 1_555 1_555
N80 C352 1_555 1_555
C4 C5 1_555 1_555
N3 C6 1_555 1_555
C7 C8 1_555 1_555
C13 C14 1_555 1_555
N6 C15 1_555 1_555
C16 C17 1_555 1_555
C21 C22 1_555 1_555
C23 C24 1_555 1_555
C27 C28 1_555 1_555
C32 C33 1_555 1_555
N9 C34 1_555 1_555
C35 C36 1_555 1_555
C41 C42 1_555 1_555
N12 C43 1_555 1_555
C44 C45 1_555 1_555
C49 C50 1_555 1_555
C51 C52 1_555 1_555
C55 C56 1_555 1_555
C60 C61 1_555 1_555
N15 C62 1_555 1_555
C63 C64 1_555 1_555
C69 C70 1_555 1_555
N18 C71 1_555 1_555
C72 C73 1_555 1_555
C77 C78 1_555 1_555
C79 C80 1_555 1_555
C83 C84 1_555 1_555
C88 C89 1_555 1_555
N21 C90 1_555 1_555
C91 C92 1_555 1_555
C97 C98 1_555 1_555
N24 C99 1_555 1_555
C100 C101 1_555 1_555
C105 C106 1_555 1_555
C107 C108 1_555 1_555
C111 C112 1_555 1_555
C116 C117 1_555 1_555
N27 C118 1_555 1_555
C119 C120 1_555 1_555
C125 C126 1_555 1_555
N30 C127 1_555 1_555
C128 C129 1_555 1_555
C133 C134 1_555 1_555
C135 C136 1_555 1_555
C139 C140 1_555 1_555
C144 C145 1_555 1_555
N33 C146 1_555 1_555
C147 C148 1_555 1_555
C153 C154 1_555 1_555
N36 C155 1_555 1_555
C156 C157 1_555 1_555
C161 C162 1_555 1_555
C163 C164 1_555 1_555
C167 C168 1_555 1_555
C172 C173 1_555 1_555
N39 C174 1_555 1_555
C175 C176 1_555 1_555
C181 C182 1_555 1_555
N42 C183 1_555 1_555
C184 C185 1_555 1_555
C189 C190 1_555 1_555
C191 C192 1_555 1_555
C195 C196 1_555 1_555
C200 C201 1_555 1_555
N45 C202 1_555 1_555
C203 C204 1_555 1_555
C209 C210 1_555 1_555
N48 C211 1_555 1_555
C212 C213 1_555 1_555
C217 C218 1_555 1_555
C219 C220 1_555 1_555
C223 C224 1_555 1_555
C228 C229 1_555 1_555
N51 C230 1_555 1_555
C231 C232 1_555 1_555
C237 C238 1_555 1_555
N54 C239 1_555 1_555
C240 C241 1_555 1_555
C245 C246 1_555 1_555
C247 C248 1_555 1_555
C251 C252 1_555 1_555
C256 C257 1_555 1_555
N57 C258 1_555 1_555
C259 C260 1_555 1_555
C265 C266 1_555 1_555
N60 C267 1_555 1_555
C268 C269 1_555 1_555
C273 C274 1_555 1_555
C275 C276 1_555 1_555
C279 C280 1_555 1_555
C284 C285 1_555 1_555
N63 C286 1_555 1_555
C287 C288 1_555 1_555
C293 C294 1_555 1_555
N66 C295 1_555 1_555
C296 C297 1_555 1_555
C301 C302 1_555 1_555
C303 C304 1_555 1_555
C307 C308 1_555 1_555
C312 C313 1_555 1_555
N69 C314 1_555 1_555
C315 C316 1_555 1_555
C321 C322 1_555 1_555
N72 C323 1_555 1_555
C324 C325 1_555 1_555
C329 C330 1_555 1_555
C331 C332 1_555 1_555
C335 C336 1_555 1_555

#END
