# generated using pymatgen
data_Fe2Co3H168C142N25ClO18
_symmetry_space_group_name_H-M   'P 1'
_cell_length_a   16.64100000
_cell_length_b   18.90610000
_cell_length_c   46.04100000
_cell_angle_alpha   90.00000000
_cell_angle_beta   90.00000000
_cell_angle_gamma   90.00000000
_symmetry_Int_Tables_number   1
_chemical_formula_structural   Fe2Co3H168C142N25ClO18
_chemical_formula_sum   'Fe8 Co12 H672 C568 N100 Cl4 O72'
_cell_volume   14485.25413741
_cell_formula_units_Z   4
loop_
 _symmetry_equiv_pos_site_id
 _symmetry_equiv_pos_as_xyz
  1  'x, y, z'
loop_
 _atom_site_type_symbol
 _atom_site_label
 _atom_site_symmetry_multiplicity
 _atom_site_fract_x
 _atom_site_fract_y
 _atom_site_fract_z
 _atom_site_occupancy
  Fe  Fe1  1  0.794730  0.396920  0.397300  1
  Fe  Fe2  1  0.705270  0.603080  0.897300  1
  Fe  Fe3  1  0.294730  0.103080  0.602700  1
  Fe  Fe4  1  0.205270  0.896920  0.102700  1
  Fe  Fe5  1  0.165540  0.416120  0.403142  1
  Fe  Fe6  1  0.334460  0.583880  0.903142  1
  Fe  Fe7  1  0.665540  0.083880  0.596858  1
  Fe  Fe8  1  0.834460  0.916120  0.096858  1
  Co  Co9  1  0.991500  0.335350  0.324347  1
  Co  Co10  1  0.508500  0.664650  0.824347  1
  Co  Co11  1  0.491500  0.164650  0.675653  1
  Co  Co12  1  0.008500  0.835350  0.175653  1
  Co  Co13  1  0.979280  0.311200  0.473036  1
  Co  Co14  1  0.520720  0.688800  0.973036  1
  Co  Co15  1  0.479280  0.188800  0.526964  1
  Co  Co16  1  0.020720  0.811200  0.026964  1
  Co  Co17  1  0.970880  0.613970  0.395548  1
  Co  Co18  1  0.529120  0.386030  0.895548  1
  Co  Co19  1  0.470880  0.886030  0.604452  1
  Co  Co20  1  0.029120  0.113970  0.104452  1
  H  H21  1  0.118400  0.251500  0.358500  1
  H  H22  1  0.381600  0.748500  0.858500  1
  H  H23  1  0.618400  0.248500  0.641500  1
  H  H24  1  0.881600  0.751500  0.141500  1
  H  H25  1  0.145400  0.131300  0.364700  1
  H  H26  1  0.354600  0.868700  0.864700  1
  H  H27  1  0.645400  0.368700  0.635300  1
  H  H28  1  0.854600  0.631300  0.135300  1
  H  H29  1  0.054600  0.047200  0.346700  1
  H  H30  1  0.445400  0.952800  0.846700  1
  H  H31  1  0.554600  0.452800  0.653300  1
  H  H32  1  0.945400  0.547200  0.153300  1
  H  H33  1  0.949700  0.085500  0.316900  1
  H  H34  1  0.550300  0.914500  0.816900  1
  H  H35  1  0.449700  0.414500  0.683100  1
  H  H36  1  0.050300  0.585500  0.183100  1
  H  H37  1  0.871600  0.192000  0.295400  1
  H  H38  1  0.628400  0.808000  0.795400  1
  H  H39  1  0.371600  0.308000  0.704600  1
  H  H40  1  0.128400  0.692000  0.204600  1
  H  H41  1  0.854000  0.372100  0.280700  1
  H  H42  1  0.646000  0.627900  0.780700  1
  H  H43  1  0.354000  0.127900  0.719300  1
  H  H44  1  0.146000  0.872100  0.219300  1
  H  H45  1  0.937100  0.322500  0.244200  1
  H  H46  1  0.562900  0.677500  0.744200  1
  H  H47  1  0.437100  0.177500  0.755800  1
  H  H48  1  0.062900  0.822500  0.255800  1
  H  H49  1  0.890900  0.248300  0.246100  1
  H  H50  1  0.609100  0.751700  0.746100  1
  H  H51  1  0.390900  0.251700  0.753900  1
  H  H52  1  0.109100  0.748300  0.253900  1
  H  H53  1  0.849600  0.316400  0.205400  1
  H  H54  1  0.650400  0.683600  0.705400  1
  H  H55  1  0.349600  0.183600  0.794600  1
  H  H56  1  0.150400  0.816400  0.294600  1
  H  H57  1  0.815900  0.375600  0.227400  1
  H  H58  1  0.684100  0.624400  0.727400  1
  H  H59  1  0.315900  0.124400  0.772600  1
  H  H60  1  0.184100  0.875600  0.272600  1
  H  H61  1  0.709100  0.303100  0.216400  1
  H  H62  1  0.790900  0.696900  0.716400  1
  H  H63  1  0.209100  0.196900  0.783600  1
  H  H64  1  0.290900  0.803100  0.283600  1
  H  H65  1  0.761100  0.233500  0.222200  1
  H  H66  1  0.738900  0.766500  0.722200  1
  H  H67  1  0.261100  0.266500  0.777800  1
  H  H68  1  0.238900  0.733500  0.277800  1
  H  H69  1  0.605300  0.251900  0.250200  1
  H  H70  1  0.894700  0.748100  0.750200  1
  H  H71  1  0.105300  0.248100  0.749800  1
  H  H72  1  0.394700  0.751900  0.249800  1
  H  H73  1  0.550400  0.264200  0.295400  1
  H  H74  1  0.949600  0.735800  0.795400  1
  H  H75  1  0.050400  0.235800  0.704600  1
  H  H76  1  0.449600  0.764200  0.204600  1
  H  H77  1  0.642400  0.261900  0.336200  1
  H  H78  1  0.857600  0.738100  0.836200  1
  H  H79  1  0.142400  0.238100  0.663800  1
  H  H80  1  0.357600  0.761900  0.163800  1
  H  H81  1  0.771900  0.295300  0.328000  1
  H  H82  1  0.728100  0.704700  0.828000  1
  H  H83  1  0.271900  0.204700  0.672000  1
  H  H84  1  0.228100  0.795300  0.172000  1
  H  H85  1  0.875000  0.457200  0.338800  1
  H  H86  1  0.625000  0.542800  0.838800  1
  H  H87  1  0.375000  0.042800  0.661200  1
  H  H88  1  0.125000  0.957200  0.161200  1
  H  H89  1  0.831900  0.557000  0.313300  1
  H  H90  1  0.668100  0.443000  0.813300  1
  H  H91  1  0.331900  0.943000  0.686700  1
  H  H92  1  0.168100  0.057000  0.186700  1
  H  H93  1  0.893500  0.586500  0.269300  1
  H  H94  1  0.606500  0.413500  0.769300  1
  H  H95  1  0.393500  0.913500  0.730700  1
  H  H96  1  0.106500  0.086500  0.230700  1
  H  H97  1  0.002200  0.519100  0.252600  1
  H  H98  1  0.497800  0.480900  0.752600  1
  H  H99  1  0.502200  0.980900  0.747400  1
  H  H100  1  0.997800  0.019100  0.247400  1
  H  H101  1  0.096500  0.410600  0.262500  1
  H  H102  1  0.403500  0.589400  0.762500  1
  H  H103  1  0.596500  0.089400  0.737500  1
  H  H104  1  0.903500  0.910600  0.237500  1
  H  H105  1  0.156600  0.280400  0.309600  1
  H  H106  1  0.343400  0.719600  0.809600  1
  H  H107  1  0.656600  0.219600  0.690400  1
  H  H108  1  0.843400  0.780400  0.190400  1
  H  H109  1  0.160100  0.194400  0.275800  1
  H  H110  1  0.339900  0.805600  0.775800  1
  H  H111  1  0.660100  0.305600  0.724200  1
  H  H112  1  0.839900  0.694400  0.224200  1
  H  H113  1  0.067600  0.218200  0.274700  1
  H  H114  1  0.432400  0.781800  0.774700  1
  H  H115  1  0.567600  0.281800  0.725300  1
  H  H116  1  0.932400  0.718200  0.225300  1
  H  H117  1  0.093300  0.289900  0.235100  1
  H  H118  1  0.406700  0.710100  0.735100  1
  H  H119  1  0.593300  0.210100  0.764900  1
  H  H120  1  0.906700  0.789900  0.264900  1
  H  H121  1  0.117400  0.209900  0.228200  1
  H  H122  1  0.382600  0.790100  0.728200  1
  H  H123  1  0.617400  0.290100  0.771800  1
  H  H124  1  0.882600  0.709900  0.271800  1
  H  H125  1  0.212800  0.297900  0.211200  1
  H  H126  1  0.287200  0.702100  0.711200  1
  H  H127  1  0.712800  0.202100  0.788800  1
  H  H128  1  0.787200  0.797900  0.288800  1
  H  H129  1  0.251900  0.234600  0.229500  1
  H  H130  1  0.248100  0.765400  0.729500  1
  H  H131  1  0.751900  0.265400  0.770500  1
  H  H132  1  0.748100  0.734600  0.270500  1
  H  H133  1  0.344000  0.358700  0.227500  1
  H  H134  1  0.156000  0.641300  0.727500  1
  H  H135  1  0.844000  0.141300  0.772500  1
  H  H136  1  0.656000  0.858700  0.272500  1
  H  H137  1  0.398000  0.440100  0.259700  1
  H  H138  1  0.102000  0.559900  0.759700  1
  H  H139  1  0.898000  0.059900  0.740300  1
  H  H140  1  0.602000  0.940100  0.240300  1
  H  H141  1  0.340300  0.456600  0.304300  1
  H  H142  1  0.159700  0.543400  0.804300  1
  H  H143  1  0.840300  0.043400  0.695700  1
  H  H144  1  0.659700  0.956600  0.195700  1
  H  H145  1  0.224000  0.394900  0.317000  1
  H  H146  1  0.276000  0.605100  0.817000  1
  H  H147  1  0.724000  0.105100  0.683000  1
  H  H148  1  0.776000  0.894900  0.183000  1
  H  H149  1  0.893100  0.352100  0.529700  1
  H  H150  1  0.606900  0.647900  0.029700  1
  H  H151  1  0.393100  0.147900  0.470300  1
  H  H152  1  0.106900  0.852100  0.970300  1
  H  H153  1  0.793000  0.301800  0.557900  1
  H  H154  1  0.707000  0.698200  0.057900  1
  H  H155  1  0.293000  0.198200  0.442100  1
  H  H156  1  0.207000  0.801800  0.942100  1
  H  H157  1  0.742400  0.191200  0.545300  1
  H  H158  1  0.757600  0.808800  0.045300  1
  H  H159  1  0.242400  0.308800  0.454700  1
  H  H160  1  0.257600  0.691200  0.954700  1
  H  H161  1  0.793000  0.133600  0.504000  1
  H  H162  1  0.707000  0.866400  0.004000  1
  H  H163  1  0.293000  0.366400  0.496000  1
  H  H164  1  0.207000  0.633600  0.996000  1
  H  H165  1  0.890500  0.139300  0.459900  1
  H  H166  1  0.609500  0.860700  0.959900  1
  H  H167  1  0.390500  0.360700  0.540100  1
  H  H168  1  0.109500  0.639300  0.040100  1
  H  H169  1  0.003400  0.241400  0.414800  1
  H  H170  1  0.496600  0.758600  0.914800  1
  H  H171  1  0.503400  0.258600  0.585200  1
  H  H172  1  0.996600  0.741400  0.085200  1
  H  H173  1  0.117600  0.174900  0.415100  1
  H  H174  1  0.382400  0.825100  0.915100  1
  H  H175  1  0.617600  0.325100  0.584900  1
  H  H176  1  0.882400  0.674900  0.084900  1
  H  H177  1  0.111000  0.201300  0.448100  1
  H  H178  1  0.389000  0.798700  0.948100  1
  H  H179  1  0.611000  0.298700  0.551900  1
  H  H180  1  0.889000  0.701300  0.051900  1
  H  H181  1  0.138400  0.079000  0.448300  1
  H  H182  1  0.361600  0.921000  0.948300  1
  H  H183  1  0.638400  0.421000  0.551700  1
  H  H184  1  0.861600  0.579000  0.051700  1
  H  H185  1  0.050000  0.091000  0.461200  1
  H  H186  1  0.450000  0.909000  0.961200  1
  H  H187  1  0.550000  0.409000  0.538800  1
  H  H188  1  0.950000  0.591000  0.038800  1
  H  H189  1  0.040900  0.000700  0.429400  1
  H  H190  1  0.459100  0.999300  0.929400  1
  H  H191  1  0.540900  0.499300  0.570600  1
  H  H192  1  0.959100  0.500700  0.070600  1
  H  H193  1  0.090500  0.042900  0.405300  1
  H  H194  1  0.409500  0.957100  0.905300  1
  H  H195  1  0.590500  0.457100  0.594700  1
  H  H196  1  0.909500  0.542900  0.094700  1
  H  H197  1  0.937300  0.981500  0.390700  1
  H  H198  1  0.562700  0.018500  0.890700  1
  H  H199  1  0.437300  0.518500  0.609300  1
  H  H200  1  0.062700  0.481500  0.109300  1
  H  H201  1  0.817000  0.020100  0.371100  1
  H  H202  1  0.683000  0.979900  0.871100  1
  H  H203  1  0.317000  0.479900  0.628900  1
  H  H204  1  0.183000  0.520100  0.128900  1
  H  H205  1  0.784300  0.141600  0.372100  1
  H  H206  1  0.715700  0.858400  0.872100  1
  H  H207  1  0.284300  0.358400  0.627900  1
  H  H208  1  0.215700  0.641600  0.127900  1
  H  H209  1  0.862800  0.216700  0.399600  1
  H  H210  1  0.637200  0.783300  0.899600  1
  H  H211  1  0.362800  0.283300  0.600400  1
  H  H212  1  0.137200  0.716700  0.100400  1
  H  H213  1  0.061700  0.174700  0.494800  1
  H  H214  1  0.438300  0.825300  0.994800  1
  H  H215  1  0.561700  0.325300  0.505200  1
  H  H216  1  0.938300  0.674700  0.005200  1
  H  H217  1  0.168100  0.153600  0.528500  1
  H  H218  1  0.331900  0.846400  0.028500  1
  H  H219  1  0.668100  0.346400  0.471500  1
  H  H220  1  0.831900  0.653600  0.971500  1
  H  H221  1  0.227500  0.248500  0.553800  1
  H  H222  1  0.272500  0.751500  0.053800  1
  H  H223  1  0.727500  0.251500  0.446200  1
  H  H224  1  0.772500  0.748500  0.946200  1
  H  H225  1  0.175100  0.361600  0.545700  1
  H  H226  1  0.324900  0.638400  0.045700  1
  H  H227  1  0.675100  0.138400  0.454300  1
  H  H228  1  0.824900  0.861600  0.954300  1
  H  H229  1  0.075200  0.443100  0.519300  1
  H  H230  1  0.424800  0.556900  0.019300  1
  H  H231  1  0.575200  0.056900  0.480700  1
  H  H232  1  0.924800  0.943100  0.980700  1
  H  H233  1  0.960100  0.473000  0.460700  1
  H  H234  1  0.539900  0.527000  0.960700  1
  H  H235  1  0.460100  0.027000  0.539300  1
  H  H236  1  0.039900  0.973000  0.039300  1
  H  H237  1  0.841700  0.506400  0.479800  1
  H  H238  1  0.658300  0.493600  0.979800  1
  H  H239  1  0.341700  0.993600  0.520200  1
  H  H240  1  0.158300  0.006400  0.020200  1
  H  H241  1  0.848200  0.424400  0.488300  1
  H  H242  1  0.651800  0.575600  0.988300  1
  H  H243  1  0.348200  0.075600  0.511700  1
  H  H244  1  0.151800  0.924400  0.011700  1
  H  H245  1  0.896500  0.457900  0.535400  1
  H  H246  1  0.603500  0.542100  0.035400  1
  H  H247  1  0.396500  0.042100  0.464600  1
  H  H248  1  0.103500  0.957900  0.964600  1
  H  H249  1  0.807100  0.486300  0.529600  1
  H  H250  1  0.692900  0.513700  0.029600  1
  H  H251  1  0.307100  0.013700  0.470400  1
  H  H252  1  0.192900  0.986300  0.970400  1
  H  H253  1  0.853500  0.600400  0.519800  1
  H  H254  1  0.646500  0.399600  0.019800  1
  H  H255  1  0.353500  0.899600  0.480200  1
  H  H256  1  0.146500  0.100400  0.980200  1
  H  H257  1  0.895300  0.576700  0.549600  1
  H  H258  1  0.604700  0.423300  0.049600  1
  H  H259  1  0.395300  0.923300  0.450400  1
  H  H260  1  0.104700  0.076700  0.950400  1
  H  H261  1  0.000500  0.668500  0.538200  1
  H  H262  1  0.499500  0.331500  0.038200  1
  H  H263  1  0.500500  0.831500  0.461800  1
  H  H264  1  0.999500  0.168500  0.961800  1
  H  H265  1  0.123000  0.692500  0.518000  1
  H  H266  1  0.377000  0.307500  0.018000  1
  H  H267  1  0.623000  0.807500  0.482000  1
  H  H268  1  0.877000  0.192500  0.982000  1
  H  H269  1  0.175200  0.619500  0.481500  1
  H  H270  1  0.324800  0.380500  0.981500  1
  H  H271  1  0.675200  0.880500  0.518500  1
  H  H272  1  0.824800  0.119500  0.018500  1
  H  H273  1  0.103600  0.520400  0.467100  1
  H  H274  1  0.396400  0.479600  0.967100  1
  H  H275  1  0.603600  0.979600  0.532900  1
  H  H276  1  0.896400  0.020400  0.032900  1
  H  H277  1  0.819900  0.602900  0.437200  1
  H  H278  1  0.680100  0.397100  0.937200  1
  H  H279  1  0.319900  0.897100  0.562800  1
  H  H280  1  0.180100  0.102900  0.062800  1
  H  H281  1  0.767500  0.667200  0.475500  1
  H  H282  1  0.732500  0.332800  0.975500  1
  H  H283  1  0.267500  0.832800  0.524500  1
  H  H284  1  0.232500  0.167200  0.024500  1
  H  H285  1  0.840800  0.755600  0.497500  1
  H  H286  1  0.659200  0.244400  0.997500  1
  H  H287  1  0.340800  0.744400  0.502500  1
  H  H288  1  0.159200  0.255600  0.002500  1
  H  H289  1  0.977000  0.773300  0.481800  1
  H  H290  1  0.523000  0.226700  0.981800  1
  H  H291  1  0.477000  0.726700  0.518200  1
  H  H292  1  0.023000  0.273300  0.018200  1
  H  H293  1  0.088300  0.740000  0.445800  1
  H  H294  1  0.411700  0.260000  0.945800  1
  H  H295  1  0.588300  0.760000  0.554200  1
  H  H296  1  0.911700  0.240000  0.054200  1
  H  H297  1  0.142500  0.668800  0.378900  1
  H  H298  1  0.357500  0.331200  0.878900  1
  H  H299  1  0.642500  0.831200  0.621100  1
  H  H300  1  0.857500  0.168800  0.121100  1
  H  H301  1  0.159800  0.775300  0.358700  1
  H  H302  1  0.340200  0.224700  0.858700  1
  H  H303  1  0.659800  0.724700  0.641300  1
  H  H304  1  0.840200  0.275300  0.141300  1
  H  H305  1  0.068300  0.779800  0.369400  1
  H  H306  1  0.431700  0.220200  0.869400  1
  H  H307  1  0.568300  0.720200  0.630600  1
  H  H308  1  0.931700  0.279800  0.130600  1
  H  H309  1  0.110400  0.838300  0.411500  1
  H  H310  1  0.389600  0.161700  0.911500  1
  H  H311  1  0.610400  0.661700  0.588500  1
  H  H312  1  0.889600  0.338300  0.088500  1
  H  H313  1  0.132500  0.881800  0.382700  1
  H  H314  1  0.367500  0.118200  0.882700  1
  H  H315  1  0.632500  0.618200  0.617300  1
  H  H316  1  0.867500  0.381800  0.117300  1
  H  H317  1  0.239600  0.877300  0.416800  1
  H  H318  1  0.260400  0.122700  0.916800  1
  H  H319  1  0.739600  0.622700  0.583200  1
  H  H320  1  0.760400  0.377300  0.083200  1
  H  H321  1  0.264300  0.848700  0.385300  1
  H  H322  1  0.235700  0.151300  0.885300  1
  H  H323  1  0.764300  0.651300  0.614700  1
  H  H324  1  0.735700  0.348700  0.114700  1
  H  H325  1  0.361400  0.802500  0.435000  1
  H  H326  1  0.138600  0.197500  0.935000  1
  H  H327  1  0.861400  0.697500  0.565000  1
  H  H328  1  0.638600  0.302500  0.065000  1
  H  H329  1  0.406000  0.695200  0.452900  1
  H  H330  1  0.094000  0.304800  0.952900  1
  H  H331  1  0.906000  0.804800  0.547100  1
  H  H332  1  0.594000  0.195200  0.047100  1
  H  H333  1  0.325200  0.594500  0.447700  1
  H  H334  1  0.174800  0.405500  0.947700  1
  H  H335  1  0.825200  0.905500  0.552300  1
  H  H336  1  0.674800  0.094500  0.052300  1
  H  H337  1  0.207300  0.603200  0.419700  1
  H  H338  1  0.292700  0.396800  0.919700  1
  H  H339  1  0.707300  0.896800  0.580300  1
  H  H340  1  0.792700  0.103200  0.080300  1
  H  H341  1  0.098500  0.529000  0.354800  1
  H  H342  1  0.401500  0.471000  0.854800  1
  H  H343  1  0.598500  0.971000  0.645200  1
  H  H344  1  0.901500  0.029000  0.145200  1
  H  H345  1  0.162900  0.548500  0.311100  1
  H  H346  1  0.337100  0.451500  0.811100  1
  H  H347  1  0.662900  0.951500  0.688900  1
  H  H348  1  0.837100  0.048500  0.188900  1
  H  H349  1  0.123100  0.640600  0.281300  1
  H  H350  1  0.376900  0.359400  0.781300  1
  H  H351  1  0.623100  0.859400  0.718700  1
  H  H352  1  0.876900  0.140600  0.218700  1
  H  H353  1  0.016900  0.713000  0.296200  1
  H  H354  1  0.483100  0.287000  0.796200  1
  H  H355  1  0.516900  0.787000  0.703800  1
  H  H356  1  0.983100  0.213000  0.203800  1
  H  H357  1  0.901600  0.734800  0.333000  1
  H  H358  1  0.598400  0.265200  0.833000  1
  H  H359  1  0.401600  0.765200  0.667000  1
  H  H360  1  0.098400  0.234800  0.167000  1
  H  H361  1  0.815200  0.710600  0.399600  1
  H  H362  1  0.684800  0.289400  0.899600  1
  H  H363  1  0.315200  0.789400  0.600400  1
  H  H364  1  0.184800  0.210600  0.100400  1
  H  H365  1  0.897900  0.808700  0.405900  1
  H  H366  1  0.602100  0.191300  0.905900  1
  H  H367  1  0.397900  0.691300  0.594100  1
  H  H368  1  0.102100  0.308700  0.094100  1
  H  H369  1  0.896200  0.828400  0.372100  1
  H  H370  1  0.603800  0.171600  0.872100  1
  H  H371  1  0.396200  0.671600  0.627900  1
  H  H372  1  0.103800  0.328400  0.127900  1
  H  H373  1  0.815000  0.906300  0.399600  1
  H  H374  1  0.685000  0.093700  0.899600  1
  H  H375  1  0.315000  0.593700  0.600400  1
  H  H376  1  0.185000  0.406300  0.100400  1
  H  H377  1  0.759900  0.840600  0.409200  1
  H  H378  1  0.740100  0.159400  0.909200  1
  H  H379  1  0.259900  0.659400  0.590800  1
  H  H380  1  0.240100  0.340600  0.090800  1
  H  H381  1  0.700100  0.893600  0.368200  1
  H  H382  1  0.799900  0.106400  0.868200  1
  H  H383  1  0.200100  0.606400  0.631800  1
  H  H384  1  0.299900  0.393600  0.131800  1
  H  H385  1  0.782700  0.888900  0.350600  1
  H  H386  1  0.717300  0.111100  0.850600  1
  H  H387  1  0.282700  0.611100  0.649400  1
  H  H388  1  0.217300  0.388900  0.149400  1
  H  H389  1  0.761300  0.624600  0.355200  1
  H  H390  1  0.738700  0.375400  0.855200  1
  H  H391  1  0.261300  0.875400  0.644800  1
  H  H392  1  0.238700  0.124600  0.144800  1
  H  H393  1  0.649900  0.622100  0.323000  1
  H  H394  1  0.850100  0.377900  0.823000  1
  H  H395  1  0.149900  0.877900  0.677000  1
  H  H396  1  0.350100  0.122100  0.177000  1
  H  H397  1  0.583200  0.729500  0.312900  1
  H  H398  1  0.916800  0.270500  0.812900  1
  H  H399  1  0.083200  0.770500  0.687100  1
  H  H400  1  0.416800  0.229500  0.187100  1
  H  H401  1  0.627600  0.833400  0.330500  1
  H  H402  1  0.872400  0.166600  0.830500  1
  H  H403  1  0.127600  0.666600  0.669500  1
  H  H404  1  0.372400  0.333400  0.169500  1
  H  H405  1  0.387400  0.348600  0.377200  1
  H  H406  1  0.112600  0.651400  0.877200  1
  H  H407  1  0.887400  0.151400  0.622800  1
  H  H408  1  0.612600  0.848600  0.122800  1
  H  H409  1  0.391000  0.424500  0.362000  1
  H  H410  1  0.109000  0.575500  0.862000  1
  H  H411  1  0.891000  0.075500  0.638000  1
  H  H412  1  0.609000  0.924500  0.138000  1
  H  H413  1  0.428900  0.341400  0.329400  1
  H  H414  1  0.071100  0.658600  0.829400  1
  H  H415  1  0.928900  0.158600  0.670600  1
  H  H416  1  0.571100  0.841400  0.170600  1
  H  H417  1  0.496100  0.311600  0.351000  1
  H  H418  1  0.003900  0.688400  0.851000  1
  H  H419  1  0.996100  0.188400  0.649000  1
  H  H420  1  0.503900  0.811600  0.149000  1
  H  H421  1  0.505900  0.388600  0.337000  1
  H  H422  1  0.994100  0.611400  0.837000  1
  H  H423  1  0.005900  0.111400  0.663000  1
  H  H424  1  0.494100  0.888600  0.163000  1
  H  H425  1  0.384400  0.397600  0.422500  1
  H  H426  1  0.115600  0.602400  0.922500  1
  H  H427  1  0.884400  0.102400  0.577500  1
  H  H428  1  0.615600  0.897600  0.077500  1
  H  H429  1  0.386100  0.475200  0.408900  1
  H  H430  1  0.113900  0.524800  0.908900  1
  H  H431  1  0.886100  0.024800  0.591100  1
  H  H432  1  0.613900  0.975200  0.091100  1
  H  H433  1  0.490100  0.507700  0.440200  1
  H  H434  1  0.009900  0.492300  0.940200  1
  H  H435  1  0.990100  0.992300  0.559800  1
  H  H436  1  0.509900  0.007700  0.059800  1
  H  H437  1  0.493800  0.429000  0.453000  1
  H  H438  1  0.006200  0.571000  0.953000  1
  H  H439  1  0.993800  0.071000  0.547000  1
  H  H440  1  0.506200  0.929000  0.047000  1
  H  H441  1  0.416400  0.477400  0.458800  1
  H  H442  1  0.083600  0.522600  0.958800  1
  H  H443  1  0.916400  0.022600  0.541200  1
  H  H444  1  0.583600  0.977400  0.041200  1
  H  H445  1  0.568900  0.451400  0.370100  1
  H  H446  1  0.931100  0.548600  0.870100  1
  H  H447  1  0.068900  0.048600  0.629900  1
  H  H448  1  0.431100  0.951400  0.129900  1
  H  H449  1  0.564900  0.484500  0.402000  1
  H  H450  1  0.935100  0.515500  0.902000  1
  H  H451  1  0.064900  0.015500  0.598000  1
  H  H452  1  0.435100  0.984500  0.098000  1
  H  H453  1  0.486000  0.534600  0.351300  1
  H  H454  1  0.014000  0.465400  0.851300  1
  H  H455  1  0.986000  0.965400  0.648700  1
  H  H456  1  0.514000  0.034600  0.148700  1
  H  H457  1  0.518800  0.580400  0.378000  1
  H  H458  1  0.981200  0.419600  0.878000  1
  H  H459  1  0.018800  0.919600  0.622000  1
  H  H460  1  0.481200  0.080400  0.122000  1
  H  H461  1  0.434000  0.540900  0.380400  1
  H  H462  1  0.066000  0.459100  0.880400  1
  H  H463  1  0.934000  0.959100  0.619600  1
  H  H464  1  0.566000  0.040900  0.119600  1
  H  H465  1  0.567500  0.375400  0.420600  1
  H  H466  1  0.932500  0.624600  0.920600  1
  H  H467  1  0.067500  0.124600  0.579400  1
  H  H468  1  0.432500  0.875400  0.079400  1
  H  H469  1  0.564400  0.336400  0.389800  1
  H  H470  1  0.935600  0.663600  0.889800  1
  H  H471  1  0.064400  0.163600  0.610200  1
  H  H472  1  0.435600  0.836400  0.110200  1
  H  H473  1  0.447000  0.273400  0.405600  1
  H  H474  1  0.053000  0.726600  0.905600  1
  H  H475  1  0.947000  0.226600  0.594400  1
  H  H476  1  0.553000  0.773400  0.094400  1
  H  H477  1  0.455900  0.309700  0.436900  1
  H  H478  1  0.044100  0.690300  0.936900  1
  H  H479  1  0.955900  0.190300  0.563100  1
  H  H480  1  0.544100  0.809700  0.063100  1
  H  H481  1  0.523300  0.256000  0.425500  1
  H  H482  1  0.976700  0.744000  0.925500  1
  H  H483  1  0.023300  0.244000  0.574500  1
  H  H484  1  0.476700  0.756000  0.074500  1
  H  H485  1  0.314500  0.572400  0.336000  1
  H  H486  1  0.185500  0.427600  0.836000  1
  H  H487  1  0.814500  0.927600  0.664000  1
  H  H488  1  0.685500  0.072400  0.164000  1
  H  H489  1  0.297200  0.651300  0.361400  1
  H  H490  1  0.202800  0.348700  0.861400  1
  H  H491  1  0.797200  0.848700  0.638600  1
  H  H492  1  0.702800  0.151300  0.138600  1
  H  H493  1  0.273100  0.692400  0.332500  1
  H  H494  1  0.226900  0.307600  0.832500  1
  H  H495  1  0.773100  0.807600  0.667500  1
  H  H496  1  0.726900  0.192400  0.167500  1
  H  H497  1  0.416400  0.724700  0.328700  1
  H  H498  1  0.083600  0.275300  0.828700  1
  H  H499  1  0.916400  0.775300  0.671300  1
  H  H500  1  0.583600  0.224700  0.171300  1
  H  H501  1  0.423700  0.698900  0.361700  1
  H  H502  1  0.076300  0.301100  0.861700  1
  H  H503  1  0.923700  0.801100  0.638300  1
  H  H504  1  0.576300  0.198900  0.138300  1
  H  H505  1  0.366000  0.763700  0.353600  1
  H  H506  1  0.134000  0.236300  0.853600  1
  H  H507  1  0.866000  0.736300  0.646400  1
  H  H508  1  0.634000  0.263700  0.146400  1
  H  H509  1  0.338800  0.613400  0.286200  1
  H  H510  1  0.161200  0.386600  0.786200  1
  H  H511  1  0.838800  0.886600  0.713800  1
  H  H512  1  0.661200  0.113400  0.213800  1
  H  H513  1  0.422000  0.624700  0.238800  1
  H  H514  1  0.078000  0.375300  0.738800  1
  H  H515  1  0.922000  0.875300  0.761200  1
  H  H516  1  0.578000  0.124700  0.261200  1
  H  H517  1  0.421800  0.551300  0.256000  1
  H  H518  1  0.078200  0.448700  0.756000  1
  H  H519  1  0.921800  0.948700  0.744000  1
  H  H520  1  0.578200  0.051300  0.244000  1
  H  H521  1  0.530900  0.638100  0.267100  1
  H  H522  1  0.969100  0.361900  0.767100  1
  H  H523  1  0.030900  0.861900  0.732900  1
  H  H524  1  0.469100  0.138100  0.232900  1
  H  H525  1  0.491800  0.596000  0.293700  1
  H  H526  1  0.008200  0.404000  0.793700  1
  H  H527  1  0.991800  0.904000  0.706300  1
  H  H528  1  0.508200  0.096000  0.206300  1
  H  H529  1  0.464500  0.675500  0.287000  1
  H  H530  1  0.035500  0.324500  0.787000  1
  H  H531  1  0.964500  0.824500  0.713000  1
  H  H532  1  0.535500  0.175500  0.213000  1
  H  H533  1  0.270700  0.479400  0.500400  1
  H  H534  1  0.229300  0.520600  0.000400  1
  H  H535  1  0.770700  0.020600  0.499600  1
  H  H536  1  0.729300  0.979400  0.999600  1
  H  H537  1  0.403000  0.527300  0.510700  1
  H  H538  1  0.097000  0.472700  0.010700  1
  H  H539  1  0.903000  0.972700  0.489300  1
  H  H540  1  0.597000  0.027300  0.989300  1
  H  H541  1  0.411100  0.557200  0.543000  1
  H  H542  1  0.088900  0.442800  0.043000  1
  H  H543  1  0.911100  0.942800  0.457000  1
  H  H544  1  0.588900  0.057200  0.957000  1
  H  H545  1  0.368200  0.603800  0.518500  1
  H  H546  1  0.131800  0.396200  0.018500  1
  H  H547  1  0.868200  0.896200  0.481500  1
  H  H548  1  0.631800  0.103800  0.981500  1
  H  H549  1  0.298800  0.506500  0.554100  1
  H  H550  1  0.201200  0.493500  0.054100  1
  H  H551  1  0.798800  0.993500  0.445900  1
  H  H552  1  0.701200  0.006500  0.945900  1
  H  H553  1  0.254500  0.559900  0.532700  1
  H  H554  1  0.245500  0.440100  0.032700  1
  H  H555  1  0.754500  0.940100  0.467300  1
  H  H556  1  0.745500  0.059900  0.967300  1
  H  H557  1  0.732700  0.482700  0.257500  1
  H  H558  1  0.767300  0.517300  0.757500  1
  H  H559  1  0.232700  0.017300  0.742500  1
  H  H560  1  0.267300  0.982700  0.242500  1
  H  H561  1  0.737900  0.429100  0.284300  1
  H  H562  1  0.762100  0.570900  0.784300  1
  H  H563  1  0.237900  0.070900  0.715700  1
  H  H564  1  0.262100  0.929100  0.215700  1
  H  H565  1  0.734500  0.512600  0.290000  1
  H  H566  1  0.765500  0.487400  0.790000  1
  H  H567  1  0.234500  0.987400  0.710000  1
  H  H568  1  0.265500  0.012600  0.210000  1
  H  H569  1  0.596000  0.490900  0.261100  1
  H  H570  1  0.904000  0.509100  0.761100  1
  H  H571  1  0.096000  0.009100  0.738900  1
  H  H572  1  0.404000  0.990900  0.238900  1
  H  H573  1  0.601300  0.422000  0.282100  1
  H  H574  1  0.898700  0.578000  0.782100  1
  H  H575  1  0.101300  0.078000  0.717900  1
  H  H576  1  0.398700  0.922000  0.217900  1
  H  H577  1  0.644800  0.494900  0.314300  1
  H  H578  1  0.855200  0.505100  0.814300  1
  H  H579  1  0.144800  0.005100  0.685700  1
  H  H580  1  0.355200  0.994900  0.185700  1
  H  H581  1  0.648800  0.562500  0.446400  1
  H  H582  1  0.851200  0.437500  0.946400  1
  H  H583  1  0.148800  0.937500  0.553600  1
  H  H584  1  0.351200  0.062500  0.053600  1
  H  H585  1  0.612200  0.605900  0.405000  1
  H  H586  1  0.887800  0.394100  0.905000  1
  H  H587  1  0.112200  0.894100  0.595000  1
  H  H588  1  0.387800  0.105900  0.095000  1
  H  H589  1  0.697300  0.639300  0.413600  1
  H  H590  1  0.802700  0.360700  0.913600  1
  H  H591  1  0.197300  0.860700  0.586400  1
  H  H592  1  0.302700  0.139300  0.086400  1
  H  H593  1  0.579000  0.712200  0.399400  1
  H  H594  1  0.921000  0.287800  0.899400  1
  H  H595  1  0.079000  0.787800  0.600600  1
  H  H596  1  0.421000  0.212200  0.100600  1
  H  H597  1  0.648700  0.740800  0.420300  1
  H  H598  1  0.851300  0.259200  0.920300  1
  H  H599  1  0.148700  0.759200  0.579700  1
  H  H600  1  0.351300  0.240800  0.079700  1
  H  H601  1  0.567000  0.711000  0.433900  1
  H  H602  1  0.933000  0.289000  0.933900  1
  H  H603  1  0.067000  0.789000  0.566100  1
  H  H604  1  0.433000  0.211000  0.066100  1
  H  H605  1  0.558300  0.634100  0.479200  1
  H  H606  1  0.941700  0.365900  0.979200  1
  H  H607  1  0.058300  0.865900  0.520800  1
  H  H608  1  0.441700  0.134100  0.020800  1
  H  H609  1  0.685700  0.558600  0.505400  1
  H  H610  1  0.814300  0.441400  0.005400  1
  H  H611  1  0.185700  0.941400  0.494600  1
  H  H612  1  0.314300  0.058600  0.994600  1
  H  H613  1  0.660200  0.546000  0.538500  1
  H  H614  1  0.839800  0.454000  0.038500  1
  H  H615  1  0.160200  0.954000  0.461500  1
  H  H616  1  0.339800  0.046000  0.961500  1
  H  H617  1  0.687700  0.622900  0.528000  1
  H  H618  1  0.812300  0.377100  0.028000  1
  H  H619  1  0.187700  0.877100  0.472000  1
  H  H620  1  0.312300  0.122900  0.972000  1
  H  H621  1  0.549900  0.553900  0.507000  1
  H  H622  1  0.950100  0.446100  0.007000  1
  H  H623  1  0.049900  0.946100  0.493000  1
  H  H624  1  0.450100  0.053900  0.993000  1
  H  H625  1  0.546900  0.608900  0.533200  1
  H  H626  1  0.953100  0.391100  0.033200  1
  H  H627  1  0.046900  0.891100  0.466800  1
  H  H628  1  0.453100  0.108900  0.966800  1
  H  H629  1  0.627400  0.181900  0.390600  1
  H  H630  1  0.872600  0.818100  0.890600  1
  H  H631  1  0.127400  0.318100  0.609400  1
  H  H632  1  0.372600  0.681900  0.109400  1
  H  H633  1  0.506600  0.113300  0.365000  1
  H  H634  1  0.993400  0.886700  0.865000  1
  H  H635  1  0.006600  0.386700  0.635000  1
  H  H636  1  0.493400  0.613300  0.135000  1
  H  H637  1  0.547900  0.186400  0.354600  1
  H  H638  1  0.952100  0.813600  0.854600  1
  H  H639  1  0.047900  0.313600  0.645400  1
  H  H640  1  0.452100  0.686400  0.145400  1
  H  H641  1  0.594000  0.086100  0.328900  1
  H  H642  1  0.906000  0.913900  0.828900  1
  H  H643  1  0.094000  0.413900  0.671100  1
  H  H644  1  0.406000  0.586100  0.171100  1
  H  H645  1  0.631800  0.058400  0.358800  1
  H  H646  1  0.868200  0.941600  0.858800  1
  H  H647  1  0.131800  0.441600  0.641200  1
  H  H648  1  0.368200  0.558400  0.141200  1
  H  H649  1  0.664000  0.130100  0.344500  1
  H  H650  1  0.836000  0.869900  0.844500  1
  H  H651  1  0.164000  0.369900  0.655500  1
  H  H652  1  0.336000  0.630100  0.155500  1
  H  H653  1  0.264000  0.175000  0.395200  1
  H  H654  1  0.236000  0.825000  0.895200  1
  H  H655  1  0.764000  0.325000  0.604800  1
  H  H656  1  0.736000  0.675000  0.104800  1
  H  H657  1  0.365200  0.107000  0.405200  1
  H  H658  1  0.134800  0.893000  0.905200  1
  H  H659  1  0.865200  0.393000  0.594800  1
  H  H660  1  0.634800  0.607000  0.094800  1
  H  H661  1  0.342100  0.110800  0.371500  1
  H  H662  1  0.157900  0.889200  0.871500  1
  H  H663  1  0.842100  0.389200  0.628500  1
  H  H664  1  0.657900  0.610800  0.128500  1
  H  H665  1  0.287400  0.004000  0.371600  1
  H  H666  1  0.212600  0.996000  0.871600  1
  H  H667  1  0.787400  0.496000  0.628400  1
  H  H668  1  0.712600  0.504000  0.128400  1
  H  H669  1  0.265900  0.007300  0.405500  1
  H  H670  1  0.234100  0.992700  0.905500  1
  H  H671  1  0.765900  0.492700  0.594500  1
  H  H672  1  0.734100  0.507300  0.094500  1
  H  H673  1  0.356400  0.992900  0.395400  1
  H  H674  1  0.143600  0.007100  0.895400  1
  H  H675  1  0.856400  0.507100  0.604600  1
  H  H676  1  0.643600  0.492900  0.104600  1
  H  H677  1  0.041500  0.412000  0.580300  1
  H  H678  1  0.458500  0.588000  0.080300  1
  H  H679  1  0.541500  0.088000  0.419700  1
  H  H680  1  0.958500  0.912000  0.919700  1
  H  H681  1  0.772500  0.544300  0.177000  1
  H  H682  1  0.727500  0.455700  0.677000  1
  H  H683  1  0.272500  0.955700  0.823000  1
  H  H684  1  0.227500  0.044300  0.323000  1
  H  H685  1  0.702400  0.521600  0.198800  1
  H  H686  1  0.797600  0.478400  0.698800  1
  H  H687  1  0.202400  0.978400  0.801200  1
  H  H688  1  0.297600  0.021600  0.301200  1
  H  H689  1  0.773700  0.467600  0.191700  1
  H  H690  1  0.726300  0.532400  0.691700  1
  H  H691  1  0.273700  0.032400  0.808300  1
  H  H692  1  0.226300  0.967600  0.308300  1
  C  C693  1  0.083800  0.217400  0.349960  1
  C  C694  1  0.416200  0.782600  0.849960  1
  C  C695  1  0.583800  0.282600  0.650040  1
  C  C696  1  0.916200  0.717400  0.150040  1
  C  C697  1  0.099300  0.145900  0.354120  1
  C  C698  1  0.400700  0.854100  0.854120  1
  C  C699  1  0.599300  0.354100  0.645880  1
  C  C700  1  0.900700  0.645900  0.145880  1
  C  C701  1  0.047100  0.096100  0.342800  1
  C  C702  1  0.452900  0.903900  0.842800  1
  C  C703  1  0.547100  0.403900  0.657200  1
  C  C704  1  0.952900  0.596100  0.157200  1
  C  C705  1  0.984600  0.118700  0.325800  1
  C  C706  1  0.515400  0.881300  0.825800  1
  C  C707  1  0.484600  0.381300  0.674200  1
  C  C708  1  0.015400  0.618700  0.174200  1
  C  C709  1  0.972900  0.189700  0.321980  1
  C  C710  1  0.527100  0.810300  0.821980  1
  C  C711  1  0.472900  0.310300  0.678020  1
  C  C712  1  0.027100  0.689700  0.178020  1
  C  C713  1  0.912000  0.220600  0.304040  1
  C  C714  1  0.588000  0.779400  0.804040  1
  C  C715  1  0.412000  0.279400  0.695960  1
  C  C716  1  0.088000  0.720600  0.195960  1
  C  C717  1  0.853400  0.319500  0.278530  1
  C  C718  1  0.646600  0.680500  0.778530  1
  C  C719  1  0.353400  0.180500  0.721470  1
  C  C720  1  0.146600  0.819500  0.221470  1
  C  C721  1  0.884100  0.300200  0.247600  1
  C  C722  1  0.615900  0.699800  0.747600  1
  C  C723  1  0.384100  0.199800  0.752400  1
  C  C724  1  0.115900  0.800200  0.252400  1
  C  C725  1  0.827000  0.324400  0.225100  1
  C  C726  1  0.673000  0.675600  0.725100  1
  C  C727  1  0.327000  0.175600  0.774900  1
  C  C728  1  0.173000  0.824400  0.274900  1
  C  C729  1  0.751400  0.282500  0.228900  1
  C  C730  1  0.748600  0.717500  0.728900  1
  C  C731  1  0.251400  0.217500  0.771100  1
  C  C732  1  0.248600  0.782500  0.271100  1
  C  C733  1  0.721300  0.280000  0.259200  1
  C  C734  1  0.778700  0.720000  0.759200  1
  C  C735  1  0.221300  0.220000  0.740800  1
  C  C736  1  0.278700  0.780000  0.240800  1
  C  C737  1  0.639500  0.264400  0.265900  1
  C  C738  1  0.860500  0.735600  0.765900  1
  C  C739  1  0.139500  0.235600  0.734100  1
  C  C740  1  0.360500  0.764400  0.234100  1
  C  C741  1  0.607000  0.266000  0.292600  1
  C  C742  1  0.893000  0.734000  0.792600  1
  C  C743  1  0.107000  0.234000  0.707400  1
  C  C744  1  0.393000  0.766000  0.207400  1
  C  C745  1  0.660800  0.270500  0.316900  1
  C  C746  1  0.839200  0.729500  0.816900  1
  C  C747  1  0.160800  0.229500  0.683100  1
  C  C748  1  0.339200  0.770500  0.183100  1
  C  C749  1  0.737500  0.287200  0.311800  1
  C  C750  1  0.762500  0.712800  0.811800  1
  C  C751  1  0.237500  0.212800  0.688200  1
  C  C752  1  0.262500  0.787200  0.188200  1
  C  C753  1  0.770100  0.293400  0.283400  1
  C  C754  1  0.729900  0.706600  0.783400  1
  C  C755  1  0.270100  0.206600  0.716600  1
  C  C756  1  0.229900  0.793400  0.216600  1
  C  C757  1  0.899600  0.468900  0.320800  1
  C  C758  1  0.600400  0.531100  0.820800  1
  C  C759  1  0.399600  0.031100  0.679200  1
  C  C760  1  0.100400  0.968900  0.179200  1
  C  C761  1  0.874300  0.528700  0.305850  1
  C  C762  1  0.625700  0.471300  0.805850  1
  C  C763  1  0.374300  0.971300  0.694150  1
  C  C764  1  0.125700  0.028700  0.194150  1
  C  C765  1  0.911400  0.546500  0.280050  1
  C  C766  1  0.588600  0.453500  0.780050  1
  C  C767  1  0.411400  0.953500  0.719950  1
  C  C768  1  0.088600  0.046500  0.219950  1
  C  C769  1  0.974300  0.506200  0.269840  1
  C  C770  1  0.525700  0.493800  0.769840  1
  C  C771  1  0.474300  0.993800  0.730160  1
  C  C772  1  0.025700  0.006200  0.230160  1
  C  C773  1  0.996100  0.445900  0.285390  1
  C  C774  1  0.503900  0.554100  0.785390  1
  C  C775  1  0.496100  0.054100  0.714610  1
  C  C776  1  0.003900  0.945900  0.214610  1
  C  C777  1  0.061400  0.400000  0.278150  1
  C  C778  1  0.438600  0.600000  0.778150  1
  C  C779  1  0.561400  0.100000  0.721850  1
  C  C780  1  0.938600  0.900000  0.221850  1
  C  C781  1  0.143300  0.298800  0.289800  1
  C  C782  1  0.356700  0.701200  0.789800  1
  C  C783  1  0.643300  0.201200  0.710200  1
  C  C784  1  0.856700  0.798800  0.210200  1
  C  C785  1  0.123400  0.233800  0.270800  1
  C  C786  1  0.376600  0.766200  0.770800  1
  C  C787  1  0.623400  0.266200  0.729200  1
  C  C788  1  0.876600  0.733800  0.229200  1
  C  C789  1  0.132100  0.251900  0.239900  1
  C  C790  1  0.367900  0.748100  0.739900  1
  C  C791  1  0.632100  0.248100  0.760100  1
  C  C792  1  0.867900  0.751900  0.260100  1
  C  C793  1  0.215800  0.276100  0.230700  1
  C  C794  1  0.284200  0.723900  0.730700  1
  C  C795  1  0.715800  0.223900  0.769300  1
  C  C796  1  0.784200  0.776100  0.269300  1
  C  C797  1  0.250800  0.329800  0.252300  1
  C  C798  1  0.249200  0.670200  0.752300  1
  C  C799  1  0.750800  0.170200  0.747700  1
  C  C800  1  0.749200  0.829800  0.247700  1
  C  C801  1  0.318600  0.366300  0.245700  1
  C  C802  1  0.181400  0.633700  0.745700  1
  C  C803  1  0.818600  0.133700  0.754300  1
  C  C804  1  0.681400  0.866300  0.254300  1
  C  C805  1  0.351300  0.414100  0.264900  1
  C  C806  1  0.148700  0.585900  0.764900  1
  C  C807  1  0.851300  0.085900  0.735100  1
  C  C808  1  0.648700  0.914100  0.235100  1
  C  C809  1  0.317200  0.424100  0.291000  1
  C  C810  1  0.182800  0.575900  0.791000  1
  C  C811  1  0.817200  0.075900  0.709000  1
  C  C812  1  0.682800  0.924100  0.209000  1
  C  C813  1  0.248300  0.387200  0.298590  1
  C  C814  1  0.251700  0.612800  0.798590  1
  C  C815  1  0.748300  0.112800  0.701410  1
  C  C816  1  0.751700  0.887200  0.201410  1
  C  C817  1  0.215300  0.339400  0.279520  1
  C  C818  1  0.284700  0.660600  0.779520  1
  C  C819  1  0.715300  0.160600  0.720480  1
  C  C820  1  0.784700  0.839400  0.220480  1
  C  C821  1  0.871200  0.307700  0.524130  1
  C  C822  1  0.628800  0.692300  0.024130  1
  C  C823  1  0.371200  0.192300  0.475870  1
  C  C824  1  0.128800  0.807700  0.975870  1
  C  C825  1  0.812500  0.277800  0.541230  1
  C  C826  1  0.687500  0.722200  0.041230  1
  C  C827  1  0.312500  0.222200  0.458770  1
  C  C828  1  0.187500  0.777800  0.958770  1
  C  C829  1  0.782900  0.212900  0.533800  1
  C  C830  1  0.717100  0.787100  0.033800  1
  C  C831  1  0.282900  0.287100  0.466200  1
  C  C832  1  0.217100  0.712900  0.966200  1
  C  C833  1  0.812200  0.179000  0.509400  1
  C  C834  1  0.687800  0.821000  0.009400  1
  C  C835  1  0.312200  0.321000  0.490600  1
  C  C836  1  0.187800  0.679000  0.990600  1
  C  C837  1  0.869900  0.213000  0.493410  1
  C  C838  1  0.630100  0.787000  0.993410  1
  C  C839  1  0.369900  0.287000  0.506590  1
  C  C840  1  0.130100  0.713000  0.006590  1
  C  C841  1  0.906600  0.183900  0.467340  1
  C  C842  1  0.593400  0.816100  0.967340  1
  C  C843  1  0.406600  0.316100  0.532660  1
  C  C844  1  0.093400  0.683900  0.032660  1
  C  C845  1  0.999000  0.198200  0.427240  1
  C  C846  1  0.501000  0.801800  0.927240  1
  C  C847  1  0.499000  0.301800  0.572760  1
  C  C848  1  0.001000  0.698200  0.072760  1
  C  C849  1  0.085300  0.171400  0.433090  1
  C  C850  1  0.414700  0.828600  0.933090  1
  C  C851  1  0.585300  0.328600  0.566910  1
  C  C852  1  0.914700  0.671400  0.066910  1
  C  C853  1  0.083300  0.094500  0.443400  1
  C  C854  1  0.416700  0.905500  0.943400  1
  C  C855  1  0.583300  0.405500  0.556600  1
  C  C856  1  0.916700  0.594500  0.056600  1
  C  C857  1  0.050200  0.048100  0.420900  1
  C  C858  1  0.449800  0.951900  0.920900  1
  C  C859  1  0.550200  0.451900  0.579100  1
  C  C860  1  0.949800  0.548100  0.079100  1
  C  C861  1  0.972900  0.074200  0.407900  1
  C  C862  1  0.527100  0.925800  0.907900  1
  C  C863  1  0.472900  0.425800  0.592100  1
  C  C864  1  0.027100  0.574200  0.092100  1
  C  C865  1  0.922700  0.029800  0.392800  1
  C  C866  1  0.577300  0.970200  0.892800  1
  C  C867  1  0.422700  0.470200  0.607200  1
  C  C868  1  0.077300  0.529800  0.107200  1
  C  C869  1  0.851600  0.052900  0.380500  1
  C  C870  1  0.648400  0.947100  0.880500  1
  C  C871  1  0.351600  0.447100  0.619500  1
  C  C872  1  0.148400  0.552900  0.119500  1
  C  C873  1  0.830600  0.124400  0.381800  1
  C  C874  1  0.669400  0.875600  0.881800  1
  C  C875  1  0.330600  0.375600  0.618200  1
  C  C876  1  0.169400  0.624400  0.118200  1
  C  C877  1  0.878300  0.168600  0.397600  1
  C  C878  1  0.621700  0.831400  0.897600  1
  C  C879  1  0.378300  0.331400  0.602400  1
  C  C880  1  0.121700  0.668600  0.102400  1
  C  C881  1  0.950400  0.145600  0.411040  1
  C  C882  1  0.549600  0.854400  0.911040  1
  C  C883  1  0.450400  0.354400  0.588960  1
  C  C884  1  0.049600  0.645600  0.088960  1
  C  C885  1  0.085800  0.212800  0.505030  1
  C  C886  1  0.414200  0.787200  0.005030  1
  C  C887  1  0.585800  0.287200  0.494970  1
  C  C888  1  0.914200  0.712800  0.994970  1
  C  C889  1  0.149500  0.200500  0.525380  1
  C  C890  1  0.350500  0.799500  0.025380  1
  C  C891  1  0.649500  0.299500  0.474620  1
  C  C892  1  0.850500  0.700500  0.974620  1
  C  C893  1  0.184600  0.256000  0.540600  1
  C  C894  1  0.315400  0.744000  0.040600  1
  C  C895  1  0.684600  0.244000  0.459400  1
  C  C896  1  0.815400  0.756000  0.959400  1
  C  C897  1  0.153600  0.322500  0.535330  1
  C  C898  1  0.346400  0.677500  0.035330  1
  C  C899  1  0.653600  0.177500  0.464670  1
  C  C900  1  0.846400  0.822500  0.964670  1
  C  C901  1  0.093700  0.334300  0.515950  1
  C  C902  1  0.406300  0.665700  0.015950  1
  C  C903  1  0.593700  0.165700  0.484050  1
  C  C904  1  0.906300  0.834300  0.984050  1
  C  C905  1  0.057300  0.401200  0.509910  1
  C  C906  1  0.442700  0.598800  0.009910  1
  C  C907  1  0.557300  0.098800  0.490090  1
  C  C908  1  0.942700  0.901200  0.990090  1
  C  C909  1  0.959500  0.471400  0.482380  1
  C  C910  1  0.540500  0.528600  0.982380  1
  C  C911  1  0.459500  0.028600  0.517620  1
  C  C912  1  0.040500  0.971400  0.017620  1
  C  C913  1  0.871900  0.471700  0.491730  1
  C  C914  1  0.628100  0.528300  0.991730  1
  C  C915  1  0.371900  0.028300  0.508270  1
  C  C916  1  0.128100  0.971700  0.008270  1
  C  C917  1  0.863900  0.490800  0.523510  1
  C  C918  1  0.636100  0.509200  0.023510  1
  C  C919  1  0.363900  0.009200  0.476490  1
  C  C920  1  0.136100  0.990800  0.976490  1
  C  C921  1  0.892800  0.567100  0.528460  1
  C  C922  1  0.607200  0.432900  0.028460  1
  C  C923  1  0.392800  0.932900  0.471540  1
  C  C924  1  0.107200  0.067100  0.971540  1
  C  C925  1  0.974800  0.579900  0.515100  1
  C  C926  1  0.525200  0.420100  0.015100  1
  C  C927  1  0.474800  0.920100  0.484900  1
  C  C928  1  0.025200  0.079900  0.984900  1
  C  C929  1  0.020800  0.638000  0.523530  1
  C  C930  1  0.479200  0.362000  0.023530  1
  C  C931  1  0.520800  0.862000  0.476470  1
  C  C932  1  0.979200  0.138000  0.976470  1
  C  C933  1  0.093400  0.652500  0.511620  1
  C  C934  1  0.406600  0.347500  0.011620  1
  C  C935  1  0.593400  0.847500  0.488380  1
  C  C936  1  0.906600  0.152500  0.988380  1
  C  C937  1  0.124700  0.609100  0.490120  1
  C  C938  1  0.375300  0.390900  0.990120  1
  C  C939  1  0.624700  0.890900  0.509880  1
  C  C940  1  0.875300  0.109100  0.009880  1
  C  C941  1  0.081400  0.550800  0.481440  1
  C  C942  1  0.418600  0.449200  0.981440  1
  C  C943  1  0.581400  0.949200  0.518560  1
  C  C944  1  0.918600  0.050800  0.018560  1
  C  C945  1  0.006200  0.535100  0.493010  1
  C  C946  1  0.493800  0.464900  0.993010  1
  C  C947  1  0.506200  0.964900  0.506990  1
  C  C948  1  0.993800  0.035100  0.006990  1
  C  C949  1  0.851400  0.639100  0.445860  1
  C  C950  1  0.648600  0.360900  0.945860  1
  C  C951  1  0.351400  0.860900  0.554140  1
  C  C952  1  0.148600  0.139100  0.054140  1
  C  C953  1  0.820300  0.677300  0.468920  1
  C  C954  1  0.679700  0.322700  0.968920  1
  C  C955  1  0.320300  0.822700  0.531080  1
  C  C956  1  0.179700  0.177300  0.031080  1
  C  C957  1  0.863200  0.728300  0.482200  1
  C  C958  1  0.636800  0.271700  0.982200  1
  C  C959  1  0.363200  0.771700  0.517800  1
  C  C960  1  0.136800  0.228300  0.017800  1
  C  C961  1  0.943100  0.740000  0.472440  1
  C  C962  1  0.556900  0.260000  0.972440  1
  C  C963  1  0.443100  0.760000  0.527560  1
  C  C964  1  0.056900  0.240000  0.027560  1
  C  C965  1  0.970000  0.701700  0.449040  1
  C  C966  1  0.530000  0.298300  0.949040  1
  C  C967  1  0.470000  0.798300  0.550960  1
  C  C968  1  0.030000  0.201700  0.050960  1
  C  C969  1  0.047500  0.715400  0.435490  1
  C  C970  1  0.452500  0.284600  0.935490  1
  C  C971  1  0.547500  0.784600  0.564510  1
  C  C972  1  0.952500  0.215400  0.064510  1
  C  C973  1  0.135900  0.707600  0.393440  1
  C  C974  1  0.364100  0.292400  0.893440  1
  C  C975  1  0.635900  0.792400  0.606560  1
  C  C976  1  0.864100  0.207600  0.106560  1
  C  C977  1  0.124700  0.776300  0.376000  1
  C  C978  1  0.375300  0.223700  0.876000  1
  C  C979  1  0.624700  0.723700  0.624000  1
  C  C980  1  0.875300  0.276300  0.124000  1
  C  C981  1  0.144500  0.838300  0.393800  1
  C  C982  1  0.355500  0.161700  0.893800  1
  C  C983  1  0.644500  0.661700  0.606200  1
  C  C984  1  0.855500  0.338300  0.106200  1
  C  C985  1  0.230700  0.838800  0.402600  1
  C  C986  1  0.269300  0.161200  0.902600  1
  C  C987  1  0.730700  0.661200  0.597400  1
  C  C988  1  0.769300  0.338800  0.097400  1
  C  C989  1  0.256600  0.769500  0.415900  1
  C  C990  1  0.243400  0.230500  0.915900  1
  C  C991  1  0.756600  0.730500  0.584100  1
  C  C992  1  0.743400  0.269500  0.084100  1
  C  C993  1  0.329400  0.761700  0.431800  1
  C  C994  1  0.170600  0.238300  0.931800  1
  C  C995  1  0.829400  0.738300  0.568200  1
  C  C996  1  0.670600  0.261700  0.068200  1
  C  C997  1  0.356100  0.697800  0.442900  1
  C  C998  1  0.143900  0.302200  0.942900  1
  C  C999  1  0.856100  0.802200  0.557100  1
  C  C1000  1  0.643900  0.197800  0.057100  1
  C  C1001  1  0.309700  0.638400  0.439400  1
  C  C1002  1  0.190300  0.361600  0.939400  1
  C  C1003  1  0.809700  0.861600  0.560600  1
  C  C1004  1  0.690300  0.138400  0.060600  1
  C  C1005  1  0.238400  0.644500  0.423100  1
  C  C1006  1  0.261600  0.355500  0.923100  1
  C  C1007  1  0.738400  0.855500  0.576900  1
  C  C1008  1  0.761600  0.144500  0.076900  1
  C  C1009  1  0.211900  0.707900  0.411950  1
  C  C1010  1  0.288100  0.292100  0.911950  1
  C  C1011  1  0.711900  0.792100  0.588050  1
  C  C1012  1  0.788100  0.207900  0.088050  1
  C  C1013  1  0.081700  0.567300  0.342830  1
  C  C1014  1  0.418300  0.432700  0.842830  1
  C  C1015  1  0.581700  0.932700  0.657170  1
  C  C1016  1  0.918300  0.067300  0.157170  1
  C  C1017  1  0.120000  0.578600  0.316850  1
  C  C1018  1  0.380000  0.421400  0.816850  1
  C  C1019  1  0.620000  0.921400  0.683150  1
  C  C1020  1  0.880000  0.078600  0.183150  1
  C  C1021  1  0.096800  0.632400  0.299310  1
  C  C1022  1  0.403200  0.367600  0.799310  1
  C  C1023  1  0.596800  0.867600  0.700690  1
  C  C1024  1  0.903200  0.132400  0.200690  1
  C  C1025  1  0.034300  0.674900  0.308120  1
  C  C1026  1  0.465700  0.325100  0.808120  1
  C  C1027  1  0.534300  0.825100  0.691880  1
  C  C1028  1  0.965700  0.174900  0.191880  1
  C  C1029  1  0.996800  0.661600  0.334660  1
  C  C1030  1  0.503200  0.338400  0.834660  1
  C  C1031  1  0.496800  0.838400  0.665340  1
  C  C1032  1  0.003200  0.161600  0.165340  1
  C  C1033  1  0.927800  0.701600  0.345200  1
  C  C1034  1  0.572200  0.298400  0.845200  1
  C  C1035  1  0.427800  0.798400  0.654800  1
  C  C1036  1  0.072200  0.201600  0.154800  1
  C  C1037  1  0.833800  0.732500  0.380970  1
  C  C1038  1  0.666200  0.267500  0.880970  1
  C  C1039  1  0.333800  0.767500  0.619030  1
  C  C1040  1  0.166200  0.232500  0.119030  1
  C  C1041  1  0.863400  0.810200  0.388400  1
  C  C1042  1  0.636600  0.189800  0.888400  1
  C  C1043  1  0.363400  0.689800  0.611600  1
  C  C1044  1  0.136600  0.310200  0.111600  1
  C  C1045  1  0.795000  0.859200  0.393700  1
  C  C1046  1  0.705000  0.140800  0.893700  1
  C  C1047  1  0.295000  0.640800  0.606300  1
  C  C1048  1  0.205000  0.359200  0.106300  1
  C  C1049  1  0.748700  0.864400  0.365060  1
  C  C1050  1  0.751300  0.135600  0.865060  1
  C  C1051  1  0.248700  0.635600  0.634940  1
  C  C1052  1  0.251300  0.364400  0.134940  1
  C  C1053  1  0.724100  0.794300  0.353090  1
  C  C1054  1  0.775900  0.205700  0.853090  1
  C  C1055  1  0.224100  0.705700  0.646910  1
  C  C1056  1  0.275900  0.294300  0.146910  1
  C  C1057  1  0.762400  0.732600  0.360250  1
  C  C1058  1  0.737600  0.267400  0.860250  1
  C  C1059  1  0.262400  0.767400  0.639750  1
  C  C1060  1  0.237600  0.232600  0.139750  1
  C  C1061  1  0.735000  0.667200  0.349800  1
  C  C1062  1  0.765000  0.332800  0.849800  1
  C  C1063  1  0.235000  0.832800  0.650200  1
  C  C1064  1  0.265000  0.167200  0.150200  1
  C  C1065  1  0.668300  0.665300  0.331100  1
  C  C1066  1  0.831700  0.334700  0.831100  1
  C  C1067  1  0.168300  0.834700  0.668900  1
  C  C1068  1  0.331700  0.165300  0.168900  1
  C  C1069  1  0.629600  0.729900  0.324900  1
  C  C1070  1  0.870400  0.270100  0.824900  1
  C  C1071  1  0.129600  0.770100  0.675100  1
  C  C1072  1  0.370400  0.229900  0.175100  1
  C  C1073  1  0.655600  0.791100  0.335200  1
  C  C1074  1  0.844400  0.208900  0.835200  1
  C  C1075  1  0.155600  0.708900  0.664800  1
  C  C1076  1  0.344400  0.291100  0.164800  1
  C  C1077  1  0.851400  0.483400  0.395390  1
  C  C1078  1  0.648600  0.516600  0.895390  1
  C  C1079  1  0.351400  0.016600  0.604610  1
  C  C1080  1  0.148600  0.983400  0.104610  1
  C  C1081  1  0.869600  0.357700  0.371370  1
  C  C1082  1  0.630400  0.642300  0.871370  1
  C  C1083  1  0.369600  0.142300  0.628630  1
  C  C1084  1  0.130400  0.857700  0.128630  1
  C  C1085  1  0.858400  0.363500  0.428400  1
  C  C1086  1  0.641600  0.636500  0.928400  1
  C  C1087  1  0.358400  0.136500  0.571600  1
  C  C1088  1  0.141600  0.863500  0.071600  1
  C  C1089  1  0.731300  0.312300  0.394440  1
  C  C1090  1  0.768700  0.687700  0.894440  1
  C  C1091  1  0.231300  0.187700  0.605560  1
  C  C1092  1  0.268700  0.812300  0.105560  1
  C  C1093  1  0.723100  0.439000  0.424760  1
  C  C1094  1  0.776900  0.561000  0.924760  1
  C  C1095  1  0.223100  0.061000  0.575240  1
  C  C1096  1  0.276900  0.939000  0.075240  1
  C  C1097  1  0.734700  0.435300  0.364820  1
  C  C1098  1  0.765300  0.564700  0.864820  1
  C  C1099  1  0.234700  0.064700  0.635180  1
  C  C1100  1  0.265300  0.935300  0.135180  1
  C  C1101  1  0.099300  0.367300  0.429200  1
  C  C1102  1  0.400700  0.632700  0.929200  1
  C  C1103  1  0.599300  0.132700  0.570800  1
  C  C1104  1  0.900700  0.867300  0.070800  1
  C  C1105  1  0.102600  0.389900  0.371070  1
  C  C1106  1  0.397400  0.610100  0.871070  1
  C  C1107  1  0.602600  0.110100  0.628930  1
  C  C1108  1  0.897400  0.889900  0.128930  1
  C  C1109  1  0.097200  0.495000  0.407680  1
  C  C1110  1  0.402800  0.505000  0.907680  1
  C  C1111  1  0.597200  0.005000  0.592320  1
  C  C1112  1  0.902800  0.995000  0.092320  1
  C  C1113  1  0.229600  0.332800  0.396570  1
  C  C1114  1  0.270400  0.667200  0.896570  1
  C  C1115  1  0.729600  0.167200  0.603430  1
  C  C1116  1  0.770400  0.832800  0.103430  1
  C  C1117  1  0.226000  0.446700  0.436290  1
  C  C1118  1  0.274000  0.553300  0.936290  1
  C  C1119  1  0.726000  0.053300  0.563710  1
  C  C1120  1  0.774000  0.946700  0.063710  1
  C  C1121  1  0.233900  0.471900  0.377680  1
  C  C1122  1  0.266100  0.528100  0.877680  1
  C  C1123  1  0.733900  0.028100  0.622320  1
  C  C1124  1  0.766100  0.971900  0.122320  1
  C  C1125  1  0.424400  0.384900  0.369300  1
  C  C1126  1  0.075600  0.615100  0.869300  1
  C  C1127  1  0.924400  0.115100  0.630700  1
  C  C1128  1  0.575600  0.884900  0.130700  1
  C  C1129  1  0.467400  0.354100  0.344600  1
  C  C1130  1  0.032600  0.645900  0.844600  1
  C  C1131  1  0.967400  0.145900  0.655400  1
  C  C1132  1  0.532600  0.854100  0.155400  1
  C  C1133  1  0.420200  0.437400  0.417200  1
  C  C1134  1  0.079800  0.562600  0.917200  1
  C  C1135  1  0.920200  0.062600  0.582800  1
  C  C1136  1  0.579800  0.937400  0.082800  1
  C  C1137  1  0.458500  0.465300  0.444700  1
  C  C1138  1  0.041500  0.534700  0.944700  1
  C  C1139  1  0.958500  0.034700  0.555300  1
  C  C1140  1  0.541500  0.965300  0.055300  1
  C  C1141  1  0.532000  0.470200  0.385100  1
  C  C1142  1  0.968000  0.529800  0.885100  1
  C  C1143  1  0.032000  0.029800  0.614900  1
  C  C1144  1  0.468000  0.970200  0.114900  1
  C  C1145  1  0.488600  0.537900  0.372500  1
  C  C1146  1  0.011400  0.462100  0.872500  1
  C  C1147  1  0.988600  0.962100  0.627500  1
  C  C1148  1  0.511400  0.037900  0.127500  1
  C  C1149  1  0.530900  0.354700  0.405900  1
  C  C1150  1  0.969100  0.645300  0.905900  1
  C  C1151  1  0.030900  0.145300  0.594100  1
  C  C1152  1  0.469100  0.854700  0.094100  1
  C  C1153  1  0.485200  0.292800  0.419700  1
  C  C1154  1  0.014800  0.707200  0.919700  1
  C  C1155  1  0.985200  0.207200  0.580300  1
  C  C1156  1  0.514800  0.792800  0.080300  1
  C  C1157  1  0.247700  0.530100  0.204600  1
  C  C1158  1  0.252300  0.469900  0.704600  1
  C  C1159  1  0.747700  0.969900  0.795400  1
  C  C1160  1  0.752300  0.030100  0.295400  1
  C  C1161  1  0.197800  0.541200  0.231600  1
  C  C1162  1  0.302200  0.458800  0.731600  1
  C  C1163  1  0.697800  0.958800  0.768400  1
  C  C1164  1  0.802200  0.041200  0.268400  1
  C  C1165  1  0.317200  0.666300  0.342100  1
  C  C1166  1  0.182800  0.333700  0.842100  1
  C  C1167  1  0.817200  0.833700  0.657900  1
  C  C1168  1  0.682800  0.166300  0.157900  1
  C  C1169  1  0.387200  0.718100  0.347000  1
  C  C1170  1  0.112800  0.281900  0.847000  1
  C  C1171  1  0.887200  0.781900  0.653000  1
  C  C1172  1  0.612800  0.218100  0.153000  1
  C  C1173  1  0.415300  0.603000  0.258200  1
  C  C1174  1  0.084700  0.397000  0.758200  1
  C  C1175  1  0.915300  0.897000  0.741800  1
  C  C1176  1  0.584700  0.103000  0.241800  1
  C  C1177  1  0.481600  0.630700  0.278300  1
  C  C1178  1  0.018400  0.369300  0.778300  1
  C  C1179  1  0.981600  0.869300  0.721700  1
  C  C1180  1  0.518400  0.130700  0.221700  1
  C  C1181  1  0.376800  0.555600  0.525800  1
  C  C1182  1  0.123200  0.444400  0.025800  1
  C  C1183  1  0.876800  0.944400  0.474200  1
  C  C1184  1  0.623200  0.055600  0.974200  1
  C  C1185  1  0.295800  0.522300  0.533600  1
  C  C1186  1  0.204200  0.477700  0.033600  1
  C  C1187  1  0.795800  0.977700  0.466400  1
  C  C1188  1  0.704200  0.022300  0.966400  1
  C  C1189  1  0.715500  0.474100  0.277500  1
  C  C1190  1  0.784500  0.525900  0.777500  1
  C  C1191  1  0.215500  0.025900  0.722500  1
  C  C1192  1  0.284500  0.974100  0.222500  1
  C  C1193  1  0.621500  0.470600  0.278700  1
  C  C1194  1  0.878500  0.529400  0.778700  1
  C  C1195  1  0.121500  0.029400  0.721300  1
  C  C1196  1  0.378500  0.970600  0.221300  1
  C  C1197  1  0.640000  0.636600  0.419300  1
  C  C1198  1  0.860000  0.363400  0.919300  1
  C  C1199  1  0.140000  0.863400  0.580700  1
  C  C1200  1  0.360000  0.136600  0.080700  1
  C  C1201  1  0.606000  0.705500  0.418100  1
  C  C1202  1  0.894000  0.294500  0.918100  1
  C  C1203  1  0.106000  0.794500  0.581900  1
  C  C1204  1  0.394000  0.205500  0.081900  1
  C  C1205  1  0.659300  0.579600  0.522400  1
  C  C1206  1  0.840700  0.420400  0.022400  1
  C  C1207  1  0.159300  0.920400  0.477600  1
  C  C1208  1  0.340700  0.079600  0.977600  1
  C  C1209  1  0.575500  0.596900  0.515100  1
  C  C1210  1  0.924500  0.403100  0.015100  1
  C  C1211  1  0.075500  0.903100  0.484900  1
  C  C1212  1  0.424500  0.096900  0.984900  1
  C  C1213  1  0.557900  0.139500  0.363400  1
  C  C1214  1  0.942100  0.860500  0.863400  1
  C  C1215  1  0.057900  0.360500  0.636600  1
  C  C1216  1  0.442100  0.639500  0.136600  1
  C  C1217  1  0.616500  0.100500  0.347700  1
  C  C1218  1  0.883500  0.899500  0.847700  1
  C  C1219  1  0.116500  0.399500  0.652300  1
  C  C1220  1  0.383500  0.600500  0.152300  1
  C  C1221  1  0.322700  0.096000  0.390900  1
  C  C1222  1  0.177300  0.904000  0.890900  1
  C  C1223  1  0.822700  0.404000  0.609100  1
  C  C1224  1  0.677300  0.596000  0.109100  1
  C  C1225  1  0.306700  0.018400  0.390800  1
  C  C1226  1  0.193300  0.981600  0.890800  1
  C  C1227  1  0.806700  0.481600  0.609200  1
  C  C1228  1  0.693300  0.518400  0.109200  1
  C  C1229  1  0.091100  0.490200  0.578100  1
  C  C1230  1  0.408900  0.509800  0.078100  1
  C  C1231  1  0.591100  0.009800  0.421900  1
  C  C1232  1  0.908900  0.990200  0.921900  1
  C  C1233  1  0.043000  0.543300  0.595400  1
  C  C1234  1  0.457000  0.456700  0.095400  1
  C  C1235  1  0.543000  0.956700  0.404600  1
  C  C1236  1  0.957000  0.043300  0.904600  1
  C  C1237  1  0.759900  0.517500  0.194600  1
  C  C1238  1  0.740100  0.482500  0.694600  1
  C  C1239  1  0.259900  0.982500  0.805400  1
  C  C1240  1  0.240100  0.017500  0.305400  1
  C  C1241  1  0.804400  0.545000  0.217900  1
  C  C1242  1  0.695600  0.455000  0.717900  1
  C  C1243  1  0.304400  0.955000  0.782100  1
  C  C1244  1  0.195600  0.045000  0.282100  1
  C  C1245  1  0.620000  0.686300  0.208100  1
  C  C1246  1  0.880000  0.313700  0.708100  1
  C  C1247  1  0.120000  0.813700  0.791900  1
  C  C1248  1  0.380000  0.186300  0.291900  1
  C  C1249  1  0.664000  0.702800  0.180500  1
  C  C1250  1  0.836000  0.297200  0.680500  1
  C  C1251  1  0.164000  0.797200  0.819500  1
  C  C1252  1  0.336000  0.202800  0.319500  1
  C  C1253  1  0.538000  0.442000  0.180300  1
  C  C1254  1  0.962000  0.558000  0.680300  1
  C  C1255  1  0.038000  0.058000  0.819700  1
  C  C1256  1  0.462000  0.942000  0.319700  1
  C  C1257  1  0.548000  0.377000  0.198300  1
  C  C1258  1  0.952000  0.623000  0.698300  1
  C  C1259  1  0.048000  0.123000  0.801700  1
  C  C1260  1  0.452000  0.877000  0.301700  1
  N  N1261  1  0.021200  0.238900  0.334150  1
  N  N1262  1  0.478800  0.761100  0.834150  1
  N  N1263  1  0.521200  0.261100  0.665850  1
  N  N1264  1  0.978800  0.738900  0.165850  1
  N  N1265  1  0.913000  0.287500  0.299880  1
  N  N1266  1  0.587000  0.712500  0.799880  1
  N  N1267  1  0.413000  0.212500  0.700120  1
  N  N1268  1  0.087000  0.787500  0.200120  1
  N  N1269  1  0.071100  0.345200  0.293160  1
  N  N1270  1  0.428900  0.654800  0.793160  1
  N  N1271  1  0.571100  0.154800  0.706840  1
  N  N1272  1  0.928900  0.845200  0.206840  1
  N  N1273  1  0.958400  0.427400  0.310320  1
  N  N1274  1  0.541600  0.572600  0.810320  1
  N  N1275  1  0.458400  0.072600  0.689680  1
  N  N1276  1  0.041600  0.927400  0.189680  1
  N  N1277  1  0.067100  0.374400  0.350300  1
  N  N1278  1  0.432900  0.625600  0.850300  1
  N  N1279  1  0.567100  0.125600  0.649700  1
  N  N1280  1  0.932900  0.874400  0.149700  1
  N  N1281  1  0.914800  0.335400  0.354140  1
  N  N1282  1  0.585200  0.664600  0.854140  1
  N  N1283  1  0.414800  0.164600  0.645860  1
  N  N1284  1  0.085200  0.835400  0.145860  1
  N  N1285  1  0.960400  0.219700  0.455030  1
  N  N1286  1  0.539600  0.780300  0.955030  1
  N  N1287  1  0.460400  0.280300  0.544970  1
  N  N1288  1  0.039600  0.719700  0.044970  1
  N  N1289  1  0.898600  0.277000  0.500120  1
  N  N1290  1  0.601400  0.723000  0.000120  1
  N  N1291  1  0.398600  0.223000  0.499880  1
  N  N1292  1  0.101400  0.777000  0.999880  1
  N  N1293  1  0.061200  0.279800  0.500880  1
  N  N1294  1  0.438800  0.720200  0.000880  1
  N  N1295  1  0.561200  0.220200  0.499120  1
  N  N1296  1  0.938800  0.779800  0.999120  1
  N  N1297  1  0.998800  0.402800  0.491250  1
  N  N1298  1  0.501200  0.597200  0.991250  1
  N  N1299  1  0.498800  0.097200  0.508750  1
  N  N1300  1  0.001200  0.902800  0.008750  1
  N  N1301  1  0.058600  0.337900  0.446070  1
  N  N1302  1  0.441400  0.662100  0.946070  1
  N  N1303  1  0.558600  0.162100  0.553930  1
  N  N1304  1  0.941400  0.837900  0.053930  1
  N  N1305  1  0.898800  0.344600  0.447550  1
  N  N1306  1  0.601200  0.655400  0.947550  1
  N  N1307  1  0.398800  0.155400  0.552450  1
  N  N1308  1  0.101200  0.844600  0.052450  1
  N  N1309  1  0.923700  0.652300  0.435770  1
  N  N1310  1  0.576300  0.347700  0.935770  1
  N  N1311  1  0.423700  0.847700  0.564230  1
  N  N1312  1  0.076300  0.152300  0.064230  1
  N  N1313  1  0.060300  0.693300  0.408980  1
  N  N1314  1  0.439700  0.306700  0.908980  1
  N  N1315  1  0.560300  0.806700  0.591020  1
  N  N1316  1  0.939700  0.193300  0.091020  1
  N  N1317  1  0.903400  0.691500  0.370910  1
  N  N1318  1  0.596600  0.308500  0.870910  1
  N  N1319  1  0.403400  0.808500  0.629090  1
  N  N1320  1  0.096600  0.191500  0.129090  1
  N  N1321  1  0.020700  0.609100  0.351910  1
  N  N1322  1  0.479300  0.390900  0.851910  1
  N  N1323  1  0.520700  0.890900  0.648090  1
  N  N1324  1  0.979300  0.109100  0.148090  1
  N  N1325  1  0.884300  0.537800  0.392520  1
  N  N1326  1  0.615700  0.462200  0.892520  1
  N  N1327  1  0.384300  0.962200  0.607480  1
  N  N1328  1  0.115700  0.037800  0.107480  1
  N  N1329  1  0.053000  0.542600  0.409660  1
  N  N1330  1  0.447000  0.457400  0.909660  1
  N  N1331  1  0.553000  0.957400  0.590340  1
  N  N1332  1  0.947000  0.042600  0.090340  1
  N  N1333  1  0.702700  0.460500  0.345050  1
  N  N1334  1  0.797300  0.539500  0.845050  1
  N  N1335  1  0.202700  0.039500  0.654950  1
  N  N1336  1  0.297300  0.960500  0.154950  1
  N  N1337  1  0.693100  0.261600  0.391490  1
  N  N1338  1  0.806900  0.738400  0.891490  1
  N  N1339  1  0.193100  0.238400  0.608510  1
  N  N1340  1  0.306900  0.761600  0.108510  1
  N  N1341  1  0.682400  0.465500  0.441840  1
  N  N1342  1  0.817600  0.534500  0.941840  1
  N  N1343  1  0.182400  0.034500  0.558160  1
  N  N1344  1  0.317600  0.965500  0.058160  1
  N  N1345  1  0.262700  0.279600  0.391800  1
  N  N1346  1  0.237300  0.720400  0.891800  1
  N  N1347  1  0.762700  0.220400  0.608200  1
  N  N1348  1  0.737300  0.779600  0.108200  1
  N  N1349  1  0.258700  0.467300  0.457700  1
  N  N1350  1  0.241300  0.532700  0.957700  1
  N  N1351  1  0.758700  0.032700  0.542300  1
  N  N1352  1  0.741300  0.967300  0.042300  1
  N  N1353  1  0.270200  0.505600  0.361980  1
  N  N1354  1  0.229800  0.494400  0.861980  1
  N  N1355  1  0.770200  0.994400  0.638020  1
  N  N1356  1  0.729800  0.005600  0.138020  1
  N  N1357  1  0.476500  0.412600  0.394240  1
  N  N1358  1  0.023500  0.587400  0.894240  1
  N  N1359  1  0.976500  0.087400  0.605760  1
  N  N1360  1  0.523500  0.912600  0.105760  1
  Cl  Cl1361  1  0.024360  0.408060  0.186640  1
  Cl  Cl1362  1  0.475640  0.591940  0.686640  1
  Cl  Cl1363  1  0.524360  0.091940  0.813360  1
  Cl  Cl1364  1  0.975640  0.908060  0.313360  1
  O  O1365  1  0.996300  0.441600  0.210000  1
  O  O1366  1  0.503700  0.558400  0.710000  1
  O  O1367  1  0.496300  0.058400  0.790000  1
  O  O1368  1  0.003700  0.941600  0.290000  1
  O  O1369  1  0.017300  0.341000  0.186500  1
  O  O1370  1  0.482700  0.659000  0.686500  1
  O  O1371  1  0.517300  0.159000  0.813500  1
  O  O1372  1  0.982700  0.841000  0.313500  1
  O  O1373  1  0.082000  0.445900  0.172200  1
  O  O1374  1  0.418000  0.554100  0.672200  1
  O  O1375  1  0.582000  0.054100  0.827800  1
  O  O1376  1  0.918000  0.945900  0.327800  1
  O  O1377  1  0.964800  0.421700  0.164400  1
  O  O1378  1  0.535200  0.578300  0.664400  1
  O  O1379  1  0.464800  0.078300  0.835600  1
  O  O1380  1  0.035200  0.921700  0.335600  1
  O  O1381  1  0.202400  0.611900  0.236200  1
  O  O1382  1  0.297600  0.388100  0.736200  1
  O  O1383  1  0.702400  0.888100  0.763800  1
  O  O1384  1  0.797600  0.111900  0.263800  1
  O  O1385  1  0.332000  0.607800  0.326490  1
  O  O1386  1  0.168000  0.392200  0.826490  1
  O  O1387  1  0.832000  0.892200  0.673510  1
  O  O1388  1  0.668000  0.107800  0.173510  1
  O  O1389  1  0.340500  0.616500  0.267800  1
  O  O1390  1  0.159500  0.383500  0.767800  1
  O  O1391  1  0.840500  0.883500  0.732200  1
  O  O1392  1  0.659500  0.116500  0.232200  1
  O  O1393  1  0.270800  0.470400  0.518500  1
  O  O1394  1  0.229200  0.529600  0.018500  1
  O  O1395  1  0.770800  0.029600  0.481500  1
  O  O1396  1  0.729200  0.970400  0.981500  1
  O  O1397  1  0.613500  0.510700  0.301200  1
  O  O1398  1  0.886500  0.489300  0.801200  1
  O  O1399  1  0.113500  0.989300  0.698800  1
  O  O1400  1  0.386500  0.010700  0.198800  1
  O  O1401  1  0.634400  0.605600  0.446900  1
  O  O1402  1  0.865600  0.394400  0.946900  1
  O  O1403  1  0.134400  0.894400  0.553100  1
  O  O1404  1  0.365600  0.105600  0.053100  1
  O  O1405  1  0.564900  0.650700  0.495900  1
  O  O1406  1  0.935100  0.349300  0.995900  1
  O  O1407  1  0.064900  0.849300  0.504100  1
  O  O1408  1  0.435100  0.150700  0.004100  1
  O  O1409  1  0.597400  0.145500  0.390860  1
  O  O1410  1  0.902600  0.854500  0.890860  1
  O  O1411  1  0.097400  0.354500  0.609140  1
  O  O1412  1  0.402600  0.645500  0.109140  1
  O  O1413  1  0.258300  0.130600  0.397300  1
  O  O1414  1  0.241700  0.869400  0.897300  1
  O  O1415  1  0.758300  0.369400  0.602700  1
  O  O1416  1  0.741700  0.630600  0.102700  1
  O  O1417  1  0.033200  0.449300  0.570500  1
  O  O1418  1  0.466800  0.550700  0.070500  1
  O  O1419  1  0.533200  0.050700  0.429500  1
  O  O1420  1  0.966800  0.949300  0.929500  1
  O  O1421  1  0.755200  0.559200  0.238000  1
  O  O1422  1  0.744800  0.440800  0.738000  1
  O  O1423  1  0.255200  0.940800  0.762000  1
  O  O1424  1  0.244800  0.059200  0.262000  1
  O  O1425  1  0.620100  0.621000  0.207200  1
  O  O1426  1  0.879900  0.379000  0.707200  1
  O  O1427  1  0.120100  0.879000  0.792800  1
  O  O1428  1  0.379900  0.121000  0.292800  1
  O  O1429  1  0.525000  0.485300  0.199300  1
  O  O1430  1  0.975000  0.514700  0.699300  1
  O  O1431  1  0.025000  0.014700  0.800700  1
  O  O1432  1  0.475000  0.985300  0.300700  1
  O  O1433  1  0.124400  0.554300  0.226200  1
  O  O1434  1  0.375600  0.445700  0.726200  1
  O  O1435  1  0.624400  0.945700  0.773800  1
  O  O1436  1  0.875600  0.054300  0.273800  1
