# generated using pymatgen
data_Fe2Co3H104C116N25ClO4
_symmetry_space_group_name_H-M   'P 1'
_cell_length_a   17.27800000
_cell_length_b   18.94000000
_cell_length_c   48.46200000
_cell_angle_alpha   90.00000000
_cell_angle_beta   90.00000000
_cell_angle_gamma   90.00000000
_symmetry_Int_Tables_number   1
_chemical_formula_structural   Fe2Co3H104C116N25ClO4
_chemical_formula_sum   'Fe8 Co12 H416 C464 N100 Cl4 O16'
_cell_volume   15858.96269784
_cell_formula_units_Z   4
loop_
 _symmetry_equiv_pos_site_id
 _symmetry_equiv_pos_as_xyz
  1  'x, y, z'
loop_
 _atom_site_type_symbol
 _atom_site_label
 _atom_site_symmetry_multiplicity
 _atom_site_fract_x
 _atom_site_fract_y
 _atom_site_fract_z
 _atom_site_occupancy
  Fe  Fe1  1  0.684350  0.578360  0.597932  1
  Fe  Fe2  1  0.815650  0.421640  0.097932  1
  Fe  Fe3  1  0.184350  0.921640  0.402068  1
  Fe  Fe4  1  0.315650  0.078360  0.902068  1
  Fe  Fe5  1  0.304510  0.594090  0.602450  1
  Fe  Fe6  1  0.195490  0.405910  0.102450  1
  Fe  Fe7  1  0.804510  0.905910  0.397550  1
  Fe  Fe8  1  0.695490  0.094090  0.897550  1
  Co  Co9  1  0.488520  0.383130  0.605236  1
  Co  Co10  1  0.011480  0.616870  0.105236  1
  Co  Co11  1  0.988520  0.116870  0.394764  1
  Co  Co12  1  0.511480  0.883130  0.894764  1
  Co  Co13  1  0.493540  0.694320  0.531330  1
  Co  Co14  1  0.006460  0.305680  0.031330  1
  Co  Co15  1  0.993540  0.805680  0.468670  1
  Co  Co16  1  0.506460  0.194320  0.968670  1
  Co  Co17  1  0.502000  0.667160  0.673596  1
  Co  Co18  1  0.998000  0.332840  0.173596  1
  Co  Co19  1  0.002000  0.832840  0.326404  1
  Co  Co20  1  0.498000  0.167160  0.826404  1
  H  H21  1  0.090100  0.622600  0.588400  1
  H  H22  1  0.409900  0.377400  0.088400  1
  H  H23  1  0.590100  0.877400  0.411600  1
  H  H24  1  0.909900  0.122600  0.911600  1
  H  H25  1  0.078300  0.652200  0.618300  1
  H  H26  1  0.421700  0.347800  0.118300  1
  H  H27  1  0.578300  0.847800  0.381700  1
  H  H28  1  0.921700  0.152200  0.881700  1
  H  H29  1  0.073600  0.504200  0.594700  1
  H  H30  1  0.426400  0.495800  0.094700  1
  H  H31  1  0.573600  0.995800  0.405300  1
  H  H32  1  0.926400  0.004200  0.905300  1
  H  H33  1  0.084100  0.523400  0.625800  1
  H  H34  1  0.415900  0.476600  0.125800  1
  H  H35  1  0.584100  0.976600  0.374200  1
  H  H36  1  0.915900  0.023400  0.874200  1
  H  H37  1  0.915200  0.643200  0.629400  1
  H  H38  1  0.584800  0.356800  0.129400  1
  H  H39  1  0.415200  0.856800  0.370600  1
  H  H40  1  0.084800  0.143200  0.870600  1
  H  H41  1  0.907800  0.562900  0.636700  1
  H  H42  1  0.592200  0.437100  0.136700  1
  H  H43  1  0.407800  0.937100  0.363300  1
  H  H44  1  0.092200  0.062900  0.863300  1
  H  H45  1  0.910800  0.622000  0.582700  1
  H  H46  1  0.589200  0.378000  0.082700  1
  H  H47  1  0.410800  0.878000  0.417300  1
  H  H48  1  0.089200  0.122000  0.917300  1
  H  H49  1  0.897000  0.542200  0.589800  1
  H  H50  1  0.603000  0.457800  0.089800  1
  H  H51  1  0.397000  0.957800  0.410200  1
  H  H52  1  0.103000  0.042200  0.910200  1
  H  H53  1  0.490800  0.306500  0.703800  1
  H  H54  1  0.009200  0.693500  0.203800  1
  H  H55  1  0.990800  0.193500  0.296200  1
  H  H56  1  0.509200  0.806500  0.796200  1
  H  H57  1  0.591500  0.376200  0.719900  1
  H  H58  1  0.908500  0.623800  0.219900  1
  H  H59  1  0.091500  0.123800  0.280100  1
  H  H60  1  0.408500  0.876200  0.780100  1
  H  H61  1  0.652600  0.455100  0.690500  1
  H  H62  1  0.847400  0.544900  0.190500  1
  H  H63  1  0.152600  0.044900  0.309500  1
  H  H64  1  0.347400  0.955100  0.809500  1
  H  H65  1  0.613100  0.464300  0.644900  1
  H  H66  1  0.886900  0.535700  0.144900  1
  H  H67  1  0.113100  0.035700  0.355100  1
  H  H68  1  0.386900  0.964300  0.855100  1
  H  H69  1  0.390500  0.283700  0.664800  1
  H  H70  1  0.109500  0.716300  0.164800  1
  H  H71  1  0.890500  0.216300  0.335200  1
  H  H72  1  0.609500  0.783700  0.835200  1
  H  H73  1  0.329700  0.299600  0.599600  1
  H  H74  1  0.170300  0.700400  0.099600  1
  H  H75  1  0.829700  0.200400  0.400400  1
  H  H76  1  0.670300  0.799600  0.900400  1
  H  H77  1  0.389600  0.199600  0.591500  1
  H  H78  1  0.110400  0.800400  0.091500  1
  H  H79  1  0.889600  0.300400  0.408500  1
  H  H80  1  0.610400  0.699600  0.908500  1
  H  H81  1  0.414500  0.189400  0.622100  1
  H  H82  1  0.085500  0.810600  0.122100  1
  H  H83  1  0.914500  0.310600  0.377900  1
  H  H84  1  0.585500  0.689400  0.877900  1
  H  H85  1  0.288300  0.140900  0.595900  1
  H  H86  1  0.211700  0.859100  0.095900  1
  H  H87  1  0.788300  0.359100  0.404100  1
  H  H88  1  0.711700  0.640900  0.904100  1
  H  H89  1  0.346300  0.100800  0.615100  1
  H  H90  1  0.153700  0.899200  0.115100  1
  H  H91  1  0.846300  0.399200  0.384900  1
  H  H92  1  0.653700  0.600800  0.884900  1
  H  H93  1  0.220800  0.122700  0.629200  1
  H  H94  1  0.279200  0.877300  0.129200  1
  H  H95  1  0.720800  0.377300  0.370800  1
  H  H96  1  0.779200  0.622700  0.870800  1
  H  H97  1  0.289500  0.126100  0.650000  1
  H  H98  1  0.210500  0.873900  0.150000  1
  H  H99  1  0.789500  0.373900  0.350000  1
  H  H100  1  0.710500  0.626100  0.850000  1
  H  H101  1  0.274400  0.382200  0.641000  1
  H  H102  1  0.225600  0.617800  0.141000  1
  H  H103  1  0.774400  0.117800  0.359000  1
  H  H104  1  0.725600  0.882200  0.859000  1
  H  H105  1  0.165400  0.383300  0.669000  1
  H  H106  1  0.334600  0.616700  0.169000  1
  H  H107  1  0.665400  0.116700  0.331000  1
  H  H108  1  0.834600  0.883300  0.831000  1
  H  H109  1  0.104700  0.278100  0.680500  1
  H  H110  1  0.395300  0.721900  0.180500  1
  H  H111  1  0.604700  0.221900  0.319500  1
  H  H112  1  0.895300  0.778100  0.819500  1
  H  H113  1  0.152900  0.171800  0.664100  1
  H  H114  1  0.347100  0.828200  0.164100  1
  H  H115  1  0.652900  0.328200  0.335900  1
  H  H116  1  0.847100  0.671800  0.835900  1
  H  H117  1  0.507700  0.234400  0.520200  1
  H  H118  1  0.992300  0.765600  0.020200  1
  H  H119  1  0.007700  0.265600  0.479800  1
  H  H120  1  0.492300  0.734400  0.979800  1
  H  H121  1  0.347000  0.400700  0.560900  1
  H  H122  1  0.153000  0.599300  0.060900  1
  H  H123  1  0.847000  0.099300  0.439100  1
  H  H124  1  0.653000  0.900700  0.939100  1
  H  H125  1  0.310000  0.346100  0.520100  1
  H  H126  1  0.190000  0.653900  0.020100  1
  H  H127  1  0.810000  0.153900  0.479900  1
  H  H128  1  0.690000  0.846100  0.979900  1
  H  H129  1  0.390400  0.262900  0.499700  1
  H  H130  1  0.109600  0.737100  0.999700  1
  H  H131  1  0.890400  0.237100  0.500300  1
  H  H132  1  0.609600  0.762900  0.000300  1
  H  H133  1  0.605900  0.261300  0.559000  1
  H  H134  1  0.894100  0.738700  0.059000  1
  H  H135  1  0.105900  0.238700  0.441000  1
  H  H136  1  0.394100  0.761300  0.941000  1
  H  H137  1  0.656200  0.327900  0.619900  1
  H  H138  1  0.843800  0.672100  0.119900  1
  H  H139  1  0.156200  0.172100  0.380100  1
  H  H140  1  0.343800  0.827900  0.880100  1
  H  H141  1  0.662200  0.224300  0.643900  1
  H  H142  1  0.837800  0.775700  0.143900  1
  H  H143  1  0.162200  0.275700  0.356100  1
  H  H144  1  0.337800  0.724300  0.856100  1
  H  H145  1  0.573900  0.234500  0.637200  1
  H  H146  1  0.926100  0.765500  0.137200  1
  H  H147  1  0.073900  0.265500  0.362800  1
  H  H148  1  0.426100  0.734500  0.862800  1
  H  H149  1  0.587300  0.158100  0.599100  1
  H  H150  1  0.912700  0.841900  0.099100  1
  H  H151  1  0.087300  0.341900  0.400900  1
  H  H152  1  0.412700  0.658100  0.900900  1
  H  H153  1  0.607100  0.119200  0.626900  1
  H  H154  1  0.892900  0.880800  0.126900  1
  H  H155  1  0.107100  0.380800  0.373100  1
  H  H156  1  0.392900  0.619200  0.873100  1
  H  H157  1  0.738900  0.124800  0.618800  1
  H  H158  1  0.761100  0.875200  0.118800  1
  H  H159  1  0.238900  0.375200  0.381200  1
  H  H160  1  0.261100  0.624800  0.881200  1
  H  H161  1  0.704600  0.102900  0.590100  1
  H  H162  1  0.795400  0.897100  0.090100  1
  H  H163  1  0.204600  0.397100  0.409900  1
  H  H164  1  0.295400  0.602900  0.909900  1
  H  H165  1  0.832600  0.149100  0.573000  1
  H  H166  1  0.667400  0.850900  0.073000  1
  H  H167  1  0.332600  0.350900  0.427000  1
  H  H168  1  0.167400  0.649100  0.927000  1
  H  H169  1  0.894100  0.245100  0.552900  1
  H  H170  1  0.605900  0.754900  0.052900  1
  H  H171  1  0.394100  0.254900  0.447100  1
  H  H172  1  0.105900  0.745100  0.947100  1
  H  H173  1  0.843200  0.357600  0.558200  1
  H  H174  1  0.656800  0.642400  0.058200  1
  H  H175  1  0.343200  0.142400  0.441800  1
  H  H176  1  0.156800  0.857600  0.941800  1
  H  H177  1  0.730900  0.374200  0.583600  1
  H  H178  1  0.769100  0.625800  0.083600  1
  H  H179  1  0.230900  0.125800  0.416400  1
  H  H180  1  0.269100  0.874200  0.916400  1
  H  H181  1  0.683700  0.659600  0.453400  1
  H  H182  1  0.816300  0.340400  0.953400  1
  H  H183  1  0.183700  0.840400  0.546600  1
  H  H184  1  0.316300  0.159600  0.046600  1
  H  H185  1  0.724700  0.775500  0.448300  1
  H  H186  1  0.775300  0.224500  0.948300  1
  H  H187  1  0.224700  0.724500  0.551700  1
  H  H188  1  0.275300  0.275500  0.051700  1
  H  H189  1  0.675800  0.863000  0.476900  1
  H  H190  1  0.824200  0.137000  0.976900  1
  H  H191  1  0.175800  0.637000  0.523100  1
  H  H192  1  0.324200  0.363000  0.023100  1
  H  H193  1  0.585800  0.834600  0.510600  1
  H  H194  1  0.914200  0.165400  0.010600  1
  H  H195  1  0.085800  0.665400  0.489400  1
  H  H196  1  0.414200  0.334600  0.989400  1
  H  H197  1  0.594600  0.569300  0.482200  1
  H  H198  1  0.905400  0.430700  0.982200  1
  H  H199  1  0.094600  0.930700  0.517800  1
  H  H200  1  0.405400  0.069300  0.017800  1
  H  H201  1  0.483100  0.529200  0.534600  1
  H  H202  1  0.016900  0.470800  0.034600  1
  H  H203  1  0.983100  0.970800  0.465400  1
  H  H204  1  0.516900  0.029200  0.965400  1
  H  H205  1  0.379600  0.573300  0.509000  1
  H  H206  1  0.120400  0.426700  0.009000  1
  H  H207  1  0.879600  0.926700  0.491000  1
  H  H208  1  0.620400  0.073300  0.991000  1
  H  H209  1  0.378800  0.491200  0.512900  1
  H  H210  1  0.121200  0.508800  0.012900  1
  H  H211  1  0.878800  0.008800  0.487100  1
  H  H212  1  0.621200  0.991200  0.987100  1
  H  H213  1  0.430500  0.556500  0.462000  1
  H  H214  1  0.069500  0.443500  0.962000  1
  H  H215  1  0.930500  0.943500  0.538000  1
  H  H216  1  0.569500  0.056500  0.038000  1
  H  H217  1  0.348500  0.520500  0.465100  1
  H  H218  1  0.151500  0.479500  0.965100  1
  H  H219  1  0.848500  0.979500  0.534900  1
  H  H220  1  0.651500  0.020500  0.034900  1
  H  H221  1  0.404700  0.403300  0.470900  1
  H  H222  1  0.095300  0.596700  0.970900  1
  H  H223  1  0.904700  0.096700  0.529100  1
  H  H224  1  0.595300  0.903300  0.029100  1
  H  H225  1  0.455600  0.434500  0.447100  1
  H  H226  1  0.044400  0.565500  0.947100  1
  H  H227  1  0.955600  0.065500  0.552900  1
  H  H228  1  0.544400  0.934500  0.052900  1
  H  H229  1  0.619500  0.476000  0.533100  1
  H  H230  1  0.880500  0.524000  0.033100  1
  H  H231  1  0.119500  0.024000  0.466900  1
  H  H232  1  0.380500  0.976000  0.966900  1
  H  H233  1  0.691500  0.379900  0.518200  1
  H  H234  1  0.808500  0.620100  0.018200  1
  H  H235  1  0.191500  0.120100  0.481800  1
  H  H236  1  0.308500  0.879900  0.981800  1
  H  H237  1  0.649600  0.313700  0.480800  1
  H  H238  1  0.850400  0.686300  0.980800  1
  H  H239  1  0.149600  0.186300  0.519200  1
  H  H240  1  0.350400  0.813700  0.019200  1
  H  H241  1  0.535600  0.343500  0.458300  1
  H  H242  1  0.964400  0.656500  0.958300  1
  H  H243  1  0.035600  0.156500  0.541700  1
  H  H244  1  0.464400  0.843500  0.041700  1
  H  H245  1  0.312400  0.885800  0.509400  1
  H  H246  1  0.187600  0.114200  0.009400  1
  H  H247  1  0.812400  0.614200  0.490600  1
  H  H248  1  0.687600  0.385800  0.990600  1
  H  H249  1  0.262900  0.845300  0.467800  1
  H  H250  1  0.237100  0.154700  0.967800  1
  H  H251  1  0.762900  0.654700  0.532200  1
  H  H252  1  0.737100  0.345300  0.032200  1
  H  H253  1  0.306700  0.739500  0.449400  1
  H  H254  1  0.193300  0.260500  0.949400  1
  H  H255  1  0.806700  0.760500  0.550600  1
  H  H256  1  0.693300  0.239500  0.050600  1
  H  H257  1  0.400000  0.674300  0.472600  1
  H  H258  1  0.100000  0.325700  0.972600  1
  H  H259  1  0.900000  0.825700  0.527400  1
  H  H260  1  0.600000  0.174300  0.027400  1
  H  H261  1  0.399800  0.867400  0.553800  1
  H  H262  1  0.100200  0.132600  0.053800  1
  H  H263  1  0.899800  0.632600  0.446200  1
  H  H264  1  0.600200  0.367400  0.946200  1
  H  H265  1  0.505200  0.768800  0.590800  1
  H  H266  1  0.994800  0.231200  0.090800  1
  H  H267  1  0.005200  0.731200  0.409200  1
  H  H268  1  0.494800  0.268800  0.909200  1
  H  H269  1  0.616700  0.832200  0.592200  1
  H  H270  1  0.883300  0.167800  0.092200  1
  H  H271  1  0.116700  0.667800  0.407800  1
  H  H272  1  0.383300  0.332200  0.907800  1
  H  H273  1  0.612900  0.804600  0.561600  1
  H  H274  1  0.887100  0.195400  0.061600  1
  H  H275  1  0.112900  0.695400  0.438400  1
  H  H276  1  0.387100  0.304600  0.938400  1
  H  H277  1  0.554700  0.914100  0.549000  1
  H  H278  1  0.945300  0.085900  0.049000  1
  H  H279  1  0.054700  0.585900  0.451000  1
  H  H280  1  0.445300  0.414100  0.951000  1
  H  H281  1  0.640900  0.922200  0.558900  1
  H  H282  1  0.859100  0.077800  0.058900  1
  H  H283  1  0.140900  0.577800  0.441100  1
  H  H284  1  0.359100  0.422200  0.941100  1
  H  H285  1  0.558700  0.007800  0.581000  1
  H  H286  1  0.941300  0.992200  0.081000  1
  H  H287  1  0.058700  0.492200  0.419000  1
  H  H288  1  0.441300  0.507800  0.919000  1
  H  H289  1  0.599300  0.959200  0.603000  1
  H  H290  1  0.900700  0.040800  0.103000  1
  H  H291  1  0.099300  0.540800  0.397000  1
  H  H292  1  0.400700  0.459200  0.897000  1
  H  H293  1  0.379500  0.790200  0.605700  1
  H  H294  1  0.120500  0.209800  0.105700  1
  H  H295  1  0.879500  0.709800  0.394300  1
  H  H296  1  0.620500  0.290200  0.894300  1
  H  H297  1  0.450800  0.024100  0.618500  1
  H  H298  1  0.049200  0.975900  0.118500  1
  H  H299  1  0.950800  0.475900  0.381500  1
  H  H300  1  0.549200  0.524100  0.881500  1
  H  H301  1  0.343100  0.979200  0.641000  1
  H  H302  1  0.156900  0.020800  0.141000  1
  H  H303  1  0.843100  0.520800  0.359000  1
  H  H304  1  0.656900  0.479200  0.859000  1
  H  H305  1  0.307400  0.862300  0.634600  1
  H  H306  1  0.192600  0.137700  0.134600  1
  H  H307  1  0.807400  0.637700  0.365400  1
  H  H308  1  0.692600  0.362300  0.865400  1
  H  H309  1  0.633800  0.761600  0.644700  1
  H  H310  1  0.866200  0.238400  0.144700  1
  H  H311  1  0.133800  0.738400  0.355300  1
  H  H312  1  0.366200  0.261600  0.855300  1
  H  H313  1  0.677200  0.878400  0.646800  1
  H  H314  1  0.822800  0.121600  0.146800  1
  H  H315  1  0.177200  0.621600  0.353200  1
  H  H316  1  0.322800  0.378400  0.853200  1
  H  H317  1  0.594300  0.959300  0.661400  1
  H  H318  1  0.905700  0.040700  0.161400  1
  H  H319  1  0.094300  0.540700  0.338600  1
  H  H320  1  0.405700  0.459300  0.838600  1
  H  H321  1  0.469500  0.925800  0.683700  1
  H  H322  1  0.030500  0.074200  0.183700  1
  H  H323  1  0.969500  0.574200  0.316300  1
  H  H324  1  0.530500  0.425800  0.816300  1
  H  H325  1  0.382400  0.824100  0.696500  1
  H  H326  1  0.117600  0.175900  0.196500  1
  H  H327  1  0.882400  0.675900  0.303500  1
  H  H328  1  0.617600  0.324100  0.803500  1
  H  H329  1  0.343600  0.652600  0.700000  1
  H  H330  1  0.156400  0.347400  0.200000  1
  H  H331  1  0.843600  0.847400  0.300000  1
  H  H332  1  0.656400  0.152600  0.800000  1
  H  H333  1  0.326700  0.650900  0.742300  1
  H  H334  1  0.173300  0.349100  0.242300  1
  H  H335  1  0.826700  0.849100  0.257700  1
  H  H336  1  0.673300  0.150900  0.757700  1
  H  H337  1  0.414200  0.669200  0.739300  1
  H  H338  1  0.085800  0.330800  0.239300  1
  H  H339  1  0.914200  0.830800  0.260700  1
  H  H340  1  0.585800  0.169200  0.760700  1
  H  H341  1  0.387700  0.779500  0.749900  1
  H  H342  1  0.112300  0.220500  0.249900  1
  H  H343  1  0.887700  0.720500  0.250100  1
  H  H344  1  0.612300  0.279500  0.750100  1
  H  H345  1  0.368200  0.724800  0.773200  1
  H  H346  1  0.131800  0.275200  0.273200  1
  H  H347  1  0.868200  0.775200  0.226800  1
  H  H348  1  0.631800  0.224800  0.726800  1
  H  H349  1  0.226500  0.735900  0.765000  1
  H  H350  1  0.273500  0.264100  0.265000  1
  H  H351  1  0.726500  0.764100  0.235000  1
  H  H352  1  0.773500  0.235900  0.735000  1
  H  H353  1  0.254900  0.814700  0.764200  1
  H  H354  1  0.245100  0.185300  0.264200  1
  H  H355  1  0.754900  0.685300  0.235800  1
  H  H356  1  0.745100  0.314700  0.735800  1
  H  H357  1  0.270000  0.724300  0.663400  1
  H  H358  1  0.230000  0.275700  0.163400  1
  H  H359  1  0.770000  0.775700  0.336600  1
  H  H360  1  0.730000  0.224300  0.836600  1
  H  H361  1  0.156700  0.785500  0.654100  1
  H  H362  1  0.343300  0.214500  0.154100  1
  H  H363  1  0.656700  0.714500  0.345900  1
  H  H364  1  0.843300  0.285500  0.845900  1
  H  H365  1  0.089900  0.840400  0.689700  1
  H  H366  1  0.410100  0.159600  0.189700  1
  H  H367  1  0.589900  0.659600  0.310300  1
  H  H368  1  0.910100  0.340400  0.810300  1
  H  H369  1  0.136400  0.834000  0.734500  1
  H  H370  1  0.363600  0.166000  0.234500  1
  H  H371  1  0.636400  0.666000  0.265500  1
  H  H372  1  0.863600  0.334000  0.765500  1
  H  H373  1  0.326100  0.451300  0.696600  1
  H  H374  1  0.173900  0.548700  0.196600  1
  H  H375  1  0.826100  0.048700  0.303400  1
  H  H376  1  0.673900  0.951300  0.803400  1
  H  H377  1  0.383600  0.432600  0.739200  1
  H  H378  1  0.116400  0.567400  0.239200  1
  H  H379  1  0.883600  0.067400  0.260800  1
  H  H380  1  0.616400  0.932600  0.760800  1
  H  H381  1  0.490000  0.499400  0.752300  1
  H  H382  1  0.010000  0.500600  0.252300  1
  H  H383  1  0.990000  0.000600  0.247700  1
  H  H384  1  0.510000  0.999400  0.747700  1
  H  H385  1  0.375000  0.536800  0.667000  1
  H  H386  1  0.125000  0.463200  0.167000  1
  H  H387  1  0.875000  0.963200  0.333000  1
  H  H388  1  0.625000  0.036800  0.833000  1
  H  H389  1  0.591400  0.587400  0.738600  1
  H  H390  1  0.908600  0.412600  0.238600  1
  H  H391  1  0.091400  0.912600  0.261400  1
  H  H392  1  0.408600  0.087400  0.761400  1
  H  H393  1  0.657300  0.734700  0.699900  1
  H  H394  1  0.842700  0.265300  0.199900  1
  H  H395  1  0.157300  0.765300  0.300100  1
  H  H396  1  0.342700  0.234700  0.800100  1
  H  H397  1  0.715500  0.600900  0.688100  1
  H  H398  1  0.784500  0.399100  0.188100  1
  H  H399  1  0.215500  0.899100  0.311900  1
  H  H400  1  0.284500  0.100900  0.811900  1
  H  H401  1  0.828300  0.538500  0.696900  1
  H  H402  1  0.671700  0.461500  0.196900  1
  H  H403  1  0.328300  0.961500  0.303100  1
  H  H404  1  0.171700  0.038500  0.803100  1
  H  H405  1  0.897400  0.559500  0.737100  1
  H  H406  1  0.602600  0.440500  0.237100  1
  H  H407  1  0.397400  0.940500  0.262900  1
  H  H408  1  0.102600  0.059500  0.762900  1
  H  H409  1  0.853700  0.643100  0.768500  1
  H  H410  1  0.646300  0.356900  0.268500  1
  H  H411  1  0.353700  0.856900  0.231500  1
  H  H412  1  0.146300  0.143100  0.731500  1
  H  H413  1  0.707900  0.700200  0.782000  1
  H  H414  1  0.792100  0.299800  0.282000  1
  H  H415  1  0.207900  0.799800  0.218000  1
  H  H416  1  0.292100  0.200200  0.718000  1
  H  H417  1  0.773600  0.751300  0.773100  1
  H  H418  1  0.726400  0.248700  0.273100  1
  H  H419  1  0.273600  0.748700  0.226900  1
  H  H420  1  0.226400  0.251300  0.726900  1
  H  H421  1  0.647700  0.793600  0.776100  1
  H  H422  1  0.852300  0.206400  0.276100  1
  H  H423  1  0.147700  0.706400  0.223900  1
  H  H424  1  0.352300  0.293600  0.723900  1
  H  H425  1  0.698400  0.816900  0.750700  1
  H  H426  1  0.801600  0.183100  0.250700  1
  H  H427  1  0.198400  0.683100  0.249300  1
  H  H428  1  0.301600  0.316900  0.749300  1
  H  H429  1  0.587100  0.783900  0.735500  1
  H  H430  1  0.912900  0.216100  0.235500  1
  H  H431  1  0.087100  0.716100  0.264500  1
  H  H432  1  0.412900  0.283900  0.764500  1
  H  H433  1  0.589100  0.715000  0.752900  1
  H  H434  1  0.910900  0.285000  0.252900  1
  H  H435  1  0.089100  0.785000  0.247100  1
  H  H436  1  0.410900  0.215000  0.747100  1
  C  C437  1  0.051700  0.639300  0.601500  1
  C  C438  1  0.448300  0.360700  0.101500  1
  C  C439  1  0.551700  0.860700  0.398500  1
  C  C440  1  0.948300  0.139300  0.898500  1
  C  C441  1  0.045800  0.513400  0.611700  1
  C  C442  1  0.454200  0.486600  0.111700  1
  C  C443  1  0.545800  0.986600  0.388300  1
  C  C444  1  0.954200  0.013400  0.888300  1
  C  C445  1  0.004100  0.448100  0.619600  1
  C  C446  1  0.495900  0.551900  0.119600  1
  C  C447  1  0.504100  0.051900  0.380400  1
  C  C448  1  0.995900  0.948100  0.880400  1
  C  C449  1  0.944500  0.600700  0.633400  1
  C  C450  1  0.555500  0.399300  0.133400  1
  C  C451  1  0.444500  0.899300  0.366600  1
  C  C452  1  0.055500  0.100700  0.866600  1
  C  C453  1  0.990400  0.612600  0.659000  1
  C  C454  1  0.509600  0.387400  0.159000  1
  C  C455  1  0.490400  0.887400  0.341000  1
  C  C456  1  0.009600  0.112600  0.841000  1
  C  C457  1  0.936100  0.576500  0.584700  1
  C  C458  1  0.563900  0.423500  0.084700  1
  C  C459  1  0.436100  0.923500  0.415300  1
  C  C460  1  0.063900  0.076500  0.915300  1
  C  C461  1  0.011800  0.704200  0.589600  1
  C  C462  1  0.488200  0.295800  0.089600  1
  C  C463  1  0.511800  0.795800  0.410400  1
  C  C464  1  0.988200  0.204200  0.910400  1
  C  C465  1  0.971600  0.555300  0.557100  1
  C  C466  1  0.528400  0.444700  0.057100  1
  C  C467  1  0.471600  0.944700  0.442900  1
  C  C468  1  0.028400  0.055300  0.942900  1
  C  C469  1  0.491600  0.343600  0.664630  1
  C  C470  1  0.008400  0.656400  0.164630  1
  C  C471  1  0.991600  0.156400  0.335370  1
  C  C472  1  0.508400  0.843600  0.835370  1
  C  C473  1  0.515300  0.338100  0.691950  1
  C  C474  1  0.984700  0.661900  0.191950  1
  C  C475  1  0.015300  0.161900  0.308050  1
  C  C476  1  0.484700  0.838100  0.808050  1
  C  C477  1  0.575700  0.379900  0.701640  1
  C  C478  1  0.924300  0.620100  0.201640  1
  C  C479  1  0.075700  0.120100  0.298360  1
  C  C480  1  0.424300  0.879900  0.798360  1
  C  C481  1  0.612300  0.427100  0.684000  1
  C  C482  1  0.887700  0.572900  0.184000  1
  C  C483  1  0.112300  0.072900  0.316000  1
  C  C484  1  0.387700  0.927100  0.816000  1
  C  C485  1  0.588600  0.432700  0.656670  1
  C  C486  1  0.911400  0.567300  0.156670  1
  C  C487  1  0.088600  0.067300  0.343330  1
  C  C488  1  0.411400  0.932700  0.843330  1
  C  C489  1  0.424000  0.308900  0.653500  1
  C  C490  1  0.076000  0.691100  0.153500  1
  C  C491  1  0.924000  0.191100  0.346500  1
  C  C492  1  0.576000  0.808900  0.846500  1
  C  C493  1  0.345600  0.277000  0.616800  1
  C  C494  1  0.154400  0.723000  0.116800  1
  C  C495  1  0.845600  0.223000  0.383200  1
  C  C496  1  0.654400  0.777000  0.883200  1
  C  C497  1  0.370700  0.200200  0.610300  1
  C  C498  1  0.129300  0.799800  0.110300  1
  C  C499  1  0.870700  0.299800  0.389700  1
  C  C500  1  0.629300  0.700200  0.889700  1
  C  C501  1  0.317400  0.144400  0.613000  1
  C  C502  1  0.182600  0.855600  0.113000  1
  C  C503  1  0.817400  0.355600  0.387000  1
  C  C504  1  0.682600  0.644400  0.887000  1
  C  C505  1  0.266400  0.149500  0.634300  1
  C  C506  1  0.233600  0.850500  0.134300  1
  C  C507  1  0.766400  0.350500  0.365700  1
  C  C508  1  0.733600  0.649500  0.865700  1
  C  C509  1  0.242500  0.213300  0.642680  1
  C  C510  1  0.257500  0.786700  0.142680  1
  C  C511  1  0.742500  0.286700  0.357320  1
  C  C512  1  0.757500  0.713300  0.857320  1
  C  C513  1  0.278900  0.276300  0.635770  1
  C  C514  1  0.221100  0.723700  0.135770  1
  C  C515  1  0.778900  0.223700  0.364230  1
  C  C516  1  0.721100  0.776300  0.864230  1
  C  C517  1  0.250000  0.340000  0.645620  1
  C  C518  1  0.250000  0.660000  0.145620  1
  C  C519  1  0.750000  0.160000  0.354380  1
  C  C520  1  0.750000  0.840000  0.854380  1
  C  C521  1  0.184700  0.340600  0.662370  1
  C  C522  1  0.315300  0.659400  0.162370  1
  C  C523  1  0.684700  0.159400  0.337630  1
  C  C524  1  0.815300  0.840600  0.837630  1
  C  C525  1  0.148300  0.277600  0.669280  1
  C  C526  1  0.351700  0.722400  0.169280  1
  C  C527  1  0.648300  0.222400  0.330720  1
  C  C528  1  0.851700  0.777600  0.830720  1
  C  C529  1  0.177300  0.213900  0.659430  1
  C  C530  1  0.322700  0.786100  0.159430  1
  C  C531  1  0.677300  0.286100  0.340570  1
  C  C532  1  0.822700  0.713900  0.840570  1
  C  C533  1  0.475500  0.267700  0.528310  1
  C  C534  1  0.024500  0.732300  0.028310  1
  C  C535  1  0.975500  0.232300  0.471690  1
  C  C536  1  0.524500  0.767700  0.971690  1
  C  C537  1  0.497700  0.300500  0.552740  1
  C  C538  1  0.002300  0.699500  0.052740  1
  C  C539  1  0.997700  0.199500  0.447260  1
  C  C540  1  0.502300  0.800500  0.947260  1
  C  C541  1  0.379200  0.367400  0.552700  1
  C  C542  1  0.120800  0.632600  0.052700  1
  C  C543  1  0.879200  0.132600  0.447300  1
  C  C544  1  0.620800  0.867400  0.947300  1
  C  C545  1  0.357100  0.334700  0.528270  1
  C  C546  1  0.142900  0.665300  0.028270  1
  C  C547  1  0.857100  0.165300  0.471730  1
  C  C548  1  0.642900  0.834700  0.971730  1
  C  C549  1  0.405200  0.284800  0.516080  1
  C  C550  1  0.094800  0.715200  0.016080  1
  C  C551  1  0.905200  0.215200  0.483920  1
  C  C552  1  0.594800  0.784800  0.983920  1
  C  C553  1  0.566100  0.285800  0.567630  1
  C  C554  1  0.933900  0.714200  0.067630  1
  C  C555  1  0.066100  0.214200  0.432370  1
  C  C556  1  0.433900  0.785800  0.932370  1
  C  C557  1  0.644800  0.286400  0.608500  1
  C  C558  1  0.855200  0.713600  0.108500  1
  C  C559  1  0.144800  0.213600  0.391500  1
  C  C560  1  0.355200  0.786400  0.891500  1
  C  C561  1  0.624300  0.225600  0.629100  1
  C  C562  1  0.875700  0.774400  0.129100  1
  C  C563  1  0.124300  0.274400  0.370900  1
  C  C564  1  0.375700  0.725600  0.870900  1
  C  C565  1  0.623400  0.156300  0.614400  1
  C  C566  1  0.876600  0.843700  0.114400  1
  C  C567  1  0.123400  0.343700  0.385600  1
  C  C568  1  0.376600  0.656300  0.885600  1
  C  C569  1  0.707000  0.140800  0.603500  1
  C  C570  1  0.793000  0.859200  0.103500  1
  C  C571  1  0.207000  0.359200  0.396500  1
  C  C572  1  0.293000  0.640800  0.896500  1
  C  C573  1  0.744900  0.204200  0.590340  1
  C  C574  1  0.755100  0.795800  0.090340  1
  C  C575  1  0.244900  0.295800  0.409660  1
  C  C576  1  0.255100  0.704200  0.909660  1
  C  C577  1  0.812200  0.194300  0.575130  1
  C  C578  1  0.687800  0.805700  0.075130  1
  C  C579  1  0.312200  0.305700  0.424870  1
  C  C580  1  0.187800  0.694300  0.924870  1
  C  C581  1  0.849100  0.251700  0.563080  1
  C  C582  1  0.650900  0.748300  0.063080  1
  C  C583  1  0.349100  0.248300  0.436920  1
  C  C584  1  0.150900  0.751700  0.936920  1
  C  C585  1  0.818600  0.319200  0.566240  1
  C  C586  1  0.681400  0.680800  0.066240  1
  C  C587  1  0.318600  0.180800  0.433760  1
  C  C588  1  0.181400  0.819200  0.933760  1
  C  C589  1  0.751300  0.329100  0.581460  1
  C  C590  1  0.748700  0.670900  0.081460  1
  C  C591  1  0.251300  0.170900  0.418540  1
  C  C592  1  0.248700  0.829100  0.918540  1
  C  C593  1  0.714400  0.271600  0.593500  1
  C  C594  1  0.785600  0.728400  0.093500  1
  C  C595  1  0.214400  0.228400  0.406500  1
  C  C596  1  0.285600  0.771600  0.906500  1
  C  C597  1  0.610200  0.677700  0.485110  1
  C  C598  1  0.889800  0.322300  0.985110  1
  C  C599  1  0.110200  0.822300  0.514890  1
  C  C600  1  0.389800  0.177700  0.014890  1
  C  C601  1  0.664100  0.694700  0.464890  1
  C  C602  1  0.835900  0.305300  0.964890  1
  C  C603  1  0.164100  0.805300  0.535110  1
  C  C604  1  0.335900  0.194700  0.035110  1
  C  C605  1  0.688700  0.764100  0.461800  1
  C  C606  1  0.811300  0.235900  0.961800  1
  C  C607  1  0.188700  0.735900  0.538200  1
  C  C608  1  0.311300  0.264100  0.038200  1
  C  C609  1  0.659300  0.816500  0.478940  1
  C  C610  1  0.840700  0.183500  0.978940  1
  C  C611  1  0.159300  0.683500  0.521060  1
  C  C612  1  0.340700  0.316500  0.021060  1
  C  C613  1  0.605400  0.799500  0.499160  1
  C  C614  1  0.894600  0.200500  0.999160  1
  C  C615  1  0.105400  0.700500  0.500840  1
  C  C616  1  0.394600  0.299500  0.000840  1
  C  C617  1  0.575900  0.609600  0.490910  1
  C  C618  1  0.924100  0.390400  0.990910  1
  C  C619  1  0.075900  0.890400  0.509090  1
  C  C620  1  0.424100  0.109600  0.009090  1
  C  C621  1  0.486400  0.532500  0.514460  1
  C  C622  1  0.013600  0.467500  0.014460  1
  C  C623  1  0.986400  0.967500  0.485540  1
  C  C624  1  0.513600  0.032500  0.985540  1
  C  C625  1  0.405900  0.529900  0.504030  1
  C  C626  1  0.094100  0.470100  0.004030  1
  C  C627  1  0.905900  0.970100  0.495970  1
  C  C628  1  0.594100  0.029900  0.995970  1
  C  C629  1  0.401600  0.519800  0.471520  1
  C  C630  1  0.098400  0.480200  0.971520  1
  C  C631  1  0.901600  0.980200  0.528480  1
  C  C632  1  0.598400  0.019800  0.028480  1
  C  C633  1  0.442500  0.439400  0.466500  1
  C  C634  1  0.057500  0.560600  0.966500  1
  C  C635  1  0.942500  0.060600  0.533500  1
  C  C636  1  0.557500  0.939400  0.033500  1
  C  C637  1  0.602700  0.449400  0.518140  1
  C  C638  1  0.897300  0.550600  0.018140  1
  C  C639  1  0.102700  0.050600  0.481860  1
  C  C640  1  0.397300  0.949400  0.981860  1
  C  C641  1  0.645800  0.391900  0.509200  1
  C  C642  1  0.854200  0.608100  0.009200  1
  C  C643  1  0.145800  0.108100  0.490800  1
  C  C644  1  0.354200  0.891900  0.990800  1
  C  C645  1  0.620700  0.352200  0.486800  1
  C  C646  1  0.879300  0.647800  0.986800  1
  C  C647  1  0.120700  0.147800  0.513200  1
  C  C648  1  0.379300  0.852200  0.013200  1
  C  C649  1  0.552400  0.370100  0.473330  1
  C  C650  1  0.947600  0.629900  0.973330  1
  C  C651  1  0.052400  0.129900  0.526670  1
  C  C652  1  0.447600  0.870100  0.026670  1
  C  C653  1  0.509300  0.427600  0.482270  1
  C  C654  1  0.990700  0.572400  0.982270  1
  C  C655  1  0.009300  0.072400  0.517730  1
  C  C656  1  0.490700  0.927600  0.017730  1
  C  C657  1  0.534400  0.467300  0.504680  1
  C  C658  1  0.965600  0.532700  0.004680  1
  C  C659  1  0.034400  0.032700  0.495320  1
  C  C660  1  0.465600  0.967300  0.995320  1
  C  C661  1  0.385800  0.804300  0.515920  1
  C  C662  1  0.114200  0.195700  0.015920  1
  C  C663  1  0.885800  0.695700  0.484080  1
  C  C664  1  0.614200  0.304300  0.984080  1
  C  C665  1  0.329900  0.843400  0.502040  1
  C  C666  1  0.170100  0.156600  0.002040  1
  C  C667  1  0.829900  0.656600  0.497960  1
  C  C668  1  0.670100  0.343400  0.997960  1
  C  C669  1  0.300300  0.819100  0.477120  1
  C  C670  1  0.199700  0.180900  0.977120  1
  C  C671  1  0.800300  0.680900  0.522880  1
  C  C672  1  0.699700  0.319100  0.022880  1
  C  C673  1  0.326500  0.755800  0.466080  1
  C  C674  1  0.173500  0.244200  0.966080  1
  C  C675  1  0.826500  0.744200  0.533920  1
  C  C676  1  0.673500  0.255800  0.033920  1
  C  C677  1  0.382400  0.716700  0.479960  1
  C  C678  1  0.117600  0.283300  0.979960  1
  C  C679  1  0.882400  0.783300  0.520040  1
  C  C680  1  0.617600  0.216700  0.020040  1
  C  C681  1  0.418900  0.828600  0.544200  1
  C  C682  1  0.081100  0.171400  0.044200  1
  C  C683  1  0.918900  0.671400  0.455800  1
  C  C684  1  0.581100  0.328600  0.955800  1
  C  C685  1  0.503700  0.811800  0.579560  1
  C  C686  1  0.996300  0.188200  0.079560  1
  C  C687  1  0.003700  0.688200  0.420440  1
  C  C688  1  0.496300  0.311800  0.920440  1
  C  C689  1  0.588200  0.835300  0.574990  1
  C  C690  1  0.911800  0.164700  0.074990  1
  C  C691  1  0.088200  0.664700  0.425010  1
  C  C692  1  0.411800  0.335300  0.925010  1
  C  C693  1  0.589000  0.909600  0.564700  1
  C  C694  1  0.911000  0.090400  0.064700  1
  C  C695  1  0.089000  0.590400  0.435300  1
  C  C696  1  0.411000  0.409600  0.935300  1
  C  C697  1  0.562300  0.959900  0.588000  1
  C  C698  1  0.937700  0.040100  0.088000  1
  C  C699  1  0.062300  0.540100  0.412000  1
  C  C700  1  0.437700  0.459900  0.912000  1
  C  C701  1  0.393800  0.837000  0.608240  1
  C  C702  1  0.106200  0.163000  0.108240  1
  C  C703  1  0.893800  0.663000  0.391760  1
  C  C704  1  0.606200  0.337000  0.891760  1
  C  C705  1  0.458400  0.863900  0.594730  1
  C  C706  1  0.041600  0.136100  0.094730  1
  C  C707  1  0.958400  0.636100  0.405270  1
  C  C708  1  0.541600  0.363900  0.905270  1
  C  C709  1  0.479700  0.934000  0.598560  1
  C  C710  1  0.020300  0.066000  0.098560  1
  C  C711  1  0.979700  0.566000  0.401440  1
  C  C712  1  0.520300  0.434000  0.901440  1
  C  C713  1  0.436500  0.977200  0.615900  1
  C  C714  1  0.063500  0.022800  0.115900  1
  C  C715  1  0.936500  0.522800  0.384100  1
  C  C716  1  0.563500  0.477200  0.884100  1
  C  C717  1  0.372000  0.950300  0.629410  1
  C  C718  1  0.128000  0.049700  0.129410  1
  C  C719  1  0.872000  0.549700  0.370590  1
  C  C720  1  0.628000  0.450300  0.870590  1
  C  C721  1  0.350600  0.880200  0.625580  1
  C  C722  1  0.149400  0.119800  0.125580  1
  C  C723  1  0.850600  0.619800  0.374420  1
  C  C724  1  0.649400  0.380200  0.874420  1
  C  C725  1  0.603400  0.794900  0.653760  1
  C  C726  1  0.896600  0.205100  0.153760  1
  C  C727  1  0.103400  0.705100  0.346240  1
  C  C728  1  0.396600  0.294900  0.846240  1
  C  C729  1  0.628700  0.865800  0.653500  1
  C  C730  1  0.871300  0.134200  0.153500  1
  C  C731  1  0.128700  0.634200  0.346500  1
  C  C732  1  0.371300  0.365800  0.846500  1
  C  C733  1  0.581500  0.911800  0.662900  1
  C  C734  1  0.918500  0.088200  0.162900  1
  C  C735  1  0.081500  0.588200  0.337100  1
  C  C736  1  0.418500  0.411800  0.837100  1
  C  C737  1  0.503100  0.891600  0.676890  1
  C  C738  1  0.996900  0.108400  0.176890  1
  C  C739  1  0.003100  0.608400  0.323110  1
  C  C740  1  0.496900  0.391600  0.823110  1
  C  C741  1  0.486200  0.821200  0.678710  1
  C  C742  1  0.013800  0.178800  0.178710  1
  C  C743  1  0.986200  0.678800  0.321290  1
  C  C744  1  0.513800  0.321200  0.821290  1
  C  C745  1  0.422400  0.794600  0.690910  1
  C  C746  1  0.077600  0.205400  0.190910  1
  C  C747  1  0.922400  0.705400  0.309090  1
  C  C748  1  0.577600  0.294600  0.809090  1
  C  C749  1  0.351800  0.699200  0.708300  1
  C  C750  1  0.148200  0.300800  0.208300  1
  C  C751  1  0.851800  0.800800  0.291700  1
  C  C752  1  0.648200  0.199200  0.791700  1
  C  C753  1  0.362300  0.687900  0.736900  1
  C  C754  1  0.137700  0.312100  0.236900  1
  C  C755  1  0.862300  0.812100  0.263100  1
  C  C756  1  0.637700  0.187900  0.763100  1
  C  C757  1  0.353900  0.740700  0.754920  1
  C  C758  1  0.146100  0.259300  0.254920  1
  C  C759  1  0.853900  0.759300  0.245080  1
  C  C760  1  0.646100  0.240700  0.745080  1
  C  C761  1  0.258600  0.769300  0.755050  1
  C  C762  1  0.241400  0.230700  0.255050  1
  C  C763  1  0.758600  0.730700  0.244950  1
  C  C764  1  0.741400  0.269300  0.744950  1
  C  C765  1  0.243200  0.746300  0.677670  1
  C  C766  1  0.256800  0.253700  0.177670  1
  C  C767  1  0.743200  0.753700  0.322330  1
  C  C768  1  0.756800  0.246300  0.822330  1
  C  C769  1  0.175300  0.783000  0.672110  1
  C  C770  1  0.324700  0.217000  0.172110  1
  C  C771  1  0.675300  0.717000  0.327890  1
  C  C772  1  0.824700  0.283000  0.827890  1
  C  C773  1  0.135300  0.815800  0.693410  1
  C  C774  1  0.364700  0.184200  0.193410  1
  C  C775  1  0.635300  0.684200  0.306590  1
  C  C776  1  0.864700  0.315800  0.806590  1
  C  C777  1  0.163200  0.812000  0.720280  1
  C  C778  1  0.336800  0.188000  0.220280  1
  C  C779  1  0.663200  0.688000  0.279720  1
  C  C780  1  0.836800  0.312000  0.779720  1
  C  C781  1  0.231100  0.775300  0.725840  1
  C  C782  1  0.268900  0.224700  0.225840  1
  C  C783  1  0.731100  0.724700  0.274160  1
  C  C784  1  0.768900  0.275300  0.774160  1
  C  C785  1  0.271100  0.742400  0.704530  1
  C  C786  1  0.228900  0.257600  0.204530  1
  C  C787  1  0.771100  0.757600  0.295470  1
  C  C788  1  0.728900  0.242400  0.795470  1
  C  C789  1  0.368800  0.478000  0.701810  1
  C  C790  1  0.131200  0.522000  0.201810  1
  C  C791  1  0.868800  0.022000  0.298190  1
  C  C792  1  0.631200  0.978000  0.798190  1
  C  C793  1  0.403200  0.466900  0.727360  1
  C  C794  1  0.096800  0.533100  0.227360  1
  C  C795  1  0.903200  0.033100  0.272640  1
  C  C796  1  0.596800  0.966900  0.772640  1
  C  C797  1  0.466900  0.506900  0.735220  1
  C  C798  1  0.033100  0.493100  0.235220  1
  C  C799  1  0.966900  0.993100  0.264780  1
  C  C800  1  0.533100  0.006900  0.764780  1
  C  C801  1  0.496200  0.558100  0.717520  1
  C  C802  1  0.003800  0.441900  0.217520  1
  C  C803  1  0.996200  0.941900  0.282480  1
  C  C804  1  0.503800  0.058100  0.782480  1
  C  C805  1  0.398000  0.529300  0.684120  1
  C  C806  1  0.102000  0.470700  0.184120  1
  C  C807  1  0.898000  0.970700  0.315880  1
  C  C808  1  0.602000  0.029300  0.815880  1
  C  C809  1  0.560600  0.599500  0.723580  1
  C  C810  1  0.939400  0.400500  0.223580  1
  C  C811  1  0.060600  0.900500  0.276420  1
  C  C812  1  0.439400  0.099500  0.776420  1
  C  C813  1  0.646400  0.703200  0.715430  1
  C  C814  1  0.853600  0.296800  0.215430  1
  C  C815  1  0.146400  0.796800  0.284570  1
  C  C816  1  0.353600  0.203200  0.784570  1
  C  C817  1  0.717000  0.659400  0.722960  1
  C  C818  1  0.783000  0.340600  0.222960  1
  C  C819  1  0.217000  0.840600  0.277040  1
  C  C820  1  0.283000  0.159400  0.777040  1
  C  C821  1  0.743200  0.609400  0.704180  1
  C  C822  1  0.756800  0.390600  0.204180  1
  C  C823  1  0.243200  0.890600  0.295820  1
  C  C824  1  0.256800  0.109400  0.795820  1
  C  C825  1  0.810800  0.572000  0.709490  1
  C  C826  1  0.689200  0.428000  0.209490  1
  C  C827  1  0.310800  0.928000  0.290510  1
  C  C828  1  0.189200  0.072000  0.790510  1
  C  C829  1  0.852200  0.584600  0.733590  1
  C  C830  1  0.647800  0.415400  0.233590  1
  C  C831  1  0.352200  0.915400  0.266410  1
  C  C832  1  0.147800  0.084600  0.766410  1
  C  C833  1  0.826000  0.634600  0.752370  1
  C  C834  1  0.674000  0.365400  0.252370  1
  C  C835  1  0.326000  0.865400  0.247630  1
  C  C836  1  0.174000  0.134600  0.747630  1
  C  C837  1  0.758400  0.672100  0.747060  1
  C  C838  1  0.741600  0.327900  0.247060  1
  C  C839  1  0.258400  0.827900  0.252940  1
  C  C840  1  0.241600  0.172100  0.752940  1
  C  C841  1  0.728700  0.725900  0.766350  1
  C  C842  1  0.771300  0.274100  0.266350  1
  C  C843  1  0.228700  0.774100  0.233650  1
  C  C844  1  0.271300  0.225900  0.733650  1
  C  C845  1  0.673600  0.776900  0.759500  1
  C  C846  1  0.826400  0.223100  0.259500  1
  C  C847  1  0.173600  0.723100  0.240500  1
  C  C848  1  0.326400  0.276900  0.740500  1
  C  C849  1  0.620800  0.746400  0.741900  1
  C  C850  1  0.879200  0.253600  0.241900  1
  C  C851  1  0.120800  0.753600  0.258100  1
  C  C852  1  0.379200  0.246400  0.758100  1
  C  C853  1  0.622000  0.610300  0.628130  1
  C  C854  1  0.878000  0.389700  0.128130  1
  C  C855  1  0.122000  0.889700  0.371870  1
  C  C856  1  0.378000  0.110300  0.871870  1
  C  C857  1  0.613400  0.501000  0.593900  1
  C  C858  1  0.886600  0.499000  0.093900  1
  C  C859  1  0.113400  0.999000  0.406100  1
  C  C860  1  0.386600  0.001000  0.906100  1
  C  C861  1  0.619600  0.632600  0.572570  1
  C  C862  1  0.880400  0.367400  0.072570  1
  C  C863  1  0.119600  0.867400  0.427430  1
  C  C864  1  0.380400  0.132600  0.927430  1
  C  C865  1  0.744700  0.541000  0.566640  1
  C  C866  1  0.755300  0.459000  0.066640  1
  C  C867  1  0.244700  0.959000  0.433360  1
  C  C868  1  0.255300  0.041000  0.933360  1
  C  C869  1  0.750500  0.663600  0.602360  1
  C  C870  1  0.749500  0.336400  0.102360  1
  C  C871  1  0.250500  0.836400  0.397640  1
  C  C872  1  0.249500  0.163600  0.897640  1
  C  C873  1  0.747700  0.522900  0.623650  1
  C  C874  1  0.752300  0.477100  0.123650  1
  C  C875  1  0.247700  0.977100  0.376350  1
  C  C876  1  0.252300  0.022900  0.876350  1
  C  C877  1  0.369300  0.627700  0.571180  1
  C  C878  1  0.130700  0.372300  0.071180  1
  C  C879  1  0.869300  0.872300  0.428820  1
  C  C880  1  0.630700  0.127700  0.928820  1
  C  C881  1  0.365700  0.510400  0.605380  1
  C  C882  1  0.134300  0.489600  0.105380  1
  C  C883  1  0.865700  0.989600  0.394620  1
  C  C884  1  0.634300  0.010400  0.894620  1
  C  C885  1  0.377200  0.638200  0.628970  1
  C  C886  1  0.122800  0.361800  0.128970  1
  C  C887  1  0.877200  0.861800  0.371030  1
  C  C888  1  0.622800  0.138200  0.871030  1
  C  C889  1  0.238400  0.548400  0.576160  1
  C  C890  1  0.261600  0.451600  0.076160  1
  C  C891  1  0.738400  0.951600  0.423840  1
  C  C892  1  0.761600  0.048400  0.923840  1
  C  C893  1  0.244300  0.681100  0.601760  1
  C  C894  1  0.255700  0.318900  0.101760  1
  C  C895  1  0.744300  0.818900  0.398240  1
  C  C896  1  0.755700  0.181100  0.898240  1
  C  C897  1  0.247000  0.562200  0.632920  1
  C  C898  1  0.253000  0.437800  0.132920  1
  C  C899  1  0.747000  0.937800  0.367080  1
  C  C900  1  0.753000  0.062200  0.867080  1
  N  N901  1  0.995800  0.581200  0.607400  1
  N  N902  1  0.504200  0.418800  0.107400  1
  N  N903  1  0.495800  0.918800  0.392600  1
  N  N904  1  0.004200  0.081200  0.892600  1
  N  N905  1  0.411800  0.314200  0.627460  1
  N  N906  1  0.088200  0.685800  0.127460  1
  N  N907  1  0.911800  0.185800  0.372540  1
  N  N908  1  0.588200  0.814200  0.872540  1
  N  N909  1  0.574400  0.304900  0.592060  1
  N  N910  1  0.925600  0.695100  0.092060  1
  N  N911  1  0.074400  0.195100  0.407940  1
  N  N912  1  0.425600  0.804900  0.907940  1
  N  N913  1  0.570100  0.455300  0.592240  1
  N  N914  1  0.929900  0.544700  0.092240  1
  N  N915  1  0.070100  0.044700  0.407760  1
  N  N916  1  0.429900  0.955300  0.907760  1
  N  N917  1  0.404500  0.461400  0.606810  1
  N  N918  1  0.095500  0.538600  0.106810  1
  N  N919  1  0.904500  0.038600  0.393190  1
  N  N920  1  0.595500  0.961400  0.893190  1
  N  N921  1  0.519600  0.604600  0.508110  1
  N  N922  1  0.980400  0.395400  0.008110  1
  N  N923  1  0.019600  0.895400  0.491890  1
  N  N924  1  0.480400  0.104600  0.991890  1
  N  N925  1  0.472400  0.792100  0.552730  1
  N  N926  1  0.027600  0.207900  0.052730  1
  N  N927  1  0.972400  0.707900  0.447270  1
  N  N928  1  0.527600  0.292100  0.947270  1
  N  N929  1  0.408900  0.650700  0.553500  1
  N  N930  1  0.091100  0.349300  0.053500  1
  N  N931  1  0.908900  0.849300  0.446500  1
  N  N932  1  0.591100  0.150700  0.946500  1
  N  N933  1  0.577900  0.663100  0.557670  1
  N  N934  1  0.922100  0.336900  0.057670  1
  N  N935  1  0.077900  0.836900  0.442330  1
  N  N936  1  0.422100  0.163100  0.942330  1
  N  N937  1  0.578900  0.654000  0.709040  1
  N  N938  1  0.921100  0.346000  0.209040  1
  N  N939  1  0.078900  0.846000  0.290960  1
  N  N940  1  0.421100  0.154000  0.790960  1
  N  N941  1  0.418200  0.729500  0.694510  1
  N  N942  1  0.081800  0.270500  0.194510  1
  N  N943  1  0.918200  0.770500  0.305490  1
  N  N944  1  0.581800  0.229500  0.805490  1
  N  N945  1  0.537300  0.771700  0.666460  1
  N  N946  1  0.962700  0.228300  0.166460  1
  N  N947  1  0.037300  0.728300  0.333540  1
  N  N948  1  0.462700  0.271700  0.833540  1
  N  N949  1  0.422600  0.660000  0.642540  1
  N  N950  1  0.077400  0.340000  0.142540  1
  N  N951  1  0.922600  0.840000  0.357460  1
  N  N952  1  0.577400  0.160000  0.857460  1
  N  N953  1  0.585600  0.627600  0.647620  1
  N  N954  1  0.914400  0.372400  0.147620  1
  N  N955  1  0.085600  0.872400  0.352380  1
  N  N956  1  0.414400  0.127600  0.852380  1
  N  N957  1  0.783700  0.491500  0.639140  1
  N  N958  1  0.716300  0.508500  0.139140  1
  N  N959  1  0.283700  0.008500  0.360860  1
  N  N960  1  0.216300  0.991500  0.860860  1
  N  N961  1  0.779500  0.519900  0.548050  1
  N  N962  1  0.720500  0.480100  0.048050  1
  N  N963  1  0.279500  0.980100  0.451950  1
  N  N964  1  0.220500  0.019900  0.951950  1
  N  N965  1  0.787000  0.712200  0.606020  1
  N  N966  1  0.713000  0.287800  0.106020  1
  N  N967  1  0.287000  0.787800  0.393980  1
  N  N968  1  0.213000  0.212200  0.893980  1
  N  N969  1  0.201300  0.517900  0.560980  1
  N  N970  1  0.298700  0.482100  0.060980  1
  N  N971  1  0.701300  0.982100  0.439020  1
  N  N972  1  0.798700  0.017900  0.939020  1
  N  N973  1  0.212800  0.734300  0.602100  1
  N  N974  1  0.287200  0.265700  0.102100  1
  N  N975  1  0.712800  0.765700  0.397900  1
  N  N976  1  0.787200  0.234300  0.897900  1
  N  N977  1  0.209300  0.541000  0.651700  1
  N  N978  1  0.290700  0.459000  0.151700  1
  N  N979  1  0.709300  0.959000  0.348300  1
  N  N980  1  0.790700  0.041000  0.848300  1
  N  N981  1  0.528200  0.390900  0.646990  1
  N  N982  1  0.971800  0.609100  0.146990  1
  N  N983  1  0.028200  0.109100  0.353010  1
  N  N984  1  0.471800  0.890900  0.853010  1
  N  N985  1  0.449500  0.350300  0.564930  1
  N  N986  1  0.050500  0.649700  0.064930  1
  N  N987  1  0.949500  0.149700  0.435070  1
  N  N988  1  0.550500  0.850300  0.935070  1
  N  N989  1  0.580800  0.730100  0.502250  1
  N  N990  1  0.919200  0.269900  0.002250  1
  N  N991  1  0.080800  0.769900  0.497750  1
  N  N992  1  0.419200  0.230100  0.997750  1
  N  N993  1  0.412000  0.741000  0.504880  1
  N  N994  1  0.088000  0.259000  0.004880  1
  N  N995  1  0.912000  0.759000  0.495120  1
  N  N996  1  0.588000  0.241000  0.995120  1
  N  N997  1  0.461700  0.569300  0.691970  1
  N  N998  1  0.038300  0.430700  0.191970  1
  N  N999  1  0.961700  0.930700  0.308030  1
  N  N1000  1  0.538300  0.069300  0.808030  1
  Cl  Cl1001  1  0.480600  0.111790  0.689190  1
  Cl  Cl1002  1  0.019400  0.888210  0.189190  1
  Cl  Cl1003  1  0.980600  0.388210  0.310810  1
  Cl  Cl1004  1  0.519400  0.611790  0.810810  1
  O  O1005  1  0.509000  0.135200  0.712310  1
  O  O1006  1  0.991000  0.864800  0.212310  1
  O  O1007  1  0.009000  0.364800  0.287690  1
  O  O1008  1  0.491000  0.635200  0.787690  1
  O  O1009  1  0.455100  0.059600  0.702800  1
  O  O1010  1  0.044900  0.940400  0.202800  1
  O  O1011  1  0.955100  0.440400  0.297200  1
  O  O1012  1  0.544900  0.559600  0.797200  1
  O  O1013  1  0.522300  0.097000  0.664910  1
  O  O1014  1  0.977700  0.903000  0.164910  1
  O  O1015  1  0.022300  0.403000  0.335090  1
  O  O1016  1  0.477700  0.597000  0.835090  1
  O  O1017  1  0.533300  0.164200  0.686650  1
  O  O1018  1  0.966700  0.835800  0.186650  1
  O  O1019  1  0.033300  0.335800  0.313350  1
  O  O1020  1  0.466700  0.664200  0.813350  1
