
#######################################################################
#
#                 Cambridge Crystallographic Data Centre
#                                CCDC 
#
#######################################################################
#
# If this CIF has been generated from an entry in the Cambridge 
# Structural Database, then it will include bibliographic, chemical, 
# crystal, experimental, refinement or atomic coordinate data resulting 
# from the CCDC's data processing and validation procedures.
#
#######################################################################

data_OXOJUI04
_chemical_formula_moiety         
'C108 H96 Co3 Fe2 N24,C8 H20 N1 1+,13(C2 H6 O1),Cl1 O4 1-'
_chemical_name_systematic        
'tetraethylammonium hexakis(\m-cyano)-hexakis(1-(pyridin-2-yl)-N-(1,2,3,4-tetrahydronaphthalen-1-yl)methanimine)-hexacyano-tri-cobalt-di-iron perchlorate ethanol solvate'
_symmetry_cell_setting           orthorhombic
_symmetry_space_group_name_H-M   'P 21 21 21'
_symmetry_Int_Tables_number      19
_space_group_name_Hall           'P 2ac 2ab'
loop_
_symmetry_equiv_pos_site_id
_symmetry_equiv_pos_as_xyz
1 x,y,z
2 1/2-x,-y,1/2+z
3 1/2+x,1/2-y,-z
4 -x,1/2+y,1/2-z
_cell_length_a                   16.6410(11)
_cell_length_b                   18.9061(13)
_cell_length_c                   46.041(3)
_cell_angle_alpha                90
_cell_angle_beta                 90
_cell_angle_gamma                90
_cell_volume                     14485.3
_exptl_crystal_colour            green
_exptl_crystal_description       needle
_cell_formula_units_Z            4
loop_
_atom_site_label
_atom_site_type_symbol
_atom_site_fract_x
_atom_site_fract_y
_atom_site_fract_z
Co1 Co 0.99150(5) 0.33535(5) 0.324347(19)
Co2 Co 0.97928(5) 0.31120(5) 0.473036(19)
Co3 Co 0.97088(5) 0.61397(4) 0.395548(19)
Fe1 Fe 0.79473(5) 0.39692(5) 0.39730(2)
Fe2 Fe 1.16554(5) 0.41612(5) 0.403142(19)
N1 N 1.0212(4) 0.2389(3) 0.33415(12)
N2 N 0.9130(4) 0.2875(3) 0.29988(13)
N3 N 1.0711(4) 0.3452(3) 0.29316(13)
N4 N 0.9584(3) 0.4274(3) 0.31032(12)
N5 N 1.0671(3) 0.3744(3) 0.35030(12)
N6 N 0.9148(3) 0.3354(3) 0.35414(12)
N7 N 0.9604(3) 0.2197(3) 0.45503(13)
N8 N 0.8986(4) 0.2770(3) 0.50012(13)
N9 N 1.0612(4) 0.2798(3) 0.50088(14)
N10 N 0.9988(3) 0.4028(3) 0.49125(11)
N11 N 1.0586(3) 0.3379(3) 0.44607(12)
N12 N 0.8988(3) 0.3446(3) 0.44755(12)
N13 N 0.9237(4) 0.6523(3) 0.43577(13)
N14 N 1.0603(4) 0.6933(3) 0.40898(13)
N15 N 0.9034(4) 0.6915(3) 0.37091(12)
N16 N 1.0207(3) 0.6091(3) 0.35191(12)
N17 N 0.8843(3) 0.5378(3) 0.39252(12)
N18 N 1.0530(3) 0.5426(3) 0.40966(12)
N19 N 0.7027(5) 0.4605(4) 0.34505(17)
N20 N 0.6931(4) 0.2616(3) 0.39149(15)
N21 N 0.6824(4) 0.4655(3) 0.44184(15)
N22 N 1.2627(4) 0.2796(3) 0.39180(13)
N23 N 1.2587(4) 0.4673(3) 0.45770(14)
N24 N 1.2702(3) 0.5056(3) 0.36198(13)
C1 C 1.0838(5) 0.2174(4) 0.34996(18)
H1 H 1.1184 0.2515 0.3585
C2 C 1.0993(6) 0.1459(5) 0.35412(19)
H2 H 1.1454 0.1313 0.3647
C3 C 1.0471(7) 0.0961(5) 0.3428(2)
H3 H 1.0546 0.0472 0.3467
C4 C 0.9846(7) 0.1187(4) 0.3258(2)
H4 H 0.9497 0.0855 0.3169
C5 C 0.9729(5) 0.1897(4) 0.32198(18)
C6 C 0.9120(5) 0.2206(4) 0.30404(17)
H5 H 0.8716 0.1920 0.2954
C7 C 0.8534(5) 0.3195(5) 0.27853(19)
H6 H 0.8540 0.3721 0.2807
C8 C 0.8841(6) 0.3002(6) 0.2476(2)
H7 H 0.9371 0.3225 0.2442
H8 H 0.8909 0.2483 0.2461
C9 C 0.8270(6) 0.3244(7) 0.2251(2)
H9 H 0.8496 0.3164 0.2054
H10 H 0.8159 0.3756 0.2274
C10 C 0.7514(7) 0.2825(8) 0.2289(2)
H11 H 0.7091 0.3031 0.2164
H12 H 0.7611 0.2335 0.2222
C11 C 0.7213(7) 0.2800(9) 0.2592(3)
C12 C 0.6395(7) 0.2644(9) 0.2659(3)
H13 H 0.6053 0.2519 0.2502
C13 C 0.6070(7) 0.2660(9) 0.2926(2)
H14 H 0.5504 0.2642 0.2954
C14 C 0.6608(7) 0.2705(8) 0.3169(3)
H15 H 0.6424 0.2619 0.3362
C15 C 0.7375(7) 0.2872(9) 0.3118(3)
H16 H 0.7719 0.2953 0.3280
C16 C 0.7701(7) 0.2934(9) 0.2834(3)
C17 C 0.8996(4) 0.4689(4) 0.32080(17)
H17 H 0.8750 0.4572 0.3388
C18 C 0.8743(5) 0.5287(4) 0.30585(18)
H18 H 0.8319 0.5570 0.3133
C19 C 0.9114(6) 0.5465(5) 0.28005(18)
H19 H 0.8935 0.5865 0.2693
C20 C 0.9743(6) 0.5062(5) 0.26984(19)
H20 H 1.0022 0.5191 0.2526
C21 C 0.9961(4) 0.4459(4) 0.28539(15)
C22 C 1.0614(4) 0.4000(4) 0.27815(15)
H21 H 1.0965 0.4106 0.2625
C23 C 1.1433(5) 0.2988(4) 0.2898(2)
H22 H 1.1566 0.2804 0.3096
C24 C 1.1234(6) 0.2338(6) 0.2708(3)
H23 H 1.1601 0.1944 0.2758
H24 H 1.0676 0.2182 0.2747
C25 C 1.1321(7) 0.2519(6) 0.2399(2)
H25 H 1.0933 0.2899 0.2351
H26 H 1.1174 0.2099 0.2282
C26 C 1.2158(6) 0.2761(6) 0.2307(2)
H27 H 1.2128 0.2979 0.2112
H28 H 1.2519 0.2346 0.2295
C27 C 1.2508(5) 0.3298(5) 0.2523(2)
C28 C 1.3186(6) 0.3663(6) 0.2457(2)
H29 H 1.3440 0.3587 0.2275
C29 C 1.3513(6) 0.4141(6) 0.2649(3)
H30 H 1.3980 0.4401 0.2597
C30 C 1.3172(5) 0.4241(5) 0.2910(2)
H31 H 1.3403 0.4566 0.3043
C31 C 1.2483(5) 0.3872(4) 0.29859(18)
H32 H 1.2240 0.3949 0.3170
C32 C 1.2153(4) 0.3394(4) 0.27952(19)
C33 C 0.8712(5) 0.3077(5) 0.52413(18)
H33 H 0.8931 0.3521 0.5297
C34 C 0.8125(5) 0.2778(5) 0.54123(19)
H34 H 0.7930 0.3018 0.5579
C35 C 0.7829(5) 0.2129(5) 0.5338(2)
H35 H 0.7424 0.1912 0.5453
C36 C 0.8122(5) 0.1790(5) 0.5094(2)
H36 H 0.7930 0.1336 0.5040
C37 C 0.8699(4) 0.2130(4) 0.49341(17)
C38 C 0.9066(5) 0.1839(4) 0.46734(19)
H37 H 0.8905 0.1393 0.4599
C39 C 0.9990(4) 0.1982(4) 0.42724(17)
H38 H 1.0034 0.2414 0.4148
C40 C 1.0853(4) 0.1714(4) 0.43309(18)
H39 H 1.1176 0.1749 0.4151
H40 H 1.1110 0.2013 0.4481
C41 C 1.0833(5) 0.0945(4) 0.4434(2)
H41 H 1.1384 0.0790 0.4483
H42 H 1.0500 0.0910 0.4612
C42 C 1.0502(6) 0.0481(4) 0.4209(2)
H43 H 1.0409 0.0007 0.4294
H44 H 1.0905 0.0429 0.4053
C43 C 0.9729(6) 0.0742(4) 0.4079(2)
C44 C 0.9227(6) 0.0298(5) 0.3928(3)
H45 H 0.9373 -0.0185 0.3907
C45 C 0.8516(7) 0.0529(5) 0.3805(3)
H46 H 0.8170 0.0201 0.3711
C46 C 0.8306(6) 0.1244(5) 0.3818(3)
H47 H 0.7843 0.1416 0.3721
C47 C 0.8783(5) 0.1686(4) 0.3976(2)
H48 H 0.8628 0.2167 0.3996
C48 C 0.9504(5) 0.1456(4) 0.41104(19)
C49 C 1.0858(5) 0.2128(5) 0.50503(18)
H49 H 1.0617 0.1747 0.4948
C50 C 1.1495(5) 0.2005(5) 0.52538(19)
H50 H 1.1681 0.1536 0.5285
C51 C 1.1846(6) 0.2560(6) 0.5406(2)
H51 H 1.2275 0.2485 0.5538
C52 C 1.1536(5) 0.3225(5) 0.53533(18)
H52 H 1.1751 0.3616 0.5457
C53 C 1.0937(5) 0.3343(4) 0.51595(16)
C54 C 1.0573(4) 0.4012(4) 0.50991(15)
H53 H 1.0752 0.4431 0.5193
C55 C 0.9595(4) 0.4714(3) 0.48238(15)
H54 H 0.9601 0.4730 0.4607
C56 C 0.8719(4) 0.4717(4) 0.49173(15)
H55 H 0.8417 0.5064 0.4798
H56 H 0.8482 0.4244 0.4883
C57 C 0.8639(5) 0.4908(4) 0.52351(17)
H57 H 0.8965 0.4579 0.5354
H58 H 0.8071 0.4863 0.5296
C58 C 0.8928(5) 0.5671(4) 0.52846(18)
H59 H 0.8535 0.6004 0.5198
H60 H 0.8953 0.5767 0.5496
C59 C 0.9748(4) 0.5799(4) 0.51510(16)
C60 C 1.0208(5) 0.6380(4) 0.52353(17)
H61 H 1.0005 0.6685 0.5382
C61 C 1.0934(5) 0.6525(4) 0.51162(17)
H62 H 1.1230 0.6925 0.5180
C62 C 1.1247(5) 0.6091(4) 0.49012(16)
H63 H 1.1752 0.6195 0.4815
C63 C 1.0814(4) 0.5508(4) 0.48144(15)
H64 H 1.1036 0.5204 0.4671
C64 C 1.0062(4) 0.5351(4) 0.49301(15)
C65 C 0.8514(4) 0.6391(4) 0.44586(17)
H65 H 0.8199 0.6029 0.4372
C66 C 0.8203(6) 0.6773(5) 0.46892(18)
H66 H 0.7675 0.6672 0.4755
C67 C 0.8632(6) 0.7283(5) 0.4822(2)
H67 H 0.8408 0.7556 0.4975
C68 C 0.9431(6) 0.7400(4) 0.47244(17)
H68 H 0.9770 0.7733 0.4818
C69 C 0.9700(5) 0.7017(4) 0.44904(15)
C70 C 1.0475(5) 0.7154(4) 0.43549(16)
H69 H 1.0883 0.7400 0.4458
C71 C 1.1359(5) 0.7076(4) 0.39344(18)
H70 H 1.1425 0.6688 0.3789
C72 C 1.1247(6) 0.7763(5) 0.3760(2)
H71 H 1.1598 0.7753 0.3587
H72 H 1.0683 0.7798 0.3694
C73 C 1.1445(7) 0.8383(5) 0.3938(3)
H73 H 1.1104 0.8383 0.4115
H74 H 1.1325 0.8818 0.3827
C74 C 1.2307(7) 0.8388(5) 0.4026(3)
H75 H 1.2396 0.8773 0.4168
H76 H 1.2643 0.8487 0.3853
C75 C 1.2566(6) 0.7695(5) 0.4159(2)
C76 C 1.3294(6) 0.7617(5) 0.4318(2)
H77 H 1.3614 0.8025 0.4350
C77 C 1.3561(6) 0.6978(5) 0.4429(2)
H78 H 1.4060 0.6952 0.4529
C78 C 1.3097(5) 0.6384(5) 0.4394(2)
H79 H 1.3252 0.5945 0.4477
C79 C 1.2384(5) 0.6445(4) 0.42310(17)
H80 H 1.2073 0.6032 0.4197
C80 C 1.2119(5) 0.7079(4) 0.41195(16)
C81 C 1.0817(4) 0.5673(3) 0.34283(14)
H81 H 1.0985 0.5290 0.3548
C82 C 1.1200(4) 0.5786(4) 0.31685(16)
H82 H 1.1629 0.5485 0.3111
C83 C 1.0968(5) 0.6324(4) 0.29931(18)
H83 H 1.1231 0.6406 0.2813
C84 C 1.0343(5) 0.6749(4) 0.30812(15)
H84 H 1.0169 0.7130 0.2962
C85 C 0.9968(4) 0.6616(4) 0.33466(15)
C86 C 0.9278(5) 0.7016(4) 0.34520(16)
H85 H 0.9016 0.7348 0.3330
C87 C 0.8338(5) 0.7325(4) 0.38097(17)
H86 H 0.8152 0.7106 0.3996
C88 C 0.8634(6) 0.8102(5) 0.3884(2)
H87 H 0.8979 0.8087 0.4059
H88 H 0.8962 0.8284 0.3721
C89 C 0.7950(6) 0.8592(5) 0.3937(2)
H89 H 0.8150 0.9063 0.3996
H90 H 0.7599 0.8406 0.4092
C90 C 0.7487(6) 0.8644(4) 0.36506(19)
H91 H 0.7001 0.8936 0.3682
H92 H 0.7827 0.8889 0.3506
C91 C 0.7241(5) 0.7943(5) 0.35309(17)
C92 C 0.7624(5) 0.7326(4) 0.36025(16)
C93 C 0.7350(5) 0.6672(5) 0.3498(2)
H93 H 0.7613 0.6246 0.3552
C94 C 0.6683(7) 0.6653(7) 0.3311(2)
H94 H 0.6499 0.6221 0.3230
C95 C 0.6296(6) 0.7299(8) 0.3249(2)
H95 H 0.5832 0.7295 0.3129
C96 C 0.6556(6) 0.7911(6) 0.3352(2)
H96 H 0.6276 0.8334 0.3305
C97 C 0.8514(4) 0.4834(3) 0.39539(16)
C98 C 0.8696(4) 0.3577(3) 0.37137(15)
C99 C 0.8584(4) 0.3635(3) 0.42840(15)
C100 C 0.7313(4) 0.3123(4) 0.39444(17)
C101 C 0.7231(4) 0.4390(4) 0.42476(17)
C102 C 0.7347(4) 0.4353(4) 0.36482(18)
C103 C 1.0993(4) 0.3673(3) 0.42920(14)
C104 C 1.1026(4) 0.3899(3) 0.37107(15)
C105 C 1.0972(4) 0.4950(3) 0.40768(14)
C106 C 1.2296(4) 0.3328(4) 0.39657(15)
C107 C 1.2260(4) 0.4467(4) 0.43629(15)
C108 C 1.2339(4) 0.4719(4) 0.37768(15)
N25 N 1.4765(4) 0.4126(4) 0.39424(17)
C109 C 1.4244(5) 0.3849(6) 0.3693(2)
H97 H 1.3874 0.3486 0.3772
H98 H 1.3910 0.4245 0.3620
C110 C 1.4674(7) 0.3541(9) 0.3446(3)
H99 H 1.4289 0.3414 0.3294
H100 H 1.4961 0.3116 0.3510
H101 H 1.5059 0.3886 0.3370
C111 C 1.4202(5) 0.4374(5) 0.4172(2)
H102 H 1.3844 0.3976 0.4225
H103 H 1.3861 0.4752 0.4089
C112 C 1.4585(6) 0.4653(7) 0.4447(3)
H104 H 1.4901 0.5077 0.4402
H105 H 1.4938 0.4290 0.4530
H106 H 1.4164 0.4774 0.4588
C113 C 1.5320(6) 0.4702(7) 0.3851(3)
H107 H 1.5689 0.4514 0.3701
H108 H 1.5649 0.4845 0.4020
C114 C 1.4886(8) 0.5379(8) 0.3725(4)
H109 H 1.4860 0.5346 0.3513
H110 H 1.5188 0.5804 0.3780
H111 H 1.4340 0.5409 0.3804
C115 C 1.5309(5) 0.3547(6) 0.4059(2)
H112 H 1.5675 0.3754 0.4206
H113 H 1.5644 0.3364 0.3898
C116 C 1.4852(7) 0.2928(6) 0.4197(3)
H114 H 1.4470 0.2734 0.4056
H115 H 1.4559 0.3097 0.4369
H116 H 1.5233 0.2560 0.4255
Cl1 Cl 1.02436(16) 0.40806(11) 0.18664(5)
O1 O 0.9963(9) 0.4416(7) 0.2100(3)
O2 O 1.0173(9) 0.3410(4) 0.1865(2)
O3 O 1.0820(8) 0.4459(6) 0.1722(4)
O4 O 0.9648(11) 0.4217(9) 0.1644(3)
C117 C 1.2477(7) 0.5301(6) 0.2046(2)
C118 C 1.1978(7) 0.5412(6) 0.2316(2)
O5 O 1.2024(7) 0.6119(6) 0.2362(2)
O7 O 1.3320(5) 0.6078(5) 0.32649(17)
H117 H 1.3145 0.5724 0.3360
C119 C 1.3172(9) 0.6663(8) 0.3421(3)
H118 H 1.2972 0.6513 0.3614
H119 H 1.2731 0.6924 0.3325
C120 C 1.3872(11) 0.7181(15) 0.3470(5)
H120 H 1.4164 0.7247 0.3287
H121 H 1.4237 0.6989 0.3617
H122 H 1.3660 0.7637 0.3536
O8 O 1.3405(8) 0.6165(8) 0.2678(4)
H123 H 1.3388 0.6134 0.2862
C121 C 1.4153(11) 0.6030(13) 0.2582(5)
H124 H 1.4220 0.6247 0.2388
H125 H 1.4218 0.5513 0.2560
C122 C 1.4816(12) 0.6307(12) 0.2783(5)
H126 H 1.5309 0.6381 0.2671
H127 H 1.4918 0.5960 0.2937
H128 H 1.4645 0.6755 0.2870
O9 O 1.2708(12) 0.4704(6) 0.5185(2)
H129 H 1.2707 0.4794 0.5004
C123 C 1.3768(17) 0.5556(13) 0.5258(8)
H130 H 1.4030 0.5273 0.5107
H131 H 1.4111 0.5572 0.5430
H132 H 1.3682 0.6038 0.5185
C124 C 1.2958(12) 0.5223(8) 0.5336(3)
H133 H 1.2988 0.5065 0.5541
H134 H 1.2545 0.5599 0.5327
C125 C 0.7155(15) 0.4741(14) 0.2775(4)
H135 H 0.7327 0.4827 0.2575
H136 H 0.7379 0.4291 0.2843
H137 H 0.7345 0.5126 0.2900
C126 C 0.6215(16) 0.4706(13) 0.2787(4)
H138 H 0.5960 0.4909 0.2611
H139 H 0.6013 0.4220 0.2821
O10 O 0.6135(13) 0.5107(9) 0.3012(3)
H140 H 0.6448 0.4949 0.3143
O11 O 0.6344(7) 0.6056(5) 0.4469(2)
H141 H 0.6488 0.5625 0.4464
C127 C 0.6400(9) 0.6366(6) 0.4193(2)
H142 H 0.6122 0.6059 0.4050
H143 H 0.6973 0.6393 0.4136
C128 C 0.6060(11) 0.7055(7) 0.4181(3)
H144 H 0.5790 0.7122 0.3994
H145 H 0.6487 0.7408 0.4203
H146 H 0.5670 0.7110 0.4339
O12 O 0.5649(8) 0.6507(5) 0.4959(2)
H147 H 0.5583 0.6341 0.4792
C129 C 0.6593(8) 0.5796(9) 0.5224(4)
H148 H 0.6857 0.5586 0.5054
H149 H 0.6602 0.5460 0.5385
H150 H 0.6877 0.6229 0.5280
C130 C 0.5755(13) 0.5969(9) 0.5151(4)
H151 H 0.5499 0.5539 0.5070
H152 H 0.5469 0.6089 0.5332
O13 O 0.5974(6) 0.1455(5) 0.39086(18)
H153 H 0.6274 0.1819 0.3906
C131 C 0.5579(11) 0.1395(11) 0.3634(4)
H154 H 0.5066 0.1133 0.3650
H155 H 0.5479 0.1864 0.3546
C132 C 0.6165(10) 0.1005(10) 0.3477(5)
H156 H 0.5940 0.0861 0.3289
H157 H 0.6318 0.0584 0.3588
H158 H 0.6640 0.1301 0.3445
O14 O 1.2583(5) 0.1306(5) 0.3973(2)
H159 H 1.2640 0.1750 0.3952
C133 C 1.3227(10) 0.0960(8) 0.3909(5)
H160 H 1.3652 0.1070 0.4052
H161 H 1.3421 0.1108 0.3715
C134 C 1.3067(12) 0.0184(7) 0.3908(5)
H162 H 1.2874 0.0040 0.3716
H163 H 1.2659 0.0073 0.4055
H164 H 1.3564 -0.0071 0.3954
O15 O 1.0332(14) 0.4493(12) 0.5705(3)
H165 H 1.0415 0.4120 0.5803
C135 C 1.0911(15) 0.4902(17) 0.5781(6)
C136 C 1.043(2) 0.5433(14) 0.5954(4)
O16 O 0.7552(14) 0.5592(15) 0.2380(5)
C137 C 0.7599(19) 0.5175(18) 0.1946(6)
H166 H 0.7725 0.5443 0.1770
H167 H 0.7024 0.5216 0.1988
H168 H 0.7737 0.4676 0.1917
C138 C 0.8044(16) 0.545(2) 0.2179(7)
C139 C 0.620(3) 0.6863(15) 0.2081(8)
O17 O 0.6201(17) 0.6210(11) 0.2072(6)
C140 C 0.664(3) 0.7028(15) 0.1805(9)
C141 C 0.538(5) 0.442(2) 0.1803(6)
C142 C 0.548(4) 0.3770(17) 0.1983(11)
O18 O 0.525(3) 0.4853(17) 0.1993(7)
loop_
_geom_bond_atom_site_label_1
_geom_bond_atom_site_label_2
_geom_bond_site_symmetry_1
_geom_bond_site_symmetry_2
Co1 N1 1_555 1_555
Co2 N7 1_555 1_555
Co3 N13 1_555 1_555
Fe1 C97 1_555 1_555
Fe2 C103 1_555 1_555
N1 C1 1_555 1_555
N2 Co1 1_555 1_555
N3 Co1 1_555 1_555
N4 Co1 1_555 1_555
N5 Co1 1_555 1_555
N6 Co1 1_555 1_555
N7 C38 1_555 1_555
N8 Co2 1_555 1_555
N9 Co2 1_555 1_555
N10 Co2 1_555 1_555
N11 Co2 1_555 1_555
N12 Co2 1_555 1_555
N13 C65 1_555 1_555
N14 Co3 1_555 1_555
N15 Co3 1_555 1_555
N16 Co3 1_555 1_555
N17 Co3 1_555 1_555
N18 Co3 1_555 1_555
N19 C102 1_555 1_555
N20 C100 1_555 1_555
N21 C101 1_555 1_555
N22 C106 1_555 1_555
N23 C107 1_555 1_555
N24 C108 1_555 1_555
C1 H1 1_555 1_555
C2 C1 1_555 1_555
H2 C2 1_555 1_555
C3 C2 1_555 1_555
H3 C3 1_555 1_555
C4 C3 1_555 1_555
H4 C4 1_555 1_555
C5 N1 1_555 1_555
C6 N2 1_555 1_555
H5 C6 1_555 1_555
C7 N2 1_555 1_555
H6 C7 1_555 1_555
C8 C7 1_555 1_555
H7 C8 1_555 1_555
H8 C8 1_555 1_555
C9 C8 1_555 1_555
H9 C9 1_555 1_555
H10 C9 1_555 1_555
C10 C9 1_555 1_555
H11 C10 1_555 1_555
H12 C10 1_555 1_555
C11 C10 1_555 1_555
C12 C11 1_555 1_555
H13 C12 1_555 1_555
C13 C12 1_555 1_555
H14 C13 1_555 1_555
C14 C13 1_555 1_555
H15 C14 1_555 1_555
C15 C14 1_555 1_555
H16 C15 1_555 1_555
C16 C7 1_555 1_555
C17 N4 1_555 1_555
H17 C17 1_555 1_555
C18 C17 1_555 1_555
H18 C18 1_555 1_555
C19 C18 1_555 1_555
H19 C19 1_555 1_555
C20 C19 1_555 1_555
H20 C20 1_555 1_555
C21 N4 1_555 1_555
C22 N3 1_555 1_555
H21 C22 1_555 1_555
C23 N3 1_555 1_555
H22 C23 1_555 1_555
C24 C23 1_555 1_555
H23 C24 1_555 1_555
H24 C24 1_555 1_555
C25 C24 1_555 1_555
H25 C25 1_555 1_555
H26 C25 1_555 1_555
C26 C25 1_555 1_555
H27 C26 1_555 1_555
H28 C26 1_555 1_555
C27 C26 1_555 1_555
C28 C27 1_555 1_555
H29 C28 1_555 1_555
C29 C28 1_555 1_555
H30 C29 1_555 1_555
C30 C29 1_555 1_555
H31 C30 1_555 1_555
C31 C30 1_555 1_555
H32 C31 1_555 1_555
C32 C23 1_555 1_555
C33 N8 1_555 1_555
H33 C33 1_555 1_555
C34 C33 1_555 1_555
H34 C34 1_555 1_555
C35 C34 1_555 1_555
H35 C35 1_555 1_555
C36 C35 1_555 1_555
H36 C36 1_555 1_555
C37 N8 1_555 1_555
C38 C37 1_555 1_555
H37 C38 1_555 1_555
C39 N7 1_555 1_555
H38 C39 1_555 1_555
C40 C39 1_555 1_555
H39 C40 1_555 1_555
H40 C40 1_555 1_555
C41 C40 1_555 1_555
H41 C41 1_555 1_555
H42 C41 1_555 1_555
C42 C41 1_555 1_555
H43 C42 1_555 1_555
H44 C42 1_555 1_555
C43 C42 1_555 1_555
C44 C43 1_555 1_555
H45 C44 1_555 1_555
C45 C44 1_555 1_555
H46 C45 1_555 1_555
C46 C45 1_555 1_555
H47 C46 1_555 1_555
C47 C46 1_555 1_555
H48 C47 1_555 1_555
C48 C39 1_555 1_555
C49 N9 1_555 1_555
H49 C49 1_555 1_555
C50 C49 1_555 1_555
H50 C50 1_555 1_555
C51 C50 1_555 1_555
H51 C51 1_555 1_555
C52 C51 1_555 1_555
H52 C52 1_555 1_555
C53 N9 1_555 1_555
C54 N10 1_555 1_555
H53 C54 1_555 1_555
C55 N10 1_555 1_555
H54 C55 1_555 1_555
C56 C55 1_555 1_555
H55 C56 1_555 1_555
H56 C56 1_555 1_555
C57 C56 1_555 1_555
H57 C57 1_555 1_555
H58 C57 1_555 1_555
C58 C57 1_555 1_555
H59 C58 1_555 1_555
H60 C58 1_555 1_555
C59 C58 1_555 1_555
C60 C59 1_555 1_555
H61 C60 1_555 1_555
C61 C60 1_555 1_555
H62 C61 1_555 1_555
C62 C61 1_555 1_555
H63 C62 1_555 1_555
C63 C62 1_555 1_555
H64 C63 1_555 1_555
C64 C55 1_555 1_555
C65 H65 1_555 1_555
C66 C65 1_555 1_555
H66 C66 1_555 1_555
C67 C66 1_555 1_555
H67 C67 1_555 1_555
C68 C67 1_555 1_555
H68 C68 1_555 1_555
C69 N13 1_555 1_555
C70 N14 1_555 1_555
H69 C70 1_555 1_555
C71 N14 1_555 1_555
H70 C71 1_555 1_555
C72 C71 1_555 1_555
H71 C72 1_555 1_555
H72 C72 1_555 1_555
C73 C72 1_555 1_555
H73 C73 1_555 1_555
H74 C73 1_555 1_555
C74 C73 1_555 1_555
H75 C74 1_555 1_555
H76 C74 1_555 1_555
C75 C74 1_555 1_555
C76 C75 1_555 1_555
H77 C76 1_555 1_555
C77 C76 1_555 1_555
H78 C77 1_555 1_555
C78 C77 1_555 1_555
H79 C78 1_555 1_555
C79 C78 1_555 1_555
H80 C79 1_555 1_555
C80 C71 1_555 1_555
C81 N16 1_555 1_555
H81 C81 1_555 1_555
C82 C81 1_555 1_555
H82 C82 1_555 1_555
C83 C82 1_555 1_555
H83 C83 1_555 1_555
C84 C83 1_555 1_555
H84 C84 1_555 1_555
C85 N16 1_555 1_555
C86 N15 1_555 1_555
H85 C86 1_555 1_555
C87 N15 1_555 1_555
H86 C87 1_555 1_555
C88 C87 1_555 1_555
H87 C88 1_555 1_555
H88 C88 1_555 1_555
C89 C88 1_555 1_555
H89 C89 1_555 1_555
H90 C89 1_555 1_555
C90 C89 1_555 1_555
H91 C90 1_555 1_555
H92 C90 1_555 1_555
C91 C90 1_555 1_555
C92 C87 1_555 1_555
C93 C92 1_555 1_555
H93 C93 1_555 1_555
C94 C93 1_555 1_555
H94 C94 1_555 1_555
C95 C94 1_555 1_555
H95 C95 1_555 1_555
C96 C91 1_555 1_555
H96 C96 1_555 1_555
C97 N17 1_555 1_555
C98 Fe1 1_555 1_555
C99 Fe1 1_555 1_555
C100 Fe1 1_555 1_555
C101 Fe1 1_555 1_555
C102 Fe1 1_555 1_555
C103 N11 1_555 1_555
C104 Fe2 1_555 1_555
C105 Fe2 1_555 1_555
C106 Fe2 1_555 1_555
C107 Fe2 1_555 1_555
C108 Fe2 1_555 1_555
N25 C109 1_555 1_555
C109 H97 1_555 1_555
H98 C109 1_555 1_555
C110 C109 1_555 1_555
H99 C110 1_555 1_555
H100 C110 1_555 1_555
H101 C110 1_555 1_555
C111 N25 1_555 1_555
H102 C111 1_555 1_555
H103 C111 1_555 1_555
C112 C111 1_555 1_555
H104 C112 1_555 1_555
H105 C112 1_555 1_555
H106 C112 1_555 1_555
C113 N25 1_555 1_555
H107 C113 1_555 1_555
H108 C113 1_555 1_555
C114 C113 1_555 1_555
H109 C114 1_555 1_555
H110 C114 1_555 1_555
H111 C114 1_555 1_555
C115 N25 1_555 1_555
H112 C115 1_555 1_555
H113 C115 1_555 1_555
C116 C115 1_555 1_555
H114 C116 1_555 1_555
H115 C116 1_555 1_555
H116 C116 1_555 1_555
Cl1 O1 1_555 1_555
O2 Cl1 1_555 1_555
O3 Cl1 1_555 1_555
O4 Cl1 1_555 1_555
C117 C118 1_555 1_555
C118 O5 1_555 1_555
O7 H117 1_555 1_555
C119 O7 1_555 1_555
H118 C119 1_555 1_555
H119 C119 1_555 1_555
C120 C119 1_555 1_555
H120 C120 1_555 1_555
H121 C120 1_555 1_555
H122 C120 1_555 1_555
O8 H123 1_555 1_555
C121 O8 1_555 1_555
H124 C121 1_555 1_555
H125 C121 1_555 1_555
C122 C121 1_555 1_555
H126 C122 1_555 1_555
H127 C122 1_555 1_555
H128 C122 1_555 1_555
O9 H129 1_555 1_555
C123 H130 1_555 1_555
H131 C123 1_555 1_555
H132 C123 1_555 1_555
C124 O9 1_555 1_555
H133 C124 1_555 1_555
H134 C124 1_555 1_555
C125 H135 1_555 1_555
H136 C125 1_555 1_555
H137 C125 1_555 1_555
C126 C125 1_555 1_555
H138 C126 1_555 1_555
H139 C126 1_555 1_555
O10 C126 1_555 1_555
H140 O10 1_555 1_555
O11 H141 1_555 1_555
C127 O11 1_555 1_555
H142 C127 1_555 1_555
H143 C127 1_555 1_555
C128 C127 1_555 1_555
H144 C128 1_555 1_555
H145 C128 1_555 1_555
H146 C128 1_555 1_555
O12 H147 1_555 1_555
C129 H148 1_555 1_555
H149 C129 1_555 1_555
H150 C129 1_555 1_555
C130 O12 1_555 1_555
H151 C130 1_555 1_555
H152 C130 1_555 1_555
O13 H153 1_555 1_555
C131 O13 1_555 1_555
H154 C131 1_555 1_555
H155 C131 1_555 1_555
C132 C131 1_555 1_555
H156 C132 1_555 1_555
H157 C132 1_555 1_555
H158 C132 1_555 1_555
O14 H159 1_555 1_555
C133 O14 1_555 1_555
H160 C133 1_555 1_555
H161 C133 1_555 1_555
C134 C133 1_555 1_555
H162 C134 1_555 1_555
H163 C134 1_555 1_555
H164 C134 1_555 1_555
O15 H165 1_555 1_555
C135 O15 1_555 1_555
C136 C135 1_555 1_555
O16 C138 1_555 1_555
C137 H166 1_555 1_555
H167 C137 1_555 1_555
H168 C137 1_555 1_555
C138 C137 1_555 1_555
C139 O17 1_555 1_555
C140 C139 1_555 1_555
C141 C142 1_555 1_555
O18 C141 1_555 1_555
N5 C104 1_555 1_555
N6 C98 1_555 1_555
N12 C99 1_555 1_555
N18 C105 1_555 1_555
C4 C5 1_555 1_555
C5 C6 1_555 1_555
C11 C16 1_555 1_555
C15 C16 1_555 1_555
C20 C21 1_555 1_555
C21 C22 1_555 1_555
C27 C32 1_555 1_555
C31 C32 1_555 1_555
C36 C37 1_555 1_555
C43 C48 1_555 1_555
C47 C48 1_555 1_555
C52 C53 1_555 1_555
C53 C54 1_555 1_555
C59 C64 1_555 1_555
C63 C64 1_555 1_555
C68 C69 1_555 1_555
C69 C70 1_555 1_555
C75 C80 1_555 1_555
C79 C80 1_555 1_555
C84 C85 1_555 1_555
C85 C86 1_555 1_555
C91 C92 1_555 1_555
C95 C96 1_555 1_555
C123 C124 1_555 1_555
C129 C130 1_555 1_555

#END
