
#######################################################################
#
#                 Cambridge Crystallographic Data Centre
#                                CCDC 
#
#######################################################################
#
# If this CIF has been generated from an entry in the Cambridge 
# Structural Database, then it will include bibliographic, chemical, 
# crystal, experimental, refinement or atomic coordinate data resulting 
# from the CCDC's data processing and validation procedures.
#
#######################################################################

data_OXOJUI05
_chemical_formula_moiety         
'C108 H96 Co3 Fe2 N24,C8 H20 N1 1+,Cl1 O4 1-,13(C2 H6 O1)'
_chemical_name_systematic        
'tetraethylammonium hexakis(\m-cyano)-hexakis(1-(pyridin-2-yl)-N-(1,2,3,4-tetrahydronaphthalen-1-yl)methanimine)-hexacyano-tri-cobalt-di-iron perchlorate ethanol solvate'
_symmetry_cell_setting           orthorhombic
_symmetry_space_group_name_H-M   'P 21 21 21'
_symmetry_Int_Tables_number      19
_space_group_name_Hall           'P 2ac 2ab'
loop_
_symmetry_equiv_pos_site_id
_symmetry_equiv_pos_as_xyz
1 x,y,z
2 1/2-x,-y,1/2+z
3 1/2+x,1/2-y,-z
4 -x,1/2+y,1/2-z
_cell_length_a                   17.278(2)
_cell_length_b                   18.940(2)
_cell_length_c                   48.462(6)
_cell_angle_alpha                90
_cell_angle_beta                 90
_cell_angle_gamma                90
_cell_volume                     15859
_exptl_crystal_colour            red
_exptl_crystal_description       needle
_cell_formula_units_Z            4
loop_
_atom_site_label
_atom_site_type_symbol
_atom_site_fract_x
_atom_site_fract_y
_atom_site_fract_z
N25 N -0.0042(7) 0.5812(8) 0.6074(3)
C109 C 0.0517(7) 0.6393(9) 0.6015(3)
H97 H 0.0901 0.6226 0.5884
H98 H 0.0783 0.6522 0.6183
C110 C 0.0458(7) 0.5134(9) 0.6117(3)
H99 H 0.0736 0.5042 0.5947
H100 H 0.0841 0.5234 0.6258
C111 C 0.0041(8) 0.4481(10) 0.6196(3)
C112 C -0.0555(7) 0.6007(10) 0.6334(3)
H101 H -0.0848 0.6432 0.6294
H102 H -0.0922 0.5629 0.6367
C113 C -0.0096(7) 0.6126(10) 0.6590(3)
C114 C -0.0639(7) 0.5765(10) 0.5847(3)
H103 H -0.0892 0.6220 0.5827
H104 H -0.1030 0.5422 0.5898
C115 C 0.0118(7) 0.7042(9) 0.5896(3)
C116 C -0.0284(7) 0.5553(10) 0.5571(3)
Cl1 Cl 0.4806(3) 0.11179(19) 0.68919(7)
O1 O 0.5090(6) 0.1352(4) 0.71231(13)
O2 O 0.4551(6) 0.0596(4) 0.70280(13)
O3 O 0.5223(6) 0.0970(4) 0.66491(13)
O4 O 0.5333(6) 0.1642(4) 0.68665(13)
Co1 Co 0.48852(6) 0.38313(4) 0.605236(17)
Co2 Co 0.49354(7) 0.69432(5) 0.531330(18)
Co3 Co 0.50200(6) 0.66716(4) 0.673596(16)
Fe1 Fe 0.68435(5) 0.57836(5) 0.597932(19)
Fe2 Fe 0.30451(5) 0.59409(5) 0.60245(2)
N1 N 0.4118(4) 0.3142(3) 0.62746(16)
N2 N 0.5744(4) 0.3049(3) 0.59206(17)
N3 N 0.5701(3) 0.4553(3) 0.59224(12)
N4 N 0.4045(4) 0.4614(3) 0.60681(13)
N5 N 0.5196(5) 0.6046(4) 0.50811(13)
N6 N 0.4724(4) 0.7921(3) 0.55273(17)
N7 N 0.4089(4) 0.6507(4) 0.55350(17)
N8 N 0.5779(4) 0.6631(3) 0.55767(12)
N9 N 0.5789(4) 0.6540(4) 0.70904(12)
N10 N 0.4182(4) 0.7295(4) 0.69451(14)
N11 N 0.5373(4) 0.7717(3) 0.66646(12)
N12 N 0.4226(4) 0.6600(3) 0.64254(14)
N13 N 0.5856(3) 0.6276(3) 0.64762(11)
N14 N 0.7837(4) 0.4915(4) 0.63914(17)
N15 N 0.7795(4) 0.5199(4) 0.54805(14)
N16 N 0.7870(4) 0.7122(5) 0.60602(16)
N17 N 0.2013(4) 0.5179(4) 0.56098(17)
N18 N 0.2128(5) 0.7343(4) 0.6021(2)
N19 N 0.2093(5) 0.5410(5) 0.6517(2)
C1 C 0.4916(3) 0.3436(3) 0.66463(12)
C2 C 0.5153(4) 0.3381(3) 0.69195(11)
H1 H 0.4908 0.3065 0.7038
C3 C 0.5757(4) 0.3799(3) 0.70164(9)
H2 H 0.5915 0.3762 0.7199
C4 C 0.6123(3) 0.4271(3) 0.68400(15)
H3 H 0.6526 0.4551 0.6905
C5 C 0.5886(3) 0.4327(3) 0.65667(13)
H4 H 0.6131 0.4643 0.6449
N20 N 0.5282(3) 0.3909(3) 0.64699(8)
C6 C 0.4240(6) 0.3089(5) 0.6535(2)
H5 H 0.3905 0.2837 0.6648
C7 C 0.3456(6) 0.2770(6) 0.6168(2)
H6 H 0.3297 0.2996 0.5996
C8 C 0.3707(6) 0.2002(5) 0.6103(2)
H7 H 0.3896 0.1996 0.5915
H8 H 0.4145 0.1894 0.6221
C9 C 0.3174(6) 0.1444(5) 0.6130(2)
H9 H 0.2883 0.1409 0.5959
H10 H 0.3463 0.1008 0.6151
C10 C 0.2664(6) 0.1495(5) 0.6343(2)
H11 H 0.2208 0.1227 0.6292
H12 H 0.2895 0.1261 0.6500
C11 C 0.2425(5) 0.2133(3) 0.64268(15)
C12 C 0.2789(3) 0.2763(4) 0.63577(13)
C13 C 0.2500(4) 0.3400(3) 0.64562(14)
H13 H 0.2744 0.3822 0.6410
C14 C 0.1847(4) 0.3406(4) 0.66237(13)
H14 H 0.1654 0.3833 0.6690
C15 C 0.1483(3) 0.2776(5) 0.66928(11)
H15 H 0.1047 0.2781 0.6805
C16 C 0.1773(4) 0.2139(4) 0.65943(14)
H16 H 0.1529 0.1718 0.6641
C17 C 0.4755(5) 0.2677(3) 0.52831(14)
H17 H 0.5077 0.2344 0.5202
C18 C 0.4977(3) 0.3005(3) 0.55274(13)
N21 N 0.4495(4) 0.3503(3) 0.56493(9)
C19 C 0.3792(3) 0.3674(3) 0.55270(13)
H18 H 0.3470 0.4007 0.5609
C20 C 0.3571(3) 0.3347(4) 0.52827(14)
H19 H 0.3100 0.3461 0.5201
C21 C 0.4052(5) 0.2848(4) 0.51608(10)
H20 H 0.3904 0.2629 0.4997
C22 C 0.5661(5) 0.2858(4) 0.56763(18)
H21 H 0.6059 0.2613 0.5590
C23 C 0.6448(5) 0.2864(4) 0.60850(17)
H22 H 0.6562 0.3279 0.6199
C24 C 0.6243(6) 0.2256(6) 0.6291(2)
H23 H 0.6622 0.2243 0.6439
H24 H 0.5739 0.2345 0.6372
C25 C 0.6234(6) 0.1563(4) 0.6144(2)
H25 H 0.5873 0.1581 0.5991
H26 H 0.6071 0.1192 0.6269
C26 C 0.7070(7) 0.1408(5) 0.6035(2)
H27 H 0.7389 0.1248 0.6188
H28 H 0.7046 0.1029 0.5901
C27 C 0.7449(4) 0.2042(3) 0.59034(13)
C28 C 0.8122(4) 0.1943(3) 0.57513(14)
H29 H 0.8326 0.1491 0.5730
C29 C 0.8491(3) 0.2517(4) 0.56308(12)
H30 H 0.8941 0.2451 0.5529
C30 C 0.8186(4) 0.3192(3) 0.56624(13)
H31 H 0.8432 0.3576 0.5582
C31 C 0.7513(4) 0.3291(3) 0.58146(14)
H32 H 0.7309 0.3742 0.5836
C32 C 0.7144(3) 0.2716(4) 0.59350(12)
C33 C 0.6102(4) 0.6777(4) 0.48511(15)
C34 C 0.6641(4) 0.6947(4) 0.46489(13)
H33 H 0.6837 0.6596 0.4534
C35 C 0.6887(3) 0.7641(5) 0.46180(11)
H34 H 0.7247 0.7755 0.4483
C36 C 0.6593(4) 0.8165(4) 0.47894(15)
H35 H 0.6758 0.8630 0.4769
C37 C 0.6054(4) 0.7995(4) 0.49916(12)
H36 H 0.5858 0.8346 0.5106
N22 N 0.5808(3) 0.7301(5) 0.50225(10)
C38 C 0.5759(6) 0.6096(5) 0.49091(18)
H37 H 0.5946 0.5693 0.4822
C39 C 0.4864(5) 0.5325(6) 0.51446(18)
H38 H 0.4831 0.5292 0.5346
C40 C 0.4059(5) 0.5299(5) 0.50403(16)
H39 H 0.3796 0.5733 0.5090
H40 H 0.3788 0.4912 0.5129
C41 C 0.4016(5) 0.5198(5) 0.47152(15)
H41 H 0.4305 0.5565 0.4620
H42 H 0.3485 0.5205 0.4651
C42 C 0.4425(7) 0.4394(6) 0.4665(2)
H43 H 0.4047 0.4033 0.4709
H44 H 0.4556 0.4345 0.4471
C43 C 0.6027(4) 0.4494(4) 0.51814(11)
H45 H 0.6195 0.4760 0.5331
C44 C 0.6458(4) 0.3919(4) 0.50920(15)
H46 H 0.6915 0.3799 0.5182
C45 C 0.6207(5) 0.3522(3) 0.48680(17)
H47 H 0.6496 0.3137 0.4808
C46 C 0.5524(5) 0.3701(4) 0.47333(13)
H48 H 0.5356 0.3435 0.4583
C47 C 0.5093(4) 0.4276(4) 0.48227(14)
C48 C 0.5344(4) 0.4673(3) 0.50468(13)
C49 C 0.3858(4) 0.8043(4) 0.51592(12)
C50 C 0.3299(4) 0.8434(3) 0.50204(16)
H49 H 0.3124 0.8858 0.5094
C51 C 0.3003(3) 0.8191(4) 0.47712(15)
H50 H 0.2629 0.8453 0.4678
C52 C 0.3265(4) 0.7558(4) 0.46608(11)
H51 H 0.3067 0.7395 0.4494
C53 C 0.3824(4) 0.7167(3) 0.47996(14)
H52 H 0.4000 0.6743 0.4726
N23 N 0.4120(3) 0.7410(4) 0.50488(14)
C54 C 0.4189(7) 0.8286(6) 0.5442(2)
H53 H 0.3998 0.8674 0.5538
C55 C 0.5037(6) 0.8118(4) 0.57956(19)
H54 H 0.5052 0.7688 0.5908
C56 C 0.5882(6) 0.8353(4) 0.57499(17)
H55 H 0.6167 0.8322 0.5922
H56 H 0.6129 0.8046 0.5616
C57 C 0.5890(7) 0.9096(5) 0.5647(2)
H57 H 0.5547 0.9141 0.5490
H58 H 0.6409 0.9222 0.5589
C58 C 0.5623(7) 0.9599(5) 0.5880(2)
H59 H 0.5587 1.0078 0.5810
H60 H 0.5993 0.9592 0.6030
C59 C 0.3938(4) 0.8370(2) 0.60824(14)
H61 H 0.3795 0.7902 0.6057
C60 C 0.4584(4) 0.8639(3) 0.59473(12)
C61 C 0.4797(3) 0.9340(4) 0.59856(14)
C62 C 0.4365(4) 0.9772(3) 0.61590(15)
H62 H 0.4508 1.0241 0.6185
C63 C 0.3720(4) 0.9503(3) 0.62941(12)
H63 H 0.3431 0.9792 0.6410
C64 C 0.3506(4) 0.8802(4) 0.62558(13)
H64 H 0.3074 0.8623 0.6346
C65 C 0.6034(5) 0.7949(5) 0.65376(16)
H65 H 0.6338 0.7616 0.6447
C66 C 0.6287(6) 0.8658(6) 0.6535(2)
H66 H 0.6772 0.8784 0.6468
C67 C 0.5815(7) 0.9118(5) 0.6629(2)
H67 H 0.5943 0.9593 0.6614
C68 C 0.5031(7) 0.8916(5) 0.67689(18)
H68 H 0.4695 0.9258 0.6837
C69 C 0.4862(6) 0.8212(4) 0.67871(18)
C70 C 0.4224(6) 0.7946(6) 0.69091(19)
H69 H 0.3824 0.8241 0.6965
C71 C 0.3518(8) 0.6992(7) 0.7083(2)
H70 H 0.3436 0.6526 0.7000
C72 C 0.3623(6) 0.6879(6) 0.7369(2)
H71 H 0.3267 0.6509 0.7423
H72 H 0.4142 0.6692 0.7393
C73 C 0.3539(6) 0.7407(6) 0.75492(19)
H73 H 0.3877 0.7795 0.7499
H74 H 0.3682 0.7248 0.7732
C74 C 0.2586(6) 0.7693(6) 0.75505(19)
H75 H 0.2265 0.7359 0.7650
H76 H 0.2549 0.8147 0.7642
C75 C 0.2432(4) 0.7463(3) 0.67767(14)
H77 H 0.2700 0.7243 0.6634
C76 C 0.1753(4) 0.7830(4) 0.67211(14)
H78 H 0.1567 0.7855 0.6541
C77 C 0.1353(3) 0.8158(4) 0.69341(19)
H79 H 0.0899 0.8404 0.6897
C78 C 0.1632(4) 0.8120(4) 0.72028(16)
H80 H 0.1364 0.8340 0.7345
C79 C 0.2311(4) 0.7753(4) 0.72584(12)
C80 C 0.2711(3) 0.7424(3) 0.70453(17)
C81 C 0.3688(3) 0.4780(3) 0.70181(14)
H81 H 0.3261 0.4513 0.6966
C82 C 0.4032(4) 0.4669(3) 0.72736(12)
H82 H 0.3836 0.4326 0.7392
C83 C 0.4669(4) 0.5069(3) 0.73522(9)
H83 H 0.4900 0.4994 0.7523
C84 C 0.4962(3) 0.5581(3) 0.71752(12)
N24 N 0.4617(3) 0.5693(2) 0.69197(10)
C85 C 0.3980(3) 0.5293(3) 0.68412(9)
H84 H 0.3750 0.5368 0.6670
C86 C 0.5606(5) 0.5995(4) 0.72358(16)
H85 H 0.5914 0.5874 0.7386
C87 C 0.6464(4) 0.7032(4) 0.71543(16)
H86 H 0.6573 0.7347 0.6999
C88 C 0.7170(3) 0.6594(3) 0.72296(14)
C89 C 0.7432(4) 0.6094(4) 0.70418(11)
H87 H 0.7155 0.6009 0.6881
C90 C 0.8108(4) 0.5720(3) 0.70949(15)
H88 H 0.8283 0.5385 0.6969
C91 C 0.8522(3) 0.5846(4) 0.73359(18)
H89 H 0.8974 0.5595 0.7371
C92 C 0.8260(4) 0.6346(4) 0.75237(13)
H90 H 0.8537 0.6431 0.7685
C93 C 0.7584(4) 0.6721(3) 0.74706(12)
C94 C 0.7287(6) 0.7259(5) 0.76635(19)
H91 H 0.7079 0.7002 0.7820
H92 H 0.7736 0.7513 0.7731
C95 C 0.6736(7) 0.7769(6) 0.7595(2)
H93 H 0.6477 0.7936 0.7761
H94 H 0.6984 0.8169 0.7507
C96 C 0.6208(6) 0.7464(5) 0.7419(2)
H95 H 0.5871 0.7839 0.7355
H96 H 0.5891 0.7150 0.7529
C97 C 0.6220(4) 0.6103(3) 0.62813(13)
C98 C 0.6134(4) 0.5010(4) 0.59390(16)
C99 C 0.6196(4) 0.6326(4) 0.57257(15)
C100 C 0.7447(4) 0.5410(4) 0.56664(17)
C101 C 0.7505(4) 0.6636(5) 0.60236(19)
C102 C 0.7477(4) 0.5229(5) 0.62365(15)
C103 C 0.3693(5) 0.6277(4) 0.57118(19)
C104 C 0.3657(4) 0.5104(4) 0.60538(14)
C105 C 0.3772(4) 0.6382(4) 0.62897(17)
C106 C 0.2384(4) 0.5484(4) 0.57616(18)
C107 C 0.2443(5) 0.6811(6) 0.60176(17)
C108 C 0.2470(5) 0.5622(5) 0.63292(19)
loop_
_geom_bond_atom_site_label_1
_geom_bond_atom_site_label_2
_geom_bond_site_symmetry_1
_geom_bond_site_symmetry_2
Co1 N1 1_555 1_555
Co2 N5 1_555 1_555
Co3 N9 1_555 1_555
Fe1 C97 1_555 1_555
Fe2 C103 1_555 1_555
N1 C6 1_555 1_555
N2 Co1 1_555 1_555
N3 Co1 1_555 1_555
N4 Co1 1_555 1_555
N5 C38 1_555 1_555
N6 Co2 1_555 1_555
N7 Co2 1_555 1_555
N8 Co2 1_555 1_555
N9 C86 1_555 1_555
N10 Co3 1_555 1_555
N11 Co3 1_555 1_555
N12 Co3 1_555 1_555
N13 Co3 1_555 1_555
N14 C102 1_555 1_555
N15 C100 1_555 1_555
N16 C101 1_555 1_555
N17 C106 1_555 1_555
N18 C107 1_555 1_555
N19 C108 1_555 1_555
C1 C2 1_555 1_555
C2 H1 1_555 1_555
C3 C2 1_555 1_555
H2 C3 1_555 1_555
C4 C3 1_555 1_555
H3 C4 1_555 1_555
C5 C4 1_555 1_555
H4 C5 1_555 1_555
N20 Co1 1_555 1_555
C6 C1 1_555 1_555
H5 C6 1_555 1_555
C7 N1 1_555 1_555
H6 C7 1_555 1_555
C8 C7 1_555 1_555
H7 C8 1_555 1_555
H8 C8 1_555 1_555
C9 C8 1_555 1_555
H9 C9 1_555 1_555
H10 C9 1_555 1_555
C10 C9 1_555 1_555
H11 C10 1_555 1_555
H12 C10 1_555 1_555
C11 C10 1_555 1_555
C12 C7 1_555 1_555
C13 C12 1_555 1_555
H13 C13 1_555 1_555
C14 C13 1_555 1_555
H14 C14 1_555 1_555
C15 C14 1_555 1_555
H15 C15 1_555 1_555
C16 C11 1_555 1_555
H16 C16 1_555 1_555
C17 H17 1_555 1_555
C18 C17 1_555 1_555
N21 Co1 1_555 1_555
C19 N21 1_555 1_555
H18 C19 1_555 1_555
C20 C19 1_555 1_555
H19 C20 1_555 1_555
C21 C17 1_555 1_555
H20 C21 1_555 1_555
C22 N2 1_555 1_555
H21 C22 1_555 1_555
C23 N2 1_555 1_555
H22 C23 1_555 1_555
C24 C23 1_555 1_555
H23 C24 1_555 1_555
H24 C24 1_555 1_555
C25 C24 1_555 1_555
H25 C25 1_555 1_555
H26 C25 1_555 1_555
C26 C25 1_555 1_555
H27 C26 1_555 1_555
H28 C26 1_555 1_555
C27 C26 1_555 1_555
C28 C27 1_555 1_555
H29 C28 1_555 1_555
C29 C28 1_555 1_555
H30 C29 1_555 1_555
C30 C29 1_555 1_555
H31 C30 1_555 1_555
C31 C30 1_555 1_555
H32 C31 1_555 1_555
C32 C23 1_555 1_555
C33 C34 1_555 1_555
C34 H33 1_555 1_555
C35 C34 1_555 1_555
H34 C35 1_555 1_555
C36 C35 1_555 1_555
H35 C36 1_555 1_555
C37 C36 1_555 1_555
H36 C37 1_555 1_555
N22 Co2 1_555 1_555
C38 C33 1_555 1_555
H37 C38 1_555 1_555
C39 N5 1_555 1_555
H38 C39 1_555 1_555
C40 C39 1_555 1_555
H39 C40 1_555 1_555
H40 C40 1_555 1_555
C41 C40 1_555 1_555
H41 C41 1_555 1_555
H42 C41 1_555 1_555
C42 C41 1_555 1_555
H43 C42 1_555 1_555
H44 C42 1_555 1_555
C43 H45 1_555 1_555
C44 C43 1_555 1_555
H46 C44 1_555 1_555
C45 C44 1_555 1_555
H47 C45 1_555 1_555
C46 C45 1_555 1_555
H48 C46 1_555 1_555
C47 C42 1_555 1_555
C48 C39 1_555 1_555
C49 C50 1_555 1_555
C50 H49 1_555 1_555
C51 C50 1_555 1_555
H50 C51 1_555 1_555
C52 C51 1_555 1_555
H51 C52 1_555 1_555
C53 C52 1_555 1_555
H52 C53 1_555 1_555
N23 Co2 1_555 1_555
C54 N6 1_555 1_555
H53 C54 1_555 1_555
C55 N6 1_555 1_555
H54 C55 1_555 1_555
C56 C55 1_555 1_555
H55 C56 1_555 1_555
H56 C56 1_555 1_555
C57 C56 1_555 1_555
H57 C57 1_555 1_555
H58 C57 1_555 1_555
C58 C57 1_555 1_555
H59 C58 1_555 1_555
H60 C58 1_555 1_555
C59 H61 1_555 1_555
C60 C55 1_555 1_555
C61 C58 1_555 1_555
C62 C61 1_555 1_555
H62 C62 1_555 1_555
C63 C62 1_555 1_555
H63 C63 1_555 1_555
C64 C59 1_555 1_555
H64 C64 1_555 1_555
C65 N11 1_555 1_555
H65 C65 1_555 1_555
C66 C65 1_555 1_555
H66 C66 1_555 1_555
C67 C66 1_555 1_555
H67 C67 1_555 1_555
C68 C67 1_555 1_555
H68 C68 1_555 1_555
C69 N11 1_555 1_555
C70 N10 1_555 1_555
H69 C70 1_555 1_555
C71 N10 1_555 1_555
H70 C71 1_555 1_555
C72 C71 1_555 1_555
H71 C72 1_555 1_555
H72 C72 1_555 1_555
C73 C72 1_555 1_555
H73 C73 1_555 1_555
H74 C73 1_555 1_555
C74 C73 1_555 1_555
H75 C74 1_555 1_555
H76 C74 1_555 1_555
C75 H77 1_555 1_555
C76 C75 1_555 1_555
H78 C76 1_555 1_555
C77 C76 1_555 1_555
H79 C77 1_555 1_555
C78 C77 1_555 1_555
H80 C78 1_555 1_555
C79 C74 1_555 1_555
C80 C71 1_555 1_555
C81 H81 1_555 1_555
C82 C81 1_555 1_555
H82 C82 1_555 1_555
C83 C82 1_555 1_555
H83 C83 1_555 1_555
C84 C83 1_555 1_555
N24 Co3 1_555 1_555
C85 C81 1_555 1_555
H84 C85 1_555 1_555
C86 C84 1_555 1_555
H85 C86 1_555 1_555
C87 N9 1_555 1_555
H86 C87 1_555 1_555
C88 C87 1_555 1_555
C89 C88 1_555 1_555
H87 C89 1_555 1_555
C90 C89 1_555 1_555
H88 C90 1_555 1_555
C91 C90 1_555 1_555
H89 C91 1_555 1_555
C92 C91 1_555 1_555
H90 C92 1_555 1_555
C93 C88 1_555 1_555
C94 C93 1_555 1_555
H91 C94 1_555 1_555
H92 C94 1_555 1_555
C95 C94 1_555 1_555
H93 C95 1_555 1_555
H94 C95 1_555 1_555
C96 C87 1_555 1_555
H95 C96 1_555 1_555
H96 C96 1_555 1_555
C97 N13 1_555 1_555
C98 Fe1 1_555 1_555
C99 Fe1 1_555 1_555
C100 Fe1 1_555 1_555
C101 Fe1 1_555 1_555
C102 Fe1 1_555 1_555
C103 N7 1_555 1_555
C104 Fe2 1_555 1_555
C105 Fe2 1_555 1_555
C106 Fe2 1_555 1_555
C107 Fe2 1_555 1_555
C108 Fe2 1_555 1_555
N25 C109 1_555 1_555
C109 H97 1_555 1_555
H98 C109 1_555 1_555
C110 N25 1_555 1_555
H99 C110 1_555 1_555
H100 C110 1_555 1_555
C111 C110 1_555 1_555
C112 N25 1_555 1_555
H101 C112 1_555 1_555
H102 C112 1_555 1_555
C113 C112 1_555 1_555
C114 N25 1_555 1_555
H103 C114 1_555 1_555
H104 C114 1_555 1_555
C115 C109 1_555 1_555
C116 C114 1_555 1_555
Cl1 O1 1_555 1_555
O2 Cl1 1_555 1_555
O3 Cl1 1_555 1_555
O4 Cl1 1_555 1_555
N3 C98 1_555 1_555
N4 C104 1_555 1_555
N8 C99 1_555 1_555
N12 C105 1_555 1_555
C1 N20 1_555 1_555
C5 N20 1_555 1_555
C11 C12 1_555 1_555
C15 C16 1_555 1_555
C18 N21 1_555 1_555
C18 C22 1_555 1_555
C20 C21 1_555 1_555
C27 C32 1_555 1_555
C31 C32 1_555 1_555
C33 N22 1_555 1_555
C37 N22 1_555 1_555
C43 C48 1_555 1_555
C46 C47 1_555 1_555
C47 C48 1_555 1_555
C49 N23 1_555 1_555
C49 C54 1_555 1_555
C53 N23 1_555 1_555
C59 C60 1_555 1_555
C60 C61 1_555 1_555
C63 C64 1_555 1_555
C68 C69 1_555 1_555
C69 C70 1_555 1_555
C75 C80 1_555 1_555
C78 C79 1_555 1_555
C79 C80 1_555 1_555
C84 N24 1_555 1_555
N24 C85 1_555 1_555
C92 C93 1_555 1_555
C95 C96 1_555 1_555

#END
