# generated using pymatgen
data_Fe2Co3H115C116N25ClO4
_symmetry_space_group_name_H-M   'P 1'
_cell_length_a   16.99100000
_cell_length_b   18.55500000
_cell_length_c   38.04000000
_cell_angle_alpha   90.00000000
_cell_angle_beta   90.00000000
_cell_angle_gamma   90.00000000
_symmetry_Int_Tables_number   1
_chemical_formula_structural   Fe2Co3H115C116N25ClO4
_chemical_formula_sum   'Fe8 Co12 H460 C464 N100 Cl4 O16'
_cell_volume   11992.79491020
_cell_formula_units_Z   4
loop_
 _symmetry_equiv_pos_site_id
 _symmetry_equiv_pos_as_xyz
  1  'x, y, z'
loop_
 _atom_site_type_symbol
 _atom_site_label
 _atom_site_symmetry_multiplicity
 _atom_site_fract_x
 _atom_site_fract_y
 _atom_site_fract_z
 _atom_site_occupancy
  Fe  Fe1  1  0.019020  0.477880  0.092720  1
  Fe  Fe2  1  0.480980  0.522120  0.592720  1
  Fe  Fe3  1  0.519020  0.022120  0.907280  1
  Fe  Fe4  1  0.980980  0.977880  0.407280  1
  Fe  Fe5  1  0.401460  0.494380  0.099510  1
  Fe  Fe6  1  0.098540  0.505620  0.599510  1
  Fe  Fe7  1  0.901460  0.005620  0.900490  1
  Fe  Fe8  1  0.598540  0.994380  0.400490  1
  Co  Co9  1  0.196050  0.532210  0.195250  1
  Co  Co10  1  0.303950  0.467790  0.695250  1
  Co  Co11  1  0.696050  0.967790  0.804750  1
  Co  Co12  1  0.803950  0.032210  0.304750  1
  Co  Co13  1  0.227980  0.278210  0.088860  1
  Co  Co14  1  0.272020  0.721790  0.588860  1
  Co  Co15  1  0.727980  0.221790  0.911140  1
  Co  Co16  1  0.772020  0.778210  0.411140  1
  Co  Co17  1  0.210040  0.614150  0.013800  1
  Co  Co18  1  0.289960  0.385850  0.513800  1
  Co  Co19  1  0.710040  0.885850  0.986200  1
  Co  Co20  1  0.789960  0.114150  0.486200  1
  H  H21  1  0.775900  0.586000  0.037700  1
  H  H22  1  0.724100  0.414000  0.537700  1
  H  H23  1  0.275900  0.914000  0.962300  1
  H  H24  1  0.224100  0.086000  0.462300  1
  H  H25  1  0.720100  0.542100  0.011400  1
  H  H26  1  0.779900  0.457900  0.511400  1
  H  H27  1  0.220100  0.957900  0.988600  1
  H  H28  1  0.279900  0.042100  0.488600  1
  H  H29  1  0.784100  0.500300  0.034600  1
  H  H30  1  0.715900  0.499700  0.534600  1
  H  H31  1  0.284100  0.999700  0.965400  1
  H  H32  1  0.215900  0.000300  0.465400  1
  H  H33  1  0.691400  0.696000  0.071000  1
  H  H34  1  0.808600  0.304000  0.571000  1
  H  H35  1  0.191400  0.804000  0.929000  1
  H  H36  1  0.308600  0.196000  0.429000  1
  H  H37  1  0.709800  0.725500  0.109700  1
  H  H38  1  0.790200  0.274500  0.609700  1
  H  H39  1  0.209800  0.774500  0.890300  1
  H  H40  1  0.290200  0.225500  0.390300  1
  H  H41  1  0.629800  0.682700  0.102200  1
  H  H42  1  0.870200  0.317300  0.602200  1
  H  H43  1  0.129800  0.817300  0.897800  1
  H  H44  1  0.370200  0.182700  0.397800  1
  H  H45  1  0.763800  0.397500  0.080600  1
  H  H46  1  0.736200  0.602500  0.580600  1
  H  H47  1  0.263800  0.102500  0.919400  1
  H  H48  1  0.236200  0.897500  0.419400  1
  H  H49  1  0.683600  0.406300  0.102300  1
  H  H50  1  0.816400  0.593700  0.602300  1
  H  H51  1  0.183600  0.093700  0.897700  1
  H  H52  1  0.316400  0.906300  0.397700  1
  H  H53  1  0.762000  0.380200  0.121800  1
  H  H54  1  0.738000  0.619800  0.621800  1
  H  H55  1  0.262000  0.119800  0.878200  1
  H  H56  1  0.238000  0.880200  0.378200  1
  H  H57  1  0.626400  0.590000  0.168100  1
  H  H58  1  0.873600  0.410000  0.668100  1
  H  H59  1  0.126400  0.910000  0.831900  1
  H  H60  1  0.373600  0.090000  0.331900  1
  H  H61  1  0.674600  0.516100  0.171000  1
  H  H62  1  0.825400  0.483900  0.671000  1
  H  H63  1  0.174600  0.983900  0.829000  1
  H  H64  1  0.325400  0.016100  0.329000  1
  H  H65  1  0.580900  0.514500  0.166800  1
  H  H66  1  0.919100  0.485500  0.666800  1
  H  H67  1  0.080900  0.985500  0.833200  1
  H  H68  1  0.419100  0.014500  0.333200  1
  H  H69  1  0.762600  0.492200  0.136700  1
  H  H70  1  0.737400  0.507800  0.636700  1
  H  H71  1  0.262600  0.007800  0.863300  1
  H  H72  1  0.237400  0.992200  0.363300  1
  H  H73  1  0.814900  0.495300  0.102000  1
  H  H74  1  0.685100  0.504700  0.602000  1
  H  H75  1  0.314900  0.004700  0.898000  1
  H  H76  1  0.185100  0.995300  0.398000  1
  H  H77  1  0.667100  0.484100  0.057900  1
  H  H78  1  0.832900  0.515900  0.557900  1
  H  H79  1  0.167100  0.015900  0.942100  1
  H  H80  1  0.332900  0.984100  0.442100  1
  H  H81  1  0.649400  0.568200  0.057000  1
  H  H82  1  0.850600  0.431800  0.557000  1
  H  H83  1  0.149400  0.931800  0.943000  1
  H  H84  1  0.350600  0.068200  0.443000  1
  H  H85  1  0.608500  0.495200  0.111600  1
  H  H86  1  0.891500  0.504800  0.611600  1
  H  H87  1  0.108500  0.004800  0.888400  1
  H  H88  1  0.391500  0.995200  0.388400  1
  H  H89  1  0.608200  0.580300  0.110800  1
  H  H90  1  0.891800  0.419700  0.610800  1
  H  H91  1  0.108200  0.919700  0.889200  1
  H  H92  1  0.391800  0.080300  0.389200  1
  H  H93  1  0.785600  0.614800  0.097700  1
  H  H94  1  0.714400  0.385200  0.597700  1
  H  H95  1  0.285600  0.885200  0.902300  1
  H  H96  1  0.214400  0.114800  0.402300  1
  H  H97  1  0.734200  0.608200  0.132100  1
  H  H98  1  0.765800  0.391800  0.632100  1
  H  H99  1  0.234200  0.891800  0.867900  1
  H  H100  1  0.265800  0.108200  0.367900  1
  H  H101  1  0.092600  0.319300  0.030900  1
  H  H102  1  0.407400  0.680700  0.530900  1
  H  H103  1  0.592600  0.180700  0.969100  1
  H  H104  1  0.907400  0.819300  0.469100  1
  H  H105  1  0.059000  0.278200  0.974700  1
  H  H106  1  0.441000  0.721800  0.474700  1
  H  H107  1  0.559000  0.221800  0.025300  1
  H  H108  1  0.941000  0.778200  0.525300  1
  H  H109  1  0.138200  0.192900  0.946400  1
  H  H110  1  0.361800  0.807100  0.446400  1
  H  H111  1  0.638200  0.307100  0.053600  1
  H  H112  1  0.861800  0.692900  0.553600  1
  H  H113  1  0.251000  0.148600  0.974300  1
  H  H114  1  0.249000  0.851400  0.474300  1
  H  H115  1  0.751000  0.351400  0.025700  1
  H  H116  1  0.749000  0.648600  0.525700  1
  H  H117  1  0.293900  0.768100  0.002800  1
  H  H118  1  0.206100  0.231900  0.502800  1
  H  H119  1  0.793900  0.731900  0.997200  1
  H  H120  1  0.706100  0.268100  0.497200  1
  H  H121  1  0.388100  0.816700  0.964700  1
  H  H122  1  0.111900  0.183300  0.464700  1
  H  H123  1  0.888100  0.683300  0.035300  1
  H  H124  1  0.611900  0.316700  0.535300  1
  H  H125  1  0.446900  0.743900  0.921900  1
  H  H126  1  0.053100  0.256100  0.421900  1
  H  H127  1  0.946900  0.756100  0.078100  1
  H  H128  1  0.553100  0.243900  0.578100  1
  H  H129  1  0.411500  0.622400  0.917200  1
  H  H130  1  0.088500  0.377600  0.417200  1
  H  H131  1  0.911500  0.877600  0.082800  1
  H  H132  1  0.588500  0.122400  0.582800  1
  H  H133  1  0.076900  0.398100  0.173700  1
  H  H134  1  0.423100  0.601900  0.673700  1
  H  H135  1  0.576900  0.101900  0.826300  1
  H  H136  1  0.923100  0.898100  0.326300  1
  H  H137  1  0.025800  0.298500  0.203700  1
  H  H138  1  0.474200  0.701500  0.703700  1
  H  H139  1  0.525800  0.201500  0.796300  1
  H  H140  1  0.974200  0.798500  0.296300  1
  H  H141  1  0.077300  0.266200  0.258600  1
  H  H142  1  0.422700  0.733800  0.758600  1
  H  H143  1  0.577300  0.233800  0.741400  1
  H  H144  1  0.922700  0.766200  0.241400  1
  H  H145  1  0.179900  0.333400  0.283300  1
  H  H146  1  0.320100  0.666600  0.783300  1
  H  H147  1  0.679900  0.166600  0.716700  1
  H  H148  1  0.820100  0.833400  0.216700  1
  H  H149  1  0.350500  0.350900  0.147400  1
  H  H150  1  0.149500  0.649100  0.647400  1
  H  H151  1  0.850500  0.149100  0.852600  1
  H  H152  1  0.649500  0.850900  0.352600  1
  H  H153  1  0.375200  0.334000  0.207300  1
  H  H154  1  0.124800  0.666000  0.707300  1
  H  H155  1  0.875200  0.166000  0.792700  1
  H  H156  1  0.624800  0.834000  0.292700  1
  H  H157  1  0.302500  0.248900  0.239100  1
  H  H158  1  0.197500  0.751100  0.739100  1
  H  H159  1  0.802500  0.251100  0.760900  1
  H  H160  1  0.697500  0.748900  0.260900  1
  H  H161  1  0.205300  0.180800  0.211000  1
  H  H162  1  0.294700  0.819200  0.711000  1
  H  H163  1  0.705300  0.319200  0.789000  1
  H  H164  1  0.794700  0.680800  0.289000  1
  H  H165  1  0.130300  0.625200  0.934800  1
  H  H166  1  0.369700  0.374800  0.434800  1
  H  H167  1  0.630300  0.874800  0.065200  1
  H  H168  1  0.869700  0.125200  0.565200  1
  H  H169  1  0.039700  0.703000  0.908200  1
  H  H170  1  0.460300  0.297000  0.408200  1
  H  H171  1  0.539700  0.797000  0.091800  1
  H  H172  1  0.960300  0.203000  0.591800  1
  H  H173  1  0.982300  0.796000  0.940800  1
  H  H174  1  0.517700  0.204000  0.440800  1
  H  H175  1  0.482300  0.704000  0.059200  1
  H  H176  1  0.017700  0.296000  0.559200  1
  H  H177  1  0.015400  0.811200  0.000100  1
  H  H178  1  0.484600  0.188800  0.500100  1
  H  H179  1  0.515400  0.688800  0.999900  1
  H  H180  1  0.984600  0.311200  0.499900  1
  H  H181  1  0.333500  0.649400  0.172700  1
  H  H182  1  0.166500  0.350600  0.672700  1
  H  H183  1  0.833500  0.850600  0.827300  1
  H  H184  1  0.666500  0.149400  0.327300  1
  H  H185  1  0.348000  0.774300  0.178300  1
  H  H186  1  0.152000  0.225700  0.678300  1
  H  H187  1  0.848000  0.725700  0.821700  1
  H  H188  1  0.652000  0.274300  0.321700  1
  H  H189  1  0.250500  0.842200  0.206400  1
  H  H190  1  0.249500  0.157800  0.706400  1
  H  H191  1  0.750500  0.657800  0.793600  1
  H  H192  1  0.749500  0.342200  0.293600  1
  H  H193  1  0.138400  0.785300  0.228900  1
  H  H194  1  0.361600  0.214700  0.728900  1
  H  H195  1  0.638400  0.714700  0.771100  1
  H  H196  1  0.861600  0.285300  0.271100  1
  H  H197  1  0.118400  0.408500  0.968000  1
  H  H198  1  0.381600  0.591500  0.468000  1
  H  H199  1  0.618400  0.091500  0.032000  1
  H  H200  1  0.881600  0.908500  0.532000  1
  H  H201  1  0.118800  0.493200  0.959800  1
  H  H202  1  0.381200  0.506800  0.459800  1
  H  H203  1  0.618800  0.006800  0.040200  1
  H  H204  1  0.881200  0.993200  0.540200  1
  H  H205  1  0.121400  0.434100  0.906300  1
  H  H206  1  0.378600  0.565900  0.406300  1
  H  H207  1  0.621400  0.065900  0.093700  1
  H  H208  1  0.878600  0.934100  0.593700  1
  H  H209  1  0.204800  0.472200  0.911400  1
  H  H210  1  0.295200  0.527800  0.411400  1
  H  H211  1  0.704800  0.027800  0.088600  1
  H  H212  1  0.795200  0.972200  0.588600  1
  H  H213  1  0.175500  0.320300  0.916700  1
  H  H214  1  0.324500  0.679700  0.416700  1
  H  H215  1  0.675500  0.179700  0.083300  1
  H  H216  1  0.824500  0.820300  0.583300  1
  H  H217  1  0.232700  0.359500  0.888800  1
  H  H218  1  0.267300  0.640500  0.388800  1
  H  H219  1  0.732700  0.140500  0.111200  1
  H  H220  1  0.767300  0.859500  0.611200  1
  H  H221  1  0.349100  0.420900  0.014000  1
  H  H222  1  0.150900  0.579100  0.514000  1
  H  H223  1  0.849100  0.079100  0.986000  1
  H  H224  1  0.650900  0.920900  0.486000  1
  H  H225  1  0.444700  0.333400  0.002100  1
  H  H226  1  0.055300  0.666600  0.502100  1
  H  H227  1  0.944700  0.166600  0.997900  1
  H  H228  1  0.555300  0.833400  0.497900  1
  H  H229  1  0.435500  0.263200  0.951100  1
  H  H230  1  0.064500  0.736800  0.451100  1
  H  H231  1  0.935500  0.236800  0.048900  1
  H  H232  1  0.564500  0.763200  0.548900  1
  H  H233  1  0.330700  0.280500  0.912100  1
  H  H234  1  0.169300  0.719500  0.412100  1
  H  H235  1  0.830700  0.219500  0.087900  1
  H  H236  1  0.669300  0.780500  0.587900  1
  H  H237  1  0.550500  0.263100  0.114800  1
  H  H238  1  0.949500  0.736900  0.614800  1
  H  H239  1  0.050500  0.236900  0.885200  1
  H  H240  1  0.449500  0.763100  0.385200  1
  H  H241  1  0.547400  0.181400  0.101400  1
  H  H242  1  0.952600  0.818600  0.601400  1
  H  H243  1  0.047400  0.318600  0.898600  1
  H  H244  1  0.452600  0.681400  0.398600  1
  H  H245  1  0.052100  0.112600  0.053900  1
  H  H246  1  0.447900  0.887400  0.553900  1
  H  H247  1  0.552100  0.387400  0.946100  1
  H  H248  1  0.947900  0.612600  0.446100  1
  H  H249  1  0.144100  0.113700  0.062500  1
  H  H250  1  0.355900  0.886300  0.562500  1
  H  H251  1  0.644100  0.386300  0.937500  1
  H  H252  1  0.855900  0.613700  0.437500  1
  H  H253  1  0.302500  0.531200  0.934300  1
  H  H254  1  0.197500  0.468800  0.434300  1
  H  H255  1  0.802500  0.968800  0.065700  1
  H  H256  1  0.697500  0.031200  0.565700  1
  H  H257  1  0.356200  0.521500  0.968500  1
  H  H258  1  0.143800  0.478500  0.468500  1
  H  H259  1  0.856200  0.978500  0.031500  1
  H  H260  1  0.643800  0.021500  0.531500  1
  H  H261  1  0.108200  0.784400  0.049600  1
  H  H262  1  0.391800  0.215600  0.549600  1
  H  H263  1  0.608200  0.715600  0.950400  1
  H  H264  1  0.891800  0.284400  0.450400  1
  H  H265  1  0.416300  0.139600  0.071500  1
  H  H266  1  0.083700  0.860400  0.571500  1
  H  H267  1  0.916300  0.360400  0.928500  1
  H  H268  1  0.583700  0.639600  0.428500  1
  H  H269  1  0.206400  0.660500  0.095500  1
  H  H270  1  0.293600  0.339500  0.595500  1
  H  H271  1  0.706400  0.839500  0.904500  1
  H  H272  1  0.793600  0.160500  0.404500  1
  H  H273  1  0.281100  0.078800  0.101500  1
  H  H274  1  0.218900  0.921200  0.601500  1
  H  H275  1  0.781100  0.421200  0.898500  1
  H  H276  1  0.718900  0.578800  0.398500  1
  H  H277  1  0.255500  0.012300  0.152600  1
  H  H278  1  0.244500  0.987700  0.652600  1
  H  H279  1  0.755500  0.487700  0.847400  1
  H  H280  1  0.744500  0.512300  0.347400  1
  H  H281  1  0.334300  0.028200  0.202400  1
  H  H282  1  0.165700  0.971800  0.702400  1
  H  H283  1  0.834300  0.471800  0.797600  1
  H  H284  1  0.665700  0.528200  0.297600  1
  H  H285  1  0.438600  0.110500  0.201300  1
  H  H286  1  0.061400  0.889500  0.701300  1
  H  H287  1  0.938600  0.389500  0.798700  1
  H  H288  1  0.561400  0.610500  0.298700  1
  H  H289  1  0.314600  0.729700  0.106600  1
  H  H290  1  0.185400  0.270300  0.606600  1
  H  H291  1  0.814600  0.770300  0.893400  1
  H  H292  1  0.685400  0.229700  0.393400  1
  H  H293  1  0.319000  0.713400  0.065400  1
  H  H294  1  0.181000  0.286600  0.565400  1
  H  H295  1  0.819000  0.786600  0.934600  1
  H  H296  1  0.681000  0.213400  0.434600  1
  H  H297  1  0.267400  0.830100  0.054000  1
  H  H298  1  0.232600  0.169900  0.554000  1
  H  H299  1  0.767400  0.669900  0.946000  1
  H  H300  1  0.732600  0.330100  0.446000  1
  H  H301  1  0.350000  0.833500  0.074500  1
  H  H302  1  0.150000  0.166500  0.574500  1
  H  H303  1  0.850000  0.666500  0.925500  1
  H  H304  1  0.650000  0.333500  0.425500  1
  H  H305  1  0.248900  0.908400  0.100100  1
  H  H306  1  0.251100  0.091600  0.600100  1
  H  H307  1  0.748900  0.591600  0.899900  1
  H  H308  1  0.751100  0.408400  0.399900  1
  H  H309  1  0.290300  0.854800  0.127200  1
  H  H310  1  0.209700  0.145200  0.627200  1
  H  H311  1  0.790300  0.645200  0.872800  1
  H  H312  1  0.709700  0.354800  0.372800  1
  H  H313  1  0.119600  0.170600  0.159100  1
  H  H314  1  0.380400  0.829400  0.659100  1
  H  H315  1  0.619600  0.329400  0.840900  1
  H  H316  1  0.880400  0.670600  0.340900  1
  H  H317  1  0.073400  0.678800  0.114700  1
  H  H318  1  0.426600  0.321200  0.614700  1
  H  H319  1  0.573400  0.821200  0.885300  1
  H  H320  1  0.926600  0.178800  0.385300  1
  H  H321  1  0.985100  0.747900  0.147700  1
  H  H322  1  0.514900  0.252100  0.647700  1
  H  H323  1  0.485100  0.752100  0.852300  1
  H  H324  1  0.014900  0.247900  0.352300  1
  H  H325  1  0.015600  0.867500  0.161700  1
  H  H326  1  0.484400  0.132500  0.661700  1
  H  H327  1  0.515600  0.632500  0.838300  1
  H  H328  1  0.984400  0.367500  0.338300  1
  H  H329  1  0.134500  0.917900  0.142800  1
  H  H330  1  0.365500  0.082100  0.642800  1
  H  H331  1  0.634500  0.582100  0.857200  1
  H  H332  1  0.865500  0.417900  0.357200  1
  H  H333  1  0.966600  0.037000  0.080800  1
  H  H334  1  0.533400  0.963000  0.580800  1
  H  H335  1  0.466600  0.463000  0.919200  1
  H  H336  1  0.033400  0.537000  0.419200  1
  H  H337  1  0.990200  0.995600  0.115600  1
  H  H338  1  0.509800  0.004400  0.615600  1
  H  H339  1  0.490200  0.504400  0.884400  1
  H  H340  1  0.009800  0.495600  0.384400  1
  H  H341  1  0.343800  0.155300  0.025100  1
  H  H342  1  0.156200  0.844700  0.525100  1
  H  H343  1  0.843800  0.344700  0.974900  1
  H  H344  1  0.656200  0.655300  0.474900  1
  H  H345  1  0.072500  0.677100  0.240900  1
  H  H346  1  0.427500  0.322900  0.740900  1
  H  H347  1  0.572500  0.822900  0.759100  1
  H  H348  1  0.927500  0.177100  0.259100  1
  H  H349  1  0.464400  0.251600  0.067000  1
  H  H350  1  0.035600  0.748400  0.567000  1
  H  H351  1  0.964400  0.248400  0.933000  1
  H  H352  1  0.535600  0.751600  0.433000  1
  H  H353  1  0.418500  0.279000  0.101300  1
  H  H354  1  0.081500  0.721000  0.601300  1
  H  H355  1  0.918500  0.221000  0.898700  1
  H  H356  1  0.581500  0.779000  0.398700  1
  H  H357  1  0.480200  0.238700  0.163500  1
  H  H358  1  0.019800  0.761300  0.663500  1
  H  H359  1  0.980200  0.261300  0.836500  1
  H  H360  1  0.519800  0.738700  0.336500  1
  H  H361  1  0.538500  0.171600  0.160400  1
  H  H362  1  0.961500  0.828400  0.660400  1
  H  H363  1  0.038500  0.328400  0.839600  1
  H  H364  1  0.461500  0.671600  0.339600  1
  H  H365  1  0.856100  0.555800  0.295600  1
  H  H366  1  0.643900  0.444200  0.795600  1
  H  H367  1  0.356100  0.944200  0.704400  1
  H  H368  1  0.143900  0.055800  0.204400  1
  H  H369  1  0.838900  0.484900  0.272600  1
  H  H370  1  0.661100  0.515100  0.772600  1
  H  H371  1  0.338900  0.015100  0.727400  1
  H  H372  1  0.161100  0.984900  0.227400  1
  H  H373  1  0.987300  0.627600  0.177000  1
  H  H374  1  0.512700  0.372400  0.677000  1
  H  H375  1  0.487300  0.872400  0.823000  1
  H  H376  1  0.012700  0.127600  0.323000  1
  H  H377  1  0.868100  0.682800  0.162000  1
  H  H378  1  0.631900  0.317200  0.662000  1
  H  H379  1  0.368100  0.817200  0.838000  1
  H  H380  1  0.131900  0.182800  0.338000  1
  H  H381  1  0.757300  0.667100  0.197700  1
  H  H382  1  0.742700  0.332900  0.697700  1
  H  H383  1  0.257300  0.832900  0.802300  1
  H  H384  1  0.242700  0.167100  0.302300  1
  H  H385  1  0.765600  0.596200  0.248400  1
  H  H386  1  0.734400  0.403800  0.748400  1
  H  H387  1  0.265600  0.903800  0.751600  1
  H  H388  1  0.234400  0.096200  0.251600  1
  H  H389  1  0.122300  0.028300  0.108800  1
  H  H390  1  0.377700  0.971700  0.608800  1
  H  H391  1  0.622300  0.471700  0.891200  1
  H  H392  1  0.877700  0.528300  0.391200  1
  H  H393  1  0.091600  0.996400  0.071600  1
  H  H394  1  0.408400  0.003600  0.571600  1
  H  H395  1  0.591600  0.503600  0.928400  1
  H  H396  1  0.908400  0.496400  0.428400  1
  H  H397  1  0.000000  0.272400  0.133400  1
  H  H398  1  0.500000  0.727600  0.633400  1
  H  H399  1  0.500000  0.227600  0.866600  1
  H  H400  1  0.000000  0.772400  0.366600  1
  H  H401  1  0.890200  0.262600  0.170200  1
  H  H402  1  0.609800  0.737400  0.670200  1
  H  H403  1  0.390200  0.237400  0.829800  1
  H  H404  1  0.109800  0.762600  0.329800  1
  H  H405  1  0.828500  0.151000  0.177800  1
  H  H406  1  0.671500  0.849000  0.677800  1
  H  H407  1  0.328500  0.349000  0.822200  1
  H  H408  1  0.171500  0.651000  0.322200  1
  H  H409  1  0.876500  0.049100  0.148500  1
  H  H410  1  0.623500  0.950900  0.648500  1
  H  H411  1  0.376500  0.450900  0.851500  1
  H  H412  1  0.123500  0.549100  0.351500  1
  H  H413  1  0.283200  0.429700  0.274200  1
  H  H414  1  0.216800  0.570300  0.774200  1
  H  H415  1  0.783200  0.070300  0.725800  1
  H  H416  1  0.716800  0.929700  0.225800  1
  H  H417  1  0.358000  0.575500  0.228300  1
  H  H418  1  0.142000  0.424500  0.728300  1
  H  H419  1  0.858000  0.924500  0.771700  1
  H  H420  1  0.642000  0.075500  0.271700  1
  H  H421  1  0.277800  0.619800  0.275800  1
  H  H422  1  0.222200  0.380200  0.775800  1
  H  H423  1  0.777800  0.880200  0.724200  1
  H  H424  1  0.722200  0.119800  0.224200  1
  H  H425  1  0.370100  0.627600  0.283000  1
  H  H426  1  0.129900  0.372400  0.783000  1
  H  H427  1  0.870100  0.872400  0.717000  1
  H  H428  1  0.629900  0.127600  0.217000  1
  H  H429  1  0.300700  0.583400  0.334600  1
  H  H430  1  0.199300  0.416600  0.834600  1
  H  H431  1  0.800700  0.916600  0.665400  1
  H  H432  1  0.699300  0.083400  0.165400  1
  H  H433  1  0.276900  0.512100  0.313000  1
  H  H434  1  0.223100  0.487900  0.813000  1
  H  H435  1  0.776900  0.987900  0.687000  1
  H  H436  1  0.723100  0.012100  0.187000  1
  H  H437  1  0.389900  0.481700  0.342700  1
  H  H438  1  0.110100  0.518300  0.842700  1
  H  H439  1  0.889900  0.018300  0.657300  1
  H  H440  1  0.610100  0.981700  0.157300  1
  H  H441  1  0.431700  0.556000  0.332700  1
  H  H442  1  0.068300  0.444000  0.832700  1
  H  H443  1  0.931700  0.944000  0.667300  1
  H  H444  1  0.568300  0.056000  0.167300  1
  H  H445  1  0.436600  0.480800  0.206900  1
  H  H446  1  0.063400  0.519200  0.706900  1
  H  H447  1  0.936600  0.019200  0.793100  1
  H  H448  1  0.563400  0.980800  0.293100  1
  H  H449  1  0.544400  0.404600  0.216000  1
  H  H450  1  0.955600  0.595400  0.716000  1
  H  H451  1  0.044400  0.095400  0.784000  1
  H  H452  1  0.455600  0.904600  0.284000  1
  H  H453  1  0.584500  0.376500  0.273200  1
  H  H454  1  0.915500  0.623500  0.773200  1
  H  H455  1  0.084500  0.123500  0.726800  1
  H  H456  1  0.415500  0.876500  0.226800  1
  H  H457  1  0.516800  0.424700  0.321400  1
  H  H458  1  0.983200  0.575300  0.821400  1
  H  H459  1  0.016800  0.075300  0.678600  1
  H  H460  1  0.483200  0.924700  0.178600  1
  H  H461  1  0.210700  0.447700  0.006400  1
  H  H462  1  0.289300  0.552300  0.506400  1
  H  H463  1  0.710700  0.052300  0.993600  1
  H  H464  1  0.789300  0.947700  0.493600  1
  H  H465  1  0.073500  0.489500  0.274700  1
  H  H466  1  0.426500  0.510500  0.774700  1
  H  H467  1  0.573500  0.010500  0.725300  1
  H  H468  1  0.926500  0.989500  0.225300  1
  H  H469  1  0.047300  0.570300  0.284300  1
  H  H470  1  0.452700  0.429700  0.784300  1
  H  H471  1  0.547300  0.929700  0.715700  1
  H  H472  1  0.952700  0.070300  0.215700  1
  H  H473  1  0.953300  0.447300  0.277200  1
  H  H474  1  0.546700  0.552700  0.777200  1
  H  H475  1  0.453300  0.052700  0.722800  1
  H  H476  1  0.046700  0.947300  0.222800  1
  H  H477  1  0.958100  0.499700  0.309900  1
  H  H478  1  0.541900  0.500300  0.809900  1
  H  H479  1  0.458100  0.000300  0.690100  1
  H  H480  1  0.041900  0.999700  0.190100  1
  C  C481  1  0.747100  0.540800  0.034200  1
  C  C482  1  0.752900  0.459200  0.534200  1
  C  C483  1  0.247100  0.959200  0.965800  1
  C  C484  1  0.252900  0.040800  0.465800  1
  C  C485  1  0.685800  0.686200  0.096200  1
  C  C486  1  0.814200  0.313800  0.596200  1
  C  C487  1  0.185800  0.813800  0.903800  1
  C  C488  1  0.314200  0.186200  0.403800  1
  C  C489  1  0.741000  0.411400  0.103300  1
  C  C490  1  0.759000  0.588600  0.603300  1
  C  C491  1  0.241000  0.088600  0.896700  1
  C  C492  1  0.259000  0.911400  0.396700  1
  C  C493  1  0.629200  0.539800  0.160100  1
  C  C494  1  0.870800  0.460200  0.660100  1
  C  C495  1  0.129200  0.960200  0.839900  1
  C  C496  1  0.370800  0.039800  0.339900  1
  C  C497  1  0.761100  0.486200  0.110900  1
  C  C498  1  0.738900  0.513800  0.610900  1
  C  C499  1  0.261100  0.013800  0.889100  1
  C  C500  1  0.238900  0.986200  0.389100  1
  C  C501  1  0.691400  0.532200  0.061200  1
  C  C502  1  0.808600  0.467800  0.561200  1
  C  C503  1  0.191400  0.967800  0.938800  1
  C  C504  1  0.308600  0.032200  0.438800  1
  C  C505  1  0.638400  0.538200  0.119300  1
  C  C506  1  0.861600  0.461800  0.619300  1
  C  C507  1  0.138400  0.961800  0.880700  1
  C  C508  1  0.361600  0.038200  0.380700  1
  C  C509  1  0.731000  0.608200  0.106100  1
  C  C510  1  0.769000  0.391800  0.606100  1
  C  C511  1  0.231000  0.891800  0.893900  1
  C  C512  1  0.269000  0.108200  0.393900  1
  C  C513  1  0.124800  0.284600  0.019400  1
  C  C514  1  0.375200  0.715400  0.519400  1
  C  C515  1  0.624800  0.215400  0.980600  1
  C  C516  1  0.875200  0.784600  0.480600  1
  C  C517  1  0.104800  0.260300  0.986000  1
  C  C518  1  0.395200  0.739700  0.486000  1
  C  C519  1  0.604800  0.239700  0.014000  1
  C  C520  1  0.895200  0.760300  0.514000  1
  C  C521  1  0.151900  0.209600  0.969200  1
  C  C522  1  0.348100  0.790400  0.469200  1
  C  C523  1  0.651900  0.290400  0.030800  1
  C  C524  1  0.848100  0.709600  0.530800  1
  C  C525  1  0.218900  0.183300  0.985800  1
  C  C526  1  0.281100  0.816700  0.485800  1
  C  C527  1  0.718900  0.316700  0.014200  1
  C  C528  1  0.781100  0.683300  0.514200  1
  C  C529  1  0.238900  0.207600  0.019100  1
  C  C530  1  0.261100  0.792400  0.519100  1
  C  C531  1  0.738900  0.292400  0.980900  1
  C  C532  1  0.761100  0.707600  0.480900  1
  C  C533  1  0.317800  0.738500  0.985400  1
  C  C534  1  0.182200  0.261500  0.485400  1
  C  C535  1  0.817800  0.761500  0.014600  1
  C  C536  1  0.682200  0.238500  0.514600  1
  C  C537  1  0.373800  0.767400  0.962800  1
  C  C538  1  0.126200  0.232600  0.462800  1
  C  C539  1  0.873800  0.732600  0.037200  1
  C  C540  1  0.626200  0.267400  0.537200  1
  C  C541  1  0.408700  0.724100  0.937300  1
  C  C542  1  0.091300  0.275900  0.437300  1
  C  C543  1  0.908700  0.775900  0.062700  1
  C  C544  1  0.591300  0.224100  0.562700  1
  C  C545  1  0.387700  0.652000  0.934600  1
  C  C546  1  0.112300  0.348000  0.434600  1
  C  C547  1  0.887700  0.848000  0.065400  1
  C  C548  1  0.612300  0.152000  0.565400  1
  C  C549  1  0.331700  0.623100  0.957200  1
  C  C550  1  0.168300  0.376900  0.457200  1
  C  C551  1  0.831700  0.876900  0.042800  1
  C  C552  1  0.668300  0.123100  0.542800  1
  C  C553  1  0.097800  0.385000  0.195900  1
  C  C554  1  0.402200  0.615000  0.695900  1
  C  C555  1  0.597800  0.115000  0.804100  1
  C  C556  1  0.902200  0.885000  0.304100  1
  C  C557  1  0.067500  0.325800  0.213800  1
  C  C558  1  0.432500  0.674200  0.713800  1
  C  C559  1  0.567500  0.174200  0.786200  1
  C  C560  1  0.932500  0.825800  0.286200  1
  C  C561  1  0.098100  0.306600  0.246400  1
  C  C562  1  0.401900  0.693400  0.746400  1
  C  C563  1  0.598100  0.193400  0.753600  1
  C  C564  1  0.901900  0.806600  0.253600  1
  C  C565  1  0.159000  0.346600  0.261100  1
  C  C566  1  0.341000  0.653400  0.761100  1
  C  C567  1  0.659000  0.153400  0.738900  1
  C  C568  1  0.841000  0.846600  0.238900  1
  C  C569  1  0.189300  0.405700  0.243200  1
  C  C570  1  0.310700  0.594300  0.743200  1
  C  C571  1  0.689300  0.094300  0.756800  1
  C  C572  1  0.810700  0.905700  0.256800  1
  C  C573  1  0.321000  0.316400  0.160300  1
  C  C574  1  0.179000  0.683600  0.660300  1
  C  C575  1  0.821000  0.183600  0.839700  1
  C  C576  1  0.679000  0.816400  0.339700  1
  C  C577  1  0.335700  0.306300  0.195900  1
  C  C578  1  0.164300  0.693700  0.695900  1
  C  C579  1  0.835700  0.193700  0.804100  1
  C  C580  1  0.664300  0.806300  0.304100  1
  C  C581  1  0.292500  0.255800  0.214800  1
  C  C582  1  0.207500  0.744200  0.714800  1
  C  C583  1  0.792500  0.244200  0.785200  1
  C  C584  1  0.707500  0.755800  0.285200  1
  C  C585  1  0.234700  0.215300  0.198000  1
  C  C586  1  0.265300  0.784700  0.698000  1
  C  C587  1  0.734700  0.284700  0.802000  1
  C  C588  1  0.765300  0.715300  0.302000  1
  C  C589  1  0.220100  0.225400  0.162400  1
  C  C590  1  0.279900  0.774600  0.662400  1
  C  C591  1  0.720100  0.274600  0.837600  1
  C  C592  1  0.779900  0.725400  0.337600  1
  C  C593  1  0.107000  0.662900  0.948000  1
  C  C594  1  0.393000  0.337100  0.448000  1
  C  C595  1  0.607000  0.837100  0.052000  1
  C  C596  1  0.893000  0.162900  0.552000  1
  C  C597  1  0.053200  0.709200  0.932200  1
  C  C598  1  0.446800  0.290800  0.432200  1
  C  C599  1  0.553200  0.790800  0.067800  1
  C  C600  1  0.946800  0.209200  0.567800  1
  C  C601  1  0.019100  0.764400  0.951600  1
  C  C602  1  0.480900  0.235600  0.451600  1
  C  C603  1  0.519100  0.735600  0.048400  1
  C  C604  1  0.980900  0.264400  0.548400  1
  C  C605  1  0.038800  0.773500  0.986800  1
  C  C606  1  0.461200  0.226500  0.486800  1
  C  C607  1  0.538800  0.726500  0.013200  1
  C  C608  1  0.961200  0.273500  0.513200  1
  C  C609  1  0.092500  0.727200  0.002600  1
  C  C610  1  0.407500  0.272800  0.502600  1
  C  C611  1  0.592500  0.772800  0.997400  1
  C  C612  1  0.907500  0.227200  0.497400  1
  C  C613  1  0.293900  0.677000  0.184100  1
  C  C614  1  0.206100  0.323000  0.684100  1
  C  C615  1  0.793900  0.823000  0.815900  1
  C  C616  1  0.706100  0.177000  0.315900  1
  C  C617  1  0.302500  0.751200  0.187500  1
  C  C618  1  0.197500  0.248800  0.687500  1
  C  C619  1  0.802500  0.748800  0.812500  1
  C  C620  1  0.697500  0.251200  0.312500  1
  C  C621  1  0.244600  0.791500  0.204100  1
  C  C622  1  0.255400  0.208500  0.704100  1
  C  C623  1  0.744600  0.708500  0.795900  1
  C  C624  1  0.755400  0.291500  0.295900  1
  C  C625  1  0.178000  0.757700  0.217500  1
  C  C626  1  0.322000  0.242300  0.717500  1
  C  C627  1  0.678000  0.742300  0.782500  1
  C  C628  1  0.822000  0.257700  0.282500  1
  C  C629  1  0.169400  0.683500  0.214200  1
  C  C630  1  0.330600  0.316500  0.714200  1
  C  C631  1  0.669400  0.816500  0.785800  1
  C  C632  1  0.830600  0.183500  0.285800  1
  C  C633  1  0.150600  0.448500  0.958500  1
  C  C634  1  0.349400  0.551500  0.458500  1
  C  C635  1  0.650600  0.051500  0.041500  1
  C  C636  1  0.849400  0.948500  0.541500  1
  C  C637  1  0.170700  0.432800  0.920200  1
  C  C638  1  0.329300  0.567200  0.420200  1
  C  C639  1  0.670700  0.067200  0.079800  1
  C  C640  1  0.829300  0.932800  0.579800  1
  C  C641  1  0.211700  0.361400  0.913100  1
  C  C642  1  0.288300  0.638600  0.413100  1
  C  C643  1  0.711700  0.138600  0.086900  1
  C  C644  1  0.788300  0.861400  0.586900  1
  C  C645  1  0.277700  0.360900  0.939900  1
  C  C646  1  0.222300  0.639100  0.439900  1
  C  C647  1  0.777700  0.139100  0.060100  1
  C  C648  1  0.722300  0.860900  0.560100  1
  C  C649  1  0.283100  0.402600  0.970100  1
  C  C650  1  0.216900  0.597400  0.470100  1
  C  C651  1  0.783100  0.097400  0.029900  1
  C  C652  1  0.716900  0.902600  0.529900  1
  C  C653  1  0.345400  0.392400  0.993300  1
  C  C654  1  0.154600  0.607600  0.493300  1
  C  C655  1  0.845400  0.107600  0.006700  1
  C  C656  1  0.654600  0.892400  0.506700  1
  C  C657  1  0.402200  0.340400  0.986200  1
  C  C658  1  0.097800  0.659600  0.486200  1
  C  C659  1  0.902200  0.159600  0.013800  1
  C  C660  1  0.597800  0.840400  0.513800  1
  C  C661  1  0.396700  0.298700  0.956000  1
  C  C662  1  0.103300  0.701300  0.456000  1
  C  C663  1  0.896700  0.201300  0.044000  1
  C  C664  1  0.603300  0.798700  0.544000  1
  C  C665  1  0.334400  0.309000  0.932800  1
  C  C666  1  0.165600  0.691000  0.432800  1
  C  C667  1  0.834400  0.191000  0.067200  1
  C  C668  1  0.665600  0.809000  0.567200  1
  C  C669  1  0.516500  0.220000  0.112900  1
  C  C670  1  0.983500  0.780000  0.612900  1
  C  C671  1  0.016500  0.280000  0.887100  1
  C  C672  1  0.483500  0.720000  0.387100  1
  C  C673  1  0.949000  0.435600  0.057200  1
  C  C674  1  0.551000  0.564400  0.557200  1
  C  C675  1  0.449000  0.064400  0.942800  1
  C  C676  1  0.051000  0.935600  0.442800  1
  C  C677  1  0.337500  0.410700  0.084200  1
  C  C678  1  0.162500  0.589300  0.584200  1
  C  C679  1  0.837500  0.089300  0.915800  1
  C  C680  1  0.662500  0.910700  0.415800  1
  C  C681  1  0.091000  0.108700  0.073100  1
  C  C682  1  0.409000  0.891300  0.573100  1
  C  C683  1  0.591000  0.391300  0.926900  1
  C  C684  1  0.909000  0.608700  0.426900  1
  C  C685  1  0.311200  0.548700  0.958600  1
  C  C686  1  0.188800  0.451300  0.458600  1
  C  C687  1  0.811200  0.951300  0.041400  1
  C  C688  1  0.688800  0.048700  0.541400  1
  C  C689  1  0.125200  0.743400  0.036700  1
  C  C690  1  0.374800  0.256600  0.536700  1
  C  C691  1  0.625200  0.756600  0.963300  1
  C  C692  1  0.874800  0.243400  0.463300  1
  C  C693  1  0.390500  0.174700  0.087800  1
  C  C694  1  0.109500  0.825300  0.587800  1
  C  C695  1  0.890500  0.325300  0.912200  1
  C  C696  1  0.609500  0.674700  0.412200  1
  C  C697  1  0.204100  0.709600  0.084700  1
  C  C698  1  0.295900  0.290400  0.584700  1
  C  C699  1  0.704100  0.790400  0.915300  1
  C  C700  1  0.795900  0.209600  0.415300  1
  C  C701  1  0.421800  0.143500  0.150800  1
  C  C702  1  0.078200  0.856500  0.650800  1
  C  C703  1  0.921800  0.356500  0.849200  1
  C  C704  1  0.578200  0.643500  0.349200  1
  C  C705  1  0.375100  0.134100  0.121100  1
  C  C706  1  0.124900  0.865900  0.621100  1
  C  C707  1  0.875100  0.365900  0.878900  1
  C  C708  1  0.624900  0.634100  0.378900  1
  C  C709  1  0.313100  0.085200  0.121800  1
  C  C710  1  0.186900  0.914800  0.621800  1
  C  C711  1  0.813100  0.414800  0.878200  1
  C  C712  1  0.686900  0.585200  0.378200  1
  C  C713  1  0.297900  0.045800  0.152100  1
  C  C714  1  0.202100  0.954200  0.652100  1
  C  C715  1  0.797900  0.454200  0.847900  1
  C  C716  1  0.702100  0.545800  0.347900  1
  C  C717  1  0.344600  0.055200  0.181700  1
  C  C718  1  0.155400  0.944800  0.681700  1
  C  C719  1  0.844600  0.444800  0.818300  1
  C  C720  1  0.655400  0.555200  0.318300  1
  C  C721  1  0.406600  0.104100  0.181100  1
  C  C722  1  0.093400  0.895900  0.681100  1
  C  C723  1  0.906600  0.395900  0.818900  1
  C  C724  1  0.593400  0.604100  0.318900  1
  C  C725  1  0.289100  0.739600  0.083700  1
  C  C726  1  0.210900  0.260400  0.583700  1
  C  C727  1  0.789100  0.760400  0.916300  1
  C  C728  1  0.710900  0.239600  0.416300  1
  C  C729  1  0.294300  0.818500  0.076400  1
  C  C730  1  0.205700  0.181500  0.576400  1
  C  C731  1  0.794300  0.681500  0.923600  1
  C  C732  1  0.705700  0.318500  0.423600  1
  C  C733  1  0.254800  0.857000  0.106500  1
  C  C734  1  0.245200  0.143000  0.606500  1
  C  C735  1  0.754800  0.643000  0.893500  1
  C  C736  1  0.745200  0.357000  0.393500  1
  C  C737  1  0.156900  0.195600  0.145100  1
  C  C738  1  0.343100  0.804400  0.645100  1
  C  C739  1  0.656900  0.304400  0.854900  1
  C  C740  1  0.843100  0.695600  0.354900  1
  C  C741  1  0.174600  0.828300  0.117500  1
  C  C742  1  0.325400  0.171700  0.617500  1
  C  C743  1  0.674600  0.671700  0.882500  1
  C  C744  1  0.825400  0.328300  0.382500  1
  C  C745  1  0.156400  0.757300  0.109100  1
  C  C746  1  0.343600  0.242700  0.609100  1
  C  C747  1  0.656400  0.742700  0.890900  1
  C  C748  1  0.843600  0.257300  0.390900  1
  C  C749  1  0.085800  0.727300  0.120400  1
  C  C750  1  0.414200  0.272700  0.620400  1
  C  C751  1  0.585800  0.772700  0.879600  1
  C  C752  1  0.914200  0.227300  0.379600  1
  C  C753  1  0.033300  0.768400  0.140000  1
  C  C754  1  0.466700  0.231600  0.640000  1
  C  C755  1  0.533300  0.731600  0.860000  1
  C  C756  1  0.966700  0.268400  0.360000  1
  C  C757  1  0.051500  0.839400  0.148300  1
  C  C758  1  0.448500  0.160600  0.648300  1
  C  C759  1  0.551500  0.660600  0.851700  1
  C  C760  1  0.948500  0.339400  0.351700  1
  C  C761  1  0.122100  0.869400  0.137100  1
  C  C762  1  0.377900  0.130600  0.637100  1
  C  C763  1  0.622100  0.630600  0.862900  1
  C  C764  1  0.877900  0.369400  0.362900  1
  C  C765  1  0.000000  0.040200  0.102100  1
  C  C766  1  0.500000  0.959800  0.602100  1
  C  C767  1  0.500000  0.459800  0.897900  1
  C  C768  1  0.000000  0.540200  0.397900  1
  C  C769  1  0.334800  0.546000  0.067900  1
  C  C770  1  0.165200  0.454000  0.567900  1
  C  C771  1  0.834800  0.954000  0.932100  1
  C  C772  1  0.665200  0.046000  0.432100  1
  C  C773  1  0.470500  0.437400  0.131100  1
  C  C774  1  0.029500  0.562600  0.631100  1
  C  C775  1  0.970500  0.062600  0.868900  1
  C  C776  1  0.529500  0.937400  0.368900  1
  C  C777  1  0.954500  0.436600  0.128500  1
  C  C778  1  0.545500  0.563400  0.628500  1
  C  C779  1  0.454500  0.063400  0.871500  1
  C  C780  1  0.045500  0.936600  0.371500  1
  C  C781  1  0.307400  0.185100  0.037200  1
  C  C782  1  0.192600  0.814900  0.537200  1
  C  C783  1  0.807400  0.314900  0.962800  1
  C  C784  1  0.692600  0.685100  0.462800  1
  C  C785  1  0.108300  0.650200  0.226900  1
  C  C786  1  0.391700  0.349800  0.726900  1
  C  C787  1  0.608300  0.849800  0.773100  1
  C  C788  1  0.891700  0.150200  0.273100  1
  C  C789  1  0.446600  0.237400  0.090800  1
  C  C790  1  0.053400  0.762600  0.590800  1
  C  C791  1  0.946600  0.262600  0.909200  1
  C  C792  1  0.553400  0.737400  0.409200  1
  C  C793  1  0.470500  0.484800  0.059900  1
  C  C794  1  0.029500  0.515200  0.559900  1
  C  C795  1  0.970500  0.015200  0.940100  1
  C  C796  1  0.529500  0.984800  0.440100  1
  C  C797  1  0.492800  0.195600  0.149300  1
  C  C798  1  0.007200  0.804400  0.649300  1
  C  C799  1  0.992800  0.304400  0.850700  1
  C  C800  1  0.507200  0.695600  0.350700  1
  C  C801  1  0.446000  0.581400  0.113500  1
  C  C802  1  0.054000  0.418600  0.613500  1
  C  C803  1  0.946000  0.918600  0.886500  1
  C  C804  1  0.554000  0.081400  0.386500  1
  C  C805  1  0.079400  0.521200  0.055500  1
  C  C806  1  0.420600  0.478800  0.555500  1
  C  C807  1  0.579400  0.978800  0.944500  1
  C  C808  1  0.920600  0.021200  0.444500  1
  C  C809  1  0.875700  0.525700  0.276000  1
  C  C810  1  0.624300  0.474300  0.776000  1
  C  C811  1  0.375700  0.974300  0.724000  1
  C  C812  1  0.124300  0.025700  0.224000  1
  C  C813  1  0.881400  0.569800  0.242900  1
  C  C814  1  0.618600  0.430200  0.742900  1
  C  C815  1  0.381400  0.930200  0.757100  1
  C  C816  1  0.118600  0.069800  0.257100  1
  C  C817  1  0.947200  0.579100  0.221600  1
  C  C818  1  0.552800  0.420900  0.721600  1
  C  C819  1  0.447200  0.920900  0.778400  1
  C  C820  1  0.052800  0.079100  0.278400  1
  C  C821  1  0.942300  0.621200  0.191500  1
  C  C822  1  0.557700  0.378800  0.691500  1
  C  C823  1  0.442300  0.878800  0.808500  1
  C  C824  1  0.057700  0.121200  0.308500  1
  C  C825  1  0.871500  0.654000  0.182600  1
  C  C826  1  0.628500  0.346000  0.682600  1
  C  C827  1  0.371500  0.846000  0.817400  1
  C  C828  1  0.128500  0.154000  0.317400  1
  C  C829  1  0.805700  0.644700  0.203800  1
  C  C830  1  0.694300  0.355300  0.703800  1
  C  C831  1  0.305700  0.855300  0.796200  1
  C  C832  1  0.194300  0.144700  0.296200  1
  C  C833  1  0.810600  0.602600  0.233900  1
  C  C834  1  0.689400  0.397400  0.733900  1
  C  C835  1  0.310600  0.897400  0.766100  1
  C  C836  1  0.189400  0.102600  0.266100  1
  C  C837  1  0.078400  0.170800  0.098600  1
  C  C838  1  0.421600  0.829200  0.598600  1
  C  C839  1  0.578400  0.329200  0.901400  1
  C  C840  1  0.921600  0.670800  0.401400  1
  C  C841  1  0.084600  0.035200  0.089200  1
  C  C842  1  0.415400  0.964800  0.589200  1
  C  C843  1  0.584600  0.464800  0.910800  1
  C  C844  1  0.915400  0.535200  0.410800  1
  C  C845  1  0.088200  0.516000  0.128300  1
  C  C846  1  0.411800  0.484000  0.628300  1
  C  C847  1  0.588200  0.984000  0.871700  1
  C  C848  1  0.911800  0.016000  0.371700  1
  C  C849  1  0.966800  0.100300  0.123500  1
  C  C850  1  0.533200  0.899700  0.623500  1
  C  C851  1  0.466800  0.399700  0.876500  1
  C  C852  1  0.033200  0.600300  0.376500  1
  C  C853  1  0.003500  0.166600  0.119000  1
  C  C854  1  0.496500  0.833400  0.619000  1
  C  C855  1  0.503500  0.333400  0.881000  1
  C  C856  1  0.996500  0.666600  0.381000  1
  C  C857  1  0.974900  0.227100  0.136400  1
  C  C858  1  0.525100  0.772900  0.636400  1
  C  C859  1  0.474900  0.272900  0.863600  1
  C  C860  1  0.025100  0.727100  0.363600  1
  C  C861  1  0.909700  0.221300  0.158300  1
  C  C862  1  0.590300  0.778700  0.658300  1
  C  C863  1  0.409700  0.278700  0.841700  1
  C  C864  1  0.090300  0.721300  0.341700  1
  C  C865  1  0.873000  0.154900  0.162800  1
  C  C866  1  0.627000  0.845100  0.662800  1
  C  C867  1  0.373000  0.345100  0.837200  1
  C  C868  1  0.127000  0.654900  0.337200  1
  C  C869  1  0.901600  0.094500  0.145400  1
  C  C870  1  0.598400  0.905500  0.645400  1
  C  C871  1  0.401600  0.405500  0.854600  1
  C  C872  1  0.098400  0.594500  0.354600  1
  C  C873  1  0.084800  0.391600  0.095300  1
  C  C874  1  0.415200  0.608400  0.595300  1
  C  C875  1  0.584800  0.108400  0.904700  1
  C  C876  1  0.915200  0.891600  0.404700  1
  C  C877  1  0.253000  0.446700  0.254900  1
  C  C878  1  0.247000  0.553300  0.754900  1
  C  C879  1  0.753000  0.053300  0.745100  1
  C  C880  1  0.747000  0.946700  0.245100  1
  C  C881  1  0.343800  0.544800  0.249000  1
  C  C882  1  0.156200  0.455200  0.749000  1
  C  C883  1  0.843800  0.955200  0.751000  1
  C  C884  1  0.656200  0.044800  0.251000  1
  C  C885  1  0.955300  0.562200  0.094200  1
  C  C886  1  0.544700  0.437800  0.594200  1
  C  C887  1  0.455300  0.937800  0.905800  1
  C  C888  1  0.044700  0.062200  0.405800  1
  C  C889  1  0.326700  0.592400  0.280300  1
  C  C890  1  0.173300  0.407600  0.780300  1
  C  C891  1  0.826700  0.907600  0.719700  1
  C  C892  1  0.673300  0.092400  0.219700  1
  C  C893  1  0.317100  0.550300  0.315500  1
  C  C894  1  0.182900  0.449700  0.815500  1
  C  C895  1  0.817100  0.949700  0.684500  1
  C  C896  1  0.682900  0.050300  0.184500  1
  C  C897  1  0.330400  0.500100  0.137700  1
  C  C898  1  0.169600  0.499900  0.637700  1
  C  C899  1  0.830400  0.999900  0.862300  1
  C  C900  1  0.669600  0.000100  0.362300  1
  C  C901  1  0.396600  0.517600  0.323700  1
  C  C902  1  0.103400  0.482400  0.823700  1
  C  C903  1  0.896600  0.982400  0.676300  1
  C  C904  1  0.603400  0.017600  0.176300  1
  C  C905  1  0.436400  0.481400  0.292800  1
  C  C906  1  0.063600  0.518600  0.792800  1
  C  C907  1  0.936400  0.018600  0.707200  1
  C  C908  1  0.563600  0.981400  0.207200  1
  C  C909  1  0.412600  0.498000  0.258800  1
  C  C910  1  0.087400  0.502000  0.758800  1
  C  C911  1  0.912600  0.002000  0.741200  1
  C  C912  1  0.587400  0.998000  0.241200  1
  C  C913  1  0.452800  0.469400  0.230200  1
  C  C914  1  0.047200  0.530600  0.730200  1
  C  C915  1  0.952800  0.030600  0.769800  1
  C  C916  1  0.547200  0.969400  0.269800  1
  C  C917  1  0.516900  0.424200  0.235600  1
  C  C918  1  0.983100  0.575800  0.735600  1
  C  C919  1  0.016900  0.075800  0.764400  1
  C  C920  1  0.483100  0.924200  0.264400  1
  C  C921  1  0.540700  0.407500  0.269600  1
  C  C922  1  0.959300  0.592500  0.769600  1
  C  C923  1  0.040700  0.092500  0.730400  1
  C  C924  1  0.459300  0.907500  0.230400  1
  C  C925  1  0.500500  0.436100  0.298200  1
  C  C926  1  0.999500  0.563900  0.798200  1
  C  C927  1  0.000500  0.063900  0.701800  1
  C  C928  1  0.499500  0.936100  0.201800  1
  C  C929  1  0.225200  0.457500  0.981400  1
  C  C930  1  0.274800  0.542500  0.481400  1
  C  C931  1  0.725200  0.042500  0.018600  1
  C  C932  1  0.774800  0.957500  0.518600  1
  C  C933  1  0.023600  0.543400  0.232600  1
  C  C934  1  0.476400  0.456600  0.732600  1
  C  C935  1  0.523600  0.956600  0.767400  1
  C  C936  1  0.976400  0.043400  0.267400  1
  C  C937  1  0.032200  0.526400  0.271200  1
  C  C938  1  0.467800  0.473600  0.771200  1
  C  C939  1  0.532200  0.973600  0.728800  1
  C  C940  1  0.967800  0.026400  0.228800  1
  C  C941  1  0.954300  0.498900  0.283900  1
  C  C942  1  0.545700  0.501100  0.783900  1
  C  C943  1  0.454300  0.001100  0.716100  1
  C  C944  1  0.045700  0.998900  0.216100  1
  N  N945  1  0.712500  0.537500  0.097400  1
  N  N946  1  0.787500  0.462500  0.597400  1
  N  N947  1  0.212500  0.962500  0.902600  1
  N  N948  1  0.287500  0.037500  0.402600  1
  N  N949  1  0.092100  0.578000  0.221400  1
  N  N950  1  0.407900  0.422000  0.721400  1
  N  N951  1  0.592100  0.922000  0.778600  1
  N  N952  1  0.907900  0.078000  0.278600  1
  N  N953  1  0.525900  0.479100  0.036300  1
  N  N954  1  0.974100  0.520900  0.536300  1
  N  N955  1  0.025900  0.020900  0.963700  1
  N  N956  1  0.474100  0.979100  0.463700  1
  N  N957  1  0.245800  0.533900  0.978100  1
  N  N958  1  0.254200  0.466100  0.478100  1
  N  N959  1  0.745800  0.966100  0.021900  1
  N  N960  1  0.754200  0.033900  0.521900  1
  N  N961  1  0.271100  0.503600  0.241000  1
  N  N962  1  0.228900  0.496400  0.741000  1
  N  N963  1  0.771100  0.996400  0.759000  1
  N  N964  1  0.728900  0.003600  0.259000  1
  N  N965  1  0.136300  0.348800  0.094400  1
  N  N966  1  0.363700  0.651200  0.594400  1
  N  N967  1  0.636300  0.151200  0.905600  1
  N  N968  1  0.863700  0.848800  0.405600  1
  N  N969  1  0.323000  0.202800  0.068900  1
  N  N970  1  0.177000  0.797200  0.568900  1
  N  N971  1  0.823000  0.297200  0.931100  1
  N  N972  1  0.677000  0.702800  0.431100  1
  N  N973  1  0.191800  0.258300  0.035900  1
  N  N974  1  0.308200  0.741700  0.535900  1
  N  N975  1  0.691800  0.241700  0.964100  1
  N  N976  1  0.808200  0.758300  0.464100  1
  N  N977  1  0.144200  0.197900  0.114300  1
  N  N978  1  0.355800  0.802100  0.614300  1
  N  N979  1  0.644200  0.302100  0.885700  1
  N  N980  1  0.855800  0.697900  0.385700  1
  N  N981  1  0.125600  0.557800  0.037400  1
  N  N982  1  0.374400  0.442200  0.537400  1
  N  N983  1  0.625600  0.942200  0.962600  1
  N  N984  1  0.874400  0.057800  0.462600  1
  N  N985  1  0.914900  0.417600  0.035200  1
  N  N986  1  0.585100  0.582400  0.535200  1
  N  N987  1  0.414900  0.082400  0.964800  1
  N  N988  1  0.085100  0.917600  0.464800  1
  N  N989  1  0.296800  0.666300  0.982600  1
  N  N990  1  0.203200  0.333700  0.482600  1
  N  N991  1  0.796800  0.833700  0.017400  1
  N  N992  1  0.703200  0.166300  0.517400  1
  N  N993  1  0.158700  0.424900  0.210600  1
  N  N994  1  0.341300  0.575100  0.710600  1
  N  N995  1  0.658700  0.075100  0.789400  1
  N  N996  1  0.841300  0.924900  0.289400  1
  N  N997  1  0.292800  0.579300  0.049300  1
  N  N998  1  0.207200  0.420700  0.549300  1
  N  N999  1  0.792800  0.920700  0.950700  1
  N  N1000  1  0.707200  0.079300  0.450700  1
  N  N1001  1  0.263200  0.275900  0.143500  1
  N  N1002  1  0.236800  0.724100  0.643500  1
  N  N1003  1  0.763200  0.224100  0.856500  1
  N  N1004  1  0.736800  0.775900  0.356500  1
  N  N1005  1  0.126600  0.672000  0.983200  1
  N  N1006  1  0.373400  0.328000  0.483200  1
  N  N1007  1  0.626600  0.828000  0.016800  1
  N  N1008  1  0.873400  0.172000  0.516800  1
  N  N1009  1  0.471100  0.637300  0.123400  1
  N  N1010  1  0.028900  0.362700  0.623400  1
  N  N1011  1  0.971100  0.862700  0.876600  1
  N  N1012  1  0.528900  0.137300  0.376600  1
  N  N1013  1  0.227300  0.643200  0.197500  1
  N  N1014  1  0.272700  0.356800  0.697500  1
  N  N1015  1  0.727300  0.856800  0.802500  1
  N  N1016  1  0.772700  0.143200  0.302500  1
  N  N1017  1  0.124300  0.532800  0.151400  1
  N  N1018  1  0.375700  0.467200  0.651400  1
  N  N1019  1  0.624300  0.967200  0.848600  1
  N  N1020  1  0.875700  0.032800  0.348600  1
  N  N1021  1  0.294600  0.508800  0.163100  1
  N  N1022  1  0.205400  0.491200  0.663100  1
  N  N1023  1  0.794600  0.991200  0.836900  1
  N  N1024  1  0.705400  0.008800  0.336900  1
  N  N1025  1  0.920500  0.407900  0.154700  1
  N  N1026  1  0.579500  0.592100  0.654700  1
  N  N1027  1  0.420500  0.092100  0.845300  1
  N  N1028  1  0.079500  0.907900  0.345300  1
  N  N1029  1  0.300200  0.357700  0.079100  1
  N  N1030  1  0.199800  0.642300  0.579100  1
  N  N1031  1  0.800200  0.142300  0.920900  1
  N  N1032  1  0.699800  0.857700  0.420900  1
  N  N1033  1  0.927700  0.622900  0.097100  1
  N  N1034  1  0.572300  0.377100  0.597100  1
  N  N1035  1  0.427700  0.877100  0.902900  1
  N  N1036  1  0.072300  0.122900  0.402900  1
  N  N1037  1  0.510300  0.397600  0.144700  1
  N  N1038  1  0.989700  0.602400  0.644700  1
  N  N1039  1  0.010300  0.102400  0.855300  1
  N  N1040  1  0.489700  0.897600  0.355300  1
  N  N1041  1  0.177200  0.701300  0.049000  1
  N  N1042  1  0.322800  0.298700  0.549000  1
  N  N1043  1  0.677200  0.798700  0.951000  1
  N  N1044  1  0.822800  0.201300  0.451000  1
  Cl  Cl1045  1  0.270900  0.631800  0.855400  1
  Cl  Cl1046  1  0.229100  0.368200  0.355400  1
  Cl  Cl1047  1  0.770900  0.868200  0.144600  1
  Cl  Cl1048  1  0.729100  0.131800  0.644600  1
  O  O1049  1  0.328000  0.583900  0.843200  1
  O  O1050  1  0.172000  0.416100  0.343200  1
  O  O1051  1  0.828000  0.916100  0.156800  1
  O  O1052  1  0.672000  0.083900  0.656800  1
  O  O1053  1  0.219400  0.640400  0.828200  1
  O  O1054  1  0.280600  0.359600  0.328200  1
  O  O1055  1  0.719400  0.859600  0.171800  1
  O  O1056  1  0.780600  0.140400  0.671800  1
  O  O1057  1  0.323600  0.701400  0.858400  1
  O  O1058  1  0.176400  0.298600  0.358400  1
  O  O1059  1  0.823600  0.798600  0.141600  1
  O  O1060  1  0.676400  0.201400  0.641600  1
  O  O1061  1  0.233200  0.608200  0.887500  1
  O  O1062  1  0.266800  0.391800  0.387500  1
  O  O1063  1  0.733200  0.891800  0.112500  1
  O  O1064  1  0.766800  0.108200  0.612500  1
