
#######################################################################
#
#                 Cambridge Crystallographic Data Centre
#                                CCDC 
#
#######################################################################
#
# If this CIF has been generated from an entry in the Cambridge 
# Structural Database, then it will include bibliographic, chemical, 
# crystal, experimental, refinement or atomic coordinate data resulting 
# from the CCDC's data processing and validation procedures.
#
#######################################################################

data_OXOKET02
_chemical_formula_moiety         
'C108 H97 Co3 Fe2 N24,C8 H20 N1 1+,Cl1 O4 1-,5(C2 H6 O1)'
_chemical_name_systematic        
'tetraethylammonium hexakis(\m-cyano)-hexakis(1-(pyridin-2-yl)-N-(1,2,3,4-tetrahydronaphthalen-1-yl)methanimine)-hexacyano-tri-cobalt-di-iron perchlorate ethanol solvate'
_symmetry_cell_setting           orthorhombic
_symmetry_space_group_name_H-M   'P 21 21 21'
_symmetry_Int_Tables_number      19
_space_group_name_Hall           'P 2ac 2ab'
loop_
_symmetry_equiv_pos_site_id
_symmetry_equiv_pos_as_xyz
1 x,y,z
2 1/2-x,-y,1/2+z
3 1/2+x,1/2-y,-z
4 -x,1/2+y,1/2-z
_cell_length_a                   16.991(9)
_cell_length_b                   18.555(10)
_cell_length_c                   38.04(2)
_cell_angle_alpha                90
_cell_angle_beta                 90
_cell_angle_gamma                90
_cell_volume                     11992.8
_exptl_crystal_colour            red
_exptl_crystal_description       needle
_cell_formula_units_Z            4
loop_
_atom_site_label
_atom_site_type_symbol
_atom_site_fract_x
_atom_site_fract_y
_atom_site_fract_z
Cl1 Cl 0.2709(4) 0.6318(4) -0.1446(2)
O1 O 0.3280(15) 0.5839(10) -0.1568(7)
O2 O 0.2194(12) 0.6404(8) -0.1718(5)
O3 O 0.3236(14) 0.7014(13) -0.1416(8)
O4 O 0.2332(13) 0.6082(14) -0.1125(5)
N25 N 0.7125(16) 0.5375(15) 0.0974(6)
C109 C 0.7471(19) 0.5408(19) 0.0342(8)
H96 H 0.7759 0.5860 0.0377
H97 H 0.7201 0.5421 0.0114
H98 H 0.7841 0.5003 0.0346
C110 C 0.6858(17) 0.6862(16) 0.0962(8)
H99 H 0.6914 0.6960 0.0710
H100 H 0.7098 0.7255 0.1097
H101 H 0.6298 0.6827 0.1022
C111 C 0.7410(18) 0.4114(16) 0.1033(8)
H102 H 0.7638 0.3975 0.0806
H103 H 0.6836 0.4063 0.1023
H104 H 0.7620 0.3802 0.1218
C112 C 0.6292(18) 0.5398(16) 0.1601(7)
H105 H 0.6264 0.5900 0.1681
H106 H 0.6746 0.5161 0.1710
H107 H 0.5809 0.5145 0.1668
C113 C 0.7611(13) 0.4862(12) 0.1109(6)
H108 H 0.7626 0.4922 0.1367
H109 H 0.8149 0.4953 0.1020
C114 C 0.6914(17) 0.5322(19) 0.0612(6)
H110 H 0.6671 0.4841 0.0579
H111 H 0.6494 0.5682 0.0570
C115 C 0.6384(18) 0.5382(18) 0.1193(7)
H112 H 0.6085 0.4952 0.1116
H113 H 0.6082 0.5803 0.1108
C116 C 0.731(2) 0.6082(18) 0.1061(9)
H114 H 0.7856 0.6148 0.0977
H115 H 0.7342 0.6082 0.1321
Co1 Co 0.19605(13) 0.53221(13) 0.19525(6)
Co2 Co 0.22798(14) 0.27821(12) 0.08886(8)
Co3 Co 0.21004(13) 0.61415(13) 0.01380(6)
Fe1 Fe 0.01902(13) 0.47788(11) 0.09272(7)
Fe2 Fe 0.40146(12) 0.49438(12) 0.09951(6)
N1 N 0.0921(11) 0.5780(8) 0.2214(4)
N2 N 0.5259(9) 0.4791(14) 0.0363(4)
N3 N 0.2458(10) 0.5339(9) -0.0219(4)
N4 N 0.2711(7) 0.5036(7) 0.2410(4)
N5 N 0.1363(9) 0.3488(8) 0.0944(4)
N6 N 0.3230(10) 0.2028(9) 0.0689(5)
N7 N 0.1918(7) 0.2583(6) 0.0359(3)
C1 C 0.1248(7) 0.2846(6) 0.0194(4)
H1 H 0.0926 0.3193 0.0309
C2 C 0.1048(8) 0.2603(8) -0.0140(4)
H2 H 0.0590 0.2782 -0.0253
C3 C 0.1519(10) 0.2096(8) -0.0308(3)
H3 H 0.1382 0.1929 -0.0536
C4 C 0.2189(8) 0.1833(8) -0.0142(4)
H4 H 0.2510 0.1486 -0.0257
C5 C 0.2389(6) 0.2076(7) 0.0191(4)
N8 N 0.1442(9) 0.1979(8) 0.1143(5)
N9 N 0.1256(8) 0.5578(7) 0.0374(4)
N10 N -0.0851(9) 0.4176(9) 0.0352(4)
N11 N 0.2968(5) 0.6663(5) -0.0174(2)
C6 C 0.3178(6) 0.7385(5) -0.0146(2)
H5 H 0.2939 0.7681 0.0028
C7 C 0.3738(6) 0.7674(4) -0.0372(3)
H6 H 0.3881 0.8167 -0.0353
C8 C 0.4087(6) 0.7241(6) -0.0627(3)
H7 H 0.4469 0.7439 -0.0781
C9 C 0.3877(7) 0.6520(6) -0.0654(3)
H8 H 0.4115 0.6224 -0.0828
C10 C 0.3317(6) 0.6231(4) -0.0428(3)
N12 N 0.1587(6) 0.4249(5) 0.2106(3)
C11 C 0.0978(6) 0.3850(5) 0.1959(2)
H9 H 0.0769 0.3981 0.1737
C12 C 0.0675(6) 0.3258(6) 0.2138(3)
H10 H 0.0258 0.2985 0.2037
C13 C 0.0981(7) 0.3066(5) 0.2464(3)
H11 H 0.0773 0.2662 0.2586
C14 C 0.1590(7) 0.3466(6) 0.2611(2)
H12 H 0.1799 0.3334 0.2833
C15 C 0.1893(6) 0.4057(5) 0.2432(3)
N13 N 0.2928(8) 0.5793(7) 0.0493(3)
N14 N 0.2632(7) 0.2759(6) 0.1435(2)
C16 C 0.3210(7) 0.3164(6) 0.1603(3)
H13 H 0.3505 0.3509 0.1474
C17 C 0.3357(7) 0.3063(7) 0.1959(3)
H14 H 0.3752 0.3340 0.2073
C18 C 0.2925(8) 0.2558(8) 0.2148(2)
H15 H 0.3025 0.2489 0.2391
C19 C 0.2347(8) 0.2153(7) 0.1980(3)
H16 H 0.2053 0.1808 0.2110
C20 C 0.2201(6) 0.2254(6) 0.1624(3)
N15 N 0.1266(7) 0.6720(7) -0.0168(3)
C21 C 0.1070(8) 0.6629(7) -0.0520(3)
H17 H 0.1303 0.6252 -0.0652
C22 C 0.0532(9) 0.7092(8) -0.0678(3)
H18 H 0.0397 0.7030 -0.0918
C23 C 0.0191(8) 0.7644(8) -0.0484(4)
H19 H -0.0177 0.7960 -0.0592
C24 C 0.0388(9) 0.7735(7) -0.0132(4)
H20 H 0.0154 0.8112 0.0001
C25 C 0.0925(8) 0.7272(8) 0.0026(3)
N16 N 0.4711(12) 0.6373(10) 0.1234(5)
N17 N 0.2273(7) 0.6432(5) 0.1975(3)
C26 C 0.2939(6) 0.6770(6) 0.1841(3)
H21 H 0.3335 0.6494 0.1727
C27 C 0.3025(7) 0.7512(6) 0.1875(3)
H22 H 0.3480 0.7743 0.1783
C28 C 0.2446(8) 0.7915(5) 0.2041(4)
H23 H 0.2505 0.8422 0.2064
C29 C 0.1780(7) 0.7577(7) 0.2175(4)
H24 H 0.1384 0.7853 0.2289
C30 C 0.1694(6) 0.6835(7) 0.2142(4)
N18 N 0.1243(6) 0.5328(6) 0.1514(3)
N19 N 0.2946(9) 0.5088(8) 0.1631(4)
N20 N -0.0795(11) 0.4079(10) 0.1547(5)
N21 N 0.3002(8) 0.3577(8) 0.0791(4)
N22 N -0.0723(9) 0.6229(9) 0.0971(5)
N23 N 0.5103(9) 0.3976(9) 0.1447(4)
N24 N 0.1772(7) 0.7013(8) 0.0490(4)
C31 C 0.1506(10) 0.4485(12) -0.0415(5)
H25 H 0.1184 0.4085 -0.0320
H26 H 0.1188 0.4932 -0.0402
C32 C 0.1707(10) 0.4328(12) -0.0798(5)
H27 H 0.1214 0.4341 -0.0937
H28 H 0.2048 0.4722 -0.0886
C33 C 0.2117(10) 0.3614(11) -0.0869(5)
H29 H 0.1755 0.3203 -0.0833
H30 H 0.2327 0.3595 -0.1112
C34 C 0.2777(6) 0.3609(7) -0.0601(3)
C35 C 0.2831(6) 0.4026(6) -0.0299(3)
C36 C 0.3454(7) 0.3924(6) -0.0067(3)
H31 H 0.3491 0.4209 0.0140
C37 C 0.4022(6) 0.3404(7) -0.0138(3)
H32 H 0.4447 0.3334 0.0021
C38 C 0.3967(7) 0.2987(7) -0.0440(4)
H33 H 0.4355 0.2632 -0.0489
C39 C 0.3344(8) 0.3090(7) -0.0672(3)
H34 H 0.3307 0.2805 -0.0879
C40 C 0.5165(11) 0.2200(11) 0.1129(5)
H35 H 0.5505 0.2631 0.1148
H36 H 0.5474 0.1814 0.1014
C41 C -0.0510(11) 0.4356(11) 0.0572(5)
C42 C 0.3375(10) 0.4107(9) 0.0842(4)
C43 C 0.091(2) 0.1087(12) 0.0731(7)
H37 H 0.0521 0.1126 0.0539
H38 H 0.1441 0.1137 0.0625
C44 C 0.3112(12) 0.5487(11) -0.0414(5)
H39 H 0.3025 0.5312 -0.0657
H40 H 0.3562 0.5215 -0.0315
C45 C 0.1252(10) 0.7434(11) 0.0367(4)
H41 H 0.1082 0.7844 0.0496
C46 C 0.3905(10) 0.1747(8) 0.0878(5)
H42 H 0.4163 0.1396 0.0715
C47 C 0.2041(8) 0.7096(9) 0.0847(5)
H43 H 0.2064 0.6605 0.0955
C48 C 0.4218(7) 0.1435(7) 0.1508(4)
C49 C 0.3751(8) 0.1341(7) 0.1211(3)
C50 C 0.3131(8) 0.0852(8) 0.1218(4)
H44 H 0.2811 0.0788 0.1015
C51 C 0.2979(8) 0.0458(7) 0.1521(5)
H45 H 0.2555 0.0123 0.1526
C52 C 0.3446(10) 0.0552(8) 0.1817(4)
H46 H 0.3343 0.0282 0.2024
C53 C 0.4066(9) 0.1041(8) 0.1811(4)
H47 H 0.4386 0.1105 0.2013
C54 C 0.2891(9) 0.7396(8) 0.0837(6)
H48 H 0.3146 0.7297 0.1066
H49 H 0.3190 0.7134 0.0654
C55 C 0.2943(11) 0.8185(8) 0.0764(5)
H50 H 0.2674 0.8301 0.0540
H51 H 0.3500 0.8335 0.0745
C56 C 0.2548(9) 0.8570(10) 0.1065(6)
H52 H 0.2489 0.9084 0.1001
H53 H 0.2903 0.8548 0.1272
C57 C 0.1569(11) 0.1956(10) 0.1451(6)
H54 H 0.1196 0.1706 0.1591
C58 C 0.1746(6) 0.8283(6) 0.1175(4)
C59 C 0.1564(6) 0.7573(6) 0.1091(4)
C60 C 0.0858(7) 0.7273(4) 0.1204(4)
H55 H 0.0734 0.6788 0.1147
C61 C 0.0333(6) 0.7684(5) 0.1400(4)
H56 H -0.0149 0.7479 0.1477
C62 C 0.0515(6) 0.8394(5) 0.1483(4)
H57 H 0.0156 0.8675 0.1617
C63 C 0.1221(7) 0.8694(5) 0.1371(4)
H58 H 0.1345 0.9179 0.1428
C64 C 0.0000(15) 0.0402(14) 0.1021(8)
H59 H -0.0334 0.0370 0.0808
H60 H -0.0098 -0.0044 0.1156
C65 C 0.3348(8) 0.5460(7) 0.0679(3)
C66 C 0.4705(11) 0.4374(11) 0.1311(6)
C67 C -0.0455(13) 0.4366(13) 0.1285(7)
C68 C 0.3074(12) 0.1851(11) 0.0372(5)
H61 H 0.3438 0.1553 0.0251
C69 C 0.1083(14) 0.6502(11) 0.2269(6)
H62 H 0.0725 0.6771 0.2409
C70 C 0.4466(10) 0.2374(9) 0.0908(6)
H63 H 0.4644 0.2516 0.0670
H64 H 0.4185 0.2790 0.1013
C71 C 0.4705(10) 0.4848(11) 0.0599(5)
C72 C 0.4928(10) 0.1956(9) 0.1493(5)
H65 H 0.4802 0.2387 0.1635
H66 H 0.5385 0.1716 0.1604
C73 C 0.4460(11) 0.5814(10) 0.1135(5)
C74 C 0.0794(10) 0.5212(10) 0.0555(5)
C75 C -0.1243(12) 0.5257(13) 0.2760(5)
H67 H -0.1439 0.5558 0.2956
H68 H -0.1611 0.4849 0.2726
C76 C -0.1186(7) 0.5698(7) 0.2429(3)
C77 C -0.0528(6) 0.5791(7) 0.2216(3)
C78 C -0.0577(6) 0.6212(7) 0.1915(3)
H69 H -0.0127 0.6276 0.1770
C79 C -0.1285(7) 0.6540(7) 0.1826(3)
H70 H -0.1319 0.6828 0.1620
C80 C -0.1943(6) 0.6447(7) 0.2038(3)
H71 H -0.2427 0.6671 0.1977
C81 C -0.1894(6) 0.6026(7) 0.2339(3)
H72 H -0.2344 0.5962 0.2484
C82 C 0.0784(13) 0.1708(14) 0.0986(7)
C83 C 0.0846(15) 0.0352(15) 0.0892(8)
H73 H 0.1223 0.0283 0.1088
H74 H 0.0916 -0.0036 0.0716
C84 C 0.0882(8) 0.5160(7) 0.1283(4)
C85 C -0.0332(12) 0.1003(9) 0.1235(5)
C86 C 0.0035(9) 0.1666(11) 0.1190(4)
C87 C -0.0251(11) 0.2271(8) 0.1364(5)
H75 H 0.0000 0.2724 0.1334
C88 C -0.0903(11) 0.2213(9) 0.1583(5)
H76 H -0.1098 0.2626 0.1702
C89 C -0.1270(9) 0.1549(11) 0.1628(5)
H77 H -0.1715 0.1510 0.1778
C90 C -0.0984(11) 0.0945(8) 0.1454(5)
H78 H -0.1235 0.0491 0.1485
C91 C 0.0848(11) 0.3916(10) 0.0953(5)
C92 C 0.2530(10) 0.4467(10) 0.2549(5)
H79 H 0.2832 0.4297 0.2742
C93 C 0.3438(9) 0.5448(9) 0.2490(4)
H80 H 0.3580 0.5755 0.2283
C94 C -0.0447(10) 0.5622(11) 0.0942(5)
C95 C 0.3267(11) 0.5924(10) 0.2803(4)
H81 H 0.2778 0.6198 0.2758
H82 H 0.3701 0.6276 0.2830
C96 C 0.3171(9) 0.5503(11) 0.3155(5)
H83 H 0.3007 0.5834 0.3346
H84 H 0.2769 0.5121 0.3130
C97 C 0.3304(9) 0.5001(9) 0.1377(4)
C98 C 0.3966(9) 0.5176(10) 0.3237(4)
H85 H 0.3899 0.4817 0.3427
H86 H 0.4317 0.5560 0.3327
C99 C 0.4364(6) 0.4814(7) 0.2928(3)
C100 C 0.4126(6) 0.4980(6) 0.2588(3)
C101 C 0.4528(6) 0.4694(7) 0.2302(2)
H87 H 0.4366 0.4808 0.2069
C102 C 0.5169(6) 0.4242(7) 0.2356(3)
H88 H 0.5444 0.4046 0.2160
C103 C 0.5407(6) 0.4075(6) 0.2696(3)
H89 H 0.5845 0.3765 0.2732
C104 C 0.5005(6) 0.4361(7) 0.2982(2)
H90 H 0.5168 0.4247 0.3214
C105 C 0.2252(8) 0.4575(9) -0.0186(5)
H91 H 0.2107 0.4477 0.0064
C106 C 0.0236(10) 0.5434(10) 0.2326(5)
C107 C 0.0322(11) 0.5264(13) 0.2712(5)
H92 H 0.0735 0.4895 0.2747
H93 H 0.0473 0.5703 0.2843
C108 C -0.0457(12) 0.4989(15) 0.2839(7)
H94 H -0.0467 0.4473 0.2772
H95 H -0.0419 0.4997 0.3099
loop_
_geom_bond_atom_site_label_1
_geom_bond_atom_site_label_2
_geom_bond_site_symmetry_1
_geom_bond_site_symmetry_2
Co1 N1 1_555 1_555
Co2 N5 1_555 1_555
Co3 N3 1_555 1_555
Fe1 C41 1_555 1_555
Fe2 C42 1_555 1_555
N1 C69 1_555 1_555
N2 C71 1_555 1_555
N3 C44 1_555 1_555
N4 Co1 1_555 1_555
N5 C91 1_555 1_555
N6 Co2 1_555 1_555
N7 Co2 1_555 1_555
C1 N7 1_555 1_555
H1 C1 1_555 1_555
C2 C1 1_555 1_555
H2 C2 1_555 1_555
C3 C2 1_555 1_555
H3 C3 1_555 1_555
C4 C3 1_555 1_555
H4 C4 1_555 1_555
C5 N7 1_555 1_555
N8 Co2 1_555 1_555
N9 Co3 1_555 1_555
N10 C41 1_555 1_555
N11 Co3 1_555 1_555
C6 N11 1_555 1_555
H5 C6 1_555 1_555
C7 C6 1_555 1_555
H6 C7 1_555 1_555
C8 C7 1_555 1_555
H7 C8 1_555 1_555
C9 C8 1_555 1_555
H8 C9 1_555 1_555
C10 N11 1_555 1_555
N12 Co1 1_555 1_555
C11 N12 1_555 1_555
H9 C11 1_555 1_555
C12 C11 1_555 1_555
H10 C12 1_555 1_555
C13 C12 1_555 1_555
H11 C13 1_555 1_555
C14 C13 1_555 1_555
H12 C14 1_555 1_555
C15 N12 1_555 1_555
N13 Co3 1_555 1_555
N14 Co2 1_555 1_555
C16 N14 1_555 1_555
H13 C16 1_555 1_555
C17 C16 1_555 1_555
H14 C17 1_555 1_555
C18 C17 1_555 1_555
H15 C18 1_555 1_555
C19 C18 1_555 1_555
H16 C19 1_555 1_555
C20 N14 1_555 1_555
N15 Co3 1_555 1_555
C21 N15 1_555 1_555
H17 C21 1_555 1_555
C22 C21 1_555 1_555
H18 C22 1_555 1_555
C23 C22 1_555 1_555
H19 C23 1_555 1_555
C24 C23 1_555 1_555
H20 C24 1_555 1_555
C25 N15 1_555 1_555
N16 C73 1_555 1_555
N17 Co1 1_555 1_555
C26 N17 1_555 1_555
H21 C26 1_555 1_555
C27 C26 1_555 1_555
H22 C27 1_555 1_555
C28 C27 1_555 1_555
H23 C28 1_555 1_555
C29 C28 1_555 1_555
H24 C29 1_555 1_555
C30 N17 1_555 1_555
N18 Co1 1_555 1_555
N19 Co1 1_555 1_555
N20 C67 1_555 1_555
N21 Co2 1_555 1_555
N22 C94 1_555 1_555
N23 C66 1_555 1_555
N24 Co3 1_555 1_555
C31 H25 1_555 1_555
H26 C31 1_555 1_555
C32 C31 1_555 1_555
H27 C32 1_555 1_555
H28 C32 1_555 1_555
C33 C32 1_555 1_555
H29 C33 1_555 1_555
H30 C33 1_555 1_555
C34 C33 1_555 1_555
C35 C34 1_555 1_555
C36 C35 1_555 1_555
H31 C36 1_555 1_555
C37 C36 1_555 1_555
H32 C37 1_555 1_555
C38 C37 1_555 1_555
H33 C38 1_555 1_555
C39 C34 1_555 1_555
H34 C39 1_555 1_555
C40 H35 1_555 1_555
H36 C40 1_555 1_555
C42 N21 1_555 1_555
C43 H37 1_555 1_555
H38 C43 1_555 1_555
C44 C10 1_555 1_555
H39 C44 1_555 1_555
H40 C44 1_555 1_555
C45 C25 1_555 1_555
H41 C45 1_555 1_555
C46 N6 1_555 1_555
H42 C46 1_555 1_555
C47 N24 1_555 1_555
H43 C47 1_555 1_555
C48 C49 1_555 1_555
C49 C46 1_555 1_555
C50 C49 1_555 1_555
H44 C50 1_555 1_555
C51 C50 1_555 1_555
H45 C51 1_555 1_555
C52 C51 1_555 1_555
H46 C52 1_555 1_555
C53 C48 1_555 1_555
H47 C53 1_555 1_555
C54 C47 1_555 1_555
H48 C54 1_555 1_555
H49 C54 1_555 1_555
C55 C54 1_555 1_555
H50 C55 1_555 1_555
H51 C55 1_555 1_555
C56 C55 1_555 1_555
H52 C56 1_555 1_555
H53 C56 1_555 1_555
C57 N8 1_555 1_555
H54 C57 1_555 1_555
C58 C56 1_555 1_555
C59 C47 1_555 1_555
C60 C59 1_555 1_555
H55 C60 1_555 1_555
C61 C60 1_555 1_555
H56 C61 1_555 1_555
C62 C61 1_555 1_555
H57 C62 1_555 1_555
C63 C58 1_555 1_555
H58 C63 1_555 1_555
C64 H59 1_555 1_555
H60 C64 1_555 1_555
C65 Fe2 1_555 1_555
C66 Fe2 1_555 1_555
C67 Fe1 1_555 1_555
C68 N6 1_555 1_555
H61 C68 1_555 1_555
C69 C30 1_555 1_555
H62 C69 1_555 1_555
C70 C40 1_555 1_555
H63 C70 1_555 1_555
H64 C70 1_555 1_555
C71 Fe2 1_555 1_555
C72 C40 1_555 1_555
H65 C72 1_555 1_555
H66 C72 1_555 1_555
C73 Fe2 1_555 1_555
C74 Fe1 1_555 1_555
C75 H67 1_555 1_555
H68 C75 1_555 1_555
C76 C75 1_555 1_555
C77 C76 1_555 1_555
C78 C77 1_555 1_555
H69 C78 1_555 1_555
C79 C78 1_555 1_555
H70 C79 1_555 1_555
C80 C79 1_555 1_555
H71 C80 1_555 1_555
C81 C76 1_555 1_555
H72 C81 1_555 1_555
C82 N8 1_555 1_555
C83 C43 1_555 1_555
H73 C83 1_555 1_555
H74 C83 1_555 1_555
C84 Fe1 1_555 1_555
C85 C64 1_555 1_555
C86 C82 1_555 1_555
C87 C86 1_555 1_555
H75 C87 1_555 1_555
C88 C87 1_555 1_555
H76 C88 1_555 1_555
C89 C88 1_555 1_555
H77 C89 1_555 1_555
C90 C85 1_555 1_555
H78 C90 1_555 1_555
C91 Fe1 1_555 1_555
C92 N4 1_555 1_555
H79 C92 1_555 1_555
C93 N4 1_555 1_555
H80 C93 1_555 1_555
C94 Fe1 1_555 1_555
C95 C93 1_555 1_555
H81 C95 1_555 1_555
H82 C95 1_555 1_555
C96 C95 1_555 1_555
H83 C96 1_555 1_555
H84 C96 1_555 1_555
C97 Fe2 1_555 1_555
C98 C96 1_555 1_555
H85 C98 1_555 1_555
H86 C98 1_555 1_555
C99 C98 1_555 1_555
C100 C93 1_555 1_555
C101 C100 1_555 1_555
H87 C101 1_555 1_555
C102 C101 1_555 1_555
H88 C102 1_555 1_555
C103 C102 1_555 1_555
H89 C103 1_555 1_555
C104 C99 1_555 1_555
H90 C104 1_555 1_555
C105 N3 1_555 1_555
H91 C105 1_555 1_555
C106 N1 1_555 1_555
C107 C106 1_555 1_555
H92 C107 1_555 1_555
H93 C107 1_555 1_555
C108 C75 1_555 1_555
H94 C108 1_555 1_555
H95 C108 1_555 1_555
Cl1 O1 1_555 1_555
O2 Cl1 1_555 1_555
O3 Cl1 1_555 1_555
O4 Cl1 1_555 1_555
N25 C113 1_555 1_555
C109 H96 1_555 1_555
H97 C109 1_555 1_555
H98 C109 1_555 1_555
C110 H99 1_555 1_555
H100 C110 1_555 1_555
H101 C110 1_555 1_555
C111 H102 1_555 1_555
H103 C111 1_555 1_555
H104 C111 1_555 1_555
C112 H105 1_555 1_555
H106 C112 1_555 1_555
H107 C112 1_555 1_555
C113 C111 1_555 1_555
H108 C113 1_555 1_555
H109 C113 1_555 1_555
C114 N25 1_555 1_555
H110 C114 1_555 1_555
H111 C114 1_555 1_555
C115 N25 1_555 1_555
H112 C115 1_555 1_555
H113 C115 1_555 1_555
C116 N25 1_555 1_555
H114 C116 1_555 1_555
H115 C116 1_555 1_555
C4 C5 1_555 1_555
C5 C68 1_555 1_555
N9 C74 1_555 1_555
C9 C10 1_555 1_555
C14 C15 1_555 1_555
C15 C92 1_555 1_555
N13 C65 1_555 1_555
C19 C20 1_555 1_555
C20 C57 1_555 1_555
C24 C25 1_555 1_555
C29 C30 1_555 1_555
N18 C84 1_555 1_555
N19 C97 1_555 1_555
N24 C45 1_555 1_555
C31 C105 1_555 1_555
C35 C105 1_555 1_555
C38 C39 1_555 1_555
C43 C82 1_555 1_555
C46 C70 1_555 1_555
C48 C72 1_555 1_555
C52 C53 1_555 1_555
C58 C59 1_555 1_555
C62 C63 1_555 1_555
C64 C83 1_555 1_555
C77 C106 1_555 1_555
C80 C81 1_555 1_555
C85 C86 1_555 1_555
C89 C90 1_555 1_555
C99 C100 1_555 1_555
C103 C104 1_555 1_555
C107 C108 1_555 1_555
C109 C114 1_555 1_555
C110 C116 1_555 1_555
C112 C115 1_555 1_555

#END
