
#######################################################################
#
#                 Cambridge Crystallographic Data Centre
#                                CCDC 
#
#######################################################################
#
# If this CIF has been generated from an entry in the Cambridge 
# Structural Database, then it will include bibliographic, chemical, 
# crystal, experimental, refinement or atomic coordinate data resulting 
# from the CCDC's data processing and validation procedures.
#
#######################################################################

data_OYEZAU
_chemical_name_common            
'tetrakis(mu!2$-4,6-bis(Methoxyethoxy)-1,3-bis(9-(pyridin-3-yl)anthracen-10-yl)benzene)-di-palladium(ii) tetranitrate methanol solvate hydrate'
_chemical_formula_moiety         
'C200 H160 N8 O16 Pd2 4+,4(N1 O3 1-),13.5(C1 H4 O1),5.5(H2 O1)'
_chemical_name_systematic        
"tetrakis(\m~2~-3,3'-((4,6-bis(2-Methoxyethoxy)benzene-1,3-diyl)dianthracene-10,9-diyl)dipyridine)-di-palladium(ii) tetranitrate methanol solvate hydrate"
_symmetry_cell_setting           triclinic
_symmetry_space_group_name_H-M   'P -1'
_symmetry_Int_Tables_number      2
_space_group_name_Hall           '-P 1'
loop_
_symmetry_equiv_pos_site_id
_symmetry_equiv_pos_as_xyz
1 x,y,z
2 -x,-y,-z
_cell_length_a                   20.323(2)
_cell_length_b                   23.546(2)
_cell_length_c                   24.072(2)
_cell_angle_alpha                88.798(2)
_cell_angle_beta                 69.6620(10)
_cell_angle_gamma                81.0410(10)
_cell_volume                     10662.3
_exptl_crystal_colour            'pale yellow'
_exptl_crystal_description       block
_cell_formula_units_Z            2
loop_
_atom_site_label
_atom_site_type_symbol
_atom_site_fract_x
_atom_site_fract_y
_atom_site_fract_z
C1 C 0.1589(3) 0.9047(2) 0.4072(3)
H1 H 0.1976 0.8935 0.3715
C2 C 0.4191(3) 1.0535(2) 0.3567(3)
C3 C 0.8608(3) 0.7827(3) 0.2678(3)
H2 H 0.8962 0.8036 0.2699
C4 C 0.0482(3) 0.8928(3) 0.4716(3)
H3 H 0.0075 0.8743 0.4809
C5 C 0.6992(3) 0.6754(2) 0.3920(2)
C6 C 0.4878(3) 1.1299(2) 0.3530(2)
H4 H 0.4915 1.1661 0.3674
C7 C 0.1955(3) 0.5827(3) 0.2805(3)
C8 C 0.7667(3) 0.8264(2) 0.1357(3)
H5 H 0.7325 0.8171 0.1717
C9 C 0.1415(3) 0.7444(3) 0.4425(3)
H6 H 0.1796 0.7659 0.4308
C10 C 0.1642(3) 0.9473(2) 0.4436(3)
C11 C 0.7163(3) 0.9407(2) 0.2170(3)
C12 C 0.5429(3) 1.0444(2) 0.2887(2)
C13 C 0.6036(3) 1.0074(2) 0.2440(3)
C14 C 0.1940(3) 1.0157(3) 0.3381(3)
H7 H 0.1510 1.0001 0.3521
C15 C 0.4555(3) 0.6690(3) 0.6197(3)
H8 H 0.4564 0.6630 0.6586
C16 C 0.5795(3) 0.7035(2) 0.4665(2)
C17 C 0.2721(3) 0.7290(2) 0.5564(2)
C18 C 0.7678(3) 0.6926(2) 0.0315(3)
H9 H 0.7309 0.7218 0.0540
C19 C 0.7550(3) 0.7421(2) 0.3149(2)
C20 C 0.8641(3) 0.7619(2) 0.2140(3)
H10 H 0.9017 0.7688 0.1792
C21 C 0.1461(3) 0.7167(2) 0.2869(3)
H11 H 0.1805 0.7122 0.3058
C22 C 0.2206(4) 0.8400(3) 0.1072(3)
C23 C 0.4533(3) 0.6872(2) 0.5068(3)
H12 H 0.4526 0.6928 0.4678
C24 C 0.3524(3) 1.0286(2) 0.3806(3)
C25 C 0.2778(3) 0.7741(3) 0.5913(3)
H13 H 0.3190 0.7718 0.6019
C26 C 0.3251(3) 0.6799(3) 0.5375(2)
C27 C 0.3219(3) 0.5674(2) 0.1796(3)
C28 C 0.5639(3) 0.4739(2) 0.2159(3)
C29 C 0.3062(3) 1.0324(2) 0.3483(3)
C30 C 0.1629(3) 0.8681(2) 0.2460(3)
H14 H 0.1942 0.8327 0.2414
C31 C 0.8065(3) 0.7734(2) 0.3188(3)
H15 H 0.8040 0.7880 0.3561
C32 C 0.7605(3) 0.7223(2) 0.2594(3)
H16 H 0.7253 0.7016 0.2561
C33 C 0.2549(3) 0.6414(2) 0.4857(3)
C34 C 0.2423(3) 1.0071(2) 0.3709(3)
C35 C 0.6006(3) 0.9976(2) 0.1877(3)
C36 C 0.5167(3) 0.6895(2) 0.5163(2)
C37 C 0.0491(3) 0.7322(3) 0.2314(3)
H17 H 0.0158 0.7389 0.2115
C38 C 0.6941(3) 0.7292(2) 0.3678(2)
C39 C 0.5755(3) 0.7579(2) 0.4414(3)
C40 C 0.0464(3) 0.7701(3) 0.2741(3)
H18 H 0.0095 0.8024 0.2850
C41 C 0.3960(4) 0.8240(3) -0.0249(3)
C42 C 0.8629(3) 0.7965(3) 0.0507(3)
H19 H 0.8968 0.7662 0.0269
C43 C 0.7653(3) 0.8834(2) 0.1206(3)
C44 C 0.0675(3) 0.9315(2) 0.3055(3)
H20 H 0.0303 0.9413 0.3425
C45 C 0.2091(4) 1.0456(3) 0.2878(3)
H21 H 0.1762 1.0515 0.2675
C46 C 0.3673(3) 0.9699(3) 0.5204(3)
H22 H 0.3974 0.9695 0.5431
C47 C 0.2104(3) 0.7342(3) 0.5391(3)
C48 C 0.6617(3) 0.9805(2) 0.2587(2)
C49 C 0.7117(3) 0.9286(2) 0.1617(3)
C50 C 0.2059(3) 0.6232(2) 0.2361(3)
C51 C 0.6411(3) 0.6623(2) 0.4428(2)
C52 C 0.6474(3) 0.6063(2) 0.4676(3)
H23 H 0.6095 0.5966 0.5008
C53 C 0.4262(3) 0.3809(2) 0.2194(3)
H24 H 0.4225 0.3413 0.2187
C54 C 0.2748(3) 0.9729(2) 0.4553(3)
C55 C 0.2307(3) 0.8831(3) 0.1412(3)
C56 C 0.3920(3) 0.6772(2) 0.5504(2)
C57 C 0.7611(3) 0.5952(3) 0.1708(3)
H25 H 0.7227 0.6142 0.1600
C58 C 0.3817(3) 0.9981(2) 0.4688(3)
H26 H 0.4224 1.0166 0.4553
C59 C 0.2631(3) 0.9423(3) 0.5096(3)
H27 H 0.2234 0.9226 0.5239
C60 C 0.5193(4) 0.7781(3) -0.0765(3)
C61 C 0.3388(3) 0.8440(3) 0.0317(3)
C62 C 0.2282(3) 0.9766(2) 0.4236(3)
C63 C 0.3663(3) 0.5833(3) 0.4866(3)
H28 H 0.4072 0.5786 0.4978
C64 C 0.7662(3) 0.6735(3) -0.0222(3)
C65 C 0.1737(3) 0.9035(3) 0.1986(3)
C66 C 0.5965(3) 0.6909(3) -0.0601(3)
C67 C 0.6921(3) 0.5152(3) 0.2029(3)
C68 C 0.6681(3) 0.9905(3) 0.3150(3)
H29 H 0.6320 1.0163 0.3433
C69 C 0.1659(4) 0.8254(3) 0.5943(3)
H30 H 0.1298 0.8580 0.6080
C70 C 0.6147(4) 0.4761(3) 0.1595(3)
C71 C 0.3075(3) 0.9410(3) 0.5405(3)
H31 H 0.2985 0.9205 0.5761
C72 C 0.3366(3) 1.0004(2) 0.4344(3)
C73 C 0.8175(3) 0.8959(3) 0.0674(3)
H32 H 0.8194 0.9347 0.0563
C74 C 0.2787(4) 0.6564(3) 0.1381(3)
H33 H 0.2434 0.6890 0.1411
C75 C 0.7069(3) 0.6987(3) -0.0425(3)
C76 C 0.3161(3) 0.6352(2) 0.5042(3)
C77 C 0.4950(3) 0.4557(2) 0.2210(3)
C78 C 0.8712(4) 0.6291(3) 0.0213(3)
H34 H 0.9075 0.6137 0.0363
C79 C 0.3483(3) 0.8888(3) 0.0654(3)
C80 C 0.5871(3) 0.7506(3) -0.0709(3)
C81 C 0.1429(3) 0.7005(2) 0.4810(3)
C82 C 0.2674(3) 0.6159(2) 0.1853(3)
C83 C 0.3739(3) 0.4815(3) 0.2225(3)
C84 C 0.4365(3) 0.4958(3) 0.2238(3)
H35 H 0.4397 0.5354 0.2267
C85 C 0.2266(3) 0.8205(3) 0.6102(3)
H36 H 0.2318 0.8499 0.6342
C86 C 0.1090(3) 0.9618(3) 0.4963(3)
H37 H 0.1109 0.9908 0.5222
C87 C 0.1578(3) 0.7842(3) 0.5595(3)
H38 H 0.1167 0.7887 0.5487
C88 C 0.0760(3) 0.9700(3) 0.2600(3)
H39 H 0.0453 1.0059 0.2659
C89 C 0.1231(4) 0.5483(3) 0.3745(4)
H40 H 0.0801 0.5523 0.4077
C90 C 0.5781(3) 0.4877(3) 0.2670(3)
C91 C 0.5477(4) 0.6557(3) -0.0640(3)
H41 H 0.5065 0.6728 -0.0720
C92 C 0.1504(3) 0.6752(2) 0.2453(3)
C93 C 0.2037(3) 0.6903(3) 0.5028(3)
C94 C 0.2943(3) 0.9074(3) 0.1214(3)
C95 C 0.7602(3) 0.6316(2) 0.3687(3)
H42 H 0.7986 0.6392 0.3348
C96 C 0.5987(4) 0.9795(3) 0.0725(3)
H43 H 0.5979 0.9737 0.0338
C97 C 0.6384(4) 0.7838(3) -0.0700(3)
C98 C 0.1297(3) 0.9556(3) 0.2058(3)
H44 H 0.1361 0.9813 0.1742
C99 C 0.5458(3) 1.0280(2) 0.1692(3)
H45 H 0.5085 1.0538 0.1966
C100 C 0.0352(3) 0.7276(3) 0.4368(3)
H46 H -0.0028 0.7373 0.4222
C101 C 0.7081(4) 0.5668(3) 0.4435(3)
H47 H 0.7120 0.5303 0.4605
C102 C 0.0500(4) 0.9332(3) 0.5113(3)
H48 H 0.0121 0.9414 0.5481
C103 C 0.4462(3) 0.8221(2) -0.1321(3)
H49 H 0.4409 0.8311 -0.1692
C104 C 0.6285(3) 0.8262(3) 0.3660(3)
H50 H 0.6668 0.8351 0.3327
C105 C 0.2501(3) 0.5339(3) 0.2755(3)
C106 C 0.1008(3) 0.6833(3) 0.2169(3)
H51 H 0.1022 0.6558 0.1880
C107 C 0.6335(3) 0.7710(2) 0.3913(3)
C108 C 0.4789(3) 1.0234(2) 0.3135(3)
H52 H 0.4758 0.9866 0.3003
C109 C 0.7794(3) 0.9267(3) 0.2864(3)
H53 H 0.8196 0.9097 0.2959
C110 C 0.2979(4) 0.5472(3) 0.4368(3)
H54 H 0.2917 0.5166 0.4150
C111 C 0.4099(4) 0.9162(3) 0.0455(3)
H55 H 0.4449 0.9058 0.0076
C112 C 0.0889(3) 0.6692(3) 0.4965(3)
H56 H 0.0886 0.6383 0.5226
C113 C 0.5154(3) 0.8020(3) 0.4649(3)
H57 H 0.4771 0.7951 0.4993
C114 C 0.1324(4) 0.5878(3) 0.3312(3)
H58 H 0.0957 0.6195 0.3350
C115 C 0.6570(3) 0.6648(3) -0.0459(3)
C116 C 0.6989(4) 0.7577(3) -0.0556(3)
C117 C 0.5304(4) 0.4806(3) 0.3248(3)
H59 H 0.4860 0.4692 0.3295
C118 C 0.5455(3) 1.0210(3) 0.1129(3)
H60 H 0.5102 1.0435 0.1008
C119 C 0.2761(4) 0.8197(3) 0.0523(3)
C120 C 0.2496(3) 0.5955(3) 0.4500(3)
H61 H 0.2114 0.5993 0.4354
C121 C 0.7561(4) 0.5413(3) 0.1954(3)
C122 C 0.5121(4) 0.8541(3) 0.4384(3)
H62 H 0.4705 0.8820 0.4537
C123 C 0.3070(3) 0.9497(3) 0.1564(3)
H63 H 0.2732 0.9610 0.1946
C124 C 0.3137(3) 0.5278(2) 0.2251(3)
C125 C 0.7230(4) 0.9648(3) 0.3285(3)
H64 H 0.7251 0.9718 0.3665
C126 C 0.6312(4) 0.8434(3) -0.0807(3)
H65 H 0.5905 0.8614 -0.0890
C127 C 0.8653(3) 0.8524(3) 0.0316(3)
H66 H 0.8992 0.8603 -0.0052
C128 C 0.3199(3) 1.0626(3) 0.2940(3)
H67 H 0.3623 1.0789 0.2781
C129 C 0.3378(4) 0.6487(3) 0.0904(3)
H68 H 0.3443 0.6760 0.0601
C130 C 0.3675(4) 0.9741(3) 0.1354(3)
H69 H 0.3749 1.0030 0.1585
C131 C 0.7750(3) 0.9152(3) 0.2336(3)
H70 H 0.8121 0.8892 0.2063
C132 C 0.6505(3) 0.9484(3) 0.0893(3)
H71 H 0.6842 0.9199 0.0625
C133 C 0.2402(4) 0.4952(3) 0.3220(3)
H72 H 0.2773 0.4644 0.3200
C134 C 0.4606(4) 0.7940(3) -0.0244(3)
H73 H 0.4652 0.7839 0.0127
C135 C 0.0338(3) 0.6825(3) 0.4740(3)
H74 H -0.0041 0.6606 0.4843
C136 C 0.3832(3) 0.5609(3) 0.1272(3)
H75 H 0.4192 0.5284 0.1223
C137 C 0.1577(4) 0.8158(3) 0.1241(3)
H76 H 0.1197 0.8298 0.1593
C138 C 0.3574(3) 0.5413(3) 0.4549(3)
H77 H 0.3914 0.5072 0.4444
C139 C 0.7649(3) 0.5802(3) 0.3934(3)
H78 H 0.8065 0.5525 0.3771
C140 C 0.6438(3) 0.5081(3) 0.2602(3)
C141 C 0.6572(4) 0.5188(3) 0.3136(3)
H79 H 0.6995 0.5331 0.3105
C142 C 0.2726(4) 1.0681(3) 0.2652(3)
H80 H 0.2829 1.0876 0.2290
C143 C 0.5583(4) 0.5978(3) -0.0566(3)
H81 H 0.5261 0.5748 -0.0615
C144 C 0.3917(4) 0.5998(3) 0.0843(3)
H82 H 0.4335 0.5947 0.0500
C145 C 0.6634(4) 0.6045(3) -0.0358(3)
H83 H 0.7018 0.5866 -0.0244
C146 C 0.2669(4) 0.7739(3) 0.0192(3)
H84 H 0.3038 0.7594 -0.0166
C147 C 0.1783(4) 0.5009(3) 0.3699(4)
H85 H 0.1721 0.4734 0.4000
C148 C 0.4190(4) 0.9562(3) 0.0794(3)
H86 H 0.4611 0.9731 0.0656
C149 C 0.6798(3) 0.4969(3) 0.1519(3)
C150 C 0.8731(4) 0.5953(3) 0.1764(4)
H87 H 0.9144 0.6128 0.1685
C151 C 0.6048(4) 0.4580(3) 0.1071(3)
H88 H 0.5622 0.4439 0.1106
C152 C 0.8199(4) 0.6300(3) -0.0543(3)
H89 H 0.8208 0.6156 -0.0911
C153 C 0.6172(5) 0.5722(3) -0.0417(4)
H90 H 0.6242 0.5320 -0.0359
C154 C 0.8721(4) 0.6083(4) -0.0314(4)
H91 H 0.9091 0.5786 -0.0527
C155 C 0.5471(4) 0.4897(4) 0.3743(4)
H92 H 0.5156 0.4830 0.4127
C156 C 0.7505(4) 0.7929(3) -0.0559(3)
H93 H 0.7924 0.7761 -0.0488
C157 C 0.6123(4) 0.5095(4) 0.3674(4)
H94 H 0.6239 0.5161 0.4014
C158 C 0.5684(4) 0.8666(3) 0.3897(3)
H95 H 0.5655 0.9032 0.3726
C159 C 0.8707(4) 0.5437(3) 0.2024(5)
H96 H 0.9087 0.5270 0.2148
C160 C 0.6790(5) 0.8745(4) -0.0797(4)
H97 H 0.6728 0.9142 -0.0881
C161 C 0.2052(5) 0.7505(4) 0.0383(4)
H98 H 0.1994 0.7196 0.0166
C162 C 0.1503(5) 0.7735(4) 0.0916(4)
H99 H 0.1069 0.7583 0.1044
C163 C 0.6527(5) 0.4601(5) 0.0542(4)
H100 H 0.6433 0.4488 0.0203
C164 C 0.8126(4) 0.5146(3) 0.2112(4)
H101 H 0.8121 0.4775 0.2276
C165 C 0.7189(5) 0.4790(5) 0.0465(4)
H102 H 0.7539 0.4782 0.0081
C166 C 0.7408(5) 0.8494(4) -0.0661(4)
H103 H 0.7743 0.8726 -0.0643
C167 C 0.7314(4) 0.4979(4) 0.0935(4)
H104 H 0.7744 0.5120 0.0882
C168 C 0.5169(3) 0.6794(2) 0.5734(2)
O1 O 0.5802(2) 0.68226(17) 0.58172(17)
C169 C 0.5903(3) 0.6573(3) 0.6335(3)
H105 H 0.5673 0.6224 0.6434
H106 H 0.5690 0.6851 0.6677
C170 C 0.6688(3) 0.6419(3) 0.6199(3)
H107 H 0.6772 0.6203 0.6532
H108 H 0.6895 0.6161 0.5840
O2 O 0.7033(3) 0.6888(2) 0.6108(3)
C171 C 0.7772(4) 0.6702(5) 0.5957(5)
H109 H 0.8017 0.7038 0.5895
H110 H 0.7950 0.6461 0.5592
H111 H 0.7861 0.6479 0.6279
C172 C 0.3936(3) 0.6676(2) 0.6080(2)
O3 O 0.3315(2) 0.65710(18) 0.64923(17)
C173 C 0.3291(3) 0.6506(3) 0.7090(2)
H112 H 0.3375 0.6864 0.7245
H113 H 0.3661 0.6187 0.7111
C174 C 0.2569(3) 0.6378(3) 0.7443(3)
H114 H 0.2445 0.6076 0.7234
H115 H 0.2562 0.6236 0.7834
O4 O 0.2073(3) 0.6881(3) 0.7518(3)
C175 C 0.1396(5) 0.6799(7) 0.7809(7)
H116 H 0.1074 0.7163 0.7843
H117 H 0.1351 0.6663 0.8206
H118 H 0.1273 0.6512 0.7589
C176 C 0.5462(3) 1.0991(2) 0.3088(3)
O5 O 0.6090(2) 1.11958(16) 0.28160(18)
C177 C 0.6238(3) 1.1662(2) 0.3098(3)
H119 H 0.6234 1.1555 0.3499
H120 H 0.5870 1.2004 0.3139
C178 C 0.6953(3) 1.1797(3) 0.2729(3)
H121 H 0.6952 1.1893 0.2327
H122 H 0.7043 1.2139 0.2906
O6 O 0.7511(3) 1.1334(3) 0.2682(3)
C179 C 0.8191(5) 1.1493(7) 0.2339(6)
H123 H 0.8569 1.1169 0.2312
H124 H 0.8269 1.1826 0.2533
H125 H 0.8198 1.1592 0.1940
C180 C 0.4251(3) 1.1083(2) 0.3758(2)
O7 O 0.36471(19) 1.13602(15) 0.41715(17)
C181 C 0.3668(3) 1.1895(2) 0.4428(3)
H126 H 0.3819 1.2174 0.4113
H127 H 0.4018 1.1838 0.4634
C182 C 0.2952(3) 1.2126(3) 0.4858(3)
H128 H 0.2938 1.2541 0.4932
H129 H 0.2598 1.2095 0.4668
O8 O 0.2736(3) 1.1866(2) 0.5409(2)
C183 C 0.2629(5) 1.1288(3) 0.5422(4)
H130 H 0.2484 1.1163 0.5832
H131 H 0.3072 1.1045 0.5184
H132 H 0.2256 1.1253 0.5259
C184 C 0.5099(3) 0.7932(2) -0.1301(2)
O9 O 0.5680(2) 0.77521(17) -0.18045(17)
C185 C 0.5752(4) 0.8074(3) -0.2324(3)
H133 H 0.5662 0.8491 -0.2220
H134 H 0.5398 0.7995 -0.2498
C186 C 0.6469(4) 0.7916(3) -0.2756(3)
H135 H 0.6534 0.7514 -0.2901
H136 H 0.6534 0.8168 -0.3099
O10 O 0.6968(4) 0.7970(3) -0.2504(3)
C187 C 0.7696(6) 0.7845(6) -0.2894(7)
H137 H 0.8010 0.7895 -0.2675
H138 H 0.7776 0.8107 -0.3224
H139 H 0.7798 0.7447 -0.3048
C188 C 0.3903(3) 0.8379(3) -0.0801(3)
O11 O 0.3250(3) 0.8672(2) -0.0771(2)
C189 C 0.3198(6) 0.8765(5) -0.1360(5)
H140 H 0.3228 0.8394 -0.1561
H141 H 0.3583 0.8968 -0.1611
C190 C 0.2487(5) 0.9126(6) -0.1246(6)
H142 H 0.2457 0.9479 -0.1017
H143 H 0.2441 0.9244 -0.1630
O12 O 0.1930(5) 0.8843(5) -0.0939(4)
C191 C 0.1245(10) 0.9177(14) -0.0842(17)
H144 H 0.0875 0.8954 -0.0619
H145 H 0.1195 0.9273 -0.1224
H146 H 0.1198 0.9531 -0.0616
C192 C 0.4876(3) 0.3978(2) 0.2210(3)
O13 O 0.5447(2) 0.35908(16) 0.2235(2)
C193 C 0.5618(3) 0.3056(3) 0.1905(3)
H147 H 0.5247 0.3023 0.1734
H148 H 0.5631 0.2733 0.2173
C194 C 0.6313(4) 0.3020(4) 0.1427(3)
H149 H 0.6363 0.2732 0.1115
H150 H 0.6379 0.3398 0.1245
O14 O 0.6811(3) 0.2847(3) 0.1721(3)
C195 C 0.7537(5) 0.2762(6) 0.1317(5)
H151 H 0.7858 0.2644 0.1537
H152 H 0.7645 0.3121 0.1120
H153 H 0.7601 0.2461 0.1019
C196 C 0.3701(3) 0.4224(2) 0.2187(3)
O15 O 0.3079(2) 0.41010(18) 0.2156(2)
C197 C 0.3017(4) 0.3507(3) 0.2118(3)
H154 H 0.3044 0.3313 0.2480
H155 H 0.3409 0.3313 0.1772
C198 C 0.2321(4) 0.3478(4) 0.2056(4)
H156 H 0.2243 0.3755 0.1761
H157 H 0.2319 0.3087 0.1913
O16 O 0.1789(4) 0.3604(4) 0.2593(4)
C199 C 0.1146(8) 0.3466(9) 0.2533(9)
H158 H 0.0748 0.3563 0.2906
H159 H 0.1210 0.3053 0.2439
H160 H 0.1046 0.3686 0.2214
N1 N 0.0950(2) 0.7631(2) 0.3014(2)
N2 N 0.1099(2) 0.88107(19) 0.2987(2)
N3 N 0.1020(2) 0.8787(2) 0.4201(2)
N4 N 0.0885(2) 0.7583(2) 0.4206(2)
N5 N 0.8188(3) 0.6222(2) 0.1616(2)
N6 N 0.8183(3) 0.6720(2) 0.0529(2)
N7 N 0.8142(2) 0.7836(2) 0.1018(2)
N8 N 0.8146(2) 0.73163(19) 0.2096(2)
C200 C 0.6555(3) 0.9572(2) 0.1454(3)
Pd1 Pd 0.81703(2) 0.702178(18) 0.13087(2)
Pd2 Pd 0.09647(2) 0.821152(18) 0.36148(2)
O17 O 0.0162(4) 0.1924(4) 0.4155(4)
N9 N 0.0892(3) 0.12161(18) 0.6098(2)
O18 O 0.0845(3) 0.0823(2) 0.5803(2)
O19 O 0.0814(3) 0.1168(2) 0.6637(2)
O20 O 0.0800(3) 0.17291(19) 0.5944(2)
N10 N 0.4169(5) 0.1961(4) 0.7540(4)
O21 O 0.3708(6) 0.2378(5) 0.7735(6)
O22 O 0.4110(6) 0.1490(4) 0.7737(6)
O23 O 0.4768(5) 0.2045(5) 0.7179(6)
N11 N 0.0043(12) 0.6905(6) 0.0890(6)
O24 O 0.0059(15) 0.6672(8) 0.1349(7)
O25 O -0.0064(5) 0.7433(5) 0.0877(5)
O26 O 0.0001(12) 0.6617(7) 0.0485(7)
C201 C 0.1123(4) 0.1786(3) 0.4696(3)
O27 O 0.1544(4) 0.1281(3) 0.4378(4)
C202 C 0.9165(4) 0.0279(3) 0.3594(3)
O28 O 0.8872(4) 0.0353(4) 0.3144(4)
C203 C 0.0731(4) 0.3582(3) 0.5886(5)
O29 O 0.1262(4) 0.3088(3) 0.5702(4)
C204 C 0.3479(6) 0.7997(5) 0.4197(4)
O30 O 0.3198(4) 0.8373(4) 0.3844(3)
O31 O 0.8798(8) 0.5195(6) 0.8534(7)
C205 C 0.8381(13) 0.5062(10) 0.8218(12)
O32 O 0.0211(3) 0.0974(4) 0.3468(3)
O33 O 0.8406(8) 0.4414(4) 0.3204(4)
C206 C 0.8111(10) 0.4149(6) 0.3746(5)
C207 C 0.5786(8) 0.1064(5) 0.6905(5)
O34 O 0.5934(7) 0.0965(4) 0.7432(4)
O35 O 0.0736(11) 0.4409(7) 0.5068(9)
O36 O 0.0258(10) 0.5241(8) 0.5471(11)
N12 N 0.0764(10) 0.4839(8) 0.5338(11)
O37 O 0.1349(10) 0.4934(9) 0.5318(11)
O38 O 0.4463(7) 0.3457(6) 0.6828(7)
C208 C 0.5075(9) 0.3035(8) 0.6687(10)
O39 O 0.0452(8) 0.3840(7) 0.7206(6)
C209 C 0.0572(12) 0.4305(8) 0.6827(9)
O40 O 0.3780(6) 0.3334(4) 0.8606(5)
C210 C 0.4307(7) 0.3629(6) 0.8670(8)
O41 O 0.3718(5) 0.2148(4) 0.8911(4)
C211 C 0.4259(7) 0.1866(6) 0.9107(6)
O42 O 0.3338(6) 0.7386(4) 0.2170(4)
C212 C 0.3808(7) 0.7628(6) 0.1680(5)
O43 O 0.4070(5) 0.6503(4) 0.2618(4)
C213 C 0.3554(6) 0.6374(5) 0.3151(5)
O44 O 0.9867(14) 0.2835(8) 0.3514(11)
O45 O 0.9618(11) 0.4596(8) 0.3050(9)
O46 O 0.9850(14) 0.6093(10) 0.6149(10)
O47 O 0.9414(11) 0.7392(12) 0.8922(12)
O48 O 0.0050(9) 0.4244(7) 0.1928(8)
O49 O 0.0786(9) 0.1163(7) 0.2309(7)
C214 C 0.9719(13) 0.8488(14) 0.1446(13)
O50 O 0.9738(8) 0.8828(10) 0.1913(11)
O51 O 0.0627(10) 0.7775(10) 0.9470(8)
C215 C 0.0496(16) 0.7207(11) 0.9447(12)
O52 O 0.0759(12) 0.5410(14) 0.9406(13)
O53 O 0.0214(13) 0.0562(9) 0.1660(8)
N13 N 0.0451(16) 0.0845(10) 0.1224(8)
O54 O 0.0699(13) 0.1279(9) 0.1268(10)
O55 O 0.0354(14) 0.0738(10) 0.0760(8)
C216? C 0.2537(3) 0.7922(3) 0.3211(3)
C217? C 0.3067(9) 0.8992(9) -0.1175(8)
C218? C 0.2319(9) 0.9277(8) -0.0967(8)
C219? C 0.7703(13) 0.6073(12) 0.5383(12)
C220? C 0.7603(11) 1.2063(9) 0.1758(9)
C221? C 0.7616(18) 0.7334(15) -0.3312(17)
C222? C 0.1972(15) 0.9544(12) 0.0096(8)
C223? C 0.7453(11) 0.3415(10) 0.0980(10)
H161? H 0.3154 0.8744 -0.1528
H162? H 0.3378 0.9290 -0.1300
H163? H 0.6914 0.6759 0.6040
H164? H 0.6776 0.6326 0.6573
H165? H 0.7078 1.2113 0.2918
H166? H 0.7321 1.1454 0.2679
H167? H 0.6453 0.8111 -0.3121
H168? H 0.6777 0.8116 -0.2612
H169? H 0.2224 0.9461 -0.1310
H170? H 0.2016 0.8974 -0.0841
H171? H 0.6536 0.2611 0.1364
H172? H 0.6232 0.3143 0.1056
H173? H 0.7909 0.5742 0.5102
H174? H 0.8028 0.6124 0.5591
H175? H 0.7628 0.6420 0.5167
H176? H 0.7578 1.2171 0.1370
H177? H 0.7939 1.1705 0.1714
H178? H 0.7764 1.2369 0.1923
H179? H 0.7820 0.6929 -0.3422
H180? H 0.7876 0.7494 -0.3094
H181? H 0.7654 0.7550 -0.3671
H182? H 0.1806 0.9897 0.0347
H183? H 0.2414 0.9345 0.0137
H184? H 0.1609 0.9292 0.0220
H185? H 0.7750 0.3653 0.1083
H186? H 0.7296 0.3596 0.0667
H187? H 0.7727 0.3033 0.0838
N14? N 0.0215(8) 0.6735(10) 0.0853(6)
O56? O 0.0194(14) 0.6594(12) 0.1352(7)
O57? O 0.0779(7) 0.6632(8) 0.0430(8)
O58? O -0.0327(7) 0.6960(11) 0.0768(9)
O59? O 0.7017(9) 0.5970(8) 0.5816(8)
O60? O 0.6896(7) 1.1976(5) 0.2160(6)
O61? O 0.6846(12) 0.7377(9) -0.2926(10)
O62? O 0.2101(8) 0.9687(6) -0.0509(6)
O63? O 0.6822(8) 0.3357(7) 0.1512(7)
loop_
_geom_bond_atom_site_label_1
_geom_bond_atom_site_label_2
_geom_bond_site_symmetry_1
_geom_bond_site_symmetry_2
C1 H1 1_555 1_555
C2 C24 1_555 1_555
C3 H2 1_555 1_555
C4 H3 1_555 1_555
C5 C38 1_555 1_555
C6 H4 1_555 1_555
C7 C50 1_555 1_555
C8 H5 1_555 1_555
C9 H6 1_555 1_555
C10 C1 1_555 1_555
C11 C48 1_555 1_555
C12 C13 1_555 1_555
C13 C35 1_555 1_555
C14 H7 1_555 1_555
C15 H8 1_555 1_555
C16 C36 1_555 1_555
C17 C25 1_555 1_555
C18 H9 1_555 1_555
C19 C31 1_555 1_555
C20 C3 1_555 1_555
H10 C20 1_555 1_555
C21 H11 1_555 1_555
C22 C55 1_555 1_555
C23 H12 1_555 1_555
C24 C29 1_555 1_555
C25 H13 1_555 1_555
C26 C17 1_555 1_555
C27 C82 1_555 1_555
C28 C70 1_555 1_555
C29 C34 1_555 1_555
C30 H14 1_555 1_555
C31 C3 1_555 1_555
H15 C31 1_555 1_555
C32 C19 1_555 1_555
H16 C32 1_555 1_555
C33 C76 1_555 1_555
C34 C14 1_555 1_555
C35 C99 1_555 1_555
C36 C23 1_555 1_555
C37 H17 1_555 1_555
C38 C19 1_555 1_555
C39 C16 1_555 1_555
C40 C37 1_555 1_555
H18 C40 1_555 1_555
C41 C61 1_555 1_555
C42 H19 1_555 1_555
C43 C8 1_555 1_555
C44 H20 1_555 1_555
C45 C14 1_555 1_555
H21 C45 1_555 1_555
C46 H22 1_555 1_555
C47 C17 1_555 1_555
C48 C13 1_555 1_555
C49 C11 1_555 1_555
C50 C82 1_555 1_555
C51 C5 1_555 1_555
C52 C51 1_555 1_555
H23 C52 1_555 1_555
C53 H24 1_555 1_555
C54 C59 1_555 1_555
C55 C65 1_555 1_555
C56 C23 1_555 1_555
C57 H25 1_555 1_555
C58 C46 1_555 1_555
H26 C58 1_555 1_555
C59 H27 1_555 1_555
C60 C80 1_555 1_555
C61 C79 1_555 1_555
C62 C10 1_555 1_555
C63 H28 1_555 1_555
C64 C18 1_555 1_555
C65 C30 1_555 1_555
C66 C80 1_555 1_555
C67 C121 1_555 1_555
C68 C48 1_555 1_555
H29 C68 1_555 1_555
C69 H30 1_555 1_555
C70 C149 1_555 1_555
C71 C46 1_555 1_555
H31 C71 1_555 1_555
C72 C24 1_555 1_555
C73 C43 1_555 1_555
H32 C73 1_555 1_555
C74 H33 1_555 1_555
C75 C64 1_555 1_555
C76 C26 1_555 1_555
C77 C28 1_555 1_555
C78 H34 1_555 1_555
C79 C94 1_555 1_555
C80 C97 1_555 1_555
C81 C9 1_555 1_555
C82 C74 1_555 1_555
C83 C84 1_555 1_555
C84 C77 1_555 1_555
H35 C84 1_555 1_555
C85 C25 1_555 1_555
H36 C85 1_555 1_555
C86 C10 1_555 1_555
H37 C86 1_555 1_555
C87 C47 1_555 1_555
H38 C87 1_555 1_555
C88 C44 1_555 1_555
H39 C88 1_555 1_555
C89 H40 1_555 1_555
C90 C28 1_555 1_555
C91 C66 1_555 1_555
H41 C91 1_555 1_555
C92 C21 1_555 1_555
C93 C33 1_555 1_555
C94 C55 1_555 1_555
C95 C5 1_555 1_555
H42 C95 1_555 1_555
C96 H43 1_555 1_555
C97 C116 1_555 1_555
C98 C65 1_555 1_555
H44 C98 1_555 1_555
C99 H45 1_555 1_555
C100 H46 1_555 1_555
C101 C52 1_555 1_555
H47 C101 1_555 1_555
C102 C4 1_555 1_555
H48 C102 1_555 1_555
C103 H49 1_555 1_555
C104 H50 1_555 1_555
C105 C7 1_555 1_555
C106 C37 1_555 1_555
H51 C106 1_555 1_555
C107 C38 1_555 1_555
C108 C2 1_555 1_555
H52 C108 1_555 1_555
C109 H53 1_555 1_555
C110 H54 1_555 1_555
C111 C79 1_555 1_555
H55 C111 1_555 1_555
C112 C81 1_555 1_555
H56 C112 1_555 1_555
C113 C39 1_555 1_555
H57 C113 1_555 1_555
C114 C7 1_555 1_555
H58 C114 1_555 1_555
C115 C66 1_555 1_555
C116 C75 1_555 1_555
C117 C90 1_555 1_555
H59 C117 1_555 1_555
C118 C96 1_555 1_555
H60 C118 1_555 1_555
C119 C22 1_555 1_555
C120 C33 1_555 1_555
H61 C120 1_555 1_555
C121 C57 1_555 1_555
C122 C113 1_555 1_555
H62 C122 1_555 1_555
C123 C94 1_555 1_555
H63 C123 1_555 1_555
C124 C27 1_555 1_555
C125 C68 1_555 1_555
H64 C125 1_555 1_555
C126 C97 1_555 1_555
H65 C126 1_555 1_555
C127 C42 1_555 1_555
H66 C127 1_555 1_555
C128 C29 1_555 1_555
H67 C128 1_555 1_555
C129 C74 1_555 1_555
H68 C129 1_555 1_555
C130 C123 1_555 1_555
H69 C130 1_555 1_555
C131 C11 1_555 1_555
H70 C131 1_555 1_555
C132 C96 1_555 1_555
H71 C132 1_555 1_555
C133 C105 1_555 1_555
H72 C133 1_555 1_555
C134 C41 1_555 1_555
H73 C134 1_555 1_555
C135 C100 1_555 1_555
H74 C135 1_555 1_555
C136 C27 1_555 1_555
H75 C136 1_555 1_555
C137 C22 1_555 1_555
H76 C137 1_555 1_555
C138 C63 1_555 1_555
H77 C138 1_555 1_555
C139 C95 1_555 1_555
H78 C139 1_555 1_555
C140 C67 1_555 1_555
C141 C140 1_555 1_555
H79 C141 1_555 1_555
C142 C45 1_555 1_555
H80 C142 1_555 1_555
C143 C91 1_555 1_555
H81 C143 1_555 1_555
C144 C129 1_555 1_555
H82 C144 1_555 1_555
C145 C115 1_555 1_555
H83 C145 1_555 1_555
C146 C119 1_555 1_555
H84 C146 1_555 1_555
C147 C89 1_555 1_555
H85 C147 1_555 1_555
C148 C111 1_555 1_555
H86 C148 1_555 1_555
C149 C67 1_555 1_555
C150 H87 1_555 1_555
C151 C70 1_555 1_555
H88 C151 1_555 1_555
C152 C64 1_555 1_555
H89 C152 1_555 1_555
C153 C143 1_555 1_555
H90 C153 1_555 1_555
C154 C78 1_555 1_555
H91 C154 1_555 1_555
C155 C117 1_555 1_555
H92 C155 1_555 1_555
C156 C116 1_555 1_555
H93 C156 1_555 1_555
C157 C141 1_555 1_555
H94 C157 1_555 1_555
C158 C104 1_555 1_555
H95 C158 1_555 1_555
C159 C150 1_555 1_555
H96 C159 1_555 1_555
C160 C126 1_555 1_555
H97 C160 1_555 1_555
C161 C146 1_555 1_555
H98 C161 1_555 1_555
C162 C137 1_555 1_555
H99 C162 1_555 1_555
C163 C151 1_555 1_555
H100 C163 1_555 1_555
C164 C121 1_555 1_555
H101 C164 1_555 1_555
C165 C163 1_555 1_555
H102 C165 1_555 1_555
C166 C156 1_555 1_555
H103 C166 1_555 1_555
C167 C149 1_555 1_555
H104 C167 1_555 1_555
C168 C15 1_555 1_555
O1 C168 1_555 1_555
C169 O1 1_555 1_555
H105 C169 1_555 1_555
H106 C169 1_555 1_555
C170 C169 1_555 1_555
H107 C170 1_555 1_555
H108 C170 1_555 1_555
O2 C170 1_555 1_555
C171 O2 1_555 1_555
H109 C171 1_555 1_555
H110 C171 1_555 1_555
H111 C171 1_555 1_555
C172 C15 1_555 1_555
O3 C172 1_555 1_555
C173 O3 1_555 1_555
H112 C173 1_555 1_555
H113 C173 1_555 1_555
C174 C173 1_555 1_555
H114 C174 1_555 1_555
H115 C174 1_555 1_555
O4 C174 1_555 1_555
C175 O4 1_555 1_555
H116 C175 1_555 1_555
H117 C175 1_555 1_555
H118 C175 1_555 1_555
C176 C6 1_555 1_555
O5 C176 1_555 1_555
C177 O5 1_555 1_555
H119 C177 1_555 1_555
H120 C177 1_555 1_555
C178 C177 1_555 1_555
H121 C178 1_555 1_555
H122 C178 1_555 1_555
O6 C178 1_555 1_555
C179 O6 1_555 1_555
H123 C179 1_555 1_555
H124 C179 1_555 1_555
H125 C179 1_555 1_555
C180 C2 1_555 1_555
O7 C180 1_555 1_555
C181 O7 1_555 1_555
H126 C181 1_555 1_555
H127 C181 1_555 1_555
C182 C181 1_555 1_555
H128 C182 1_555 1_555
H129 C182 1_555 1_555
O8 C182 1_555 1_555
C183 O8 1_555 1_555
H130 C183 1_555 1_555
H131 C183 1_555 1_555
H132 C183 1_555 1_555
C184 C60 1_555 1_555
O9 C184 1_555 1_555
C185 O9 1_555 1_555
H133 C185 1_555 1_555
H134 C185 1_555 1_555
C186 C185 1_555 1_555
H135 C186 1_555 1_555
H136 C186 1_555 1_555
O10 C186 1_555 1_555
C187 O10 1_555 1_555
H137 C187 1_555 1_555
H138 C187 1_555 1_555
H139 C187 1_555 1_555
C188 C41 1_555 1_555
O11 C188 1_555 1_555
C189 O11 1_555 1_555
H140 C189 1_555 1_555
H141 C189 1_555 1_555
C190 C189 1_555 1_555
H142 C190 1_555 1_555
H143 C190 1_555 1_555
O12 C190 1_555 1_555
C191 O12 1_555 1_555
H144 C191 1_555 1_555
H145 C191 1_555 1_555
H146 C191 1_555 1_555
C192 C53 1_555 1_555
O13 C192 1_555 1_555
C193 O13 1_555 1_555
H147 C193 1_555 1_555
H148 C193 1_555 1_555
C194 C193 1_555 1_555
H149 C194 1_555 1_555
H150 C194 1_555 1_555
O14 C194 1_555 1_555
C195 O14 1_555 1_555
H151 C195 1_555 1_555
H152 C195 1_555 1_555
H153 C195 1_555 1_555
C196 C53 1_555 1_555
O15 C196 1_555 1_555
C197 O15 1_555 1_555
H154 C197 1_555 1_555
H155 C197 1_555 1_555
C198 C197 1_555 1_555
H156 C198 1_555 1_555
H157 C198 1_555 1_555
O16 C198 1_555 1_555
C199 O16 1_555 1_555
H158 C199 1_555 1_555
H159 C199 1_555 1_555
H160 C199 1_555 1_555
N1 C21 1_555 1_555
N2 C30 1_555 1_555
N3 C1 1_555 1_555
N4 C9 1_555 1_555
N5 C57 1_555 1_555
N6 C18 1_555 1_555
N7 C8 1_555 1_555
N8 C20 1_555 1_555
C200 C35 1_555 1_555
Pd1 N5 1_555 1_555
Pd2 N1 1_555 1_555
N9 O18 1_555 1_555
O19 N9 1_555 1_555
O20 N9 1_555 1_555
N10 O21 1_555 1_555
O22 N10 1_555 1_555
O23 N10 1_555 1_555
N11 O24 1_555 1_555
O25 N11 1_555 1_555
O26 N11 1_555 1_555
C201 O27 1_555 1_555
C202 O28 1_555 1_555
C203 O29 1_555 1_555
C204 O30 1_555 1_555
O31 C205 1_555 1_555
O33 C206 1_555 1_555
C207 O34 1_555 1_555
O35 N12 1_555 1_555
O36 N12 1_555 1_555
N12 O37 1_555 1_555
O38 C208 1_555 1_555
O39 C209 1_555 1_555
O40 C210 1_555 1_555
O41 C211 1_555 1_555
O42 C212 1_555 1_555
O43 C213 1_555 1_555
C214 O50 1_555 1_555
O51 C215 1_555 1_555
O53 N13 1_555 1_555
N13 O54 1_555 1_555
O55 N13 1_555 1_555
C4 N3 1_555 1_555
C6 C180 1_555 1_555
C12 C108 1_555 1_555
C12 C176 1_555 1_555
C16 C51 1_555 1_555
C26 C56 1_555 1_555
C32 N8 1_555 1_555
C34 C62 1_555 1_555
C36 C168 1_555 1_555
C39 C107 1_555 1_555
C40 N1 1_555 1_555
C42 N7 1_555 1_555
C43 C49 1_555 1_555
C44 N2 1_555 1_555
C47 C93 1_555 1_555
C49 C200 1_555 1_555
C50 C92 1_555 1_555
C54 C62 1_555 1_555
C54 C72 1_555 1_555
C56 C172 1_555 1_555
C58 C72 1_555 1_555
C59 C71 1_555 1_555
C60 C134 1_555 1_555
C61 C119 1_555 1_555
C63 C76 1_555 1_555
C69 C85 1_555 1_555
C69 C87 1_555 1_555
C73 C127 1_555 1_555
C75 C115 1_555 1_555
C77 C192 1_555 1_555
C78 N6 1_555 1_555
C81 C93 1_555 1_555
C83 C124 1_555 1_555
C83 C196 1_555 1_555
C86 C102 1_555 1_555
C88 C98 1_555 1_555
C89 C114 1_555 1_555
C90 C140 1_555 1_555
C92 C106 1_555 1_555
C99 C118 1_555 1_555
C100 N4 1_555 1_555
C101 C139 1_555 1_555
C103 C184 1_555 1_555
C103 C188 1_555 1_555
C104 C107 1_555 1_555
C105 C124 1_555 1_555
C109 C125 1_555 1_555
C109 C131 1_555 1_555
C110 C120 1_555 1_555
C110 C138 1_555 1_555
C112 C135 1_555 1_555
C122 C158 1_555 1_555
C128 C142 1_555 1_555
C130 C148 1_555 1_555
C132 C200 1_555 1_555
C133 C147 1_555 1_555
C136 C144 1_555 1_555
C145 C153 1_555 1_555
C150 N5 1_555 1_555
C152 C154 1_555 1_555
C155 C157 1_555 1_555
C159 C164 1_555 1_555
C160 C166 1_555 1_555
C161 C162 1_555 1_555
C165 C167 1_555 1_555
N2 Pd2 1_555 1_555
N3 Pd2 1_555 1_555
N4 Pd2 1_555 1_555
N6 Pd1 1_555 1_555
N7 Pd1 1_555 1_555
N8 Pd1 1_555 1_555

#END
