
#######################################################################
#
#                 Cambridge Crystallographic Data Centre
#                                CCDC 
#
#######################################################################
#
# If this CIF has been generated from an entry in the Cambridge 
# Structural Database, then it will include bibliographic, chemical, 
# crystal, experimental, refinement or atomic coordinate data resulting 
# from the CCDC's data processing and validation procedures.
#
#######################################################################

data_OYEZEY
_chemical_formula_moiety         
'C200 H160 N8 O16 Pd2 4+,4(N1 O3 1-),2(C17 H12),2(C1 H4 O1),7(H2 O1)'
_chemical_name_systematic        
"tetrakis(\m~2~-3,3'-((4,6-bis(2-Methoxyethoxy)benzene-1,3-diyl)dianthracene-10,9-diyl)dipyridine)-di-palladium(ii) tetranitrate bis(1-methylpyrene) methanol solvate heptahydrate"
_symmetry_cell_setting           monoclinic
_symmetry_space_group_name_H-M   'P 21/c'
_symmetry_Int_Tables_number      14
_space_group_name_Hall           '-P 2ybc'
loop_
_symmetry_equiv_pos_site_id
_symmetry_equiv_pos_as_xyz
1 x,y,z
2 -x,1/2+y,1/2-z
3 -x,-y,-z
4 x,1/2-y,1/2+z
_cell_length_a                   33.515(5)
_cell_length_b                   18.955(3)
_cell_length_c                   30.323(5)
_cell_angle_alpha                90
_cell_angle_beta                 92.511(2)
_cell_angle_gamma                90
_cell_volume                     19245
_exptl_crystal_colour            'pale yellow'
_exptl_crystal_description       plate
_cell_formula_units_Z            4
loop_
_atom_site_label
_atom_site_type_symbol
_atom_site_fract_x
_atom_site_fract_y
_atom_site_fract_z
C1 C 0.2689(3) 0.9171(5) 0.1330(3)
C2 C 0.1964(3) 0.9076(5) 0.1147(3)
C3 C 0.2366(3) 0.9151(5) 0.1013(3)
C4 C 0.2835(3) 0.9322(5) 0.0420(3)
C5 C 0.2433(3) 0.9222(5) 0.0558(3)
C6 C 0.3085(3) 0.9242(5) 0.1170(3)
H1 H 0.3307 0.9240 0.1376
C7 C 0.2113(3) 0.9242(5) 0.0242(3)
C8 C 0.2612(3) 0.9148(5) 0.1788(3)
C9 C 0.1905(3) 0.9059(5) 0.1602(3)
H2 H 0.1641 0.9021 0.1703
C10 C 0.2225(3) 0.9097(5) 0.1906(4)
H3 H 0.2172 0.9086 0.2211
C11 C 0.3150(3) 0.9311(5) 0.0738(3)
H4 H 0.3416 0.9354 0.0646
C12 C 0.2946(3) 0.9190(6) 0.2127(4)
H5 H 0.2838 0.9169 0.2422
H6 H 0.3090 0.9636 0.2093
H7 H 0.3129 0.8794 0.2089
C13 C 0.2189(3) 0.9364(5) -0.0204(4)
H8 H 0.1976 0.9371 -0.0420
C14 C 0.1716(3) 0.9148(5) 0.0388(4)
H9 H 0.1498 0.9141 0.0177
C15 C 0.1646(3) 0.9068(5) 0.0824(3)
H10 H 0.1380 0.9006 0.0912
C16 C 0.2888(3) 0.9443(5) -0.0033(3)
H11 H 0.3151 0.9504 -0.0132
C17 C 0.2579(3) 0.9473(5) -0.0324(4)
H12 H 0.2627 0.9573 -0.0624
C18 C 0.2175(3) 0.3957(6) 0.5715(4)
C19 C 0.2847(3) 0.3905(5) 0.6072(4)
C20 C 0.2263(3) 0.4019(6) 0.6523(4)
C21 C 0.3118(3) 0.3929(6) 0.6465(4)
C22 C 0.2543(3) 0.4020(6) 0.6906(4)
H13 H 0.2438 0.4052 0.7191
C23 C 0.2360(3) 0.3879(5) 0.5305(4)
H14 H 0.2192 0.3856 0.5045
C24 C 0.1622(4) 0.4171(6) 0.6169(4)
H15 H 0.1345 0.4264 0.6187
C25 C 0.1875(3) 0.4134(6) 0.6572(4)
H16 H 0.1769 0.4188 0.6855
C26 C 0.1781(4) 0.4075(6) 0.5766(4)
C27 C 0.2444(3) 0.3950(6) 0.6108(4)
C28 C 0.2765(3) 0.3834(6) 0.5259(4)
H17 H 0.2870 0.3784 0.4975
C29 C 0.3032(3) 0.3864(6) 0.5650(4)
C30 C 0.3518(3) 0.3943(6) 0.6414(4)
H18 H 0.3695 0.3956 0.6667
C31 C 0.3425(3) 0.3893(6) 0.5614(4)
H19 H 0.3536 0.3884 0.5331
C32 C 0.2944(3) 0.3979(6) 0.6874(4)
H20 H 0.3111 0.3984 0.7136
C33 C 0.3674(4) 0.3937(6) 0.5993(4)
H21 H 0.3955 0.3963 0.5965
C34 C 0.1488(4) 0.4102(7) 0.5355(4)
H22 H 0.1217 0.4193 0.5450
H23 H 0.1493 0.3649 0.5200
H24 H 0.1569 0.4480 0.5158
C35 C 0.3816(2) 0.3108(5) 0.7578(3)
C36 C 0.3286(2) 0.7639(4) 0.6321(3)
H25 H 0.3112 0.7290 0.6429
C37 C 0.2795(2) 0.2045(4) 0.6916(3)
H26 H 0.2917 0.2409 0.6754
C38 C 0.3297(3) 0.3618(5) 0.8014(3)
C39 C 0.3199(2) 0.6624(5) 0.4164(3)
C40 C 0.3796(2) 0.2999(4) 0.4572(3)
C41 C 0.4106(2) 0.3448(4) 0.4723(3)
C42 C 0.2507(3) 0.6515(5) 0.8188(3)
H27 H 0.2777 0.6530 0.8297
C43 C 0.1606(3) 0.3654(5) 0.4073(3)
C44 C 0.4202(2) 0.3144(5) 0.7390(3)
H28 H 0.4377 0.3524 0.7467
C45 C 0.4310(2) 0.6348(5) 0.4873(3)
H29 H 0.4469 0.5941 0.4830
C46 C 0.2684(2) 0.1497(4) 0.7604(3)
H30 H 0.2726 0.1464 0.7915
C47 C 0.3685(2) 0.7015(4) 0.4726(3)
C48 C 0.3662(2) 0.1852(4) 0.5588(3)
C49 C 0.3848(2) 0.6651(5) 0.7547(3)
C50 C 0.3866(3) 0.1280(4) 0.5785(3)
H31 H 0.4136 0.1188 0.5722
C51 C 0.1293(3) 0.2756(5) 0.7190(3)
C52 C 0.3265(2) 0.1950(4) 0.5690(3)
H32 H 0.3124 0.2337 0.5560
C53 C 0.3317(2) 0.7084(4) 0.4501(3)
C54 C 0.4003(2) 0.4712(4) 0.4505(3)
H33 H 0.3827 0.4751 0.4740
C55 C 0.1312(3) 0.2172(5) 0.6450(3)
C56 C 0.4527(2) 0.4600(4) 0.3831(3)
H34 H 0.4712 0.4570 0.3603
C57 C 0.3689(3) 0.3625(5) 0.7866(3)
C58 C 0.1713(3) 0.2160(5) 0.6362(3)
H35 H 0.1881 0.2519 0.6485
C59 C 0.2520(2) 0.8633(4) 0.4972(3)
H36 H 0.2343 0.8977 0.5082
C60 C 0.3604(2) 0.3079(5) 0.4150(3)
H37 H 0.3673 0.3470 0.3972
C61 C 0.3814(2) 0.5939(4) 0.4303(3)
C62 C 0.3844(2) 0.2357(4) 0.5281(3)
C63 C 0.3384(2) 0.8607(4) 0.5878(3)
H38 H 0.3281 0.8949 0.5674
C64 C 0.3933(3) 0.8137(4) 0.6291(3)
H39 H 0.4208 0.8142 0.6378
C65 C 0.0962(3) 0.3905(5) 0.7269(3)
C66 C 0.1734(3) 0.8774(5) 0.5910(3)
H40 H 0.1866 0.9105 0.6101
C67 C 0.3684(2) 0.7630(4) 0.6461(3)
C68 C 0.1966(3) 0.6997(4) 0.7711(3)
C69 C 0.3736(2) 0.7180(4) 0.7229(3)
C70 C 0.1013(3) 0.4913(6) 0.4308(4)
H41 H 0.1186 0.4900 0.4565
C71 C 0.2874(2) 0.2017(4) 0.7366(3)
C72 C 0.0882(3) 0.6854(5) 0.5159(3)
C73 C 0.3785(2) 0.8626(4) 0.5999(3)
H42 H 0.3955 0.8973 0.5882
C74 C 0.3883(3) 0.4856(4) 0.7703(3)
H43 H 0.3658 0.4868 0.7501
C75 C 0.1515(3) 0.2194(5) 0.7400(3)
H44 H 0.1587 0.1797 0.7230
C76 C 0.1076(3) 0.1648(4) 0.6272(3)
H45 H 0.0799 0.1634 0.6329
C77 C 0.2633(3) 0.8846(4) 0.6761(3)
H46 H 0.2812 0.9148 0.6616
C78 C 0.4022(2) 0.6483(4) 0.6653(3)
C79 C 0.4805(3) 0.3683(5) 0.5696(3)
H47 H 0.5021 0.3980 0.5789
C80 C 0.2902(2) 0.7613(4) 0.5076(3)
H48 H 0.2990 0.7238 0.5264
C81 C 0.1240(3) 0.1136(5) 0.6007(3)
H49 H 0.1077 0.0776 0.5877
C82 C 0.4527(3) 0.4856(5) 0.8290(3)
H50 H 0.4751 0.4852 0.8493
C83 C 0.2636(3) 0.8685(5) 0.4542(3)
H51 H 0.2537 0.9055 0.4357
C84 C 0.3699(3) 0.2026(5) 0.7141(3)
H52 H 0.3534 0.1635 0.7062
C85 C 0.4297(2) 0.3341(4) 0.5139(3)
C86 C 0.2003(3) 0.2055(5) 0.4724(3)
C87 C 0.2620(3) 0.3107(5) 0.7987(3)
H53 H 0.2433 0.2764 0.7882
C88 C 0.4620(2) 0.3779(5) 0.5293(3)
H54 H 0.4708 0.4149 0.5109
C89 C 0.2115(2) 0.2087(5) 0.5167(3)
H55 H 0.2007 0.2453 0.5340
C90 C 0.3945(3) 0.4251(5) 0.7956(3)
C91 C 0.3274(2) 0.0979(4) 0.6149(3)
H56 H 0.3139 0.0672 0.6341
C92 C 0.4205(2) 0.4080(4) 0.4446(3)
C93 C 0.3672(2) 0.2430(4) 0.4853(3)
C94 C 0.1858(3) 0.5943(5) 0.8165(3)
H57 H 0.1689 0.5577 0.8260
C95 C 0.3155(2) 0.2545(5) 0.7568(3)
C96 C 0.1186(3) 0.3343(5) 0.7458(3)
C97 C 0.1437(3) 0.7436(5) 0.7206(3)
C98 C 0.1365(3) 0.7840(5) 0.5336(3)
C99 C 0.2115(3) 0.7972(4) 0.7185(3)
C100 C 0.1233(3) 0.6663(5) 0.4330(3)
C101 C 0.3822(2) 0.7090(4) 0.6789(3)
C102 C 0.3034(2) 0.7637(4) 0.4653(3)
C103 C 0.4130(3) 0.5442(4) 0.7728(3)
C104 C 0.2825(3) 0.6679(5) 0.3915(3)
H58 H 0.2646 0.7048 0.3983
C105 C 0.2207(2) 0.7868(4) 0.6748(3)
H59 H 0.2092 0.7476 0.6592
C106 C 0.4318(2) 0.5217(4) 0.3894(3)
C107 C 0.4457(3) 0.5431(5) 0.8027(3)
C108 C 0.4464(2) 0.4024(4) 0.4103(3)
C109 C 0.3378(3) 0.1946(5) 0.4673(3)
H60 H 0.3295 0.1560 0.4846
C110 C 0.4441(3) 0.6857(4) 0.5164(3)
H61 H 0.4693 0.6806 0.5317
C111 C 0.1641(3) 0.1154(5) 0.5936(3)
H62 H 0.1755 0.0798 0.5760
C112 C 0.2896(2) 0.8198(4) 0.4385(3)
H63 H 0.2985 0.8240 0.4093
C113 C 0.1322(3) 0.6387(5) 0.7659(3)
C114 C 0.4205(2) 0.7454(5) 0.5239(3)
H64 H 0.4301 0.7809 0.5438
C115 C 0.0415(3) 0.6450(5) 0.5692(3)
H65 H 0.0305 0.6486 0.5975
C116 C 0.4098(2) 0.6353(4) 0.6197(3)
H66 H 0.4022 0.6694 0.5979
C117 C 0.1193(3) 0.7317(5) 0.5033(3)
C118 C 0.3025(3) 0.3064(5) 0.7858(3)
C119 C 0.1763(3) 0.7780(5) 0.5476(3)
H67 H 0.1913 0.7396 0.5368
C120 C 0.3155(3) 0.4148(5) 0.8295(3)
H68 H 0.3332 0.4507 0.8401
C121 C 0.3554(2) 0.2554(4) 0.7429(3)
C122 C 0.4403(3) 0.5239(5) 0.6388(3)
H69 H 0.4537 0.4827 0.6296
C123 C 0.4677(3) 0.3145(5) 0.5975(3)
H70 H 0.4808 0.3077 0.6256
C124 C 0.1323(3) 0.2592(5) 0.4635(3)
C125 C 0.3326(3) 0.2615(5) 0.3992(3)
H71 H 0.3205 0.2676 0.3705
C126 C 0.4334(2) 0.5331(4) 0.6818(3)
H72 H 0.4419 0.4977 0.7024
C127 C 0.2164(3) 0.1520(5) 0.4471(3)
H73 H 0.2092 0.1475 0.4166
C128 C 0.1176(3) 0.6873(5) 0.7342(3)
C129 C 0.0431(3) 0.5850(5) 0.5004(3)
H74 H 0.0335 0.5487 0.4813
C130 C 0.4322(3) 0.2635(5) 0.7100(3)
H75 H 0.4579 0.2663 0.6981
C131 C 0.3841(2) 0.7529(5) 0.5030(3)
H76 H 0.3686 0.7935 0.5088
C132 C 0.1354(3) 0.7235(5) 0.4612(3)
C133 C 0.3530(3) 0.7799(5) 0.7385(3)
H77 H 0.3453 0.8162 0.7183
C134 C 0.1692(3) 0.7055(5) 0.3789(3)
H78 H 0.1813 0.6995 0.3514
C135 C 0.0881(3) 0.4550(5) 0.7538(3)
C136 C 0.2559(3) 0.8963(5) 0.7199(3)
H79 H 0.2690 0.9336 0.7356
C137 C 0.2432(3) 0.1028(5) 0.7377(3)
H80 H 0.2298 0.0673 0.7535
C138 C 0.1064(3) 0.3152(6) 0.4477(3)
C139 C 0.3743(3) 0.6749(5) 0.7998(3)
H81 H 0.3812 0.6396 0.8210
C140 C 0.3667(3) 0.0851(4) 0.6073(3)
H82 H 0.3802 0.0469 0.6217
C141 C 0.3936(2) 0.6422(4) 0.4632(3)
C142 C 0.1725(3) 0.2596(5) 0.4522(3)
C143 C 0.1152(3) 0.8408(5) 0.5501(3)
H83 H 0.0881 0.8480 0.5406
C144 C 0.1866(3) 0.3114(5) 0.4233(3)
C145 C 0.3455(2) 0.6041(4) 0.4053(3)
C146 C 0.1170(3) 0.2738(5) 0.6743(3)
C147 C 0.0708(3) 0.6901(5) 0.5579(3)
H84 H 0.0799 0.7253 0.5782
C148 C 0.4048(2) 0.6037(4) 0.7411(3)
C149 C 0.4168(2) 0.2779(4) 0.5425(3)
C150 C 0.1163(3) 0.2072(6) 0.4915(3)
H85 H 0.1328 0.1694 0.5018
C151 C 0.1704(3) 0.6446(5) 0.7849(3)
C152 C 0.2530(3) 0.1120(4) 0.5114(3)
H86 H 0.2718 0.0802 0.5248
C153 C 0.4365(2) 0.2718(5) 0.5843(3)
H87 H 0.4277 0.2367 0.6041
C154 C 0.1833(3) 0.7470(5) 0.7386(3)
C155 C 0.4272(3) 0.4270(5) 0.8261(3)
C156 C 0.2374(2) 0.1073(4) 0.6931(3)
H88 H 0.2204 0.0740 0.6783
C157 C 0.0486(3) 0.5210(5) 0.8035(3)
H89 H 0.0262 0.5241 0.8216
C158 C 0.4067(3) 0.2076(5) 0.6980(3)
H90 H 0.4155 0.1725 0.6782
C159 C 0.1796(3) 0.7627(5) 0.4052(3)
H91 H 0.1982 0.7962 0.3950
C160 C 0.0270(3) 0.5929(5) 0.5394(3)
H92 H 0.0056 0.5632 0.5472
C161 C 0.2765(3) 0.4153(5) 0.8415(3)
H93 H 0.2677 0.4513 0.8606
C162 C 0.2368(3) 0.7004(5) 0.7891(3)
H94 H 0.2544 0.7363 0.7800
C163 C 0.2294(3) 0.8537(5) 0.7407(3)
H95 H 0.2233 0.8630 0.7704
C164 C 0.3217(3) 0.2037(5) 0.4258(3)
H96 H 0.3027 0.1705 0.4144
C165 C 0.2718(3) 0.6220(5) 0.3586(3)
H97 H 0.2469 0.6273 0.3429
C166 C 0.2434(3) 0.1049(5) 0.4679(3)
H98 H 0.2549 0.0680 0.4515
C167 C 0.1312(3) 0.3343(5) 0.7908(3)
H99 H 0.1250 0.3734 0.8089
C168 C 0.2244(3) 0.5977(5) 0.8334(3)
H100 H 0.2337 0.5642 0.8548
C169 C 0.3546(3) 0.7342(5) 0.8127(3)
H101 H 0.3477 0.7399 0.8426
C170 C 0.4138(2) 0.5948(4) 0.6975(3)
C171 C 0.4279(2) 0.5746(4) 0.6074(3)
H102 H 0.4322 0.5664 0.5771
C172 C 0.1068(3) 0.5753(5) 0.7741(3)
C173 C 0.1282(3) 0.7928(5) 0.6887(3)
H103 H 0.1445 0.8308 0.6797
C174 C 0.1209(3) 0.3670(6) 0.4202(3)
C175 C 0.1759(3) 0.4185(5) 0.3793(3)
H104 H 0.1585 0.4540 0.3675
C176 C 0.0788(3) 0.6831(5) 0.7142(3)
H105 H 0.0616 0.6461 0.7225
C177 C 0.0748(3) 0.6299(5) 0.4864(3)
C178 C 0.0957(3) 0.4302(6) 0.4079(4)
C179 C 0.0825(3) 0.3873(5) 0.6830(3)
C180 C 0.0919(3) 0.3281(5) 0.6563(3)
C181 C 0.0655(3) 0.7307(5) 0.6833(3)
H106 H 0.0393 0.7268 0.6702
C182 C 0.0835(3) 0.5560(6) 0.4195(4)
C183 C 0.4051(2) 0.5283(4) 0.4232(3)
C184 C 0.0912(3) 0.7859(5) 0.6711(3)
H107 H 0.0817 0.8193 0.6497
C185 C 0.0932(3) 0.6190(5) 0.4464(3)
C186 C 0.2148(3) 0.4190(5) 0.3696(3)
H108 H 0.2244 0.4545 0.3506
C187 C 0.0552(3) 0.4601(5) 0.7798(3)
C188 C 0.0745(3) 0.5772(6) 0.8009(3)
C189 C 0.1417(3) 0.6576(6) 0.3917(3)
H109 H 0.1349 0.6185 0.3734
C190 C 0.0777(3) 0.3262(6) 0.6109(4)
H110 H 0.0842 0.2870 0.5930
C191 C 0.1128(3) 0.5134(5) 0.7510(3)
H111 H 0.1349 0.5108 0.7325
C192 C 0.1335(3) 0.8869(5) 0.5804(3)
H112 H 0.1188 0.9238 0.5935
C193 C 0.3331(3) 0.5568(5) 0.3706(3)
H113 H 0.3499 0.5184 0.3636
C194 C 0.2496(3) 0.3635(5) 0.8261(3)
H114 H 0.2226 0.3648 0.8346
C195 C 0.3447(3) 0.7865(5) 0.7814(3)
H115 H 0.3317 0.8281 0.7908
C196 C 0.0782(3) 0.2104(6) 0.5037(4)
H116 H 0.0682 0.1744 0.5220
C197 C 0.0693(4) 0.4334(7) 0.3720(4)
C198 C 0.1624(3) 0.2216(5) 0.7832(3)
H117 H 0.1771 0.1837 0.7964
C199 C 0.2275(3) 0.3142(5) 0.4124(3)
H118 H 0.2453 0.2783 0.4229
C200 C 0.0592(4) 0.5586(7) 0.3821(4)
C201 C 0.0555(3) 0.3793(6) 0.5932(4)
H119 H 0.0458 0.3771 0.5633
C202 C 0.2980(3) 0.5657(5) 0.3476(3)
H120 H 0.2908 0.5345 0.3240
C203 C 0.0667(3) 0.3174(6) 0.4623(4)
H121 H 0.0494 0.3548 0.4531
C204 C 0.1639(3) 0.7719(5) 0.4451(3)
H122 H 0.1720 0.8112 0.4627
C205 C 0.1520(3) 0.2798(5) 0.8087(4)
H123 H 0.1598 0.2809 0.8392
C206 C 0.0532(3) 0.2653(6) 0.4900(4)
H124 H 0.0266 0.2672 0.4996
C207 C 0.2414(3) 0.3674(5) 0.3873(3)
H125 H 0.2690 0.3700 0.3816
C208 C 0.0594(3) 0.4426(6) 0.6632(4)
H126 H 0.0529 0.4825 0.6804
C209 C 0.0505(4) 0.4960(7) 0.3594(4)
H127 H 0.0316 0.4963 0.3352
C210 C 0.0464(3) 0.4394(6) 0.6202(4)
H128 H 0.0311 0.4772 0.6078
O1 O 0.0304(2) 0.4025(4) 0.7784(2)
C211 C -0.0058(3) 0.4072(7) 0.8022(3)
H129 H -0.0250 0.3716 0.7903
H130 H -0.0178 0.4544 0.7971
C212 C 0.0003(4) 0.3963(6) 0.8491(4)
H131 H 0.0215 0.4280 0.8612
H132 H -0.0246 0.4063 0.8643
O2 O 0.0116(3) 0.3253(5) 0.8556(3)
C213 C 0.0182(5) 0.3111(9) 0.9005(4)
H133 H 0.0255 0.2614 0.9045
H134 H -0.0062 0.3210 0.9161
H135 H 0.0399 0.3411 0.9124
O3 O 0.0666(2) 0.6379(4) 0.8239(2)
C214 C 0.0865(3) 0.6392(8) 0.8652(4)
H136 H 0.0919 0.5895 0.8737
H137 H 0.1128 0.6616 0.8612
C215 C 0.0702(3) 0.6715(8) 0.9011(4)
H138 H 0.0754 0.7228 0.8994
H139 H 0.0841 0.6537 0.9283
O4 O 0.0294(3) 0.6615(6) 0.9048(3)
C216 C 0.0165(4) 0.7190(8) 0.9303(5)
H140 H -0.0121 0.7140 0.9353
H141 H 0.0211 0.7632 0.9145
H142 H 0.0315 0.7196 0.9587
O5 O 0.0603(3) 0.3706(5) 0.3510(3)
C217 C 0.0524(5) 0.3816(8) 0.3056(4)
H143 H 0.0739 0.4095 0.2925
H144 H 0.0266 0.4062 0.3000
C218 C 0.0510(5) 0.3082(8) 0.2875(5)
H145 H 0.0775 0.2893 0.2803
H146 H 0.0364 0.2745 0.3058
O6 O 0.0282(3) 0.3334(6) 0.2503(4)
C219 C 0.0149(5) 0.2775(8) 0.2242(5)
H147 H -0.0006 0.2957 0.1985
H148 H -0.0019 0.2465 0.2413
H149 H 0.0379 0.2509 0.2142
O7 O 0.0436(3) 0.6220(5) 0.3704(3)
C220 C 0.0359(4) 0.6379(8) 0.3240(4)
H150 H 0.0169 0.6777 0.3213
H151 H 0.0233 0.5964 0.3093
C221 C 0.0725(4) 0.6563(7) 0.3017(5)
H152 H 0.0660 0.6741 0.2715
H153 H 0.0878 0.6928 0.3185
O8 O 0.0944(3) 0.5926(6) 0.3002(3)
C222 C 0.1256(5) 0.5859(10) 0.2730(5)
H154 H 0.1371 0.5385 0.2762
H155 H 0.1461 0.6211 0.2810
H156 H 0.1161 0.5933 0.2423
O9 O 0.46498(17) 0.3380(3) 0.40642(18)
C223 C 0.4803(2) 0.3180(5) 0.3647(3)
H157 H 0.4971 0.2754 0.3692
H158 H 0.4978 0.3563 0.3546
C224 C 0.4496(3) 0.3033(5) 0.3295(3)
H159 H 0.4611 0.2703 0.3081
H160 H 0.4270 0.2788 0.3429
O10 O 0.43429(19) 0.3624(3) 0.3059(2)
C225 C 0.4611(3) 0.3880(5) 0.2746(3)
H161 H 0.4493 0.4292 0.2594
H162 H 0.4661 0.3510 0.2530
H163 H 0.4863 0.4015 0.2898
O11 O 0.43499(16) 0.5803(3) 0.36304(18)
C226 C 0.4559(3) 0.5739(5) 0.3230(3)
H164 H 0.4450 0.5341 0.3051
H165 H 0.4847 0.5652 0.3297
C227 C 0.4503(3) 0.6411(5) 0.2988(3)
H166 H 0.4221 0.6461 0.2880
H167 H 0.4572 0.6815 0.3184
O12 O 0.47593(18) 0.6391(3) 0.2627(2)
C228 C 0.4708(3) 0.6995(5) 0.2363(3)
H168 H 0.4888 0.6972 0.2117
H169 H 0.4770 0.7417 0.2540
H170 H 0.4431 0.7020 0.2247
O13 O 0.43676(19) 0.3687(4) 0.8515(2)
C229 C 0.4143(3) 0.3603(6) 0.8890(3)
H171 H 0.4159 0.3104 0.8987
H172 H 0.3859 0.3708 0.8811
C230 C 0.4273(3) 0.4048(6) 0.9252(3)
H173 H 0.4245 0.4547 0.9160
H174 H 0.4098 0.3969 0.9502
O14 O 0.4678(2) 0.3922(4) 0.9398(3)
C231 C 0.4746(4) 0.3399(7) 0.9716(4)
H175 H 0.5034 0.3361 0.9787
H176 H 0.4645 0.2947 0.9602
H177 H 0.4608 0.3523 0.9984
O15 O 0.46973(17) 0.6015(3) 0.80191(19)
C232 C 0.4971(3) 0.6135(5) 0.8388(3)
H178 H 0.5171 0.6492 0.8307
H179 H 0.5116 0.5692 0.8462
C233 C 0.4766(3) 0.6381(5) 0.8779(3)
H180 H 0.4555 0.6043 0.8853
H181 H 0.4959 0.6418 0.9035
O16 O 0.4598(2) 0.7047(3) 0.8680(2)
C234 C 0.4353(3) 0.7304(6) 0.9012(3)
H182 H 0.4243 0.7764 0.8924
H183 H 0.4512 0.7353 0.9290
H184 H 0.4134 0.6971 0.9054
N1 N 0.2553(2) 0.1583(4) 0.6692(2)
N2 N 0.3073(2) 0.1524(4) 0.5963(2)
N3 N 0.2369(2) 0.1627(4) 0.5368(2)
N4 N 0.1876(2) 0.1661(4) 0.6109(2)
N5 N 0.2454(2) 0.8303(3) 0.6534(2)
N6 N 0.3136(2) 0.8125(3) 0.6035(2)
N7 N 0.2650(2) 0.8109(3) 0.5236(2)
N8 N 0.1947(2) 0.8236(4) 0.5756(2)
Pd1 Pd 0.247204(19) 0.16163(3) 0.60313(2)
Pd2 Pd 0.254346(19) 0.81729(3) 0.58880(2)
C235 C 0.4712(6) 0.8976(11) 0.6108(8)
H185 H 0.4639 0.8969 0.6417
H186 H 0.4995 0.8855 0.6090
H187 H 0.4549 0.8633 0.5939
O17 O 0.4648(4) 0.9624(9) 0.5940(5)
H188 H 0.4416 0.9646 0.5824
C236 C 0.1179(5) 0.4276(10) 0.8956(6)
H189 H 0.1059 0.4522 0.9201
H190 H 0.1212 0.3775 0.9030
H191 H 0.1005 0.4321 0.8689
O18 O 0.1543(4) 0.4564(6) 0.8882(4)
H192 H 0.1524 0.4826 0.8658
C237 C 0.0548(8) 0.5204(16) 0.0055(8)
H193 H 0.0830 0.5081 0.0099
H194 H 0.0518 0.5565 -0.0176
H195 H 0.0395 0.4783 -0.0035
O19 O 0.0409(6) 0.5460(10) 0.0437(6)
H196 H 0.0599 0.5633 0.0590
N9 N 0.3403(3) 0.9543(5) 0.4132(3)
O20 O 0.3278(4) 0.9345(6) 0.3766(3)
O21 O 0.3220(3) 0.9995(5) 0.4341(4)
O22 O 0.3714(3) 0.9282(7) 0.4295(4)
N10 N 0.1736(3) 0.5036(5) 0.9968(2)
O23 O 0.1793(2) 0.5377(4) 0.9628(2)
O24 O 0.1465(2) 0.4596(4) 0.9970(3)
O25 O 0.1959(2) 0.5116(3) 1.0297(2)
N11 N 0.3536(2) 0.5093(5) 0.2167(3)
O26 O 0.3830(2) 0.5109(5) 0.2427(3)
O27 O 0.3234(2) 0.4782(4) 0.2273(3)
O28 O 0.3546(2) 0.5405(4) 0.1813(2)
N12 N 0.1465(2) 0.4982(4) 0.1834(3)
O29 O 0.17959(19) 0.5229(4) 0.1761(3)
O30 O 0.1436(2) 0.4484(4) 0.2092(3)
O31 O 0.1162(2) 0.5251(4) 0.1655(3)
O32 O 0.3259(3) 0.9981(4) 0.5202(3)
O33 O 0.2623(3) 0.9825(5) 0.5877(3)
O34 O 0.4150(6) 0.9916(10) 0.5236(6)
O35 O 0.3507(2) 0.4045(4) 0.3132(2)
O36 O 0.4490(3) 0.5501(5) 0.1868(3)
O37 O 0.0277(3) 0.4419(6) 0.1049(4)
O38 O 0.0528(3) 0.4336(7) 0.1923(4)
loop_
_geom_bond_atom_site_label_1
_geom_bond_atom_site_label_2
_geom_bond_site_symmetry_1
_geom_bond_site_symmetry_2
C1 C3 1_555 1_555
C2 C3 1_555 1_555
C3 C5 1_555 1_555
C4 C5 1_555 1_555
C5 C7 1_555 1_555
C6 C1 1_555 1_555
H1 C6 1_555 1_555
C7 C13 1_555 1_555
C8 C1 1_555 1_555
C9 C2 1_555 1_555
H2 C9 1_555 1_555
C10 C8 1_555 1_555
H3 C10 1_555 1_555
C11 C4 1_555 1_555
H4 C11 1_555 1_555
C12 C8 1_555 1_555
H5 C12 1_555 1_555
H6 C12 1_555 1_555
H7 C12 1_555 1_555
C13 H8 1_555 1_555
C14 C7 1_555 1_555
H9 C14 1_555 1_555
C15 C2 1_555 1_555
H10 C15 1_555 1_555
C16 C4 1_555 1_555
H11 C16 1_555 1_555
C17 C13 1_555 1_555
H12 C17 1_555 1_555
C18 C23 1_555 1_555
C19 C21 1_555 1_555
C20 C22 1_555 1_555
C21 C30 1_555 1_555
C22 H13 1_555 1_555
C23 H14 1_555 1_555
C24 H15 1_555 1_555
C25 C20 1_555 1_555
H16 C25 1_555 1_555
C26 C18 1_555 1_555
C27 C18 1_555 1_555
C28 C23 1_555 1_555
H17 C28 1_555 1_555
C29 C19 1_555 1_555
C30 H18 1_555 1_555
C31 C29 1_555 1_555
H19 C31 1_555 1_555
C32 C21 1_555 1_555
H20 C32 1_555 1_555
C33 C30 1_555 1_555
H21 C33 1_555 1_555
C34 C26 1_555 1_555
H22 C34 1_555 1_555
H23 C34 1_555 1_555
H24 C34 1_555 1_555
C35 C44 1_555 1_555
C36 H25 1_555 1_555
C37 H26 1_555 1_555
C38 C57 1_555 1_555
C39 C53 1_555 1_555
C40 C41 1_555 1_555
C41 C85 1_555 1_555
C42 H27 1_555 1_555
C43 C144 1_555 1_555
C44 H28 1_555 1_555
C45 H29 1_555 1_555
C46 H30 1_555 1_555
C47 C53 1_555 1_555
C48 C50 1_555 1_555
C49 C69 1_555 1_555
C50 H31 1_555 1_555
C51 C75 1_555 1_555
C52 C48 1_555 1_555
H32 C52 1_555 1_555
C53 C102 1_555 1_555
C54 H33 1_555 1_555
C55 C58 1_555 1_555
C56 H34 1_555 1_555
C57 C35 1_555 1_555
C58 H35 1_555 1_555
C59 H36 1_555 1_555
C60 C40 1_555 1_555
H37 C60 1_555 1_555
C61 C141 1_555 1_555
C62 C48 1_555 1_555
C63 H38 1_555 1_555
C64 H39 1_555 1_555
C65 C96 1_555 1_555
C66 H40 1_555 1_555
C67 C36 1_555 1_555
C68 C151 1_555 1_555
C69 C101 1_555 1_555
C70 H41 1_555 1_555
C71 C37 1_555 1_555
C72 C117 1_555 1_555
C73 C63 1_555 1_555
H42 C73 1_555 1_555
C74 H43 1_555 1_555
C75 H44 1_555 1_555
C76 C55 1_555 1_555
H45 C76 1_555 1_555
C77 H46 1_555 1_555
C78 C101 1_555 1_555
C79 H47 1_555 1_555
C80 H48 1_555 1_555
C81 C76 1_555 1_555
H49 C81 1_555 1_555
C82 H50 1_555 1_555
C83 C59 1_555 1_555
H51 C83 1_555 1_555
C84 H52 1_555 1_555
C85 C88 1_555 1_555
C86 C89 1_555 1_555
C87 H53 1_555 1_555
C88 C79 1_555 1_555
H54 C88 1_555 1_555
C89 H55 1_555 1_555
C90 C57 1_555 1_555
C91 H56 1_555 1_555
C92 C41 1_555 1_555
C93 C40 1_555 1_555
C94 H57 1_555 1_555
C95 C71 1_555 1_555
C96 C51 1_555 1_555
C97 C128 1_555 1_555
C98 C117 1_555 1_555
C99 C105 1_555 1_555
C100 C132 1_555 1_555
C101 C67 1_555 1_555
C102 C80 1_555 1_555
C103 C74 1_555 1_555
C104 C39 1_555 1_555
H58 C104 1_555 1_555
C105 H59 1_555 1_555
C106 C56 1_555 1_555
C107 C82 1_555 1_555
C108 C56 1_555 1_555
C109 C93 1_555 1_555
H60 C109 1_555 1_555
C110 C45 1_555 1_555
H61 C110 1_555 1_555
C111 C81 1_555 1_555
H62 C111 1_555 1_555
C112 C83 1_555 1_555
H63 C112 1_555 1_555
C113 C128 1_555 1_555
C114 C110 1_555 1_555
H64 C114 1_555 1_555
C115 H65 1_555 1_555
C116 C78 1_555 1_555
H66 C116 1_555 1_555
C117 C132 1_555 1_555
C118 C38 1_555 1_555
C119 C98 1_555 1_555
H67 C119 1_555 1_555
C120 C38 1_555 1_555
H68 C120 1_555 1_555
C121 C35 1_555 1_555
C122 H69 1_555 1_555
C123 C79 1_555 1_555
H70 C123 1_555 1_555
C124 C138 1_555 1_555
C125 C60 1_555 1_555
H71 C125 1_555 1_555
C126 C122 1_555 1_555
H72 C126 1_555 1_555
C127 C86 1_555 1_555
H73 C127 1_555 1_555
C128 C176 1_555 1_555
C129 H74 1_555 1_555
C130 C44 1_555 1_555
H75 C130 1_555 1_555
C131 C47 1_555 1_555
H76 C131 1_555 1_555
C132 C204 1_555 1_555
C133 C69 1_555 1_555
H77 C133 1_555 1_555
C134 H78 1_555 1_555
C135 C65 1_555 1_555
C136 C77 1_555 1_555
H79 C136 1_555 1_555
C137 C46 1_555 1_555
H80 C137 1_555 1_555
C138 C174 1_555 1_555
C139 C49 1_555 1_555
H81 C139 1_555 1_555
C140 C50 1_555 1_555
H82 C140 1_555 1_555
C141 C45 1_555 1_555
C142 C86 1_555 1_555
C143 C98 1_555 1_555
H83 C143 1_555 1_555
C144 C142 1_555 1_555
C145 C39 1_555 1_555
C146 C51 1_555 1_555
C147 C72 1_555 1_555
H84 C147 1_555 1_555
C148 C49 1_555 1_555
C149 C62 1_555 1_555
C150 C124 1_555 1_555
H85 C150 1_555 1_555
C151 C94 1_555 1_555
C152 H86 1_555 1_555
C153 C123 1_555 1_555
H87 C153 1_555 1_555
C154 C68 1_555 1_555
C155 C82 1_555 1_555
C156 C137 1_555 1_555
H88 C156 1_555 1_555
C157 H89 1_555 1_555
C158 C84 1_555 1_555
H90 C158 1_555 1_555
C159 C134 1_555 1_555
H91 C159 1_555 1_555
C160 C115 1_555 1_555
H92 C160 1_555 1_555
C161 C120 1_555 1_555
H93 C161 1_555 1_555
C162 C42 1_555 1_555
H94 C162 1_555 1_555
C163 C99 1_555 1_555
H95 C163 1_555 1_555
C164 C109 1_555 1_555
H96 C164 1_555 1_555
C165 C104 1_555 1_555
H97 C165 1_555 1_555
C166 C127 1_555 1_555
H98 C166 1_555 1_555
C167 C96 1_555 1_555
H99 C167 1_555 1_555
C168 C42 1_555 1_555
H100 C168 1_555 1_555
C169 C139 1_555 1_555
H101 C169 1_555 1_555
C170 C78 1_555 1_555
C171 C116 1_555 1_555
H102 C171 1_555 1_555
C172 C113 1_555 1_555
C173 C97 1_555 1_555
H103 C173 1_555 1_555
C174 C43 1_555 1_555
C175 C43 1_555 1_555
H104 C175 1_555 1_555
C176 H105 1_555 1_555
C177 C72 1_555 1_555
C178 C70 1_555 1_555
C179 C65 1_555 1_555
C180 C146 1_555 1_555
C181 C176 1_555 1_555
H106 C181 1_555 1_555
C182 C70 1_555 1_555
C183 C54 1_555 1_555
C184 C173 1_555 1_555
H107 C184 1_555 1_555
C185 C100 1_555 1_555
C186 C175 1_555 1_555
H108 C186 1_555 1_555
C187 C135 1_555 1_555
C188 C157 1_555 1_555
C189 C100 1_555 1_555
H109 C189 1_555 1_555
C190 C180 1_555 1_555
H110 C190 1_555 1_555
C191 C135 1_555 1_555
H111 C191 1_555 1_555
C192 C66 1_555 1_555
H112 C192 1_555 1_555
C193 C145 1_555 1_555
H113 C193 1_555 1_555
C194 C87 1_555 1_555
H114 C194 1_555 1_555
C195 C133 1_555 1_555
H115 C195 1_555 1_555
C196 C150 1_555 1_555
H116 C196 1_555 1_555
C197 C178 1_555 1_555
C198 C75 1_555 1_555
H117 C198 1_555 1_555
C199 C144 1_555 1_555
H118 C199 1_555 1_555
C200 C182 1_555 1_555
C201 C190 1_555 1_555
H119 C201 1_555 1_555
C202 C165 1_555 1_555
H120 C202 1_555 1_555
C203 C138 1_555 1_555
H121 C203 1_555 1_555
C204 C159 1_555 1_555
H122 C204 1_555 1_555
C205 C167 1_555 1_555
H123 C205 1_555 1_555
C206 C196 1_555 1_555
H124 C206 1_555 1_555
C207 C186 1_555 1_555
H125 C207 1_555 1_555
C208 C179 1_555 1_555
H126 C208 1_555 1_555
C209 C197 1_555 1_555
H127 C209 1_555 1_555
C210 C201 1_555 1_555
H128 C210 1_555 1_555
O1 C187 1_555 1_555
C211 O1 1_555 1_555
H129 C211 1_555 1_555
H130 C211 1_555 1_555
C212 C211 1_555 1_555
H131 C212 1_555 1_555
H132 C212 1_555 1_555
O2 C212 1_555 1_555
C213 O2 1_555 1_555
H133 C213 1_555 1_555
H134 C213 1_555 1_555
H135 C213 1_555 1_555
O3 C188 1_555 1_555
C214 O3 1_555 1_555
H136 C214 1_555 1_555
H137 C214 1_555 1_555
C215 C214 1_555 1_555
H138 C215 1_555 1_555
H139 C215 1_555 1_555
O4 C215 1_555 1_555
C216 O4 1_555 1_555
H140 C216 1_555 1_555
H141 C216 1_555 1_555
H142 C216 1_555 1_555
O5 C197 1_555 1_555
C217 O5 1_555 1_555
H143 C217 1_555 1_555
H144 C217 1_555 1_555
C218 C217 1_555 1_555
H145 C218 1_555 1_555
H146 C218 1_555 1_555
O6 C218 1_555 1_555
C219 O6 1_555 1_555
H147 C219 1_555 1_555
H148 C219 1_555 1_555
H149 C219 1_555 1_555
O7 C200 1_555 1_555
C220 O7 1_555 1_555
H150 C220 1_555 1_555
H151 C220 1_555 1_555
C221 C220 1_555 1_555
H152 C221 1_555 1_555
H153 C221 1_555 1_555
O8 C221 1_555 1_555
C222 O8 1_555 1_555
H154 C222 1_555 1_555
H155 C222 1_555 1_555
H156 C222 1_555 1_555
O9 C108 1_555 1_555
C223 O9 1_555 1_555
H157 C223 1_555 1_555
H158 C223 1_555 1_555
C224 C223 1_555 1_555
H159 C224 1_555 1_555
H160 C224 1_555 1_555
O10 C224 1_555 1_555
C225 O10 1_555 1_555
H161 C225 1_555 1_555
H162 C225 1_555 1_555
H163 C225 1_555 1_555
O11 C106 1_555 1_555
C226 O11 1_555 1_555
H164 C226 1_555 1_555
H165 C226 1_555 1_555
C227 C226 1_555 1_555
H166 C227 1_555 1_555
H167 C227 1_555 1_555
O12 C227 1_555 1_555
C228 O12 1_555 1_555
H168 C228 1_555 1_555
H169 C228 1_555 1_555
H170 C228 1_555 1_555
O13 C155 1_555 1_555
C229 O13 1_555 1_555
H171 C229 1_555 1_555
H172 C229 1_555 1_555
C230 C229 1_555 1_555
H173 C230 1_555 1_555
H174 C230 1_555 1_555
O14 C230 1_555 1_555
C231 O14 1_555 1_555
H175 C231 1_555 1_555
H176 C231 1_555 1_555
H177 C231 1_555 1_555
O15 C107 1_555 1_555
C232 O15 1_555 1_555
H178 C232 1_555 1_555
H179 C232 1_555 1_555
C233 C232 1_555 1_555
H180 C233 1_555 1_555
H181 C233 1_555 1_555
O16 C233 1_555 1_555
C234 O16 1_555 1_555
H182 C234 1_555 1_555
H183 C234 1_555 1_555
H184 C234 1_555 1_555
N1 C37 1_555 1_555
N2 C52 1_555 1_555
N3 C89 1_555 1_555
N4 C58 1_555 1_555
N5 C77 1_555 1_555
N6 C36 1_555 1_555
N7 C59 1_555 1_555
N8 C66 1_555 1_555
Pd1 N1 1_555 1_555
Pd2 N5 1_555 1_555
C235 H185 1_555 1_555
H186 C235 1_555 1_555
H187 C235 1_555 1_555
O17 C235 1_555 1_555
H188 O17 1_555 1_555
C236 H189 1_555 1_555
H190 C236 1_555 1_555
H191 C236 1_555 1_555
O18 C236 1_555 1_555
H192 O18 1_555 1_555
C237 H193 1_555 1_555
H194 C237 1_555 1_555
H195 C237 1_555 1_555
O19 C237 1_555 1_555
H196 O19 1_555 1_555
N9 O20 1_555 1_555
O21 N9 1_555 1_555
O22 N9 1_555 1_555
N10 O23 1_555 1_555
O24 N10 1_555 1_555
O25 N10 1_555 1_555
N11 O26 1_555 1_555
O27 N11 1_555 1_555
O28 N11 1_555 1_555
N12 O29 1_555 1_555
O30 N12 1_555 1_555
O31 N12 1_555 1_555
C6 C11 1_555 1_555
C9 C10 1_555 1_555
C14 C15 1_555 1_555
C16 C17 1_555 1_555
C19 C27 1_555 1_555
C20 C27 1_555 1_555
C22 C32 1_555 1_555
C24 C25 1_555 1_555
C24 C26 1_555 1_555
C28 C29 1_555 1_555
C31 C33 1_555 1_555
C46 C71 1_555 1_555
C47 C141 1_555 1_555
C54 C92 1_555 1_555
C55 C146 1_555 1_555
C61 C145 1_555 1_555
C61 C183 1_555 1_555
C62 C93 1_555 1_555
C63 N6 1_555 1_555
C64 C67 1_555 1_555
C64 C73 1_555 1_555
C68 C162 1_555 1_555
C74 C90 1_555 1_555
C80 N7 1_555 1_555
C84 C121 1_555 1_555
C85 C149 1_555 1_555
C87 C118 1_555 1_555
C90 C155 1_555 1_555
C91 C140 1_555 1_555
C91 N2 1_555 1_555
C92 C108 1_555 1_555
C94 C168 1_555 1_555
C95 C118 1_555 1_555
C95 C121 1_555 1_555
C97 C154 1_555 1_555
C99 C154 1_555 1_555
C102 C112 1_555 1_555
C103 C107 1_555 1_555
C103 C148 1_555 1_555
C105 N5 1_555 1_555
C106 C183 1_555 1_555
C111 N4 1_555 1_555
C113 C151 1_555 1_555
C114 C131 1_555 1_555
C115 C147 1_555 1_555
C119 N8 1_555 1_555
C122 C171 1_555 1_555
C124 C142 1_555 1_555
C125 C164 1_555 1_555
C126 C170 1_555 1_555
C129 C160 1_555 1_555
C129 C177 1_555 1_555
C130 C158 1_555 1_555
C134 C189 1_555 1_555
C136 C163 1_555 1_555
C143 C192 1_555 1_555
C148 C170 1_555 1_555
C149 C153 1_555 1_555
C152 C166 1_555 1_555
C152 N3 1_555 1_555
C156 N1 1_555 1_555
C157 C187 1_555 1_555
C161 C194 1_555 1_555
C169 C195 1_555 1_555
C172 C188 1_555 1_555
C172 C191 1_555 1_555
C174 C178 1_555 1_555
C177 C185 1_555 1_555
C179 C180 1_555 1_555
C181 C184 1_555 1_555
C182 C185 1_555 1_555
C193 C202 1_555 1_555
C198 C205 1_555 1_555
C199 C207 1_555 1_555
C200 C209 1_555 1_555
C203 C206 1_555 1_555
C208 C210 1_555 1_555
N2 Pd1 1_555 1_555
N3 Pd1 1_555 1_555
N4 Pd1 1_555 1_555
N6 Pd2 1_555 1_555
N7 Pd2 1_555 1_555
N8 Pd2 1_555 1_555

#END
