# generated using pymatgen
data_H196Pd2C237(N6O19)2
_symmetry_space_group_name_H-M   'P 1'
_cell_length_a   18.95500000
_cell_length_b   30.32300000
_cell_length_c   33.51500000
_cell_angle_alpha   92.51100000
_cell_angle_beta   90.00000000
_cell_angle_gamma   90.00000000
_symmetry_Int_Tables_number   1
_chemical_formula_structural   H196Pd2C237(N6O19)2
_chemical_formula_sum   'H784 Pd8 C948 N48 O152'
_cell_volume   19245.00290831
_cell_formula_units_Z   4
loop_
 _symmetry_equiv_pos_site_id
 _symmetry_equiv_pos_as_xyz
  1  'x, y, z'
loop_
 _atom_site_type_symbol
 _atom_site_label
 _atom_site_symmetry_multiplicity
 _atom_site_fract_x
 _atom_site_fract_y
 _atom_site_fract_z
 _atom_site_occupancy
  H  H1  1  0.924000  0.137600  0.330700  1
  H  H2  1  0.424000  0.362400  0.669300  1
  H  H3  1  0.076000  0.862400  0.669300  1
  H  H4  1  0.576000  0.637600  0.330700  1
  H  H5  1  0.902100  0.170300  0.164100  1
  H  H6  1  0.402100  0.329700  0.835900  1
  H  H7  1  0.097900  0.829700  0.835900  1
  H  H8  1  0.597900  0.670300  0.164100  1
  H  H9  1  0.908600  0.221100  0.217200  1
  H  H10  1  0.408600  0.278900  0.782800  1
  H  H11  1  0.091400  0.778900  0.782800  1
  H  H12  1  0.591400  0.721100  0.217200  1
  H  H13  1  0.935400  0.064600  0.341600  1
  H  H14  1  0.435400  0.435400  0.658400  1
  H  H15  1  0.064600  0.935400  0.658400  1
  H  H16  1  0.564600  0.564600  0.341600  1
  H  H17  1  0.916900  0.242200  0.283800  1
  H  H18  1  0.416900  0.257800  0.716200  1
  H  H19  1  0.083100  0.757800  0.716200  1
  H  H20  1  0.583100  0.742200  0.283800  1
  H  H21  1  0.963600  0.209300  0.309000  1
  H  H22  1  0.463600  0.290700  0.691000  1
  H  H23  1  0.036400  0.790700  0.691000  1
  H  H24  1  0.536400  0.709300  0.309000  1
  H  H25  1  0.879400  0.208900  0.312900  1
  H  H26  1  0.379400  0.291100  0.687100  1
  H  H27  1  0.120600  0.791100  0.687100  1
  H  H28  1  0.620600  0.708900  0.312900  1
  H  H29  1  0.937100  0.958000  0.197600  1
  H  H30  1  0.437100  0.542000  0.802400  1
  H  H31  1  0.062900  0.042000  0.802400  1
  H  H32  1  0.562900  0.458000  0.197600  1
  H  H33  1  0.914100  0.017700  0.149800  1
  H  H34  1  0.414100  0.482300  0.850200  1
  H  H35  1  0.085900  0.982300  0.850200  1
  H  H36  1  0.585900  0.517700  0.149800  1
  H  H37  1  0.900600  0.091200  0.138000  1
  H  H38  1  0.400600  0.408800  0.862000  1
  H  H39  1  0.099400  0.908800  0.862000  1
  H  H40  1  0.599400  0.591200  0.138000  1
  H  H41  1  0.950400  0.986800  0.315100  1
  H  H42  1  0.450400  0.513200  0.684900  1
  H  H43  1  0.049600  0.013200  0.684900  1
  H  H44  1  0.549600  0.486800  0.315100  1
  H  H45  1  0.957300  0.937600  0.262700  1
  H  H46  1  0.457300  0.562400  0.737300  1
  H  H47  1  0.042700  0.062400  0.737300  1
  H  H48  1  0.542700  0.437600  0.262700  1
  H  H49  1  0.405200  0.719100  0.243800  1
  H  H50  1  0.905200  0.780900  0.756200  1
  H  H51  1  0.594800  0.280900  0.756200  1
  H  H52  1  0.094800  0.219100  0.243800  1
  H  H53  1  0.385600  0.504500  0.219200  1
  H  H54  1  0.885600  0.995500  0.780800  1
  H  H55  1  0.614400  0.495500  0.780800  1
  H  H56  1  0.114400  0.004500  0.219200  1
  H  H57  1  0.426400  0.618700  0.134500  1
  H  H58  1  0.926400  0.881300  0.865500  1
  H  H59  1  0.573600  0.381300  0.865500  1
  H  H60  1  0.073600  0.118700  0.134500  1
  H  H61  1  0.418800  0.685500  0.176900  1
  H  H62  1  0.918800  0.814500  0.823100  1
  H  H63  1  0.581200  0.314500  0.823100  1
  H  H64  1  0.081200  0.185500  0.176900  1
  H  H65  1  0.378400  0.497500  0.287000  1
  H  H66  1  0.878400  0.002500  0.713000  1
  H  H67  1  0.621600  0.502500  0.713000  1
  H  H68  1  0.121600  0.997500  0.287000  1
  H  H69  1  0.395600  0.666667  0.369500  1
  H  H70  1  0.895600  0.833333  0.630500  1
  H  H71  1  0.604400  0.333333  0.630500  1
  H  H72  1  0.104400  0.166667  0.369500  1
  H  H73  1  0.388400  0.533100  0.353600  1
  H  H74  1  0.888400  0.966900  0.646400  1
  H  H75  1  0.611600  0.466900  0.646400  1
  H  H76  1  0.111600  0.033100  0.353600  1
  H  H77  1  0.398400  0.713600  0.311100  1
  H  H78  1  0.898400  0.786400  0.688900  1
  H  H79  1  0.601600  0.286400  0.688900  1
  H  H80  1  0.101600  0.213600  0.311100  1
  H  H81  1  0.396300  0.596500  0.395500  1
  H  H82  1  0.896300  0.903500  0.604500  1
  H  H83  1  0.603700  0.403500  0.604500  1
  H  H84  1  0.103700  0.096500  0.395500  1
  H  H85  1  0.419300  0.545000  0.121700  1
  H  H86  1  0.919300  0.955000  0.878300  1
  H  H87  1  0.580700  0.455000  0.878300  1
  H  H88  1  0.080700  0.045000  0.121700  1
  H  H89  1  0.364900  0.520000  0.149300  1
  H  H90  1  0.864900  0.980000  0.850700  1
  H  H91  1  0.635100  0.480000  0.850700  1
  H  H92  1  0.135100  0.020000  0.149300  1
  H  H93  1  0.448000  0.515800  0.156900  1
  H  H94  1  0.948000  0.984200  0.843100  1
  H  H95  1  0.552000  0.484200  0.843100  1
  H  H96  1  0.052000  0.015800  0.156900  1
  H  H97  1  0.729000  0.642900  0.311200  1
  H  H98  1  0.229000  0.857100  0.688800  1
  H  H99  1  0.271000  0.357100  0.688800  1
  H  H100  1  0.771000  0.142900  0.311200  1
  H  H101  1  0.240900  0.675400  0.291700  1
  H  H102  1  0.740900  0.824600  0.708300  1
  H  H103  1  0.759100  0.324600  0.708300  1
  H  H104  1  0.259100  0.175400  0.291700  1
  H  H105  1  0.653000  0.829700  0.277700  1
  H  H106  1  0.153000  0.670300  0.722300  1
  H  H107  1  0.347000  0.170300  0.722300  1
  H  H108  1  0.847000  0.329700  0.277700  1
  H  H109  1  0.352400  0.746700  0.437700  1
  H  H110  1  0.852400  0.753300  0.562300  1
  H  H111  1  0.647600  0.253300  0.562300  1
  H  H112  1  0.147600  0.246700  0.437700  1
  H  H113  1  0.594100  0.483000  0.446900  1
  H  H114  1  0.094100  0.017000  0.553100  1
  H  H115  1  0.405900  0.517000  0.553100  1
  H  H116  1  0.905900  0.983000  0.446900  1
  H  H117  1  0.146400  0.791500  0.272600  1
  H  H118  1  0.646400  0.708500  0.727400  1
  H  H119  1  0.853600  0.208500  0.727400  1
  H  H120  1  0.353600  0.291500  0.272600  1
  H  H121  1  0.118800  0.572200  0.413600  1
  H  H122  1  0.618800  0.927800  0.586400  1
  H  H123  1  0.881200  0.427800  0.586400  1
  H  H124  1  0.381200  0.072200  0.413600  1
  H  H125  1  0.233700  0.556000  0.312400  1
  H  H126  1  0.733700  0.944000  0.687600  1
  H  H127  1  0.766300  0.444000  0.687600  1
  H  H128  1  0.266300  0.056000  0.312400  1
  H  H129  1  0.475100  0.474000  0.382700  1
  H  H130  1  0.975100  0.026000  0.617300  1
  H  H131  1  0.524900  0.526000  0.617300  1
  H  H132  1  0.024900  0.974000  0.382700  1
  H  H133  1  0.457000  0.360300  0.471200  1
  H  H134  1  0.957000  0.139700  0.528800  1
  H  H135  1  0.543000  0.639700  0.528800  1
  H  H136  1  0.043000  0.860300  0.471200  1
  H  H137  1  0.251900  0.648500  0.188100  1
  H  H138  1  0.751900  0.851500  0.811900  1
  H  H139  1  0.748100  0.351500  0.811900  1
  H  H140  1  0.248100  0.148500  0.188100  1
  H  H141  1  0.897700  0.508200  0.234300  1
  H  H142  1  0.397700  0.991800  0.765700  1
  H  H143  1  0.102300  0.491800  0.765700  1
  H  H144  1  0.602300  0.008200  0.234300  1
  H  H145  1  0.347000  0.397200  0.367300  1
  H  H146  1  0.847000  0.102800  0.632700  1
  H  H147  1  0.653000  0.602800  0.632700  1
  H  H148  1  0.153000  0.897200  0.367300  1
  H  H149  1  0.894900  0.567400  0.328100  1
  H  H150  1  0.394900  0.932600  0.671900  1
  H  H151  1  0.105100  0.432600  0.671900  1
  H  H152  1  0.605100  0.067400  0.328100  1
  H  H153  1  0.814200  0.637800  0.420800  1
  H  H154  1  0.314200  0.862200  0.579200  1
  H  H155  1  0.185800  0.362200  0.579200  1
  H  H156  1  0.685800  0.137800  0.420800  1
  H  H157  1  0.910500  0.610100  0.186600  1
  H  H158  1  0.410500  0.889900  0.813400  1
  H  H159  1  0.089500  0.389900  0.813400  1
  H  H160  1  0.589500  0.110100  0.186600  1
  H  H161  1  0.490000  0.456500  0.118600  1
  H  H162  1  0.990000  0.043500  0.881400  1
  H  H163  1  0.510000  0.543500  0.881400  1
  H  H164  1  0.010000  0.956500  0.118600  1
  H  H165  1  0.897300  0.588200  0.395500  1
  H  H166  1  0.397300  0.911800  0.604500  1
  H  H167  1  0.102700  0.411800  0.604500  1
  H  H168  1  0.602700  0.088200  0.395500  1
  H  H169  1  0.486800  0.750100  0.365800  1
  H  H170  1  0.986800  0.749900  0.634200  1
  H  H171  1  0.513200  0.249900  0.634200  1
  H  H172  1  0.013200  0.250100  0.365800  1
  H  H173  1  0.179700  0.723000  0.158700  1
  H  H174  1  0.679700  0.777000  0.841300  1
  H  H175  1  0.820300  0.277000  0.841300  1
  H  H176  1  0.320300  0.223000  0.158700  1
  H  H177  1  0.163400  0.632900  0.079900  1
  H  H178  1  0.663400  0.867100  0.920100  1
  H  H179  1  0.836600  0.367100  0.920100  1
  H  H180  1  0.336600  0.132900  0.079900  1
  H  H181  1  0.914800  0.661600  0.281200  1
  H  H182  1  0.414800  0.838400  0.718800  1
  H  H183  1  0.085200  0.338400  0.718800  1
  H  H184  1  0.585200  0.161600  0.281200  1
  H  H185  1  0.398000  0.578900  0.502100  1
  H  H186  1  0.898000  0.921100  0.497900  1
  H  H187  1  0.602000  0.421100  0.497900  1
  H  H188  1  0.102000  0.078900  0.502100  1
  H  H189  1  0.723800  0.526400  0.299000  1
  H  H190  1  0.223800  0.973600  0.701000  1
  H  H191  1  0.276200  0.473600  0.701000  1
  H  H192  1  0.776200  0.026400  0.299000  1
  H  H193  1  0.077600  0.587700  0.107700  1
  H  H194  1  0.577600  0.912300  0.892300  1
  H  H195  1  0.922400  0.412300  0.892300  1
  H  H196  1  0.422400  0.087700  0.107700  1
  H  H197  1  0.485200  0.849300  0.475100  1
  H  H198  1  0.985200  0.650700  0.524900  1
  H  H199  1  0.514800  0.150700  0.524900  1
  H  H200  1  0.014800  0.349300  0.475100  1
  H  H201  1  0.905500  0.435700  0.253700  1
  H  H202  1  0.405500  0.064300  0.746300  1
  H  H203  1  0.094500  0.564300  0.746300  1
  H  H204  1  0.594500  0.935700  0.253700  1
  H  H205  1  0.163500  0.706200  0.353400  1
  H  H206  1  0.663500  0.793800  0.646600  1
  H  H207  1  0.836500  0.293800  0.646600  1
  H  H208  1  0.336500  0.206200  0.353400  1
  H  H209  1  0.276400  0.788200  0.243300  1
  H  H210  1  0.776400  0.711800  0.756700  1
  H  H211  1  0.723600  0.211800  0.756700  1
  H  H212  1  0.223600  0.288200  0.243300  1
  H  H213  1  0.414900  0.510900  0.470800  1
  H  H214  1  0.914900  0.989100  0.529200  1
  H  H215  1  0.585100  0.489100  0.529200  1
  H  H216  1  0.085100  0.010900  0.470800  1
  H  H217  1  0.245300  0.534000  0.200700  1
  H  H218  1  0.745300  0.966000  0.799300  1
  H  H219  1  0.754700  0.466000  0.799300  1
  H  H220  1  0.254700  0.034000  0.200700  1
  H  H221  1  0.067200  0.634100  0.313900  1
  H  H222  1  0.567200  0.865900  0.686100  1
  H  H223  1  0.932800  0.365900  0.686100  1
  H  H224  1  0.432800  0.134100  0.313900  1
  H  H225  1  0.557700  0.826000  0.168900  1
  H  H226  1  0.057700  0.674000  0.831100  1
  H  H227  1  0.442300  0.174000  0.831100  1
  H  H228  1  0.942300  0.326000  0.168900  1
  H  H229  1  0.704800  0.398300  0.264600  1
  H  H230  1  0.204800  0.101700  0.735400  1
  H  H231  1  0.295200  0.601700  0.735400  1
  H  H232  1  0.795200  0.898300  0.264600  1
  H  H233  1  0.747600  0.659200  0.209200  1
  H  H234  1  0.247600  0.840800  0.790800  1
  H  H235  1  0.252400  0.340800  0.790800  1
  H  H236  1  0.752400  0.159200  0.209200  1
  H  H237  1  0.156000  0.484600  0.329500  1
  H  H238  1  0.656000  0.015400  0.670500  1
  H  H239  1  0.844000  0.515400  0.670500  1
  H  H240  1  0.344000  0.984600  0.329500  1
  H  H241  1  0.680600  0.531700  0.469300  1
  H  H242  1  0.180600  0.968300  0.530700  1
  H  H243  1  0.319400  0.468300  0.530700  1
  H  H244  1  0.819400  0.031700  0.469300  1
  H  H245  1  0.079800  0.576000  0.175500  1
  H  H246  1  0.579800  0.924000  0.824500  1
  H  H247  1  0.920200  0.424000  0.824500  1
  H  H248  1  0.420200  0.076000  0.175500  1
  H  H249  1  0.824000  0.409300  0.298500  1
  H  H250  1  0.324000  0.090700  0.701500  1
  H  H251  1  0.176000  0.590700  0.701500  1
  H  H252  1  0.676000  0.909300  0.298500  1
  H  H253  1  0.780900  0.543800  0.430100  1
  H  H254  1  0.280900  0.956200  0.569900  1
  H  H255  1  0.219100  0.456200  0.569900  1
  H  H256  1  0.719100  0.043800  0.430100  1
  H  H257  1  0.648600  0.597500  0.030500  1
  H  H258  1  0.148600  0.902500  0.969500  1
  H  H259  1  0.351400  0.402500  0.969500  1
  H  H260  1  0.851400  0.097500  0.030500  1
  H  H261  1  0.669400  0.597900  0.402200  1
  H  H262  1  0.169400  0.902100  0.597800  1
  H  H263  1  0.330600  0.402100  0.597800  1
  H  H264  1  0.830600  0.097900  0.402200  1
  H  H265  1  0.739600  0.536800  0.191300  1
  H  H266  1  0.239600  0.963200  0.808700  1
  H  H267  1  0.260400  0.463200  0.808700  1
  H  H268  1  0.760400  0.036800  0.191300  1
  H  H269  1  0.450700  0.840100  0.333200  1
  H  H270  1  0.950700  0.659900  0.666800  1
  H  H271  1  0.549300  0.159900  0.666800  1
  H  H272  1  0.049300  0.340100  0.333200  1
  H  H273  1  0.482700  0.629600  0.453700  1
  H  H274  1  0.982700  0.870400  0.546300  1
  H  H275  1  0.517300  0.370400  0.546300  1
  H  H276  1  0.017300  0.129600  0.453700  1
  H  H277  1  0.307700  0.625600  0.480800  1
  H  H278  1  0.807700  0.874400  0.519200  1
  H  H279  1  0.692300  0.374400  0.519200  1
  H  H280  1  0.192300  0.125600  0.480800  1
  H  H281  1  0.267600  0.370500  0.320500  1
  H  H282  1  0.767600  0.129500  0.679500  1
  H  H283  1  0.732400  0.629500  0.679500  1
  H  H284  1  0.232400  0.870500  0.320500  1
  H  H285  1  0.497700  0.702400  0.441900  1
  H  H286  1  0.997700  0.797600  0.558100  1
  H  H287  1  0.502300  0.297600  0.558100  1
  H  H288  1  0.002300  0.202400  0.441900  1
  H  H289  1  0.147500  0.416600  0.209200  1
  H  H290  1  0.647500  0.083400  0.790800  1
  H  H291  1  0.852500  0.583400  0.790800  1
  H  H292  1  0.352500  0.916600  0.209200  1
  H  H293  1  0.548700  0.481300  0.033500  1
  H  H294  1  0.048700  0.018700  0.966500  1
  H  H295  1  0.451300  0.518700  0.966500  1
  H  H296  1  0.951300  0.981300  0.033500  1
  H  H297  1  0.266300  0.698100  0.457900  1
  H  H298  1  0.766300  0.801900  0.542100  1
  H  H299  1  0.733700  0.301900  0.542100  1
  H  H300  1  0.233700  0.198100  0.457900  1
  H  H301  1  0.793500  0.508800  0.368600  1
  H  H302  1  0.293500  0.991200  0.631400  1
  H  H303  1  0.206500  0.491200  0.631400  1
  H  H304  1  0.706500  0.008800  0.368600  1
  H  H305  1  0.816200  0.718300  0.345300  1
  H  H306  1  0.316200  0.781700  0.654700  1
  H  H307  1  0.183800  0.281700  0.654700  1
  H  H308  1  0.683800  0.218300  0.345300  1
  H  H309  1  0.699500  0.351400  0.181300  1
  H  H310  1  0.199500  0.148600  0.818700  1
  H  H311  1  0.300500  0.648600  0.818700  1
  H  H312  1  0.800500  0.851400  0.181300  1
  H  H313  1  0.933600  0.735600  0.269000  1
  H  H314  1  0.433600  0.764400  0.731000  1
  H  H315  1  0.066400  0.264400  0.731000  1
  H  H316  1  0.566400  0.235600  0.269000  1
  H  H317  1  0.067300  0.753500  0.229800  1
  H  H318  1  0.567300  0.746500  0.770200  1
  H  H319  1  0.932700  0.246500  0.770200  1
  H  H320  1  0.432700  0.253500  0.229800  1
  H  H321  1  0.639600  0.821000  0.381200  1
  H  H322  1  0.139600  0.679000  0.618800  1
  H  H323  1  0.360400  0.179000  0.618800  1
  H  H324  1  0.860400  0.321000  0.381200  1
  H  H325  1  0.046900  0.621700  0.380200  1
  H  H326  1  0.546900  0.878300  0.619800  1
  H  H327  1  0.953100  0.378300  0.619800  1
  H  H328  1  0.453100  0.121700  0.380200  1
  H  H329  1  0.848000  0.540600  0.088100  1
  H  H330  1  0.348000  0.959400  0.911900  1
  H  H331  1  0.152000  0.459400  0.911900  1
  H  H332  1  0.652000  0.040600  0.088100  1
  H  H333  1  0.725300  0.578200  0.079900  1
  H  H334  1  0.225300  0.921800  0.920100  1
  H  H335  1  0.274700  0.421800  0.920100  1
  H  H336  1  0.774700  0.078200  0.079900  1
  H  H337  1  0.169400  0.501800  0.132800  1
  H  H338  1  0.669400  0.998200  0.867200  1
  H  H339  1  0.830600  0.498200  0.867200  1
  H  H340  1  0.330600  0.001800  0.132800  1
  H  H341  1  0.080200  0.524800  0.271800  1
  H  H342  1  0.580200  0.975200  0.728200  1
  H  H343  1  0.919800  0.475200  0.728200  1
  H  H344  1  0.419800  0.024800  0.271800  1
  H  H345  1  0.236700  0.604100  0.427700  1
  H  H346  1  0.736700  0.895900  0.572300  1
  H  H347  1  0.763300  0.395900  0.572300  1
  H  H348  1  0.263300  0.104100  0.427700  1
  H  H349  1  0.074000  0.678300  0.220400  1
  H  H350  1  0.574000  0.821700  0.779600  1
  H  H351  1  0.926000  0.321700  0.779600  1
  H  H352  1  0.426000  0.178300  0.220400  1
  H  H353  1  0.524100  0.821600  0.026200  1
  H  H354  1  0.024100  0.678400  0.973800  1
  H  H355  1  0.475900  0.178400  0.973800  1
  H  H356  1  0.975900  0.321600  0.026200  1
  H  H357  1  0.172500  0.678200  0.415500  1
  H  H358  1  0.672500  0.821800  0.584500  1
  H  H359  1  0.827500  0.321800  0.584500  1
  H  H360  1  0.327500  0.178200  0.415500  1
  H  H361  1  0.796200  0.395000  0.198200  1
  H  H362  1  0.296200  0.105000  0.801800  1
  H  H363  1  0.203800  0.605000  0.801800  1
  H  H364  1  0.703800  0.895000  0.198200  1
  H  H365  1  0.563200  0.547200  0.005600  1
  H  H366  1  0.063200  0.952800  0.994400  1
  H  H367  1  0.436800  0.452800  0.994400  1
  H  H368  1  0.936800  0.047200  0.005600  1
  H  H369  1  0.451300  0.860600  0.267700  1
  H  H370  1  0.951300  0.639400  0.732300  1
  H  H371  1  0.548700  0.139400  0.732300  1
  H  H372  1  0.048700  0.360600  0.267700  1
  H  H373  1  0.736300  0.780000  0.254400  1
  H  H374  1  0.236300  0.720000  0.745600  1
  H  H375  1  0.263700  0.220000  0.745600  1
  H  H376  1  0.763700  0.280000  0.254400  1
  H  H377  1  0.863000  0.770400  0.223300  1
  H  H378  1  0.363000  0.729600  0.776700  1
  H  H379  1  0.137000  0.229600  0.776700  1
  H  H380  1  0.637000  0.270400  0.223300  1
  H  H381  1  0.170500  0.414400  0.302700  1
  H  H382  1  0.670500  0.085600  0.697300  1
  H  H383  1  0.829500  0.585600  0.697300  1
  H  H384  1  0.329500  0.914400  0.302700  1
  H  H385  1  0.627300  0.342900  0.246900  1
  H  H386  1  0.127300  0.157100  0.753100  1
  H  H387  1  0.372700  0.657100  0.753100  1
  H  H388  1  0.872700  0.842900  0.246900  1
  H  H389  1  0.068000  0.451500  0.254900  1
  H  H390  1  0.568000  0.048500  0.745100  1
  H  H391  1  0.932000  0.548500  0.745100  1
  H  H392  1  0.432000  0.951500  0.254900  1
  H  H393  1  0.373400  0.808900  0.125000  1
  H  H394  1  0.873400  0.691100  0.875000  1
  H  H395  1  0.626600  0.191100  0.875000  1
  H  H396  1  0.126600  0.308900  0.125000  1
  H  H397  1  0.564200  0.854800  0.233700  1
  H  H398  1  0.064200  0.645200  0.766300  1
  H  H399  1  0.435800  0.145200  0.766300  1
  H  H400  1  0.935800  0.354800  0.233700  1
  H  H401  1  0.739900  0.842600  0.347700  1
  H  H402  1  0.239900  0.657400  0.652300  1
  H  H403  1  0.260100  0.157400  0.652300  1
  H  H404  1  0.760100  0.342600  0.347700  1
  H  H405  1  0.566400  0.577100  0.432200  1
  H  H406  1  0.066400  0.922900  0.567800  1
  H  H407  1  0.433600  0.422900  0.567800  1
  H  H408  1  0.933600  0.077100  0.432200  1
  H  H409  1  0.830800  0.679700  0.144500  1
  H  H410  1  0.330800  0.820300  0.855500  1
  H  H411  1  0.169200  0.320300  0.855500  1
  H  H412  1  0.669200  0.179700  0.144500  1
  H  H413  1  0.454000  0.367500  0.158500  1
  H  H414  1  0.954000  0.132500  0.841500  1
  H  H415  1  0.546000  0.632500  0.841500  1
  H  H416  1  0.046000  0.867500  0.158500  1
  H  H417  1  0.646100  0.722500  0.061600  1
  H  H418  1  0.146100  0.777500  0.938400  1
  H  H419  1  0.353900  0.277500  0.938400  1
  H  H420  1  0.853900  0.222500  0.061600  1
  H  H421  1  0.726800  0.670200  0.039300  1
  H  H422  1  0.226800  0.829800  0.960700  1
  H  H423  1  0.273200  0.329800  0.960700  1
  H  H424  1  0.773200  0.170200  0.039300  1
  H  H425  1  0.819300  0.649700  0.081700  1
  H  H426  1  0.319300  0.850300  0.918300  1
  H  H427  1  0.180700  0.350300  0.918300  1
  H  H428  1  0.680700  0.149700  0.081700  1
  H  H429  1  0.454500  0.350600  0.224400  1
  H  H430  1  0.954500  0.149400  0.775600  1
  H  H431  1  0.545500  0.649400  0.775600  1
  H  H432  1  0.045500  0.850600  0.224400  1
  H  H433  1  0.618500  0.373400  0.134900  1
  H  H434  1  0.118500  0.126600  0.865100  1
  H  H435  1  0.381500  0.626600  0.865100  1
  H  H436  1  0.881500  0.873400  0.134900  1
  H  H437  1  0.287000  0.593000  0.084200  1
  H  H438  1  0.787000  0.907000  0.915800  1
  H  H439  1  0.713000  0.407000  0.915800  1
  H  H440  1  0.213000  0.093000  0.084200  1
  H  H441  1  0.510800  0.732500  0.134900  1
  H  H442  1  0.010800  0.767500  0.865100  1
  H  H443  1  0.489200  0.267500  0.865100  1
  H  H444  1  0.989200  0.232500  0.134900  1
  H  H445  1  0.923800  0.593500  0.118800  1
  H  H446  1  0.423800  0.906500  0.881200  1
  H  H447  1  0.076200  0.406500  0.881200  1
  H  H448  1  0.576200  0.093500  0.118800  1
  H  H449  1  0.518400  0.363600  0.349900  1
  H  H450  1  0.018400  0.136400  0.650100  1
  H  H451  1  0.481600  0.636400  0.650100  1
  H  H452  1  0.981600  0.863600  0.349900  1
  H  H453  1  0.364800  0.834600  0.222600  1
  H  H454  1  0.864800  0.665400  0.777400  1
  H  H455  1  0.635200  0.165400  0.777400  1
  H  H456  1  0.135200  0.334600  0.222600  1
  H  H457  1  0.828100  0.790800  0.331700  1
  H  H458  1  0.328100  0.709200  0.668300  1
  H  H459  1  0.171900  0.209200  0.668300  1
  H  H460  1  0.671900  0.290800  0.331700  1
  H  H461  1  0.174400  0.522000  0.068200  1
  H  H462  1  0.674400  0.978000  0.931800  1
  H  H463  1  0.825600  0.478000  0.931800  1
  H  H464  1  0.325600  0.022000  0.068200  1
  H  H465  1  0.183700  0.796400  0.177100  1
  H  H466  1  0.683700  0.703600  0.822900  1
  H  H467  1  0.816300  0.203600  0.822900  1
  H  H468  1  0.316300  0.296400  0.177100  1
  H  H469  1  0.278300  0.422900  0.245300  1
  H  H470  1  0.778300  0.077100  0.754700  1
  H  H471  1  0.721700  0.577100  0.754700  1
  H  H472  1  0.221700  0.922900  0.245300  1
  H  H473  1  0.377100  0.563300  0.045800  1
  H  H474  1  0.877100  0.936700  0.954200  1
  H  H475  1  0.622900  0.436700  0.954200  1
  H  H476  1  0.122900  0.063300  0.045800  1
  H  H477  1  0.534500  0.324000  0.290800  1
  H  H478  1  0.034500  0.176000  0.709200  1
  H  H479  1  0.465500  0.676000  0.709200  1
  H  H480  1  0.965500  0.824000  0.290800  1
  H  H481  1  0.354800  0.453100  0.049400  1
  H  H482  1  0.854800  0.046900  0.950600  1
  H  H483  1  0.645200  0.546900  0.950600  1
  H  H484  1  0.145200  0.953100  0.049400  1
  H  H485  1  0.811200  0.462700  0.172000  1
  H  H486  1  0.311200  0.037300  0.828000  1
  H  H487  1  0.188800  0.537300  0.828000  1
  H  H488  1  0.688800  0.962700  0.172000  1
  H  H489  1  0.280900  0.839200  0.159800  1
  H  H490  1  0.780900  0.660800  0.840200  1
  H  H491  1  0.719100  0.160800  0.840200  1
  H  H492  1  0.219100  0.339200  0.159800  1
  H  H493  1  0.267200  0.499600  0.026600  1
  H  H494  1  0.767200  0.000400  0.973400  1
  H  H495  1  0.732800  0.500400  0.973400  1
  H  H496  1  0.232800  0.999600  0.026600  1
  H  H497  1  0.370000  0.381600  0.269000  1
  H  H498  1  0.870000  0.118400  0.731000  1
  H  H499  1  0.630000  0.618400  0.731000  1
  H  H500  1  0.130000  0.881600  0.269000  1
  H  H501  1  0.482500  0.680400  0.052900  1
  H  H502  1  0.982500  0.819600  0.947100  1
  H  H503  1  0.517500  0.319600  0.947100  1
  H  H504  1  0.017500  0.180400  0.052900  1
  H  H505  1  0.496300  0.335200  0.031600  1
  H  H506  1  0.996300  0.164800  0.968400  1
  H  H507  1  0.503700  0.664800  0.968400  1
  H  H508  1  0.003700  0.835200  0.031600  1
  H  H509  1  0.477200  0.607800  0.031100  1
  H  H510  1  0.977200  0.892200  0.968900  1
  H  H511  1  0.522800  0.392200  0.968900  1
  H  H512  1  0.022800  0.107800  0.031100  1
  H  H513  1  0.371600  0.790300  0.975000  1
  H  H514  1  0.871600  0.709700  0.025000  1
  H  H515  1  0.628400  0.209700  0.025000  1
  H  H516  1  0.128400  0.290300  0.975000  1
  H  H517  1  0.454400  0.797100  0.982200  1
  H  H518  1  0.954400  0.702900  0.017800  1
  H  H519  1  0.545600  0.202900  0.017800  1
  H  H520  1  0.045600  0.297100  0.982200  1
  H  H521  1  0.428000  0.861200  0.021500  1
  H  H522  1  0.928000  0.638800  0.978500  1
  H  H523  1  0.572000  0.138800  0.978500  1
  H  H524  1  0.072000  0.361200  0.021500  1
  H  H525  1  0.406300  0.864300  0.975400  1
  H  H526  1  0.906300  0.635700  0.024600  1
  H  H527  1  0.593700  0.135700  0.024600  1
  H  H528  1  0.093700  0.364300  0.975400  1
  H  H529  1  0.261400  0.904500  0.025500  1
  H  H530  1  0.761400  0.595500  0.974500  1
  H  H531  1  0.738600  0.095500  0.974500  1
  H  H532  1  0.238600  0.404500  0.025500  1
  H  H533  1  0.321000  0.916100  0.993800  1
  H  H534  1  0.821000  0.583900  0.006200  1
  H  H535  1  0.679000  0.083900  0.006200  1
  H  H536  1  0.179000  0.416100  0.993800  1
  H  H537  1  0.341100  0.912400  0.039900  1
  H  H538  1  0.841100  0.587600  0.960100  1
  H  H539  1  0.658900  0.087600  0.960100  1
  H  H540  1  0.158900  0.412400  0.039900  1
  H  H541  1  0.589500  0.873700  0.091900  1
  H  H542  1  0.089500  0.626300  0.908100  1
  H  H543  1  0.410500  0.126300  0.908100  1
  H  H544  1  0.910500  0.373700  0.091900  1
  H  H545  1  0.661600  0.861200  0.112800  1
  H  H546  1  0.161600  0.638800  0.887200  1
  H  H547  1  0.338400  0.138800  0.887200  1
  H  H548  1  0.838400  0.361200  0.112800  1
  H  H549  1  0.722800  0.899400  0.075400  1
  H  H550  1  0.222800  0.600600  0.924600  1
  H  H551  1  0.277200  0.100600  0.924600  1
  H  H552  1  0.777200  0.399400  0.075400  1
  H  H553  1  0.653700  0.928300  0.084100  1
  H  H554  1  0.153700  0.571700  0.915900  1
  H  H555  1  0.346300  0.071700  0.915900  1
  H  H556  1  0.846300  0.428300  0.084100  1
  H  H557  1  0.714000  0.935300  0.987900  1
  H  H558  1  0.214000  0.564700  0.012100  1
  H  H559  1  0.286000  0.064700  0.012100  1
  H  H560  1  0.786000  0.435300  0.987900  1
  H  H561  1  0.763200  0.914500  0.021100  1
  H  H562  1  0.263200  0.585500  0.978900  1
  H  H563  1  0.236800  0.085500  0.978900  1
  H  H564  1  0.736800  0.414500  0.021100  1
  H  H565  1  0.719600  0.958700  0.031500  1
  H  H566  1  0.219600  0.541300  0.968500  1
  H  H567  1  0.280400  0.041300  0.968500  1
  H  H568  1  0.780400  0.458700  0.031500  1
  H  H569  1  0.409500  0.292500  0.073900  1
  H  H570  1  0.909500  0.207500  0.926100  1
  H  H571  1  0.590500  0.707500  0.926100  1
  H  H572  1  0.090500  0.792500  0.073900  1
  H  H573  1  0.406200  0.300000  0.026600  1
  H  H574  1  0.906200  0.200000  0.973400  1
  H  H575  1  0.593800  0.700000  0.973400  1
  H  H576  1  0.093800  0.800000  0.026600  1
  H  H577  1  0.289300  0.280300  0.077500  1
  H  H578  1  0.789300  0.219700  0.922500  1
  H  H579  1  0.710700  0.719700  0.922500  1
  H  H580  1  0.210700  0.780300  0.077500  1
  H  H581  1  0.274500  0.305800  0.036400  1
  H  H582  1  0.774500  0.194200  0.963600  1
  H  H583  1  0.725500  0.694200  0.963600  1
  H  H584  1  0.225500  0.805800  0.036400  1
  H  H585  1  0.295700  0.198500  0.999400  1
  H  H586  1  0.795700  0.301500  0.000600  1
  H  H587  1  0.704300  0.801500  0.000600  1
  H  H588  1  0.204300  0.698500  0.999400  1
  H  H589  1  0.246500  0.241300  0.998100  1
  H  H590  1  0.746500  0.258700  0.001900  1
  H  H591  1  0.753500  0.758700  0.001900  1
  H  H592  1  0.253500  0.741300  0.998100  1
  H  H593  1  0.250900  0.214200  0.037900  1
  H  H594  1  0.750900  0.285800  0.962100  1
  H  H595  1  0.749100  0.785800  0.962100  1
  H  H596  1  0.249100  0.714200  0.037900  1
  H  H597  1  0.677700  0.321300  0.016900  1
  H  H598  1  0.177700  0.178700  0.983100  1
  H  H599  1  0.322300  0.678700  0.983100  1
  H  H600  1  0.822300  0.821300  0.016900  1
  H  H601  1  0.596400  0.309300  0.023300  1
  H  H602  1  0.096400  0.190700  0.976700  1
  H  H603  1  0.403600  0.690700  0.976700  1
  H  H604  1  0.903600  0.809300  0.023300  1
  H  H605  1  0.674100  0.271500  0.066000  1
  H  H606  1  0.174100  0.228500  0.934000  1
  H  H607  1  0.325900  0.728500  0.934000  1
  H  H608  1  0.825900  0.771500  0.066000  1
  H  H609  1  0.692800  0.318500  0.087800  1
  H  H610  1  0.192800  0.181500  0.912200  1
  H  H611  1  0.307200  0.681500  0.912200  1
  H  H612  1  0.807200  0.818500  0.087800  1
  H  H613  1  0.538500  0.276200  0.137100  1
  H  H614  1  0.038500  0.223800  0.862900  1
  H  H615  1  0.461500  0.723800  0.862900  1
  H  H616  1  0.961500  0.776200  0.137100  1
  H  H617  1  0.621100  0.281000  0.146100  1
  H  H618  1  0.121100  0.219000  0.853900  1
  H  H619  1  0.378900  0.719000  0.853900  1
  H  H620  1  0.878900  0.781000  0.146100  1
  H  H621  1  0.593300  0.242300  0.116100  1
  H  H622  1  0.093300  0.257700  0.883900  1
  H  H623  1  0.406700  0.757700  0.883900  1
  H  H624  1  0.906700  0.742300  0.116100  1
  H  H625  1  0.275400  0.369200  0.497100  1
  H  H626  1  0.775400  0.130800  0.502900  1
  H  H627  1  0.724600  0.630800  0.502900  1
  H  H628  1  0.224600  0.869200  0.497100  1
  H  H629  1  0.356300  0.354600  0.497800  1
  H  H630  1  0.856300  0.145400  0.502200  1
  H  H631  1  0.643700  0.645400  0.502200  1
  H  H632  1  0.143700  0.854600  0.497800  1
  H  H633  1  0.270300  0.308100  0.461100  1
  H  H634  1  0.770300  0.191900  0.538900  1
  H  H635  1  0.729700  0.691900  0.538900  1
  H  H636  1  0.229700  0.808100  0.461100  1
  H  H637  1  0.278800  0.342900  0.427000  1
  H  H638  1  0.778800  0.157100  0.573000  1
  H  H639  1  0.721200  0.657100  0.573000  1
  H  H640  1  0.221200  0.842900  0.427000  1
  H  H641  1  0.429200  0.259400  0.449300  1
  H  H642  1  0.929200  0.240600  0.550700  1
  H  H643  1  0.570800  0.740600  0.550700  1
  H  H644  1  0.070800  0.759400  0.449300  1
  H  H645  1  0.351000  0.253000  0.466100  1
  H  H646  1  0.851000  0.247000  0.533900  1
  H  H647  1  0.649000  0.747000  0.533900  1
  H  H648  1  0.149000  0.753000  0.466100  1
  H  H649  1  0.401500  0.289800  0.486300  1
  H  H650  1  0.901500  0.210200  0.513700  1
  H  H651  1  0.598500  0.710200  0.513700  1
  H  H652  1  0.098500  0.789800  0.486300  1
  H  H653  1  0.534100  0.305100  0.445000  1
  H  H654  1  0.034100  0.194900  0.555000  1
  H  H655  1  0.465900  0.694900  0.555000  1
  H  H656  1  0.965900  0.805100  0.445000  1
  H  H657  1  0.565200  0.329700  0.484700  1
  H  H658  1  0.065200  0.170300  0.515300  1
  H  H659  1  0.434800  0.670300  0.515300  1
  H  H660  1  0.934800  0.829700  0.484700  1
  H  H661  1  0.646100  0.288000  0.422100  1
  H  H662  1  0.146100  0.212000  0.577900  1
  H  H663  1  0.353900  0.712000  0.577900  1
  H  H664  1  0.853900  0.788000  0.422100  1
  H  H665  1  0.681500  0.318400  0.457200  1
  H  H666  1  0.181500  0.181600  0.542800  1
  H  H667  1  0.318500  0.681600  0.542800  1
  H  H668  1  0.818500  0.818400  0.457200  1
  H  H669  1  0.697200  0.211700  0.488800  1
  H  H670  1  0.197200  0.288300  0.511200  1
  H  H671  1  0.302800  0.788300  0.511200  1
  H  H672  1  0.802800  0.711700  0.488800  1
  H  H673  1  0.741700  0.254000  0.477000  1
  H  H674  1  0.241700  0.246000  0.523000  1
  H  H675  1  0.258300  0.746000  0.523000  1
  H  H676  1  0.758300  0.754000  0.477000  1
  H  H677  1  0.702000  0.224700  0.443100  1
  H  H678  1  0.202000  0.275300  0.556900  1
  H  H679  1  0.298000  0.775300  0.556900  1
  H  H680  1  0.798000  0.724700  0.443100  1
  H  H681  1  0.310400  0.898700  0.415900  1
  H  H682  1  0.810400  0.601300  0.584100  1
  H  H683  1  0.689600  0.101300  0.584100  1
  H  H684  1  0.189600  0.398700  0.415900  1
  H  H685  1  0.370800  0.881100  0.385900  1
  H  H686  1  0.870800  0.618900  0.614100  1
  H  H687  1  0.629200  0.118900  0.614100  1
  H  H688  1  0.129200  0.381100  0.385900  1
  H  H689  1  0.454700  0.916000  0.424500  1
  H  H690  1  0.954700  0.584000  0.575500  1
  H  H691  1  0.545300  0.084000  0.575500  1
  H  H692  1  0.045300  0.416000  0.424500  1
  H  H693  1  0.396900  0.950200  0.409800  1
  H  H694  1  0.896900  0.549800  0.590200  1
  H  H695  1  0.603100  0.049800  0.590200  1
  H  H696  1  0.103100  0.450200  0.409800  1
  H  H697  1  0.336100  0.978700  0.503400  1
  H  H698  1  0.836100  0.521300  0.496600  1
  H  H699  1  0.663900  0.021300  0.496600  1
  H  H700  1  0.163900  0.478700  0.503400  1
  H  H701  1  0.294700  0.960200  0.464500  1
  H  H702  1  0.794700  0.539800  0.535500  1
  H  H703  1  0.705300  0.039800  0.535500  1
  H  H704  1  0.205300  0.460200  0.464500  1
  H  H705  1  0.352300  0.998400  0.460800  1
  H  H706  1  0.852300  0.501600  0.539200  1
  H  H707  1  0.647700  0.001600  0.539200  1
  H  H708  1  0.147700  0.498400  0.460800  1
  H  H709  1  0.649200  0.830700  0.517100  1
  H  H710  1  0.149200  0.669300  0.482900  1
  H  H711  1  0.350800  0.169300  0.482900  1
  H  H712  1  0.850800  0.330700  0.517100  1
  H  H713  1  0.569200  0.846200  0.511600  1
  H  H714  1  0.069200  0.653800  0.488400  1
  H  H715  1  0.430800  0.153800  0.488400  1
  H  H716  1  0.930800  0.346200  0.511600  1
  H  H717  1  0.604300  0.885300  0.455500  1
  H  H718  1  0.104300  0.614700  0.544500  1
  H  H719  1  0.395700  0.114700  0.544500  1
  H  H720  1  0.895700  0.385300  0.455500  1
  H  H721  1  0.641800  0.903500  0.495900  1
  H  H722  1  0.141800  0.596500  0.504100  1
  H  H723  1  0.358200  0.096500  0.504100  1
  H  H724  1  0.858200  0.403500  0.495900  1
  H  H725  1  0.776400  0.892400  0.424300  1
  H  H726  1  0.276400  0.607600  0.575700  1
  H  H727  1  0.223600  0.107600  0.575700  1
  H  H728  1  0.723600  0.392400  0.424300  1
  H  H729  1  0.735300  0.929000  0.451200  1
  H  H730  1  0.235300  0.571000  0.548800  1
  H  H731  1  0.264700  0.071000  0.548800  1
  H  H732  1  0.764700  0.429000  0.451200  1
  H  H733  1  0.697100  0.905400  0.413400  1
  H  H734  1  0.197100  0.594600  0.586600  1
  H  H735  1  0.302900  0.094600  0.586600  1
  H  H736  1  0.802900  0.405400  0.413400  1
  H  H737  1  0.896900  0.641700  0.463900  1
  H  H738  1  0.396900  0.858300  0.536100  1
  H  H739  1  0.103100  0.358300  0.536100  1
  H  H740  1  0.603100  0.141700  0.463900  1
  H  H741  1  0.885500  0.609000  0.499500  1
  H  H742  1  0.385500  0.891000  0.500500  1
  H  H743  1  0.114500  0.391000  0.500500  1
  H  H744  1  0.614500  0.109000  0.499500  1
  H  H745  1  0.863300  0.593900  0.454900  1
  H  H746  1  0.363300  0.906100  0.545100  1
  H  H747  1  0.136700  0.406100  0.545100  1
  H  H748  1  0.636700  0.093900  0.454900  1
  H  H749  1  0.964600  0.582400  0.441600  1
  H  H750  1  0.464600  0.917600  0.558400  1
  H  H751  1  0.035400  0.417600  0.558400  1
  H  H752  1  0.535400  0.082400  0.441600  1
  H  H753  1  0.452200  0.920100  0.105900  1
  H  H754  1  0.952200  0.579900  0.894100  1
  H  H755  1  0.547800  0.079900  0.894100  1
  H  H756  1  0.047800  0.420100  0.105900  1
  H  H757  1  0.377500  0.903000  0.121200  1
  H  H758  1  0.877500  0.597000  0.878800  1
  H  H759  1  0.622500  0.097000  0.878800  1
  H  H760  1  0.122500  0.403000  0.121200  1
  H  H761  1  0.432100  0.868900  0.100500  1
  H  H762  1  0.932100  0.631100  0.899500  1
  H  H763  1  0.567900  0.131100  0.899500  1
  H  H764  1  0.067900  0.368900  0.100500  1
  H  H765  1  0.482600  0.865800  0.152400  1
  H  H766  1  0.982600  0.634200  0.847600  1
  H  H767  1  0.517400  0.134200  0.847600  1
  H  H768  1  0.017400  0.365800  0.152400  1
  H  H769  1  0.508100  0.009900  0.083000  1
  H  H770  1  0.008100  0.490100  0.917000  1
  H  H771  1  0.491900  0.990100  0.917000  1
  H  H772  1  0.991900  0.509900  0.083000  1
  H  H773  1  0.556500  0.982400  0.051800  1
  H  H774  1  0.056500  0.517600  0.948200  1
  H  H775  1  0.443500  0.017600  0.948200  1
  H  H776  1  0.943500  0.482400  0.051800  1
  H  H777  1  0.478300  0.996500  0.039500  1
  H  H778  1  0.978300  0.503500  0.960500  1
  H  H779  1  0.521700  0.003500  0.960500  1
  H  H780  1  0.021700  0.496500  0.039500  1
  H  H781  1  0.563300  0.059000  0.059900  1
  H  H782  1  0.063300  0.441000  0.940100  1
  H  H783  1  0.436700  0.941000  0.940100  1
  H  H784  1  0.936700  0.559000  0.059900  1
  Pd  Pd785  1  0.161630  0.603130  0.247204  1
  Pd  Pd786  1  0.661630  0.896870  0.752796  1
  Pd  Pd787  1  0.838370  0.396870  0.752796  1
  Pd  Pd788  1  0.338370  0.103130  0.247204  1
  Pd  Pd789  1  0.817290  0.588800  0.254346  1
  Pd  Pd790  1  0.317290  0.911200  0.745654  1
  Pd  Pd791  1  0.182710  0.411200  0.745654  1
  Pd  Pd792  1  0.682710  0.088800  0.254346  1
  C  C793  1  0.917100  0.133000  0.268900  1
  C  C794  1  0.417100  0.367000  0.731100  1
  C  C795  1  0.082900  0.867000  0.731100  1
  C  C796  1  0.582900  0.633000  0.268900  1
  C  C797  1  0.907600  0.114700  0.196400  1
  C  C798  1  0.407600  0.385300  0.803600  1
  C  C799  1  0.092400  0.885300  0.803600  1
  C  C800  1  0.592400  0.614700  0.196400  1
  C  C801  1  0.915100  0.101300  0.236600  1
  C  C802  1  0.415100  0.398700  0.763400  1
  C  C803  1  0.084900  0.898700  0.763400  1
  C  C804  1  0.584900  0.601300  0.236600  1
  C  C805  1  0.932200  0.042000  0.283500  1
  C  C806  1  0.432200  0.458000  0.716500  1
  C  C807  1  0.067800  0.958000  0.716500  1
  C  C808  1  0.567800  0.542000  0.283500  1
  C  C809  1  0.922200  0.055800  0.243300  1
  C  C810  1  0.422200  0.444200  0.756700  1
  C  C811  1  0.077800  0.944200  0.756700  1
  C  C812  1  0.577800  0.555800  0.243300  1
  C  C813  1  0.924200  0.117000  0.308500  1
  C  C814  1  0.424200  0.383000  0.691500  1
  C  C815  1  0.075800  0.883000  0.691500  1
  C  C816  1  0.575800  0.617000  0.308500  1
  C  C817  1  0.924200  0.024200  0.211300  1
  C  C818  1  0.424200  0.475800  0.788700  1
  C  C819  1  0.075800  0.975800  0.788700  1
  C  C820  1  0.575800  0.524200  0.211300  1
  C  C821  1  0.914800  0.178800  0.261200  1
  C  C822  1  0.414800  0.321200  0.738800  1
  C  C823  1  0.085200  0.821200  0.738800  1
  C  C824  1  0.585200  0.678800  0.261200  1
  C  C825  1  0.905900  0.160200  0.190500  1
  C  C826  1  0.405900  0.339800  0.809500  1
  C  C827  1  0.094100  0.839800  0.809500  1
  C  C828  1  0.594100  0.660200  0.190500  1
  C  C829  1  0.909700  0.190600  0.222500  1
  C  C830  1  0.409700  0.309400  0.777500  1
  C  C831  1  0.090300  0.809400  0.777500  1
  C  C832  1  0.590300  0.690600  0.222500  1
  C  C833  1  0.931100  0.073800  0.315000  1
  C  C834  1  0.431100  0.426200  0.685000  1
  C  C835  1  0.068900  0.926200  0.685000  1
  C  C836  1  0.568900  0.573800  0.315000  1
  C  C837  1  0.919000  0.212700  0.294600  1
  C  C838  1  0.419000  0.287300  0.705400  1
  C  C839  1  0.081000  0.787300  0.705400  1
  C  C840  1  0.581000  0.712700  0.294600  1
  C  C841  1  0.936400  0.979600  0.218900  1
  C  C842  1  0.436400  0.520400  0.781100  1
  C  C843  1  0.063600  0.020400  0.781100  1
  C  C844  1  0.563600  0.479600  0.218900  1
  C  C845  1  0.914800  0.038800  0.171600  1
  C  C846  1  0.414800  0.461200  0.828400  1
  C  C847  1  0.085200  0.961200  0.828400  1
  C  C848  1  0.585200  0.538800  0.171600  1
  C  C849  1  0.906800  0.082400  0.164600  1
  C  C850  1  0.406800  0.417600  0.835400  1
  C  C851  1  0.093200  0.917600  0.835400  1
  C  C852  1  0.593200  0.582400  0.164600  1
  C  C853  1  0.944300  0.996700  0.288800  1
  C  C854  1  0.444300  0.503300  0.711200  1
  C  C855  1  0.055700  0.003300  0.711200  1
  C  C856  1  0.555700  0.496700  0.288800  1
  C  C857  1  0.947300  0.967600  0.257900  1
  C  C858  1  0.447300  0.532400  0.742100  1
  C  C859  1  0.052700  0.032400  0.742100  1
  C  C860  1  0.552700  0.467600  0.257900  1
  C  C861  1  0.395700  0.571500  0.217500  1
  C  C862  1  0.895700  0.928500  0.782500  1
  C  C863  1  0.604300  0.428500  0.782500  1
  C  C864  1  0.104300  0.071500  0.217500  1
  C  C865  1  0.390500  0.607200  0.284700  1
  C  C866  1  0.890500  0.892800  0.715300  1
  C  C867  1  0.609500  0.392800  0.715300  1
  C  C868  1  0.109500  0.107200  0.284700  1
  C  C869  1  0.401900  0.652300  0.226300  1
  C  C870  1  0.901900  0.847700  0.773700  1
  C  C871  1  0.598100  0.347700  0.773700  1
  C  C872  1  0.098100  0.152300  0.226300  1
  C  C873  1  0.392900  0.646500  0.311800  1
  C  C874  1  0.892900  0.853500  0.688200  1
  C  C875  1  0.607100  0.353500  0.688200  1
  C  C876  1  0.107100  0.146500  0.311800  1
  C  C877  1  0.402000  0.690600  0.254300  1
  C  C878  1  0.902000  0.809400  0.745700  1
  C  C879  1  0.598000  0.309400  0.745700  1
  C  C880  1  0.098000  0.190600  0.254300  1
  C  C881  1  0.387900  0.530500  0.236000  1
  C  C882  1  0.887900  0.969500  0.764000  1
  C  C883  1  0.612100  0.469500  0.764000  1
  C  C884  1  0.112100  0.030500  0.236000  1
  C  C885  1  0.417100  0.616900  0.162200  1
  C  C886  1  0.917100  0.883100  0.837800  1
  C  C887  1  0.582900  0.383100  0.837800  1
  C  C888  1  0.082900  0.116900  0.162200  1
  C  C889  1  0.413400  0.657200  0.187500  1
  C  C890  1  0.913400  0.842800  0.812500  1
  C  C891  1  0.586600  0.342800  0.812500  1
  C  C892  1  0.086600  0.157200  0.187500  1
  C  C893  1  0.407500  0.576600  0.178100  1
  C  C894  1  0.907500  0.923400  0.821900  1
  C  C895  1  0.592500  0.423400  0.821900  1
  C  C896  1  0.092500  0.076600  0.178100  1
  C  C897  1  0.395000  0.610800  0.244400  1
  C  C898  1  0.895000  0.889200  0.755600  1
  C  C899  1  0.605000  0.389200  0.755600  1
  C  C900  1  0.105000  0.110800  0.244400  1
  C  C901  1  0.383400  0.525900  0.276500  1
  C  C902  1  0.883400  0.974100  0.723500  1
  C  C903  1  0.616600  0.474100  0.723500  1
  C  C904  1  0.116600  0.025900  0.276500  1
  C  C905  1  0.386400  0.565000  0.303200  1
  C  C906  1  0.886400  0.935000  0.696800  1
  C  C907  1  0.613600  0.435000  0.696800  1
  C  C908  1  0.113600  0.065000  0.303200  1
  C  C909  1  0.394300  0.641400  0.351800  1
  C  C910  1  0.894300  0.858600  0.648200  1
  C  C911  1  0.605700  0.358600  0.648200  1
  C  C912  1  0.105700  0.141400  0.351800  1
  C  C913  1  0.389300  0.561400  0.342500  1
  C  C914  1  0.889300  0.938600  0.657500  1
  C  C915  1  0.610700  0.438600  0.657500  1
  C  C916  1  0.110700  0.061400  0.342500  1
  C  C917  1  0.397900  0.687400  0.294400  1
  C  C918  1  0.897900  0.812600  0.705600  1
  C  C919  1  0.602100  0.312600  0.705600  1
  C  C920  1  0.102100  0.187400  0.294400  1
  C  C921  1  0.393700  0.599300  0.367400  1
  C  C922  1  0.893700  0.900700  0.632600  1
  C  C923  1  0.606300  0.400700  0.632600  1
  C  C924  1  0.106300  0.099300  0.367400  1
  C  C925  1  0.410200  0.535500  0.148800  1
  C  C926  1  0.910200  0.964500  0.851200  1
  C  C927  1  0.589800  0.464500  0.851200  1
  C  C928  1  0.089800  0.035500  0.148800  1
  C  C929  1  0.310800  0.757800  0.381600  1
  C  C930  1  0.810800  0.742200  0.618400  1
  C  C931  1  0.689200  0.242200  0.618400  1
  C  C932  1  0.189200  0.257800  0.381600  1
  C  C933  1  0.763900  0.632100  0.328600  1
  C  C934  1  0.263900  0.867900  0.671400  1
  C  C935  1  0.236100  0.367900  0.671400  1
  C  C936  1  0.736100  0.132100  0.328600  1
  C  C937  1  0.204500  0.691600  0.279500  1
  C  C938  1  0.704500  0.808400  0.720500  1
  C  C939  1  0.795500  0.308400  0.720500  1
  C  C940  1  0.295500  0.191600  0.279500  1
  C  C941  1  0.361800  0.801400  0.329700  1
  C  C942  1  0.861800  0.698600  0.670300  1
  C  C943  1  0.638200  0.198600  0.670300  1
  C  C944  1  0.138200  0.301400  0.329700  1
  C  C945  1  0.662400  0.416400  0.319900  1
  C  C946  1  0.162400  0.083600  0.680100  1
  C  C947  1  0.337600  0.583600  0.680100  1
  C  C948  1  0.837600  0.916400  0.319900  1
  C  C949  1  0.299900  0.457200  0.379600  1
  C  C950  1  0.799900  0.042800  0.620400  1
  C  C951  1  0.700100  0.542800  0.620400  1
  C  C952  1  0.200100  0.957200  0.379600  1
  C  C953  1  0.344800  0.472300  0.410600  1
  C  C954  1  0.844800  0.027700  0.589400  1
  C  C955  1  0.655200  0.527700  0.589400  1
  C  C956  1  0.155200  0.972300  0.410600  1
  C  C957  1  0.651500  0.818800  0.250700  1
  C  C958  1  0.151500  0.681200  0.749300  1
  C  C959  1  0.348500  0.181200  0.749300  1
  C  C960  1  0.848500  0.318800  0.250700  1
  C  C961  1  0.365400  0.407300  0.160600  1
  C  C962  1  0.865400  0.092700  0.839400  1
  C  C963  1  0.634600  0.592700  0.839400  1
  C  C964  1  0.134600  0.907300  0.160600  1
  C  C965  1  0.314400  0.739000  0.420200  1
  C  C966  1  0.814400  0.761000  0.579800  1
  C  C967  1  0.685600  0.261000  0.579800  1
  C  C968  1  0.185600  0.239000  0.420200  1
  C  C969  1  0.634800  0.487300  0.431000  1
  C  C970  1  0.134800  0.012700  0.569000  1
  C  C971  1  0.365200  0.512700  0.569000  1
  C  C972  1  0.865200  0.987300  0.431000  1
  C  C973  1  0.149700  0.760400  0.268400  1
  C  C974  1  0.649700  0.739600  0.731600  1
  C  C975  1  0.850300  0.239600  0.731600  1
  C  C976  1  0.350300  0.260400  0.268400  1
  C  C977  1  0.701500  0.472600  0.368500  1
  C  C978  1  0.201500  0.027400  0.631500  1
  C  C979  1  0.298500  0.527400  0.631500  1
  C  C980  1  0.798500  0.972600  0.368500  1
  C  C981  1  0.185200  0.558800  0.366200  1
  C  C982  1  0.685200  0.941200  0.633800  1
  C  C983  1  0.814800  0.441200  0.633800  1
  C  C984  1  0.314800  0.058800  0.366200  1
  C  C985  1  0.665100  0.754700  0.384800  1
  C  C986  1  0.165100  0.745300  0.615200  1
  C  C987  1  0.334900  0.245300  0.615200  1
  C  C988  1  0.834900  0.254700  0.384800  1
  C  C989  1  0.128000  0.578500  0.386600  1
  C  C990  1  0.628000  0.921500  0.613400  1
  C  C991  1  0.872000  0.421500  0.613400  1
  C  C992  1  0.372000  0.078500  0.386600  1
  C  C993  1  0.275600  0.719000  0.129300  1
  C  C994  1  0.775600  0.781000  0.870700  1
  C  C995  1  0.724400  0.281000  0.870700  1
  C  C996  1  0.224400  0.219000  0.129300  1
  C  C997  1  0.195000  0.569000  0.326500  1
  C  C998  1  0.695000  0.931000  0.673500  1
  C  C999  1  0.805000  0.431000  0.673500  1
  C  C1000  1  0.305000  0.069000  0.326500  1
  C  C1001  1  0.708400  0.450100  0.331700  1
  C  C1002  1  0.208400  0.049900  0.668300  1
  C  C1003  1  0.291600  0.549900  0.668300  1
  C  C1004  1  0.791600  0.950100  0.331700  1
  C  C1005  1  0.471200  0.450500  0.400300  1
  C  C1006  1  0.971200  0.049500  0.599700  1
  C  C1007  1  0.528800  0.549500  0.599700  1
  C  C1008  1  0.028800  0.950500  0.400300  1
  C  C1009  1  0.217200  0.645000  0.131200  1
  C  C1010  1  0.717200  0.855000  0.868800  1
  C  C1011  1  0.782800  0.355000  0.868800  1
  C  C1012  1  0.282800  0.145000  0.131200  1
  C  C1013  1  0.460000  0.383100  0.452700  1
  C  C1014  1  0.960000  0.116900  0.547300  1
  C  C1015  1  0.540000  0.616900  0.547300  1
  C  C1016  1  0.040000  0.883100  0.452700  1
  C  C1017  1  0.362500  0.786600  0.368900  1
  C  C1018  1  0.862500  0.713400  0.631100  1
  C  C1019  1  0.637500  0.213400  0.631100  1
  C  C1020  1  0.137500  0.286600  0.368900  1
  C  C1021  1  0.216000  0.636200  0.171300  1
  C  C1022  1  0.716000  0.863800  0.828700  1
  C  C1023  1  0.784000  0.363800  0.828700  1
  C  C1024  1  0.284000  0.136200  0.171300  1
  C  C1025  1  0.863300  0.497200  0.252000  1
  C  C1026  1  0.363300  0.002800  0.748000  1
  C  C1027  1  0.136700  0.502800  0.748000  1
  C  C1028  1  0.636700  0.997200  0.252000  1
  C  C1029  1  0.307900  0.415000  0.360400  1
  C  C1030  1  0.807900  0.085000  0.639600  1
  C  C1031  1  0.692100  0.585000  0.639600  1
  C  C1032  1  0.192100  0.915000  0.360400  1
  C  C1033  1  0.593900  0.430300  0.381400  1
  C  C1034  1  0.093900  0.069700  0.618600  1
  C  C1035  1  0.406100  0.569700  0.618600  1
  C  C1036  1  0.906100  0.930300  0.381400  1
  C  C1037  1  0.235700  0.528100  0.384400  1
  C  C1038  1  0.735700  0.971900  0.615600  1
  C  C1039  1  0.764300  0.471900  0.615600  1
  C  C1040  1  0.264300  0.028100  0.384400  1
  C  C1041  1  0.860700  0.587800  0.338400  1
  C  C1042  1  0.360700  0.912200  0.661600  1
  C  C1043  1  0.139300  0.412200  0.661600  1
  C  C1044  1  0.639300  0.087800  0.338400  1
  C  C1045  1  0.813700  0.629100  0.393300  1
  C  C1046  1  0.313700  0.870900  0.606700  1
  C  C1047  1  0.186300  0.370900  0.606700  1
  C  C1048  1  0.686300  0.129100  0.393300  1
  C  C1049  1  0.390500  0.726900  0.096200  1
  C  C1050  1  0.890500  0.773100  0.903800  1
  C  C1051  1  0.609500  0.273100  0.903800  1
  C  C1052  1  0.109500  0.226900  0.096200  1
  C  C1053  1  0.877400  0.591000  0.173400  1
  C  C1054  1  0.377400  0.909000  0.826600  1
  C  C1055  1  0.122600  0.409000  0.826600  1
  C  C1056  1  0.622600  0.091000  0.173400  1
  C  C1057  1  0.763000  0.646100  0.368400  1
  C  C1058  1  0.263000  0.853900  0.631600  1
  C  C1059  1  0.237000  0.353900  0.631600  1
  C  C1060  1  0.737000  0.146100  0.368400  1
  C  C1061  1  0.699700  0.771100  0.196600  1
  C  C1062  1  0.199700  0.728900  0.803400  1
  C  C1063  1  0.300300  0.228900  0.803400  1
  C  C1064  1  0.800300  0.271100  0.196600  1
  C  C1065  1  0.718000  0.722900  0.373600  1
  C  C1066  1  0.218000  0.777100  0.626400  1
  C  C1067  1  0.282000  0.277100  0.626400  1
  C  C1068  1  0.782000  0.222900  0.373600  1
  C  C1069  1  0.491300  0.430800  0.101300  1
  C  C1070  1  0.991300  0.069200  0.898700  1
  C  C1071  1  0.508700  0.569200  0.898700  1
  C  C1072  1  0.008700  0.930800  0.101300  1
  C  C1073  1  0.201700  0.736600  0.287400  1
  C  C1074  1  0.701700  0.763400  0.712600  1
  C  C1075  1  0.798300  0.263400  0.712600  1
  C  C1076  1  0.298300  0.236600  0.287400  1
  C  C1077  1  0.685400  0.515900  0.088200  1
  C  C1078  1  0.185400  0.984100  0.911800  1
  C  C1079  1  0.314600  0.484100  0.911800  1
  C  C1080  1  0.814600  0.015900  0.088200  1
  C  C1081  1  0.862600  0.599900  0.378500  1
  C  C1082  1  0.362600  0.900100  0.621500  1
  C  C1083  1  0.137400  0.400100  0.621500  1
  C  C1084  1  0.637400  0.099900  0.378500  1
  C  C1085  1  0.485600  0.770300  0.388300  1
  C  C1086  1  0.985600  0.729700  0.611700  1
  C  C1087  1  0.514400  0.229700  0.611700  1
  C  C1088  1  0.014400  0.270300  0.388300  1
  C  C1089  1  0.219400  0.740000  0.151500  1
  C  C1090  1  0.719400  0.760000  0.848500  1
  C  C1091  1  0.780600  0.260000  0.848500  1
  C  C1092  1  0.280600  0.240000  0.151500  1
  C  C1093  1  0.164800  0.627200  0.107600  1
  C  C1094  1  0.664800  0.872800  0.892400  1
  C  C1095  1  0.835200  0.372800  0.892400  1
  C  C1096  1  0.335200  0.127200  0.107600  1
  C  C1097  1  0.884600  0.676100  0.263300  1
  C  C1098  1  0.384600  0.823900  0.736700  1
  C  C1099  1  0.115400  0.323900  0.736700  1
  C  C1100  1  0.615400  0.176100  0.263300  1
  C  C1101  1  0.648300  0.665300  0.402200  1
  C  C1102  1  0.148300  0.834700  0.597800  1
  C  C1103  1  0.351700  0.334700  0.597800  1
  C  C1104  1  0.851700  0.165300  0.402200  1
  C  C1105  1  0.368300  0.569600  0.480500  1
  C  C1106  1  0.868300  0.930400  0.519500  1
  C  C1107  1  0.631700  0.430400  0.519500  1
  C  C1108  1  0.131700  0.069600  0.480500  1
  C  C1109  1  0.761300  0.507600  0.290200  1
  C  C1110  1  0.261300  0.992400  0.709800  1
  C  C1111  1  0.238700  0.492400  0.709800  1
  C  C1112  1  0.738700  0.007600  0.290200  1
  C  C1113  1  0.113600  0.600700  0.124000  1
  C  C1114  1  0.613600  0.899300  0.876000  1
  C  C1115  1  0.886400  0.399300  0.876000  1
  C  C1116  1  0.386400  0.100700  0.124000  1
  C  C1117  1  0.485600  0.829000  0.452700  1
  C  C1118  1  0.985600  0.671000  0.547300  1
  C  C1119  1  0.514400  0.171000  0.547300  1
  C  C1120  1  0.014400  0.329000  0.452700  1
  C  C1121  1  0.868500  0.454200  0.263600  1
  C  C1122  1  0.368500  0.045800  0.736400  1
  C  C1123  1  0.131500  0.545800  0.736400  1
  C  C1124  1  0.631500  0.954200  0.263600  1
  C  C1125  1  0.202600  0.714100  0.369900  1
  C  C1126  1  0.702600  0.785900  0.630100  1
  C  C1127  1  0.797400  0.285900  0.630100  1
  C  C1128  1  0.297400  0.214100  0.369900  1
  C  C1129  1  0.334100  0.513900  0.429700  1
  C  C1130  1  0.834100  0.986100  0.570300  1
  C  C1131  1  0.665900  0.486100  0.570300  1
  C  C1132  1  0.165900  0.013900  0.429700  1
  C  C1133  1  0.205500  0.472400  0.200300  1
  C  C1134  1  0.705500  0.027600  0.799700  1
  C  C1135  1  0.794500  0.527600  0.799700  1
  C  C1136  1  0.294500  0.972400  0.200300  1
  C  C1137  1  0.310700  0.798700  0.262000  1
  C  C1138  1  0.810700  0.701300  0.738000  1
  C  C1139  1  0.689300  0.201300  0.738000  1
  C  C1140  1  0.189300  0.298700  0.262000  1
  C  C1141  1  0.377900  0.529300  0.462000  1
  C  C1142  1  0.877900  0.970700  0.538000  1
  C  C1143  1  0.622100  0.470700  0.538000  1
  C  C1144  1  0.122100  0.029300  0.462000  1
  C  C1145  1  0.208700  0.516700  0.211500  1
  C  C1146  1  0.708700  0.983300  0.788500  1
  C  C1147  1  0.791300  0.483300  0.788500  1
  C  C1148  1  0.291300  0.016700  0.211500  1
  C  C1149  1  0.425100  0.795600  0.394500  1
  C  C1150  1  0.925100  0.704400  0.605500  1
  C  C1151  1  0.574900  0.204400  0.605500  1
  C  C1152  1  0.074900  0.295600  0.394500  1
  C  C1153  1  0.097900  0.614900  0.327400  1
  C  C1154  1  0.597900  0.885100  0.672600  1
  C  C1155  1  0.902100  0.385100  0.672600  1
  C  C1156  1  0.402100  0.114900  0.327400  1
  C  C1157  1  0.408000  0.444600  0.420500  1
  C  C1158  1  0.908000  0.055400  0.579500  1
  C  C1159  1  0.592000  0.555400  0.579500  1
  C  C1160  1  0.092000  0.944600  0.420500  1
  C  C1161  1  0.243000  0.485300  0.367200  1
  C  C1162  1  0.743000  0.014700  0.632800  1
  C  C1163  1  0.757000  0.514700  0.632800  1
  C  C1164  1  0.257000  0.985300  0.367200  1
  C  C1165  1  0.594300  0.816500  0.185800  1
  C  C1166  1  0.094300  0.683500  0.814200  1
  C  C1167  1  0.405700  0.183500  0.814200  1
  C  C1168  1  0.905700  0.316500  0.185800  1
  C  C1169  1  0.254500  0.756800  0.315500  1
  C  C1170  1  0.754500  0.743200  0.684500  1
  C  C1171  1  0.745500  0.243200  0.684500  1
  C  C1172  1  0.245500  0.256800  0.315500  1
  C  C1173  1  0.334300  0.745800  0.118600  1
  C  C1174  1  0.834300  0.754200  0.881400  1
  C  C1175  1  0.665700  0.254200  0.881400  1
  C  C1176  1  0.165700  0.245800  0.118600  1
  C  C1177  1  0.743600  0.720600  0.143700  1
  C  C1178  1  0.243600  0.779400  0.856300  1
  C  C1179  1  0.256400  0.279400  0.856300  1
  C  C1180  1  0.756400  0.220600  0.143700  1
  C  C1181  1  0.784000  0.533600  0.136500  1
  C  C1182  1  0.284000  0.966400  0.863500  1
  C  C1183  1  0.216000  0.466400  0.863500  1
  C  C1184  1  0.716000  0.033600  0.136500  1
  C  C1185  1  0.797200  0.718500  0.211500  1
  C  C1186  1  0.297200  0.781500  0.788500  1
  C  C1187  1  0.202800  0.281500  0.788500  1
  C  C1188  1  0.702800  0.218500  0.211500  1
  C  C1189  1  0.666300  0.433000  0.123300  1
  C  C1190  1  0.166300  0.067000  0.876700  1
  C  C1191  1  0.333700  0.567000  0.876700  1
  C  C1192  1  0.833700  0.933000  0.123300  1
  C  C1193  1  0.709000  0.678900  0.382200  1
  C  C1194  1  0.209000  0.821100  0.617800  1
  C  C1195  1  0.291000  0.321100  0.617800  1
  C  C1196  1  0.791000  0.178900  0.382200  1
  C  C1197  1  0.763700  0.465300  0.303400  1
  C  C1198  1  0.263700  0.034700  0.696600  1
  C  C1199  1  0.236300  0.534700  0.696600  1
  C  C1200  1  0.736300  0.965300  0.303400  1
  C  C1201  1  0.544200  0.772800  0.413000  1
  C  C1202  1  0.044200  0.727200  0.587000  1
  C  C1203  1  0.455800  0.227200  0.587000  1
  C  C1204  1  0.955800  0.272800  0.413000  1
  C  C1205  1  0.667900  0.391500  0.282500  1
  C  C1206  1  0.167900  0.108500  0.717500  1
  C  C1207  1  0.332100  0.608500  0.717500  1
  C  C1208  1  0.832100  0.891500  0.282500  1
  C  C1209  1  0.786800  0.674800  0.220700  1
  C  C1210  1  0.286800  0.825200  0.779300  1
  C  C1211  1  0.213200  0.325200  0.779300  1
  C  C1212  1  0.713200  0.174800  0.220700  1
  C  C1213  1  0.521700  0.389400  0.431800  1
  C  C1214  1  0.021700  0.110600  0.568200  1
  C  C1215  1  0.478300  0.610600  0.568200  1
  C  C1216  1  0.978300  0.889400  0.431800  1
  C  C1217  1  0.543100  0.802700  0.445700  1
  C  C1218  1  0.043100  0.697300  0.554300  1
  C  C1219  1  0.456900  0.197300  0.554300  1
  C  C1220  1  0.956900  0.302700  0.445700  1
  C  C1221  1  0.402400  0.410300  0.446400  1
  C  C1222  1  0.902400  0.089700  0.553600  1
  C  C1223  1  0.597600  0.589700  0.553600  1
  C  C1224  1  0.097600  0.910300  0.446400  1
  C  C1225  1  0.194600  0.467300  0.337800  1
  C  C1226  1  0.694600  0.032700  0.662200  1
  C  C1227  1  0.805400  0.532700  0.662200  1
  C  C1228  1  0.305400  0.967300  0.337800  1
  C  C1229  1  0.685700  0.516400  0.444100  1
  C  C1230  1  0.185700  0.983600  0.555900  1
  C  C1231  1  0.314300  0.483600  0.555900  1
  C  C1232  1  0.814300  0.016400  0.444100  1
  C  C1233  1  0.115400  0.593600  0.164100  1
  C  C1234  1  0.615400  0.906400  0.835900  1
  C  C1235  1  0.884600  0.406400  0.835900  1
  C  C1236  1  0.384600  0.093600  0.164100  1
  C  C1237  1  0.819800  0.438500  0.289600  1
  C  C1238  1  0.319800  0.061500  0.710400  1
  C  C1239  1  0.180200  0.561500  0.710400  1
  C  C1240  1  0.680200  0.938500  0.289600  1
  C  C1241  1  0.638700  0.765900  0.132200  1
  C  C1242  1  0.138700  0.734100  0.867800  1
  C  C1243  1  0.361300  0.234100  0.867800  1
  C  C1244  1  0.861300  0.265900  0.132200  1
  C  C1245  1  0.745400  0.523900  0.420500  1
  C  C1246  1  0.245400  0.976100  0.579500  1
  C  C1247  1  0.254600  0.476100  0.579500  1
  C  C1248  1  0.754600  0.023900  0.420500  1
  C  C1249  1  0.645000  0.569200  0.041500  1
  C  C1250  1  0.145000  0.930800  0.958500  1
  C  C1251  1  0.355000  0.430800  0.958500  1
  C  C1252  1  0.855000  0.069200  0.041500  1
  C  C1253  1  0.635300  0.619700  0.409800  1
  C  C1254  1  0.135300  0.880300  0.590200  1
  C  C1255  1  0.364700  0.380300  0.590200  1
  C  C1256  1  0.864700  0.119700  0.409800  1
  C  C1257  1  0.731700  0.503300  0.119300  1
  C  C1258  1  0.231700  0.996700  0.880700  1
  C  C1259  1  0.268300  0.496700  0.880700  1
  C  C1260  1  0.768300  0.003300  0.119300  1
  C  C1261  1  0.306400  0.785800  0.302500  1
  C  C1262  1  0.806400  0.714200  0.697500  1
  C  C1263  1  0.693600  0.214200  0.697500  1
  C  C1264  1  0.193600  0.285800  0.302500  1
  C  C1265  1  0.778000  0.547600  0.176300  1
  C  C1266  1  0.278000  0.952400  0.823700  1
  C  C1267  1  0.222000  0.452400  0.823700  1
  C  C1268  1  0.722000  0.047600  0.176300  1
  C  C1269  1  0.414800  0.829500  0.315500  1
  C  C1270  1  0.914800  0.670500  0.684500  1
  C  C1271  1  0.585200  0.170500  0.684500  1
  C  C1272  1  0.085200  0.329500  0.315500  1
  C  C1273  1  0.255400  0.742900  0.355400  1
  C  C1274  1  0.755400  0.757100  0.644600  1
  C  C1275  1  0.744600  0.257100  0.644600  1
  C  C1276  1  0.244600  0.242900  0.355400  1
  C  C1277  1  0.523900  0.638800  0.440300  1
  C  C1278  1  0.023900  0.861200  0.559700  1
  C  C1279  1  0.476100  0.361200  0.559700  1
  C  C1280  1  0.976100  0.138800  0.440300  1
  C  C1281  1  0.314500  0.597500  0.467700  1
  C  C1282  1  0.814500  0.902500  0.532300  1
  C  C1283  1  0.685500  0.402500  0.532300  1
  C  C1284  1  0.185500  0.097500  0.467700  1
  C  C1285  1  0.259200  0.463500  0.132300  1
  C  C1286  1  0.759200  0.036500  0.867700  1
  C  C1287  1  0.740800  0.536500  0.867700  1
  C  C1288  1  0.240800  0.963500  0.132300  1
  C  C1289  1  0.261500  0.399200  0.332600  1
  C  C1290  1  0.761500  0.100800  0.667400  1
  C  C1291  1  0.738500  0.600800  0.667400  1
  C  C1292  1  0.238500  0.899200  0.332600  1
  C  C1293  1  0.533100  0.681800  0.433400  1
  C  C1294  1  0.033100  0.818200  0.566600  1
  C  C1295  1  0.466900  0.318200  0.566600  1
  C  C1296  1  0.966900  0.181800  0.433400  1
  C  C1297  1  0.152000  0.447100  0.216400  1
  C  C1298  1  0.652000  0.052900  0.783600  1
  C  C1299  1  0.848000  0.552900  0.783600  1
  C  C1300  1  0.348000  0.947100  0.216400  1
  C  C1301  1  0.687300  0.734200  0.117600  1
  C  C1302  1  0.187300  0.765800  0.882400  1
  C  C1303  1  0.312700  0.265800  0.882400  1
  C  C1304  1  0.812700  0.234200  0.117600  1
  C  C1305  1  0.585000  0.500400  0.043100  1
  C  C1306  1  0.085000  0.999600  0.956900  1
  C  C1307  1  0.415000  0.499600  0.956900  1
  C  C1308  1  0.915000  0.000400  0.043100  1
  C  C1309  1  0.263500  0.710000  0.432200  1
  C  C1310  1  0.763500  0.790000  0.567800  1
  C  C1311  1  0.736500  0.290000  0.567800  1
  C  C1312  1  0.236500  0.210000  0.432200  1
  C  C1313  1  0.752900  0.503000  0.384100  1
  C  C1314  1  0.252900  0.997000  0.615900  1
  C  C1315  1  0.247100  0.497000  0.615900  1
  C  C1316  1  0.747100  0.003000  0.384100  1
  C  C1317  1  0.723500  0.461200  0.135400  1
  C  C1318  1  0.223500  0.038800  0.864600  1
  C  C1319  1  0.276500  0.538800  0.864600  1
  C  C1320  1  0.776500  0.961200  0.135400  1
  C  C1321  1  0.779900  0.738500  0.353000  1
  C  C1322  1  0.279900  0.761500  0.647000  1
  C  C1323  1  0.220100  0.261500  0.647000  1
  C  C1324  1  0.720100  0.238500  0.353000  1
  C  C1325  1  0.705500  0.378900  0.169200  1
  C  C1326  1  0.205500  0.121100  0.830800  1
  C  C1327  1  0.294500  0.621100  0.830800  1
  C  C1328  1  0.794500  0.878900  0.169200  1
  C  C1329  1  0.455000  0.753800  0.088100  1
  C  C1330  1  0.955000  0.746200  0.911900  1
  C  C1331  1  0.545000  0.246200  0.911900  1
  C  C1332  1  0.045000  0.253800  0.088100  1
  C  C1333  1  0.896300  0.719900  0.255900  1
  C  C1334  1  0.396300  0.780100  0.744100  1
  C  C1335  1  0.103700  0.280100  0.744100  1
  C  C1336  1  0.603700  0.219900  0.255900  1
  C  C1337  1  0.102800  0.737700  0.243200  1
  C  C1338  1  0.602800  0.762300  0.756800  1
  C  C1339  1  0.897200  0.262300  0.756800  1
  C  C1340  1  0.397200  0.237700  0.243200  1
  C  C1341  1  0.315200  0.447700  0.106400  1
  C  C1342  1  0.815200  0.052300  0.893600  1
  C  C1343  1  0.684800  0.552300  0.893600  1
  C  C1344  1  0.184800  0.947700  0.106400  1
  C  C1345  1  0.674900  0.799800  0.374300  1
  C  C1346  1  0.174900  0.700200  0.625700  1
  C  C1347  1  0.325100  0.200200  0.625700  1
  C  C1348  1  0.825100  0.299800  0.374300  1
  C  C1349  1  0.085100  0.607300  0.366700  1
  C  C1350  1  0.585100  0.892700  0.633300  1
  C  C1351  1  0.914900  0.392700  0.633300  1
  C  C1352  1  0.414900  0.107300  0.366700  1
  C  C1353  1  0.642200  0.463200  0.393600  1
  C  C1354  1  0.142200  0.036800  0.606400  1
  C  C1355  1  0.357800  0.536800  0.606400  1
  C  C1356  1  0.857800  0.963200  0.393600  1
  C  C1357  1  0.259600  0.452200  0.172500  1
  C  C1358  1  0.759600  0.047800  0.827500  1
  C  C1359  1  0.740400  0.547800  0.827500  1
  C  C1360  1  0.240400  0.952200  0.172500  1
  C  C1361  1  0.840800  0.550100  0.115200  1
  C  C1362  1  0.340800  0.949900  0.884800  1
  C  C1363  1  0.159200  0.449900  0.884800  1
  C  C1364  1  0.659200  0.050100  0.115200  1
  C  C1365  1  0.311400  0.423300  0.186600  1
  C  C1366  1  0.811400  0.076700  0.813400  1
  C  C1367  1  0.688600  0.576700  0.813400  1
  C  C1368  1  0.188600  0.923300  0.186600  1
  C  C1369  1  0.604100  0.405300  0.345500  1
  C  C1370  1  0.104100  0.094700  0.654500  1
  C  C1371  1  0.395900  0.594700  0.654500  1
  C  C1372  1  0.895900  0.905300  0.345500  1
  C  C1373  1  0.273800  0.674300  0.117000  1
  C  C1374  1  0.773800  0.825700  0.883000  1
  C  C1375  1  0.726200  0.325700  0.883000  1
  C  C1376  1  0.226200  0.174300  0.117000  1
  C  C1377  1  0.690100  0.557900  0.070800  1
  C  C1378  1  0.190100  0.942100  0.929200  1
  C  C1379  1  0.309900  0.442100  0.929200  1
  C  C1380  1  0.809900  0.057900  0.070800  1
  C  C1381  1  0.603700  0.741100  0.404800  1
  C  C1382  1  0.103700  0.758900  0.595200  1
  C  C1383  1  0.396300  0.258900  0.595200  1
  C  C1384  1  0.896300  0.241100  0.404800  1
  C  C1385  1  0.277900  0.542500  0.416800  1
  C  C1386  1  0.777900  0.957500  0.583200  1
  C  C1387  1  0.722100  0.457500  0.583200  1
  C  C1388  1  0.222100  0.042500  0.416800  1
  C  C1389  1  0.207200  0.491500  0.116300  1
  C  C1390  1  0.707200  0.008500  0.883700  1
  C  C1391  1  0.792800  0.508500  0.883700  1
  C  C1392  1  0.292800  0.991500  0.116300  1
  C  C1393  1  0.644600  0.784900  0.170400  1
  C  C1394  1  0.144600  0.715100  0.829600  1
  C  C1395  1  0.355400  0.215100  0.829600  1
  C  C1396  1  0.855400  0.284900  0.170400  1
  C  C1397  1  0.112000  0.511400  0.253000  1
  C  C1398  1  0.612000  0.988600  0.747000  1
  C  C1399  1  0.888000  0.488600  0.747000  1
  C  C1400  1  0.388000  0.011400  0.253000  1
  C  C1401  1  0.271800  0.584300  0.436500  1
  C  C1402  1  0.771800  0.915700  0.563500  1
  C  C1403  1  0.728200  0.415700  0.563500  1
  C  C1404  1  0.228200  0.084300  0.436500  1
  C  C1405  1  0.747000  0.738600  0.183300  1
  C  C1406  1  0.247000  0.761400  0.816700  1
  C  C1407  1  0.253000  0.261400  0.816700  1
  C  C1408  1  0.753000  0.238600  0.183300  1
  C  C1409  1  0.427000  0.826100  0.427200  1
  C  C1410  1  0.927000  0.673900  0.572800  1
  C  C1411  1  0.573000  0.173900  0.572800  1
  C  C1412  1  0.073000  0.326100  0.427200  1
  C  C1413  1  0.107300  0.693100  0.237400  1
  C  C1414  1  0.607300  0.806900  0.762600  1
  C  C1415  1  0.892700  0.306900  0.762600  1
  C  C1416  1  0.392700  0.193100  0.237400  1
  C  C1417  1  0.521000  0.803500  0.048600  1
  C  C1418  1  0.021000  0.696500  0.951400  1
  C  C1419  1  0.479000  0.196500  0.951400  1
  C  C1420  1  0.979000  0.303500  0.048600  1
  C  C1421  1  0.207600  0.698000  0.406700  1
  C  C1422  1  0.707600  0.802000  0.593300  1
  C  C1423  1  0.792400  0.302000  0.593300  1
  C  C1424  1  0.292400  0.198000  0.406700  1
  C  C1425  1  0.762700  0.405200  0.179600  1
  C  C1426  1  0.262700  0.094800  0.820400  1
  C  C1427  1  0.237300  0.594800  0.820400  1
  C  C1428  1  0.737300  0.905200  0.179600  1
  C  C1429  1  0.592900  0.539400  0.027000  1
  C  C1430  1  0.092900  0.960600  0.973000  1
  C  C1431  1  0.407100  0.460600  0.973000  1
  C  C1432  1  0.907100  0.039400  0.027000  1
  C  C1433  1  0.415300  0.841500  0.276500  1
  C  C1434  1  0.915300  0.658500  0.723500  1
  C  C1435  1  0.584700  0.158500  0.723500  1
  C  C1436  1  0.084700  0.341500  0.276500  1
  C  C1437  1  0.700400  0.789100  0.236800  1
  C  C1438  1  0.200400  0.710900  0.763200  1
  C  C1439  1  0.299600  0.210900  0.763200  1
  C  C1440  1  0.799600  0.289100  0.236800  1
  C  C1441  1  0.853700  0.740700  0.229400  1
  C  C1442  1  0.353700  0.759300  0.770600  1
  C  C1443  1  0.146300  0.259300  0.770600  1
  C  C1444  1  0.646300  0.240700  0.229400  1
  C  C1445  1  0.203700  0.425800  0.321700  1
  C  C1446  1  0.703700  0.074200  0.678300  1
  C  C1447  1  0.796300  0.574200  0.678300  1
  C  C1448  1  0.296300  0.925800  0.321700  1
  C  C1449  1  0.622000  0.358600  0.271800  1
  C  C1450  1  0.122000  0.141400  0.728200  1
  C  C1451  1  0.378000  0.641400  0.728200  1
  C  C1452  1  0.878000  0.858600  0.271800  1
  C  C1453  1  0.104900  0.467900  0.243400  1
  C  C1454  1  0.604900  0.032100  0.756600  1
  C  C1455  1  0.895100  0.532100  0.756600  1
  C  C1456  1  0.395100  0.967900  0.243400  1
  C  C1457  1  0.334300  0.790800  0.131200  1
  C  C1458  1  0.834300  0.709200  0.868800  1
  C  C1459  1  0.665700  0.209200  0.868800  1
  C  C1460  1  0.165700  0.290800  0.131200  1
  C  C1461  1  0.597700  0.833400  0.224400  1
  C  C1462  1  0.097700  0.666600  0.775600  1
  C  C1463  1  0.402300  0.166600  0.775600  1
  C  C1464  1  0.902300  0.333400  0.224400  1
  C  C1465  1  0.734200  0.812700  0.354600  1
  C  C1466  1  0.234200  0.687300  0.645400  1
  C  C1467  1  0.265800  0.187300  0.645400  1
  C  C1468  1  0.765800  0.312700  0.354600  1
  C  C1469  1  0.594800  0.697500  0.413800  1
  C  C1470  1  0.094800  0.802500  0.586200  1
  C  C1471  1  0.405200  0.302500  0.586200  1
  C  C1472  1  0.905200  0.197500  0.413800  1
  C  C1473  1  0.574600  0.607400  0.427900  1
  C  C1474  1  0.074600  0.892600  0.572100  1
  C  C1475  1  0.425400  0.392600  0.572100  1
  C  C1476  1  0.925400  0.107400  0.427900  1
  C  C1477  1  0.575300  0.774100  0.106800  1
  C  C1478  1  0.075300  0.725900  0.893200  1
  C  C1479  1  0.424700  0.225900  0.893200  1
  C  C1480  1  0.924700  0.274100  0.106800  1
  C  C1481  1  0.792800  0.688700  0.128200  1
  C  C1482  1  0.292800  0.811300  0.871800  1
  C  C1483  1  0.207200  0.311300  0.871800  1
  C  C1484  1  0.707200  0.188700  0.128200  1
  C  C1485  1  0.367000  0.420200  0.120900  1
  C  C1486  1  0.867000  0.079800  0.879100  1
  C  C1487  1  0.633000  0.579800  0.879100  1
  C  C1488  1  0.133000  0.920200  0.120900  1
  C  C1489  1  0.418500  0.379300  0.175900  1
  C  C1490  1  0.918500  0.120700  0.824100  1
  C  C1491  1  0.581500  0.620700  0.824100  1
  C  C1492  1  0.081500  0.879300  0.175900  1
  C  C1493  1  0.683100  0.714200  0.078800  1
  C  C1494  1  0.183100  0.785800  0.921200  1
  C  C1495  1  0.316900  0.285800  0.921200  1
  C  C1496  1  0.816900  0.214200  0.078800  1
  C  C1497  1  0.629900  0.486400  0.074800  1
  C  C1498  1  0.129900  0.013600  0.925200  1
  C  C1499  1  0.370100  0.513600  0.925200  1
  C  C1500  1  0.870100  0.986400  0.074800  1
  C  C1501  1  0.430200  0.407900  0.095700  1
  C  C1502  1  0.930200  0.092100  0.904300  1
  C  C1503  1  0.569800  0.592100  0.904300  1
  C  C1504  1  0.069800  0.907900  0.095700  1
  C  C1505  1  0.387300  0.683000  0.082500  1
  C  C1506  1  0.887300  0.817000  0.917500  1
  C  C1507  1  0.612700  0.317000  0.917500  1
  C  C1508  1  0.112700  0.183000  0.082500  1
  C  C1509  1  0.328100  0.656300  0.091900  1
  C  C1510  1  0.828100  0.843700  0.908100  1
  C  C1511  1  0.671900  0.343700  0.908100  1
  C  C1512  1  0.171900  0.156300  0.091900  1
  C  C1513  1  0.730700  0.683300  0.065500  1
  C  C1514  1  0.230700  0.816700  0.934500  1
  C  C1515  1  0.269300  0.316700  0.934500  1
  C  C1516  1  0.769300  0.183300  0.065500  1
  C  C1517  1  0.556000  0.419500  0.083500  1
  C  C1518  1  0.056000  0.080500  0.916500  1
  C  C1519  1  0.444000  0.580500  0.916500  1
  C  C1520  1  0.944000  0.919500  0.083500  1
  C  C1521  1  0.528300  0.423200  0.405100  1
  C  C1522  1  0.028300  0.076800  0.594900  1
  C  C1523  1  0.471700  0.576800  0.594900  1
  C  C1524  1  0.971700  0.923200  0.405100  1
  C  C1525  1  0.785900  0.671100  0.091200  1
  C  C1526  1  0.285900  0.828900  0.908800  1
  C  C1527  1  0.214100  0.328900  0.908800  1
  C  C1528  1  0.714100  0.171100  0.091200  1
  C  C1529  1  0.619000  0.446400  0.093200  1
  C  C1530  1  0.119000  0.053600  0.906800  1
  C  C1531  1  0.381000  0.553600  0.906800  1
  C  C1532  1  0.881000  0.946400  0.093200  1
  C  C1533  1  0.419000  0.369600  0.214800  1
  C  C1534  1  0.919000  0.130400  0.785200  1
  C  C1535  1  0.581000  0.630400  0.785200  1
  C  C1536  1  0.081000  0.869600  0.214800  1
  C  C1537  1  0.460100  0.779800  0.055200  1
  C  C1538  1  0.960100  0.720200  0.944800  1
  C  C1539  1  0.539900  0.220200  0.944800  1
  C  C1540  1  0.039900  0.279800  0.055200  1
  C  C1541  1  0.577200  0.800900  0.074500  1
  C  C1542  1  0.077200  0.699100  0.925500  1
  C  C1543  1  0.422800  0.199100  0.925500  1
  C  C1544  1  0.922800  0.300900  0.074500  1
  C  C1545  1  0.657600  0.391700  0.141700  1
  C  C1546  1  0.157600  0.108300  0.858300  1
  C  C1547  1  0.342400  0.608300  0.858300  1
  C  C1548  1  0.842400  0.891700  0.141700  1
  C  C1549  1  0.326200  0.610900  0.077700  1
  C  C1550  1  0.826200  0.889100  0.922300  1
  C  C1551  1  0.673800  0.389100  0.922300  1
  C  C1552  1  0.173800  0.110900  0.077700  1
  C  C1553  1  0.513400  0.751000  0.112800  1
  C  C1554  1  0.013400  0.749000  0.887200  1
  C  C1555  1  0.486600  0.249000  0.887200  1
  C  C1556  1  0.986600  0.251000  0.112800  1
  C  C1557  1  0.886900  0.580400  0.133500  1
  C  C1558  1  0.386900  0.919600  0.866500  1
  C  C1559  1  0.113100  0.419600  0.866500  1
  C  C1560  1  0.613100  0.080400  0.133500  1
  C  C1561  1  0.556800  0.370600  0.333100  1
  C  C1562  1  0.056800  0.129400  0.666900  1
  C  C1563  1  0.443200  0.629400  0.666900  1
  C  C1564  1  0.943200  0.870600  0.333100  1
  C  C1565  1  0.363500  0.826100  0.249600  1
  C  C1566  1  0.863500  0.673900  0.750400  1
  C  C1567  1  0.636500  0.173900  0.750400  1
  C  C1568  1  0.136500  0.326100  0.249600  1
  C  C1569  1  0.786500  0.781400  0.344700  1
  C  C1570  1  0.286500  0.718600  0.655300  1
  C  C1571  1  0.213500  0.218600  0.655300  1
  C  C1572  1  0.713500  0.281400  0.344700  1
  C  C1573  1  0.210400  0.503700  0.078200  1
  C  C1574  1  0.710400  0.996300  0.921800  1
  C  C1575  1  0.789600  0.496300  0.921800  1
  C  C1576  1  0.289600  0.003700  0.078200  1
  C  C1577  1  0.433400  0.372000  0.069300  1
  C  C1578  1  0.933400  0.128000  0.930700  1
  C  C1579  1  0.566600  0.628000  0.930700  1
  C  C1580  1  0.066600  0.872000  0.069300  1
  C  C1581  1  0.221600  0.783200  0.162400  1
  C  C1582  1  0.721600  0.716800  0.837600  1
  C  C1583  1  0.778400  0.216800  0.837600  1
  C  C1584  1  0.278400  0.283200  0.162400  1
  C  C1585  1  0.314200  0.412400  0.227500  1
  C  C1586  1  0.814200  0.087600  0.772500  1
  C  C1587  1  0.685800  0.587600  0.772500  1
  C  C1588  1  0.185800  0.912400  0.227500  1
  C  C1589  1  0.558600  0.382100  0.059200  1
  C  C1590  1  0.058600  0.117900  0.940800  1
  C  C1591  1  0.441400  0.617900  0.940800  1
  C  C1592  1  0.941400  0.882100  0.059200  1
  C  C1593  1  0.379300  0.593200  0.055500  1
  C  C1594  1  0.879300  0.906800  0.944500  1
  C  C1595  1  0.620700  0.406800  0.944500  1
  C  C1596  1  0.120700  0.093200  0.055500  1
  C  C1597  1  0.565700  0.347600  0.298000  1
  C  C1598  1  0.065700  0.152400  0.702000  1
  C  C1599  1  0.434300  0.652400  0.702000  1
  C  C1600  1  0.934300  0.847600  0.298000  1
  C  C1601  1  0.317400  0.462300  0.066700  1
  C  C1602  1  0.817400  0.037700  0.933300  1
  C  C1603  1  0.682600  0.537700  0.933300  1
  C  C1604  1  0.182600  0.962300  0.066700  1
  C  C1605  1  0.771900  0.445100  0.163900  1
  C  C1606  1  0.271900  0.054900  0.836100  1
  C  C1607  1  0.228100  0.554900  0.836100  1
  C  C1608  1  0.728100  0.945100  0.163900  1
  C  C1609  1  0.279800  0.808700  0.152000  1
  C  C1610  1  0.779800  0.691300  0.848000  1
  C  C1611  1  0.720200  0.191300  0.848000  1
  C  C1612  1  0.220200  0.308700  0.152000  1
  C  C1613  1  0.265300  0.490000  0.053200  1
  C  C1614  1  0.765300  0.010000  0.946800  1
  C  C1615  1  0.734700  0.510000  0.946800  1
  C  C1616  1  0.234700  0.990000  0.053200  1
  C  C1617  1  0.367400  0.387300  0.241400  1
  C  C1618  1  0.867400  0.112700  0.758600  1
  C  C1619  1  0.632600  0.612700  0.758600  1
  C  C1620  1  0.132600  0.887300  0.241400  1
  C  C1621  1  0.442600  0.663200  0.059400  1
  C  C1622  1  0.942600  0.836800  0.940600  1
  C  C1623  1  0.557400  0.336800  0.940600  1
  C  C1624  1  0.057400  0.163200  0.059400  1
  C  C1625  1  0.496000  0.359400  0.050500  1
  C  C1626  1  0.996000  0.140600  0.949500  1
  C  C1627  1  0.504000  0.640600  0.949500  1
  C  C1628  1  0.004000  0.859400  0.050500  1
  C  C1629  1  0.439400  0.620200  0.046400  1
  C  C1630  1  0.939400  0.879800  0.953600  1
  C  C1631  1  0.560600  0.379800  0.953600  1
  C  C1632  1  0.060600  0.120200  0.046400  1
  C  C1633  1  0.407200  0.802200  0.994200  1
  C  C1634  1  0.907200  0.697800  0.005800  1
  C  C1635  1  0.592800  0.197800  0.005800  1
  C  C1636  1  0.092800  0.302200  0.994200  1
  C  C1637  1  0.396300  0.849100  0.000300  1
  C  C1638  1  0.896300  0.650900  0.999700  1
  C  C1639  1  0.603700  0.150900  0.999700  1
  C  C1640  1  0.103700  0.349100  0.000300  1
  C  C1641  1  0.311100  0.900500  0.018200  1
  C  C1642  1  0.811100  0.599500  0.981800  1
  C  C1643  1  0.688900  0.099500  0.981800  1
  C  C1644  1  0.188900  0.400500  0.018200  1
  C  C1645  1  0.639200  0.865200  0.086500  1
  C  C1646  1  0.139200  0.634800  0.913500  1
  C  C1647  1  0.360800  0.134800  0.913500  1
  C  C1648  1  0.860800  0.365200  0.086500  1
  C  C1649  1  0.671500  0.901100  0.070200  1
  C  C1650  1  0.171500  0.598900  0.929800  1
  C  C1651  1  0.328500  0.098900  0.929800  1
  C  C1652  1  0.828500  0.401100  0.070200  1
  C  C1653  1  0.719000  0.930300  0.016500  1
  C  C1654  1  0.219000  0.569700  0.983500  1
  C  C1655  1  0.281000  0.069700  0.983500  1
  C  C1656  1  0.781000  0.430300  0.016500  1
  C  C1657  1  0.381600  0.305600  0.052400  1
  C  C1658  1  0.881600  0.194400  0.947600  1
  C  C1659  1  0.618400  0.694400  0.947600  1
  C  C1660  1  0.118400  0.805600  0.052400  1
  C  C1661  1  0.308200  0.287500  0.051000  1
  C  C1662  1  0.808200  0.212500  0.949000  1
  C  C1663  1  0.691800  0.712500  0.949000  1
  C  C1664  1  0.191800  0.787500  0.051000  1
  C  C1665  1  0.277500  0.224200  0.014900  1
  C  C1666  1  0.777500  0.275800  0.985100  1
  C  C1667  1  0.722500  0.775800  0.985100  1
  C  C1668  1  0.222500  0.724200  0.014900  1
  C  C1669  1  0.637900  0.324000  0.035900  1
  C  C1670  1  0.137900  0.176000  0.964100  1
  C  C1671  1  0.362100  0.676000  0.964100  1
  C  C1672  1  0.862100  0.824000  0.035900  1
  C  C1673  1  0.656300  0.301700  0.072500  1
  C  C1674  1  0.156300  0.198300  0.927500  1
  C  C1675  1  0.343700  0.698300  0.927500  1
  C  C1676  1  0.843700  0.801700  0.072500  1
  C  C1677  1  0.585900  0.273000  0.125600  1
  C  C1678  1  0.085900  0.227000  0.874400  1
  C  C1679  1  0.414100  0.727000  0.874400  1
  C  C1680  1  0.914100  0.773000  0.125600  1
  C  C1681  1  0.318000  0.364700  0.480300  1
  C  C1682  1  0.818000  0.135300  0.519700  1
  C  C1683  1  0.682000  0.635300  0.519700  1
  C  C1684  1  0.182000  0.864700  0.480300  1
  C  C1685  1  0.303300  0.329500  0.449600  1
  C  C1686  1  0.803300  0.170500  0.550400  1
  C  C1687  1  0.696700  0.670500  0.550400  1
  C  C1688  1  0.196700  0.829500  0.449600  1
  C  C1689  1  0.388000  0.274600  0.461100  1
  C  C1690  1  0.888000  0.225400  0.538900  1
  C  C1691  1  0.612000  0.725400  0.538900  1
  C  C1692  1  0.112000  0.774600  0.461100  1
  C  C1693  1  0.573900  0.323000  0.455900  1
  C  C1694  1  0.073900  0.177000  0.544100  1
  C  C1695  1  0.426100  0.677000  0.544100  1
  C  C1696  1  0.926100  0.823000  0.455900  1
  C  C1697  1  0.641100  0.298800  0.450300  1
  C  C1698  1  0.141100  0.201200  0.549700  1
  C  C1699  1  0.358900  0.701200  0.549700  1
  C  C1700  1  0.858900  0.798800  0.450300  1
  C  C1701  1  0.699500  0.236300  0.470800  1
  C  C1702  1  0.199500  0.263700  0.529200  1
  C  C1703  1  0.300500  0.763700  0.529200  1
  C  C1704  1  0.800500  0.736300  0.470800  1
  C  C1705  1  0.360300  0.889000  0.414300  1
  C  C1706  1  0.860300  0.611000  0.585700  1
  C  C1707  1  0.639700  0.111000  0.585700  1
  C  C1708  1  0.139700  0.389000  0.414300  1
  C  C1709  1  0.404800  0.925200  0.427300  1
  C  C1710  1  0.904800  0.574800  0.572700  1
  C  C1711  1  0.595200  0.074800  0.572700  1
  C  C1712  1  0.095200  0.425200  0.427300  1
  C  C1713  1  0.339900  0.971600  0.474600  1
  C  C1714  1  0.839900  0.528400  0.525400  1
  C  C1715  1  0.660100  0.028400  0.525400  1
  C  C1716  1  0.160100  0.471600  0.474600  1
  C  C1717  1  0.613500  0.838800  0.497100  1
  C  C1718  1  0.113500  0.661200  0.502900  1
  C  C1719  1  0.386500  0.161200  0.502900  1
  C  C1720  1  0.886500  0.338800  0.497100  1
  C  C1721  1  0.638100  0.877900  0.476600  1
  C  C1722  1  0.138100  0.622100  0.523400  1
  C  C1723  1  0.361900  0.122100  0.523400  1
  C  C1724  1  0.861900  0.377900  0.476600  1
  C  C1725  1  0.730400  0.901200  0.435300  1
  C  C1726  1  0.230400  0.598800  0.564700  1
  C  C1727  1  0.269600  0.098800  0.564700  1
  C  C1728  1  0.769600  0.401200  0.435300  1
  C  C1729  1  0.897600  0.610800  0.471200  1
  C  C1730  1  0.397600  0.889200  0.528800  1
  C  C1731  1  0.102400  0.389200  0.528800  1
  C  C1732  1  0.602400  0.110800  0.471200  1
  C  C1733  1  0.427600  0.895600  0.117900  1
  C  C1734  1  0.927600  0.604400  0.882100  1
  C  C1735  1  0.572400  0.104400  0.882100  1
  C  C1736  1  0.072400  0.395600  0.117900  1
  C  C1737  1  0.520400  0.005500  0.054800  1
  C  C1738  1  0.020400  0.494500  0.945200  1
  C  C1739  1  0.479600  0.994500  0.945200  1
  C  C1740  1  0.979600  0.505500  0.054800  1
  N  N1741  1  0.158300  0.669200  0.255300  1
  N  N1742  1  0.658300  0.830800  0.744700  1
  N  N1743  1  0.841700  0.330800  0.744700  1
  N  N1744  1  0.341700  0.169200  0.255300  1
  N  N1745  1  0.152400  0.596300  0.307300  1
  N  N1746  1  0.652400  0.903700  0.692700  1
  N  N1747  1  0.847600  0.403700  0.692700  1
  N  N1748  1  0.347600  0.096300  0.307300  1
  N  N1749  1  0.162700  0.536800  0.236900  1
  N  N1750  1  0.662700  0.963200  0.763100  1
  N  N1751  1  0.837300  0.463200  0.763100  1
  N  N1752  1  0.337300  0.036800  0.236900  1
  N  N1753  1  0.166100  0.610900  0.187600  1
  N  N1754  1  0.666100  0.889100  0.812400  1
  N  N1755  1  0.833900  0.389100  0.812400  1
  N  N1756  1  0.333900  0.110900  0.187600  1
  N  N1757  1  0.830300  0.653400  0.245400  1
  N  N1758  1  0.330300  0.846600  0.754600  1
  N  N1759  1  0.169700  0.346600  0.754600  1
  N  N1760  1  0.669700  0.153400  0.245400  1
  N  N1761  1  0.812500  0.603500  0.313600  1
  N  N1762  1  0.312500  0.896500  0.686400  1
  N  N1763  1  0.187500  0.396500  0.686400  1
  N  N1764  1  0.687500  0.103500  0.313600  1
  N  N1765  1  0.810900  0.523600  0.265000  1
  N  N1766  1  0.310900  0.976400  0.735000  1
  N  N1767  1  0.189100  0.476400  0.735000  1
  N  N1768  1  0.689100  0.023600  0.265000  1
  N  N1769  1  0.823600  0.575600  0.194700  1
  N  N1770  1  0.323600  0.924400  0.805300  1
  N  N1771  1  0.176400  0.424400  0.805300  1
  N  N1772  1  0.676400  0.075600  0.194700  1
  N  N1773  1  0.954300  0.413200  0.340300  1
  N  N1774  1  0.454300  0.086800  0.659700  1
  N  N1775  1  0.045700  0.586800  0.659700  1
  N  N1776  1  0.545700  0.913200  0.340300  1
  N  N1777  1  0.503600  0.996800  0.173600  1
  N  N1778  1  0.003600  0.503200  0.826400  1
  N  N1779  1  0.496400  0.003200  0.826400  1
  N  N1780  1  0.996400  0.496800  0.173600  1
  N  N1781  1  0.509300  0.216700  0.353600  1
  N  N1782  1  0.009300  0.283300  0.646400  1
  N  N1783  1  0.490700  0.783300  0.646400  1
  N  N1784  1  0.990700  0.716700  0.353600  1
  N  N1785  1  0.498200  0.183400  0.146500  1
  N  N1786  1  0.998200  0.316600  0.853500  1
  N  N1787  1  0.501800  0.816600  0.853500  1
  N  N1788  1  0.001800  0.683400  0.146500  1
  O  O1789  1  0.402500  0.778400  0.030400  1
  O  O1790  1  0.902500  0.721600  0.969600  1
  O  O1791  1  0.597500  0.221600  0.969600  1
  O  O1792  1  0.097500  0.278400  0.030400  1
  O  O1793  1  0.325300  0.855600  0.011600  1
  O  O1794  1  0.825300  0.644400  0.988400  1
  O  O1795  1  0.674700  0.144400  0.988400  1
  O  O1796  1  0.174700  0.355600  0.011600  1
  O  O1797  1  0.637900  0.823900  0.066600  1
  O  O1798  1  0.137900  0.676100  0.933400  1
  O  O1799  1  0.362100  0.176100  0.933400  1
  O  O1800  1  0.862100  0.323900  0.066600  1
  O  O1801  1  0.661500  0.904800  0.029400  1
  O  O1802  1  0.161500  0.595200  0.970600  1
  O  O1803  1  0.338500  0.095200  0.970600  1
  O  O1804  1  0.838500  0.404800  0.029400  1
  O  O1805  1  0.370600  0.351000  0.060300  1
  O  O1806  1  0.870600  0.149000  0.939700  1
  O  O1807  1  0.629400  0.649000  0.939700  1
  O  O1808  1  0.129400  0.851000  0.060300  1
  O  O1809  1  0.333400  0.250300  0.028200  1
  O  O1810  1  0.833400  0.249700  0.971800  1
  O  O1811  1  0.666600  0.749700  0.971800  1
  O  O1812  1  0.166600  0.750300  0.028200  1
  O  O1813  1  0.622000  0.370400  0.043600  1
  O  O1814  1  0.122000  0.129600  0.956400  1
  O  O1815  1  0.378000  0.629600  0.956400  1
  O  O1816  1  0.878000  0.870400  0.043600  1
  O  O1817  1  0.592600  0.300200  0.094400  1
  O  O1818  1  0.092600  0.199800  0.905600  1
  O  O1819  1  0.407400  0.699800  0.905600  1
  O  O1820  1  0.907400  0.800200  0.094400  1
  O  O1821  1  0.338000  0.406420  0.464980  1
  O  O1822  1  0.838000  0.093580  0.535020  1
  O  O1823  1  0.662000  0.593580  0.535020  1
  O  O1824  1  0.162000  0.906420  0.464980  1
  O  O1825  1  0.362400  0.305900  0.434290  1
  O  O1826  1  0.862400  0.194100  0.565710  1
  O  O1827  1  0.637600  0.694100  0.565710  1
  O  O1828  1  0.137600  0.805900  0.434290  1
  O  O1829  1  0.580300  0.363040  0.434990  1
  O  O1830  1  0.080300  0.136960  0.565010  1
  O  O1831  1  0.419700  0.636960  0.565010  1
  O  O1832  1  0.919700  0.863040  0.434990  1
  O  O1833  1  0.639100  0.262700  0.475930  1
  O  O1834  1  0.139100  0.237300  0.524070  1
  O  O1835  1  0.360900  0.737300  0.524070  1
  O  O1836  1  0.860900  0.762700  0.475930  1
  O  O1837  1  0.368700  0.851500  0.436760  1
  O  O1838  1  0.868700  0.648500  0.563240  1
  O  O1839  1  0.631300  0.148500  0.563240  1
  O  O1840  1  0.131300  0.351500  0.436760  1
  O  O1841  1  0.392200  0.939800  0.467800  1
  O  O1842  1  0.892200  0.560200  0.532200  1
  O  O1843  1  0.607800  0.060200  0.532200  1
  O  O1844  1  0.107800  0.439800  0.467800  1
  O  O1845  1  0.601500  0.801910  0.469730  1
  O  O1846  1  0.101500  0.698090  0.530270  1
  O  O1847  1  0.398500  0.198090  0.530270  1
  O  O1848  1  0.898500  0.301910  0.469730  1
  O  O1849  1  0.704700  0.868000  0.459800  1
  O  O1850  1  0.204700  0.632000  0.540200  1
  O  O1851  1  0.295300  0.132000  0.540200  1
  O  O1852  1  0.795300  0.368000  0.459800  1
  O  O1853  1  0.962400  0.594000  0.464800  1
  O  O1854  1  0.462400  0.906000  0.535200  1
  O  O1855  1  0.037600  0.406000  0.535200  1
  O  O1856  1  0.537600  0.094000  0.464800  1
  O  O1857  1  0.456400  0.888200  0.154300  1
  O  O1858  1  0.956400  0.611800  0.845700  1
  O  O1859  1  0.543600  0.111800  0.845700  1
  O  O1860  1  0.043600  0.388200  0.154300  1
  O  O1861  1  0.546000  0.043700  0.040900  1
  O  O1862  1  0.046000  0.456300  0.959100  1
  O  O1863  1  0.454000  0.956300  0.959100  1
  O  O1864  1  0.954000  0.543700  0.040900  1
  O  O1865  1  0.934500  0.376600  0.327800  1
  O  O1866  1  0.434500  0.123400  0.672200  1
  O  O1867  1  0.065500  0.623400  0.672200  1
  O  O1868  1  0.565500  0.876600  0.327800  1
  O  O1869  1  0.999500  0.434100  0.322000  1
  O  O1870  1  0.499500  0.065900  0.678000  1
  O  O1871  1  0.000500  0.565900  0.678000  1
  O  O1872  1  0.500500  0.934100  0.322000  1
  O  O1873  1  0.928200  0.429500  0.371400  1
  O  O1874  1  0.428200  0.070500  0.628600  1
  O  O1875  1  0.071800  0.570500  0.628600  1
  O  O1876  1  0.571800  0.929500  0.371400  1
  O  O1877  1  0.537700  0.962800  0.179300  1
  O  O1878  1  0.037700  0.537200  0.820700  1
  O  O1879  1  0.462300  0.037200  0.820700  1
  O  O1880  1  0.962300  0.462800  0.179300  1
  O  O1881  1  0.459600  0.997000  0.146500  1
  O  O1882  1  0.959600  0.503000  0.853500  1
  O  O1883  1  0.540400  0.003000  0.853500  1
  O  O1884  1  0.040400  0.497000  0.146500  1
  O  O1885  1  0.511600  0.029700  0.195900  1
  O  O1886  1  0.011600  0.470300  0.804100  1
  O  O1887  1  0.488400  0.970300  0.804100  1
  O  O1888  1  0.988400  0.529700  0.195900  1
  O  O1889  1  0.510900  0.242700  0.383000  1
  O  O1890  1  0.010900  0.257300  0.617000  1
  O  O1891  1  0.489100  0.757300  0.617000  1
  O  O1892  1  0.989100  0.742700  0.383000  1
  O  O1893  1  0.478200  0.227300  0.323400  1
  O  O1894  1  0.978200  0.272700  0.676600  1
  O  O1895  1  0.521800  0.772700  0.676600  1
  O  O1896  1  0.021800  0.727300  0.323400  1
  O  O1897  1  0.540500  0.181300  0.354600  1
  O  O1898  1  0.040500  0.318700  0.645400  1
  O  O1899  1  0.459500  0.818700  0.645400  1
  O  O1900  1  0.959500  0.681300  0.354600  1
  O  O1901  1  0.522900  0.176100  0.179590  1
  O  O1902  1  0.022900  0.323900  0.820410  1
  O  O1903  1  0.477100  0.823900  0.820410  1
  O  O1904  1  0.977100  0.676100  0.179590  1
  O  O1905  1  0.448400  0.209200  0.143600  1
  O  O1906  1  0.948400  0.290800  0.856400  1
  O  O1907  1  0.551600  0.790800  0.856400  1
  O  O1908  1  0.051600  0.709200  0.143600  1
  O  O1909  1  0.525100  0.165500  0.116200  1
  O  O1910  1  0.025100  0.334500  0.883800  1
  O  O1911  1  0.474900  0.834500  0.883800  1
  O  O1912  1  0.974900  0.665500  0.116200  1
  O  O1913  1  0.998100  0.520200  0.325900  1
  O  O1914  1  0.498100  0.979800  0.674100  1
  O  O1915  1  0.001900  0.479800  0.674100  1
  O  O1916  1  0.501900  0.020200  0.325900  1
  O  O1917  1  0.982500  0.587700  0.262300  1
  O  O1918  1  0.482500  0.912300  0.737700  1
  O  O1919  1  0.017500  0.412300  0.737700  1
  O  O1920  1  0.517500  0.087700  0.262300  1
  O  O1921  1  0.991600  0.523600  0.415000  1
  O  O1922  1  0.491600  0.976400  0.585000  1
  O  O1923  1  0.008400  0.476400  0.585000  1
  O  O1924  1  0.508400  0.023600  0.415000  1
  O  O1925  1  0.404500  0.313200  0.350700  1
  O  O1926  1  0.904500  0.186800  0.649300  1
  O  O1927  1  0.595500  0.686800  0.649300  1
  O  O1928  1  0.095500  0.813200  0.350700  1
  O  O1929  1  0.550100  0.186800  0.449000  1
  O  O1930  1  0.050100  0.313200  0.551000  1
  O  O1931  1  0.449900  0.813200  0.551000  1
  O  O1932  1  0.949900  0.686800  0.449000  1
  O  O1933  1  0.441900  0.104900  0.027700  1
  O  O1934  1  0.941900  0.395100  0.972300  1
  O  O1935  1  0.558100  0.895100  0.972300  1
  O  O1936  1  0.058100  0.604900  0.027700  1
  O  O1937  1  0.433600  0.192300  0.052800  1
  O  O1938  1  0.933600  0.307700  0.947200  1
  O  O1939  1  0.566400  0.807700  0.947200  1
  O  O1940  1  0.066400  0.692300  0.052800  1
