# generated using pymatgen
data_H187Pd2C223(N2O9)7
_symmetry_space_group_name_H-M   'P 1'
_cell_length_a   20.32300000
_cell_length_b   23.54600000
_cell_length_c   24.07200000
_cell_angle_alpha   88.79800000
_cell_angle_beta   69.66200000
_cell_angle_gamma   81.04100000
_symmetry_Int_Tables_number   1
_chemical_formula_structural   H187Pd2C223(N2O9)7
_chemical_formula_sum   'H374 Pd4 C446 N28 O126'
_cell_volume   10662.34264812
_cell_formula_units_Z   2
loop_
 _symmetry_equiv_pos_site_id
 _symmetry_equiv_pos_as_xyz
  1  'x, y, z'
loop_
 _atom_site_type_symbol
 _atom_site_label
 _atom_site_symmetry_multiplicity
 _atom_site_fract_x
 _atom_site_fract_y
 _atom_site_fract_z
 _atom_site_occupancy
  H  H1  1  0.197600  0.893500  0.371500  1
  H  H2  1  0.802400  0.106500  0.628500  1
  H  H3  1  0.896200  0.803600  0.269900  1
  H  H4  1  0.103800  0.196400  0.730100  1
  H  H5  1  0.007500  0.874300  0.480900  1
  H  H6  1  0.992500  0.125700  0.519100  1
  H  H7  1  0.491500  0.166100  0.367400  1
  H  H8  1  0.508500  0.833900  0.632600  1
  H  H9  1  0.732500  0.817100  0.171700  1
  H  H10  1  0.267500  0.182900  0.828300  1
  H  H11  1  0.179600  0.765900  0.430800  1
  H  H12  1  0.820400  0.234100  0.569200  1
  H  H13  1  0.151000  0.000100  0.352100  1
  H  H14  1  0.849000  0.999900  0.647900  1
  H  H15  1  0.456400  0.663000  0.658600  1
  H  H16  1  0.543600  0.337000  0.341400  1
  H  H17  1  0.730900  0.721800  0.054000  1
  H  H18  1  0.269100  0.278200  0.946000  1
  H  H19  1  0.901700  0.768800  0.179200  1
  H  H20  1  0.098300  0.231200  0.820800  1
  H  H21  1  0.180500  0.712200  0.305800  1
  H  H22  1  0.819500  0.287800  0.694200  1
  H  H23  1  0.452600  0.692800  0.467800  1
  H  H24  1  0.547400  0.307200  0.532200  1
  H  H25  1  0.319000  0.771800  0.601900  1
  H  H26  1  0.681000  0.228200  0.398100  1
  H  H27  1  0.194200  0.832700  0.241400  1
  H  H28  1  0.805800  0.167300  0.758600  1
  H  H29  1  0.804000  0.788000  0.356100  1
  H  H30  1  0.196000  0.212000  0.643900  1
  H  H31  1  0.725300  0.701600  0.256100  1
  H  H32  1  0.274700  0.298400  0.743900  1
  H  H33  1  0.015800  0.738900  0.211500  1
  H  H34  1  0.984200  0.261100  0.788500  1
  H  H35  1  0.009500  0.802400  0.285000  1
  H  H36  1  0.990500  0.197600  0.715000  1
  H  H37  1  0.896800  0.766200  0.026900  1
  H  H38  1  0.103200  0.233800  0.973100  1
  H  H39  1  0.030300  0.941300  0.342500  1
  H  H40  1  0.969700  0.058700  0.657500  1
  H  H41  1  0.176200  0.051500  0.267500  1
  H  H42  1  0.823800  0.948500  0.732500  1
  H  H43  1  0.397400  0.969500  0.543100  1
  H  H44  1  0.602600  0.030500  0.456900  1
  H  H45  1  0.609500  0.596600  0.500800  1
  H  H46  1  0.390500  0.403400  0.499200  1
  H  H47  1  0.422500  0.341300  0.218700  1
  H  H48  1  0.577500  0.658700  0.781300  1
  H  H49  1  0.722700  0.614200  0.160000  1
  H  H50  1  0.277300  0.385800  0.840000  1
  H  H51  1  0.422400  0.016600  0.455300  1
  H  H52  1  0.577600  0.983400  0.544700  1
  H  H53  1  0.223400  0.922600  0.523900  1
  H  H54  1  0.776600  0.077400  0.476100  1
  H  H55  1  0.407200  0.578600  0.497800  1
  H  H56  1  0.592800  0.421400  0.502200  1
  H  H57  1  0.632000  0.016300  0.343300  1
  H  H58  1  0.368000  0.983700  0.656700  1
  H  H59  1  0.129800  0.858000  0.608000  1
  H  H60  1  0.870200  0.142000  0.392000  1
  H  H61  1  0.298500  0.920500  0.576100  1
  H  H62  1  0.701500  0.079500  0.423900  1
  H  H63  1  0.819400  0.934700  0.056300  1
  H  H64  1  0.180600  0.065300  0.943700  1
  H  H65  1  0.243400  0.689000  0.141100  1
  H  H66  1  0.756600  0.311000  0.858900  1
  H  H67  1  0.907500  0.613700  0.036300  1
  H  H68  1  0.092500  0.386300  0.963700  1
  H  H69  1  0.439700  0.535400  0.226700  1
  H  H70  1  0.560300  0.464600  0.773300  1
  H  H71  1  0.231800  0.849900  0.634200  1
  H  H72  1  0.768200  0.150100  0.365800  1
  H  H73  1  0.110900  0.990800  0.522200  1
  H  H74  1  0.889100  0.009200  0.477800  1
  H  H75  1  0.116700  0.788700  0.548700  1
  H  H76  1  0.883300  0.211300  0.451300  1
  H  H77  1  0.045300  0.005900  0.265900  1
  H  H78  1  0.954700  0.994100  0.734100  1
  H  H79  1  0.080100  0.552300  0.407700  1
  H  H80  1  0.919900  0.447700  0.592300  1
  H  H81  1  0.506500  0.672800  0.928000  1
  H  H82  1  0.493500  0.327200  0.072000  1
  H  H83  1  0.798600  0.639200  0.334800  1
  H  H84  1  0.201400  0.360800  0.665200  1
  H  H85  1  0.597900  0.973700  0.033800  1
  H  H86  1  0.402100  0.026300  0.966200  1
  H  H87  1  0.136100  0.981300  0.174200  1
  H  H88  1  0.863900  0.018700  0.825800  1
  H  H89  1  0.508500  0.053800  0.196600  1
  H  H90  1  0.491500  0.946200  0.803400  1
  H  H91  1  0.997200  0.737300  0.422200  1
  H  H92  1  0.002800  0.262700  0.577800  1
  H  H93  1  0.712000  0.530300  0.460500  1
  H  H94  1  0.288000  0.469700  0.539500  1
  H  H95  1  0.012100  0.941400  0.548100  1
  H  H96  1  0.987900  0.058600  0.451900  1
  H  H97  1  0.440900  0.831100  0.830800  1
  H  H98  1  0.559100  0.168900  0.169200  1
  H  H99  1  0.666800  0.835100  0.332700  1
  H  H100  1  0.333200  0.164900  0.667300  1
  H  H101  1  0.102200  0.655800  0.188000  1
  H  H102  1  0.897800  0.344200  0.812000  1
  H  H103  1  0.475800  0.986600  0.300300  1
  H  H104  1  0.524200  0.013400  0.699700  1
  H  H105  1  0.819600  0.909700  0.295900  1
  H  H106  1  0.180400  0.090300  0.704100  1
  H  H107  1  0.291700  0.516600  0.415000  1
  H  H108  1  0.708300  0.483400  0.585000  1
  H  H109  1  0.444900  0.905800  0.007600  1
  H  H110  1  0.555100  0.094200  0.992400  1
  H  H111  1  0.088600  0.638300  0.522600  1
  H  H112  1  0.911400  0.361700  0.477400  1
  H  H113  1  0.477100  0.795100  0.499300  1
  H  H114  1  0.522900  0.204900  0.500700  1
  H  H115  1  0.095700  0.619500  0.335000  1
  H  H116  1  0.904300  0.380500  0.665000  1
  H  H117  1  0.486000  0.469200  0.329500  1
  H  H118  1  0.514000  0.530800  0.670500  1
  H  H119  1  0.510200  0.043500  0.100800  1
  H  H120  1  0.489800  0.956500  0.899200  1
  H  H121  1  0.211400  0.599300  0.435400  1
  H  H122  1  0.788600  0.400700  0.564600  1
  H  H123  1  0.470500  0.882000  0.453700  1
  H  H124  1  0.529500  0.118000  0.546300  1
  H  H125  1  0.273200  0.961000  0.194600  1
  H  H126  1  0.726800  0.039000  0.805400  1
  H  H127  1  0.725100  0.971800  0.366500  1
  H  H128  1  0.274900  0.028200  0.633500  1
  H  H129  1  0.590500  0.861400  0.911000  1
  H  H130  1  0.409500  0.138600  0.089000  1
  H  H131  1  0.899200  0.860300  0.994800  1
  H  H132  1  0.100800  0.139700  0.005200  1
  H  H133  1  0.362300  0.078900  0.278100  1
  H  H134  1  0.637700  0.921100  0.721900  1
  H  H135  1  0.344300  0.676000  0.060100  1
  H  H136  1  0.655700  0.324000  0.939900  1
  H  H137  1  0.374900  0.003000  0.158500  1
  H  H138  1  0.625100  0.997000  0.841500  1
  H  H139  1  0.812100  0.889200  0.206300  1
  H  H140  1  0.187900  0.110800  0.793700  1
  H  H141  1  0.684200  0.919900  0.062500  1
  H  H142  1  0.315800  0.080100  0.937500  1
  H  H143  1  0.277300  0.464400  0.320000  1
  H  H144  1  0.722700  0.535600  0.680000  1
  H  H145  1  0.465200  0.783900  0.012700  1
  H  H146  1  0.534800  0.216100  0.987300  1
  H  H147  1  0.995900  0.660600  0.484300  1
  H  H148  1  0.004100  0.339400  0.515700  1
  H  H149  1  0.419200  0.528400  0.122300  1
  H  H150  1  0.580800  0.471600  0.877700  1
  H  H151  1  0.119700  0.829800  0.159300  1
  H  H152  1  0.880300  0.170200  0.840700  1
  H  H153  1  0.391400  0.507200  0.444400  1
  H  H154  1  0.608600  0.492800  0.555600  1
  H  H155  1  0.806500  0.552500  0.377100  1
  H  H156  1  0.193500  0.447500  0.622900  1
  H  H157  1  0.699500  0.533100  0.310500  1
  H  H158  1  0.300500  0.466900  0.689500  1
  H  H159  1  0.282900  0.087600  0.229000  1
  H  H160  1  0.717100  0.912400  0.771000  1
  H  H161  1  0.526100  0.574800  0.938500  1
  H  H162  1  0.473900  0.425200  0.061500  1
  H  H163  1  0.433500  0.594700  0.050000  1
  H  H164  1  0.566500  0.405300  0.950000  1
  H  H165  1  0.701800  0.586600  0.975600  1
  H  H166  1  0.298200  0.413400  0.024400  1
  H  H167  1  0.303800  0.759400  0.983400  1
  H  H168  1  0.696200  0.240600  0.016600  1
  H  H169  1  0.172100  0.473400  0.400000  1
  H  H170  1  0.827900  0.526600  0.600000  1
  H  H171  1  0.461100  0.973100  0.065600  1
  H  H172  1  0.538900  0.026900  0.934400  1
  H  H173  1  0.914400  0.612800  0.168500  1
  H  H174  1  0.085600  0.387200  0.831500  1
  H  H175  1  0.562200  0.443900  0.110600  1
  H  H176  1  0.437800  0.556100  0.889400  1
  H  H177  1  0.820800  0.615600  0.908900  1
  H  H178  1  0.179200  0.384400  0.091100  1
  H  H179  1  0.624200  0.532000  0.964100  1
  H  H180  1  0.375800  0.468000  0.035900  1
  H  H181  1  0.909100  0.578600  0.947300  1
  H  H182  1  0.090900  0.421400  0.052700  1
  H  H183  1  0.515600  0.483000  0.412700  1
  H  H184  1  0.484400  0.517000  0.587300  1
  H  H185  1  0.792400  0.776100  0.951200  1
  H  H186  1  0.207600  0.223900  0.048800  1
  H  H187  1  0.623900  0.516100  0.401400  1
  H  H188  1  0.376100  0.483900  0.598600  1
  H  H189  1  0.565500  0.903200  0.372600  1
  H  H190  1  0.434500  0.096800  0.627400  1
  H  H191  1  0.908700  0.527000  0.214800  1
  H  H192  1  0.091300  0.473000  0.785200  1
  H  H193  1  0.672800  0.914200  0.911900  1
  H  H194  1  0.327200  0.085800  0.088100  1
  H  H195  1  0.199400  0.719600  0.016600  1
  H  H196  1  0.800600  0.280400  0.983400  1
  H  H197  1  0.106900  0.758300  0.104400  1
  H  H198  1  0.893100  0.241700  0.895600  1
  H  H199  1  0.643300  0.448800  0.020300  1
  H  H200  1  0.356700  0.551200  0.979700  1
  H  H201  1  0.812100  0.477500  0.227600  1
  H  H202  1  0.187900  0.522500  0.772400  1
  H  H203  1  0.753900  0.478200  0.008100  1
  H  H204  1  0.246100  0.521800  0.991900  1
  H  H205  1  0.774300  0.872600  0.935700  1
  H  H206  1  0.225700  0.127400  0.064300  1
  H  H207  1  0.774400  0.512000  0.088200  1
  H  H208  1  0.225600  0.488000  0.911800  1
  H  H209  1  0.567300  0.622400  0.643400  1
  H  H210  1  0.432700  0.377600  0.356600  1
  H  H211  1  0.569000  0.685100  0.667700  1
  H  H212  1  0.431000  0.314900  0.332300  1
  H  H213  1  0.677200  0.620300  0.653200  1
  H  H214  1  0.322800  0.379700  0.346800  1
  H  H215  1  0.689500  0.616100  0.584000  1
  H  H216  1  0.310500  0.383900  0.416000  1
  H  H217  1  0.801700  0.703800  0.589500  1
  H  H218  1  0.198300  0.296200  0.410500  1
  H  H219  1  0.795000  0.646100  0.559200  1
  H  H220  1  0.205000  0.353900  0.440800  1
  H  H221  1  0.786100  0.647900  0.627900  1
  H  H222  1  0.213900  0.352100  0.372100  1
  H  H223  1  0.337500  0.686400  0.724500  1
  H  H224  1  0.662500  0.313600  0.275500  1
  H  H225  1  0.366100  0.618700  0.711100  1
  H  H226  1  0.633900  0.381300  0.288900  1
  H  H227  1  0.244500  0.607600  0.723400  1
  H  H228  1  0.755500  0.392400  0.276600  1
  H  H229  1  0.256200  0.623600  0.783400  1
  H  H230  1  0.743800  0.376400  0.216600  1
  H  H231  1  0.107400  0.716300  0.784300  1
  H  H232  1  0.892600  0.283700  0.215700  1
  H  H233  1  0.135100  0.666300  0.820600  1
  H  H234  1  0.864900  0.333700  0.179400  1
  H  H235  1  0.127300  0.651200  0.758900  1
  H  H236  1  0.872700  0.348800  0.241100  1
  H  H237  1  0.623400  0.155500  0.349900  1
  H  H238  1  0.376600  0.844500  0.650100  1
  H  H239  1  0.587000  0.200400  0.313900  1
  H  H240  1  0.413000  0.799600  0.686100  1
  H  H241  1  0.695200  0.189300  0.232700  1
  H  H242  1  0.304800  0.810700  0.767300  1
  H  H243  1  0.704300  0.213900  0.290600  1
  H  H244  1  0.295700  0.786100  0.709400  1
  H  H245  1  0.856900  0.116900  0.231200  1
  H  H246  1  0.143100  0.883100  0.768800  1
  H  H247  1  0.826900  0.182600  0.253300  1
  H  H248  1  0.173100  0.817400  0.746700  1
  H  H249  1  0.819800  0.159200  0.194000  1
  H  H250  1  0.180200  0.840800  0.806000  1
  H  H251  1  0.381900  0.217400  0.411300  1
  H  H252  1  0.618100  0.782600  0.588700  1
  H  H253  1  0.401800  0.183800  0.463400  1
  H  H254  1  0.598200  0.816200  0.536600  1
  H  H255  1  0.293800  0.254100  0.493200  1
  H  H256  1  0.706200  0.745900  0.506800  1
  H  H257  1  0.259800  0.209500  0.466800  1
  H  H258  1  0.740200  0.790500  0.533200  1
  H  H259  1  0.248400  0.116300  0.583200  1
  H  H260  1  0.751600  0.883700  0.416800  1
  H  H261  1  0.307200  0.104500  0.518400  1
  H  H262  1  0.692800  0.895500  0.481600  1
  H  H263  1  0.225600  0.125300  0.525900  1
  H  H264  1  0.774400  0.874700  0.474100  1
  H  H265  1  0.566200  0.849100  0.778000  1
  H  H266  1  0.433800  0.150900  0.222000  1
  H  H267  1  0.539800  0.799500  0.750200  1
  H  H268  1  0.460200  0.200500  0.249800  1
  H  H269  1  0.653400  0.751400  0.709900  1
  H  H270  1  0.346600  0.248600  0.290100  1
  H  H271  1  0.653400  0.816800  0.690100  1
  H  H272  1  0.346600  0.183200  0.309900  1
  H  H273  1  0.801000  0.789500  0.732500  1
  H  H274  1  0.199000  0.210500  0.267500  1
  H  H275  1  0.777600  0.810700  0.677600  1
  H  H276  1  0.222400  0.189300  0.322400  1
  H  H277  1  0.779800  0.744700  0.695200  1
  H  H278  1  0.220200  0.255300  0.304800  1
  H  H279  1  0.322800  0.839400  0.843900  1
  H  H280  1  0.677200  0.160600  0.156100  1
  H  H281  1  0.358300  0.896800  0.838900  1
  H  H282  1  0.641700  0.103200  0.161100  1
  H  H283  1  0.245700  0.947900  0.898300  1
  H  H284  1  0.754300  0.052100  0.101700  1
  H  H285  1  0.244100  0.924400  0.837000  1
  H  H286  1  0.755900  0.075600  0.163000  1
  H  H287  1  0.087500  0.895400  0.938100  1
  H  H288  1  0.912500  0.104600  0.061900  1
  H  H289  1  0.119500  0.927300  0.877600  1
  H  H290  1  0.880500  0.072700  0.122400  1
  H  H291  1  0.119800  0.953100  0.938400  1
  H  H292  1  0.880200  0.046900  0.061600  1
  H  H293  1  0.524700  0.302300  0.173400  1
  H  H294  1  0.475300  0.697700  0.826600  1
  H  H295  1  0.563100  0.273300  0.217300  1
  H  H296  1  0.436900  0.726700  0.782700  1
  H  H297  1  0.636300  0.273200  0.111500  1
  H  H298  1  0.363700  0.726800  0.888500  1
  H  H299  1  0.637900  0.339800  0.124500  1
  H  H300  1  0.362100  0.660200  0.875500  1
  H  H301  1  0.785800  0.264400  0.153700  1
  H  H302  1  0.214200  0.735600  0.846300  1
  H  H303  1  0.764500  0.312100  0.112000  1
  H  H304  1  0.235500  0.687900  0.888000  1
  H  H305  1  0.760100  0.246100  0.101900  1
  H  H306  1  0.239900  0.753900  0.898100  1
  H  H307  1  0.304400  0.331300  0.248000  1
  H  H308  1  0.695600  0.668700  0.752000  1
  H  H309  1  0.340900  0.331300  0.177200  1
  H  H310  1  0.659100  0.668700  0.822800  1
  H  H311  1  0.224300  0.375500  0.176100  1
  H  H312  1  0.775700  0.624500  0.823900  1
  H  H313  1  0.231900  0.308700  0.191300  1
  H  H314  1  0.768100  0.691300  0.808700  1
  H  H315  1  0.074800  0.356300  0.290600  1
  H  H316  1  0.925200  0.643700  0.709400  1
  H  H317  1  0.121000  0.305300  0.243900  1
  H  H318  1  0.879000  0.694700  0.756100  1
  H  H319  1  0.104600  0.368600  0.221400  1
  H  H320  1  0.895400  0.631400  0.778600  1
  H  H321  1  0.315400  0.874400  0.847200  1
  H  H322  1  0.684600  0.125600  0.152800  1
  H  H323  1  0.337800  0.929000  0.870000  1
  H  H324  1  0.662200  0.071000  0.130000  1
  H  H325  1  0.691400  0.675900  0.604000  1
  H  H326  1  0.308600  0.324100  0.396000  1
  H  H327  1  0.677600  0.632600  0.657300  1
  H  H328  1  0.322400  0.367400  0.342700  1
  H  H329  1  0.707800  0.211300  0.291800  1
  H  H330  1  0.292200  0.788700  0.708200  1
  H  H331  1  0.732100  0.145400  0.267900  1
  H  H332  1  0.267900  0.854600  0.732100  1
  H  H333  1  0.645300  0.811100  0.687900  1
  H  H334  1  0.354700  0.188900  0.312100  1
  H  H335  1  0.677700  0.811600  0.738800  1
  H  H336  1  0.322300  0.188400  0.261200  1
  H  H337  1  0.222400  0.946100  0.869000  1
  H  H338  1  0.777600  0.053900  0.131000  1
  H  H339  1  0.201600  0.897400  0.915900  1
  H  H340  1  0.798400  0.102600  0.084100  1
  H  H341  1  0.653600  0.261100  0.136400  1
  H  H342  1  0.346400  0.738900  0.863600  1
  H  H343  1  0.623200  0.314300  0.105600  1
  H  H344  1  0.376800  0.685700  0.894400  1
  H  H345  1  0.790900  0.574200  0.510200  1
  H  H346  1  0.209100  0.425800  0.489800  1
  H  H347  1  0.802800  0.612400  0.559100  1
  H  H348  1  0.197200  0.387600  0.440900  1
  H  H349  1  0.762800  0.642000  0.516700  1
  H  H350  1  0.237200  0.358000  0.483300  1
  H  H351  1  0.757800  0.217100  0.137000  1
  H  H352  1  0.242200  0.782900  0.863000  1
  H  H353  1  0.793900  0.170500  0.171400  1
  H  H354  1  0.206100  0.829500  0.828600  1
  H  H355  1  0.776400  0.236900  0.192300  1
  H  H356  1  0.223600  0.763100  0.807700  1
  H  H357  1  0.782000  0.692900  0.657800  1
  H  H358  1  0.218000  0.307100  0.342200  1
  H  H359  1  0.787600  0.749400  0.690600  1
  H  H360  1  0.212400  0.250600  0.309400  1
  H  H361  1  0.765400  0.755000  0.632900  1
  H  H362  1  0.234600  0.245000  0.367100  1
  H  H363  1  0.180600  0.989700  0.034700  1
  H  H364  1  0.819400  0.010300  0.965300  1
  H  H365  1  0.241400  0.934500  0.013700  1
  H  H366  1  0.758600  0.065500  0.986300  1
  H  H367  1  0.160900  0.929200  0.022000  1
  H  H368  1  0.839100  0.070800  0.978000  1
  H  H369  1  0.775000  0.365300  0.108300  1
  H  H370  1  0.225000  0.634700  0.891700  1
  H  H371  1  0.729600  0.359600  0.066700  1
  H  H372  1  0.270400  0.640400  0.933300  1
  H  H373  1  0.772700  0.303300  0.083800  1
  H  H374  1  0.227300  0.696700  0.916200  1
  Pd  Pd375  1  0.817030  0.702178  0.130870  1
  Pd  Pd376  1  0.182970  0.297822  0.869130  1
  Pd  Pd377  1  0.096470  0.821152  0.361480  1
  Pd  Pd378  1  0.903530  0.178848  0.638520  1
  C  C379  1  0.158900  0.904700  0.407200  1
  C  C380  1  0.841100  0.095300  0.592800  1
  C  C381  1  0.419100  0.053500  0.356700  1
  C  C382  1  0.580900  0.946500  0.643300  1
  C  C383  1  0.860800  0.782700  0.267800  1
  C  C384  1  0.139200  0.217300  0.732200  1
  C  C385  1  0.048200  0.892800  0.471600  1
  C  C386  1  0.951800  0.107200  0.528400  1
  C  C387  1  0.699200  0.675400  0.392000  1
  C  C388  1  0.300800  0.324600  0.608000  1
  C  C389  1  0.487800  0.129900  0.353000  1
  C  C390  1  0.512200  0.870100  0.647000  1
  C  C391  1  0.195500  0.582700  0.280500  1
  C  C392  1  0.804500  0.417300  0.719500  1
  C  C393  1  0.766700  0.826400  0.135700  1
  C  C394  1  0.233300  0.173600  0.864300  1
  C  C395  1  0.141500  0.744400  0.442500  1
  C  C396  1  0.858500  0.255600  0.557500  1
  C  C397  1  0.164200  0.947300  0.443600  1
  C  C398  1  0.835800  0.052700  0.556400  1
  C  C399  1  0.716300  0.940700  0.217000  1
  C  C400  1  0.283700  0.059300  0.783000  1
  C  C401  1  0.542900  0.044400  0.288700  1
  C  C402  1  0.457100  0.955600  0.711300  1
  C  C403  1  0.603600  0.007400  0.244000  1
  C  C404  1  0.396400  0.992600  0.756000  1
  C  C405  1  0.194000  0.015700  0.338100  1
  C  C406  1  0.806000  0.984300  0.661900  1
  C  C407  1  0.455500  0.669000  0.619700  1
  C  C408  1  0.544500  0.331000  0.380300  1
  C  C409  1  0.579500  0.703500  0.466500  1
  C  C410  1  0.420500  0.296500  0.533500  1
  C  C411  1  0.272100  0.729000  0.556400  1
  C  C412  1  0.727900  0.271000  0.443600  1
  C  C413  1  0.767800  0.692600  0.031500  1
  C  C414  1  0.232200  0.307400  0.968500  1
  C  C415  1  0.755000  0.742100  0.314900  1
  C  C416  1  0.245000  0.257900  0.685100  1
  C  C417  1  0.864100  0.761900  0.214000  1
  C  C418  1  0.135900  0.238100  0.786000  1
  C  C419  1  0.146100  0.716700  0.286900  1
  C  C420  1  0.853900  0.283300  0.713100  1
  C  C421  1  0.220600  0.840000  0.107200  1
  C  C422  1  0.779400  0.160000  0.892800  1
  C  C423  1  0.453300  0.687200  0.506800  1
  C  C424  1  0.546700  0.312800  0.493200  1
  C  C425  1  0.352400  0.028600  0.380600  1
  C  C426  1  0.647600  0.971400  0.619400  1
  C  C427  1  0.277800  0.774100  0.591300  1
  C  C428  1  0.722200  0.225900  0.408700  1
  C  C429  1  0.325100  0.679900  0.537500  1
  C  C430  1  0.674900  0.320100  0.462500  1
  C  C431  1  0.321900  0.567400  0.179600  1
  C  C432  1  0.678100  0.432600  0.820400  1
  C  C433  1  0.563900  0.473900  0.215900  1
  C  C434  1  0.436100  0.526100  0.784100  1
  C  C435  1  0.306200  0.032400  0.348300  1
  C  C436  1  0.693800  0.967600  0.651700  1
  C  C437  1  0.162900  0.868100  0.246000  1
  C  C438  1  0.837100  0.131900  0.754000  1
  C  C439  1  0.806500  0.773400  0.318800  1
  C  C440  1  0.193500  0.226600  0.681200  1
  C  C441  1  0.760500  0.722300  0.259400  1
  C  C442  1  0.239500  0.277700  0.740600  1
  C  C443  1  0.254900  0.641400  0.485700  1
  C  C444  1  0.745100  0.358600  0.514300  1
  C  C445  1  0.242300  0.007100  0.370900  1
  C  C446  1  0.757700  0.992900  0.629100  1
  C  C447  1  0.600600  0.997600  0.187700  1
  C  C448  1  0.399400  0.002400  0.812300  1
  C  C449  1  0.516700  0.689500  0.516300  1
  C  C450  1  0.483300  0.310500  0.483700  1
  C  C451  1  0.049100  0.732200  0.231400  1
  C  C452  1  0.950900  0.267800  0.768600  1
  C  C453  1  0.694100  0.729200  0.367800  1
  C  C454  1  0.305900  0.270800  0.632200  1
  C  C455  1  0.575500  0.757900  0.441400  1
  C  C456  1  0.424500  0.242100  0.558600  1
  C  C457  1  0.046400  0.770100  0.274100  1
  C  C458  1  0.953600  0.229900  0.725900  1
  C  C459  1  0.396000  0.824000  0.975100  1
  C  C460  1  0.604000  0.176000  0.024900  1
  C  C461  1  0.862900  0.796500  0.050700  1
  C  C462  1  0.137100  0.203500  0.949300  1
  C  C463  1  0.765300  0.883400  0.120600  1
  C  C464  1  0.234700  0.116600  0.879400  1
  C  C465  1  0.067500  0.931500  0.305500  1
  C  C466  1  0.932500  0.068500  0.694500  1
  C  C467  1  0.209100  0.045600  0.287800  1
  C  C468  1  0.790900  0.954400  0.712200  1
  C  C469  1  0.367300  0.969900  0.520400  1
  C  C470  1  0.632700  0.030100  0.479600  1
  C  C471  1  0.210400  0.734200  0.539100  1
  C  C472  1  0.789600  0.265800  0.460900  1
  C  C473  1  0.661700  0.980500  0.258700  1
  C  C474  1  0.338300  0.019500  0.741300  1
  C  C475  1  0.711700  0.928600  0.161700  1
  C  C476  1  0.288300  0.071400  0.838300  1
  C  C477  1  0.205900  0.623200  0.236100  1
  C  C478  1  0.794100  0.376800  0.763900  1
  C  C479  1  0.641100  0.662300  0.442800  1
  C  C480  1  0.358900  0.337700  0.557200  1
  C  C481  1  0.647400  0.606300  0.467600  1
  C  C482  1  0.352600  0.393700  0.532400  1
  C  C483  1  0.426200  0.380900  0.219400  1
  C  C484  1  0.573800  0.619100  0.780600  1
  C  C485  1  0.274800  0.972900  0.455300  1
  C  C486  1  0.725200  0.027100  0.544700  1
  C  C487  1  0.230700  0.883100  0.141200  1
  C  C488  1  0.769300  0.116900  0.858800  1
  C  C489  1  0.392000  0.677200  0.550400  1
  C  C490  1  0.608000  0.322800  0.449600  1
  C  C491  1  0.761100  0.595200  0.170800  1
  C  C492  1  0.238900  0.404800  0.829200  1
  C  C493  1  0.381700  0.998100  0.468800  1
  C  C494  1  0.618300  0.001900  0.531200  1
  C  C495  1  0.263100  0.942300  0.509600  1
  C  C496  1  0.736900  0.057700  0.490400  1
  C  C497  1  0.519300  0.778100  0.923500  1
  C  C498  1  0.480700  0.221900  0.076500  1
  C  C499  1  0.338800  0.844000  0.031700  1
  C  C500  1  0.661200  0.156000  0.968300  1
  C  C501  1  0.228200  0.976600  0.423600  1
  C  C502  1  0.771800  0.023400  0.576400  1
  C  C503  1  0.366300  0.583300  0.486600  1
  C  C504  1  0.633700  0.416700  0.513400  1
  C  C505  1  0.766200  0.673500  0.977800  1
  C  C506  1  0.233800  0.326500  0.022200  1
  C  C507  1  0.173700  0.903500  0.198600  1
  C  C508  1  0.826300  0.096500  0.801400  1
  C  C509  1  0.596500  0.690900  0.939900  1
  C  C510  1  0.403500  0.309100  0.060100  1
  C  C511  1  0.692100  0.515200  0.202900  1
  C  C512  1  0.307900  0.484800  0.797100  1
  C  C513  1  0.668100  0.990500  0.315000  1
  C  C514  1  0.331900  0.009500  0.685000  1
  C  C515  1  0.165900  0.825400  0.594300  1
  C  C516  1  0.834100  0.174600  0.405700  1
  C  C517  1  0.614700  0.476100  0.159500  1
  C  C518  1  0.385300  0.523900  0.840500  1
  C  C519  1  0.307500  0.941000  0.540500  1
  C  C520  1  0.692500  0.059000  0.459500  1
  C  C521  1  0.336600  0.000400  0.434400  1
  C  C522  1  0.663400  0.999600  0.565600  1
  C  C523  1  0.817500  0.895900  0.067400  1
  C  C524  1  0.182500  0.104100  0.932600  1
  C  C525  1  0.278700  0.656400  0.138100  1
  C  C526  1  0.721300  0.343600  0.861900  1
  C  C527  1  0.706900  0.698700  0.957500  1
  C  C528  1  0.293100  0.301300  0.042500  1
  C  C529  1  0.316100  0.635200  0.504200  1
  C  C530  1  0.683900  0.364800  0.495800  1
  C  C531  1  0.495000  0.455700  0.221000  1
  C  C532  1  0.505000  0.544300  0.779000  1
  C  C533  1  0.871200  0.629100  0.021300  1
  C  C534  1  0.128800  0.370900  0.978700  1
  C  C535  1  0.348300  0.888800  0.065400  1
  C  C536  1  0.651700  0.111200  0.934600  1
  C  C537  1  0.587100  0.750600  0.929100  1
  C  C538  1  0.412900  0.249400  0.070900  1
  C  C539  1  0.142900  0.700500  0.481000  1
  C  C540  1  0.857100  0.299500  0.519000  1
  C  C541  1  0.267400  0.615900  0.185300  1
  C  C542  1  0.732600  0.384100  0.814700  1
  C  C543  1  0.373900  0.481500  0.222500  1
  C  C544  1  0.626100  0.518500  0.777500  1
  C  C545  1  0.436500  0.495800  0.223800  1
  C  C546  1  0.563500  0.504200  0.776200  1
  C  C547  1  0.226600  0.820500  0.610200  1
  C  C548  1  0.773400  0.179500  0.389800  1
  C  C549  1  0.109000  0.961800  0.496300  1
  C  C550  1  0.891000  0.038200  0.503700  1
  C  C551  1  0.157800  0.784200  0.559500  1
  C  C552  1  0.842200  0.215800  0.440500  1
  C  C553  1  0.076000  0.970000  0.260000  1
  C  C554  1  0.924000  0.030000  0.740000  1
  C  C555  1  0.123100  0.548300  0.374500  1
  C  C556  1  0.876900  0.451700  0.625500  1
  C  C557  1  0.578100  0.487700  0.267000  1
  C  C558  1  0.421900  0.512300  0.733000  1
  C  C559  1  0.547700  0.655700  0.936000  1
  C  C560  1  0.452300  0.344300  0.064000  1
  C  C561  1  0.150400  0.675200  0.245300  1
  C  C562  1  0.849600  0.324800  0.754700  1
  C  C563  1  0.203700  0.690300  0.502800  1
  C  C564  1  0.796300  0.309700  0.497200  1
  C  C565  1  0.294300  0.907400  0.121400  1
  C  C566  1  0.705700  0.092600  0.878600  1
  C  C567  1  0.760200  0.631600  0.368700  1
  C  C568  1  0.239800  0.368400  0.631300  1
  C  C569  1  0.598700  0.979500  0.072500  1
  C  C570  1  0.401300  0.020500  0.927500  1
  C  C571  1  0.638400  0.783800  0.930000  1
  C  C572  1  0.361600  0.216200  0.070000  1
  C  C573  1  0.129700  0.955600  0.205800  1
  C  C574  1  0.870300  0.044400  0.794200  1
  C  C575  1  0.545800  0.028000  0.169200  1
  C  C576  1  0.454200  0.972000  0.830800  1
  C  C577  1  0.035200  0.727600  0.436800  1
  C  C578  1  0.964800  0.272400  0.563200  1
  C  C579  1  0.708100  0.566800  0.443500  1
  C  C580  1  0.291900  0.433200  0.556500  1
  C  C581  1  0.050000  0.933200  0.511300  1
  C  C582  1  0.950000  0.066800  0.488700  1
  C  C583  1  0.446200  0.822100  0.867900  1
  C  C584  1  0.553800  0.177900  0.132100  1
  C  C585  1  0.628500  0.826200  0.366000  1
  C  C586  1  0.371500  0.173800  0.634000  1
  C  C587  1  0.250100  0.533900  0.275500  1
  C  C588  1  0.749900  0.466100  0.724500  1
  C  C589  1  0.100800  0.683300  0.216900  1
  C  C590  1  0.899200  0.316700  0.783100  1
  C  C591  1  0.633500  0.771000  0.391300  1
  C  C592  1  0.366500  0.229000  0.608700  1
  C  C593  1  0.478900  0.023400  0.313500  1
  C  C594  1  0.521100  0.976600  0.686500  1
  C  C595  1  0.779400  0.926700  0.286400  1
  C  C596  1  0.220600  0.073300  0.713600  1
  C  C597  1  0.297900  0.547200  0.436800  1
  C  C598  1  0.702100  0.452800  0.563200  1
  C  C599  1  0.409900  0.916200  0.045500  1
  C  C600  1  0.590100  0.083800  0.954500  1
  C  C601  1  0.088900  0.669200  0.496500  1
  C  C602  1  0.911100  0.330800  0.503500  1
  C  C603  1  0.515400  0.802000  0.464900  1
  C  C604  1  0.484600  0.198000  0.535100  1
  C  C605  1  0.132400  0.587800  0.331200  1
  C  C606  1  0.867600  0.412200  0.668800  1
  C  C607  1  0.657000  0.664800  0.954100  1
  C  C608  1  0.343000  0.335200  0.045900  1
  C  C609  1  0.698900  0.757700  0.944400  1
  C  C610  1  0.301100  0.242300  0.055600  1
  C  C611  1  0.530400  0.480600  0.324800  1
  C  C612  1  0.469600  0.519400  0.675200  1
  C  C613  1  0.545500  0.021000  0.112900  1
  C  C614  1  0.454500  0.979000  0.887100  1
  C  C615  1  0.276100  0.819700  0.052300  1
  C  C616  1  0.723900  0.180300  0.947700  1
  C  C617  1  0.249600  0.595500  0.450000  1
  C  C618  1  0.750400  0.404500  0.550000  1
  C  C619  1  0.756100  0.541300  0.195400  1
  C  C620  1  0.243900  0.458700  0.804600  1
  C  C621  1  0.512100  0.854100  0.438400  1
  C  C622  1  0.487900  0.145900  0.561600  1
  C  C623  1  0.307000  0.949700  0.156400  1
  C  C624  1  0.693000  0.050300  0.843600  1
  C  C625  1  0.313700  0.527800  0.225100  1
  C  C626  1  0.686300  0.472200  0.774900  1
  C  C627  1  0.723000  0.964800  0.328500  1
  C  C628  1  0.277000  0.035200  0.671500  1
  C  C629  1  0.631200  0.843400  0.919300  1
  C  C630  1  0.368800  0.156600  0.080700  1
  C  C631  1  0.865300  0.852400  0.031600  1
  C  C632  1  0.134700  0.147600  0.968400  1
  C  C633  1  0.319900  0.062600  0.294000  1
  C  C634  1  0.680100  0.937400  0.706000  1
  C  C635  1  0.337800  0.648700  0.090400  1
  C  C636  1  0.662200  0.351300  0.909600  1
  C  C637  1  0.367500  0.974100  0.135400  1
  C  C638  1  0.632500  0.025900  0.864600  1
  C  C639  1  0.775000  0.915200  0.233600  1
  C  C640  1  0.225000  0.084800  0.766400  1
  C  C641  1  0.650500  0.948400  0.089300  1
  C  C642  1  0.349500  0.051600  0.910700  1
  C  C643  1  0.240200  0.495200  0.322000  1
  C  C644  1  0.759800  0.504800  0.678000  1
  C  C645  1  0.460600  0.794000  0.975600  1
  C  C646  1  0.539400  0.206000  0.024400  1
  C  C647  1  0.033800  0.682500  0.474000  1
  C  C648  1  0.966200  0.317500  0.526000  1
  C  C649  1  0.383200  0.560900  0.127200  1
  C  C650  1  0.616800  0.439100  0.872800  1
  C  C651  1  0.157700  0.815800  0.124100  1
  C  C652  1  0.842300  0.184200  0.875900  1
  C  C653  1  0.357400  0.541300  0.454900  1
  C  C654  1  0.642600  0.458700  0.545100  1
  C  C655  1  0.764900  0.580200  0.393400  1
  C  C656  1  0.235100  0.419800  0.606600  1
  C  C657  1  0.643800  0.508100  0.260200  1
  C  C658  1  0.356200  0.491900  0.739800  1
  C  C659  1  0.657200  0.518800  0.313600  1
  C  C660  1  0.342800  0.481200  0.686400  1
  C  C661  1  0.272600  0.068100  0.265200  1
  C  C662  1  0.727400  0.931900  0.734800  1
  C  C663  1  0.558300  0.597800  0.943400  1
  C  C664  1  0.441700  0.402200  0.056600  1
  C  C665  1  0.391700  0.599800  0.084300  1
  C  C666  1  0.608300  0.400200  0.915700  1
  C  C667  1  0.663400  0.604500  0.964200  1
  C  C668  1  0.336600  0.395500  0.035800  1
  C  C669  1  0.266900  0.773900  0.019200  1
  C  C670  1  0.733100  0.226100  0.980800  1
  C  C671  1  0.178300  0.500900  0.369900  1
  C  C672  1  0.821700  0.499100  0.630100  1
  C  C673  1  0.419000  0.956200  0.079400  1
  C  C674  1  0.581000  0.043800  0.920600  1
  C  C675  1  0.679800  0.496900  0.151900  1
  C  C676  1  0.320200  0.503100  0.848100  1
  C  C677  1  0.873100  0.595300  0.176400  1
  C  C678  1  0.126900  0.404700  0.823600  1
  C  C679  1  0.604800  0.458000  0.107100  1
  C  C680  1  0.395200  0.542000  0.892900  1
  C  C681  1  0.819900  0.630000  0.945700  1
  C  C682  1  0.180100  0.370000  0.054300  1
  C  C683  1  0.617200  0.572200  0.958300  1
  C  C684  1  0.382800  0.427800  0.041700  1
  C  C685  1  0.872100  0.608300  0.968600  1
  C  C686  1  0.127900  0.391700  0.031400  1
  C  C687  1  0.547100  0.489700  0.374300  1
  C  C688  1  0.452900  0.510300  0.625700  1
  C  C689  1  0.750500  0.792900  0.944100  1
  C  C690  1  0.249500  0.207100  0.055900  1
  C  C691  1  0.612300  0.509500  0.367400  1
  C  C692  1  0.387700  0.490500  0.632600  1
  C  C693  1  0.568400  0.866600  0.389700  1
  C  C694  1  0.431600  0.133400  0.610300  1
  C  C695  1  0.870700  0.543700  0.202400  1
  C  C696  1  0.129300  0.456300  0.797600  1
  C  C697  1  0.679000  0.874500  0.920300  1
  C  C698  1  0.321000  0.125500  0.079700  1
  C  C699  1  0.205200  0.750500  0.038300  1
  C  C700  1  0.794800  0.249500  0.961700  1
  C  C701  1  0.150300  0.773500  0.091600  1
  C  C702  1  0.849700  0.226500  0.908400  1
  C  C703  1  0.652700  0.460100  0.054200  1
  C  C704  1  0.347300  0.539900  0.945800  1
  C  C705  1  0.812600  0.514600  0.211200  1
  C  C706  1  0.187400  0.485400  0.788800  1
  C  C707  1  0.718900  0.479000  0.046500  1
  C  C708  1  0.281100  0.521000  0.953500  1
  C  C709  1  0.740800  0.849400  0.933900  1
  C  C710  1  0.259200  0.150600  0.066100  1
  C  C711  1  0.731400  0.497900  0.093500  1
  C  C712  1  0.268600  0.502100  0.906500  1
  C  C713  1  0.516900  0.679400  0.573400  1
  C  C714  1  0.483100  0.320600  0.426600  1
  C  C715  1  0.590300  0.657300  0.633500  1
  C  C716  1  0.409700  0.342700  0.366500  1
  C  C717  1  0.668800  0.641900  0.619900  1
  C  C718  1  0.331200  0.358100  0.380100  1
  C  C719  1  0.777200  0.670200  0.595700  1
  C  C720  1  0.222800  0.329800  0.404300  1
  C  C721  1  0.393600  0.667600  0.608000  1
  C  C722  1  0.606400  0.332400  0.392000  1
  C  C723  1  0.329100  0.650600  0.709000  1
  C  C724  1  0.670900  0.349400  0.291000  1
  C  C725  1  0.256900  0.637800  0.744300  1
  C  C726  1  0.743100  0.362200  0.255700  1
  C  C727  1  0.139600  0.679900  0.780900  1
  C  C728  1  0.860400  0.320100  0.219100  1
  C  C729  1  0.546200  0.099100  0.308800  1
  C  C730  1  0.453800  0.900900  0.691200  1
  C  C731  1  0.623800  0.166200  0.309800  1
  C  C732  1  0.376200  0.833800  0.690200  1
  C  C733  1  0.695300  0.179700  0.272900  1
  C  C734  1  0.304700  0.820300  0.727100  1
  C  C735  1  0.819100  0.149300  0.233900  1
  C  C736  1  0.180900  0.850700  0.766100  1
  C  C737  1  0.425100  0.108300  0.375800  1
  C  C738  1  0.574900  0.891700  0.624200  1
  C  C739  1  0.366800  0.189500  0.442800  1
  C  C740  1  0.633200  0.810500  0.557200  1
  C  C741  1  0.295200  0.212600  0.485800  1
  C  C742  1  0.704800  0.787400  0.514200  1
  C  C743  1  0.262900  0.128800  0.542200  1
  C  C744  1  0.737100  0.871200  0.457800  1
  C  C745  1  0.509900  0.793200  0.869900  1
  C  C746  1  0.490100  0.206800  0.130100  1
  C  C747  1  0.575200  0.807400  0.767600  1
  C  C748  1  0.424800  0.192600  0.232400  1
  C  C749  1  0.646900  0.791600  0.724400  1
  C  C750  1  0.353100  0.208400  0.275600  1
  C  C751  1  0.769600  0.784500  0.710600  1
  C  C752  1  0.230400  0.215500  0.289400  1
  C  C753  1  0.390300  0.837900  0.919900  1
  C  C754  1  0.609700  0.162100  0.080100  1
  C  C755  1  0.319800  0.876500  0.864000  1
  C  C756  1  0.680200  0.123500  0.136000  1
  C  C757  1  0.248700  0.912600  0.875400  1
  C  C758  1  0.751300  0.087400  0.124600  1
  C  C759  1  0.124500  0.917700  0.915800  1
  C  C760  1  0.875500  0.082300  0.084200  1
  C  C761  1  0.487600  0.397800  0.221000  1
  C  C762  1  0.512400  0.602200  0.779000  1
  C  C763  1  0.561800  0.305600  0.190500  1
  C  C764  1  0.438200  0.694400  0.809500  1
  C  C765  1  0.631300  0.302000  0.142700  1
  C  C766  1  0.368700  0.698000  0.857300  1
  C  C767  1  0.753700  0.276200  0.131700  1
  C  C768  1  0.246300  0.723800  0.868300  1
  C  C769  1  0.370100  0.422400  0.218700  1
  C  C770  1  0.629900  0.577600  0.781300  1
  C  C771  1  0.301700  0.350700  0.211800  1
  C  C772  1  0.698300  0.649300  0.788200  1
  C  C773  1  0.232100  0.347800  0.205600  1
  C  C774  1  0.767900  0.652200  0.794400  1
  C  C775  1  0.114600  0.346600  0.253300  1
  C  C776  1  0.885400  0.653400  0.746700  1
  C  C777  1  0.655500  0.957200  0.145400  1
  C  C778  1  0.344500  0.042800  0.854600  1
  C  C779  1  0.112300  0.178600  0.469600  1
  C  C780  1  0.887700  0.821400  0.530400  1
  C  C781  1  0.916500  0.027900  0.359400  1
  C  C782  1  0.083500  0.972100  0.640600  1
  C  C783  1  0.073100  0.358200  0.588600  1
  C  C784  1  0.926900  0.641800  0.411400  1
  C  C785  1  0.347900  0.799700  0.419700  1
  C  C786  1  0.652100  0.200300  0.580300  1
  C  C787  1  0.838100  0.506200  0.821800  1
  C  C788  1  0.161900  0.493800  0.178200  1
  C  C789  1  0.811100  0.414900  0.374600  1
  C  C790  1  0.188900  0.585100  0.625400  1
  C  C791  1  0.578600  0.106400  0.690500  1
  C  C792  1  0.421400  0.893600  0.309500  1
  C  C793  1  0.507500  0.303500  0.668700  1
  C  C794  1  0.492500  0.696500  0.331300  1
  C  C795  1  0.057200  0.430500  0.682700  1
  C  C796  1  0.942800  0.569500  0.317300  1
  C  C797  1  0.430700  0.362900  0.867000  1
  C  C798  1  0.569300  0.637100  0.133000  1
  C  C799  1  0.425900  0.186600  0.910700  1
  C  C800  1  0.574100  0.813400  0.089300  1
  C  C801  1  0.380800  0.762800  0.168000  1
  C  C802  1  0.619200  0.237200  0.832000  1
  C  C803  1  0.355400  0.637400  0.315100  1
  C  C804  1  0.644600  0.362600  0.684900  1
  C  C805  1  0.971900  0.848800  0.144600  1
  C  C806  1  0.028100  0.151200  0.855400  1
  C  C807  1  0.049600  0.720700  0.944700  1
  C  C808  1  0.950400  0.279300  0.055300  1
  C  C809  1  0.253700  0.792200  0.321100  1
  C  C810  1  0.746300  0.207800  0.678900  1
  C  C811  1  0.306700  0.899200  0.882500  1
  C  C812  1  0.693300  0.100800  0.117500  1
  C  C813  1  0.231900  0.927700  0.903300  1
  C  C814  1  0.768100  0.072300  0.096700  1
  C  C815  1  0.770300  0.607300  0.538300  1
  C  C816  1  0.229700  0.392700  0.461700  1
  C  C817  1  0.760300  0.206300  0.175800  1
  C  C818  1  0.239700  0.793700  0.824200  1
  C  C819  1  0.761600  0.733400  0.668800  1
  C  C820  1  0.238400  0.266600  0.331200  1
  C  C821  1  0.197200  0.954400  0.009600  1
  C  C822  1  0.802800  0.045600  0.990400  1
  C  C823  1  0.745300  0.341500  0.098000  1
  C  C824  1  0.254700  0.658500  0.902000  1
  N  N825  1  0.095000  0.763100  0.301400  1
  N  N826  1  0.905000  0.236900  0.698600  1
  N  N827  1  0.109900  0.881070  0.298700  1
  N  N828  1  0.890100  0.118930  0.701300  1
  N  N829  1  0.102000  0.878700  0.420100  1
  N  N830  1  0.898000  0.121300  0.579900  1
  N  N831  1  0.088500  0.758300  0.420600  1
  N  N832  1  0.911500  0.241700  0.579400  1
  N  N833  1  0.818800  0.622200  0.161600  1
  N  N834  1  0.181200  0.377800  0.838400  1
  N  N835  1  0.818300  0.672000  0.052900  1
  N  N836  1  0.181700  0.328000  0.947100  1
  N  N837  1  0.814200  0.783600  0.101800  1
  N  N838  1  0.185800  0.216400  0.898200  1
  N  N839  1  0.814600  0.731630  0.209600  1
  N  N840  1  0.185400  0.268370  0.790400  1
  N  N841  1  0.089200  0.121610  0.609800  1
  N  N842  1  0.910800  0.878390  0.390200  1
  N  N843  1  0.416900  0.196100  0.754000  1
  N  N844  1  0.583100  0.803900  0.246000  1
  N  N845  1  0.004300  0.690500  0.089000  1
  N  N846  1  0.995700  0.309500  0.911000  1
  N  N847  1  0.076400  0.483900  0.533800  1
  N  N848  1  0.923600  0.516100  0.466200  1
  N  N849  1  0.045100  0.084500  0.122400  1
  N  N850  1  0.954900  0.915500  0.877600  1
  N  N851  1  0.021500  0.673500  0.085300  1
  N  N852  1  0.978500  0.326500  0.914700  1
  O  O853  1  0.580200  0.682260  0.581720  1
  O  O854  1  0.419800  0.317740  0.418280  1
  O  O855  1  0.703300  0.688800  0.610800  1
  O  O856  1  0.296700  0.311200  0.389200  1
  O  O857  1  0.331500  0.657100  0.649230  1
  O  O858  1  0.668500  0.342900  0.350770  1
  O  O859  1  0.207300  0.688100  0.751800  1
  O  O860  1  0.792700  0.311900  0.248200  1
  O  O861  1  0.609000  0.119580  0.281600  1
  O  O862  1  0.391000  0.880420  0.718400  1
  O  O863  1  0.751100  0.133400  0.268200  1
  O  O864  1  0.248900  0.866600  0.731800  1
  O  O865  1  0.364710  0.136020  0.417150  1
  O  O866  1  0.635290  0.863980  0.582850  1
  O  O867  1  0.273600  0.186600  0.540900  1
  O  O868  1  0.726400  0.813400  0.459100  1
  O  O869  1  0.568000  0.775210  0.819550  1
  O  O870  1  0.432000  0.224790  0.180450  1
  O  O871  1  0.696800  0.797000  0.749600  1
  O  O872  1  0.303200  0.203000  0.250400  1
  O  O873  1  0.325000  0.867200  0.922900  1
  O  O874  1  0.675000  0.132800  0.077100  1
  O  O875  1  0.193000  0.884300  0.906100  1
  O  O876  1  0.807000  0.115700  0.093900  1
  O  O877  1  0.544700  0.359080  0.223500  1
  O  O878  1  0.455300  0.640920  0.776500  1
  O  O879  1  0.681100  0.284700  0.172100  1
  O  O880  1  0.318900  0.715300  0.827900  1
  O  O881  1  0.307900  0.410100  0.215600  1
  O  O882  1  0.692100  0.589900  0.784400  1
  O  O883  1  0.178900  0.360400  0.259300  1
  O  O884  1  0.821100  0.639600  0.740700  1
  O  O885  1  0.016200  0.192400  0.415500  1
  O  O886  1  0.983800  0.807600  0.584500  1
  O  O887  1  0.084500  0.082300  0.580300  1
  O  O888  1  0.915500  0.917700  0.419700  1
  O  O889  1  0.081400  0.116800  0.663700  1
  O  O890  1  0.918600  0.883200  0.336300  1
  O  O891  1  0.080000  0.172910  0.594400  1
  O  O892  1  0.920000  0.827090  0.405600  1
  O  O893  1  0.370800  0.237800  0.773500  1
  O  O894  1  0.629200  0.762200  0.226500  1
  O  O895  1  0.411000  0.149000  0.773700  1
  O  O896  1  0.589000  0.851000  0.226300  1
  O  O897  1  0.476800  0.204500  0.717900  1
  O  O898  1  0.523200  0.795500  0.282100  1
  O  O899  1  0.005900  0.667200  0.134900  1
  O  O900  1  0.994100  0.332800  0.865100  1
  O  O901  1  0.993600  0.743300  0.087700  1
  O  O902  1  0.006400  0.256700  0.912300  1
  O  O903  1  0.000100  0.661700  0.048500  1
  O  O904  1  0.999900  0.338300  0.951500  1
  O  O905  1  0.154400  0.128100  0.437800  1
  O  O906  1  0.845600  0.871900  0.562200  1
  O  O907  1  0.887200  0.035300  0.314400  1
  O  O908  1  0.112800  0.964700  0.685600  1
  O  O909  1  0.126200  0.308800  0.570200  1
  O  O910  1  0.873800  0.691200  0.429800  1
  O  O911  1  0.319800  0.837300  0.384400  1
  O  O912  1  0.680200  0.162700  0.615600  1
  O  O913  1  0.879800  0.519500  0.853400  1
  O  O914  1  0.120200  0.480500  0.146600  1
  O  O915  1  0.021100  0.097400  0.346800  1
  O  O916  1  0.978900  0.902600  0.653200  1
  O  O917  1  0.840600  0.441400  0.320400  1
  O  O918  1  0.159400  0.558600  0.679600  1
  O  O919  1  0.593400  0.096500  0.743200  1
  O  O920  1  0.406600  0.903500  0.256800  1
  O  O921  1  0.073600  0.440900  0.506800  1
  O  O922  1  0.926400  0.559100  0.493200  1
  O  O923  1  0.025800  0.524100  0.547100  1
  O  O924  1  0.974200  0.475900  0.452900  1
  O  O925  1  0.134900  0.493400  0.531800  1
  O  O926  1  0.865100  0.506600  0.468200  1
  O  O927  1  0.446300  0.345700  0.682800  1
  O  O928  1  0.553700  0.654300  0.317200  1
  O  O929  1  0.045200  0.384000  0.720600  1
  O  O930  1  0.954800  0.616000  0.279400  1
  O  O931  1  0.378000  0.333400  0.860600  1
  O  O932  1  0.622000  0.666600  0.139400  1
  O  O933  1  0.371800  0.214800  0.891100  1
  O  O934  1  0.628200  0.785200  0.108900  1
  O  O935  1  0.333800  0.738600  0.217000  1
  O  O936  1  0.666200  0.261400  0.783000  1
  O  O937  1  0.407000  0.650300  0.261800  1
  O  O938  1  0.593000  0.349700  0.738200  1
  O  O939  1  0.986700  0.283500  0.351400  1
  O  O940  1  0.013300  0.716500  0.648600  1
  O  O941  1  0.961800  0.459600  0.305000  1
  O  O942  1  0.038200  0.540400  0.695000  1
  O  O943  1  0.985000  0.609300  0.614900  1
  O  O944  1  0.015000  0.390700  0.385100  1
  O  O945  1  0.941400  0.739200  0.892200  1
  O  O946  1  0.058600  0.260800  0.107800  1
  O  O947  1  0.005000  0.424400  0.192800  1
  O  O948  1  0.995000  0.575600  0.807200  1
  O  O949  1  0.078600  0.116300  0.230900  1
  O  O950  1  0.921400  0.883700  0.769100  1
  O  O951  1  0.973800  0.882800  0.191300  1
  O  O952  1  0.026200  0.117200  0.808700  1
  O  O953  1  0.062700  0.777500  0.947000  1
  O  O954  1  0.937300  0.222500  0.053000  1
  O  O955  1  0.075900  0.541000  0.940600  1
  O  O956  1  0.924100  0.459000  0.059400  1
  O  O957  1  0.021400  0.056200  0.166000  1
  O  O958  1  0.978600  0.943800  0.834000  1
  O  O959  1  0.069900  0.127900  0.126800  1
  O  O960  1  0.930100  0.872100  0.873200  1
  O  O961  1  0.035400  0.073800  0.076000  1
  O  O962  1  0.964600  0.926200  0.924000  1
  O  O963  1  0.019400  0.659400  0.135200  1
  O  O964  1  0.980600  0.340600  0.864800  1
  O  O965  1  0.077900  0.663200  0.043000  1
  O  O966  1  0.922100  0.336800  0.957000  1
  O  O967  1  0.967300  0.696000  0.076800  1
  O  O968  1  0.032700  0.304000  0.923200  1
  O  O969  1  0.701700  0.597000  0.581600  1
  O  O970  1  0.298300  0.403000  0.418400  1
  O  O971  1  0.689600  0.197600  0.216000  1
  O  O972  1  0.310400  0.802400  0.784000  1
  O  O973  1  0.684600  0.737700  0.707400  1
  O  O974  1  0.315400  0.262300  0.292600  1
  O  O975  1  0.210100  0.968700  0.949100  1
  O  O976  1  0.789900  0.031300  0.050900  1
  O  O977  1  0.682200  0.335700  0.151200  1
  O  O978  1  0.317800  0.664300  0.848800  1
